
     RDKit          3D

 20 20  0  0  1  0  0  0  0  0999 V2000
   44.5000   35.6350   43.5870 C   0  0  1  0  0  0  0  0  0  0  0  0
   45.3450   34.6360   44.3030 C   0  0  0  0  0  0  0  0  0  0  0  0
   46.4040   34.0730   43.5570 C   0  0  0  0  0  0  0  0  0  0  0  0
   47.2280   33.1370   44.1710 C   0  0  0  0  0  0  0  0  0  0  0  0
   46.9560   32.8190   45.4730 N   0  0  0  0  0  0  0  0  0  0  0  0
   45.9470   33.3680   46.1570 C   0  0  0  0  0  0  0  0  0  0  0  0
   45.1340   34.2800   45.5770 N   0  0  0  0  0  0  0  0  0  0  0  0
   45.2160   36.9470   43.3690 C   0  0  0  0  0  0  0  0  0  0  0  0
   44.0080   35.0710   42.2630 C   0  0  0  0  0  0  0  0  0  0  0  0
   42.9710   35.9490   41.8600 O   0  0  0  0  0  0  0  0  0  0  0  0
   43.6341   35.8427   44.2328 H   0  0  0  0  0  0  0  0  0  0  0  0
   46.5732   34.3693   42.5113 H   0  0  0  0  0  0  0  0  0  0  0  0
   48.0654   32.6707   43.6312 H   0  0  0  0  0  0  0  0  0  0  0  0
   45.7761   33.0746   47.2033 H   0  0  0  0  0  0  0  0  0  0  0  0
   45.4615   37.3969   44.3423 H   0  0  0  0  0  0  0  0  0  0  0  0
   46.1423   36.7695   42.8030 H   0  0  0  0  0  0  0  0  0  0  0  0
   44.5656   37.6300   42.8030 H   0  0  0  0  0  0  0  0  0  0  0  0
   44.8191   35.0621   41.5200 H   0  0  0  0  0  0  0  0  0  0  0  0
   43.6598   34.0319   42.3574 H   0  0  0  0  0  0  0  0  0  0  0  0
   42.5270   36.3249   42.6610 H   0  0  0  0  0  0  0  0  0  0  0  0
  1  2  1  0
  2  7  2  0
  3  4  2  0
  3  2  1  0
  4  5  1  0
  5  6  2  0
  7  6  1  0
  8  1  1  0
  9  1  1  0
 10  9  1  0
  1 11  1  1
  3 12  1  0
  4 13  1  0
  6 14  1  0
  8 15  1  0
  8 16  1  0
  8 17  1  0
  9 18  1  0
  9 19  1  0
 10 20  1  0
M  ISO  8  11   8  12  14  13  14  14  14  15   8  16   8  17   8  18   8
M  ISO  2  19   8  20   3
M  END
>  <minimizedAffinity>  (1) 
-3.28378892

>  <minimizedRMSD>  (1) 
0.340957642

$$$$
