
     RDKit          3D

 28 29  0  0  1  0  0  0  0  0999 V2000
   44.5320   35.6760   43.5670 C   0  0  1  0  0  0  0  0  0  0  0  0
   45.3740   34.6570   44.2780 C   0  0  0  0  0  0  0  0  0  0  0  0
   46.4350   34.0870   43.5220 C   0  0  0  0  0  0  0  0  0  0  0  0
   47.2340   33.1440   44.1550 C   0  0  0  0  0  0  0  0  0  0  0  0
   46.9600   32.8190   45.4460 N   0  0  0  0  0  0  0  0  0  0  0  0
   45.9460   33.3800   46.1310 C   0  0  0  0  0  0  0  0  0  0  0  0
   45.1410   34.3070   45.5490 N   0  0  0  0  0  0  0  0  0  0  0  0
   45.2530   37.0120   43.4620 C   0  0  0  0  0  0  0  0  0  0  0  0
   44.1480   35.1860   42.1940 C   0  0  0  0  0  0  0  0  0  0  0  0
   42.7540   35.3670   42.1160 O   0  0  0  0  0  0  0  0  0  0  0  0
   42.0530   35.2720   40.9430 C   0  0  0  0  0  0  0  0  0  0  0  0
   40.6780   35.4010   41.1570 C   0  0  0  0  0  0  0  0  0  0  0  0
   39.7760   35.3350   40.0960 C   0  0  0  0  0  0  0  0  0  0  0  0
   40.2690   35.1430   38.8540 N   0  0  0  0  0  0  0  0  0  0  0  0
   41.5980   35.0200   38.6610 C   0  0  0  0  0  0  0  0  0  0  0  0
   42.4830   35.0800   39.6660 N   0  0  0  0  0  0  0  0  0  0  0  0
   43.6175   35.8237   44.1602 H   0  0  0  0  0  0  0  0  0  0  0  0
   46.6156   34.3813   42.4776 H   0  0  0  0  0  0  0  0  0  0  0  0
   48.0716   32.6697   43.6225 H   0  0  0  0  0  0  0  0  0  0  0  0
   45.7669   33.0842   47.1752 H   0  0  0  0  0  0  0  0  0  0  0  0
   45.4607   37.3969   44.4713 H   0  0  0  0  0  0  0  0  0  0  0  0
   46.2001   36.8759   42.9194 H   0  0  0  0  0  0  0  0  0  0  0  0
   44.6193   37.7290   42.9194 H   0  0  0  0  0  0  0  0  0  0  0  0
   44.6578   35.7749   41.4173 H   0  0  0  0  0  0  0  0  0  0  0  0
   44.4366   34.1364   42.0356 H   0  0  0  0  0  0  0  0  0  0  0  0
   40.3015   35.5571   42.1787 H   0  0  0  0  0  0  0  0  0  0  0  0
   38.6940   35.4364   40.2659 H   0  0  0  0  0  0  0  0  0  0  0  0
   41.9707   34.8642   37.6379 H   0  0  0  0  0  0  0  0  0  0  0  0
  1  2  1  0
  2  7  2  0
  3  4  2  0
  3  2  1  0
  4  5  1  0
  5  6  2  0
  7  6  1  0
  8  1  1  0
  9  1  1  0
 10  9  1  0
 11 12  2  0
 11 10  1  0
 13 12  1  0
 14 13  2  0
 15 14  1  0
 15 16  2  0
 16 11  1  0
  1 17  1  1
  3 18  1  0
  4 19  1  0
  6 20  1  0
  8 21  1  0
  8 22  1  0
  8 23  1  0
  9 24  1  0
  9 25  1  0
 12 26  1  0
 13 27  1  0
 15 28  1  0
M  ISO  8  17   8  18  14  19  14  20  14  21   8  22   8  23   8  24   8
M  ISO  4  25   8  26  14  27  14  28  14
M  END
>  <minimizedAffinity>  (1) 
-4.4885149

>  <minimizedRMSD>  (1) 
0.474880159

$$$$
