
     RDKit          3D

 30 31  0  0  1  0  0  0  0  0999 V2000
   44.4620   35.7490   43.4410 C   0  0  1  0  0  0  0  0  0  0  0  0
   45.3410   34.7340   44.1110 C   0  0  0  0  0  0  0  0  0  0  0  0
   46.4010   34.2180   43.3150 C   0  0  0  0  0  0  0  0  0  0  0  0
   47.2510   33.2750   43.8870 C   0  0  0  0  0  0  0  0  0  0  0  0
   47.0020   32.9100   45.1840 N   0  0  0  0  0  0  0  0  0  0  0  0
   45.9910   33.4170   45.9060 C   0  0  0  0  0  0  0  0  0  0  0  0
   45.1620   34.3300   45.3660 N   0  0  0  0  0  0  0  0  0  0  0  0
   45.1650   37.0950   43.3320 C   0  0  0  0  0  0  0  0  0  0  0  0
   44.0170   35.2720   42.0830 C   0  0  0  0  0  0  0  0  0  0  0  0
   42.6040   35.3290   42.1280 O   0  0  0  0  0  0  0  0  0  0  0  0
   41.9410   35.2470   40.9120 C   0  0  0  0  0  0  0  0  0  0  0  0
   40.5720   35.2900   40.8610 C   0  0  0  0  0  0  0  0  0  0  0  0
   39.8860   35.2110   39.6730 C   0  0  0  0  0  0  0  0  0  0  0  0
   40.5770   35.0840   38.4760 C   0  0  0  0  0  0  0  0  0  0  0  0
   41.9550   35.0380   38.4930 C   0  0  0  0  0  0  0  0  0  0  0  0
   42.6260   35.1190   39.7050 C   0  0  0  0  0  0  0  0  0  0  0  0
   43.5671   35.8786   44.0674 H   0  0  0  0  0  0  0  0  0  0  0  0
   46.5450   34.5542   42.2776 H   0  0  0  0  0  0  0  0  0  0  0  0
   48.0882   32.8408   43.3208 H   0  0  0  0  0  0  0  0  0  0  0  0
   45.8389   33.0852   46.9437 H   0  0  0  0  0  0  0  0  0  0  0  0
   45.3687   37.4850   44.3402 H   0  0  0  0  0  0  0  0  0  0  0  0
   46.1132   36.9705   42.7885 H   0  0  0  0  0  0  0  0  0  0  0  0
   44.5210   37.8021   42.7885 H   0  0  0  0  0  0  0  0  0  0  0  0
   44.3582   34.2419   41.9026 H   0  0  0  0  0  0  0  0  0  0  0  0
   44.4327   35.8848   41.2696 H   0  0  0  0  0  0  0  0  0  0  0  0
   40.0058   35.3907   41.7987 H   0  0  0  0  0  0  0  0  0  0  0  0
   38.7866   35.2485   39.6706 H   0  0  0  0  0  0  0  0  0  0  0  0
   40.0308   35.0207   37.5233 H   0  0  0  0  0  0  0  0  0  0  0  0
   42.5180   34.9379   37.5533 H   0  0  0  0  0  0  0  0  0  0  0  0
   43.7253   35.0813   39.7133 H   0  0  0  0  0  0  0  0  0  0  0  0
  1  2  1  0
  2  7  2  0
  3  4  2  0
  3  2  1  0
  4  5  1  0
  5  6  2  0
  7  6  1  0
  8  1  1  0
  9 10  1  0
  9  1  1  0
 11 10  1  0
 12 11  2  0
 13 12  1  0
 14 15  1  0
 14 13  2  0
 15 16  2  0
 16 11  1  0
  1 17  1  1
  3 18  1  0
  4 19  1  0
  6 20  1  0
  8 21  1  0
  8 22  1  0
  8 23  1  0
  9 24  1  0
  9 25  1  0
 12 26  1  0
 13 27  1  0
 14 28  1  0
 15 29  1  0
 16 30  1  0
M  ISO  8  17   8  18  14  19  14  20  14  21   8  22   8  23   8  24   8
M  ISO  6  25   8  26  14  27  14  28  14  29  14  30  14
M  END
>  <minimizedAffinity>  (1) 
-4.80635786

>  <minimizedRMSD>  (1) 
0.778821766

$$$$
