
     RDKit          3D

 33 34  0  0  1  0  0  0  0  0999 V2000
   44.6060   35.5300   43.3800 C   0  0  1  0  0  0  0  0  0  0  0  0
   45.3990   34.5570   44.1950 C   0  0  0  0  0  0  0  0  0  0  0  0
   46.4530   33.9000   43.5130 C   0  0  0  0  0  0  0  0  0  0  0  0
   47.2440   32.9840   44.1790 C   0  0  0  0  0  0  0  0  0  0  0  0
   46.9410   32.7710   45.4970 N   0  0  0  0  0  0  0  0  0  0  0  0
   45.9350   33.4020   46.1310 C   0  0  0  0  0  0  0  0  0  0  0  0
   45.1640   34.2960   45.4770 N   0  0  0  0  0  0  0  0  0  0  0  0
   45.1490   36.9460   43.5130 C   0  0  0  0  0  0  0  0  0  0  0  0
   44.5390   35.1060   41.9350 C   0  0  0  0  0  0  0  0  0  0  0  0
   43.5310   35.9140   41.3670 O   0  0  0  0  0  0  0  0  0  0  0  0
   39.9040   34.0560   40.4690 C   0  0  0  0  0  0  0  0  0  0  0  0
   39.9460   35.4360   40.5200 C   0  0  0  0  0  0  0  0  0  0  0  0
   41.1550   36.0440   40.8190 C   0  0  0  0  0  0  0  0  0  0  0  0
   42.3180   35.3090   41.0680 C   0  0  0  0  0  0  0  0  0  0  0  0
   42.1620   33.9410   40.9910 C   0  0  0  0  0  0  0  0  0  0  0  0
   41.0130   33.2650   40.7050 C   0  0  0  0  0  0  0  0  0  0  0  0
   38.3620   33.3560   40.0900 S   0  0  0  0  0  0  0  0  0  0  0  0
   38.2400   33.0990   38.6060 O   0  0  0  0  0  0  0  0  0  0  0  0
   38.1830   32.1170   40.8830 O   0  0  0  0  0  0  0  0  0  0  0  0
   43.5805   35.5316   43.7778 H   0  0  0  0  0  0  0  0  0  0  0  0
   46.6416   34.1196   42.4518 H   0  0  0  0  0  0  0  0  0  0  0  0
   48.0696   32.4562   43.6792 H   0  0  0  0  0  0  0  0  0  0  0  0
   45.7396   33.1870   47.1919 H   0  0  0  0  0  0  0  0  0  0  0  0
   45.2473   37.2024   44.5782 H   0  0  0  0  0  0  0  0  0  0  0  0
   46.1346   37.0078   43.0285 H   0  0  0  0  0  0  0  0  0  0  0  0
   44.4574   37.6509   43.0285 H   0  0  0  0  0  0  0  0  0  0  0  0
   45.5031   35.2809   41.4350 H   0  0  0  0  0  0  0  0  0  0  0  0
   44.3202   34.0334   41.8274 H   0  0  0  0  0  0  0  0  0  0  0  0
   39.0442   36.0360   40.3285 H   0  0  0  0  0  0  0  0  0  0  0  0
   41.2012   37.1422   40.8619 H   0  0  0  0  0  0  0  0  0  0  0  0
   43.0580   33.3316   41.1800 H   0  0  0  0  0  0  0  0  0  0  0  0
   40.9713   32.1665   40.6648 H   0  0  0  0  0  0  0  0  0  0  0  0
   37.3629   34.2325   40.4224 H   0  0  0  0  0  0  0  0  0  0  0  0
  1  8  1  0
  1  2  1  0
  2  7  2  0
  3  4  2  0
  3  2  1  0
  4  5  1  0
  5  6  2  0
  7  6  1  0
  9  1  1  0
 10  9  1  0
 11 12  2  0
 11 16  1  0
 12 13  1  0
 13 14  2  0
 14 10  1  0
 15 14  1  0
 16 15  2  0
 17 11  1  0
 17 19  2  0
 18 17  2  0
  1 20  1  1
  3 21  1  0
  4 22  1  0
  6 23  1  0
  8 24  1  0
  8 25  1  0
  8 26  1  0
  9 27  1  0
  9 28  1  0
 12 29  1  0
 13 30  1  0
 15 31  1  0
 16 32  1  0
 17 33  1  0
M  ISO  8  20   8  21  14  22  14  23  14  24   8  25   8  26   8  27   8
M  ISO  6  28   8  29  14  30  14  31  14  32  14  33  11
M  END
>  <minimizedAffinity>  (1) 
-5.05468845

>  <minimizedRMSD>  (1) 
2.25781012

$$$$
