
     RDKit          3D

 24 25  0  0  0  0  0  0  0  0999 V2000
   45.9800   34.4520   41.9040 N   0  0  0  0  0  0  0  0  0  0  0  0
   45.3980   33.9990   40.7770 C   0  0  0  0  0  0  0  0  0  0  0  0
   46.2950   33.9180   39.7930 N   0  0  0  0  0  0  0  0  0  0  0  0
   47.4640   34.3310   40.3230 C   0  0  0  0  0  0  0  0  0  0  0  0
   47.2700   34.6630   41.6340 N   0  0  0  0  0  0  0  0  0  0  0  0
   48.7800   34.4530   39.7230 N   0  0  0  0  0  0  0  0  0  0  0  0
   44.4580   36.0580   44.9180 C   0  0  0  0  0  0  0  0  0  0  0  0
   44.8500   35.8980   43.5900 C   0  0  0  0  0  0  0  0  0  0  0  0
   45.5290   34.7300   43.2260 C   0  0  0  0  0  0  0  0  0  0  0  0
   45.7740   33.8010   44.1940 N   0  0  0  0  0  0  0  0  0  0  0  0
   45.3780   33.9860   45.4810 C   0  0  0  0  0  0  0  0  0  0  0  0
   44.7320   35.1010   45.8220 N   0  0  0  0  0  0  0  0  0  0  0  0
   43.9440   33.6820   40.8070 C   0  0  0  0  0  0  0  0  0  0  0  0
   43.0880   34.8270   40.3660 C   0  0  0  0  0  0  0  0  0  0  0  0
   49.5733   34.7915   40.2860 H   0  0  0  0  0  0  0  0  0  0  0  0
   48.9206   34.2010   38.7342 H   0  0  0  0  0  0  0  0  0  0  0  0
   43.9237   36.9685   45.2270 H   0  0  0  0  0  0  0  0  0  0  0  0
   44.6299   36.6747   42.8428 H   0  0  0  0  0  0  0  0  0  0  0  0
   45.5900   33.2177   46.2391 H   0  0  0  0  0  0  0  0  0  0  0  0
   43.7575   32.8274   40.1400 H   0  0  0  0  0  0  0  0  0  0  0  0
   43.6779   33.4541   41.8497 H   0  0  0  0  0  0  0  0  0  0  0  0
   42.6952   35.3525   41.2489 H   0  0  0  0  0  0  0  0  0  0  0  0
   43.6891   35.5230   39.7624 H   0  0  0  0  0  0  0  0  0  0  0  0
   42.2504   34.4474   39.7624 H   0  0  0  0  0  0  0  0  0  0  0  0
  1  9  1  0
  2 13  1  0
  2  1  1  0
  3  4  1  0
  3  2  2  0
  4  5  2  0
  5  1  1  0
  6  4  1  0
  7 12  2  0
  8  7  1  0
  9  8  2  0
  9 10  1  0
 10 11  2  0
 11 12  1  0
 14 13  1  0
  6 15  1  0
  6 16  1  0
  7 17  1  0
  8 18  1  0
 11 19  1  0
 13 20  1  0
 13 21  1  0
 14 22  1  0
 14 23  1  0
 14 24  1  0
M  ISO  8  17  14  18  14  19  14  20   8  21   8  22   8  23   8  24   8
M  END
>  <minimizedAffinity>  (1) 
-4.28520298

>  <minimizedRMSD>  (1) 
0.566502213

$$$$
