
     RDKit          3D

 28 29  0  0  1  0  0  0  0  0999 V2000
   44.4910   35.3710   43.4910 C   0  0  1  0  0  0  0  0  0  0  0  0
   45.3430   34.4340   44.2880 C   0  0  0  0  0  0  0  0  0  0  0  0
   46.3720   33.7770   43.5590 C   0  0  0  0  0  0  0  0  0  0  0  0
   47.2130   32.8880   44.2150 C   0  0  0  0  0  0  0  0  0  0  0  0
   46.9840   32.7070   45.5500 N   0  0  0  0  0  0  0  0  0  0  0  0
   46.0070   33.3380   46.2230 C   0  0  0  0  0  0  0  0  0  0  0  0
   45.1820   34.2070   45.5860 N   0  0  0  0  0  0  0  0  0  0  0  0
   45.1970   36.6870   43.2110 C   0  0  0  0  0  0  0  0  0  0  0  0
   44.0440   34.7230   42.2050 C   0  0  0  0  0  0  0  0  0  0  0  0
   43.4900   35.7770   41.4400 O   0  0  0  0  0  0  0  0  0  0  0  0
   42.3700   35.4640   40.6770 C   0  0  0  0  0  0  0  0  0  0  0  0
   41.1270   35.8210   41.1730 C   0  0  0  0  0  0  0  0  0  0  0  0
   39.9800   35.5350   40.4580 C   0  0  0  0  0  0  0  0  0  0  0  0
   40.1050   34.8970   39.2610 N   0  0  0  0  0  0  0  0  0  0  0  0
   41.3100   34.5480   38.7740 C   0  0  0  0  0  0  0  0  0  0  0  0
   42.4090   34.8360   39.4850 N   0  0  0  0  0  0  0  0  0  0  0  0
   43.6029   35.5996   44.0985 H   0  0  0  0  0  0  0  0  0  0  0  0
   46.5007   33.9715   42.4840 H   0  0  0  0  0  0  0  0  0  0  0  0
   48.0202   32.3579   43.6884 H   0  0  0  0  0  0  0  0  0  0  0  0
   45.8749   33.1487   47.2985 H   0  0  0  0  0  0  0  0  0  0  0  0
   45.4577   37.1730   44.1628 H   0  0  0  0  0  0  0  0  0  0  0  0
   46.1136   36.4958   42.6338 H   0  0  0  0  0  0  0  0  0  0  0  0
   44.5308   37.3450   42.6338 H   0  0  0  0  0  0  0  0  0  0  0  0
   44.8997   34.2725   41.6807 H   0  0  0  0  0  0  0  0  0  0  0  0
   43.3206   33.9128   42.3790 H   0  0  0  0  0  0  0  0  0  0  0  0
   41.0526   36.3355   42.1424 H   0  0  0  0  0  0  0  0  0  0  0  0
   38.9897   35.8157   40.8460 H   0  0  0  0  0  0  0  0  0  0  0  0
   41.3919   34.0332   37.8053 H   0  0  0  0  0  0  0  0  0  0  0  0
  1  2  1  0
  2  7  2  0
  3  4  2  0
  3  2  1  0
  4  5  1  0
  5  6  2  0
  7  6  1  0
  8  1  1  0
  9  1  1  0
 10  9  1  0
 11 12  2  0
 11 10  1  0
 13 12  1  0
 14 13  2  0
 15 14  1  0
 15 16  2  0
 16 11  1  0
  1 17  1  1
  3 18  1  0
  4 19  1  0
  6 20  1  0
  8 21  1  0
  8 22  1  0
  8 23  1  0
  9 24  1  0
  9 25  1  0
 12 26  1  0
 13 27  1  0
 15 28  1  0
M  ISO  8  17   8  18  14  19  14  20  14  21   8  22   8  23   8  24   8
M  ISO  4  25   8  26  14  27  14  28  14
M  END
>  <minimizedAffinity>  (1) 
-4.42108393

>  <minimizedRMSD>  (1) 
0.988953233

$$$$
