
     RDKit          3D

 26 26  0  0  1  0  0  0  0  0999 V2000
   44.6030   35.5670   43.2970 C   0  0  1  0  0  0  0  0  0  0  0  0
   45.3890   34.5980   44.1270 C   0  0  0  0  0  0  0  0  0  0  0  0
   46.4600   33.9570   43.4480 C   0  0  0  0  0  0  0  0  0  0  0  0
   47.2340   33.0490   44.1650 C   0  0  0  0  0  0  0  0  0  0  0  0
   46.8970   32.8430   45.4850 N   0  0  0  0  0  0  0  0  0  0  0  0
   45.8820   33.4660   46.0840 C   0  0  0  0  0  0  0  0  0  0  0  0
   45.1210   34.3480   45.4070 N   0  0  0  0  0  0  0  0  0  0  0  0
   45.1640   36.9790   43.4010 C   0  0  0  0  0  0  0  0  0  0  0  0
   44.5050   35.1160   41.8660 C   0  0  0  0  0  0  0  0  0  0  0  0
   43.3890   35.8060   41.3370 O   0  0  0  0  0  0  0  0  0  0  0  0
   42.2590   35.0210   41.4220 C   0  0  0  0  0  0  0  0  0  0  0  0
   41.0510   35.8950   41.1700 C   0  0  0  0  0  0  0  0  0  0  0  0
   43.5813   35.5910   43.7038 H   0  0  0  0  0  0  0  0  0  0  0  0
   46.6707   34.1714   42.3899 H   0  0  0  0  0  0  0  0  0  0  0  0
   48.0775   32.5193   43.6983 H   0  0  0  0  0  0  0  0  0  0  0  0
   45.6635   33.2579   47.1418 H   0  0  0  0  0  0  0  0  0  0  0  0
   45.2729   37.2531   44.4607 H   0  0  0  0  0  0  0  0  0  0  0  0
   46.1468   37.0202   42.9087 H   0  0  0  0  0  0  0  0  0  0  0  0
   44.4775   37.6835   42.9087 H   0  0  0  0  0  0  0  0  0  0  0  0
   45.4193   35.3804   41.3144 H   0  0  0  0  0  0  0  0  0  0  0  0
   44.3909   34.0249   41.7849 H   0  0  0  0  0  0  0  0  0  0  0  0
   42.3038   34.2223   40.6670 H   0  0  0  0  0  0  0  0  0  0  0  0
   42.1919   34.5616   42.4192 H   0  0  0  0  0  0  0  0  0  0  0  0
   40.6181   36.2082   42.1315 H   0  0  0  0  0  0  0  0  0  0  0  0
   41.3546   36.7839   40.5976 H   0  0  0  0  0  0  0  0  0  0  0  0
   40.3016   35.3286   40.5976 H   0  0  0  0  0  0  0  0  0  0  0  0
  1  8  1  0
  1  2  1  0
  2  7  2  0
  3  2  1  0
  3  4  2  0
  4  5  1  0
  5  6  2  0
  7  6  1  0
  9  1  1  0
 10 11  1  0
 10  9  1  0
 12 11  1  0
  1 13  1  1
  3 14  1  0
  4 15  1  0
  6 16  1  0
  8 17  1  0
  8 18  1  0
  8 19  1  0
  9 20  1  0
  9 21  1  0
 11 22  1  0
 11 23  1  0
 12 24  1  0
 12 25  1  0
 12 26  1  0
M  ISO  8  13   8  14  14  15  14  16  14  17   8  18   8  19   8  20   8
M  ISO  6  21   8  22   8  23   8  24   8  25   8  26   8
M  END
>  <minimizedAffinity>  (1) 
-3.46020865

>  <minimizedRMSD>  (1) 
0.441043794

$$$$
