
     RDKit          3D

 23 23  0  0  1  0  0  0  0  0999 V2000
   44.5310   35.3980   43.4560 C   0  0  1  0  0  0  0  0  0  0  0  0
   45.3790   34.4540   44.2410 C   0  0  0  0  0  0  0  0  0  0  0  0
   46.4180   33.8020   43.5240 C   0  0  0  0  0  0  0  0  0  0  0  0
   47.2280   32.9150   44.2230 C   0  0  0  0  0  0  0  0  0  0  0  0
   46.9770   32.7210   45.5590 N   0  0  0  0  0  0  0  0  0  0  0  0
   45.9960   33.3490   46.1960 C   0  0  0  0  0  0  0  0  0  0  0  0
   45.1750   34.2290   45.5550 N   0  0  0  0  0  0  0  0  0  0  0  0
   45.1760   36.7710   43.3450 C   0  0  0  0  0  0  0  0  0  0  0  0
   44.2480   34.8490   42.0800 C   0  0  0  0  0  0  0  0  0  0  0  0
   43.5400   35.8640   41.4120 O   0  0  0  0  0  0  0  0  0  0  0  0
   42.3050   35.2720   41.0600 C   0  0  0  0  0  0  0  0  0  0  0  0
   41.2760   35.9100   41.7310 F   0  0  0  0  0  0  0  0  0  0  0  0
   42.0710   35.3930   39.6990 F   0  0  0  0  0  0  0  0  0  0  0  0
   42.2570   33.9510   41.4560 F   0  0  0  0  0  0  0  0  0  0  0  0
   43.5805   35.5090   43.9984 H   0  0  0  0  0  0  0  0  0  0  0  0
   46.5759   33.9928   42.4522 H   0  0  0  0  0  0  0  0  0  0  0  0
   48.0483   32.3825   43.7194 H   0  0  0  0  0  0  0  0  0  0  0  0
   45.8416   33.1546   47.2676 H   0  0  0  0  0  0  0  0  0  0  0  0
   45.3637   37.1705   44.3526 H   0  0  0  0  0  0  0  0  0  0  0  0
   46.1283   36.6859   42.8011 H   0  0  0  0  0  0  0  0  0  0  0  0
   44.5025   37.4496   42.8011 H   0  0  0  0  0  0  0  0  0  0  0  0
   45.1878   34.6250   41.5541 H   0  0  0  0  0  0  0  0  0  0  0  0
   43.6753   33.9109   42.1234 H   0  0  0  0  0  0  0  0  0  0  0  0
  1  2  1  0
  2  7  2  0
  3  4  2  0
  3  2  1  0
  4  5  1  0
  5  6  2  0
  7  6  1  0
  8  1  1  0
  9  1  1  0
 10  9  1  0
 11 10  1  0
 11 14  1  0
 11 12  1  0
 13 11  1  0
  1 15  1  1
  3 16  1  0
  4 17  1  0
  6 18  1  0
  8 19  1  0
  8 20  1  0
  8 21  1  0
  9 22  1  0
  9 23  1  0
M  ISO  8  15   8  16  14  17  14  18  14  19   8  20   8  21   8  22   8
M  ISO  1  23   8
M  END
>  <minimizedAffinity>  (1) 
-3.85022116

>  <minimizedRMSD>  (1) 
0.615506947

$$$$
