
     RDKit          3D

 29 29  0  0  1  0  0  0  0  0999 V2000
   44.4560   35.6210   43.5130 C   0  0  1  0  0  0  0  0  0  0  0  0
   45.3380   34.6280   44.2110 C   0  0  0  0  0  0  0  0  0  0  0  0
   46.3850   34.0890   43.4150 C   0  0  0  0  0  0  0  0  0  0  0  0
   47.2410   33.1670   44.0140 C   0  0  0  0  0  0  0  0  0  0  0  0
   47.0150   32.8430   45.3210 N   0  0  0  0  0  0  0  0  0  0  0  0
   46.0090   33.3780   46.0400 C   0  0  0  0  0  0  0  0  0  0  0  0
   45.1570   34.2790   45.4920 N   0  0  0  0  0  0  0  0  0  0  0  0
   45.1770   36.9440   43.2830 C   0  0  0  0  0  0  0  0  0  0  0  0
   43.9250   35.0750   42.2100 C   0  0  0  0  0  0  0  0  0  0  0  0
   42.5700   35.4370   42.2060 O   0  0  0  0  0  0  0  0  0  0  0  0
   41.8890   35.0830   41.0790 C   0  0  0  0  0  0  0  0  0  0  0  0
   40.7190   36.0360   40.9250 C   0  0  0  0  0  0  0  0  0  0  0  0
   42.6590   35.0770   39.8050 C   0  0  0  0  0  0  0  0  0  0  0  0
   43.5990   35.8090   44.1765 H   0  0  0  0  0  0  0  0  0  0  0  0
   46.5148   34.3887   42.3646 H   0  0  0  0  0  0  0  0  0  0  0  0
   48.0717   32.7149   43.4522 H   0  0  0  0  0  0  0  0  0  0  0  0
   45.8766   33.0785   47.0901 H   0  0  0  0  0  0  0  0  0  0  0  0
   45.4253   37.3997   44.2529 H   0  0  0  0  0  0  0  0  0  0  0  0
   46.1016   36.7638   42.7151 H   0  0  0  0  0  0  0  0  0  0  0  0
   44.5244   37.6234   42.7151 H   0  0  0  0  0  0  0  0  0  0  0  0
   44.4509   35.5263   41.3558 H   0  0  0  0  0  0  0  0  0  0  0  0
   44.0687   33.9880   42.1215 H   0  0  0  0  0  0  0  0  0  0  0  0
   41.5977   34.0337   41.2343 H   0  0  0  0  0  0  0  0  0  0  0  0
   40.3545   36.3329   41.9195 H   0  0  0  0  0  0  0  0  0  0  0  0
   41.0442   36.9295   40.3719 H   0  0  0  0  0  0  0  0  0  0  0  0
   39.9098   35.5368   40.3719 H   0  0  0  0  0  0  0  0  0  0  0  0
   43.7362   35.0686   40.0277 H   0  0  0  0  0  0  0  0  0  0  0  0
   42.3979   34.1809   39.2230 H   0  0  0  0  0  0  0  0  0  0  0  0
   42.4119   35.9771   39.2230 H   0  0  0  0  0  0  0  0  0  0  0  0
  1  2  1  0
  2  7  2  0
  3  4  2  0
  3  2  1  0
  4  5  1  0
  5  6  2  0
  7  6  1  0
  8  1  1  0
  9  1  1  0
 10  9  1  0
 11 10  1  0
 12 11  1  0
 13 11  1  0
  1 14  1  1
  3 15  1  0
  4 16  1  0
  6 17  1  0
  8 18  1  0
  8 19  1  0
  8 20  1  0
  9 21  1  0
  9 22  1  0
 11 23  1  0
 12 24  1  0
 12 25  1  0
 12 26  1  0
 13 27  1  0
 13 28  1  0
 13 29  1  0
M  ISO  8  14   8  15  14  16  14  17  14  18   8  19   8  20   8  21   8
M  ISO  8  22   8  23   8  24   8  25   8  26   8  27   8  28   8  29   8
M  END
>  <minimizedAffinity>  (1) 
-3.74370885

>  <minimizedRMSD>  (1) 
0.575041234

$$$$
