
     RDKit          3D

 27 28  0  0  1  0  0  0  0  0999 V2000
   44.4980   35.4150   43.4300 C   0  0  1  0  0  0  0  0  0  0  0  0
   45.3590   34.4790   44.2020 C   0  0  0  0  0  0  0  0  0  0  0  0
   46.4230   33.8760   43.4770 C   0  0  0  0  0  0  0  0  0  0  0  0
   47.2820   32.9910   44.1110 C   0  0  0  0  0  0  0  0  0  0  0  0
   47.0340   32.7540   45.4350 N   0  0  0  0  0  0  0  0  0  0  0  0
   46.0250   33.3310   46.1120 C   0  0  0  0  0  0  0  0  0  0  0  0
   45.1870   34.1950   45.4890 N   0  0  0  0  0  0  0  0  0  0  0  0
   45.1640   36.7680   43.2200 C   0  0  0  0  0  0  0  0  0  0  0  0
   44.1090   34.8170   42.1000 C   0  0  0  0  0  0  0  0  0  0  0  0
   43.2580   35.7710   41.5050 O   0  0  0  0  0  0  0  0  0  0  0  0
   42.0460   35.0960   41.2370 C   0  0  0  0  0  0  0  0  0  0  0  0
   41.3680   35.2840   39.9410 C   0  0  0  0  0  0  0  0  0  0  0  0
   40.8470   36.0700   41.0890 C   0  0  0  0  0  0  0  0  0  0  0  0
   43.5900   35.5787   44.0289 H   0  0  0  0  0  0  0  0  0  0  0  0
   46.5650   34.1117   42.4120 H   0  0  0  0  0  0  0  0  0  0  0  0
   48.1149   32.5074   43.5796 H   0  0  0  0  0  0  0  0  0  0  0  0
   45.8791   33.1002   47.1776 H   0  0  0  0  0  0  0  0  0  0  0  0
   45.3876   37.2222   44.1966 H   0  0  0  0  0  0  0  0  0  0  0  0
   46.0986   36.6330   42.6558 H   0  0  0  0  0  0  0  0  0  0  0  0
   44.4870   37.4263   42.6558 H   0  0  0  0  0  0  0  0  0  0  0  0
   44.9993   34.6507   41.4758 H   0  0  0  0  0  0  0  0  0  0  0  0
   43.6173   33.8397   42.2147 H   0  0  0  0  0  0  0  0  0  0  0  0
   42.3192   34.1970   41.8091 H   0  0  0  0  0  0  0  0  0  0  0  0
   40.7605   34.4668   39.5249 H   0  0  0  0  0  0  0  0  0  0  0  0
   41.7186   35.5540   38.9339 H   0  0  0  0  0  0  0  0  0  0  0  0
   41.0059   37.1575   41.1353 H   0  0  0  0  0  0  0  0  0  0  0  0
   39.8704   36.1995   41.5784 H   0  0  0  0  0  0  0  0  0  0  0  0
  1  2  1  0
  2  7  2  0
  3  4  2  0
  3  2  1  0
  4  5  1  0
  5  6  2  0
  7  6  1  0
  8  1  1  0
  9  1  1  0
 10  9  1  0
 11 10  1  0
 12 13  1  0
 12 11  1  0
 13 11  1  0
  1 14  1  1
  3 15  1  0
  4 16  1  0
  6 17  1  0
  8 18  1  0
  8 19  1  0
  8 20  1  0
  9 21  1  0
  9 22  1  0
 11 23  1  0
 12 24  1  0
 12 25  1  0
 13 26  1  0
 13 27  1  0
M  ISO  8  14   8  15  14  16  14  17  14  18   8  19   8  20   8  21   8
M  ISO  6  22   8  23  13  24  13  25  13  26  13  27  13
M  END
>  <minimizedAffinity>  (1) 
-3.74996305

>  <minimizedRMSD>  (1) 
0.716266096

$$$$
