
     RDKit          3D

 43 45  0  0  1  0  0  0  0  0999 V2000
   43.3980   35.7430   41.1700 O   0  0  0  0  0  0  0  0  0  0  0  0
   42.2230   35.0450   41.1740 C   0  0  2  0  0  0  0  0  0  0  0  0
   42.3960   33.5520   40.9850 C   0  0  0  0  0  0  0  0  0  0  0  0
   41.1040   32.8990   41.4550 C   0  0  0  0  0  0  0  0  0  0  0  0
   39.9780   33.8720   41.6170 C   0  0  0  0  0  0  0  0  0  0  0  0
   39.8970   34.8920   40.5070 C   0  0  0  0  0  0  0  0  0  0  0  0
   41.2150   35.5440   40.2100 C   0  0  2  0  0  0  0  0  0  0  0  0
   41.5510   35.1900   38.7680 C   0  0  0  0  0  0  0  0  0  0  0  0
   41.4730   36.1690   37.6810 C   0  0  0  0  0  0  0  0  0  0  0  0
   40.4230   35.1220   37.7540 C   0  0  0  0  0  0  0  0  0  0  0  0
   44.4710   35.0540   41.7640 C   0  0  0  0  0  0  0  0  0  0  0  0
   44.6000   35.5680   43.1290 C   0  0  1  0  0  0  0  0  0  0  0  0
   45.3680   34.6230   44.0180 C   0  0  0  0  0  0  0  0  0  0  0  0
   46.4350   33.9710   43.3660 C   0  0  0  0  0  0  0  0  0  0  0  0
   47.2090   33.0760   44.1100 C   0  0  0  0  0  0  0  0  0  0  0  0
   46.8680   32.9000   45.4340 N   0  0  0  0  0  0  0  0  0  0  0  0
   45.8390   33.5430   46.0180 C   0  0  0  0  0  0  0  0  0  0  0  0
   45.0720   34.4170   45.3190 N   0  0  0  0  0  0  0  0  0  0  0  0
   45.1070   36.9920   43.2220 C   0  0  0  0  0  0  0  0  0  0  0  0
   41.8402   35.2250   42.1894 H   0  0  0  0  0  0  0  0  0  0  0  0
   42.5727   33.3222   39.9239 H   0  0  0  0  0  0  0  0  0  0  0  0
   43.2587   33.1782   41.5560 H   0  0  0  0  0  0  0  0  0  0  0  0
   40.8069   32.1399   40.7165 H   0  0  0  0  0  0  0  0  0  0  0  0
   41.3006   32.4582   42.4434 H   0  0  0  0  0  0  0  0  0  0  0  0
   39.0331   33.3095   41.6421 H   0  0  0  0  0  0  0  0  0  0  0  0
   40.1606   34.4245   42.5505 H   0  0  0  0  0  0  0  0  0  0  0  0
   39.5415   34.3898   39.5952 H   0  0  0  0  0  0  0  0  0  0  0  0
   39.2070   35.6824   40.8374 H   0  0  0  0  0  0  0  0  0  0  0  0
   41.1904   36.6385   40.3173 H   0  0  0  0  0  0  0  0  0  0  0  0
   42.3458   34.5210   39.1296 H   0  0  0  0  0  0  0  0  0  0  0  0
   42.2143   36.1410   36.8688 H   0  0  0  0  0  0  0  0  0  0  0  0
   41.4574   37.2681   37.6395 H   0  0  0  0  0  0  0  0  0  0  0  0
   39.3964   35.3859   38.0481 H   0  0  0  0  0  0  0  0  0  0  0  0
   40.0241   34.3582   37.0703 H   0  0  0  0  0  0  0  0  0  0  0  0
   44.2629   33.9741   41.7841 H   0  0  0  0  0  0  0  0  0  0  0  0
   45.4005   35.2057   41.1956 H   0  0  0  0  0  0  0  0  0  0  0  0
   43.5701   35.6191   43.5120 H   0  0  0  0  0  0  0  0  0  0  0  0
   46.6515   34.1610   42.3044 H   0  0  0  0  0  0  0  0  0  0  0  0
   48.0539   32.5354   43.6584 H   0  0  0  0  0  0  0  0  0  0  0  0
   45.6167   33.3566   47.0791 H   0  0  0  0  0  0  0  0  0  0  0  0
   45.2084   37.2768   44.2797 H   0  0  0  0  0  0  0  0  0  0  0  0
   46.0866   37.0655   42.7269 H   0  0  0  0  0  0  0  0  0  0  0  0
   44.3943   37.6680   42.7269 H   0  0  0  0  0  0  0  0  0  0  0  0
  1  2  1  0
  1 11  1  0
  3  2  1  0
  3  4  1  0
  4  5  1  0
  6  5  1  0
  7  6  1  0
  7  2  1  0
  8  7  1  0
  9 10  1  0
  9  8  1  0
 10  8  1  0
 11 12  1  0
 12 19  1  0
 12 13  1  0
 13 18  1  0
 14 13  2  0
 14 15  1  0
 15 16  2  0
 16 17  1  0
 18 17  2  0
  2 20  1  1
  3 21  1  0
  3 22  1  0
  4 23  1  0
  4 24  1  0
  5 25  1  0
  5 26  1  0
  6 27  1  0
  6 28  1  0
  7 29  1  6
  8 30  1  0
  9 31  1  0
  9 32  1  0
 10 33  1  0
 10 34  1  0
 11 35  1  0
 11 36  1  0
 12 37  1  1
 14 38  1  0
 15 39  1  0
 17 40  1  0
 19 41  1  0
 19 42  1  0
 19 43  1  0
M  ISO  8  20  13  21  13  22  13  23  13  24  13  25  13  26  13  27  13
M  ISO  8  28  13  29  13  30  13  31  13  32  13  33  13  34  13  35   8
M  ISO  8  36   8  37   8  38  14  39  14  40  14  41   8  42   8  43   8
M  END
>  <minimizedAffinity>  (1) 
-5.47069359

>  <minimizedRMSD>  (1) 
1.53723729

$$$$
