
     RDKit          3D

 20 21  0  0  0  0  0  0  0  0999 V2000
   45.9880   34.3540   41.7860 N   0  0  0  0  0  0  0  0  0  0  0  0
   45.4770   33.7360   40.7250 C   0  0  0  0  0  0  0  0  0  0  0  0
   46.3320   33.6890   39.7120 N   0  0  0  0  0  0  0  0  0  0  0  0
   47.4510   34.3170   40.1640 C   0  0  0  0  0  0  0  0  0  0  0  0
   47.2280   34.7230   41.4460 N   0  0  0  0  0  0  0  0  0  0  0  0
   48.7130   34.5740   39.5090 N   0  0  0  0  0  0  0  0  0  0  0  0
   44.4660   36.0200   44.7640 C   0  0  0  0  0  0  0  0  0  0  0  0
   44.8480   35.8310   43.4240 C   0  0  0  0  0  0  0  0  0  0  0  0
   45.5380   34.6790   43.0970 C   0  0  0  0  0  0  0  0  0  0  0  0
   45.8120   33.7870   44.0920 N   0  0  0  0  0  0  0  0  0  0  0  0
   45.4320   33.9920   45.3800 C   0  0  0  0  0  0  0  0  0  0  0  0
   44.7630   35.1100   45.6930 N   0  0  0  0  0  0  0  0  0  0  0  0
   44.1180   33.2050   40.7710 C   0  0  0  0  0  0  0  0  0  0  0  0
   43.1320   33.9420   40.5130 O   0  0  0  0  0  0  0  0  0  0  0  0
   49.4620   35.0717   40.0112 H   0  0  0  0  0  0  0  0  0  0  0  0
   48.8637   34.2595   38.5398 H   0  0  0  0  0  0  0  0  0  0  0  0
   43.9159   36.9288   45.0495 H   0  0  0  0  0  0  0  0  0  0  0  0
   44.6041   36.5802   42.6564 H   0  0  0  0  0  0  0  0  0  0  0  0
   45.6704   33.2497   46.1560 H   0  0  0  0  0  0  0  0  0  0  0  0
   43.9546   32.1495   41.0340 H   0  0  0  0  0  0  0  0  0  0  0  0
  1  9  1  0
  2 13  1  0
  2  1  1  0
  3  4  1  0
  3  2  2  0
  4  5  2  0
  5  1  1  0
  6  4  1  0
  7 12  2  0
  8  7  1  0
  9  8  2  0
  9 10  1  0
 10 11  2  0
 11 12  1  0
 14 13  2  0
  6 15  1  0
  6 16  1  0
  7 17  1  0
  8 18  1  0
 11 19  1  0
 13 20  1  0
M  ISO  4  17  14  18  14  19  14  20   6
M  END
>  <minimizedAffinity>  (1) 
-4.1860857

>  <minimizedRMSD>  (1) 
0.26195997

$$$$
