
     RDKit          3D

 43 44  0  0  1  0  0  0  0  0999 V2000
   41.2270   34.3510   40.6760 C   0  0  2  0  0  0  0  0  0  0  0  0
   41.1060   35.5660   39.7660 C   0  0  0  0  0  0  0  0  0  0  0  0
   40.2680   35.1280   38.5660 C   0  0  0  0  0  0  0  0  0  0  0  0
   39.5180   33.8490   38.8260 C   0  0  0  0  0  0  0  0  0  0  0  0
   38.9070   33.7800   40.2130 C   0  0  0  0  0  0  0  0  0  0  0  0
   39.9080   34.0680   41.2840 C   0  0  1  0  0  0  0  0  0  0  0  0
   39.9290   33.1130   42.3510 N   0  0  0  0  0  0  0  0  0  0  0  0
   40.4130   31.7690   42.1480 C   0  0  0  0  0  0  0  0  0  0  0  0
   40.5330   31.3270   40.9190 N   0  0  0  0  0  0  0  0  0  0  0  0
   40.7480   30.9550   43.2900 N   0  0  0  0  0  0  0  0  0  0  0  0
   40.8910   30.3380   40.8250 H   0  0  0  0  0  0  0  0  0  0  0  0
   42.2530   34.4450   41.5870 O   0  0  0  0  0  0  0  0  0  0  0  0
   43.5160   34.1780   41.0040 C   0  0  0  0  0  0  0  0  0  0  0  0
   44.4850   34.4080   42.1520 C   0  0  1  0  0  0  0  0  0  0  0  0
   45.8890   34.5100   41.6100 C   0  0  0  0  0  0  0  0  0  0  0  0
   46.0980   33.8640   40.3660 C   0  0  0  0  0  0  0  0  0  0  0  0
   47.3720   33.9340   39.8000 C   0  0  0  0  0  0  0  0  0  0  0  0
   48.3380   34.6250   40.4890 N   0  0  0  0  0  0  0  0  0  0  0  0
   48.1020   35.2260   41.6700 C   0  0  0  0  0  0  0  0  0  0  0  0
   46.8690   35.1770   42.2490 N   0  0  0  0  0  0  0  0  0  0  0  0
   44.1210   35.5670   43.0300 C   0  0  0  0  0  0  0  0  0  0  0  0
   41.5160   33.4835   40.0645 H   0  0  0  0  0  0  0  0  0  0  0  0
   40.6074   36.3903   40.2970 H   0  0  0  0  0  0  0  0  0  0  0  0
   42.0961   35.9259   39.4494 H   0  0  0  0  0  0  0  0  0  0  0  0
   40.9358   34.9772   37.7050 H   0  0  0  0  0  0  0  0  0  0  0  0
   39.5273   35.9169   38.3683 H   0  0  0  0  0  0  0  0  0  0  0  0
   38.7103   33.7615   38.0844 H   0  0  0  0  0  0  0  0  0  0  0  0
   40.2436   33.0258   38.7495 H   0  0  0  0  0  0  0  0  0  0  0  0
   38.0943   34.5183   40.2795 H   0  0  0  0  0  0  0  0  0  0  0  0
   38.5316   32.7576   40.3669 H   0  0  0  0  0  0  0  0  0  0  0  0
   39.5857   34.9807   41.8066 H   0  0  0  0  0  0  0  0  0  0  0  0
   39.5913   33.3916   43.2834 H   0  0  0  0  0  0  0  0  0  0  0  0
   41.0942   29.9945   43.1540 H   0  0  0  0  0  0  0  0  0  0  0  0
   40.6411   31.3340   44.2417 H   0  0  0  0  0  0  0  0  0  0  0  0
   43.5720   33.1406   40.6425 H   0  0  0  0  0  0  0  0  0  0  0  0
   43.7283   34.8084   40.1279 H   0  0  0  0  0  0  0  0  0  0  0  0
   44.4214   33.5367   42.8204 H   0  0  0  0  0  0  0  0  0  0  0  0
   45.2822   33.3246   39.8625 H   0  0  0  0  0  0  0  0  0  0  0  0
   47.5942   33.4527   38.8362 H   0  0  0  0  0  0  0  0  0  0  0  0
   48.9167   35.7650   42.1757 H   0  0  0  0  0  0  0  0  0  0  0  0
   44.2140   35.2709   44.0853 H   0  0  0  0  0  0  0  0  0  0  0  0
   44.7978   36.4094   42.8245 H   0  0  0  0  0  0  0  0  0  0  0  0
   43.0841   35.8712   42.8245 H   0  0  0  0  0  0  0  0  0  0  0  0
  1  6  1  0
  1 12  1  0
  2  1  1  0
  3  4  1  0
  3  2  1  0
  4  5  1  0
  5  6  1  0
  6  7  1  0
  8  7  1  0
  8 10  1  0
  9  8  2  0
 11  9  1  0
 13 12  1  0
 13 14  1  0
 14 21  1  0
 15 14  1  0
 15 20  1  0
 16 15  2  0
 17 16  1  0
 17 18  2  0
 18 19  1  0
 19 20  2  0
  1 22  1  6
  2 23  1  0
  2 24  1  0
  3 25  1  0
  3 26  1  0
  4 27  1  0
  4 28  1  0
  5 29  1  0
  5 30  1  0
  6 31  1  1
  7 32  1  0
 10 33  1  0
 10 34  1  0
 13 35  1  0
 13 36  1  0
 14 37  1  1
 16 38  1  0
 17 39  1  0
 19 40  1  0
 21 41  1  0
 21 42  1  0
 21 43  1  0
M  ISO  8  22  13  23  13  24  13  25  13  26  13  27  13  28  13  29  13
M  ISO  8  30  13  31  13  35   8  36   8  37   8  38  14  39  14  40  14
M  ISO  3  41   8  42   8  43   8
M  END
>  <minimizedAffinity>  (1) 
-5.65023661

>  <minimizedRMSD>  (1) 
3.26517797

$$$$
