
     RDKit          3D

 48 49  0  0  1  0  0  0  0  0999 V2000
   41.6920   34.3200   41.0480 C   0  0  2  0  0  0  0  0  0  0  0  0
   41.3590   35.7290   41.4950 C   0  0  0  0  0  0  0  0  0  0  0  0
   40.2440   36.2310   40.5830 C   0  0  0  0  0  0  0  0  0  0  0  0
   39.5690   35.1160   39.8360 C   0  0  0  0  0  0  0  0  0  0  0  0
   39.3300   33.8740   40.6710 C   0  0  0  0  0  0  0  0  0  0  0  0
   40.5610   33.4520   41.4210 C   0  0  1  0  0  0  0  0  0  0  0  0
   40.7320   31.9740   41.2880 C   0  0  0  0  0  0  0  0  0  0  0  0
   41.8290   31.4380   42.1770 C   0  0  0  0  0  0  0  0  0  0  0  0
   41.2080   31.7370   39.8600 C   0  0  0  0  0  0  0  0  0  0  0  0
   39.4440   31.2070   41.4380 C   0  0  0  0  0  0  0  0  0  0  0  0
   42.9130   33.8750   41.4860 O   0  0  0  0  0  0  0  0  0  0  0  0
   43.9200   34.8600   41.3870 C   0  0  0  0  0  0  0  0  0  0  0  0
   44.7520   34.6420   42.6370 C   0  0  1  0  0  0  0  0  0  0  0  0
   46.2050   34.4880   42.2570 C   0  0  0  0  0  0  0  0  0  0  0  0
   46.4470   34.3620   40.8730 C   0  0  0  0  0  0  0  0  0  0  0  0
   47.7710   34.2310   40.4570 C   0  0  0  0  0  0  0  0  0  0  0  0
   48.7500   34.2340   41.4270 N   0  0  0  0  0  0  0  0  0  0  0  0
   48.4780   34.3560   42.7410 C   0  0  0  0  0  0  0  0  0  0  0  0
   47.2030   34.4840   43.1660 N   0  0  0  0  0  0  0  0  0  0  0  0
   44.5370   35.6620   43.7040 C   0  0  0  0  0  0  0  0  0  0  0  0
   41.8141   34.2994   39.9550 H   0  0  0  0  0  0  0  0  0  0  0  0
   41.0186   35.7236   42.5410 H   0  0  0  0  0  0  0  0  0  0  0  0
   42.2426   36.3812   41.4325 H   0  0  0  0  0  0  0  0  0  0  0  0
   39.4931   36.7506   41.1963 H   0  0  0  0  0  0  0  0  0  0  0  0
   40.6959   36.9060   39.8413 H   0  0  0  0  0  0  0  0  0  0  0  0
   38.5972   35.4812   39.4724 H   0  0  0  0  0  0  0  0  0  0  0  0
   40.2440   34.8255   39.0175 H   0  0  0  0  0  0  0  0  0  0  0  0
   38.5278   34.0818   41.3943 H   0  0  0  0  0  0  0  0  0  0  0  0
   39.0513   33.0564   39.9900 H   0  0  0  0  0  0  0  0  0  0  0  0
   40.4805   33.6062   42.5072 H   0  0  0  0  0  0  0  0  0  0  0  0
   41.5468   31.5759   43.2312 H   0  0  0  0  0  0  0  0  0  0  0  0
   41.9753   30.3669   41.9736 H   0  0  0  0  0  0  0  0  0  0  0  0
   42.7639   31.9808   41.9736 H   0  0  0  0  0  0  0  0  0  0  0  0
   42.1926   31.2468   39.8783 H   0  0  0  0  0  0  0  0  0  0  0  0
   40.4872   31.0926   39.3354 H   0  0  0  0  0  0  0  0  0  0  0  0
   41.2878   32.7006   39.3354 H   0  0  0  0  0  0  0  0  0  0  0  0
   39.2192   31.0732   42.5064 H   0  0  0  0  0  0  0  0  0  0  0  0
   38.6266   31.7656   40.9585 H   0  0  0  0  0  0  0  0  0  0  0  0
   39.5457   30.2222   40.9585 H   0  0  0  0  0  0  0  0  0  0  0  0
   44.5259   34.7133   40.4807 H   0  0  0  0  0  0  0  0  0  0  0  0
   43.5158   35.8804   41.3137 H   0  0  0  0  0  0  0  0  0  0  0  0
   44.4042   33.7073   43.1011 H   0  0  0  0  0  0  0  0  0  0  0  0
   45.6201   34.3669   40.1476 H   0  0  0  0  0  0  0  0  0  0  0  0
   48.0255   34.1288   39.3917 H   0  0  0  0  0  0  0  0  0  0  0  0
   49.2999   34.3513   43.4720 H   0  0  0  0  0  0  0  0  0  0  0  0
   44.6372   35.1868   44.6910 H   0  0  0  0  0  0  0  0  0  0  0  0
   45.2865   36.4609   43.6039 H   0  0  0  0  0  0  0  0  0  0  0  0
   43.5288   36.0904   43.6039 H   0  0  0  0  0  0  0  0  0  0  0  0
  1  6  1  0
  1 11  1  0
  1  2  1  0
  3  2  1  0
  4  3  1  0
  4  5  1  0
  5  6  1  0
  7  6  1  0
  7 10  1  0
  7  8  1  0
  9  7  1  0
 12 11  1  0
 12 13  1  0
 13 20  1  0
 14 13  1  0
 14 19  1  0
 15 14  2  0
 16 15  1  0
 16 17  2  0
 17 18  1  0
 18 19  2  0
  1 21  1  6
  2 22  1  0
  2 23  1  0
  3 24  1  0
  3 25  1  0
  4 26  1  0
  4 27  1  0
  5 28  1  0
  5 29  1  0
  6 30  1  1
  8 31  1  0
  8 32  1  0
  8 33  1  0
  9 34  1  0
  9 35  1  0
  9 36  1  0
 10 37  1  0
 10 38  1  0
 10 39  1  0
 12 40  1  0
 12 41  1  0
 13 42  1  1
 15 43  1  0
 16 44  1  0
 18 45  1  0
 20 46  1  0
 20 47  1  0
 20 48  1  0
M  ISO  8  21  13  22  13  23  13  24  13  25  13  26  13  27  13  28  13
M  ISO  8  29  13  30  13  31   8  32   8  33   8  34   8  35   8  36   8
M  ISO  8  37   8  38   8  39   8  40   8  41   8  42   8  43  14  44  14
M  ISO  4  45  14  46   8  47   8  48   8
M  END
>  <minimizedAffinity>  (1) 
-5.20649815

>  <minimizedRMSD>  (1) 
3.37275457

$$$$
