
     RDKit          3D

 43 45  0  0  1  0  0  0  0  0999 V2000
   41.6010   34.1880   41.0760 C   0  0  2  0  0  0  0  0  0  0  0  0
   41.4250   35.6980   41.1010 C   0  0  0  0  0  0  0  0  0  0  0  0
   40.3820   36.0350   40.0400 C   0  0  0  0  0  0  0  0  0  0  0  0
   39.6010   34.8290   39.5920 C   0  0  0  0  0  0  0  0  0  0  0  0
   39.2180   33.8930   40.7180 C   0  0  0  0  0  0  0  0  0  0  0  0
   40.3670   33.5760   41.6190 C   0  0  1  0  0  0  0  0  0  0  0  0
   40.4880   32.1520   41.9730 C   0  0  0  0  0  0  0  0  0  0  0  0
   39.5710   31.1870   41.5670 C   0  0  0  0  0  0  0  0  0  0  0  0
   39.9390   29.9790   42.0400 N   0  0  0  0  0  0  0  0  0  0  0  0
   41.0850   30.1570   42.7470 C   0  0  0  0  0  0  0  0  0  0  0  0
   41.4040   31.4650   42.6990 N   0  0  0  0  0  0  0  0  0  0  0  0
   42.7450   33.7420   41.6890 O   0  0  0  0  0  0  0  0  0  0  0  0
   43.7950   34.6930   41.6080 C   0  0  0  0  0  0  0  0  0  0  0  0
   44.4750   34.5810   42.9590 C   0  0  1  0  0  0  0  0  0  0  0  0
   45.9170   34.1750   42.7620 C   0  0  0  0  0  0  0  0  0  0  0  0
   46.7560   35.1930   42.2490 C   0  0  0  0  0  0  0  0  0  0  0  0
   48.1060   34.8980   42.0550 C   0  0  0  0  0  0  0  0  0  0  0  0
   48.5260   33.6210   42.3800 N   0  0  0  0  0  0  0  0  0  0  0  0
   47.6920   32.6810   42.8650 C   0  0  0  0  0  0  0  0  0  0  0  0
   46.3780   32.9430   43.0630 N   0  0  0  0  0  0  0  0  0  0  0  0
   44.3310   35.7980   43.8140 C   0  0  0  0  0  0  0  0  0  0  0  0
   41.7462   33.8679   40.0337 H   0  0  0  0  0  0  0  0  0  0  0  0
   41.0760   36.0227   42.0924 H   0  0  0  0  0  0  0  0  0  0  0  0
   42.3766   36.2108   40.8975 H   0  0  0  0  0  0  0  0  0  0  0  0
   39.6813   36.7734   40.4569 H   0  0  0  0  0  0  0  0  0  0  0  0
   40.9150   36.4311   39.1631 H   0  0  0  0  0  0  0  0  0  0  0  0
   38.6796   35.1758   39.1014 H   0  0  0  0  0  0  0  0  0  0  0  0
   40.2532   34.2608   38.9125 H   0  0  0  0  0  0  0  0  0  0  0  0
   38.4233   34.3656   41.3138 H   0  0  0  0  0  0  0  0  0  0  0  0
   38.8797   32.9491   40.2655 H   0  0  0  0  0  0  0  0  0  0  0  0
   40.1700   34.0351   42.5990 H   0  0  0  0  0  0  0  0  0  0  0  0
   38.6796   31.3807   40.9523 H   0  0  0  0  0  0  0  0  0  0  0  0
   41.6527   29.3714   43.2672 H   0  0  0  0  0  0  0  0  0  0  0  0
   42.2289   31.8847   43.1509 H   0  0  0  0  0  0  0  0  0  0  0  0
   44.4917   34.4420   40.7946 H   0  0  0  0  0  0  0  0  0  0  0  0
   43.4375   35.7102   41.3900 H   0  0  0  0  0  0  0  0  0  0  0  0
   43.9558   33.7957   43.5281 H   0  0  0  0  0  0  0  0  0  0  0  0
   46.3550   36.1890   42.0099 H   0  0  0  0  0  0  0  0  0  0  0  0
   48.8062   35.6490   41.6604 H   0  0  0  0  0  0  0  0  0  0  0  0
   48.0854   31.6821   43.1047 H   0  0  0  0  0  0  0  0  0  0  0  0
   44.3654   35.5073   44.8743 H   0  0  0  0  0  0  0  0  0  0  0  0
   45.1527   36.4968   43.5985 H   0  0  0  0  0  0  0  0  0  0  0  0
   43.3689   36.2857   43.5985 H   0  0  0  0  0  0  0  0  0  0  0  0
  1  2  1  0
  1  6  1  0
  1 12  1  0
  3  2  1  0
  4  3  1  0
  4  5  1  0
  5  6  1  0
  6  7  1  0
  7 11  1  0
  8  7  2  0
  8  9  1  0
  9 10  2  0
 11 10  1  0
 13 12  1  0
 13 14  1  0
 14 21  1  0
 15 14  1  0
 15 20  1  0
 16 15  2  0
 17 16  1  0
 17 18  2  0
 18 19  1  0
 19 20  2  0
  1 22  1  6
  2 23  1  0
  2 24  1  0
  3 25  1  0
  3 26  1  0
  4 27  1  0
  4 28  1  0
  5 29  1  0
  5 30  1  0
  6 31  1  1
  8 32  1  0
 10 33  1  0
 11 34  1  0
 13 35  1  0
 13 36  1  0
 14 37  1  1
 16 38  1  0
 17 39  1  0
 19 40  1  0
 21 41  1  0
 21 42  1  0
 21 43  1  0
M  ISO  8  22  13  23  13  24  13  25  13  26  13  27  13  28  13  29  13
M  ISO  8  30  13  31  13  32  14  33  14  34   9  35   8  36   8  37   8
M  ISO  6  38  14  39  14  40  14  41   8  42   8  43   8
M  END
>  <minimizedAffinity>  (1) 
-5.2459259

>  <minimizedRMSD>  (1) 
3.63117886

$$$$
