
     RDKit          3D

 39 40  0  0  1  0  0  0  0  0999 V2000
   42.7090   35.2570   41.8550 O   0  0  0  0  0  0  0  0  0  0  0  0
   42.2080   34.6970   40.7110 C   0  0  2  0  0  0  0  0  0  0  0  0
   43.2690   34.2200   39.7380 C   0  0  0  0  0  0  0  0  0  0  0  0
   42.5690   33.2670   38.7730 C   0  0  0  0  0  0  0  0  0  0  0  0
   41.0780   33.3810   38.8120 C   0  0  0  0  0  0  0  0  0  0  0  0
   40.5860   34.8120   38.8960 C   0  0  0  0  0  0  0  0  0  0  0  0
   41.2630   35.5840   39.9850 C   0  0  1  0  0  0  0  0  0  0  0  0
   40.3310   36.3660   40.8700 C   0  0  0  0  0  0  0  0  0  0  0  0
   44.1140   35.1600   41.9450 C   0  0  0  0  0  0  0  0  0  0  0  0
   44.4810   35.6700   43.2680 C   0  0  1  0  0  0  0  0  0  0  0  0
   45.3300   34.6920   44.0380 C   0  0  0  0  0  0  0  0  0  0  0  0
   46.3990   34.1600   43.2870 C   0  0  0  0  0  0  0  0  0  0  0  0
   47.2460   33.2420   43.9230 C   0  0  0  0  0  0  0  0  0  0  0  0
   46.9660   32.9310   45.2390 N   0  0  0  0  0  0  0  0  0  0  0  0
   45.9320   33.4660   45.9150 C   0  0  0  0  0  0  0  0  0  0  0  0
   45.1000   34.3530   45.3260 N   0  0  0  0  0  0  0  0  0  0  0  0
   45.0640   37.0640   43.2560 C   0  0  0  0  0  0  0  0  0  0  0  0
   41.6623   33.8182   41.0851 H   0  0  0  0  0  0  0  0  0  0  0  0
   43.6937   35.0735   39.1892 H   0  0  0  0  0  0  0  0  0  0  0  0
   44.0967   33.7205   40.2628 H   0  0  0  0  0  0  0  0  0  0  0  0
   42.8480   32.2359   39.0356 H   0  0  0  0  0  0  0  0  0  0  0  0
   42.8914   33.5354   37.7561 H   0  0  0  0  0  0  0  0  0  0  0  0
   40.6694   32.9248   37.8983 H   0  0  0  0  0  0  0  0  0  0  0  0
   40.7365   32.8662   39.7221 H   0  0  0  0  0  0  0  0  0  0  0  0
   40.7821   35.3102   37.9351 H   0  0  0  0  0  0  0  0  0  0  0  0
   39.5100   34.7844   39.1228 H   0  0  0  0  0  0  0  0  0  0  0  0
   41.8513   36.3848   39.5132 H   0  0  0  0  0  0  0  0  0  0  0  0
   40.5712   36.1645   41.9244 H   0  0  0  0  0  0  0  0  0  0  0  0
   40.4475   37.4407   40.6664 H   0  0  0  0  0  0  0  0  0  0  0  0
   39.2929   36.0646   40.6664 H   0  0  0  0  0  0  0  0  0  0  0  0
   44.4302   34.1116   41.8405 H   0  0  0  0  0  0  0  0  0  0  0  0
   44.6049   35.7352   41.1462 H   0  0  0  0  0  0  0  0  0  0  0  0
   43.5306   35.7717   43.8124 H   0  0  0  0  0  0  0  0  0  0  0  0
   46.5620   34.4550   42.2399 H   0  0  0  0  0  0  0  0  0  0  0  0
   48.0982   32.7882   43.3959 H   0  0  0  0  0  0  0  0  0  0  0  0
   45.7619   33.1767   46.9626 H   0  0  0  0  0  0  0  0  0  0  0  0
   45.2086   37.4099   44.2901 H   0  0  0  0  0  0  0  0  0  0  0  0
   46.0325   37.0519   42.7346 H   0  0  0  0  0  0  0  0  0  0  0  0
   44.3753   37.7450   42.7346 H   0  0  0  0  0  0  0  0  0  0  0  0
  1  9  1  0
  2  1  1  0
  3  2  1  0
  4  5  1  0
  4  3  1  0
  5  6  1  0
  6  7  1  0
  7  2  1  0
  7  8  1  0
  9 10  1  0
 10 11  1  0
 11 16  2  0
 12 13  2  0
 12 11  1  0
 13 14  1  0
 14 15  2  0
 16 15  1  0
 17 10  1  0
  2 18  1  1
  3 19  1  0
  3 20  1  0
  4 21  1  0
  4 22  1  0
  5 23  1  0
  5 24  1  0
  6 25  1  0
  6 26  1  0
  7 27  1  6
  8 28  1  0
  8 29  1  0
  8 30  1  0
  9 31  1  0
  9 32  1  0
 10 33  1  1
 12 34  1  0
 13 35  1  0
 15 36  1  0
 17 37  1  0
 17 38  1  0
 17 39  1  0
M  ISO  8  18  13  19  13  20  13  21  13  22  13  23  13  24  13  25  13
M  ISO  8  26  13  27  13  28   8  29   8  30   8  31   8  32   8  33   8
M  ISO  6  34  14  35  14  36  14  37   8  38   8  39   8
M  END
>  <minimizedAffinity>  (1) 
-4.74249506

>  <minimizedRMSD>  (1) 
0.942830682

$$$$
