
     RDKit          3D

 43 45  0  0  1  0  0  0  0  0999 V2000
   42.8120   32.8570   38.6900 C   0  0  2  0  0  0  0  0  0  0  0  0
   43.3190   31.8740   37.6480 C   0  0  0  0  0  0  0  0  0  0  0  0
   42.4240   30.6430   37.7610 C   0  0  0  0  0  0  0  0  0  0  0  0
   41.1470   30.9130   38.4940 C   0  0  0  0  0  0  0  0  0  0  0  0
   40.5310   32.2440   38.1130 C   0  0  0  0  0  0  0  0  0  0  0  0
   41.4870   33.3820   38.2790 C   0  0  1  0  0  0  0  0  0  0  0  0
   40.9410   34.2290   39.3990 C   0  0  0  0  0  0  0  0  0  0  0  0
   40.5620   35.5600   39.4000 C   0  0  0  0  0  0  0  0  0  0  0  0
   40.1180   35.9130   40.6590 C   0  0  0  0  0  0  0  0  0  0  0  0
   40.2510   34.7500   41.3890 C   0  0  0  0  0  0  0  0  0  0  0  0
   40.7290   33.8090   40.6170 O   0  0  0  0  0  0  0  0  0  0  0  0
   43.7340   33.8250   38.9860 O   0  0  0  0  0  0  0  0  0  0  0  0
   44.8330   33.3400   39.7280 C   0  0  0  0  0  0  0  0  0  0  0  0
   44.7330   33.9420   41.0720 C   0  0  1  0  0  0  0  0  0  0  0  0
   46.0850   34.0650   41.7230 C   0  0  0  0  0  0  0  0  0  0  0  0
   47.1110   34.5010   40.8600 C   0  0  0  0  0  0  0  0  0  0  0  0
   48.3930   34.6530   41.3790 C   0  0  0  0  0  0  0  0  0  0  0  0
   48.5650   34.3600   42.7220 N   0  0  0  0  0  0  0  0  0  0  0  0
   47.5650   33.9460   43.5140 C   0  0  0  0  0  0  0  0  0  0  0  0
   46.3000   33.7900   43.0280 N   0  0  0  0  0  0  0  0  0  0  0  0
   43.9630   35.2450   41.1000 C   0  0  0  0  0  0  0  0  0  0  0  0
   42.6667   32.3282   39.6436 H   0  0  0  0  0  0  0  0  0  0  0  0
   44.3659   31.6056   37.8530 H   0  0  0  0  0  0  0  0  0  0  0  0
   43.2852   32.3055   36.6367 H   0  0  0  0  0  0  0  0  0  0  0  0
   42.1790   30.2936   36.7471 H   0  0  0  0  0  0  0  0  0  0  0  0
   42.9782   29.8850   38.3341 H   0  0  0  0  0  0  0  0  0  0  0  0
   40.4298   30.1123   38.2604 H   0  0  0  0  0  0  0  0  0  0  0  0
   41.3786   30.9467   39.5688 H   0  0  0  0  0  0  0  0  0  0  0  0
   39.6538   32.4233   38.7520 H   0  0  0  0  0  0  0  0  0  0  0  0
   40.2513   32.1927   37.0504 H   0  0  0  0  0  0  0  0  0  0  0  0
   41.5984   33.9503   37.3438 H   0  0  0  0  0  0  0  0  0  0  0  0
   40.6075   36.2333   38.5313 H   0  0  0  0  0  0  0  0  0  0  0  0
   39.7461   36.8906   40.9994 H   0  0  0  0  0  0  0  0  0  0  0  0
   39.9954   34.6328   42.4524 H   0  0  0  0  0  0  0  0  0  0  0  0
   44.7886   32.2432   39.7991 H   0  0  0  0  0  0  0  0  0  0  0  0
   45.7853   33.6040   39.2449 H   0  0  0  0  0  0  0  0  0  0  0  0
   44.1346   33.2421   41.6738 H   0  0  0  0  0  0  0  0  0  0  0  0
   46.9030   34.7159   39.8015 H   0  0  0  0  0  0  0  0  0  0  0  0
   49.2313   34.9903   40.7518 H   0  0  0  0  0  0  0  0  0  0  0  0
   47.7682   33.7286   44.5730 H   0  0  0  0  0  0  0  0  0  0  0  0
   43.7863   35.5441   42.1437 H   0  0  0  0  0  0  0  0  0  0  0  0
   44.5448   36.0258   40.5883 H   0  0  0  0  0  0  0  0  0  0  0  0
   42.9984   35.1119   40.5883 H   0  0  0  0  0  0  0  0  0  0  0  0
  1 12  1  0
  2  3  1  0
  2  1  1  0
  3  4  1  0
  5  6  1  0
  5  4  1  0
  6  1  1  0
  6  7  1  0
  7  8  2  0
  7 11  1  0
  8  9  1  0
  9 10  2  0
 11 10  1  0
 12 13  1  0
 13 14  1  0
 14 21  1  0
 14 15  1  0
 15 20  2  0
 16 17  2  0
 16 15  1  0
 17 18  1  0
 18 19  2  0
 20 19  1  0
  1 22  1  1
  2 23  1  0
  2 24  1  0
  3 25  1  0
  3 26  1  0
  4 27  1  0
  4 28  1  0
  5 29  1  0
  5 30  1  0
  6 31  1  6
  8 32  1  0
  9 33  1  0
 10 34  1  0
 13 35  1  0
 13 36  1  0
 14 37  1  1
 16 38  1  0
 17 39  1  0
 19 40  1  0
 21 41  1  0
 21 42  1  0
 21 43  1  0
M  ISO  8  22  13  23  13  24  13  25  13  26  13  27  13  28  13  29  13
M  ISO  8  30  13  31  13  32  14  33  14  34  14  35   8  36   8  37   8
M  ISO  6  38  14  39  14  40  14  41   8  42   8  43   8
M  END
>  <minimizedAffinity>  (1) 
-4.62868309

>  <minimizedRMSD>  (1) 
3.35906267

$$$$
