
     RDKit          3D

 47 50  0  0  1  0  0  0  0  0999 V2000
   40.7700   33.1880   39.8950 C   0  0  2  0  0  0  0  0  0  0  0  0
   39.3390   33.3530   39.4140 C   0  0  0  0  0  0  0  0  0  0  0  0
   38.8760   34.7240   39.8950 C   0  0  0  0  0  0  0  0  0  0  0  0
   40.0100   35.6040   40.3250 C   0  0  0  0  0  0  0  0  0  0  0  0
   41.2100   35.5300   39.4060 C   0  0  0  0  0  0  0  0  0  0  0  0
   41.6480   34.1200   39.1470 C   0  0  1  0  0  0  0  0  0  0  0  0
   43.0520   33.9100   39.3650 N   0  0  0  0  0  0  0  0  0  0  0  0
   43.9480   33.2500   38.6110 C   0  0  0  0  0  0  0  0  0  0  0  0
   45.1740   33.2920   39.1800 N   0  0  0  0  0  0  0  0  0  0  0  0
   45.1170   33.9850   40.3320 C   0  0  0  0  0  0  0  0  0  0  0  0
   45.9390   34.3960   41.3620 C   0  0  0  0  0  0  0  0  0  0  0  0
   45.4820   35.1210   42.4040 N   0  0  0  0  0  0  0  0  0  0  0  0
   44.1800   35.4700   42.4660 C   0  0  0  0  0  0  0  0  0  0  0  0
   43.3570   35.0820   41.4730 N   0  0  0  0  0  0  0  0  0  0  0  0
   43.7900   34.3540   40.4150 C   0  0  0  0  0  0  0  0  0  0  0  0
   41.1700   31.8780   39.8790 O   0  0  0  0  0  0  0  0  0  0  0  0
   41.5710   31.4030   41.1470 C   0  0  0  0  0  0  0  0  0  0  0  0
   42.5260   30.3050   40.9190 C   0  0  1  0  0  0  0  0  0  0  0  0
   43.8710   30.6000   41.5180 C   0  0  0  0  0  0  0  0  0  0  0  0
   43.8250   31.3150   42.7340 C   0  0  0  0  0  0  0  0  0  0  0  0
   45.0340   31.6270   43.3570 C   0  0  0  0  0  0  0  0  0  0  0  0
   46.1930   31.2050   42.7250 N   0  0  0  0  0  0  0  0  0  0  0  0
   46.1920   30.5280   41.5710 C   0  0  0  0  0  0  0  0  0  0  0  0
   45.0280   30.2120   40.9440 N   0  0  0  0  0  0  0  0  0  0  0  0
   41.9910   28.9390   41.3550 C   0  0  0  0  0  0  0  0  0  0  0  0
   40.8441   33.4673   40.9564 H   0  0  0  0  0  0  0  0  0  0  0  0
   39.2989   33.3020   38.3159 H   0  0  0  0  0  0  0  0  0  0  0  0
   38.6926   32.5544   39.8070 H   0  0  0  0  0  0  0  0  0  0  0  0
   38.3378   35.2207   39.0742 H   0  0  0  0  0  0  0  0  0  0  0  0
   38.2299   34.5659   40.7711 H   0  0  0  0  0  0  0  0  0  0  0  0
   39.6538   36.6444   40.3502 H   0  0  0  0  0  0  0  0  0  0  0  0
   40.3367   35.2523   41.3147 H   0  0  0  0  0  0  0  0  0  0  0  0
   40.9491   36.0003   38.4465 H   0  0  0  0  0  0  0  0  0  0  0  0
   42.0421   36.0534   39.8997 H   0  0  0  0  0  0  0  0  0  0  0  0
   41.5274   33.9054   38.0749 H   0  0  0  0  0  0  0  0  0  0  0  0
   43.7158   32.7452   37.6617 H   0  0  0  0  0  0  0  0  0  0  0  0
   47.0041   34.1228   41.3322 H   0  0  0  0  0  0  0  0  0  0  0  0
   43.7979   36.0604   43.3118 H   0  0  0  0  0  0  0  0  0  0  0  0
   42.0543   32.2106   41.7164 H   0  0  0  0  0  0  0  0  0  0  0  0
   40.7032   31.0520   41.7247 H   0  0  0  0  0  0  0  0  0  0  0  0
   42.6589   30.2409   39.8289 H   0  0  0  0  0  0  0  0  0  0  0  0
   42.8648   31.6173   43.1774 H   0  0  0  0  0  0  0  0  0  0  0  0
   45.0657   32.1823   44.3060 H   0  0  0  0  0  0  0  0  0  0  0  0
   47.1486   30.2221   41.1223 H   0  0  0  0  0  0  0  0  0  0  0  0
   41.9706   28.8868   42.4536 H   0  0  0  0  0  0  0  0  0  0  0  0
   40.9727   28.8017   40.9624 H   0  0  0  0  0  0  0  0  0  0  0  0
   42.6452   28.1466   40.9624 H   0  0  0  0  0  0  0  0  0  0  0  0
  2  1  1  0
  2  3  1  0
  3  4  1  0
  5  4  1  0
  6  7  1  0
  6  5  1  0
  6  1  1  0
  7 15  1  0
  8  9  2  0
  8  7  1  0
  9 10  1  0
 10 15  2  0
 10 11  1  0
 11 12  2  0
 12 13  1  0
 14 13  2  0
 15 14  1  0
 16  1  1  0
 16 17  1  0
 18 17  1  0
 18 25  1  0
 18 19  1  0
 19 20  2  0
 20 21  1  0
 22 21  2  0
 23 22  1  0
 24 19  1  0
 24 23  2  0
  1 26  1  1
  2 27  1  0
  2 28  1  0
  3 29  1  0
  3 30  1  0
  4 31  1  0
  4 32  1  0
  5 33  1  0
  5 34  1  0
  6 35  1  6
  8 36  1  0
 11 37  1  0
 13 38  1  0
 17 39  1  0
 17 40  1  0
 18 41  1  6
 20 42  1  0
 21 43  1  0
 23 44  1  0
 25 45  1  0
 25 46  1  0
 25 47  1  0
M  ISO  8  26  13  27  13  28  13  29  13  30  13  31  13  32  13  33  13
M  ISO  8  34  13  35  13  36  14  37  14  38  14  39   8  40   8  41   8
M  ISO  6  42  14  43  14  44  14  45   8  46   8  47   8
M  END
>  <minimizedAffinity>  (1) 
-4.34841871

>  <minimizedRMSD>  (1) 
5.21001196

$$$$
