
     RDKit          3D

 26 28  0  0  0  0  0  0  0  0999 V2000
   45.9980   33.9920   43.1880 N   0  0  0  0  0  0  0  0  0  0  0  0
   45.0350   33.8350   42.2420 C   0  0  0  0  0  0  0  0  0  0  0  0
   45.5860   33.9510   41.0180 N   0  0  0  0  0  0  0  0  0  0  0  0
   46.8990   34.1820   41.1690 C   0  0  0  0  0  0  0  0  0  0  0  0
   48.0100   34.3920   40.3580 C   0  0  0  0  0  0  0  0  0  0  0  0
   47.8280   34.3790   39.1200 O   0  0  0  0  0  0  0  0  0  0  0  0
   49.2060   34.5970   40.9340 N   0  0  0  0  0  0  0  0  0  0  0  0
   49.4210   34.6140   42.2650 C   0  0  0  0  0  0  0  0  0  0  0  0
   50.7700   34.8490   42.6540 N   0  0  0  0  0  0  0  0  0  0  0  0
   48.3570   34.4140   43.0860 N   0  0  0  0  0  0  0  0  0  0  0  0
   47.1510   34.2070   42.5260 C   0  0  0  0  0  0  0  0  0  0  0  0
   44.8600   34.8240   45.2750 C   0  0  0  0  0  0  0  0  0  0  0  0
   45.6350   33.9070   44.5610 C   0  0  0  0  0  0  0  0  0  0  0  0
   46.1020   32.7880   45.2670 C   0  0  0  0  0  0  0  0  0  0  0  0
   45.7790   32.6610   46.5830 N   0  0  0  0  0  0  0  0  0  0  0  0
   45.0250   33.5790   47.2290 C   0  0  0  0  0  0  0  0  0  0  0  0
   44.5810   34.6400   46.5630 N   0  0  0  0  0  0  0  0  0  0  0  0
   44.4160   35.9410   44.4960 C   0  0  0  0  0  0  0  0  0  0  0  0
   44.9920   37.0490   44.3480 O   0  0  0  0  0  0  0  0  0  0  0  0
   43.9709   33.6430   42.4442 H   0  0  0  0  0  0  0  0  0  0  0  0
   50.0152   34.7520   40.3159 H   0  0  0  0  0  0  0  0  0  0  0  0
   51.0205   34.8777   43.6527 H   0  0  0  0  0  0  0  0  0  0  0  0
   51.4956   34.9903   41.9368 H   0  0  0  0  0  0  0  0  0  0  0  0
   46.7182   32.0270   44.7658 H   0  0  0  0  0  0  0  0  0  0  0  0
   44.7818   33.4491   48.2939 H   0  0  0  0  0  0  0  0  0  0  0  0
   43.4605   35.8150   43.9658 H   0  0  0  0  0  0  0  0  0  0  0  0
  1 13  1  0
  2  1  1  0
  3  4  1  0
  3  2  2  0
  4 11  2  0
  5  7  1  0
  5  4  1  0
  6  5  2  0
  7  8  1  0
  8  9  1  0
  8 10  2  0
 11 10  1  0
 11  1  1  0
 12 17  2  0
 13 14  2  0
 13 12  1  0
 14 15  1  0
 15 16  2  0
 17 16  1  0
 18 12  1  0
 19 18  2  0
  2 20  1  0
  7 21  1  0
  9 22  1  0
  9 23  1  0
 14 24  1  0
 16 25  1  0
 18 26  1  0
M  ISO  5  20  14  21   9  24  14  25  14  26   6
M  END
>  <minimizedAffinity>  (1) 
-5.62213182

>  <minimizedRMSD>  (1) 
1.65902019

$$$$
