
     RDKit          3D

 37 38  0  0  1  0  0  0  0  0999 V2000
   43.3110   35.6320   41.4370 O   0  0  0  0  0  0  0  0  0  0  0  0
   42.5140   34.6780   40.8540 C   0  0  2  0  0  0  0  0  0  0  0  0
   42.6170   34.6290   39.3380 C   0  0  0  0  0  0  0  0  0  0  0  0
   42.0740   33.2670   38.9100 C   0  0  0  0  0  0  0  0  0  0  0  0
   41.2570   32.6090   39.9930 C   0  0  0  0  0  0  0  0  0  0  0  0
   40.3480   33.5740   40.7290 C   0  0  0  0  0  0  0  0  0  0  0  0
   41.0890   34.7640   41.2530 C   0  0  2  0  0  0  0  0  0  0  0  0
   40.2750   36.2470   40.6420 S   0  0  0  0  0  0  0  0  0  0  0  0
   44.5460   35.1120   41.8910 C   0  0  0  0  0  0  0  0  0  0  0  0
   44.6350   35.6050   43.3230 C   0  0  1  0  0  0  0  0  0  0  0  0
   45.4110   34.6070   44.1500 C   0  0  0  0  0  0  0  0  0  0  0  0
   46.4680   33.9640   43.4690 C   0  0  0  0  0  0  0  0  0  0  0  0
   47.2340   33.0340   44.1720 C   0  0  0  0  0  0  0  0  0  0  0  0
   46.9070   32.8050   45.4870 N   0  0  0  0  0  0  0  0  0  0  0  0
   45.8900   33.4400   46.1010 C   0  0  0  0  0  0  0  0  0  0  0  0
   45.1270   34.3490   45.4420 N   0  0  0  0  0  0  0  0  0  0  0  0
   45.1800   36.9990   43.4490 C   0  0  0  0  0  0  0  0  0  0  0  0
   42.9230   33.7369   41.2503 H   0  0  0  0  0  0  0  0  0  0  0  0
   42.0172   35.4350   38.8901 H   0  0  0  0  0  0  0  0  0  0  0  0
   43.6567   34.7650   39.0054 H   0  0  0  0  0  0  0  0  0  0  0  0
   41.4395   33.4027   38.0217 H   0  0  0  0  0  0  0  0  0  0  0  0
   42.9336   32.6152   38.6949 H   0  0  0  0  0  0  0  0  0  0  0  0
   40.6361   31.8253   39.5344 H   0  0  0  0  0  0  0  0  0  0  0  0
   41.9632   32.1999   40.7306 H   0  0  0  0  0  0  0  0  0  0  0  0
   39.5658   33.9205   40.0376 H   0  0  0  0  0  0  0  0  0  0  0  0
   39.9163   33.0407   41.5888 H   0  0  0  0  0  0  0  0  0  0  0  0
   41.0733   34.7969   42.3524 H   0  0  0  0  0  0  0  0  0  0  0  0
   39.8572   37.0082   41.7017 H   0  0  0  0  0  0  0  0  0  0  0  0
   44.5471   34.0127   41.8532 H   0  0  0  0  0  0  0  0  0  0  0  0
   45.3981   35.4336   41.2742 H   0  0  0  0  0  0  0  0  0  0  0  0
   43.6097   35.6771   43.7149 H   0  0  0  0  0  0  0  0  0  0  0  0
   46.6813   34.1902   42.4138 H   0  0  0  0  0  0  0  0  0  0  0  0
   48.0692   32.5034   43.6914 H   0  0  0  0  0  0  0  0  0  0  0  0
   45.6737   33.2177   47.1564 H   0  0  0  0  0  0  0  0  0  0  0  0
   45.2814   37.2583   44.5132 H   0  0  0  0  0  0  0  0  0  0  0  0
   46.1654   37.0528   42.9630 H   0  0  0  0  0  0  0  0  0  0  0  0
   44.4924   37.7068   42.9630 H   0  0  0  0  0  0  0  0  0  0  0  0
  1  9  1  0
  2  7  1  0
  2  1  1  0
  3  2  1  0
  4  3  1  0
  4  5  1  0
  5  6  1  0
  6  7  1  0
  8  7  1  0
  9 10  1  0
 10 17  1  0
 10 11  1  0
 11 16  1  0
 12 11  2  0
 12 13  1  0
 13 14  2  0
 14 15  1  0
 16 15  2  0
  2 18  1  1
  3 19  1  0
  3 20  1  0
  4 21  1  0
  4 22  1  0
  5 23  1  0
  5 24  1  0
  6 25  1  0
  6 26  1  0
  7 27  1  1
  8 28  1  0
  9 29  1  0
  9 30  1  0
 10 31  1  1
 12 32  1  0
 13 33  1  0
 15 34  1  0
 17 35  1  0
 17 36  1  0
 17 37  1  0
M  ISO  8  18  13  19  13  20  13  21  13  22  13  23  13  24  13  25  13
M  ISO  8  26  13  27  13  28  11  29   8  30   8  31   8  32  14  33  14
M  ISO  4  34  14  35   8  36   8  37   8
M  END
>  <minimizedAffinity>  (1) 
-4.47808266

>  <minimizedRMSD>  (1) 
0.952365994

$$$$
