
     RDKit          3D

 25 26  0  0  0  0  0  0  0  0999 V2000
   45.3520   34.8170   44.1780 C   0  0  0  0  0  0  0  0  0  0  0  0
   46.3160   34.0160   43.5650 C   0  0  0  0  0  0  0  0  0  0  0  0
   46.9320   33.0500   44.3450 C   0  0  0  0  0  0  0  0  0  0  0  0
   46.5570   32.9420   45.6610 N   0  0  0  0  0  0  0  0  0  0  0  0
   45.6170   33.7400   46.2130 C   0  0  0  0  0  0  0  0  0  0  0  0
   45.0240   34.6700   45.4640 N   0  0  0  0  0  0  0  0  0  0  0  0
   47.7660   34.1840   39.5620 C   0  0  0  0  0  0  0  0  0  0  0  0
   46.6850   33.3740   39.8540 C   0  0  0  0  0  0  0  0  0  0  0  0
   46.2300   33.3340   41.1570 C   0  0  0  0  0  0  0  0  0  0  0  0
   46.7750   34.0440   42.2060 C   0  0  0  0  0  0  0  0  0  0  0  0
   47.8490   34.8380   41.8750 C   0  0  0  0  0  0  0  0  0  0  0  0
   48.3580   34.9240   40.5750 C   0  0  0  0  0  0  0  0  0  0  0  0
   48.3020   34.1990   37.8970 S   0  0  0  0  0  0  0  0  0  0  0  0
   49.3240   33.1420   37.6600 O   0  0  0  0  0  0  0  0  0  0  0  0
   47.0950   33.8820   37.0560 O   0  0  0  0  0  0  0  0  0  0  0  0
   44.7490   35.8080   43.3100 C   0  0  0  0  0  0  0  0  0  0  0  0
   45.1510   37.0150   43.2030 O   0  0  0  0  0  0  0  0  0  0  0  0
   47.7009   32.3876   43.9208 H   0  0  0  0  0  0  0  0  0  0  0  0
   45.3431   33.6234   47.2719 H   0  0  0  0  0  0  0  0  0  0  0  0
   46.1995   32.7764   39.0684 H   0  0  0  0  0  0  0  0  0  0  0  0
   45.3676   32.6868   41.3747 H   0  0  0  0  0  0  0  0  0  0  0  0
   48.3284   35.4312   42.6677 H   0  0  0  0  0  0  0  0  0  0  0  0
   49.2197   35.5724   40.3580 H   0  0  0  0  0  0  0  0  0  0  0  0
   48.8546   35.4147   37.5910 H   0  0  0  0  0  0  0  0  0  0  0  0
   43.8860   35.4994   42.7017 H   0  0  0  0  0  0  0  0  0  0  0  0
  1  6  2  0
  2  1  1  0
  2  3  2  0
  3  4  1  0
  4  5  2  0
  6  5  1  0
  7  8  2  0
  7 12  1  0
  8  9  1  0
  9 10  2  0
 10  2  1  0
 11 10  1  0
 12 11  2  0
 13  7  1  0
 14 13  2  0
 15 13  2  0
 16  1  1  0
 17 16  2  0
  3 18  1  0
  5 19  1  0
  8 20  1  0
  9 21  1  0
 11 22  1  0
 12 23  1  0
 13 24  1  0
 16 25  1  0
M  ISO  8  18  14  19  14  20  14  21  14  22  14  23  14  24  11  25   6
M  END
>  <minimizedAffinity>  (1) 
-4.89926815

>  <minimizedRMSD>  (1) 
1.18170595

$$$$
