
     RDKit          3D

 25 26  0  0  0  0  0  0  0  0999 V2000
   45.2410   34.4340   45.0640 C   0  0  0  0  0  0  0  0  0  0  0  0
   46.2230   33.6960   44.4010 C   0  0  0  0  0  0  0  0  0  0  0  0
   46.8710   32.6820   45.1260 C   0  0  0  0  0  0  0  0  0  0  0  0
   46.4970   32.4930   46.4210 N   0  0  0  0  0  0  0  0  0  0  0  0
   45.5440   33.2290   47.0220 C   0  0  0  0  0  0  0  0  0  0  0  0
   44.9290   34.1890   46.3360 N   0  0  0  0  0  0  0  0  0  0  0  0
   46.6390   33.8670   43.0500 N   0  0  0  0  0  0  0  0  0  0  0  0
   47.6290   34.7730   42.8110 C   0  0  0  0  0  0  0  0  0  0  0  0
   48.1460   35.0550   41.5460 C   0  0  0  0  0  0  0  0  0  0  0  0
   49.2350   36.0770   41.4320 C   0  0  0  0  0  0  0  0  0  0  0  0
   47.5930   34.3520   40.5020 C   0  0  0  0  0  0  0  0  0  0  0  0
   48.0460   34.5920   39.3520 O   0  0  0  0  0  0  0  0  0  0  0  0
   46.6270   33.4710   40.7560 N   0  0  0  0  0  0  0  0  0  0  0  0
   46.1410   33.2150   41.9940 C   0  0  0  0  0  0  0  0  0  0  0  0
   45.2340   32.3860   42.2200 O   0  0  0  0  0  0  0  0  0  0  0  0
   44.6190   35.4500   44.2690 C   0  0  0  0  0  0  0  0  0  0  0  0
   44.8620   36.7020   44.3240 O   0  0  0  0  0  0  0  0  0  0  0  0
   47.6533   32.0624   44.6632 H   0  0  0  0  0  0  0  0  0  0  0  0
   45.2757   33.0385   48.0716 H   0  0  0  0  0  0  0  0  0  0  0  0
   48.0473   35.3169   43.6708 H   0  0  0  0  0  0  0  0  0  0  0  0
   49.5591   36.3812   42.4382 H   0  0  0  0  0  0  0  0  0  0  0  0
   50.0874   35.6453   40.8871 H   0  0  0  0  0  0  0  0  0  0  0  0
   48.8582   36.9551   40.8871 H   0  0  0  0  0  0  0  0  0  0  0  0
   46.2248   32.9525   39.9621 H   0  0  0  0  0  0  0  0  0  0  0  0
   43.8610   35.1207   43.5431 H   0  0  0  0  0  0  0  0  0  0  0  0
  1  6  2  0
  2  1  1  0
  2  3  2  0
  3  4  1  0
  4  5  2  0
  6  5  1  0
  7  2  1  0
  8  7  1  0
  9  8  2  0
 10  9  1  0
 11 13  1  0
 11  9  1  0
 12 11  2  0
 13 14  1  0
 14 15  2  0
 14  7  1  0
 16 17  2  0
 16  1  1  0
  3 18  1  0
  5 19  1  0
  8 20  1  0
 10 21  1  0
 10 22  1  0
 10 23  1  0
 13 24  1  0
 16 25  1  0
M  ISO  8  18  14  19  14  20  14  21   8  22   8  23   8  24   9  25   6
M  END
>  <minimizedAffinity>  (1) 
-5.0322094

>  <minimizedRMSD>  (1) 
2.24461341

$$$$
