
     RDKit          3D

 23 25  0  0  0  0  0  0  0  0999 V2000
   45.7890   34.8160   43.7840 C   0  0  0  0  0  0  0  0  0  0  0  0
   46.9640   34.1880   43.3230 C   0  0  0  0  0  0  0  0  0  0  0  0
   47.5040   33.1550   44.0740 C   0  0  0  0  0  0  0  0  0  0  0  0
   46.8460   32.8130   45.2290 N   0  0  0  0  0  0  0  0  0  0  0  0
   45.7260   33.4310   45.6450 C   0  0  0  0  0  0  0  0  0  0  0  0
   45.1940   34.4300   44.9290 N   0  0  0  0  0  0  0  0  0  0  0  0
   47.6050   34.5940   42.1030 N   0  0  0  0  0  0  0  0  0  0  0  0
   48.5070   35.5560   41.8670 C   0  0  0  0  0  0  0  0  0  0  0  0
   48.7780   35.5090   40.5310 N   0  0  0  0  0  0  0  0  0  0  0  0
   48.0450   34.5250   39.9610 C   0  0  0  0  0  0  0  0  0  0  0  0
   48.0060   34.1260   38.6240 C   0  0  0  0  0  0  0  0  0  0  0  0
   47.1660   33.0950   38.3360 N   0  0  0  0  0  0  0  0  0  0  0  0
   46.4290   32.5200   39.3250 C   0  0  0  0  0  0  0  0  0  0  0  0
   46.4900   32.9290   40.6050 N   0  0  0  0  0  0  0  0  0  0  0  0
   47.2900   33.9300   40.9510 C   0  0  0  0  0  0  0  0  0  0  0  0
   45.3070   35.8710   42.9410 C   0  0  0  0  0  0  0  0  0  0  0  0
   45.2020   37.0990   43.2670 O   0  0  0  0  0  0  0  0  0  0  0  0
   48.4191   32.6328   43.7581 H   0  0  0  0  0  0  0  0  0  0  0  0
   45.2431   33.1133   46.5809 H   0  0  0  0  0  0  0  0  0  0  0  0
   48.9425   36.2466   42.6042 H   0  0  0  0  0  0  0  0  0  0  0  0
   48.6167   34.6149   37.8507 H   0  0  0  0  0  0  0  0  0  0  0  0
   45.7570   31.6881   39.0676 H   0  0  0  0  0  0  0  0  0  0  0  0
   45.0002   35.5960   41.9211 H   0  0  0  0  0  0  0  0  0  0  0  0
  1  6  2  0
  2  1  1  0
  2  3  2  0
  3  4  1  0
  4  5  2  0
  6  5  1  0
  7  2  1  0
  8  7  1  0
  9  8  2  0
 10  9  1  0
 10 15  2  0
 11 10  1  0
 12 11  2  0
 12 13  1  0
 13 14  2  0
 14 15  1  0
 15  7  1  0
 16 17  2  0
 16  1  1  0
  3 18  1  0
  5 19  1  0
  8 20  1  0
 11 21  1  0
 13 22  1  0
 16 23  1  0
M  ISO  6  18  14  19  14  20  14  21  14  22  14  23   6
M  END
>  <minimizedAffinity>  (1) 
-4.57688951

>  <minimizedRMSD>  (1) 
0.972581327

$$$$
