
     RDKit          3D

 19 20  0  0  0  0  0  0  0  0999 V2000
   45.4430   35.0600   44.0110 C   0  0  0  0  0  0  0  0  0  0  0  0
   46.5120   34.4090   43.4510 C   0  0  0  0  0  0  0  0  0  0  0  0
   47.0390   33.3930   44.2950 C   0  0  0  0  0  0  0  0  0  0  0  0
   46.5060   33.1320   45.5150 N   0  0  0  0  0  0  0  0  0  0  0  0
   45.4530   33.8170   45.9920 C   0  0  0  0  0  0  0  0  0  0  0  0
   44.9440   34.7640   45.2320 N   0  0  0  0  0  0  0  0  0  0  0  0
   47.1460   34.5180   42.1680 C   0  0  0  0  0  0  0  0  0  0  0  0
   48.2080   35.2900   41.8600 C   0  0  0  0  0  0  0  0  0  0  0  0
   48.6840   35.2920   40.6060 C   0  0  0  0  0  0  0  0  0  0  0  0
   48.0200   34.4530   39.6400 C   0  0  0  0  0  0  0  0  0  0  0  0
   46.7300   33.7150   40.6570 S   0  0  0  0  0  0  0  0  0  0  0  0
   44.9110   36.1160   43.1690 C   0  0  0  0  0  0  0  0  0  0  0  0
   45.1990   37.3600   43.2850 O   0  0  0  0  0  0  0  0  0  0  0  0
   47.9011   32.8035   43.9497 H   0  0  0  0  0  0  0  0  0  0  0  0
   45.0309   33.5943   46.9831 H   0  0  0  0  0  0  0  0  0  0  0  0
   48.6810   35.9142   42.6324 H   0  0  0  0  0  0  0  0  0  0  0  0
   49.5489   35.9109   40.3252 H   0  0  0  0  0  0  0  0  0  0  0  0
   48.2410   34.3042   38.5728 H   0  0  0  0  0  0  0  0  0  0  0  0
   44.2090   35.8277   42.3727 H   0  0  0  0  0  0  0  0  0  0  0  0
  1  6  2  0
  2  1  1  0
  2  3  2  0
  3  4  1  0
  4  5  2  0
  6  5  1  0
  7  2  1  0
  8  7  2  0
  9  8  1  0
 10  9  2  0
 10 11  1  0
 11  7  1  0
 12 13  2  0
 12  1  1  0
  3 14  1  0
  5 15  1  0
  8 16  1  0
  9 17  1  0
 10 18  1  0
 12 19  1  0
M  ISO  6  14  14  15  14  16  14  17  14  18  14  19   6
M  END
>  <minimizedAffinity>  (1) 
-4.39620876

>  <minimizedRMSD>  (1) 
1.05338717

$$$$
