
     RDKit          3D

 19 20  0  0  0  0  0  0  0  0999 V2000
   45.9540   34.7220   43.7560 C   0  0  0  0  0  0  0  0  0  0  0  0
   47.1080   34.4310   43.0170 C   0  0  0  0  0  0  0  0  0  0  0  0
   47.8250   33.3130   43.4120 C   0  0  0  0  0  0  0  0  0  0  0  0
   47.3850   32.5790   44.4630 N   0  0  0  0  0  0  0  0  0  0  0  0
   46.2730   32.8870   45.1530 C   0  0  0  0  0  0  0  0  0  0  0  0
   45.5650   33.9580   44.7930 N   0  0  0  0  0  0  0  0  0  0  0  0
   45.1950   35.8890   43.3550 C   0  0  0  0  0  0  0  0  0  0  0  0
   44.8440   36.8030   44.1710 O   0  0  0  0  0  0  0  0  0  0  0  0
   47.4900   35.3100   41.8810 C   0  0  0  0  0  0  0  0  0  0  0  0
   48.8990   35.6730   41.6060 C   0  0  0  0  0  0  0  0  0  0  0  0
   48.1700   34.6660   40.7240 C   0  0  0  0  0  0  0  0  0  0  0  0
   48.7422   33.0241   42.8779 H   0  0  0  0  0  0  0  0  0  0  0  0
   45.9522   32.2649   46.0016 H   0  0  0  0  0  0  0  0  0  0  0  0
   44.9085   35.9909   42.2979 H   0  0  0  0  0  0  0  0  0  0  0  0
   46.5881   35.9202   42.0366 H   0  0  0  0  0  0  0  0  0  0  0  0
   49.1455   36.6715   41.2158 H   0  0  0  0  0  0  0  0  0  0  0  0
   49.8339   35.6715   42.1857 H   0  0  0  0  0  0  0  0  0  0  0  0
   47.8860   34.9348   39.6958 H   0  0  0  0  0  0  0  0  0  0  0  0
   48.3531   33.6314   40.3982 H   0  0  0  0  0  0  0  0  0  0  0  0
  1  6  2  0
  2  3  2  0
  2  1  1  0
  3  4  1  0
  4  5  2  0
  6  5  1  0
  7  1  1  0
  7  8  2  0
  9  2  1  0
 10  9  1  0
 11 10  1  0
 11  9  1  0
  3 12  1  0
  5 13  1  0
  7 14  1  0
  9 15  1  0
 10 16  1  0
 10 17  1  0
 11 18  1  0
 11 19  1  0
M  ISO  8  12  14  13  14  14   6  15  13  16  13  17  13  18  13  19  13
M  END
>  <minimizedAffinity>  (1) 
-3.98647904

>  <minimizedRMSD>  (1) 
1.08990276

$$$$
