
     RDKit          3D

 15 15  0  0  0  0  0  0  0  0999 V2000
   45.3550   34.5120   45.0610 C   0  0  0  0  0  0  0  0  0  0  0  0
   46.1980   34.1810   44.0070 C   0  0  0  0  0  0  0  0  0  0  0  0
   47.0980   33.1030   44.1550 C   0  0  0  0  0  0  0  0  0  0  0  0
   47.0710   32.4550   45.3450 N   0  0  0  0  0  0  0  0  0  0  0  0
   46.2400   32.8090   46.3350 C   0  0  0  0  0  0  0  0  0  0  0  0
   45.3950   33.8220   46.1950 N   0  0  0  0  0  0  0  0  0  0  0  0
   44.5070   35.6200   44.7590 C   0  0  0  0  0  0  0  0  0  0  0  0
   44.8470   36.7520   44.2820 O   0  0  0  0  0  0  0  0  0  0  0  0
   46.3580   34.7460   42.6770 C   0  0  0  0  0  0  0  0  0  0  0  0
   47.3720   35.2140   42.1040 O   0  0  0  0  0  0  0  0  0  0  0  0
   45.5130   34.9670   41.6080 O   0  0  0  0  0  0  0  0  0  0  0  0
   47.7838   32.8053   43.3481 H   0  0  0  0  0  0  0  0  0  0  0  0
   46.2589   32.2490   47.2816 H   0  0  0  0  0  0  0  0  0  0  0  0
   43.4349   35.4805   44.9616 H   0  0  0  0  0  0  0  0  0  0  0  0
   45.8619   35.3791   40.7782 H   0  0  0  0  0  0  0  0  0  0  0  0
  1  6  2  0
  2  3  2  0
  2  1  1  0
  3  4  1  0
  4  5  2  0
  6  5  1  0
  7  1  1  0
  8  7  2  0
  9  2  1  0
 10  9  2  0
 11  9  1  0
  3 12  1  0
  5 13  1  0
  7 14  1  0
 11 15  1  0
M  ISO  4  12  14  13  14  14   6  15   3
M  END
>  <minimizedAffinity>  (1) 
-3.5416019

>  <minimizedRMSD>  (1) 
0.754910529

$$$$
