
     RDKit          3D

 15 15  0  0  0  0  0  0  0  0999 V2000
   45.5070   34.7570   44.4110 C   0  0  0  0  0  0  0  0  0  0  0  0
   46.4980   34.2910   43.5430 C   0  0  0  0  0  0  0  0  0  0  0  0
   47.2730   33.2010   43.9710 C   0  0  0  0  0  0  0  0  0  0  0  0
   47.0110   32.6690   45.2000 N   0  0  0  0  0  0  0  0  0  0  0  0
   46.0410   33.1570   45.9950 C   0  0  0  0  0  0  0  0  0  0  0  0
   45.2920   34.1910   45.6130 N   0  0  0  0  0  0  0  0  0  0  0  0
   44.7610   35.8700   43.9000 C   0  0  0  0  0  0  0  0  0  0  0  0
   44.8890   37.0770   44.2440 O   0  0  0  0  0  0  0  0  0  0  0  0
   46.7560   34.9020   42.2040 C   0  0  0  0  0  0  0  0  0  0  0  0
   48.0687   32.7878   43.3337 H   0  0  0  0  0  0  0  0  0  0  0  0
   45.8633   32.6944   46.9771 H   0  0  0  0  0  0  0  0  0  0  0  0
   44.0034   35.6499   43.1335 H   0  0  0  0  0  0  0  0  0  0  0  0
   47.1808   35.9081   42.3358 H   0  0  0  0  0  0  0  0  0  0  0  0
   47.4660   34.2745   41.6453 H   0  0  0  0  0  0  0  0  0  0  0  0
   45.8111   34.9732   41.6453 H   0  0  0  0  0  0  0  0  0  0  0  0
  1  6  2  0
  2  3  2  0
  2  1  1  0
  3  4  1  0
  4  5  2  0
  6  5  1  0
  7  8  2  0
  7  1  1  0
  9  2  1  0
  3 10  1  0
  5 11  1  0
  7 12  1  0
  9 13  1  0
  9 14  1  0
  9 15  1  0
M  ISO  6  10  14  11  14  12   6  13   8  14   8  15   8
M  END
>  <minimizedAffinity>  (1) 
-3.15735292

>  <minimizedRMSD>  (1) 
0.410958737

$$$$
