
     RDKit          3D

 14 14  0  0  0  0  0  0  0  0999 V2000
   45.3910   34.8210   44.4590 C   0  0  0  0  0  0  0  0  0  0  0  0
   46.3990   34.2860   43.6580 C   0  0  0  0  0  0  0  0  0  0  0  0
   47.1700   33.2320   44.1250 C   0  0  0  0  0  0  0  0  0  0  0  0
   46.8770   32.7740   45.3810 N   0  0  0  0  0  0  0  0  0  0  0  0
   45.8970   33.3140   46.1270 C   0  0  0  0  0  0  0  0  0  0  0  0
   45.1530   34.3250   45.6880 N   0  0  0  0  0  0  0  0  0  0  0  0
   44.6540   35.9060   43.8830 C   0  0  0  0  0  0  0  0  0  0  0  0
   45.1320   36.8940   43.2750 O   0  0  0  0  0  0  0  0  0  0  0  0
   46.7440   34.7190   42.3560 N   0  0  0  0  0  0  0  0  0  0  0  0
   47.9735   32.7882   43.5188 H   0  0  0  0  0  0  0  0  0  0  0  0
   45.7050   32.9071   47.1308 H   0  0  0  0  0  0  0  0  0  0  0  0
   43.5592   35.8693   43.9839 H   0  0  0  0  0  0  0  0  0  0  0  0
   46.2298   35.4971   41.9189 H   0  0  0  0  0  0  0  0  0  0  0  0
   47.5093   34.2561   41.8452 H   0  0  0  0  0  0  0  0  0  0  0  0
  1  6  2  0
  2  3  2  0
  2  1  1  0
  3  4  1  0
  4  5  2  0
  6  5  1  0
  7  1  1  0
  8  7  2  0
  9  2  1  0
  3 10  1  0
  5 11  1  0
  7 12  1  0
  9 13  1  0
  9 14  1  0
M  ISO  3  10  14  11  14  12   6
M  END
>  <minimizedAffinity>  (1) 
-3.04397702

>  <minimizedRMSD>  (1) 
0.0822138265

$$$$
