
     RDKit          3D

 13 13  0  0  0  0  0  0  0  0999 V2000
   45.4450   34.5600   44.6550 C   0  0  0  0  0  0  0  0  0  0  0  0
   46.4140   34.0500   43.7700 C   0  0  0  0  0  0  0  0  0  0  0  0
   47.2110   33.0100   44.2220 C   0  0  0  0  0  0  0  0  0  0  0  0
   47.0000   32.5580   45.4840 N   0  0  0  0  0  0  0  0  0  0  0  0
   46.0690   33.0590   46.3140 C   0  0  0  0  0  0  0  0  0  0  0  0
   45.2920   34.0600   45.8970 N   0  0  0  0  0  0  0  0  0  0  0  0
   44.6310   35.6450   44.1510 C   0  0  0  0  0  0  0  0  0  0  0  0
   44.8340   36.8670   44.4160 O   0  0  0  0  0  0  0  0  0  0  0  0
   46.6150   34.7170   42.1220 S   0  0  0  0  0  0  0  0  0  0  0  0
   47.9870   32.5668   43.5806 H   0  0  0  0  0  0  0  0  0  0  0  0
   45.9490   32.6477   47.3271 H   0  0  0  0  0  0  0  0  0  0  0  0
   43.7832   35.3930   43.4970 H   0  0  0  0  0  0  0  0  0  0  0  0
   47.0096   36.0264   42.2043 H   0  0  0  0  0  0  0  0  0  0  0  0
  1  6  2  0
  2  3  2  0
  2  1  1  0
  3  4  1  0
  4  5  2  0
  6  5  1  0
  7  8  2  0
  7  1  1  0
  9  2  1  0
  3 10  1  0
  5 11  1  0
  7 12  1  0
  9 13  1  0
M  ISO  4  10  14  11  14  12   6  13  11
M  END
>  <minimizedAffinity>  (1) 
-3.04813528

>  <minimizedRMSD>  (1) 
0.49411425

$$$$
