
     RDKit          3D

 39 43  0  0  0  0  0  0  0  0999 V2000
   45.7490   34.4370   43.8060 C   0  0  0  0  0  0  0  0  0  0  0  0
   46.9620   34.0290   43.2890 C   0  0  0  0  0  0  0  0  0  0  0  0
   47.6700   33.0240   43.9790 C   0  0  0  0  0  0  0  0  0  0  0  0
   47.1170   32.5170   45.1090 N   0  0  0  0  0  0  0  0  0  0  0  0
   45.9190   32.9490   45.5820 C   0  0  0  0  0  0  0  0  0  0  0  0
   45.2590   33.9030   44.9180 N   0  0  0  0  0  0  0  0  0  0  0  0
   47.6030   34.5200   42.1070 N   0  0  0  0  0  0  0  0  0  0  0  0
   48.4290   35.5680   41.9260 C   0  0  0  0  0  0  0  0  0  0  0  0
   48.7660   35.6070   40.6030 N   0  0  0  0  0  0  0  0  0  0  0  0
   48.1670   34.6050   39.9630 C   0  0  0  0  0  0  0  0  0  0  0  0
   48.1340   34.1550   38.6580 C   0  0  0  0  0  0  0  0  0  0  0  0
   47.3950   33.0610   38.3220 N   0  0  0  0  0  0  0  0  0  0  0  0
   46.6770   32.3900   39.2540 C   0  0  0  0  0  0  0  0  0  0  0  0
   46.7300   32.8530   40.5120 N   0  0  0  0  0  0  0  0  0  0  0  0
   47.4320   33.9150   40.9060 C   0  0  0  0  0  0  0  0  0  0  0  0
   48.8770   34.8330   37.6490 N   0  0  0  0  0  0  0  0  0  0  0  0
   45.0900   35.4560   43.0450 C   0  0  0  0  0  0  0  0  0  0  0  0
   45.2730   36.7130   43.1780 O   0  0  0  0  0  0  0  0  0  0  0  0
   44.1010   35.0730   42.0040 C   0  0  0  0  0  0  0  0  0  0  0  0
   43.4640   35.8750   41.0630 C   0  0  0  0  0  0  0  0  0  0  0  0
   42.6610   35.0370   40.3510 N   0  0  0  0  0  0  0  0  0  0  0  0
   42.7850   33.7800   40.8150 C   0  0  0  0  0  0  0  0  0  0  0  0
   42.1740   32.6120   40.4080 C   0  0  0  0  0  0  0  0  0  0  0  0
   42.4500   31.4120   41.0330 C   0  0  0  0  0  0  0  0  0  0  0  0
   43.3530   31.3770   42.0830 C   0  0  0  0  0  0  0  0  0  0  0  0
   43.9610   32.5520   42.4840 C   0  0  0  0  0  0  0  0  0  0  0  0
   43.6970   33.7540   41.8730 C   0  0  0  0  0  0  0  0  0  0  0  0
   48.6417   32.6619   43.6120 H   0  0  0  0  0  0  0  0  0  0  0  0
   45.4966   32.5182   46.5018 H   0  0  0  0  0  0  0  0  0  0  0  0
   48.7708   36.2669   42.7037 H   0  0  0  0  0  0  0  0  0  0  0  0
   46.0777   31.5057   38.9914 H   0  0  0  0  0  0  0  0  0  0  0  0
   48.8511   34.4958   36.6761 H   0  0  0  0  0  0  0  0  0  0  0  0
   49.4401   35.6604   37.8924 H   0  0  0  0  0  0  0  0  0  0  0  0
   43.5839   36.9595   40.9232 H   0  0  0  0  0  0  0  0  0  0  0  0
   42.0496   35.3228   39.5729 H   0  0  0  0  0  0  0  0  0  0  0  0
   41.4571   32.6370   39.5741 H   0  0  0  0  0  0  0  0  0  0  0  0
   41.9552   30.4882   40.6987 H   0  0  0  0  0  0  0  0  0  0  0  0
   43.5828   30.4283   42.5901 H   0  0  0  0  0  0  0  0  0  0  0  0
   44.6780   32.5238   43.3177 H   0  0  0  0  0  0  0  0  0  0  0  0
  1  6  2  0
  2  1  1  0
  2  3  2  0
  3  4  1  0
  4  5  2  0
  6  5  1  0
  7  2  1  0
  8  7  1  0
  9  8  2  0
 10  9  1  0
 10 15  2  0
 11 10  1  0
 12 11  2  0
 12 13  1  0
 13 14  2  0
 14 15  1  0
 15  7  1  0
 16 11  1  0
 17 18  2  0
 17  1  1  0
 19 17  1  0
 20 19  2  0
 21 22  1  0
 21 20  1  0
 22 27  2  0
 23 22  1  0
 23 24  2  0
 24 25  1  0
 25 26  2  0
 27 19  1  0
 27 26  1  0
  3 28  1  0
  5 29  1  0
  8 30  1  0
 13 31  1  0
 16 32  1  0
 16 33  1  0
 20 34  1  0
 21 35  1  0
 23 36  1  0
 24 37  1  0
 25 38  1  0
 26 39  1  0
M  ISO  8  28  14  29  14  30  14  31  14  34  14  35   9  36  14  37  14
M  ISO  2  38  14  39  14
M  END
>  <minimizedAffinity>  (1) 
-6.42988205

>  <minimizedRMSD>  (1) 
0.818239748

$$$$
