
     RDKit          3D

 40 43  0  0  1  0  0  0  0  0999 V2000
   45.6970   34.5040   43.7590 C   0  0  0  0  0  0  0  0  0  0  0  0
   46.9460   34.0690   43.2850 C   0  0  0  0  0  0  0  0  0  0  0  0
   47.6230   33.0890   43.9970 C   0  0  0  0  0  0  0  0  0  0  0  0
   47.0400   32.5990   45.1210 N   0  0  0  0  0  0  0  0  0  0  0  0
   45.8300   33.0330   45.5670 C   0  0  0  0  0  0  0  0  0  0  0  0
   45.1810   33.9770   44.8780 N   0  0  0  0  0  0  0  0  0  0  0  0
   47.5930   34.5510   42.1140 N   0  0  0  0  0  0  0  0  0  0  0  0
   48.4180   35.5890   41.8970 C   0  0  0  0  0  0  0  0  0  0  0  0
   48.7600   35.6140   40.5790 N   0  0  0  0  0  0  0  0  0  0  0  0
   48.1590   34.6000   39.9630 C   0  0  0  0  0  0  0  0  0  0  0  0
   48.1430   34.1440   38.6610 C   0  0  0  0  0  0  0  0  0  0  0  0
   47.4060   33.0390   38.3360 N   0  0  0  0  0  0  0  0  0  0  0  0
   46.6890   32.3820   39.2690 C   0  0  0  0  0  0  0  0  0  0  0  0
   46.7280   32.8540   40.5240 N   0  0  0  0  0  0  0  0  0  0  0  0
   47.4260   33.9260   40.9100 C   0  0  0  0  0  0  0  0  0  0  0  0
   48.8760   34.8030   37.6450 N   0  0  0  0  0  0  0  0  0  0  0  0
   45.0440   35.5080   42.9870 C   0  0  0  0  0  0  0  0  0  0  0  0
   45.3920   36.7530   42.9640 O   0  0  0  0  0  0  0  0  0  0  0  0
   41.8310   34.8720   40.2230 C   0  0  0  0  0  0  0  0  0  0  0  0
   41.5740   35.3300   41.5160 C   0  0  0  0  0  0  0  0  0  0  0  0
   42.5880   35.5540   42.4480 C   0  0  0  0  0  0  0  0  0  0  0  0
   43.8960   35.3250   42.1060 C   0  0  0  0  0  0  0  0  0  0  0  0
   44.1320   34.8730   40.8220 C   0  0  0  0  0  0  0  0  0  0  0  0
   43.1540   34.6420   39.8820 C   0  0  0  0  0  0  0  0  0  0  0  0
   40.5530   34.5950   39.0670 S   0  0  0  0  0  0  0  0  0  0  0  0
   40.7410   35.4190   37.8190 O   0  0  0  0  0  0  0  0  0  0  0  0
   39.2530   35.0170   39.7100 O   0  0  0  0  0  0  0  0  0  0  0  0
   48.6032   32.7200   43.6606 H   0  0  0  0  0  0  0  0  0  0  0  0
   45.3910   32.6121   46.4836 H   0  0  0  0  0  0  0  0  0  0  0  0
   48.7615   36.3029   42.6601 H   0  0  0  0  0  0  0  0  0  0  0  0
   46.0947   31.4930   39.0113 H   0  0  0  0  0  0  0  0  0  0  0  0
   48.8513   34.4471   36.6788 H   0  0  0  0  0  0  0  0  0  0  0  0
   49.4341   35.6384   37.8720 H   0  0  0  0  0  0  0  0  0  0  0  0
   45.7227   35.3028   42.1460 H   0  0  0  0  0  0  0  0  0  0  0  0
   45.4853   37.0868   43.8914 H   0  0  0  0  0  0  0  0  0  0  0  0
   40.5320   35.5218   41.8118 H   0  0  0  0  0  0  0  0  0  0  0  0
   42.3381   35.9142   43.4569 H   0  0  0  0  0  0  0  0  0  0  0  0
   45.1757   34.6844   40.5304 H   0  0  0  0  0  0  0  0  0  0  0  0
   43.4181   34.2809   38.8771 H   0  0  0  0  0  0  0  0  0  0  0  0
   40.5580   33.2704   38.7173 H   0  0  0  0  0  0  0  0  0  0  0  0
  1  6  2  0
  2  1  1  0
  2  3  2  0
  3  4  1  0
  4  5  2  0
  6  5  1  0
  7  2  1  0
  8  7  1  0
  9  8  2  0
 10  9  1  0
 10 15  2  0
 11 10  1  0
 12 11  2  0
 12 13  1  0
 13 14  2  0
 14 15  1  0
 15  7  1  0
 16 11  1  0
 17 18  1  0
 17  1  1  0
 19 20  2  0
 20 21  1  0
 22 21  2  0
 22 17  1  0
 23 22  1  0
 24 19  1  0
 24 23  2  0
 25 27  2  0
 25 19  1  0
 26 25  2  0
  3 28  1  0
  5 29  1  0
  8 30  1  0
 13 31  1  0
 16 32  1  0
 16 33  1  0
 17 34  1  0
 18 35  1  0
 20 36  1  0
 21 37  1  0
 23 38  1  0
 24 39  1  0
 25 40  1  0
M  ISO  8  28  14  29  14  30  14  31  14  34   8  35   3  36  14  37  14
M  ISO  3  38  14  39  14  40  11
M  END
>  <minimizedAffinity>  (1) 
-6.63362932

>  <minimizedRMSD>  (1) 
1.21086204

$$$$
