
     RDKit          3D

 37 40  0  0  1  0  0  0  0  0999 V2000
   45.6900   34.4880   43.7510 C   0  0  0  0  0  0  0  0  0  0  0  0
   46.9430   34.0590   43.2820 C   0  0  0  0  0  0  0  0  0  0  0  0
   47.6220   33.0870   44.0040 C   0  0  0  0  0  0  0  0  0  0  0  0
   47.0400   32.6000   45.1270 N   0  0  0  0  0  0  0  0  0  0  0  0
   45.8310   33.0260   45.5640 C   0  0  0  0  0  0  0  0  0  0  0  0
   45.1820   33.9560   44.8720 N   0  0  0  0  0  0  0  0  0  0  0  0
   47.5880   34.5410   42.1160 N   0  0  0  0  0  0  0  0  0  0  0  0
   48.4080   35.5850   41.9010 C   0  0  0  0  0  0  0  0  0  0  0  0
   48.7530   35.6100   40.5850 N   0  0  0  0  0  0  0  0  0  0  0  0
   48.1630   34.5910   39.9580 C   0  0  0  0  0  0  0  0  0  0  0  0
   48.1470   34.1300   38.6540 C   0  0  0  0  0  0  0  0  0  0  0  0
   47.4160   33.0310   38.3450 N   0  0  0  0  0  0  0  0  0  0  0  0
   46.6990   32.3620   39.2620 C   0  0  0  0  0  0  0  0  0  0  0  0
   46.7390   32.8410   40.5220 N   0  0  0  0  0  0  0  0  0  0  0  0
   47.4270   33.9090   40.9080 C   0  0  0  0  0  0  0  0  0  0  0  0
   48.8880   34.7970   37.6410 N   0  0  0  0  0  0  0  0  0  0  0  0
   45.0290   35.4830   42.9740 C   0  0  0  0  0  0  0  0  0  0  0  0
   45.3040   36.7430   43.0010 O   0  0  0  0  0  0  0  0  0  0  0  0
   43.9420   35.3000   42.0190 C   0  0  0  0  0  0  0  0  0  0  0  0
   44.1090   34.9080   40.7090 C   0  0  0  0  0  0  0  0  0  0  0  0
   43.0140   34.7630   39.8480 C   0  0  0  0  0  0  0  0  0  0  0  0
   41.7170   35.0150   40.3000 C   0  0  0  0  0  0  0  0  0  0  0  0
   41.5180   35.4100   41.6060 C   0  0  0  0  0  0  0  0  0  0  0  0
   42.6220   35.5390   42.4150 C   0  0  0  0  0  0  0  0  0  0  0  0
   48.6057   32.7219   43.6737 H   0  0  0  0  0  0  0  0  0  0  0  0
   45.3915   32.6069   46.4812 H   0  0  0  0  0  0  0  0  0  0  0  0
   48.7448   36.3018   42.6644 H   0  0  0  0  0  0  0  0  0  0  0  0
   46.1103   31.4706   38.9995 H   0  0  0  0  0  0  0  0  0  0  0  0
   48.8692   34.4453   36.6731 H   0  0  0  0  0  0  0  0  0  0  0  0
   49.4438   35.6320   37.8748 H   0  0  0  0  0  0  0  0  0  0  0  0
   45.7627   35.3402   42.1670 H   0  0  0  0  0  0  0  0  0  0  0  0
   45.3702   37.0462   43.9411 H   0  0  0  0  0  0  0  0  0  0  0  0
   45.1222   34.7049   40.3319 H   0  0  0  0  0  0  0  0  0  0  0  0
   43.1770   34.4479   38.8068 H   0  0  0  0  0  0  0  0  0  0  0  0
   40.8606   34.8993   39.6194 H   0  0  0  0  0  0  0  0  0  0  0  0
   40.5074   35.6155   41.9886 H   0  0  0  0  0  0  0  0  0  0  0  0
   42.4541   35.8549   43.4552 H   0  0  0  0  0  0  0  0  0  0  0  0
  1  6  2  0
  2  1  1  0
  2  3  2  0
  3  4  1  0
  4  5  2  0
  6  5  1  0
  7  2  1  0
  8  7  1  0
  9  8  2  0
 10  9  1  0
 10 15  2  0
 11 10  1  0
 12 11  2  0
 12 13  1  0
 13 14  2  0
 14 15  1  0
 15  7  1  0
 16 11  1  0
 17 18  1  0
 17  1  1  0
 19 24  1  0
 19 17  1  0
 20 19  2  0
 21 22  2  0
 21 20  1  0
 22 23  1  0
 23 24  2  0
  3 25  1  0
  5 26  1  0
  8 27  1  0
 13 28  1  0
 16 29  1  0
 16 30  1  0
 17 31  1  0
 18 32  1  0
 20 33  1  0
 21 34  1  0
 22 35  1  0
 23 36  1  0
 24 37  1  0
M  ISO  8  25  14  26  14  27  14  28  14  31   8  32   3  33  14  34  14
M  ISO  3  35  14  36  14  37  14
M  END
>  <minimizedAffinity>  (1) 
-6.1321516

>  <minimizedRMSD>  (1) 
0.746270061

$$$$
