
     RDKit          3D

 43 46  0  0  1  0  0  0  0  0999 V2000
   45.7080   34.2880   43.6220 C   0  0  0  0  0  0  0  0  0  0  0  0
   46.9870   33.9350   43.1720 C   0  0  0  0  0  0  0  0  0  0  0  0
   47.7250   33.0030   43.9050 C   0  0  0  0  0  0  0  0  0  0  0  0
   47.1450   32.4920   45.0220 N   0  0  0  0  0  0  0  0  0  0  0  0
   45.9130   32.8410   45.4440 C   0  0  0  0  0  0  0  0  0  0  0  0
   45.2160   33.7350   44.7340 N   0  0  0  0  0  0  0  0  0  0  0  0
   47.6260   34.4510   42.0110 N   0  0  0  0  0  0  0  0  0  0  0  0
   48.4200   35.5310   41.8260 C   0  0  0  0  0  0  0  0  0  0  0  0
   48.7740   35.5860   40.5110 N   0  0  0  0  0  0  0  0  0  0  0  0
   48.2180   34.5660   39.8670 C   0  0  0  0  0  0  0  0  0  0  0  0
   48.2160   34.1240   38.5700 C   0  0  0  0  0  0  0  0  0  0  0  0
   47.5230   33.0100   38.2120 N   0  0  0  0  0  0  0  0  0  0  0  0
   46.8100   32.3000   39.1250 C   0  0  0  0  0  0  0  0  0  0  0  0
   46.8310   32.7590   40.3940 N   0  0  0  0  0  0  0  0  0  0  0  0
   47.4990   33.8510   40.7970 C   0  0  0  0  0  0  0  0  0  0  0  0
   48.9500   34.7850   37.5560 N   0  0  0  0  0  0  0  0  0  0  0  0
   45.0000   35.2230   42.8230 C   0  0  0  0  0  0  0  0  0  0  0  0
   45.0570   36.5070   42.9510 O   0  0  0  0  0  0  0  0  0  0  0  0
   44.0460   35.2570   41.6930 C   0  0  0  0  0  0  0  0  0  0  0  0
   42.6920   35.7500   42.1290 C   0  0  0  0  0  0  0  0  0  0  0  0
   41.6180   35.6210   41.1430 C   0  0  0  0  0  0  0  0  0  0  0  0
   41.7550   34.5980   40.0750 C   0  0  0  0  0  0  0  0  0  0  0  0
   43.1670   34.2200   39.7340 C   0  0  0  0  0  0  0  0  0  0  0  0
   43.8730   33.9090   41.0390 C   0  0  0  0  0  0  0  0  0  0  0  0
   48.7335   32.6957   43.5910 H   0  0  0  0  0  0  0  0  0  0  0  0
   45.4882   32.3980   46.3568 H   0  0  0  0  0  0  0  0  0  0  0  0
   48.7277   36.2439   42.6051 H   0  0  0  0  0  0  0  0  0  0  0  0
   46.2454   31.3986   38.8446 H   0  0  0  0  0  0  0  0  0  0  0  0
   48.9290   34.4290   36.5897 H   0  0  0  0  0  0  0  0  0  0  0  0
   49.5051   35.6220   37.7845 H   0  0  0  0  0  0  0  0  0  0  0  0
   45.8419   35.2561   42.1158 H   0  0  0  0  0  0  0  0  0  0  0  0
   45.0675   36.7426   43.9125 H   0  0  0  0  0  0  0  0  0  0  0  0
   44.4819   35.9528   40.9610 H   0  0  0  0  0  0  0  0  0  0  0  0
   42.3983   35.1818   43.0239 H   0  0  0  0  0  0  0  0  0  0  0  0
   42.8095   36.8299   42.3024 H   0  0  0  0  0  0  0  0  0  0  0  0
   40.6954   35.3913   41.6961 H   0  0  0  0  0  0  0  0  0  0  0  0
   41.6331   36.5786   40.6019 H   0  0  0  0  0  0  0  0  0  0  0  0
   41.2287   33.6896   40.4035 H   0  0  0  0  0  0  0  0  0  0  0  0
   41.3290   35.0457   39.1650 H   0  0  0  0  0  0  0  0  0  0  0  0
   43.1734   33.3346   39.0813 H   0  0  0  0  0  0  0  0  0  0  0  0
   43.6732   35.0380   39.2004 H   0  0  0  0  0  0  0  0  0  0  0  0
   43.2594   33.2461   41.6668 H   0  0  0  0  0  0  0  0  0  0  0  0
   44.8293   33.3868   40.8880 H   0  0  0  0  0  0  0  0  0  0  0  0
  1  6  2  0
  2  1  1  0
  2  3  2  0
  3  4  1  0
  4  5  2  0
  6  5  1  0
  7  2  1  0
  8  7  1  0
  9  8  2  0
 10  9  1  0
 10 15  2  0
 11 10  1  0
 12 11  2  0
 12 13  1  0
 13 14  2  0
 14 15  1  0
 15  7  1  0
 16 11  1  0
 17 18  1  0
 17  1  1  0
 19 20  1  0
 19 17  1  0
 21 20  1  0
 22 21  1  0
 23 22  1  0
 23 24  1  0
 24 19  1  0
  3 25  1  0
  5 26  1  0
  8 27  1  0
 13 28  1  0
 16 29  1  0
 16 30  1  0
 17 31  1  0
 18 32  1  0
 19 33  1  0
 20 34  1  0
 20 35  1  0
 21 36  1  0
 21 37  1  0
 22 38  1  0
 22 39  1  0
 23 40  1  0
 23 41  1  0
 24 42  1  0
 24 43  1  0
M  ISO  8  25  14  26  14  27  14  28  14  31   8  32   3  33  13  34  13
M  ISO  8  35  13  36  13  37  13  38  13  39  13  40  13  41  13  42  13
M  ISO  1  43  13
M  END
>  <minimizedAffinity>  (1) 
-5.90119934

>  <minimizedRMSD>  (1) 
0.734386086

$$$$
