
     RDKit          3D

 34 37  0  0  1  0  0  0  0  0999 V2000
   45.7140   34.5410   43.7750 C   0  0  0  0  0  0  0  0  0  0  0  0
   46.9440   34.0840   43.2860 C   0  0  0  0  0  0  0  0  0  0  0  0
   47.6180   33.0800   43.9860 C   0  0  0  0  0  0  0  0  0  0  0  0
   47.0430   32.5940   45.1160 N   0  0  0  0  0  0  0  0  0  0  0  0
   45.8480   33.0530   45.5740 C   0  0  0  0  0  0  0  0  0  0  0  0
   45.2120   34.0160   44.8930 N   0  0  0  0  0  0  0  0  0  0  0  0
   47.5950   34.5530   42.1160 N   0  0  0  0  0  0  0  0  0  0  0  0
   48.4320   35.5920   41.9090 C   0  0  0  0  0  0  0  0  0  0  0  0
   48.7820   35.6140   40.5890 N   0  0  0  0  0  0  0  0  0  0  0  0
   48.1710   34.5990   39.9700 C   0  0  0  0  0  0  0  0  0  0  0  0
   48.1510   34.1330   38.6590 C   0  0  0  0  0  0  0  0  0  0  0  0
   47.4030   33.0350   38.3410 N   0  0  0  0  0  0  0  0  0  0  0  0
   46.6880   32.3990   39.2750 C   0  0  0  0  0  0  0  0  0  0  0  0
   46.7290   32.8730   40.5260 N   0  0  0  0  0  0  0  0  0  0  0  0
   47.4300   33.9320   40.9110 C   0  0  0  0  0  0  0  0  0  0  0  0
   48.9030   34.8010   37.6540 N   0  0  0  0  0  0  0  0  0  0  0  0
   45.0590   35.5370   43.0010 C   0  0  0  0  0  0  0  0  0  0  0  0
   45.2640   36.8090   43.1460 O   0  0  0  0  0  0  0  0  0  0  0  0
   44.0680   35.3750   41.9380 C   0  0  0  0  0  0  0  0  0  0  0  0
   42.6980   35.4330   42.0220 C   0  0  0  0  0  0  0  0  0  0  0  0
   42.1280   35.1870   40.7680 C   0  0  0  0  0  0  0  0  0  0  0  0
   43.1760   34.9850   39.9510 N   0  0  0  0  0  0  0  0  0  0  0  0
   44.2760   35.0990   40.6470 N   0  0  0  0  0  0  0  0  0  0  0  0
   48.5857   32.6948   43.6322 H   0  0  0  0  0  0  0  0  0  0  0  0
   45.4082   32.6385   46.4932 H   0  0  0  0  0  0  0  0  0  0  0  0
   48.7749   36.3024   42.6757 H   0  0  0  0  0  0  0  0  0  0  0  0
   46.0851   31.5141   39.0231 H   0  0  0  0  0  0  0  0  0  0  0  0
   48.8875   34.4552   36.6839 H   0  0  0  0  0  0  0  0  0  0  0  0
   49.4633   35.6307   37.8961 H   0  0  0  0  0  0  0  0  0  0  0  0
   45.8683   35.4913   42.2574 H   0  0  0  0  0  0  0  0  0  0  0  0
   45.2996   37.0297   44.1104 H   0  0  0  0  0  0  0  0  0  0  0  0
   42.1315   35.6424   42.9414 H   0  0  0  0  0  0  0  0  0  0  0  0
   41.0593   35.1640   40.5084 H   0  0  0  0  0  0  0  0  0  0  0  0
   43.1212   34.7753   38.9441 H   0  0  0  0  0  0  0  0  0  0  0  0
  1  6  2  0
  2  1  1  0
  2  3  2  0
  3  4  1  0
  4  5  2  0
  6  5  1  0
  7  2  1  0
  8  7  1  0
  9  8  2  0
 10  9  1  0
 10 15  2  0
 11 10  1  0
 12 11  2  0
 12 13  1  0
 13 14  2  0
 14 15  1  0
 15  7  1  0
 16 11  1  0
 17 18  1  0
 17  1  1  0
 19 20  1  0
 19 17  1  0
 21 20  2  0
 22 23  1  0
 22 21  1  0
 23 19  2  0
  3 24  1  0
  5 25  1  0
  8 26  1  0
 13 27  1  0
 16 28  1  0
 16 29  1  0
 17 30  1  0
 18 31  1  0
 20 32  1  0
 21 33  1  0
 22 34  1  0
M  ISO  8  24  14  25  14  26  14  27  14  30   8  31   3  32  14  33  14
M  ISO  1  34   9
M  END
>  <minimizedAffinity>  (1) 
-6.01523781

>  <minimizedRMSD>  (1) 
0.520821691

$$$$
