
     RDKit          3D

 34 37  0  0  1  0  0  0  0  0999 V2000
   45.7110   34.5130   43.8020 C   0  0  0  0  0  0  0  0  0  0  0  0
   46.9410   34.0660   43.3080 C   0  0  0  0  0  0  0  0  0  0  0  0
   47.6280   33.0680   44.0030 C   0  0  0  0  0  0  0  0  0  0  0  0
   47.0650   32.5750   45.1340 N   0  0  0  0  0  0  0  0  0  0  0  0
   45.8660   33.0270   45.5980 C   0  0  0  0  0  0  0  0  0  0  0  0
   45.2110   33.9830   44.9280 N   0  0  0  0  0  0  0  0  0  0  0  0
   47.5840   34.5420   42.1330 N   0  0  0  0  0  0  0  0  0  0  0  0
   48.4300   35.5830   41.9300 C   0  0  0  0  0  0  0  0  0  0  0  0
   48.7630   35.6160   40.6180 N   0  0  0  0  0  0  0  0  0  0  0  0
   48.1440   34.6150   39.9890 C   0  0  0  0  0  0  0  0  0  0  0  0
   48.1120   34.1670   38.6840 C   0  0  0  0  0  0  0  0  0  0  0  0
   47.3590   33.0750   38.3450 N   0  0  0  0  0  0  0  0  0  0  0  0
   46.6410   32.4220   39.2740 C   0  0  0  0  0  0  0  0  0  0  0  0
   46.6960   32.8880   40.5400 N   0  0  0  0  0  0  0  0  0  0  0  0
   47.4080   33.9430   40.9300 C   0  0  0  0  0  0  0  0  0  0  0  0
   48.8620   34.8110   37.6570 N   0  0  0  0  0  0  0  0  0  0  0  0
   45.0480   35.5150   43.0380 C   0  0  0  0  0  0  0  0  0  0  0  0
   45.3640   36.7730   43.0890 O   0  0  0  0  0  0  0  0  0  0  0  0
   43.9370   35.3490   42.0950 C   0  0  0  0  0  0  0  0  0  0  0  0
   43.9920   35.0540   40.7520 C   0  0  0  0  0  0  0  0  0  0  0  0
   42.7190   34.9860   40.2170 C   0  0  0  0  0  0  0  0  0  0  0  0
   41.9150   35.2510   41.2860 C   0  0  0  0  0  0  0  0  0  0  0  0
   42.6730   35.4490   42.3230 O   0  0  0  0  0  0  0  0  0  0  0  0
   48.5975   32.6928   43.6434 H   0  0  0  0  0  0  0  0  0  0  0  0
   45.4378   32.6075   46.5203 H   0  0  0  0  0  0  0  0  0  0  0  0
   48.7854   36.2823   42.7012 H   0  0  0  0  0  0  0  0  0  0  0  0
   46.0328   31.5431   39.0137 H   0  0  0  0  0  0  0  0  0  0  0  0
   48.8212   34.4572   36.6905 H   0  0  0  0  0  0  0  0  0  0  0  0
   49.4447   35.6301   37.8814 H   0  0  0  0  0  0  0  0  0  0  0  0
   45.7680   35.3673   42.2196 H   0  0  0  0  0  0  0  0  0  0  0  0
   45.4354   37.0572   44.0346 H   0  0  0  0  0  0  0  0  0  0  0  0
   44.9199   34.8945   40.1832 H   0  0  0  0  0  0  0  0  0  0  0  0
   42.4255   34.7701   39.1791 H   0  0  0  0  0  0  0  0  0  0  0  0
   40.8158   35.2904   41.2729 H   0  0  0  0  0  0  0  0  0  0  0  0
  1  6  2  0
  2  1  1  0
  2  3  2  0
  3  4  1  0
  4  5  2  0
  6  5  1  0
  7  2  1  0
  8  7  1  0
  9  8  2  0
 10  9  1  0
 10 15  2  0
 11 10  1  0
 12 11  2  0
 12 13  1  0
 13 14  2  0
 14 15  1  0
 15  7  1  0
 16 11  1  0
 17 18  1  0
 17  1  1  0
 19 23  1  0
 19 17  1  0
 20 19  2  0
 21 20  1  0
 21 22  2  0
 22 23  1  0
  3 24  1  0
  5 25  1  0
  8 26  1  0
 13 27  1  0
 16 28  1  0
 16 29  1  0
 17 30  1  0
 18 31  1  0
 20 32  1  0
 21 33  1  0
 22 34  1  0
M  ISO  8  24  14  25  14  26  14  27  14  30   8  31   3  32  14  33  14
M  ISO  1  34  14
M  END
>  <minimizedAffinity>  (1) 
-6.09325933

>  <minimizedRMSD>  (1) 
0.640783012

$$$$
