
     RDKit          3D

 34 37  0  0  1  0  0  0  0  0999 V2000
   45.7100   34.4840   43.7590 C   0  0  0  0  0  0  0  0  0  0  0  0
   46.9590   34.0520   43.2860 C   0  0  0  0  0  0  0  0  0  0  0  0
   47.6490   33.0790   44.0000 C   0  0  0  0  0  0  0  0  0  0  0  0
   47.0800   32.5860   45.1300 N   0  0  0  0  0  0  0  0  0  0  0  0
   45.8670   33.0180   45.5740 C   0  0  0  0  0  0  0  0  0  0  0  0
   45.2110   33.9530   44.8830 N   0  0  0  0  0  0  0  0  0  0  0  0
   47.6010   34.5280   42.1160 N   0  0  0  0  0  0  0  0  0  0  0  0
   48.4320   35.5770   41.9100 C   0  0  0  0  0  0  0  0  0  0  0  0
   48.7770   35.6060   40.5950 N   0  0  0  0  0  0  0  0  0  0  0  0
   48.1730   34.5860   39.9590 C   0  0  0  0  0  0  0  0  0  0  0  0
   48.1500   34.1310   38.6670 C   0  0  0  0  0  0  0  0  0  0  0  0
   47.4200   33.0440   38.3440 N   0  0  0  0  0  0  0  0  0  0  0  0
   46.6920   32.3670   39.2640 C   0  0  0  0  0  0  0  0  0  0  0  0
   46.7460   32.8500   40.5210 N   0  0  0  0  0  0  0  0  0  0  0  0
   47.4390   33.9130   40.9140 C   0  0  0  0  0  0  0  0  0  0  0  0
   48.9000   34.7910   37.6420 N   0  0  0  0  0  0  0  0  0  0  0  0
   45.0410   35.4710   42.9890 C   0  0  0  0  0  0  0  0  0  0  0  0
   45.2190   36.7510   43.1460 O   0  0  0  0  0  0  0  0  0  0  0  0
   43.0960   35.0820   39.9470 N   0  0  0  0  0  0  0  0  0  0  0  0
   44.2530   35.0910   40.6190 N   0  0  0  0  0  0  0  0  0  0  0  0
   44.0600   35.3430   41.9180 C   0  0  0  0  0  0  0  0  0  0  0  0
   42.6920   35.4870   41.9820 C   0  0  0  0  0  0  0  0  0  0  0  0
   42.0610   35.3290   40.7680 C   0  0  0  0  0  0  0  0  0  0  0  0
   48.6303   32.7179   43.6584 H   0  0  0  0  0  0  0  0  0  0  0  0
   45.4318   32.6002   46.4938 H   0  0  0  0  0  0  0  0  0  0  0  0
   48.7714   36.2873   42.6783 H   0  0  0  0  0  0  0  0  0  0  0  0
   46.0955   31.4806   39.0022 H   0  0  0  0  0  0  0  0  0  0  0  0
   48.8728   34.4372   36.6751 H   0  0  0  0  0  0  0  0  0  0  0  0
   49.4669   35.6198   37.8713 H   0  0  0  0  0  0  0  0  0  0  0  0
   45.8565   35.4481   42.2511 H   0  0  0  0  0  0  0  0  0  0  0  0
   45.2486   36.9640   44.1124 H   0  0  0  0  0  0  0  0  0  0  0  0
   43.0100   34.9088   38.9353 H   0  0  0  0  0  0  0  0  0  0  0  0
   42.1535   35.7076   42.9155 H   0  0  0  0  0  0  0  0  0  0  0  0
   40.9884   35.3893   40.5317 H   0  0  0  0  0  0  0  0  0  0  0  0
  1  6  2  0
  2  1  1  0
  2  3  2  0
  3  4  1  0
  4  5  2  0
  6  5  1  0
  7  2  1  0
  8  7  1  0
  9  8  2  0
 10  9  1  0
 10 15  2  0
 11 10  1  0
 12 11  2  0
 12 13  1  0
 13 14  2  0
 14 15  1  0
 15  7  1  0
 16 11  1  0
 17 18  1  0
 17  1  1  0
 19 20  1  0
 19 23  1  0
 20 21  2  0
 21 22  1  0
 21 17  1  0
 23 22  2  0
  3 24  1  0
  5 25  1  0
  8 26  1  0
 13 27  1  0
 16 28  1  0
 16 29  1  0
 17 30  1  0
 18 31  1  0
 19 32  1  0
 22 33  1  0
 23 34  1  0
M  ISO  8  24  14  25  14  26  14  27  14  30   8  31   3  32   9  33  14
M  ISO  1  34  14
M  END
>  <minimizedAffinity>  (1) 
-5.97899818

>  <minimizedRMSD>  (1) 
0.593561709

$$$$
