
     RDKit          3D

 18 19  0  0  0  0  0  0  0  0999 V2000
   44.4540   35.9480   44.7840 C   0  0  0  0  0  0  0  0  0  0  0  0
   44.9310   35.6370   43.4960 C   0  0  0  0  0  0  0  0  0  0  0  0
   45.6500   34.4720   43.3050 C   0  0  0  0  0  0  0  0  0  0  0  0
   45.8450   33.6950   44.4060 N   0  0  0  0  0  0  0  0  0  0  0  0
   45.3900   33.9950   45.6280 C   0  0  0  0  0  0  0  0  0  0  0  0
   44.7000   35.1210   45.7940 N   0  0  0  0  0  0  0  0  0  0  0  0
   46.1960   34.0570   41.9800 C   0  0  0  0  0  0  0  0  0  0  0  0
   45.7030   32.9760   41.3200 C   0  0  0  0  0  0  0  0  0  0  0  0
   46.6900   32.9120   39.8020 S   0  0  0  0  0  0  0  0  0  0  0  0
   47.6520   34.4420   40.3480 C   0  0  0  0  0  0  0  0  0  0  0  0
   47.1630   34.6810   41.3640 N   0  0  0  0  0  0  0  0  0  0  0  0
   48.7610   35.1870   39.6800 N   0  0  0  0  0  0  0  0  0  0  0  0
   43.8805   36.8713   44.9529 H   0  0  0  0  0  0  0  0  0  0  0  0
   44.7336   36.3136   42.6514 H   0  0  0  0  0  0  0  0  0  0  0  0
   45.5824   33.3244   46.4785 H   0  0  0  0  0  0  0  0  0  0  0  0
   44.8947   32.2991   41.6337 H   0  0  0  0  0  0  0  0  0  0  0  0
   49.1723   36.0147   40.1345 H   0  0  0  0  0  0  0  0  0  0  0  0
   49.1144   34.8730   38.7649 H   0  0  0  0  0  0  0  0  0  0  0  0
  1  6  2  0
  2  1  1  0
  3  2  2  0
  3  4  1  0
  4  5  2  0
  5  6  1  0
  7  3  1  0
  8  7  2  0
  9 10  1  0
  9  8  1  0
 10 11  2  0
 11  7  1  0
 12 10  1  0
  1 13  1  0
  2 14  1  0
  5 15  1  0
  8 16  1  0
 12 17  1  0
 12 18  1  0
M  ISO  4  13  14  14  14  15  14  16  14
M  END
>  <minimizedAffinity>  (1) 
-4.04581404

>  <minimizedRMSD>  (1) 
1.11534274

$$$$
