
     RDKit          3D

 37 41  0  0  0  0  0  0  0  0999 V2000
   45.4250   30.8040   44.6510 C   0  0  0  0  0  0  0  0  0  0  0  0
   46.6150   31.4620   44.2300 C   0  0  0  0  0  0  0  0  0  0  0  0
   47.8130   30.9110   44.6800 C   0  0  0  0  0  0  0  0  0  0  0  0
   47.7740   29.8110   45.4690 N   0  0  0  0  0  0  0  0  0  0  0  0
   46.6390   29.2200   45.8450 C   0  0  0  0  0  0  0  0  0  0  0  0
   45.4380   29.7010   45.4460 N   0  0  0  0  0  0  0  0  0  0  0  0
   46.6540   28.0680   46.6740 N   0  0  0  0  0  0  0  0  0  0  0  0
   47.6230   27.4990   47.4230 C   0  0  0  0  0  0  0  0  0  0  0  0
   47.1470   26.4010   48.0400 N   0  0  0  0  0  0  0  0  0  0  0  0
   45.8570   26.2560   47.6890 C   0  0  0  0  0  0  0  0  0  0  0  0
   44.8860   25.3380   48.0030 C   0  0  0  0  0  0  0  0  0  0  0  0
   43.6520   25.4680   47.4740 N   0  0  0  0  0  0  0  0  0  0  0  0
   43.3480   26.4830   46.6410 C   0  0  0  0  0  0  0  0  0  0  0  0
   44.2870   27.3800   46.3310 N   0  0  0  0  0  0  0  0  0  0  0  0
   45.5560   27.3100   46.8280 C   0  0  0  0  0  0  0  0  0  0  0  0
   46.3670   32.6160   43.3830 C   0  0  0  0  0  0  0  0  0  0  0  0
   46.7760   32.4310   42.0980 N   0  0  0  0  0  0  0  0  0  0  0  0
   46.6310   33.3940   41.1610 C   0  0  0  0  0  0  0  0  0  0  0  0
   46.0680   34.5980   41.4520 N   0  0  0  0  0  0  0  0  0  0  0  0
   45.6510   34.8110   42.7240 C   0  0  0  0  0  0  0  0  0  0  0  0
   45.0620   35.9900   43.1530 C   0  0  0  0  0  0  0  0  0  0  0  0
   44.6490   36.1670   44.4570 C   0  0  0  0  0  0  0  0  0  0  0  0
   44.8210   35.1470   45.3820 C   0  0  0  0  0  0  0  0  0  0  0  0
   45.4030   33.9690   44.9790 C   0  0  0  0  0  0  0  0  0  0  0  0
   45.7980   33.8370   43.6740 C   0  0  0  0  0  0  0  0  0  0  0  0
   45.1700   24.2520   48.8800 N   0  0  0  0  0  0  0  0  0  0  0  0
   44.4554   31.2042   44.3197 H   0  0  0  0  0  0  0  0  0  0  0  0
   48.7758   31.3626   44.3987 H   0  0  0  0  0  0  0  0  0  0  0  0
   48.6517   27.8775   47.5156 H   0  0  0  0  0  0  0  0  0  0  0  0
   42.3355   26.5715   46.2204 H   0  0  0  0  0  0  0  0  0  0  0  0
   46.9775   33.1992   40.1353 H   0  0  0  0  0  0  0  0  0  0  0  0
   44.9197   36.8087   42.4322 H   0  0  0  0  0  0  0  0  0  0  0  0
   44.1838   37.1156   44.7634 H   0  0  0  0  0  0  0  0  0  0  0  0
   44.4957   35.2796   46.4244 H   0  0  0  0  0  0  0  0  0  0  0  0
   45.5493   33.1452   45.6931 H   0  0  0  0  0  0  0  0  0  0  0  0
   44.4339   23.5688   49.1089 H   0  0  0  0  0  0  0  0  0  0  0  0
   46.1114   24.1499   49.2852 H   0  0  0  0  0  0  0  0  0  0  0  0
  1  6  2  0
  2  1  1  0
  2  3  2  0
  3  4  1  0
  4  5  2  0
  5  7  1  0
  6  5  1  0
  7 15  1  0
  7  8  1  0
  8  9  2  0
 10 11  2  0
 10  9  1  0
 11 26  1  0
 12 11  1  0
 13 12  2  0
 14 13  1  0
 14 15  2  0
 15 10  1  0
 16 25  1  0
 16  2  1  0
 17 16  2  0
 18 19  2  0
 18 17  1  0
 19 20  1  0
 20 21  1  0
 20 25  2  0
 21 22  2  0
 22 23  1  0
 24 23  2  0
 25 24  1  0
  1 27  1  0
  3 28  1  0
  8 29  1  0
 13 30  1  0
 18 31  1  0
 21 32  1  0
 22 33  1  0
 23 34  1  0
 24 35  1  0
 26 36  1  0
 26 37  1  0
M  ISO  8  27  14  28  14  29  14  30  14  31  14  32  14  33  14  34  14
M  ISO  1  35  14
M  END
>  <minimizedAffinity>  (1) 
-5.68007135

>  <minimizedRMSD>  (1) 
2.92137694

$$$$
