
     RDKit          3D

 41 45  0  0  1  0  0  0  0  0999 V2000
   45.5290   34.4420   43.8150 C   0  0  0  0  0  0  0  0  0  0  0  0
   46.7850   33.9770   43.4960 C   0  0  0  0  0  0  0  0  0  0  0  0
   47.4830   33.2580   44.4600 C   0  0  0  0  0  0  0  0  0  0  0  0
   46.8860   33.0550   45.6670 N   0  0  0  0  0  0  0  0  0  0  0  0
   45.6590   33.5190   45.9570 C   0  0  0  0  0  0  0  0  0  0  0  0
   44.9900   34.2120   45.0250 N   0  0  0  0  0  0  0  0  0  0  0  0
   47.4440   34.1620   42.2640 N   0  0  0  0  0  0  0  0  0  0  0  0
   47.9710   35.2730   41.6920 C   0  0  0  0  0  0  0  0  0  0  0  0
   48.5040   34.9130   40.4900 N   0  0  0  0  0  0  0  0  0  0  0  0
   48.3220   33.5960   40.2970 C   0  0  0  0  0  0  0  0  0  0  0  0
   48.6520   32.7280   39.2830 C   0  0  0  0  0  0  0  0  0  0  0  0
   48.3180   31.4170   39.3930 N   0  0  0  0  0  0  0  0  0  0  0  0
   47.6630   30.9360   40.4830 C   0  0  0  0  0  0  0  0  0  0  0  0
   47.3590   31.8170   41.4500 N   0  0  0  0  0  0  0  0  0  0  0  0
   47.6540   33.1070   41.4060 C   0  0  0  0  0  0  0  0  0  0  0  0
   49.3440   33.1670   38.1230 N   0  0  0  0  0  0  0  0  0  0  0  0
   44.7820   35.1220   42.7900 C   0  0  0  0  0  0  0  0  0  0  0  0
   44.8930   36.4090   42.5980 O   0  0  0  0  0  0  0  0  0  0  0  0
   43.7940   34.9040   41.7530 C   0  0  0  0  0  0  0  0  0  0  0  0
   42.6960   35.5750   42.2560 N   0  0  0  0  0  0  0  0  0  0  0  0
   41.5240   35.6060   41.5490 C   0  0  0  0  0  0  0  0  0  0  0  0
   41.3600   35.0000   40.3370 N   0  0  0  0  0  0  0  0  0  0  0  0
   42.4270   34.3510   39.8420 C   0  0  0  0  0  0  0  0  0  0  0  0
   42.4810   33.7220   38.6170 C   0  0  0  0  0  0  0  0  0  0  0  0
   43.6290   33.1080   38.1240 C   0  0  0  0  0  0  0  0  0  0  0  0
   44.8010   33.1160   38.8930 C   0  0  0  0  0  0  0  0  0  0  0  0
   44.7210   33.7380   40.0920 C   0  0  0  0  0  0  0  0  0  0  0  0
   43.5880   34.3260   40.5520 C   0  0  0  0  0  0  0  0  0  0  0  0
   48.4891   32.8643   44.2534 H   0  0  0  0  0  0  0  0  0  0  0  0
   45.2104   33.3331   46.9440 H   0  0  0  0  0  0  0  0  0  0  0  0
   47.9688   36.2855   42.1219 H   0  0  0  0  0  0  0  0  0  0  0  0
   47.3941   29.8728   40.5690 H   0  0  0  0  0  0  0  0  0  0  0  0
   49.6051   34.1584   38.0234 H   0  0  0  0  0  0  0  0  0  0  0  0
   49.5848   32.4940   37.3814 H   0  0  0  0  0  0  0  0  0  0  0  0
   45.6001   34.9450   42.0763 H   0  0  0  0  0  0  0  0  0  0  0  0
   44.9328   36.8709   43.4727 H   0  0  0  0  0  0  0  0  0  0  0  0
   40.6695   36.1479   41.9804 H   0  0  0  0  0  0  0  0  0  0  0  0
   41.5718   33.7042   37.9980 H   0  0  0  0  0  0  0  0  0  0  0  0
   43.6165   32.6201   37.1382 H   0  0  0  0  0  0  0  0  0  0  0  0
   45.7309   32.6444   38.5424 H   0  0  0  0  0  0  0  0  0  0  0  0
   45.6196   33.7685   40.7256 H   0  0  0  0  0  0  0  0  0  0  0  0
  1  6  2  0
  2  1  1  0
  2  3  2  0
  3  4  1  0
  4  5  2  0
  6  5  1  0
  7  2  1  0
  8  7  1  0
  9  8  2  0
 10  9  1  0
 10 15  2  0
 11 12  2  0
 11 10  1  0
 12 13  1  0
 13 14  2  0
 15 14  1  0
 15  7  1  0
 16 11  1  0
 17 18  1  0
 17  1  1  0
 19 20  2  0
 19 17  1  0
 21 20  1  0
 22 21  2  0
 23 22  1  0
 23 28  2  0
 24 23  1  0
 25 24  2  0
 25 26  1  0
 26 27  2  0
 27 28  1  0
 28 19  1  0
  3 29  1  0
  5 30  1  0
  8 31  1  0
 13 32  1  0
 16 33  1  0
 16 34  1  0
 17 35  1  0
 18 36  1  0
 21 37  1  0
 24 38  1  0
 25 39  1  0
 26 40  1  0
 27 41  1  0
M  ISO  8  29  14  30  14  31  14  32  14  35   8  36   3  37  14  38  14
M  ISO  3  39  14  40  14  41  14
M  END
>  <minimizedAffinity>  (1) 
-5.78147745

>  <minimizedRMSD>  (1) 
1.53087962

$$$$
