
     RDKit          3D

 29 31  0  0  0  0  0  0  0  0999 V2000
   45.7250   34.8550   43.7390 C   0  0  0  0  0  0  0  0  0  0  0  0
   46.9000   34.2920   43.2670 C   0  0  0  0  0  0  0  0  0  0  0  0
   47.4690   33.2430   43.9820 C   0  0  0  0  0  0  0  0  0  0  0  0
   46.8390   32.8260   45.1120 N   0  0  0  0  0  0  0  0  0  0  0  0
   45.6970   33.3910   45.5510 C   0  0  0  0  0  0  0  0  0  0  0  0
   45.1570   34.3920   44.8650 N   0  0  0  0  0  0  0  0  0  0  0  0
   47.6050   34.6930   42.0830 N   0  0  0  0  0  0  0  0  0  0  0  0
   48.5360   35.6360   41.8800 C   0  0  0  0  0  0  0  0  0  0  0  0
   48.8810   35.6060   40.5560 N   0  0  0  0  0  0  0  0  0  0  0  0
   48.1760   34.6560   39.9330 C   0  0  0  0  0  0  0  0  0  0  0  0
   48.1110   34.1930   38.6370 C   0  0  0  0  0  0  0  0  0  0  0  0
   47.2700   33.1930   38.3280 N   0  0  0  0  0  0  0  0  0  0  0  0
   46.4710   32.6130   39.2560 C   0  0  0  0  0  0  0  0  0  0  0  0
   46.5480   33.0770   40.5150 N   0  0  0  0  0  0  0  0  0  0  0  0
   47.3570   34.0620   40.8880 C   0  0  0  0  0  0  0  0  0  0  0  0
   48.9290   34.7680   37.6250 N   0  0  0  0  0  0  0  0  0  0  0  0
   45.1930   35.9360   42.9490 C   0  0  0  0  0  0  0  0  0  0  0  0
   45.1830   37.1570   43.2790 O   0  0  0  0  0  0  0  0  0  0  0  0
   44.6330   35.6830   41.7130 O   0  0  0  0  0  0  0  0  0  0  0  0
   43.3480   35.0470   41.6220 C   0  0  0  0  0  0  0  0  0  0  0  0
   42.7490   35.4040   40.4310 F   0  0  0  0  0  0  0  0  0  0  0  0
   43.4170   33.6870   41.7410 F   0  0  0  0  0  0  0  0  0  0  0  0
   42.5370   35.5170   42.6320 F   0  0  0  0  0  0  0  0  0  0  0  0
   48.4003   32.7656   43.6432 H   0  0  0  0  0  0  0  0  0  0  0  0
   45.2158   33.0260   46.4703 H   0  0  0  0  0  0  0  0  0  0  0  0
   48.9491   36.3133   42.6420 H   0  0  0  0  0  0  0  0  0  0  0  0
   45.7862   31.7945   38.9894 H   0  0  0  0  0  0  0  0  0  0  0  0
   48.8753   34.4170   36.6582 H   0  0  0  0  0  0  0  0  0  0  0  0
   49.5750   35.5353   37.8591 H   0  0  0  0  0  0  0  0  0  0  0  0
  1  6  2  0
  2  1  1  0
  2  3  2  0
  3  4  1  0
  4  5  2  0
  6  5  1  0
  7  2  1  0
  8  7  1  0
  9  8  2  0
 10  9  1  0
 10 15  2  0
 11 10  1  0
 12 11  2  0
 12 13  1  0
 13 14  2  0
 14 15  1  0
 15  7  1  0
 16 11  1  0
 17 18  2  0
 17  1  1  0
 19 17  1  0
 20 19  1  0
 20 22  1  0
 20 23  1  0
 21 20  1  0
  3 24  1  0
  5 25  1  0
  8 26  1  0
 13 27  1  0
 16 28  1  0
 16 29  1  0
M  ISO  4  24  14  25  14  26  14  27  14
M  END
>  <minimizedAffinity>  (1) 
-5.79719257

>  <minimizedRMSD>  (1) 
1.1355387

$$$$
