
     RDKit          3D

 35 37  0  0  0  0  0  0  0  0999 V2000
   47.5920   34.6860   42.0700 N   0  0  0  0  0  0  0  0  0  0  0  0
   48.4940   35.6550   41.8660 C   0  0  0  0  0  0  0  0  0  0  0  0
   48.8570   35.6340   40.5520 N   0  0  0  0  0  0  0  0  0  0  0  0
   48.1820   34.6490   39.9310 C   0  0  0  0  0  0  0  0  0  0  0  0
   48.1490   34.1780   38.6340 C   0  0  0  0  0  0  0  0  0  0  0  0
   47.3370   33.1400   38.3290 N   0  0  0  0  0  0  0  0  0  0  0  0
   46.5520   32.5430   39.2490 C   0  0  0  0  0  0  0  0  0  0  0  0
   46.6030   33.0210   40.5030 N   0  0  0  0  0  0  0  0  0  0  0  0
   47.3810   34.0430   40.8760 C   0  0  0  0  0  0  0  0  0  0  0  0
   48.9460   34.7550   37.6200 N   0  0  0  0  0  0  0  0  0  0  0  0
   45.6960   34.8120   43.7220 C   0  0  0  0  0  0  0  0  0  0  0  0
   46.8970   34.2760   43.2410 C   0  0  0  0  0  0  0  0  0  0  0  0
   47.4720   33.2400   43.9750 C   0  0  0  0  0  0  0  0  0  0  0  0
   46.8470   32.8080   45.1040 N   0  0  0  0  0  0  0  0  0  0  0  0
   45.6960   33.3540   45.5280 C   0  0  0  0  0  0  0  0  0  0  0  0
   45.1340   34.3450   44.8370 N   0  0  0  0  0  0  0  0  0  0  0  0
   45.1530   35.8740   42.9250 C   0  0  0  0  0  0  0  0  0  0  0  0
   45.1820   37.1120   43.2020 O   0  0  0  0  0  0  0  0  0  0  0  0
   44.5190   35.6110   41.7220 O   0  0  0  0  0  0  0  0  0  0  0  0
   43.4050   34.8060   41.5230 C   0  0  0  0  0  0  0  0  0  0  0  0
   43.3580   34.2930   40.1080 C   0  0  0  0  0  0  0  0  0  0  0  0
   42.0990   35.4570   41.9030 C   0  0  0  0  0  0  0  0  0  0  0  0
   48.8766   36.3493   42.6286 H   0  0  0  0  0  0  0  0  0  0  0  0
   45.8974   31.6999   38.9833 H   0  0  0  0  0  0  0  0  0  0  0  0
   48.9040   34.3859   36.6593 H   0  0  0  0  0  0  0  0  0  0  0  0
   49.5691   35.5447   37.8415 H   0  0  0  0  0  0  0  0  0  0  0  0
   48.4155   32.7792   43.6471 H   0  0  0  0  0  0  0  0  0  0  0  0
   45.2168   32.9831   46.4461 H   0  0  0  0  0  0  0  0  0  0  0  0
   43.5254   33.9570   42.2120 H   0  0  0  0  0  0  0  0  0  0  0  0
   43.2576   33.1976   40.1182 H   0  0  0  0  0  0  0  0  0  0  0  0
   42.4966   34.7353   39.5861 H   0  0  0  0  0  0  0  0  0  0  0  0
   44.2854   34.5714   39.5861 H   0  0  0  0  0  0  0  0  0  0  0  0
   42.0153   35.4987   42.9990 H   0  0  0  0  0  0  0  0  0  0  0  0
   42.0652   36.4774   41.4936 H   0  0  0  0  0  0  0  0  0  0  0  0
   41.2638   34.8698   41.4936 H   0  0  0  0  0  0  0  0  0  0  0  0
  1 12  1  0
  2  1  1  0
  3  2  2  0
  4  3  1  0
  4  9  2  0
  5  4  1  0
  6  5  2  0
  6  7  1  0
  7  8  2  0
  8  9  1  0
  9  1  1  0
 10  5  1  0
 11 16  2  0
 12 11  1  0
 12 13  2  0
 13 14  1  0
 14 15  2  0
 16 15  1  0
 17 18  2  0
 17 11  1  0
 19 17  1  0
 20 19  1  0
 20 22  1  0
 21 20  1  0
  2 23  1  0
  7 24  1  0
 10 25  1  0
 10 26  1  0
 13 27  1  0
 15 28  1  0
 20 29  1  0
 21 30  1  0
 21 31  1  0
 21 32  1  0
 22 33  1  0
 22 34  1  0
 22 35  1  0
M  ISO  8  23  14  24  14  27  14  28  14  29   8  30   8  31   8  32   8
M  ISO  3  33   8  34   8  35   8
M  END
>  <minimizedAffinity>  (1) 
-5.58834267

>  <minimizedRMSD>  (1) 
0.911433697

$$$$
