
     RDKit          3D

 39 42  0  0  0  0  0  0  0  0999 V2000
   45.8170   34.6730   43.8440 C   0  0  0  0  0  0  0  0  0  0  0  0
   46.9870   34.2030   43.3190 C   0  0  0  0  0  0  0  0  0  0  0  0
   47.5750   33.1420   44.0200 C   0  0  0  0  0  0  0  0  0  0  0  0
   46.9700   32.6570   45.1380 N   0  0  0  0  0  0  0  0  0  0  0  0
   45.8110   33.1790   45.5900 C   0  0  0  0  0  0  0  0  0  0  0  0
   45.2360   34.1980   44.9300 N   0  0  0  0  0  0  0  0  0  0  0  0
   47.6380   34.6400   42.1400 N   0  0  0  0  0  0  0  0  0  0  0  0
   48.5010   35.6220   41.9280 C   0  0  0  0  0  0  0  0  0  0  0  0
   48.8270   35.6290   40.5970 N   0  0  0  0  0  0  0  0  0  0  0  0
   48.1570   34.6360   39.9660 C   0  0  0  0  0  0  0  0  0  0  0  0
   48.0960   34.1920   38.6730 C   0  0  0  0  0  0  0  0  0  0  0  0
   47.3010   33.1470   38.3680 N   0  0  0  0  0  0  0  0  0  0  0  0
   46.5550   32.5180   39.3060 C   0  0  0  0  0  0  0  0  0  0  0  0
   46.6280   32.9680   40.5720 N   0  0  0  0  0  0  0  0  0  0  0  0
   47.3990   34.0020   40.9420 C   0  0  0  0  0  0  0  0  0  0  0  0
   48.8590   34.8130   37.6500 N   0  0  0  0  0  0  0  0  0  0  0  0
   45.1800   35.6870   43.0660 C   0  0  0  0  0  0  0  0  0  0  0  0
   45.2640   36.9290   43.1460 O   0  0  0  0  0  0  0  0  0  0  0  0
   44.3090   35.4020   42.0330 O   0  0  0  0  0  0  0  0  0  0  0  0
   43.6210   34.2750   41.7660 C   0  0  0  0  0  0  0  0  0  0  0  0
   42.4290   34.9350   41.0000 C   0  0  0  0  0  0  0  0  0  0  0  0
   42.4860   34.8800   39.5950 C   0  0  0  0  0  0  0  0  0  0  0  0
   41.5520   35.3960   38.7250 C   0  0  0  0  0  0  0  0  0  0  0  0
   40.4870   36.0130   39.3370 C   0  0  0  0  0  0  0  0  0  0  0  0
   40.3690   36.1020   40.7040 C   0  0  0  0  0  0  0  0  0  0  0  0
   41.3450   35.5600   41.4990 C   0  0  0  0  0  0  0  0  0  0  0  0
   48.5206   32.7035   43.6684 H   0  0  0  0  0  0  0  0  0  0  0  0
   45.3384   32.7716   46.4959 H   0  0  0  0  0  0  0  0  0  0  0  0
   48.8896   36.3137   42.6900 H   0  0  0  0  0  0  0  0  0  0  0  0
   45.9102   31.6668   39.0420 H   0  0  0  0  0  0  0  0  0  0  0  0
   48.8013   34.4661   36.6819 H   0  0  0  0  0  0  0  0  0  0  0  0
   49.4704   35.6106   37.8757 H   0  0  0  0  0  0  0  0  0  0  0  0
   44.1899   33.5779   41.1332 H   0  0  0  0  0  0  0  0  0  0  0  0
   43.3560   33.6507   42.6320 H   0  0  0  0  0  0  0  0  0  0  0  0
   43.3580   34.3780   39.1505 H   0  0  0  0  0  0  0  0  0  0  0  0
   41.6498   35.3208   37.6319 H   0  0  0  0  0  0  0  0  0  0  0  0
   39.6984   36.4527   38.7086 H   0  0  0  0  0  0  0  0  0  0  0  0
   39.4999   36.6032   41.1551 H   0  0  0  0  0  0  0  0  0  0  0  0
   41.2387   35.6387   42.5910 H   0  0  0  0  0  0  0  0  0  0  0  0
  1  6  2  0
  2  1  1  0
  2  3  2  0
  3  4  1  0
  4  5  2  0
  6  5  1  0
  7  2  1  0
  8  7  1  0
  9  8  2  0
 10  9  1  0
 10 15  2  0
 11 10  1  0
 12 11  2  0
 12 13  1  0
 13 14  2  0
 14 15  1  0
 15  7  1  0
 16 11  1  0
 17 18  2  0
 17  1  1  0
 19 17  1  0
 20 19  1  0
 21 26  1  0
 21 20  1  0
 22 21  2  0
 23 24  2  0
 23 22  1  0
 24 25  1  0
 25 26  2  0
  3 27  1  0
  5 28  1  0
  8 29  1  0
 13 30  1  0
 16 31  1  0
 16 32  1  0
 20 33  1  0
 20 34  1  0
 22 35  1  0
 23 36  1  0
 24 37  1  0
 25 38  1  0
 26 39  1  0
M  ISO  8  27  14  28  14  29  14  30  14  33   8  34   8  35  14  36  14
M  ISO  3  37  14  38  14  39  14
M  END
>  <minimizedAffinity>  (1) 
-6.85768509

>  <minimizedRMSD>  (1) 
0.917550087

$$$$
