
     RDKit          3D

 39 42  0  0  0  0  0  0  0  0999 V2000
   45.8280   34.6930   43.8510 C   0  0  0  0  0  0  0  0  0  0  0  0
   46.9880   34.2080   43.3190 C   0  0  0  0  0  0  0  0  0  0  0  0
   47.5640   33.1410   44.0140 C   0  0  0  0  0  0  0  0  0  0  0  0
   46.9630   32.6610   45.1350 N   0  0  0  0  0  0  0  0  0  0  0  0
   45.8160   33.1960   45.5940 C   0  0  0  0  0  0  0  0  0  0  0  0
   45.2470   34.2230   44.9430 N   0  0  0  0  0  0  0  0  0  0  0  0
   47.6380   34.6450   42.1370 N   0  0  0  0  0  0  0  0  0  0  0  0
   48.5060   35.6210   41.9280 C   0  0  0  0  0  0  0  0  0  0  0  0
   48.8320   35.6260   40.5970 N   0  0  0  0  0  0  0  0  0  0  0  0
   48.1540   34.6340   39.9690 C   0  0  0  0  0  0  0  0  0  0  0  0
   48.1000   34.1940   38.6710 C   0  0  0  0  0  0  0  0  0  0  0  0
   47.3010   33.1530   38.3670 N   0  0  0  0  0  0  0  0  0  0  0  0
   46.5490   32.5270   39.3030 C   0  0  0  0  0  0  0  0  0  0  0  0
   46.6170   32.9760   40.5700 N   0  0  0  0  0  0  0  0  0  0  0  0
   47.3920   34.0060   40.9410 C   0  0  0  0  0  0  0  0  0  0  0  0
   48.8670   34.8110   37.6540 N   0  0  0  0  0  0  0  0  0  0  0  0
   45.1950   35.7120   43.0770 C   0  0  0  0  0  0  0  0  0  0  0  0
   45.2720   36.9530   43.1740 O   0  0  0  0  0  0  0  0  0  0  0  0
   44.3330   35.4340   42.0290 O   0  0  0  0  0  0  0  0  0  0  0  0
   43.6180   34.3280   41.7750 C   0  0  0  0  0  0  0  0  0  0  0  0
   42.4250   34.9800   40.9960 C   0  0  0  0  0  0  0  0  0  0  0  0
   41.2980   35.5800   41.4950 C   0  0  0  0  0  0  0  0  0  0  0  0
   40.3470   36.0710   40.6570 C   0  0  0  0  0  0  0  0  0  0  0  0
   40.4750   35.9880   39.3100 C   0  0  0  0  0  0  0  0  0  0  0  0
   41.5660   35.4050   38.7080 C   0  0  0  0  0  0  0  0  0  0  0  0
   42.5050   34.9220   39.5940 C   0  0  0  0  0  0  0  0  0  0  0  0
   48.5012   32.6908   43.6549 H   0  0  0  0  0  0  0  0  0  0  0  0
   45.3452   32.7917   46.5022 H   0  0  0  0  0  0  0  0  0  0  0  0
   48.8983   36.3096   42.6908 H   0  0  0  0  0  0  0  0  0  0  0  0
   45.9026   31.6779   39.0362 H   0  0  0  0  0  0  0  0  0  0  0  0
   48.8117   34.4648   36.6855 H   0  0  0  0  0  0  0  0  0  0  0  0
   49.4805   35.6062   37.8824 H   0  0  0  0  0  0  0  0  0  0  0  0
   44.1741   33.6113   41.1529 H   0  0  0  0  0  0  0  0  0  0  0  0
   43.3380   33.7331   42.6569 H   0  0  0  0  0  0  0  0  0  0  0  0
   41.1620   35.6649   42.5833 H   0  0  0  0  0  0  0  0  0  0  0  0
   39.4514   36.5475   41.0824 H   0  0  0  0  0  0  0  0  0  0  0  0
   39.6776   36.4018   38.6753 H   0  0  0  0  0  0  0  0  0  0  0  0
   41.6790   35.3309   37.6163 H   0  0  0  0  0  0  0  0  0  0  0  0
   43.3994   34.4474   39.1641 H   0  0  0  0  0  0  0  0  0  0  0  0
  1  6  2  0
  2  1  1  0
  2  3  2  0
  3  4  1  0
  4  5  2  0
  6  5  1  0
  7  2  1  0
  8  7  1  0
  9  8  2  0
 10  9  1  0
 10 15  2  0
 11 10  1  0
 12 11  2  0
 12 13  1  0
 13 14  2  0
 14 15  1  0
 15  7  1  0
 16 11  1  0
 17 18  2  0
 17  1  1  0
 19 17  1  0
 20 19  1  0
 21 22  2  0
 21 20  1  0
 23 22  1  0
 24 23  2  0
 25 24  1  0
 25 26  2  0
 26 21  1  0
  3 27  1  0
  5 28  1  0
  8 29  1  0
 13 30  1  0
 16 31  1  0
 16 32  1  0
 20 33  1  0
 20 34  1  0
 22 35  1  0
 23 36  1  0
 24 37  1  0
 25 38  1  0
 26 39  1  0
M  ISO  8  27  14  28  14  29  14  30  14  33   8  34   8  35  14  36  14
M  ISO  3  37  14  38  14  39  14
M  END
>  <minimizedAffinity>  (1) 
-6.88872623

>  <minimizedRMSD>  (1) 
0.920623243

$$$$
