
     RDKit          3D

 42 46  0  0  0  0  0  0  0  0999 V2000
   45.8200   34.7500   43.8440 C   0  0  0  0  0  0  0  0  0  0  0  0
   46.9610   34.2330   43.2980 C   0  0  0  0  0  0  0  0  0  0  0  0
   47.5110   33.1360   43.9720 C   0  0  0  0  0  0  0  0  0  0  0  0
   46.9020   32.6600   45.0920 N   0  0  0  0  0  0  0  0  0  0  0  0
   45.7740   33.2260   45.5700 C   0  0  0  0  0  0  0  0  0  0  0  0
   45.2370   34.2780   44.9350 N   0  0  0  0  0  0  0  0  0  0  0  0
   47.6230   34.6690   42.1230 N   0  0  0  0  0  0  0  0  0  0  0  0
   48.4880   35.6520   41.9180 C   0  0  0  0  0  0  0  0  0  0  0  0
   48.8320   35.6490   40.5880 N   0  0  0  0  0  0  0  0  0  0  0  0
   48.1720   34.6520   39.9610 C   0  0  0  0  0  0  0  0  0  0  0  0
   48.1300   34.1930   38.6680 C   0  0  0  0  0  0  0  0  0  0  0  0
   47.3390   33.1410   38.3610 N   0  0  0  0  0  0  0  0  0  0  0  0
   46.5800   32.5170   39.2970 C   0  0  0  0  0  0  0  0  0  0  0  0
   46.6340   32.9800   40.5590 N   0  0  0  0  0  0  0  0  0  0  0  0
   47.3950   34.0160   40.9310 C   0  0  0  0  0  0  0  0  0  0  0  0
   48.9040   34.8120   37.6600 N   0  0  0  0  0  0  0  0  0  0  0  0
   45.2220   35.8080   43.0960 C   0  0  0  0  0  0  0  0  0  0  0  0
   45.3530   37.0280   43.1820 O   0  0  0  0  0  0  0  0  0  0  0  0
   44.3290   35.5850   42.0750 O   0  0  0  0  0  0  0  0  0  0  0  0
   43.8050   34.4140   41.6400 C   0  0  0  0  0  0  0  0  0  0  0  0
   42.3810   34.2450   41.4470 N   0  0  0  0  0  0  0  0  0  0  0  0
   41.5120   35.2780   41.3460 C   0  0  0  0  0  0  0  0  0  0  0  0
   40.2260   34.8640   41.1840 N   0  0  0  0  0  0  0  0  0  0  0  0
   40.2370   33.5270   41.1780 C   0  0  0  0  0  0  0  0  0  0  0  0
   39.3340   32.4950   41.0610 C   0  0  0  0  0  0  0  0  0  0  0  0
   39.7280   31.2180   41.1030 N   0  0  0  0  0  0  0  0  0  0  0  0
   41.0140   30.9130   41.2610 C   0  0  0  0  0  0  0  0  0  0  0  0
   41.9100   31.8800   41.3770 N   0  0  0  0  0  0  0  0  0  0  0  0
   41.5610   33.1850   41.3400 C   0  0  0  0  0  0  0  0  0  0  0  0
   37.9670   32.8420   40.8940 N   0  0  0  0  0  0  0  0  0  0  0  0
   48.4303   32.6615   43.5983 H   0  0  0  0  0  0  0  0  0  0  0  0
   45.2970   32.8260   46.4769 H   0  0  0  0  0  0  0  0  0  0  0  0
   48.8651   36.3493   42.6806 H   0  0  0  0  0  0  0  0  0  0  0  0
   45.9418   31.6610   39.0326 H   0  0  0  0  0  0  0  0  0  0  0  0
   48.8659   34.4605   36.6926 H   0  0  0  0  0  0  0  0  0  0  0  0
   49.5061   35.6146   37.8929 H   0  0  0  0  0  0  0  0  0  0  0  0
   44.2761   34.2061   40.6680 H   0  0  0  0  0  0  0  0  0  0  0  0
   44.0098   33.7375   42.4828 H   0  0  0  0  0  0  0  0  0  0  0  0
   41.8123   36.3353   41.3900 H   0  0  0  0  0  0  0  0  0  0  0  0
   41.3311   29.8602   41.2951 H   0  0  0  0  0  0  0  0  0  0  0  0
   37.6871   33.8328   40.8646 H   0  0  0  0  0  0  0  0  0  0  0  0
   37.2555   32.1029   40.8023 H   0  0  0  0  0  0  0  0  0  0  0  0
  1  6  2  0
  2  1  1  0
  2  3  2  0
  3  4  1  0
  4  5  2  0
  6  5  1  0
  7  2  1  0
  8  7  1  0
  9  8  2  0
 10  9  1  0
 10 15  2  0
 11 10  1  0
 12 11  2  0
 12 13  1  0
 13 14  2  0
 14 15  1  0
 15  7  1  0
 16 11  1  0
 17 18  2  0
 17  1  1  0
 19 17  1  0
 20 19  1  0
 21 20  1  0
 22 21  1  0
 23 22  2  0
 24 23  1  0
 24 29  2  0
 25 26  2  0
 25 24  1  0
 26 27  1  0
 27 28  2  0
 29 28  1  0
 29 21  1  0
 30 25  1  0
  3 31  1  0
  5 32  1  0
  8 33  1  0
 13 34  1  0
 16 35  1  0
 16 36  1  0
 20 37  1  0
 20 38  1  0
 22 39  1  0
 27 40  1  0
 30 41  1  0
 30 42  1  0
M  ISO  8  31  14  32  14  33  14  34  14  37   8  38   8  39  14  40  14
M  END
>  <minimizedAffinity>  (1) 
-7.3998332

>  <minimizedRMSD>  (1) 
1.41092217

$$$$
