
     RDKit          3D

 43 47  0  0  0  0  0  0  0  0999 V2000
   45.7600   34.8050   43.7950 C   0  0  0  0  0  0  0  0  0  0  0  0
   46.9190   34.2830   43.2870 C   0  0  0  0  0  0  0  0  0  0  0  0
   47.4750   33.2160   44.0010 C   0  0  0  0  0  0  0  0  0  0  0  0
   46.8520   32.7660   45.1260 N   0  0  0  0  0  0  0  0  0  0  0  0
   45.7070   33.3310   45.5650 C   0  0  0  0  0  0  0  0  0  0  0  0
   45.1670   34.3550   44.8890 N   0  0  0  0  0  0  0  0  0  0  0  0
   47.5980   34.6910   42.1070 N   0  0  0  0  0  0  0  0  0  0  0  0
   48.5090   35.6320   41.9100 C   0  0  0  0  0  0  0  0  0  0  0  0
   48.8500   35.6150   40.5790 N   0  0  0  0  0  0  0  0  0  0  0  0
   48.1490   34.6600   39.9450 C   0  0  0  0  0  0  0  0  0  0  0  0
   48.0800   34.2100   38.6600 C   0  0  0  0  0  0  0  0  0  0  0  0
   47.2350   33.1950   38.3430 N   0  0  0  0  0  0  0  0  0  0  0  0
   46.4400   32.6000   39.2790 C   0  0  0  0  0  0  0  0  0  0  0  0
   46.5250   33.0600   40.5420 N   0  0  0  0  0  0  0  0  0  0  0  0
   47.3390   34.0570   40.9130 C   0  0  0  0  0  0  0  0  0  0  0  0
   48.8860   34.7860   37.6440 N   0  0  0  0  0  0  0  0  0  0  0  0
   45.1670   35.8340   43.0030 C   0  0  0  0  0  0  0  0  0  0  0  0
   45.2050   37.0550   43.1240 O   0  0  0  0  0  0  0  0  0  0  0  0
   44.3990   35.5540   41.8910 O   0  0  0  0  0  0  0  0  0  0  0  0
   43.4410   34.6060   41.7420 C   0  0  0  0  0  0  0  0  0  0  0  0
   42.1330   34.9480   41.1160 C   0  0  0  0  0  0  0  0  0  0  0  0
   41.2830   35.9660   41.5350 C   0  0  0  0  0  0  0  0  0  0  0  0
   40.1960   35.9970   40.7450 N   0  0  0  0  0  0  0  0  0  0  0  0
   40.2690   35.0390   39.8030 C   0  0  0  0  0  0  0  0  0  0  0  0
   39.4880   34.5810   38.7390 C   0  0  0  0  0  0  0  0  0  0  0  0
   39.9060   33.5170   37.9500 C   0  0  0  0  0  0  0  0  0  0  0  0
   41.1210   32.8580   38.1810 C   0  0  0  0  0  0  0  0  0  0  0  0
   41.8690   33.3450   39.2500 C   0  0  0  0  0  0  0  0  0  0  0  0
   41.4550   34.4010   40.0340 C   0  0  0  0  0  0  0  0  0  0  0  0
   48.4073   32.7444   43.6570 H   0  0  0  0  0  0  0  0  0  0  0  0
   45.2186   32.9521   46.4749 H   0  0  0  0  0  0  0  0  0  0  0  0
   48.9195   36.3069   42.6755 H   0  0  0  0  0  0  0  0  0  0  0  0
   45.7581   31.7788   39.0130 H   0  0  0  0  0  0  0  0  0  0  0  0
   48.8238   34.4363   36.6772 H   0  0  0  0  0  0  0  0  0  0  0  0
   49.5332   35.5538   37.8734 H   0  0  0  0  0  0  0  0  0  0  0  0
   43.8827   33.8040   41.1323 H   0  0  0  0  0  0  0  0  0  0  0  0
   43.1649   34.3665   42.7795 H   0  0  0  0  0  0  0  0  0  0  0  0
   41.4713   36.6417   42.3824 H   0  0  0  0  0  0  0  0  0  0  0  0
   39.4157   36.6616   40.8466 H   0  0  0  0  0  0  0  0  0  0  0  0
   38.5270   35.0707   38.5227 H   0  0  0  0  0  0  0  0  0  0  0  0
   39.2655   33.1823   37.1207 H   0  0  0  0  0  0  0  0  0  0  0  0
   41.4602   32.0149   37.5612 H   0  0  0  0  0  0  0  0  0  0  0  0
   42.8325   32.8662   39.4790 H   0  0  0  0  0  0  0  0  0  0  0  0
  1  6  2  0
  2  1  1  0
  2  3  2  0
  3  4  1  0
  4  5  2  0
  6  5  1  0
  7  2  1  0
  8  7  1  0
  9  8  2  0
 10  9  1  0
 10 15  2  0
 11 10  1  0
 12 11  2  0
 12 13  1  0
 13 14  2  0
 14 15  1  0
 15  7  1  0
 16 11  1  0
 17 18  2  0
 17  1  1  0
 19 17  1  0
 20 19  1  0
 21 22  2  0
 21 20  1  0
 23 22  1  0
 24 29  2  0
 24 23  1  0
 25 24  1  0
 26 27  1  0
 26 25  2  0
 27 28  2  0
 28 29  1  0
 29 21  1  0
  3 30  1  0
  5 31  1  0
  8 32  1  0
 13 33  1  0
 16 34  1  0
 16 35  1  0
 20 36  1  0
 20 37  1  0
 22 38  1  0
 23 39  1  0
 25 40  1  0
 26 41  1  0
 27 42  1  0
 28 43  1  0
M  ISO  8  30  14  31  14  32  14  33  14  36   8  37   8  38  14  39   9
M  ISO  4  40  14  41  14  42  14  43  14
M  END
>  <minimizedAffinity>  (1) 
-7.33324289

>  <minimizedRMSD>  (1) 
1.84592545

$$$$
