
     RDKit          3D

 42 45  0  0  0  0  0  0  0  0999 V2000
   45.7950   34.7760   43.8250 C   0  0  0  0  0  0  0  0  0  0  0  0
   46.9500   34.2630   43.3070 C   0  0  0  0  0  0  0  0  0  0  0  0
   47.5070   33.1890   44.0110 C   0  0  0  0  0  0  0  0  0  0  0  0
   46.8870   32.7280   45.1330 N   0  0  0  0  0  0  0  0  0  0  0  0
   45.7450   33.2880   45.5800 C   0  0  0  0  0  0  0  0  0  0  0  0
   45.2010   34.3200   44.9160 N   0  0  0  0  0  0  0  0  0  0  0  0
   47.6160   34.6780   42.1250 N   0  0  0  0  0  0  0  0  0  0  0  0
   48.5110   35.6350   41.9190 C   0  0  0  0  0  0  0  0  0  0  0  0
   48.8450   35.6250   40.5890 N   0  0  0  0  0  0  0  0  0  0  0  0
   48.1540   34.6540   39.9570 C   0  0  0  0  0  0  0  0  0  0  0  0
   48.0900   34.1970   38.6660 C   0  0  0  0  0  0  0  0  0  0  0  0
   47.2700   33.1720   38.3600 N   0  0  0  0  0  0  0  0  0  0  0  0
   46.4980   32.5700   39.2980 C   0  0  0  0  0  0  0  0  0  0  0  0
   46.5680   33.0250   40.5630 N   0  0  0  0  0  0  0  0  0  0  0  0
   47.3650   34.0430   40.9310 C   0  0  0  0  0  0  0  0  0  0  0  0
   48.8680   34.8050   37.6580 N   0  0  0  0  0  0  0  0  0  0  0  0
   45.1940   35.8050   43.0430 C   0  0  0  0  0  0  0  0  0  0  0  0
   45.2660   37.0380   43.1570 O   0  0  0  0  0  0  0  0  0  0  0  0
   44.3740   35.5500   41.9590 O   0  0  0  0  0  0  0  0  0  0  0  0
   43.5330   34.5120   41.7670 C   0  0  0  0  0  0  0  0  0  0  0  0
   42.5210   35.1900   40.8620 N   0  0  0  0  0  0  0  0  0  0  0  0
   41.3140   35.4150   41.5840 C   0  0  0  0  0  0  0  0  0  0  0  0
   40.2220   35.6330   40.5560 C   0  0  0  0  0  0  0  0  0  0  0  0
   40.7200   36.1280   39.3630 O   0  0  0  0  0  0  0  0  0  0  0  0
   41.4330   35.1780   38.6800 C   0  0  0  0  0  0  0  0  0  0  0  0
   42.1940   34.3510   39.7330 C   0  0  0  0  0  0  0  0  0  0  0  0
   48.4386   32.7206   43.6608 H   0  0  0  0  0  0  0  0  0  0  0  0
   45.2597   32.8998   46.4876 H   0  0  0  0  0  0  0  0  0  0  0  0
   48.9147   36.3173   42.6816 H   0  0  0  0  0  0  0  0  0  0  0  0
   45.8338   31.7341   39.0331 H   0  0  0  0  0  0  0  0  0  0  0  0
   48.8173   34.4589   36.6892 H   0  0  0  0  0  0  0  0  0  0  0  0
   49.4866   35.5949   37.8910 H   0  0  0  0  0  0  0  0  0  0  0  0
   44.0293   33.6657   41.2695 H   0  0  0  0  0  0  0  0  0  0  0  0
   43.1216   34.0612   42.6822 H   0  0  0  0  0  0  0  0  0  0  0  0
   41.0775   34.5404   42.2079 H   0  0  0  0  0  0  0  0  0  0  0  0
   41.4089   36.2859   42.2492 H   0  0  0  0  0  0  0  0  0  0  0  0
   39.7224   34.6727   40.3604 H   0  0  0  0  0  0  0  0  0  0  0  0
   39.5180   36.3742   40.9622 H   0  0  0  0  0  0  0  0  0  0  0  0
   40.7512   34.5299   38.1098 H   0  0  0  0  0  0  0  0  0  0  0  0
   42.1281   35.6436   37.9658 H   0  0  0  0  0  0  0  0  0  0  0  0
   41.5627   33.5150   40.0685 H   0  0  0  0  0  0  0  0  0  0  0  0
   43.1203   33.9570   39.2894 H   0  0  0  0  0  0  0  0  0  0  0  0
  1  6  2  0
  2  1  1  0
  2  3  2  0
  3  4  1  0
  4  5  2  0
  6  5  1  0
  7  2  1  0
  8  7  1  0
  9  8  2  0
 10  9  1  0
 10 15  2  0
 11 10  1  0
 12 11  2  0
 12 13  1  0
 13 14  2  0
 14 15  1  0
 15  7  1  0
 16 11  1  0
 17 18  2  0
 17  1  1  0
 19 17  1  0
 20 19  1  0
 21 22  1  0
 21 20  1  0
 23 22  1  0
 24 23  1  0
 25 24  1  0
 25 26  1  0
 26 21  1  0
  3 27  1  0
  5 28  1  0
  8 29  1  0
 13 30  1  0
 16 31  1  0
 16 32  1  0
 20 33  1  0
 20 34  1  0
 22 35  1  0
 22 36  1  0
 23 37  1  0
 23 38  1  0
 25 39  1  0
 25 40  1  0
 26 41  1  0
 26 42  1  0
M  ISO  8  27  14  28  14  29  14  30  14  33   8  34   8  35  13  36  13
M  ISO  6  37  13  38  13  39  13  40  13  41  13  42  13
M  END
>  <minimizedAffinity>  (1) 
-6.48613167

>  <minimizedRMSD>  (1) 
1.21922731

$$$$
