
     RDKit          3D

 37 40  0  0  0  0  0  0  0  0999 V2000
   45.8070   34.6970   43.8340 C   0  0  0  0  0  0  0  0  0  0  0  0
   46.9750   34.2110   43.3110 C   0  0  0  0  0  0  0  0  0  0  0  0
   47.5590   33.1500   44.0100 C   0  0  0  0  0  0  0  0  0  0  0  0
   46.9570   32.6700   45.1340 N   0  0  0  0  0  0  0  0  0  0  0  0
   45.8060   33.2020   45.5860 C   0  0  0  0  0  0  0  0  0  0  0  0
   45.2330   34.2230   44.9280 N   0  0  0  0  0  0  0  0  0  0  0  0
   47.6310   34.6460   42.1310 N   0  0  0  0  0  0  0  0  0  0  0  0
   48.5020   35.6240   41.9240 C   0  0  0  0  0  0  0  0  0  0  0  0
   48.8360   35.6330   40.5980 N   0  0  0  0  0  0  0  0  0  0  0  0
   48.1620   34.6410   39.9610 C   0  0  0  0  0  0  0  0  0  0  0  0
   48.1050   34.1890   38.6670 C   0  0  0  0  0  0  0  0  0  0  0  0
   47.3070   33.1450   38.3610 N   0  0  0  0  0  0  0  0  0  0  0  0
   46.5510   32.5200   39.3020 C   0  0  0  0  0  0  0  0  0  0  0  0
   46.6180   32.9750   40.5670 N   0  0  0  0  0  0  0  0  0  0  0  0
   47.3900   34.0080   40.9350 C   0  0  0  0  0  0  0  0  0  0  0  0
   48.8580   34.8190   37.6580 N   0  0  0  0  0  0  0  0  0  0  0  0
   45.1840   35.7170   43.0590 C   0  0  0  0  0  0  0  0  0  0  0  0
   45.2590   36.9460   43.1480 O   0  0  0  0  0  0  0  0  0  0  0  0
   44.3300   35.4370   42.0090 O   0  0  0  0  0  0  0  0  0  0  0  0
   43.6120   34.3120   41.7840 C   0  0  0  0  0  0  0  0  0  0  0  0
   42.4240   34.9510   40.9920 C   0  0  0  0  0  0  0  0  0  0  0  0
   41.3030   35.5780   41.5280 C   0  0  0  0  0  0  0  0  0  0  0  0
   40.3880   36.0660   40.6350 C   0  0  0  0  0  0  0  0  0  0  0  0
   40.5150   35.9720   39.3040 N   0  0  0  0  0  0  0  0  0  0  0  0
   41.6010   35.3660   38.7950 C   0  0  0  0  0  0  0  0  0  0  0  0
   42.5050   34.8830   39.6370 N   0  0  0  0  0  0  0  0  0  0  0  0
   48.4999   32.7051   43.6541 H   0  0  0  0  0  0  0  0  0  0  0  0
   45.3344   32.8002   46.4949 H   0  0  0  0  0  0  0  0  0  0  0  0
   48.8903   36.3119   42.6895 H   0  0  0  0  0  0  0  0  0  0  0  0
   45.9051   31.6696   39.0381 H   0  0  0  0  0  0  0  0  0  0  0  0
   48.8103   34.4742   36.6886 H   0  0  0  0  0  0  0  0  0  0  0  0
   49.4566   35.6247   37.8892 H   0  0  0  0  0  0  0  0  0  0  0  0
   44.1672   33.5798   41.1794 H   0  0  0  0  0  0  0  0  0  0  0  0
   43.3348   33.7349   42.6785 H   0  0  0  0  0  0  0  0  0  0  0  0
   41.1598   35.6763   42.6142 H   0  0  0  0  0  0  0  0  0  0  0  0
   39.4933   36.5662   41.0341 H   0  0  0  0  0  0  0  0  0  0  0  0
   41.7369   35.2728   37.7074 H   0  0  0  0  0  0  0  0  0  0  0  0
  1  6  2  0
  2  1  1  0
  2  3  2  0
  3  4  1  0
  4  5  2  0
  6  5  1  0
  7  2  1  0
  8  7  1  0
  9  8  2  0
 10  9  1  0
 10 15  2  0
 11 10  1  0
 12 11  2  0
 12 13  1  0
 13 14  2  0
 14 15  1  0
 15  7  1  0
 16 11  1  0
 17 18  2  0
 17  1  1  0
 19 17  1  0
 20 19  1  0
 21 22  2  0
 21 20  1  0
 23 22  1  0
 24 23  2  0
 25 24  1  0
 25 26  2  0
 26 21  1  0
  3 27  1  0
  5 28  1  0
  8 29  1  0
 13 30  1  0
 16 31  1  0
 16 32  1  0
 20 33  1  0
 20 34  1  0
 22 35  1  0
 23 36  1  0
 25 37  1  0
M  ISO  8  27  14  28  14  29  14  30  14  33   8  34   8  35  14  36  14
M  ISO  1  37  14
M  END
>  <minimizedAffinity>  (1) 
-6.52051401

>  <minimizedRMSD>  (1) 
1.04867804

$$$$
