
     RDKit          3D

 40 43  0  0  0  0  0  0  0  0999 V2000
   45.8160   34.6580   43.8620 C   0  0  0  0  0  0  0  0  0  0  0  0
   46.9920   34.2010   43.3430 C   0  0  0  0  0  0  0  0  0  0  0  0
   47.5990   33.1590   44.0560 C   0  0  0  0  0  0  0  0  0  0  0  0
   47.0070   32.6770   45.1810 N   0  0  0  0  0  0  0  0  0  0  0  0
   45.8370   33.1850   45.6300 C   0  0  0  0  0  0  0  0  0  0  0  0
   45.2470   34.1840   44.9570 N   0  0  0  0  0  0  0  0  0  0  0  0
   47.6340   34.6360   42.1570 N   0  0  0  0  0  0  0  0  0  0  0  0
   48.5160   35.6030   41.9440 C   0  0  0  0  0  0  0  0  0  0  0  0
   48.8270   35.6100   40.6080 N   0  0  0  0  0  0  0  0  0  0  0  0
   48.1330   34.6380   39.9790 C   0  0  0  0  0  0  0  0  0  0  0  0
   48.0530   34.1980   38.6830 C   0  0  0  0  0  0  0  0  0  0  0  0
   47.2360   33.1690   38.3810 N   0  0  0  0  0  0  0  0  0  0  0  0
   46.4860   32.5500   39.3240 C   0  0  0  0  0  0  0  0  0  0  0  0
   46.5720   32.9890   40.5920 N   0  0  0  0  0  0  0  0  0  0  0  0
   47.3680   34.0100   40.9600 C   0  0  0  0  0  0  0  0  0  0  0  0
   48.8160   34.8160   37.6630 N   0  0  0  0  0  0  0  0  0  0  0  0
   45.1640   35.6530   43.0720 C   0  0  0  0  0  0  0  0  0  0  0  0
   45.2530   36.8910   43.1120 O   0  0  0  0  0  0  0  0  0  0  0  0
   44.2650   35.3580   42.0700 O   0  0  0  0  0  0  0  0  0  0  0  0
   43.3940   34.3200   42.0030 C   0  0  0  0  0  0  0  0  0  0  0  0
   42.7670   34.6580   40.6620 N   0  0  0  0  0  0  0  0  0  0  0  0
   43.2170   34.3910   39.4330 C   0  0  0  0  0  0  0  0  0  0  0  0
   42.5770   34.7290   38.2720 C   0  0  0  0  0  0  0  0  0  0  0  0
   41.3780   35.3930   38.3820 C   0  0  0  0  0  0  0  0  0  0  0  0
   40.7270   35.7350   37.1660 N   0  0  0  0  0  0  0  0  0  0  0  0
   40.8790   35.6830   39.5960 N   0  0  0  0  0  0  0  0  0  0  0  0
   41.5810   35.3120   40.6970 C   0  0  0  0  0  0  0  0  0  0  0  0
   41.0400   35.6240   41.8040 O   0  0  0  0  0  0  0  0  0  0  0  0
   48.5510   32.7324   43.7070 H   0  0  0  0  0  0  0  0  0  0  0  0
   45.3720   32.7814   46.5415 H   0  0  0  0  0  0  0  0  0  0  0  0
   48.9268   36.2815   42.7061 H   0  0  0  0  0  0  0  0  0  0  0  0
   45.8249   31.7114   39.0598 H   0  0  0  0  0  0  0  0  0  0  0  0
   48.7484   34.4776   36.6925 H   0  0  0  0  0  0  0  0  0  0  0  0
   49.4387   35.6040   37.8914 H   0  0  0  0  0  0  0  0  0  0  0  0
   43.9059   33.3465   41.9903 H   0  0  0  0  0  0  0  0  0  0  0  0
   42.6988   34.2172   42.8492 H   0  0  0  0  0  0  0  0  0  0  0  0
   44.1757   33.8585   39.3478 H   0  0  0  0  0  0  0  0  0  0  0  0
   43.0046   34.4795   37.2897 H   0  0  0  0  0  0  0  0  0  0  0  0
   39.8257   36.2332   37.1868 H   0  0  0  0  0  0  0  0  0  0  0  0
   41.1564   35.4847   36.2639 H   0  0  0  0  0  0  0  0  0  0  0  0
  1  6  2  0
  2  1  1  0
  2  3  2  0
  3  4  1  0
  4  5  2  0
  6  5  1  0
  7  2  1  0
  8  7  1  0
  9  8  2  0
 10  9  1  0
 10 15  2  0
 11 10  1  0
 12 11  2  0
 12 13  1  0
 13 14  2  0
 14 15  1  0
 15  7  1  0
 16 11  1  0
 17 18  2  0
 17  1  1  0
 19 17  1  0
 20 19  1  0
 21 27  1  0
 21 20  1  0
 22 21  1  0
 23 24  1  0
 23 22  2  0
 24 26  2  0
 25 24  1  0
 26 27  1  0
 27 28  2  0
  3 29  1  0
  5 30  1  0
  8 31  1  0
 13 32  1  0
 16 33  1  0
 16 34  1  0
 20 35  1  0
 20 36  1  0
 22 37  1  0
 23 38  1  0
 25 39  1  0
 25 40  1  0
M  ISO  8  29  14  30  14  31  14  32  14  35   8  36   8  37  14  38  14
M  END
>  <minimizedAffinity>  (1) 
-6.71563005

>  <minimizedRMSD>  (1) 
1.08259392

$$$$
