
     RDKit          3D

 44 47  0  0  0  0  0  0  0  0999 V2000
   45.7830   34.7820   43.8170 C   0  0  0  0  0  0  0  0  0  0  0  0
   46.9420   34.2660   43.3000 C   0  0  0  0  0  0  0  0  0  0  0  0
   47.4960   33.1930   44.0050 C   0  0  0  0  0  0  0  0  0  0  0  0
   46.8760   32.7310   45.1280 N   0  0  0  0  0  0  0  0  0  0  0  0
   45.7340   33.2910   45.5760 C   0  0  0  0  0  0  0  0  0  0  0  0
   45.1940   34.3230   44.9070 N   0  0  0  0  0  0  0  0  0  0  0  0
   47.6130   34.6790   42.1210 N   0  0  0  0  0  0  0  0  0  0  0  0
   48.5150   35.6280   41.9170 C   0  0  0  0  0  0  0  0  0  0  0  0
   48.8510   35.6170   40.5860 N   0  0  0  0  0  0  0  0  0  0  0  0
   48.1540   34.6540   39.9540 C   0  0  0  0  0  0  0  0  0  0  0  0
   48.0830   34.1980   38.6670 C   0  0  0  0  0  0  0  0  0  0  0  0
   47.2570   33.1820   38.3550 N   0  0  0  0  0  0  0  0  0  0  0  0
   46.4740   32.5800   39.2910 C   0  0  0  0  0  0  0  0  0  0  0  0
   46.5540   33.0400   40.5560 N   0  0  0  0  0  0  0  0  0  0  0  0
   47.3580   34.0470   40.9240 C   0  0  0  0  0  0  0  0  0  0  0  0
   48.8860   34.7890   37.6470 N   0  0  0  0  0  0  0  0  0  0  0  0
   45.1880   35.8140   43.0330 C   0  0  0  0  0  0  0  0  0  0  0  0
   45.2290   37.0410   43.1740 O   0  0  0  0  0  0  0  0  0  0  0  0
   44.4170   35.5410   41.9200 O   0  0  0  0  0  0  0  0  0  0  0  0
   43.4690   34.5980   41.7520 C   0  0  0  0  0  0  0  0  0  0  0  0
   42.4410   35.4570   41.0120 N   0  0  0  0  0  0  0  0  0  0  0  0
   42.4520   35.0920   39.6380 C   0  0  0  0  0  0  0  0  0  0  0  0
   41.6990   33.8330   39.3690 C   0  0  0  0  0  0  0  0  0  0  0  0
   40.2980   34.0070   39.8900 C   0  0  0  0  0  0  0  0  0  0  0  0
   40.1990   34.4750   41.2910 C   0  0  0  0  0  0  0  0  0  0  0  0
   41.2150   35.4990   41.6920 C   0  0  0  0  0  0  0  0  0  0  0  0
   48.4275   32.7239   43.6553 H   0  0  0  0  0  0  0  0  0  0  0  0
   45.2476   32.9049   46.4839 H   0  0  0  0  0  0  0  0  0  0  0  0
   48.9233   36.3062   42.6808 H   0  0  0  0  0  0  0  0  0  0  0  0
   45.8020   31.7504   39.0260 H   0  0  0  0  0  0  0  0  0  0  0  0
   48.8279   34.4409   36.6794 H   0  0  0  0  0  0  0  0  0  0  0  0
   49.5240   35.5639   37.8781 H   0  0  0  0  0  0  0  0  0  0  0  0
   43.8240   33.7548   41.1413 H   0  0  0  0  0  0  0  0  0  0  0  0
   43.1139   34.1027   42.6677 H   0  0  0  0  0  0  0  0  0  0  0  0
   41.9965   35.9056   39.0545 H   0  0  0  0  0  0  0  0  0  0  0  0
   43.4994   34.9199   39.3491 H   0  0  0  0  0  0  0  0  0  0  0  0
   41.6730   33.6379   38.2868 H   0  0  0  0  0  0  0  0  0  0  0  0
   42.1880   32.9823   39.8662 H   0  0  0  0  0  0  0  0  0  0  0  0
   39.7856   34.7400   39.2496 H   0  0  0  0  0  0  0  0  0  0  0  0
   39.8388   33.0076   39.8693 H   0  0  0  0  0  0  0  0  0  0  0  0
   39.1998   34.9120   41.4345 H   0  0  0  0  0  0  0  0  0  0  0  0
   40.3866   33.5939   41.9222 H   0  0  0  0  0  0  0  0  0  0  0  0
   41.4215   35.3644   42.7640 H   0  0  0  0  0  0  0  0  0  0  0  0
   40.7695   36.4711   41.4340 H   0  0  0  0  0  0  0  0  0  0  0  0
  1  6  2  0
  2  1  1  0
  2  3  2  0
  3  4  1  0
  4  5  2  0
  6  5  1  0
  7  2  1  0
  8  7  1  0
  9  8  2  0
 10  9  1  0
 10 15  2  0
 11 10  1  0
 12 11  2  0
 12 13  1  0
 13 14  2  0
 14 15  1  0
 15  7  1  0
 16 11  1  0
 17 18  2  0
 17  1  1  0
 19 17  1  0
 20 19  1  0
 21 26  1  0
 21 20  1  0
 22 21  1  0
 23 22  1  0
 23 24  1  0
 24 25  1  0
 25 26  1  0
  3 27  1  0
  5 28  1  0
  8 29  1  0
 13 30  1  0
 16 31  1  0
 16 32  1  0
 20 33  1  0
 20 34  1  0
 22 35  1  0
 22 36  1  0
 23 37  1  0
 23 38  1  0
 24 39  1  0
 24 40  1  0
 25 41  1  0
 25 42  1  0
 26 43  1  0
 26 44  1  0
M  ISO  8  27  14  28  14  29  14  30  14  33   8  34   8  35  13  36  13
M  ISO  8  37  13  38  13  39  13  40  13  41  13  42  13  43  13  44  13
M  END
>  <minimizedAffinity>  (1) 
-6.47745371

>  <minimizedRMSD>  (1) 
1.22927487

$$$$
