
     RDKit          3D

 35 38  0  0  0  0  0  0  0  0999 V2000
   45.8040   34.7120   43.8360 C   0  0  0  0  0  0  0  0  0  0  0  0
   46.9700   34.2260   43.3140 C   0  0  0  0  0  0  0  0  0  0  0  0
   47.5510   33.1640   44.0110 C   0  0  0  0  0  0  0  0  0  0  0  0
   46.9380   32.6860   45.1390 N   0  0  0  0  0  0  0  0  0  0  0  0
   45.7860   33.2220   45.5880 C   0  0  0  0  0  0  0  0  0  0  0  0
   45.2220   34.2430   44.9240 N   0  0  0  0  0  0  0  0  0  0  0  0
   47.6270   34.6530   42.1330 N   0  0  0  0  0  0  0  0  0  0  0  0
   48.4990   35.6280   41.9250 C   0  0  0  0  0  0  0  0  0  0  0  0
   48.8280   35.6260   40.5910 N   0  0  0  0  0  0  0  0  0  0  0  0
   48.1530   34.6410   39.9680 C   0  0  0  0  0  0  0  0  0  0  0  0
   48.0940   34.1900   38.6730 C   0  0  0  0  0  0  0  0  0  0  0  0
   47.2980   33.1520   38.3650 N   0  0  0  0  0  0  0  0  0  0  0  0
   46.5400   32.5280   39.3030 C   0  0  0  0  0  0  0  0  0  0  0  0
   46.6130   32.9890   40.5670 N   0  0  0  0  0  0  0  0  0  0  0  0
   47.3860   34.0150   40.9370 C   0  0  0  0  0  0  0  0  0  0  0  0
   48.8680   34.8070   37.6530 N   0  0  0  0  0  0  0  0  0  0  0  0
   45.1750   35.7310   43.0520 C   0  0  0  0  0  0  0  0  0  0  0  0
   45.2660   36.9650   43.1340 O   0  0  0  0  0  0  0  0  0  0  0  0
   44.3090   35.4250   42.0180 O   0  0  0  0  0  0  0  0  0  0  0  0
   43.5880   34.3160   41.7750 C   0  0  0  0  0  0  0  0  0  0  0  0
   42.3990   34.9470   40.9720 C   0  0  0  0  0  0  0  0  0  0  0  0
   42.3300   34.7440   39.5230 C   0  0  0  0  0  0  0  0  0  0  0  0
   40.8570   35.5890   39.0280 S   0  0  0  0  0  0  0  0  0  0  0  0
   40.4850   36.1270   40.7970 C   0  0  0  0  0  0  0  0  0  0  0  0
   41.3490   35.6760   41.3520 N   0  0  0  0  0  0  0  0  0  0  0  0
   48.4914   32.7160   43.6576 H   0  0  0  0  0  0  0  0  0  0  0  0
   45.3093   32.8240   46.4959 H   0  0  0  0  0  0  0  0  0  0  0  0
   48.8910   36.3182   42.6866 H   0  0  0  0  0  0  0  0  0  0  0  0
   45.8914   31.6790   39.0411 H   0  0  0  0  0  0  0  0  0  0  0  0
   48.8150   34.4594   36.6849 H   0  0  0  0  0  0  0  0  0  0  0  0
   49.4819   35.6018   37.8819 H   0  0  0  0  0  0  0  0  0  0  0  0
   44.1486   33.5867   41.1718 H   0  0  0  0  0  0  0  0  0  0  0  0
   43.2966   33.7435   42.6680 H   0  0  0  0  0  0  0  0  0  0  0  0
   43.0356   34.1905   38.8859 H   0  0  0  0  0  0  0  0  0  0  0  0
   39.6449   36.7238   41.1817 H   0  0  0  0  0  0  0  0  0  0  0  0
  1  6  2  0
  2  1  1  0
  2  3  2  0
  3  4  1  0
  4  5  2  0
  6  5  1  0
  7  2  1  0
  8  7  1  0
  9  8  2  0
 10  9  1  0
 10 15  2  0
 11 10  1  0
 12 11  2  0
 12 13  1  0
 13 14  2  0
 14 15  1  0
 15  7  1  0
 16 11  1  0
 17 18  2  0
 17  1  1  0
 19 17  1  0
 20 19  1  0
 21 25  1  0
 21 20  1  0
 22 21  2  0
 23 22  1  0
 23 24  1  0
 24 25  2  0
  3 26  1  0
  5 27  1  0
  8 28  1  0
 13 29  1  0
 16 30  1  0
 16 31  1  0
 20 32  1  0
 20 33  1  0
 22 34  1  0
 24 35  1  0
M  ISO  8  26  14  27  14  28  14  29  14  32   8  33   8  34  14  35  14
M  END
>  <minimizedAffinity>  (1) 
-6.2525053

>  <minimizedRMSD>  (1) 
0.860439718

$$$$
