
     RDKit          3D

 31 34  0  0  0  0  0  0  0  0999 V2000
   43.5410   33.6750   40.6310 C   0  0  0  0  0  0  0  0  0  0  0  0
   44.1950   33.2660   39.4940 N   0  0  0  0  0  0  0  0  0  0  0  0
   43.7840   33.6590   38.2700 C   0  0  0  0  0  0  0  0  0  0  0  0
   42.7080   34.4740   38.0970 N   0  0  0  0  0  0  0  0  0  0  0  0
   42.0460   34.8900   39.2050 C   0  0  0  0  0  0  0  0  0  0  0  0
   40.9370   35.7190   39.1770 C   0  0  0  0  0  0  0  0  0  0  0  0
   40.2890   36.1240   40.3250 C   0  0  0  0  0  0  0  0  0  0  0  0
   40.7440   35.6970   41.5660 C   0  0  0  0  0  0  0  0  0  0  0  0
   41.8420   34.8730   41.6250 C   0  0  0  0  0  0  0  0  0  0  0  0
   42.4580   34.4950   40.4640 C   0  0  0  0  0  0  0  0  0  0  0  0
   44.7900   34.1360   42.6290 C   0  0  0  0  0  0  0  0  0  0  0  0
   44.1390   33.1440   41.8420 C   0  0  0  0  0  0  0  0  0  0  0  0
   44.1790   31.8550   42.3550 C   0  0  0  0  0  0  0  0  0  0  0  0
   44.8020   31.6100   43.5210 N   0  0  0  0  0  0  0  0  0  0  0  0
   45.4040   32.5690   44.2360 C   0  0  0  0  0  0  0  0  0  0  0  0
   45.4120   33.8500   43.8070 N   0  0  0  0  0  0  0  0  0  0  0  0
   46.0190   32.1460   45.4480 N   0  0  0  0  0  0  0  0  0  0  0  0
   46.5590   33.1250   46.1820 N   0  0  0  0  0  0  0  0  0  0  0  0
   47.1060   32.6050   47.2960 C   0  0  0  0  0  0  0  0  0  0  0  0
   46.8740   31.2310   47.2180 C   0  0  0  0  0  0  0  0  0  0  0  0
   46.1880   30.9530   46.0490 C   0  0  0  0  0  0  0  0  0  0  0  0
   44.3358   33.3097   37.3849 H   0  0  0  0  0  0  0  0  0  0  0  0
   40.5595   36.0669   38.2042 H   0  0  0  0  0  0  0  0  0  0  0  0
   39.4122   36.7849   40.2580 H   0  0  0  0  0  0  0  0  0  0  0  0
   40.2332   36.0136   42.4873 H   0  0  0  0  0  0  0  0  0  0  0  0
   42.2215   34.5212   42.5957 H   0  0  0  0  0  0  0  0  0  0  0  0
   44.7908   35.1762   42.2712 H   0  0  0  0  0  0  0  0  0  0  0  0
   43.6995   31.0312   41.8059 H   0  0  0  0  0  0  0  0  0  0  0  0
   47.6262   33.1482   48.0987 H   0  0  0  0  0  0  0  0  0  0  0  0
   47.1866   30.4878   47.9663 H   0  0  0  0  0  0  0  0  0  0  0  0
   45.8529   29.9693   45.6883 H   0  0  0  0  0  0  0  0  0  0  0  0
  1 12  1  0
  2  1  2  0
  3  2  1  0
  4  3  2  0
  4  5  1  0
  5 10  2  0
  6  5  1  0
  6  7  2  0
  7  8  1  0
  8  9  2  0
 10  1  1  0
 10  9  1  0
 11 16  2  0
 12 13  2  0
 12 11  1  0
 13 14  1  0
 14 15  2  0
 15 17  1  0
 16 15  1  0
 17 21  1  0
 17 18  1  0
 18 19  2  0
 20 19  1  0
 21 20  2  0
  3 22  1  0
  6 23  1  0
  7 24  1  0
  8 25  1  0
  9 26  1  0
 11 27  1  0
 13 28  1  0
 19 29  1  0
 20 30  1  0
 21 31  1  0
M  ISO  8  22  14  23  14  24  14  25  14  26  14  27  14  28  14  29  14
M  ISO  2  30  14  31  14
M  END
>  <minimizedAffinity>  (1) 
-5.21519518

>  <minimizedRMSD>  (1) 
5.64933395

$$$$
