
     RDKit          3D

 26 27  0  0  1  0  0  0  0  0999 V2000
   44.5170   35.8110   43.3300 C   0  0  1  0  0  0  0  0  0  0  0  0
   45.3580   34.7900   44.0100 C   0  0  0  0  0  0  0  0  0  0  0  0
   46.4200   34.2400   43.2630 C   0  0  0  0  0  0  0  0  0  0  0  0
   47.2330   33.2820   43.8800 C   0  0  0  0  0  0  0  0  0  0  0  0
   46.9460   32.9360   45.1770 N   0  0  0  0  0  0  0  0  0  0  0  0
   45.9140   33.4850   45.8660 C   0  0  0  0  0  0  0  0  0  0  0  0
   45.1390   34.3950   45.2870 N   0  0  0  0  0  0  0  0  0  0  0  0
   45.1510   37.1850   43.3670 C   0  0  0  0  0  0  0  0  0  0  0  0
   44.2420   35.3970   41.8930 C   0  0  0  0  0  0  0  0  0  0  0  0
   42.8720   34.9190   41.7010 C   0  0  0  0  0  0  0  0  0  0  0  0
   41.6120   35.4450   41.5570 C   0  0  0  0  0  0  0  0  0  0  0  0
   40.6980   34.4240   41.4040 C   0  0  0  0  0  0  0  0  0  0  0  0
   41.4320   33.2940   41.4600 N   0  0  0  0  0  0  0  0  0  0  0  0
   42.7240   33.5630   41.6360 N   0  0  0  0  0  0  0  0  0  0  0  0
   43.5656   35.8714   43.8788 H   0  0  0  0  0  0  0  0  0  0  0  0
   46.6043   34.5547   42.2252 H   0  0  0  0  0  0  0  0  0  0  0  0
   48.0750   32.8212   43.3427 H   0  0  0  0  0  0  0  0  0  0  0  0
   45.7193   33.1765   46.9037 H   0  0  0  0  0  0  0  0  0  0  0  0
   45.2940   37.4948   44.4127 H   0  0  0  0  0  0  0  0  0  0  0  0
   46.1254   37.1530   42.8576 H   0  0  0  0  0  0  0  0  0  0  0  0
   44.4944   37.9056   42.8576 H   0  0  0  0  0  0  0  0  0  0  0  0
   44.4082   36.2647   41.2377 H   0  0  0  0  0  0  0  0  0  0  0  0
   44.9230   34.5689   41.6470 H   0  0  0  0  0  0  0  0  0  0  0  0
   41.3687   36.5177   41.5628 H   0  0  0  0  0  0  0  0  0  0  0  0
   39.6102   34.5118   41.2666 H   0  0  0  0  0  0  0  0  0  0  0  0
   41.0427   32.3440   41.3772 H   0  0  0  0  0  0  0  0  0  0  0  0
  1  8  1  0
  1  2  1  0
  2  7  2  0
  3  4  2  0
  3  2  1  0
  4  5  1  0
  5  6  2  0
  7  6  1  0
  9  1  1  0
 10  9  1  0
 11 10  1  0
 12 13  1  0
 12 11  2  0
 13 14  1  0
 14 10  2  0
  1 15  1  1
  3 16  1  0
  4 17  1  0
  6 18  1  0
  8 19  1  0
  8 20  1  0
  8 21  1  0
  9 22  1  0
  9 23  1  0
 11 24  1  0
 12 25  1  0
 13 26  1  0
M  ISO  8  15   8  16  14  17  14  18  14  19   8  20   8  21   8  22   8
M  ISO  4  23   8  24  14  25  14  26   9
M  END
>  <minimizedAffinity>  (1) 
-4.0860014

>  <minimizedRMSD>  (1) 
1.36447346

$$$$
