
     RDKit          3D

 27 29  0  0  0  0  0  0  0  0999 V2000
   46.7740   33.0620   43.7550 C   0  0  0  0  0  0  0  0  0  0  0  0
   48.1350   33.0670   43.5920 N   0  0  0  0  0  0  0  0  0  0  0  0
   48.7060   33.4310   42.4230 C   0  0  0  0  0  0  0  0  0  0  0  0
   47.9540   33.8140   41.3460 N   0  0  0  0  0  0  0  0  0  0  0  0
   46.6130   33.8170   41.4810 C   0  0  0  0  0  0  0  0  0  0  0  0
   45.7390   34.1780   40.4690 C   0  0  0  0  0  0  0  0  0  0  0  0
   44.3710   34.1650   40.6400 C   0  0  0  0  0  0  0  0  0  0  0  0
   43.8250   33.7810   41.8660 C   0  0  0  0  0  0  0  0  0  0  0  0
   44.6790   33.4210   42.8790 C   0  0  0  0  0  0  0  0  0  0  0  0
   46.0290   33.4460   42.6700 C   0  0  0  0  0  0  0  0  0  0  0  0
   46.4990   31.2470   45.2960 C   0  0  0  0  0  0  0  0  0  0  0  0
   46.3690   32.6410   45.0810 C   0  0  0  0  0  0  0  0  0  0  0  0
   45.8840   33.3870   46.1580 C   0  0  0  0  0  0  0  0  0  0  0  0
   45.5740   32.7600   47.3170 N   0  0  0  0  0  0  0  0  0  0  0  0
   45.7170   31.4220   47.4730 C   0  0  0  0  0  0  0  0  0  0  0  0
   46.1740   30.6630   46.4800 N   0  0  0  0  0  0  0  0  0  0  0  0
   45.3590   30.7900   48.7720 C   0  0  0  0  0  0  0  0  0  0  0  0
   44.4060   31.5410   49.4430 F   0  0  0  0  0  0  0  0  0  0  0  0
   44.9470   29.4960   48.5440 F   0  0  0  0  0  0  0  0  0  0  0  0
   46.4630   30.7530   49.6270 F   0  0  0  0  0  0  0  0  0  0  0  0
   49.8024   33.4192   42.3348 H   0  0  0  0  0  0  0  0  0  0  0  0
   46.1501   34.4854   39.4961 H   0  0  0  0  0  0  0  0  0  0  0  0
   43.7100   34.4571   39.8107 H   0  0  0  0  0  0  0  0  0  0  0  0
   42.7355   33.7671   42.0170 H   0  0  0  0  0  0  0  0  0  0  0  0
   44.2776   33.1134   43.8558 H   0  0  0  0  0  0  0  0  0  0  0  0
   46.8755   30.6158   44.4776 H   0  0  0  0  0  0  0  0  0  0  0  0
   45.7550   34.4754   46.0650 H   0  0  0  0  0  0  0  0  0  0  0  0
  1 12  1  0
  2  1  2  0
  3  2  1  0
  4  5  1  0
  4  3  2  0
  5 10  2  0
  6  7  2  0
  6  5  1  0
  7  8  1  0
  8  9  2  0
 10  9  1  0
 10  1  1  0
 11 16  2  0
 12 11  1  0
 12 13  2  0
 13 14  1  0
 14 15  2  0
 15 17  1  0
 16 15  1  0
 17 18  1  0
 17 20  1  0
 19 17  1  0
  3 21  1  0
  6 22  1  0
  7 23  1  0
  8 24  1  0
  9 25  1  0
 11 26  1  0
 13 27  1  0
M  ISO  7  21  14  22  14  23  14  24  14  25  14  26  14  27  14
M  END
>  <minimizedAffinity>  (1) 
-5.05222416

>  <minimizedRMSD>  (1) 
2.07200027

$$$$
