
     RDKit          3D

 31 34  0  0  0  0  0  0  0  0999 V2000
   46.6290   33.6020   43.5400 C   0  0  0  0  0  0  0  0  0  0  0  0
   47.8660   34.1620   43.3610 N   0  0  0  0  0  0  0  0  0  0  0  0
   48.2170   34.7400   42.1870 C   0  0  0  0  0  0  0  0  0  0  0  0
   47.3580   34.7930   41.1310 N   0  0  0  0  0  0  0  0  0  0  0  0
   46.1320   34.2470   41.2850 C   0  0  0  0  0  0  0  0  0  0  0  0
   45.1640   34.2320   40.2920 C   0  0  0  0  0  0  0  0  0  0  0  0
   43.9220   33.6660   40.4810 C   0  0  0  0  0  0  0  0  0  0  0  0
   43.6040   33.0820   41.7050 C   0  0  0  0  0  0  0  0  0  0  0  0
   44.5480   33.0840   42.7060 C   0  0  0  0  0  0  0  0  0  0  0  0
   45.7620   33.6540   42.4750 C   0  0  0  0  0  0  0  0  0  0  0  0
   47.1000   31.7810   45.0330 C   0  0  0  0  0  0  0  0  0  0  0  0
   46.4550   33.0390   44.8630 C   0  0  0  0  0  0  0  0  0  0  0  0
   45.7790   33.5240   45.9770 C   0  0  0  0  0  0  0  0  0  0  0  0
   45.7730   32.7950   47.1190 N   0  0  0  0  0  0  0  0  0  0  0  0
   46.3910   31.6180   47.2360 C   0  0  0  0  0  0  0  0  0  0  0  0
   47.0650   31.0840   46.2030 N   0  0  0  0  0  0  0  0  0  0  0  0
   46.3110   30.9170   48.5390 C   0  0  0  0  0  0  0  0  0  0  0  0
   45.2940   31.4560   49.5380 C   0  0  0  0  0  0  0  0  0  0  0  0
   45.1380   30.0730   48.8770 C   0  0  0  0  0  0  0  0  0  0  0  0
   49.2210   35.1775   42.0839 H   0  0  0  0  0  0  0  0  0  0  0  0
   45.3961   34.6884   39.3184 H   0  0  0  0  0  0  0  0  0  0  0  0
   43.1827   33.6753   39.6665 H   0  0  0  0  0  0  0  0  0  0  0  0
   42.6158   32.6273   41.8684 H   0  0  0  0  0  0  0  0  0  0  0  0
   44.3239   32.6298   43.6824 H   0  0  0  0  0  0  0  0  0  0  0  0
   47.6507   31.3532   44.1823 H   0  0  0  0  0  0  0  0  0  0  0  0
   45.2544   34.4898   45.9316 H   0  0  0  0  0  0  0  0  0  0  0  0
   47.3929   30.7181   48.5360 H   0  0  0  0  0  0  0  0  0  0  0  0
   45.5514   31.5363   50.6044 H   0  0  0  0  0  0  0  0  0  0  0  0
   44.6781   32.3631   49.6265 H   0  0  0  0  0  0  0  0  0  0  0  0
   44.3474   29.9078   48.1302 H   0  0  0  0  0  0  0  0  0  0  0  0
   45.0032   29.0468   49.2494 H   0  0  0  0  0  0  0  0  0  0  0  0
  1 12  1  0
  2  1  2  0
  3  2  1  0
  4  5  1  0
  4  3  2  0
  5 10  2  0
  6  7  2  0
  6  5  1  0
  7  8  1  0
  8  9  2  0
 10  9  1  0
 10  1  1  0
 11 16  2  0
 12 11  1  0
 12 13  2  0
 13 14  1  0
 14 15  2  0
 15 17  1  0
 16 15  1  0
 17 19  1  0
 17 18  1  0
 19 18  1  0
  3 20  1  0
  6 21  1  0
  7 22  1  0
  8 23  1  0
  9 24  1  0
 11 25  1  0
 13 26  1  0
 17 27  1  0
 18 28  1  0
 18 29  1  0
 19 30  1  0
 19 31  1  0
M  ISO  8  20  14  21  14  22  14  23  14  24  14  25  14  26  14  27  13
M  ISO  4  28  13  29  13  30  13  31  13
M  END
>  <minimizedAffinity>  (1) 
-5.03920078

>  <minimizedRMSD>  (1) 
2.53524685

$$$$
