
     RDKit          3D

 26 26  0  0  1  0  0  0  0  0999 V2000
   44.6090   35.5060   43.4610 C   0  0  1  0  0  0  0  0  0  0  0  0
   45.4090   34.5350   44.2580 C   0  0  0  0  0  0  0  0  0  0  0  0
   46.4550   33.8940   43.5610 C   0  0  0  0  0  0  0  0  0  0  0  0
   47.2570   32.9650   44.2240 C   0  0  0  0  0  0  0  0  0  0  0  0
   46.9570   32.7380   45.5550 N   0  0  0  0  0  0  0  0  0  0  0  0
   45.9500   33.3690   46.1920 C   0  0  0  0  0  0  0  0  0  0  0  0
   45.1930   34.2510   45.5440 N   0  0  0  0  0  0  0  0  0  0  0  0
   45.2220   36.8900   43.4650 C   0  0  0  0  0  0  0  0  0  0  0  0
   44.3930   35.0050   42.0450 C   0  0  0  0  0  0  0  0  0  0  0  0
   43.3770   35.8350   41.3680 N   0  0  0  0  0  0  0  0  0  0  0  0
   42.0160   35.4400   41.4940 C   0  0  0  0  0  0  0  0  0  0  0  0
   41.6830   34.1880   41.6720 N   0  0  0  0  0  0  0  0  0  0  0  0
   40.8870   36.3100   41.4470 N   0  0  0  0  0  0  0  0  0  0  0  0
   42.3590   33.4130   41.7340 H   0  0  0  0  0  0  0  0  0  0  0  0
   43.6257   35.5894   43.9470 H   0  0  0  0  0  0  0  0  0  0  0  0
   46.6369   34.1255   42.5011 H   0  0  0  0  0  0  0  0  0  0  0  0
   48.0815   32.4424   43.7169 H   0  0  0  0  0  0  0  0  0  0  0  0
   45.7532   33.1536   47.2526 H   0  0  0  0  0  0  0  0  0  0  0  0
   45.3694   37.2227   44.5031 H   0  0  0  0  0  0  0  0  0  0  0  0
   46.1922   36.8628   42.9474 H   0  0  0  0  0  0  0  0  0  0  0  0
   44.5498   37.5902   42.9474 H   0  0  0  0  0  0  0  0  0  0  0  0
   45.3405   35.0627   41.4892 H   0  0  0  0  0  0  0  0  0  0  0  0
   44.0448   33.9621   42.0789 H   0  0  0  0  0  0  0  0  0  0  0  0
   43.6434   36.6686   40.8249 H   0  0  0  0  0  0  0  0  0  0  0  0
   39.9366   35.9263   41.5486 H   0  0  0  0  0  0  0  0  0  0  0  0
   41.0220   37.3221   41.3114 H   0  0  0  0  0  0  0  0  0  0  0  0
  1  8  1  0
  1  2  1  0
  2  7  2  0
  3  4  2  0
  3  2  1  0
  4  5  1  0
  5  6  2  0
  7  6  1  0
  9  1  1  0
 10 11  1  0
 10  9  1  0
 11 12  2  0
 12 14  1  0
 13 11  1  0
  1 15  1  1
  3 16  1  0
  4 17  1  0
  6 18  1  0
  8 19  1  0
  8 20  1  0
  8 21  1  0
  9 22  1  0
  9 23  1  0
 10 24  1  0
 13 25  1  0
 13 26  1  0
M  ISO  8  15   8  16  14  17  14  18  14  19   8  20   8  21   8  22   8
M  ISO  1  23   8
M  END
>  <minimizedAffinity>  (1) 
-4.14324188

>  <minimizedRMSD>  (1) 
0.465547353

$$$$
