
     RDKit          3D

 42 44  0  0  1  0  0  0  0  0999 V2000
   44.7980   34.4980   42.4300 C   0  0  2  0  0  0  0  0  0  0  0  0
   46.0590   34.6030   41.7360 C   0  0  0  0  0  0  0  0  0  0  0  0
   46.9830   35.3680   42.4580 C   0  0  0  0  0  0  0  0  0  0  0  0
   48.2730   35.6180   41.9650 C   0  0  0  0  0  0  0  0  0  0  0  0
   48.6720   35.1050   40.7290 C   0  0  0  0  0  0  0  0  0  0  0  0
   47.7930   34.3600   40.0130 C   0  0  0  0  0  0  0  0  0  0  0  0
   48.0690   33.7980   38.7810 C   0  0  0  0  0  0  0  0  0  0  0  0
   47.1550   33.0300   38.0540 C   0  0  0  0  0  0  0  0  0  0  0  0
   45.8940   32.8330   38.6230 C   0  0  0  0  0  0  0  0  0  0  0  0
   45.6000   33.3860   39.8510 C   0  0  0  0  0  0  0  0  0  0  0  0
   46.5530   34.1310   40.5060 C   0  0  0  0  0  0  0  0  0  0  0  0
   43.9410   35.5070   41.8110 N   0  0  0  0  0  0  0  0  0  0  0  0
   42.5480   35.2080   41.6720 C   0  0  0  0  0  0  0  0  0  0  0  0
   42.1490   33.9690   41.5050 N   0  0  0  0  0  0  0  0  0  0  0  0
   41.4610   36.1460   41.6790 N   0  0  0  0  0  0  0  0  0  0  0  0
   42.7520   33.1490   41.4700 H   0  0  0  0  0  0  0  0  0  0  0  0
   44.6620   34.4860   43.9130 C   0  0  1  0  0  0  0  0  0  0  0  0
   45.4860   33.4720   44.5870 C   0  0  0  0  0  0  0  0  0  0  0  0
   45.5270   32.2460   43.9800 C   0  0  0  0  0  0  0  0  0  0  0  0
   46.2270   31.1950   44.5450 C   0  0  0  0  0  0  0  0  0  0  0  0
   46.8800   31.4640   45.7480 N   0  0  0  0  0  0  0  0  0  0  0  0
   46.8330   32.6670   46.3250 C   0  0  0  0  0  0  0  0  0  0  0  0
   46.1460   33.6420   45.7460 N   0  0  0  0  0  0  0  0  0  0  0  0
   44.7990   35.8470   44.5590 C   0  0  0  0  0  0  0  0  0  0  0  0
   44.5235   33.4405   42.3021 H   0  0  0  0  0  0  0  0  0  0  0  0
   46.6911   35.7826   43.4342 H   0  0  0  0  0  0  0  0  0  0  0  0
   48.9755   36.2230   42.5570 H   0  0  0  0  0  0  0  0  0  0  0  0
   49.6828   35.3018   40.3422 H   0  0  0  0  0  0  0  0  0  0  0  0
   49.0660   33.9648   38.3472 H   0  0  0  0  0  0  0  0  0  0  0  0
   47.4170   32.5993   37.0763 H   0  0  0  0  0  0  0  0  0  0  0  0
   45.1370   32.2375   38.0917 H   0  0  0  0  0  0  0  0  0  0  0  0
   44.6096   33.2325   40.3043 H   0  0  0  0  0  0  0  0  0  0  0  0
   44.3270   36.4046   41.4851 H   0  0  0  0  0  0  0  0  0  0  0  0
   40.4925   35.8128   41.5700 H   0  0  0  0  0  0  0  0  0  0  0  0
   41.6497   37.1521   41.7930 H   0  0  0  0  0  0  0  0  0  0  0  0
   43.6171   34.1791   44.0683 H   0  0  0  0  0  0  0  0  0  0  0  0
   44.9956   32.0941   43.0289 H   0  0  0  0  0  0  0  0  0  0  0  0
   46.2665   30.2026   44.0721 H   0  0  0  0  0  0  0  0  0  0  0  0
   47.3601   32.8479   47.2734 H   0  0  0  0  0  0  0  0  0  0  0  0
   44.7878   35.7362   45.6534 H   0  0  0  0  0  0  0  0  0  0  0  0
   45.7480   36.3073   44.2467 H   0  0  0  0  0  0  0  0  0  0  0  0
   43.9608   36.4872   44.2467 H   0  0  0  0  0  0  0  0  0  0  0  0
  1 17  1  0
  2  1  1  0
  2  3  2  0
  4  3  1  0
  5  4  2  0
  6 11  2  0
  6  5  1  0
  7  6  1  0
  8  9  1  0
  8  7  2  0
  9 10  2  0
 10 11  1  0
 11  2  1  0
 12  1  1  0
 13 15  1  0
 13 12  1  0
 14 13  2  0
 16 14  1  0
 17 24  1  0
 17 18  1  0
 18 23  2  0
 19 20  2  0
 19 18  1  0
 20 21  1  0
 21 22  2  0
 23 22  1  0
  1 25  1  6
  3 26  1  0
  4 27  1  0
  5 28  1  0
  7 29  1  0
  8 30  1  0
  9 31  1  0
 10 32  1  0
 12 33  1  0
 15 34  1  0
 15 35  1  0
 17 36  1  6
 19 37  1  0
 20 38  1  0
 22 39  1  0
 24 40  1  0
 24 41  1  0
 24 42  1  0
M  ISO  8  25   8  26  14  27  14  28  14  29  14  30  14  31  14  32  14
M  ISO  7  36   8  37  14  38  14  39  14  40   8  41   8  42   8
M  END
>  <minimizedAffinity>  (1) 
-6.22839832

>  <minimizedRMSD>  (1) 
1.37699831

$$$$
