
     RDKit          3D

 36 37  0  0  1  0  0  0  0  0999 V2000
   44.4430   34.8190   42.2040 C   0  0  2  0  0  0  0  0  0  0  0  0
   45.5610   34.5320   41.3520 N   0  0  0  0  0  0  0  0  0  0  0  0
   46.8480   34.9910   41.4380 C   0  0  0  0  0  0  0  0  0  0  0  0
   47.8570   34.7090   40.5480 C   0  0  0  0  0  0  0  0  0  0  0  0
   47.5720   33.9010   39.4780 C   0  0  0  0  0  0  0  0  0  0  0  0
   48.4820   33.6390   38.6640 O   0  0  0  0  0  0  0  0  0  0  0  0
   46.3450   33.4260   39.3390 N   0  0  0  0  0  0  0  0  0  0  0  0
   45.4110   33.7330   40.2300 C   0  0  0  0  0  0  0  0  0  0  0  0
   44.2520   33.2340   40.0240 O   0  0  0  0  0  0  0  0  0  0  0  0
   43.5110   35.5700   41.3930 N   0  0  0  0  0  0  0  0  0  0  0  0
   42.1030   35.2900   41.4990 C   0  0  0  0  0  0  0  0  0  0  0  0
   41.6910   34.0770   41.7810 N   0  0  0  0  0  0  0  0  0  0  0  0
   41.0200   36.2080   41.3120 N   0  0  0  0  0  0  0  0  0  0  0  0
   42.3150   33.2720   41.9470 H   0  0  0  0  0  0  0  0  0  0  0  0
   44.6350   35.4040   43.5530 C   0  0  1  0  0  0  0  0  0  0  0  0
   45.2870   34.5100   44.5260 C   0  0  0  0  0  0  0  0  0  0  0  0
   46.2570   33.6810   44.0270 C   0  0  0  0  0  0  0  0  0  0  0  0
   46.8850   32.7590   44.8560 C   0  0  0  0  0  0  0  0  0  0  0  0
   46.4700   32.7420   46.1860 N   0  0  0  0  0  0  0  0  0  0  0  0
   45.5230   33.5600   46.6530 C   0  0  0  0  0  0  0  0  0  0  0  0
   44.9550   34.4170   45.8260 N   0  0  0  0  0  0  0  0  0  0  0  0
   45.3320   36.7590   43.5120 C   0  0  0  0  0  0  0  0  0  0  0  0
   44.0797   33.8370   42.5411 H   0  0  0  0  0  0  0  0  0  0  0  0
   47.0954   35.6400   42.2910 H   0  0  0  0  0  0  0  0  0  0  0  0
   48.8669   35.1210   40.6908 H   0  0  0  0  0  0  0  0  0  0  0  0
   46.1150   32.8184   38.5398 H   0  0  0  0  0  0  0  0  0  0  0  0
   43.8505   36.2968   40.7470 H   0  0  0  0  0  0  0  0  0  0  0  0
   40.0474   35.8851   41.4159 H   0  0  0  0  0  0  0  0  0  0  0  0
   41.2136   37.1912   41.0736 H   0  0  0  0  0  0  0  0  0  0  0  0
   43.6092   35.5536   43.9209 H   0  0  0  0  0  0  0  0  0  0  0  0
   46.5399   33.7454   42.9660 H   0  0  0  0  0  0  0  0  0  0  0  0
   47.6662   32.0804   44.4829 H   0  0  0  0  0  0  0  0  0  0  0  0
   45.2215   33.5199   47.7101 H   0  0  0  0  0  0  0  0  0  0  0  0
   45.5124   37.1097   44.5389 H   0  0  0  0  0  0  0  0  0  0  0  0
   46.2920   36.6617   42.9838 H   0  0  0  0  0  0  0  0  0  0  0  0
   44.6946   37.4834   42.9838 H   0  0  0  0  0  0  0  0  0  0  0  0
  1 15  1  0
  2  3  1  0
  2  1  1  0
  4  3  2  0
  5  4  1  0
  6  5  2  0
  7  5  1  0
  7  8  1  0
  8  2  1  0
  9  8  2  0
 10 11  1  0
 10  1  1  0
 11 12  2  0
 12 14  1  0
 13 11  1  0
 15 16  1  0
 16 21  1  0
 17 16  2  0
 17 18  1  0
 18 19  2  0
 19 20  1  0
 21 20  2  0
 22 15  1  0
  1 23  1  1
  3 24  1  0
  4 25  1  0
  7 26  1  0
 10 27  1  0
 13 28  1  0
 13 29  1  0
 15 30  1  1
 17 31  1  0
 18 32  1  0
 20 33  1  0
 22 34  1  0
 22 35  1  0
 22 36  1  0
M  ISO  8  23   8  24  14  25  14  26   9  30   8  31  14  32  14  33  14
M  ISO  3  34   8  35   8  36   8
M  END
>  <minimizedAffinity>  (1) 
-5.42354393

>  <minimizedRMSD>  (1) 
0.629204392

$$$$
