
     RDKit          3D

 36 37  0  0  1  0  0  0  0  0999 V2000
   44.7090   34.5130   42.3780 C   0  0  2  0  0  0  0  0  0  0  0  0
   46.0080   34.6340   41.6990 C   0  0  0  0  0  0  0  0  0  0  0  0
   47.1060   35.3390   42.2460 C   0  0  0  0  0  0  0  0  0  0  0  0
   48.3340   35.4840   41.7110 C   0  0  0  0  0  0  0  0  0  0  0  0
   48.5650   34.8940   40.5110 C   0  0  0  0  0  0  0  0  0  0  0  0
   47.5880   34.1770   39.8650 C   0  0  0  0  0  0  0  0  0  0  0  0
   46.3530   34.0650   40.4640 C   0  0  0  0  0  0  0  0  0  0  0  0
   43.8380   35.4480   41.7050 N   0  0  0  0  0  0  0  0  0  0  0  0
   42.4350   35.1650   41.6290 C   0  0  0  0  0  0  0  0  0  0  0  0
   42.0110   33.9190   41.5770 N   0  0  0  0  0  0  0  0  0  0  0  0
   41.3590   36.1090   41.5880 N   0  0  0  0  0  0  0  0  0  0  0  0
   42.6280   33.0920   41.5880 H   0  0  0  0  0  0  0  0  0  0  0  0
   44.6000   34.5730   43.8560 C   0  0  1  0  0  0  0  0  0  0  0  0
   45.4250   33.5900   44.5760 C   0  0  0  0  0  0  0  0  0  0  0  0
   45.5290   32.3550   43.9950 C   0  0  0  0  0  0  0  0  0  0  0  0
   46.2330   31.3450   44.6300 C   0  0  0  0  0  0  0  0  0  0  0  0
   46.8120   31.6650   45.8590 N   0  0  0  0  0  0  0  0  0  0  0  0
   46.7010   32.8770   46.4070 C   0  0  0  0  0  0  0  0  0  0  0  0
   46.0180   33.8060   45.7650 N   0  0  0  0  0  0  0  0  0  0  0  0
   44.8060   35.9760   44.4110 C   0  0  0  0  0  0  0  0  0  0  0  0
   44.4250   33.4545   42.2834 H   0  0  0  0  0  0  0  0  0  0  0  0
   46.9379   35.8240   43.2189 H   0  0  0  0  0  0  0  0  0  0  0  0
   49.1182   36.0579   42.2265 H   0  0  0  0  0  0  0  0  0  0  0  0
   49.5568   34.9922   40.0454 H   0  0  0  0  0  0  0  0  0  0  0  0
   47.7871   33.7034   38.8923 H   0  0  0  0  0  0  0  0  0  0  0  0
   45.5806   33.4871   39.9354 H   0  0  0  0  0  0  0  0  0  0  0  0
   44.2202   36.3073   41.2850 H   0  0  0  0  0  0  0  0  0  0  0  0
   40.3852   35.7779   41.5332 H   0  0  0  0  0  0  0  0  0  0  0  0
   41.5588   37.1191   41.6133 H   0  0  0  0  0  0  0  0  0  0  0  0
   43.5564   34.2843   44.0496 H   0  0  0  0  0  0  0  0  0  0  0  0
   45.0527   32.1642   43.0220 H   0  0  0  0  0  0  0  0  0  0  0  0
   46.3307   30.3423   44.1883 H   0  0  0  0  0  0  0  0  0  0  0  0
   47.1707   33.0977   47.3769 H   0  0  0  0  0  0  0  0  0  0  0  0
   44.8007   35.9398   45.5104 H   0  0  0  0  0  0  0  0  0  0  0  0
   45.7717   36.3703   44.0618 H   0  0  0  0  0  0  0  0  0  0  0  0
   43.9944   36.6313   44.0618 H   0  0  0  0  0  0  0  0  0  0  0  0
  1 13  1  0
  2  3  2  0
  2  1  1  0
  4  3  1  0
  5  4  2  0
  6  7  2  0
  6  5  1  0
  7  2  1  0
  8  1  1  0
  9  8  1  0
 10 12  1  0
 10  9  2  0
 11  9  1  0
 13 20  1  0
 13 14  1  0
 14 19  1  0
 15 14  2  0
 15 16  1  0
 16 17  2  0
 17 18  1  0
 19 18  2  0
  1 21  1  6
  3 22  1  0
  4 23  1  0
  5 24  1  0
  6 25  1  0
  7 26  1  0
  8 27  1  0
 11 28  1  0
 11 29  1  0
 13 30  1  6
 15 31  1  0
 16 32  1  0
 18 33  1  0
 20 34  1  0
 20 35  1  0
 20 36  1  0
M  ISO  8  21   8  22  14  23  14  24  14  25  14  26  14  30   8  31  14
M  ISO  5  32  14  33  14  34   8  35   8  36   8
M  END
>  <minimizedAffinity>  (1) 
-5.57986879

>  <minimizedRMSD>  (1) 
1.17209065

$$$$
