
     RDKit          3D

 40 42  0  0  1  0  0  0  0  0999 V2000
   44.6050   34.4130   42.2250 C   0  0  2  0  0  0  0  0  0  0  0  0
   45.9300   34.5320   41.5950 C   0  0  0  0  0  0  0  0  0  0  0  0
   46.7990   35.2610   42.3620 N   0  0  0  0  0  0  0  0  0  0  0  0
   48.0710   35.5000   41.9700 C   0  0  0  0  0  0  0  0  0  0  0  0
   48.5700   35.0340   40.7920 N   0  0  0  0  0  0  0  0  0  0  0  0
   47.7480   34.3250   40.0300 C   0  0  0  0  0  0  0  0  0  0  0  0
   48.0950   33.7740   38.7920 C   0  0  0  0  0  0  0  0  0  0  0  0
   47.2010   33.0430   38.0350 C   0  0  0  0  0  0  0  0  0  0  0  0
   45.9100   32.8180   38.4640 C   0  0  0  0  0  0  0  0  0  0  0  0
   45.5130   33.3370   39.6780 C   0  0  0  0  0  0  0  0  0  0  0  0
   46.4460   34.0550   40.3860 C   0  0  0  0  0  0  0  0  0  0  0  0
   43.7630   35.3840   41.5760 N   0  0  0  0  0  0  0  0  0  0  0  0
   42.3460   35.1810   41.5490 C   0  0  0  0  0  0  0  0  0  0  0  0
   41.8490   33.9620   41.5060 N   0  0  0  0  0  0  0  0  0  0  0  0
   41.3140   36.1780   41.5430 N   0  0  0  0  0  0  0  0  0  0  0  0
   42.4280   33.1050   41.4820 H   0  0  0  0  0  0  0  0  0  0  0  0
   44.5470   34.4970   43.7290 C   0  0  1  0  0  0  0  0  0  0  0  0
   45.3950   33.5010   44.3970 C   0  0  0  0  0  0  0  0  0  0  0  0
   45.4370   32.2360   43.8860 C   0  0  0  0  0  0  0  0  0  0  0  0
   46.1630   31.2460   44.5200 C   0  0  0  0  0  0  0  0  0  0  0  0
   46.8380   31.6070   45.6860 N   0  0  0  0  0  0  0  0  0  0  0  0
   46.7880   32.8490   46.1690 C   0  0  0  0  0  0  0  0  0  0  0  0
   46.0770   33.7580   45.5240 N   0  0  0  0  0  0  0  0  0  0  0  0
   44.9200   35.9170   44.1760 C   0  0  0  0  0  0  0  0  0  0  0  0
   44.2530   33.3819   42.0738 H   0  0  0  0  0  0  0  0  0  0  0  0
   48.7259   36.0920   42.6262 H   0  0  0  0  0  0  0  0  0  0  0  0
   49.1144   33.9282   38.4086 H   0  0  0  0  0  0  0  0  0  0  0  0
   47.5259   32.6310   37.0682 H   0  0  0  0  0  0  0  0  0  0  0  0
   45.2093   32.2347   37.8485 H   0  0  0  0  0  0  0  0  0  0  0  0
   44.4941   33.1830   40.0628 H   0  0  0  0  0  0  0  0  0  0  0  0
   44.1766   36.2178   41.1348 H   0  0  0  0  0  0  0  0  0  0  0  0
   40.3240   35.8944   41.5224 H   0  0  0  0  0  0  0  0  0  0  0  0
   41.5632   37.1773   41.5592 H   0  0  0  0  0  0  0  0  0  0  0  0
   43.5147   34.2669   44.0315 H   0  0  0  0  0  0  0  0  0  0  0  0
   44.8882   32.0027   42.9616 H   0  0  0  0  0  0  0  0  0  0  0  0
   46.2066   30.2208   44.1236 H   0  0  0  0  0  0  0  0  0  0  0  0
   47.3296   33.1129   47.0893 H   0  0  0  0  0  0  0  0  0  0  0  0
   44.9324   35.9641   45.2749 H   0  0  0  0  0  0  0  0  0  0  0  0
   45.9162   36.1742   43.7867 H   0  0  0  0  0  0  0  0  0  0  0  0
   44.1788   36.6305   43.7867 H   0  0  0  0  0  0  0  0  0  0  0  0
  1 17  1  0
  2  1  1  0
  2  3  2  0
  4  3  1  0
  5  4  2  0
  6 11  2  0
  6  5  1  0
  7  6  1  0
  8  9  1  0
  8  7  2  0
  9 10  2  0
 10 11  1  0
 11  2  1  0
 12  1  1  0
 13 12  1  0
 14 13  2  0
 15 13  1  0
 16 14  1  0
 17 24  1  0
 17 18  1  0
 18 23  1  0
 19 18  2  0
 19 20  1  0
 20 21  2  0
 21 22  1  0
 23 22  2  0
  1 25  1  1
  4 26  1  0
  7 27  1  0
  8 28  1  0
  9 29  1  0
 10 30  1  0
 12 31  1  0
 15 32  1  0
 15 33  1  0
 17 34  1  1
 19 35  1  0
 20 36  1  0
 22 37  1  0
 24 38  1  0
 24 39  1  0
 24 40  1  0
M  ISO  8  25   8  26  14  27  14  28  14  29  14  30  14  34   8  35  14
M  ISO  5  36  14  37  14  38   8  39   8  40   8
M  END
>  <minimizedAffinity>  (1) 
-5.63189125

>  <minimizedRMSD>  (1) 
1.1051451

$$$$
