
     RDKit          3D

 23 25  0  0  0  0  0  0  0  0999 V2000
   44.6500   36.2720   44.2210 C   0  0  0  0  0  0  0  0  0  0  0  0
   44.8970   35.8500   42.9180 C   0  0  0  0  0  0  0  0  0  0  0  0
   45.3400   34.5460   42.6560 C   0  0  0  0  0  0  0  0  0  0  0  0
   45.4930   33.7800   43.7480 N   0  0  0  0  0  0  0  0  0  0  0  0
   45.2600   34.1730   45.0080 C   0  0  0  0  0  0  0  0  0  0  0  0
   44.8380   35.4250   45.2210 N   0  0  0  0  0  0  0  0  0  0  0  0
   45.6210   34.0400   41.2830 C   0  0  0  0  0  0  0  0  0  0  0  0
   44.6290   33.4940   40.5360 C   0  0  0  0  0  0  0  0  0  0  0  0
   45.5000   33.0580   38.9900 S   0  0  0  0  0  0  0  0  0  0  0  0
   47.1230   33.7310   39.6800 C   0  0  0  0  0  0  0  0  0  0  0  0
   46.8010   34.0920   40.7330 N   0  0  0  0  0  0  0  0  0  0  0  0
   48.3360   33.6460   38.7830 C   0  0  0  0  0  0  0  0  0  0  0  0
   48.3050   34.5010   37.5580 C   0  0  0  0  0  0  0  0  0  0  0  0
   48.0950   33.0160   37.4780 C   0  0  0  0  0  0  0  0  0  0  0  0
   44.3027   37.2970   44.4177 H   0  0  0  0  0  0  0  0  0  0  0  0
   44.7426   36.5489   42.0827 H   0  0  0  0  0  0  0  0  0  0  0  0
   45.4124   33.4810   45.8494 H   0  0  0  0  0  0  0  0  0  0  0  0
   43.5696   33.3503   40.7951 H   0  0  0  0  0  0  0  0  0  0  0  0
   49.0590   33.4999   39.5990 H   0  0  0  0  0  0  0  0  0  0  0  0
   47.4645   35.1890   37.3843 H   0  0  0  0  0  0  0  0  0  0  0  0
   48.9876   35.2240   37.0875 H   0  0  0  0  0  0  0  0  0  0  0  0
   47.0995   32.6145   37.2377 H   0  0  0  0  0  0  0  0  0  0  0  0
   48.5635   32.1957   36.9144 H   0  0  0  0  0  0  0  0  0  0  0  0
  1  6  2  0
  2  1  1  0
  3  2  2  0
  3  4  1  0
  4  5  2  0
  5  6  1  0
  7  3  1  0
  8  7  2  0
  9 10  1  0
  9  8  1  0
 10 11  2  0
 11  7  1  0
 12 10  1  0
 13 12  1  0
 14 13  1  0
 14 12  1  0
  1 15  1  0
  2 16  1  0
  5 17  1  0
  8 18  1  0
 12 19  1  0
 13 20  1  0
 13 21  1  0
 14 22  1  0
 14 23  1  0
M  ISO  8  15  14  16  14  17  14  18  14  19  13  20  13  21  13  22  13
M  ISO  1  23  13
M  END
>  <minimizedAffinity>  (1) 
-3.9322288

>  <minimizedRMSD>  (1) 
2.27429581

$$$$
