
     RDKit          3D

 33 34  0  0  1  0  0  0  0  0999 V2000
   45.5980   34.1410   41.1980 C   0  0  1  0  0  0  0  0  0  0  0  0
   44.4540   34.7580   40.5740 N   0  0  0  0  0  0  0  0  0  0  0  0
   43.2110   34.8040   41.2840 C   0  0  0  0  0  0  0  0  0  0  0  0
   42.8860   33.8360   42.1180 N   0  0  0  0  0  0  0  0  0  0  0  0
   42.1830   35.8030   41.2100 N   0  0  0  0  0  0  0  0  0  0  0  0
   43.4900   33.0190   42.3210 H   0  0  0  0  0  0  0  0  0  0  0  0
   46.3770   33.5550   40.0900 C   0  0  0  0  0  0  0  0  0  0  0  0
   46.9630   32.2670   40.0660 C   0  0  0  0  0  0  0  0  0  0  0  0
   47.5700   32.0490   38.8940 N   0  0  0  0  0  0  0  0  0  0  0  0
   47.4150   33.1340   38.1360 C   0  0  0  0  0  0  0  0  0  0  0  0
   46.7070   34.0070   38.8660 N   0  0  0  0  0  0  0  0  0  0  0  0
   46.2930   35.0340   42.1730 C   0  0  1  0  0  0  0  0  0  0  0  0
   45.9690   34.7510   43.5810 C   0  0  0  0  0  0  0  0  0  0  0  0
   46.6310   33.7140   44.1750 C   0  0  0  0  0  0  0  0  0  0  0  0
   46.3250   33.3500   45.4770 C   0  0  0  0  0  0  0  0  0  0  0  0
   45.3320   34.0910   46.1160 N   0  0  0  0  0  0  0  0  0  0  0  0
   44.7000   35.1010   45.5190 C   0  0  0  0  0  0  0  0  0  0  0  0
   45.0250   35.4090   44.2800 N   0  0  0  0  0  0  0  0  0  0  0  0
   47.8090   35.0190   41.9480 C   0  0  0  0  0  0  0  0  0  0  0  0
   45.3386   33.3242   41.8876 H   0  0  0  0  0  0  0  0  0  0  0  0
   44.5297   35.1608   39.6291 H   0  0  0  0  0  0  0  0  0  0  0  0
   41.3318   35.7094   41.7823 H   0  0  0  0  0  0  0  0  0  0  0  0
   42.2966   36.6135   40.5846 H   0  0  0  0  0  0  0  0  0  0  0  0
   46.9247   31.5456   40.8955 H   0  0  0  0  0  0  0  0  0  0  0  0
   47.7931   33.2835   37.1139 H   0  0  0  0  0  0  0  0  0  0  0  0
   46.4395   34.9400   38.5213 H   0  0  0  0  0  0  0  0  0  0  0  0
   45.9089   36.0455   41.9747 H   0  0  0  0  0  0  0  0  0  0  0  0
   47.4074   33.1675   43.6196 H   0  0  0  0  0  0  0  0  0  0  0  0
   46.8397   32.5185   45.9806 H   0  0  0  0  0  0  0  0  0  0  0  0
   43.9212   35.6671   46.0510 H   0  0  0  0  0  0  0  0  0  0  0  0
   48.3239   35.0139   42.9200 H   0  0  0  0  0  0  0  0  0  0  0  0
   48.0867   34.1181   41.3812 H   0  0  0  0  0  0  0  0  0  0  0  0
   48.1044   35.9143   41.3812 H   0  0  0  0  0  0  0  0  0  0  0  0
  1 12  1  0
  2  1  1  0
  2  3  1  0
  3  4  2  0
  4  6  1  0
  5  3  1  0
  7  1  1  0
  8  7  2  0
  9  8  1  0
 10 11  1  0
 10  9  2  0
 11  7  1  0
 12 13  1  0
 13 14  2  0
 13 18  1  0
 14 15  1  0
 15 16  2  0
 17 16  1  0
 18 17  2  0
 19 12  1  0
  1 20  1  1
  2 21  1  0
  5 22  1  0
  5 23  1  0
  8 24  1  0
 10 25  1  0
 11 26  1  0
 12 27  1  6
 14 28  1  0
 15 29  1  0
 17 30  1  0
 19 31  1  0
 19 32  1  0
 19 33  1  0
M  ISO  8  20   8  24  14  25  14  26   9  27   8  28  14  29  14  30  14
M  ISO  3  31   8  32   8  33   8
M  END
>  <minimizedAffinity>  (1) 
-5.005476

>  <minimizedRMSD>  (1) 
1.99684107

$$$$
