
     RDKit          3D

 34 35  0  0  1  0  0  0  0  0999 V2000
   44.3870   34.8160   42.2960 C   0  0  1  0  0  0  0  0  0  0  0  0
   43.5170   35.4140   41.3350 N   0  0  0  0  0  0  0  0  0  0  0  0
   42.0970   35.2540   41.4530 C   0  0  0  0  0  0  0  0  0  0  0  0
   41.6070   34.1240   41.9320 N   0  0  0  0  0  0  0  0  0  0  0  0
   41.0550   36.1740   41.1010 N   0  0  0  0  0  0  0  0  0  0  0  0
   42.2040   33.3230   42.2220 H   0  0  0  0  0  0  0  0  0  0  0  0
   45.7010   34.6960   41.5950 C   0  0  0  0  0  0  0  0  0  0  0  0
   46.8510   35.2900   42.1390 C   0  0  0  0  0  0  0  0  0  0  0  0
   48.0910   35.1680   41.5640 C   0  0  0  0  0  0  0  0  0  0  0  0
   48.2270   34.4530   40.4300 N   0  0  0  0  0  0  0  0  0  0  0  0
   47.0880   33.8910   39.9300 C   0  0  0  0  0  0  0  0  0  0  0  0
   45.8470   33.9680   40.4380 N   0  0  0  0  0  0  0  0  0  0  0  0
   44.4420   35.5110   43.6220 C   0  0  1  0  0  0  0  0  0  0  0  0
   44.9170   34.6410   44.7080 C   0  0  0  0  0  0  0  0  0  0  0  0
   45.6040   33.4990   44.3920 C   0  0  0  0  0  0  0  0  0  0  0  0
   45.9880   32.6370   45.4060 C   0  0  0  0  0  0  0  0  0  0  0  0
   45.6500   32.9870   46.7040 N   0  0  0  0  0  0  0  0  0  0  0  0
   44.9820   34.1030   46.9920 C   0  0  0  0  0  0  0  0  0  0  0  0
   44.6340   34.8980   46.0000 N   0  0  0  0  0  0  0  0  0  0  0  0
   45.3580   36.7470   43.4870 C   0  0  0  0  0  0  0  0  0  0  0  0
   44.0108   33.8317   42.6115 H   0  0  0  0  0  0  0  0  0  0  0  0
   43.9099   35.9611   40.5558 H   0  0  0  0  0  0  0  0  0  0  0  0
   40.0687   35.9148   41.2455 H   0  0  0  0  0  0  0  0  0  0  0  0
   41.2928   37.0940   40.7036 H   0  0  0  0  0  0  0  0  0  0  0  0
   46.7540   35.8773   43.0641 H   0  0  0  0  0  0  0  0  0  0  0  0
   48.9661   35.6496   42.0247 H   0  0  0  0  0  0  0  0  0  0  0  0
   47.1993   33.3077   39.0041 H   0  0  0  0  0  0  0  0  0  0  0  0
   43.4185   35.8081   43.8942 H   0  0  0  0  0  0  0  0  0  0  0  0
   45.8481   33.2689   43.3444 H   0  0  0  0  0  0  0  0  0  0  0  0
   46.5399   31.7104   45.1896 H   0  0  0  0  0  0  0  0  0  0  0  0
   44.7271   34.3548   48.0320 H   0  0  0  0  0  0  0  0  0  0  0  0
   45.6295   37.1133   44.4881 H   0  0  0  0  0  0  0  0  0  0  0  0
   46.2701   36.4693   42.9384 H   0  0  0  0  0  0  0  0  0  0  0  0
   44.8269   37.5388   42.9384 H   0  0  0  0  0  0  0  0  0  0  0  0
  1 13  1  0
  2  3  1  0
  2  1  1  0
  3  4  2  0
  4  6  1  0
  5  3  1  0
  7  8  2  0
  7  1  1  0
  9  8  1  0
 10  9  2  0
 11 10  1  0
 11 12  2  0
 12  7  1  0
 13 14  1  0
 14 19  1  0
 15 14  2  0
 15 16  1  0
 16 17  2  0
 17 18  1  0
 19 18  2  0
 20 13  1  0
  1 21  1  1
  2 22  1  0
  5 23  1  0
  5 24  1  0
  8 25  1  0
  9 26  1  0
 11 27  1  0
 13 28  1  1
 15 29  1  0
 16 30  1  0
 18 31  1  0
 20 32  1  0
 20 33  1  0
 20 34  1  0
M  ISO  8  21   8  25  14  26  14  27  14  28   8  29  14  30  14  31  14
M  ISO  3  32   8  33   8  34   8
M  END
>  <minimizedAffinity>  (1) 
-4.94030952

>  <minimizedRMSD>  (1) 
0.948891401

$$$$
