
     RDKit          3D

 39 40  0  0  1  0  0  0  0  0999 V2000
   46.3430   35.0490   42.2820 C   0  0  1  0  0  0  0  0  0  0  0  0
   45.9700   34.7420   43.6790 C   0  0  0  0  0  0  0  0  0  0  0  0
   46.6660   33.6790   44.2200 C   0  0  0  0  0  0  0  0  0  0  0  0
   46.3740   33.2540   45.5050 C   0  0  0  0  0  0  0  0  0  0  0  0
   45.3730   33.9480   46.1860 N   0  0  0  0  0  0  0  0  0  0  0  0
   44.7160   34.9770   45.6410 C   0  0  0  0  0  0  0  0  0  0  0  0
   45.0250   35.3480   44.4120 N   0  0  0  0  0  0  0  0  0  0  0  0
   47.8320   35.2100   42.1310 C   0  0  0  0  0  0  0  0  0  0  0  0
   45.6620   34.2480   41.2570 C   0  0  1  0  0  0  0  0  0  0  0  0
   44.5060   34.9740   40.7580 N   0  0  0  0  0  0  0  0  0  0  0  0
   43.2660   34.8290   41.4320 C   0  0  0  0  0  0  0  0  0  0  0  0
   42.9930   33.7650   42.1400 N   0  0  0  0  0  0  0  0  0  0  0  0
   42.2190   35.8030   41.4080 N   0  0  0  0  0  0  0  0  0  0  0  0
   43.6130   32.9720   42.2640 H   0  0  0  0  0  0  0  0  0  0  0  0
   46.2300   33.5470   40.1260 C   0  0  0  0  0  0  0  0  0  0  0  0
   46.8360   32.1890   40.3140 C   0  0  0  0  0  0  0  0  0  0  0  0
   47.5910   32.0140   38.9950 C   0  0  0  0  0  0  0  0  0  0  0  0
   48.0240   33.4360   38.6300 C   0  0  0  0  0  0  0  0  0  0  0  0
   47.5900   34.2770   39.8170 C   0  0  0  0  0  0  0  0  0  0  0  0
   45.9239   36.0408   42.0569 H   0  0  0  0  0  0  0  0  0  0  0  0
   47.4474   33.1732   43.6338 H   0  0  0  0  0  0  0  0  0  0  0  0
   46.9059   32.4093   45.9672 H   0  0  0  0  0  0  0  0  0  0  0  0
   43.9330   35.5044   46.2056 H   0  0  0  0  0  0  0  0  0  0  0  0
   48.2981   35.2604   43.1261 H   0  0  0  0  0  0  0  0  0  0  0  0
   48.2395   34.3507   41.5783 H   0  0  0  0  0  0  0  0  0  0  0  0
   48.0464   36.1366   41.5783 H   0  0  0  0  0  0  0  0  0  0  0  0
   45.5671   33.3762   41.9211 H   0  0  0  0  0  0  0  0  0  0  0  0
   44.5855   35.5823   39.9306 H   0  0  0  0  0  0  0  0  0  0  0  0
   41.3432   35.6305   41.9220 H   0  0  0  0  0  0  0  0  0  0  0  0
   42.3407   36.6770   40.8768 H   0  0  0  0  0  0  0  0  0  0  0  0
   45.3766   33.5058   39.4332 H   0  0  0  0  0  0  0  0  0  0  0  0
   47.5198   32.1687   41.1754 H   0  0  0  0  0  0  0  0  0  0  0  0
   46.1052   31.3942   40.5242 H   0  0  0  0  0  0  0  0  0  0  0  0
   48.4655   31.3601   39.1279 H   0  0  0  0  0  0  0  0  0  0  0  0
   46.9774   31.5425   38.2132 H   0  0  0  0  0  0  0  0  0  0  0  0
   49.1142   33.4883   38.4933 H   0  0  0  0  0  0  0  0  0  0  0  0
   47.5787   33.7813   37.6853 H   0  0  0  0  0  0  0  0  0  0  0  0
   48.2983   34.2087   40.6559 H   0  0  0  0  0  0  0  0  0  0  0  0
   47.5239   35.3606   39.6394 H   0  0  0  0  0  0  0  0  0  0  0  0
  1  2  1  0
  2  3  2  0
  2  7  1  0
  3  4  1  0
  4  5  2  0
  6  5  1  0
  7  6  2  0
  8  1  1  0
  9  1  1  0
 10  9  1  0
 10 11  1  0
 11 12  2  0
 12 14  1  0
 13 11  1  0
 15 16  1  0
 15  9  1  0
 17 16  1  0
 18 17  1  0
 18 19  1  0
 19 15  1  0
  1 20  1  6
  3 21  1  0
  4 22  1  0
  6 23  1  0
  8 24  1  0
  8 25  1  0
  8 26  1  0
  9 27  1  1
 10 28  1  0
 13 29  1  0
 13 30  1  0
 15 31  1  0
 16 32  1  0
 16 33  1  0
 17 34  1  0
 17 35  1  0
 18 36  1  0
 18 37  1  0
 19 38  1  0
 19 39  1  0
M  ISO  8  20   8  21  14  22  14  23  14  24   8  25   8  26   8  27   8
M  ISO  8  31  13  32  13  33  13  34  13  35  13  36  13  37  13  38  13
M  ISO  1  39  13
M  END
>  <minimizedAffinity>  (1) 
-5.1115675

>  <minimizedRMSD>  (1) 
1.89654994

$$$$
