
     RDKit          3D

 34 35  0  0  1  0  0  0  0  0999 V2000
   44.3890   34.8480   42.3080 C   0  0  1  0  0  0  0  0  0  0  0  0
   43.5060   35.4510   41.3580 N   0  0  0  0  0  0  0  0  0  0  0  0
   42.0880   35.2660   41.4740 C   0  0  0  0  0  0  0  0  0  0  0  0
   41.6230   34.1180   41.9310 N   0  0  0  0  0  0  0  0  0  0  0  0
   41.0330   36.1760   41.1380 N   0  0  0  0  0  0  0  0  0  0  0  0
   42.2230   33.3290   42.2270 H   0  0  0  0  0  0  0  0  0  0  0  0
   45.6950   34.7010   41.5900 C   0  0  0  0  0  0  0  0  0  0  0  0
   46.8560   35.2980   42.1280 C   0  0  0  0  0  0  0  0  0  0  0  0
   48.0870   35.1470   41.5250 C   0  0  0  0  0  0  0  0  0  0  0  0
   48.2150   34.4210   40.4000 N   0  0  0  0  0  0  0  0  0  0  0  0
   47.0950   33.8550   39.8970 C   0  0  0  0  0  0  0  0  0  0  0  0
   45.8690   33.9680   40.4390 N   0  0  0  0  0  0  0  0  0  0  0  0
   44.4460   35.5290   43.6320 C   0  0  1  0  0  0  0  0  0  0  0  0
   44.9070   34.6590   44.7240 C   0  0  0  0  0  0  0  0  0  0  0  0
   45.5920   33.5210   44.3970 C   0  0  0  0  0  0  0  0  0  0  0  0
   45.9790   32.6470   45.3970 C   0  0  0  0  0  0  0  0  0  0  0  0
   45.6420   32.9860   46.7040 N   0  0  0  0  0  0  0  0  0  0  0  0
   44.9750   34.1020   47.0010 C   0  0  0  0  0  0  0  0  0  0  0  0
   44.6250   34.9070   46.0170 N   0  0  0  0  0  0  0  0  0  0  0  0
   45.3360   36.7820   43.5250 C   0  0  0  0  0  0  0  0  0  0  0  0
   44.0193   33.8632   42.6298 H   0  0  0  0  0  0  0  0  0  0  0  0
   43.8889   36.0192   40.5890 H   0  0  0  0  0  0  0  0  0  0  0  0
   40.0506   35.8999   41.2780 H   0  0  0  0  0  0  0  0  0  0  0  0
   41.2572   37.1061   40.7565 H   0  0  0  0  0  0  0  0  0  0  0  0
   46.7769   35.8963   43.0477 H   0  0  0  0  0  0  0  0  0  0  0  0
   48.9729   35.6250   41.9684 H   0  0  0  0  0  0  0  0  0  0  0  0
   47.1934   33.2588   38.9778 H   0  0  0  0  0  0  0  0  0  0  0  0
   43.4157   35.8134   43.8921 H   0  0  0  0  0  0  0  0  0  0  0  0
   45.8334   33.3024   43.3463 H   0  0  0  0  0  0  0  0  0  0  0  0
   46.5300   31.7228   45.1687 H   0  0  0  0  0  0  0  0  0  0  0  0
   44.7225   34.3455   48.0436 H   0  0  0  0  0  0  0  0  0  0  0  0
   45.5895   37.1389   44.5341 H   0  0  0  0  0  0  0  0  0  0  0  0
   46.2592   36.5308   42.9822 H   0  0  0  0  0  0  0  0  0  0  0  0
   44.7947   37.5710   42.9822 H   0  0  0  0  0  0  0  0  0  0  0  0
  1 13  1  0
  2  3  1  0
  2  1  1  0
  3  4  2  0
  4  6  1  0
  5  3  1  0
  7  8  2  0
  7  1  1  0
  9  8  1  0
 10  9  2  0
 11 10  1  0
 11 12  2  0
 12  7  1  0
 13 14  1  0
 14 19  1  0
 15 14  2  0
 15 16  1  0
 16 17  2  0
 17 18  1  0
 19 18  2  0
 20 13  1  0
  1 21  1  1
  2 22  1  0
  5 23  1  0
  5 24  1  0
  8 25  1  0
  9 26  1  0
 11 27  1  0
 13 28  1  1
 15 29  1  0
 16 30  1  0
 18 31  1  0
 20 32  1  0
 20 33  1  0
 20 34  1  0
M  ISO  8  21   8  25  14  26  14  27  14  28   8  29  14  30  14  31  14
M  ISO  3  32   8  33   8  34   8
M  END
>  <minimizedAffinity>  (1) 
-4.95738649

>  <minimizedRMSD>  (1) 
0.93973428

$$$$
