
     RDKit          3D

 33 34  0  0  1  0  0  0  0  0999 V2000
   44.5900   34.7700   41.5680 C   0  0  1  0  0  0  0  0  0  0  0  0
   44.8290   34.7600   43.0200 C   0  0  0  0  0  0  0  0  0  0  0  0
   45.6110   33.7560   43.5150 C   0  0  0  0  0  0  0  0  0  0  0  0
   45.8260   33.6530   44.8820 C   0  0  0  0  0  0  0  0  0  0  0  0
   45.2110   34.6140   45.6830 N   0  0  0  0  0  0  0  0  0  0  0  0
   44.4520   35.5880   45.1770 C   0  0  0  0  0  0  0  0  0  0  0  0
   44.2770   35.6440   43.8710 N   0  0  0  0  0  0  0  0  0  0  0  0
   45.7870   34.1900   40.8080 C   0  0  0  0  0  0  0  0  0  0  0  0
   43.3250   34.1050   41.1540 C   0  0  1  0  0  0  0  0  0  0  0  0
   42.7790   33.2130   42.1420 N   0  0  0  0  0  0  0  0  0  0  0  0
   42.8060   31.7990   41.9230 C   0  0  0  0  0  0  0  0  0  0  0  0
   42.6890   31.3280   40.6970 N   0  0  0  0  0  0  0  0  0  0  0  0
   42.9300   30.7520   42.8930 N   0  0  0  0  0  0  0  0  0  0  0  0
   42.5760   31.9270   39.8580 H   0  0  0  0  0  0  0  0  0  0  0  0
   42.2150   34.9200   40.7340 N   0  0  0  0  0  0  0  0  0  0  0  0
   41.2540   35.6190   41.4130 C   0  0  0  0  0  0  0  0  0  0  0  0
   40.3530   36.2120   40.5610 C   0  0  0  0  0  0  0  0  0  0  0  0
   40.7440   35.8870   39.3230 N   0  0  0  0  0  0  0  0  0  0  0  0
   41.8350   35.1310   39.4270 C   0  0  0  0  0  0  0  0  0  0  0  0
   44.4709   35.8296   41.2977 H   0  0  0  0  0  0  0  0  0  0  0  0
   46.0707   33.0285   42.8298 H   0  0  0  0  0  0  0  0  0  0  0  0
   46.4492   32.8547   45.3112 H   0  0  0  0  0  0  0  0  0  0  0  0
   43.9807   36.3309   45.8374 H   0  0  0  0  0  0  0  0  0  0  0  0
   46.5365   33.8268   41.5266 H   0  0  0  0  0  0  0  0  0  0  0  0
   45.4504   33.3551   40.1759 H   0  0  0  0  0  0  0  0  0  0  0  0
   46.2336   34.9716   40.1759 H   0  0  0  0  0  0  0  0  0  0  0  0
   43.7204   33.5875   40.2675 H   0  0  0  0  0  0  0  0  0  0  0  0
   42.3685   33.5922   43.0072 H   0  0  0  0  0  0  0  0  0  0  0  0
   42.9350   29.7675   42.5903 H   0  0  0  0  0  0  0  0  0  0  0  0
   43.0141   30.9838   43.8930 H   0  0  0  0  0  0  0  0  0  0  0  0
   41.2082   35.6969   42.5093 H   0  0  0  0  0  0  0  0  0  0  0  0
   39.4861   36.8288   40.8402 H   0  0  0  0  0  0  0  0  0  0  0  0
   42.3751   34.7190   38.5618 H   0  0  0  0  0  0  0  0  0  0  0  0
  1  2  1  0
  2  3  2  0
  2  7  1  0
  3  4  1  0
  4  5  2  0
  6  5  1  0
  7  6  2  0
  8  1  1  0
  9  1  1  0
  9 10  1  0
 11 10  1  0
 11 13  1  0
 12 11  2  0
 14 12  1  0
 15  9  1  0
 15 16  1  0
 17 16  2  0
 18 19  2  0
 18 17  1  0
 19 15  1  0
  1 20  1  6
  3 21  1  0
  4 22  1  0
  6 23  1  0
  8 24  1  0
  8 25  1  0
  8 26  1  0
  9 27  1  6
 10 28  1  0
 13 29  1  0
 13 30  1  0
 16 31  1  0
 17 32  1  0
 19 33  1  0
M  ISO  8  20   8  21  14  22  14  23  14  24   8  25   8  26   8  27   8
M  ISO  3  31  14  32  14  33  14
M  END
>  <minimizedAffinity>  (1) 
-4.86156034

>  <minimizedRMSD>  (1) 
3.83396959

$$$$
