
     RDKit          3D

 28 28  0  0  1  0  0  0  0  0999 V2000
   44.6180   35.3690   43.4660 C   0  0  1  0  0  0  0  0  0  0  0  0
   45.4030   34.4610   44.3170 C   0  0  0  0  0  0  0  0  0  0  0  0
   46.4370   33.7450   43.7560 C   0  0  0  0  0  0  0  0  0  0  0  0
   47.1490   32.8470   44.5730 C   0  0  0  0  0  0  0  0  0  0  0  0
   46.7610   32.7400   45.8950 N   0  0  0  0  0  0  0  0  0  0  0  0
   45.7520   33.4540   46.4020 C   0  0  0  0  0  0  0  0  0  0  0  0
   45.1000   34.2890   45.6170 N   0  0  0  0  0  0  0  0  0  0  0  0
   45.3650   36.7080   43.2800 C   0  0  0  0  0  0  0  0  0  0  0  0
   44.3840   34.7840   42.0850 C   0  0  1  0  0  0  0  0  0  0  0  0
   43.4460   35.5080   41.2900 N   0  0  0  0  0  0  0  0  0  0  0  0
   42.0400   35.2990   41.5290 C   0  0  0  0  0  0  0  0  0  0  0  0
   41.5970   34.1110   41.9000 N   0  0  0  0  0  0  0  0  0  0  0  0
   40.9570   36.2360   41.4120 N   0  0  0  0  0  0  0  0  0  0  0  0
   42.2120   33.2900   42.0540 H   0  0  0  0  0  0  0  0  0  0  0  0
   45.6180   34.6990   41.3280 N   0  0  0  0  0  0  0  0  0  0  0  0
   43.6528   35.5206   43.9713 H   0  0  0  0  0  0  0  0  0  0  0  0
   46.7000   33.8718   42.6954 H   0  0  0  0  0  0  0  0  0  0  0  0
   47.9837   32.2521   44.1739 H   0  0  0  0  0  0  0  0  0  0  0  0
   45.4691   33.3468   47.4596 H   0  0  0  0  0  0  0  0  0  0  0  0
   45.6032   37.1349   44.2654 H   0  0  0  0  0  0  0  0  0  0  0  0
   46.2963   36.5338   42.7211 H   0  0  0  0  0  0  0  0  0  0  0  0
   44.7276   37.4089   42.7211 H   0  0  0  0  0  0  0  0  0  0  0  0
   43.9680   33.7861   42.2876 H   0  0  0  0  0  0  0  0  0  0  0  0
   43.7658   36.1639   40.5631 H   0  0  0  0  0  0  0  0  0  0  0  0
   39.9931   35.9374   41.6184 H   0  0  0  0  0  0  0  0  0  0  0  0
   41.1446   37.2063   41.1217 H   0  0  0  0  0  0  0  0  0  0  0  0
   46.4159   34.6440   41.9771 H   0  0  0  0  0  0  0  0  0  0  0  0
   45.5995   33.8573   40.7346 H   0  0  0  0  0  0  0  0  0  0  0  0
  1  2  1  0
  2  7  2  0
  3  2  1  0
  3  4  2  0
  4  5  1  0
  5  6  2  0
  7  6  1  0
  8  1  1  0
  9  1  1  0
 10 11  1  0
 10  9  1  0
 11 12  2  0
 12 14  1  0
 13 11  1  0
 15  9  1  0
  1 16  1  1
  3 17  1  0
  4 18  1  0
  6 19  1  0
  8 20  1  0
  8 21  1  0
  8 22  1  0
  9 23  1  1
 10 24  1  0
 13 25  1  0
 13 26  1  0
 15 27  1  0
 15 28  1  0
M  ISO  8  16   8  17  14  18  14  19  14  20   8  21   8  22   8  23   8
M  ISO  2  27   5  28   5
M  END
>  <minimizedAffinity>  (1) 
-4.27830219

>  <minimizedRMSD>  (1) 
0.274110317

$$$$
