
     RDKit          3D

 27 27  0  0  1  0  0  0  0  0999 V2000
   44.6240   35.3750   43.4300 C   0  0  1  0  0  0  0  0  0  0  0  0
   45.4500   34.4560   44.2370 C   0  0  0  0  0  0  0  0  0  0  0  0
   46.4840   33.7640   43.6430 C   0  0  0  0  0  0  0  0  0  0  0  0
   47.2090   32.8640   44.4080 C   0  0  0  0  0  0  0  0  0  0  0  0
   46.8530   32.7060   45.7400 N   0  0  0  0  0  0  0  0  0  0  0  0
   45.8450   33.3930   46.2860 C   0  0  0  0  0  0  0  0  0  0  0  0
   45.1700   34.2450   45.5380 N   0  0  0  0  0  0  0  0  0  0  0  0
   45.3390   36.7380   43.2700 C   0  0  0  0  0  0  0  0  0  0  0  0
   44.3920   34.8310   42.0370 C   0  0  1  0  0  0  0  0  0  0  0  0
   43.4300   35.5490   41.2640 N   0  0  0  0  0  0  0  0  0  0  0  0
   42.0380   35.3040   41.5250 C   0  0  0  0  0  0  0  0  0  0  0  0
   41.6160   34.1100   41.9000 N   0  0  0  0  0  0  0  0  0  0  0  0
   40.9440   36.2220   41.4210 N   0  0  0  0  0  0  0  0  0  0  0  0
   42.2560   33.2950   41.9950 H   0  0  0  0  0  0  0  0  0  0  0  0
   45.5990   34.8470   41.3560 O   0  0  0  0  0  0  0  0  0  0  0  0
   43.6649   35.4869   43.9569 H   0  0  0  0  0  0  0  0  0  0  0  0
   46.7288   33.9231   42.5825 H   0  0  0  0  0  0  0  0  0  0  0  0
   48.0416   32.2921   43.9725 H   0  0  0  0  0  0  0  0  0  0  0  0
   45.5817   33.2501   47.3444 H   0  0  0  0  0  0  0  0  0  0  0  0
   45.5582   37.1559   44.2636 H   0  0  0  0  0  0  0  0  0  0  0  0
   46.2789   36.5963   42.7163 H   0  0  0  0  0  0  0  0  0  0  0  0
   44.6882   37.4307   42.7163 H   0  0  0  0  0  0  0  0  0  0  0  0
   43.9855   33.8172   42.1673 H   0  0  0  0  0  0  0  0  0  0  0  0
   43.7244   36.2217   40.5417 H   0  0  0  0  0  0  0  0  0  0  0  0
   39.9872   35.9100   41.6404 H   0  0  0  0  0  0  0  0  0  0  0  0
   41.1138   37.1944   41.1268 H   0  0  0  0  0  0  0  0  0  0  0  0
   46.3450   34.8569   42.0068 H   0  0  0  0  0  0  0  0  0  0  0  0
  1  2  1  0
  2  7  2  0
  3  2  1  0
  3  4  2  0
  4  5  1  0
  5  6  2  0
  7  6  1  0
  8  1  1  0
  9  1  1  0
 10 11  1  0
 10  9  1  0
 11 12  2  0
 12 14  1  0
 13 11  1  0
 15  9  1  0
  1 16  1  1
  3 17  1  0
  4 18  1  0
  6 19  1  0
  8 20  1  0
  8 21  1  0
  8 22  1  0
  9 23  1  1
 10 24  1  0
 13 25  1  0
 13 26  1  0
 15 27  1  0
M  ISO  8  16   8  17  14  18  14  19  14  20   8  21   8  22   8  23   8
M  ISO  1  27   3
M  END
>  <minimizedAffinity>  (1) 
-4.30806684

>  <minimizedRMSD>  (1) 
0.198165074

$$$$
