
     RDKit          3D

 31 32  0  0  1  0  0  0  0  0999 V2000
   46.2510   33.8850   41.2070 C   0  0  1  0  0  0  0  0  0  0  0  0
   45.1140   34.4980   40.6050 N   0  0  0  0  0  0  0  0  0  0  0  0
   43.8400   34.4560   41.2680 C   0  0  0  0  0  0  0  0  0  0  0  0
   43.5110   33.3930   41.9790 N   0  0  0  0  0  0  0  0  0  0  0  0
   42.7970   35.4390   41.2630 N   0  0  0  0  0  0  0  0  0  0  0  0
   44.1320   32.5650   42.0800 H   0  0  0  0  0  0  0  0  0  0  0  0
   47.1320   33.4700   40.0620 C   0  0  0  0  0  0  0  0  0  0  0  0
   47.8480   34.2670   39.2330 N   0  0  0  0  0  0  0  0  0  0  0  0
   48.4950   33.4980   38.4330 O   0  0  0  0  0  0  0  0  0  0  0  0
   48.2670   32.2300   38.6610 C   0  0  0  0  0  0  0  0  0  0  0  0
   47.3910   32.1680   39.7070 N   0  0  0  0  0  0  0  0  0  0  0  0
   46.9460   34.7200   42.2410 C   0  0  1  0  0  0  0  0  0  0  0  0
   46.1670   34.8590   43.4820 C   0  0  0  0  0  0  0  0  0  0  0  0
   46.3040   33.9220   44.4680 C   0  0  0  0  0  0  0  0  0  0  0  0
   45.5210   34.0020   45.6060 C   0  0  0  0  0  0  0  0  0  0  0  0
   44.6170   35.0580   45.6830 N   0  0  0  0  0  0  0  0  0  0  0  0
   44.4990   35.9620   44.7100 C   0  0  0  0  0  0  0  0  0  0  0  0
   45.2650   35.8470   43.6420 N   0  0  0  0  0  0  0  0  0  0  0  0
   48.3070   34.0470   42.5490 C   0  0  0  0  0  0  0  0  0  0  0  0
   45.9440   33.0180   41.8104 H   0  0  0  0  0  0  0  0  0  0  0  0
   45.2055   34.9711   39.6947 H   0  0  0  0  0  0  0  0  0  0  0  0
   41.9283   35.2708   41.7902 H   0  0  0  0  0  0  0  0  0  0  0  0
   42.9162   36.3136   40.7322 H   0  0  0  0  0  0  0  0  0  0  0  0
   48.6980   31.3777   38.1152 H   0  0  0  0  0  0  0  0  0  0  0  0
   47.0754   35.7366   41.8413 H   0  0  0  0  0  0  0  0  0  0  0  0
   47.0344   33.1070   44.3570 H   0  0  0  0  0  0  0  0  0  0  0  0
   45.6091   33.2625   46.4156 H   0  0  0  0  0  0  0  0  0  0  0  0
   43.7771   36.7875   44.7961 H   0  0  0  0  0  0  0  0  0  0  0  0
   48.4443   33.9791   43.6383 H   0  0  0  0  0  0  0  0  0  0  0  0
   48.3234   33.0369   42.1137 H   0  0  0  0  0  0  0  0  0  0  0  0
   49.1196   34.6471   42.1137 H   0  0  0  0  0  0  0  0  0  0  0  0
  1 12  1  0
  2  1  1  0
  2  3  1  0
  3  4  2  0
  4  6  1  0
  5  3  1  0
  7  1  1  0
  8  7  2  0
  9 10  1  0
  9  8  1  0
 10 11  2  0
 11  7  1  0
 12 19  1  0
 12 13  1  0
 13 18  1  0
 13 14  2  0
 14 15  1  0
 15 16  2  0
 17 16  1  0
 18 17  2  0
  1 20  1  1
  2 21  1  0
  5 22  1  0
  5 23  1  0
 10 24  1  0
 12 25  1  6
 14 26  1  0
 15 27  1  0
 17 28  1  0
 19 29  1  0
 19 30  1  0
 19 31  1  0
M  ISO  8  20   8  24  14  25   8  26  14  27  14  28  14  29   8  30   8
M  ISO  1  31   8
M  END
>  <minimizedAffinity>  (1) 
-4.78691673

>  <minimizedRMSD>  (1) 
2.65707016

$$$$
