
     RDKit          3D

 37 41  0  0  0  0  0  0  0  0999 V2000
   46.4740   32.7040   47.0590 C   0  0  0  0  0  0  0  0  0  0  0  0
   45.5680   32.3780   48.0810 C   0  0  0  0  0  0  0  0  0  0  0  0
   46.3740   31.7660   49.0290 C   0  0  0  0  0  0  0  0  0  0  0  0
   47.6890   31.7470   48.5550 C   0  0  0  0  0  0  0  0  0  0  0  0
   47.6770   32.3180   47.3850 O   0  0  0  0  0  0  0  0  0  0  0  0
   48.7460   31.1780   49.3160 N   0  0  0  0  0  0  0  0  0  0  0  0
   48.8600   29.9100   49.7320 C   0  0  0  0  0  0  0  0  0  0  0  0
   49.9840   29.7090   50.4280 N   0  0  0  0  0  0  0  0  0  0  0  0
   50.6420   30.8570   50.4840 C   0  0  0  0  0  0  0  0  0  0  0  0
   51.8430   31.1840   51.0780 C   0  0  0  0  0  0  0  0  0  0  0  0
   52.2580   32.4590   50.9600 N   0  0  0  0  0  0  0  0  0  0  0  0
   51.5080   33.3760   50.2800 C   0  0  0  0  0  0  0  0  0  0  0  0
   50.3220   33.0280   49.7000 N   0  0  0  0  0  0  0  0  0  0  0  0
   49.8570   31.7790   49.7820 C   0  0  0  0  0  0  0  0  0  0  0  0
   52.5930   30.1970   51.7780 N   0  0  0  0  0  0  0  0  0  0  0  0
   46.7040   33.9880   43.7380 C   0  0  0  0  0  0  0  0  0  0  0  0
   45.5390   34.5950   44.2010 C   0  0  0  0  0  0  0  0  0  0  0  0
   45.3130   34.1830   45.5070 C   0  0  0  0  0  0  0  0  0  0  0  0
   46.3470   33.3380   45.8010 N   0  0  0  0  0  0  0  0  0  0  0  0
   47.1550   33.2260   44.7690 N   0  0  0  0  0  0  0  0  0  0  0  0
   48.6430   35.3010   40.9060 C   0  0  0  0  0  0  0  0  0  0  0  0
   48.0430   34.6360   39.8270 C   0  0  0  0  0  0  0  0  0  0  0  0
   47.0010   33.7620   40.0730 C   0  0  0  0  0  0  0  0  0  0  0  0
   46.6030   33.5870   41.3660 N   0  0  0  0  0  0  0  0  0  0  0  0
   47.1960   34.2360   42.3840 C   0  0  0  0  0  0  0  0  0  0  0  0
   48.2050   35.0880   42.1840 N   0  0  0  0  0  0  0  0  0  0  0  0
   44.4843   32.5628   48.1201 H   0  0  0  0  0  0  0  0  0  0  0  0
   46.0347   31.3622   49.9943 H   0  0  0  0  0  0  0  0  0  0  0  0
   48.1165   29.1261   49.5254 H   0  0  0  0  0  0  0  0  0  0  0  0
   51.8658   34.4130   50.1983 H   0  0  0  0  0  0  0  0  0  0  0  0
   53.4892   30.4481   52.2193 H   0  0  0  0  0  0  0  0  0  0  0  0
   52.2395   29.2318   51.8432 H   0  0  0  0  0  0  0  0  0  0  0  0
   44.9038   35.2859   43.6272 H   0  0  0  0  0  0  0  0  0  0  0  0
   44.4805   34.4739   46.1645 H   0  0  0  0  0  0  0  0  0  0  0  0
   49.4727   35.9997   40.7230 H   0  0  0  0  0  0  0  0  0  0  0  0
   48.3966   34.8075   38.7996 H   0  0  0  0  0  0  0  0  0  0  0  0
   46.5073   33.2235   39.2506 H   0  0  0  0  0  0  0  0  0  0  0  0
  1  5  1  0
  1  2  2  0
  2  3  1  0
  4  3  2  0
  4  6  1  0
  5  4  1  0
  6  7  1  0
  6 14  1  0
  7  8  2  0
  8  9  1  0
  9 10  2  0
 10 15  1  0
 11 10  1  0
 12 11  2  0
 13 14  2  0
 13 12  1  0
 14  9  1  0
 16 17  1  0
 16 20  2  0
 17 18  2  0
 18 19  1  0
 19  1  1  0
 20 19  1  0
 21 26  2  0
 22 23  2  0
 22 21  1  0
 23 24  1  0
 24 25  2  0
 25 16  1  0
 26 25  1  0
  2 27  1  0
  3 28  1  0
  7 29  1  0
 12 30  1  0
 15 31  1  0
 15 32  1  0
 17 33  1  0
 18 34  1  0
 21 35  1  0
 22 36  1  0
 23 37  1  0
M  ISO  8  27  14  28  14  29  14  30  14  33  14  34  14  35  14  36  14
M  ISO  1  37  14
M  END
>  <minimizedAffinity>  (1) 
-6.2722826

>  <minimizedRMSD>  (1) 
0.408386886

$$$$
