
     RDKit          3D

 37 40  0  0  0  0  0  0  0  0999 V2000
   46.3140   32.7070   46.8440 C   0  0  0  0  0  0  0  0  0  0  0  0
   45.4850   32.6270   47.9760 C   0  0  0  0  0  0  0  0  0  0  0  0
   46.1850   31.7790   48.8240 C   0  0  0  0  0  0  0  0  0  0  0  0
   47.3580   31.3930   48.2060 C   0  0  0  0  0  0  0  0  0  0  0  0
   47.3770   31.9740   47.0370 O   0  0  0  0  0  0  0  0  0  0  0  0
   46.6780   34.0600   43.5700 C   0  0  0  0  0  0  0  0  0  0  0  0
   45.5480   34.7220   44.0280 C   0  0  0  0  0  0  0  0  0  0  0  0
   45.2790   34.2830   45.3240 C   0  0  0  0  0  0  0  0  0  0  0  0
   46.2470   33.3770   45.6050 N   0  0  0  0  0  0  0  0  0  0  0  0
   47.0790   33.2330   44.5820 N   0  0  0  0  0  0  0  0  0  0  0  0
   48.6870   35.3970   40.8040 C   0  0  0  0  0  0  0  0  0  0  0  0
   48.1510   34.7250   39.6970 C   0  0  0  0  0  0  0  0  0  0  0  0
   47.1200   33.8380   39.9300 C   0  0  0  0  0  0  0  0  0  0  0  0
   46.6640   33.6430   41.1950 N   0  0  0  0  0  0  0  0  0  0  0  0
   47.2120   34.3120   42.2330 C   0  0  0  0  0  0  0  0  0  0  0  0
   48.2270   35.2000   42.0840 N   0  0  0  0  0  0  0  0  0  0  0  0
   50.2480   28.9170   49.8910 C   0  0  0  0  0  0  0  0  0  0  0  0
   49.9680   30.1330   50.5210 C   0  0  0  0  0  0  0  0  0  0  0  0
   48.9980   30.9280   49.9260 C   0  0  0  0  0  0  0  0  0  0  0  0
   48.3690   30.5010   48.7750 C   0  0  0  0  0  0  0  0  0  0  0  0
   48.6490   29.3000   48.1550 C   0  0  0  0  0  0  0  0  0  0  0  0
   49.6020   28.5070   48.7290 C   0  0  0  0  0  0  0  0  0  0  0  0
   51.4720   27.8990   50.6270 S   0  0  0  0  0  0  0  0  0  0  0  0
   51.1330   27.6650   52.0710 O   0  0  0  0  0  0  0  0  0  0  0  0
   52.8290   28.5460   50.5920 O   0  0  0  0  0  0  0  0  0  0  0  0
   44.5157   33.1176   48.1486 H   0  0  0  0  0  0  0  0  0  0  0  0
   45.8579   31.4653   49.8263 H   0  0  0  0  0  0  0  0  0  0  0  0
   44.9644   35.4656   43.4654 H   0  0  0  0  0  0  0  0  0  0  0  0
   44.4558   34.6040   45.9792 H   0  0  0  0  0  0  0  0  0  0  0  0
   49.5085   36.1104   40.6419 H   0  0  0  0  0  0  0  0  0  0  0  0
   48.5373   34.8980   38.6817 H   0  0  0  0  0  0  0  0  0  0  0  0
   46.6672   33.2886   39.0915 H   0  0  0  0  0  0  0  0  0  0  0  0
   50.4884   30.4433   51.4391 H   0  0  0  0  0  0  0  0  0  0  0  0
   48.7312   31.8975   50.3719 H   0  0  0  0  0  0  0  0  0  0  0  0
   48.1264   28.9940   47.2367 H   0  0  0  0  0  0  0  0  0  0  0  0
   49.8595   27.5407   48.2707 H   0  0  0  0  0  0  0  0  0  0  0  0
   51.5011   26.7280   49.9164 H   0  0  0  0  0  0  0  0  0  0  0  0
  1  5  1  0
  1  2  2  0
  2  3  1  0
  4 20  1  0
  4  3  2  0
  5  4  1  0
  6  7  1  0
  6 10  2  0
  7  8  2  0
  8  9  1  0
  9  1  1  0
 10  9  1  0
 11 16  2  0
 12 13  2  0
 12 11  1  0
 13 14  1  0
 14 15  2  0
 15  6  1  0
 16 15  1  0
 17 18  2  0
 17 23  1  0
 19 18  1  0
 20 19  2  0
 21 22  2  0
 21 20  1  0
 22 17  1  0
 23 24  2  0
 25 23  2  0
  2 26  1  0
  3 27  1  0
  7 28  1  0
  8 29  1  0
 11 30  1  0
 12 31  1  0
 13 32  1  0
 18 33  1  0
 19 34  1  0
 21 35  1  0
 22 36  1  0
 23 37  1  0
M  ISO  8  26  14  27  14  28  14  29  14  30  14  31  14  32  14  33  14
M  ISO  4  34  14  35  14  36  14  37  11
M  END
>  <minimizedAffinity>  (1) 
-6.22590637

>  <minimizedRMSD>  (1) 
1.17370462

$$$$
