
     RDKit          3D

 31 34  0  0  0  0  0  0  0  0999 V2000
   46.6270   34.0800   43.6250 C   0  0  0  0  0  0  0  0  0  0  0  0
   45.4860   34.7270   44.0570 C   0  0  0  0  0  0  0  0  0  0  0  0
   45.2190   34.3350   45.3640 C   0  0  0  0  0  0  0  0  0  0  0  0
   46.2040   33.4620   45.6830 N   0  0  0  0  0  0  0  0  0  0  0  0
   47.0430   33.3030   44.6640 N   0  0  0  0  0  0  0  0  0  0  0  0
   48.6670   35.3520   40.8380 C   0  0  0  0  0  0  0  0  0  0  0  0
   48.1010   34.6550   39.7370 C   0  0  0  0  0  0  0  0  0  0  0  0
   47.0540   33.7850   39.9850 C   0  0  0  0  0  0  0  0  0  0  0  0
   46.5990   33.6230   41.2600 N   0  0  0  0  0  0  0  0  0  0  0  0
   47.1570   34.2960   42.2810 C   0  0  0  0  0  0  0  0  0  0  0  0
   48.1780   35.1530   42.0940 N   0  0  0  0  0  0  0  0  0  0  0  0
   46.2950   32.8260   46.9440 C   0  0  0  0  0  0  0  0  0  0  0  0
   45.3740   32.4670   47.9170 C   0  0  0  0  0  0  0  0  0  0  0  0
   46.1490   31.8730   48.9050 C   0  0  0  0  0  0  0  0  0  0  0  0
   47.4640   31.9000   48.4950 C   0  0  0  0  0  0  0  0  0  0  0  0
   47.4760   32.4700   47.3420 O   0  0  0  0  0  0  0  0  0  0  0  0
   48.5870   31.3700   49.2620 C   0  0  0  0  0  0  0  0  0  0  0  0
   49.7840   32.0030   49.5300 C   0  0  0  0  0  0  0  0  0  0  0  0
   50.5880   31.1810   50.2820 C   0  0  0  0  0  0  0  0  0  0  0  0
   49.8230   30.0350   50.4500 C   0  0  0  0  0  0  0  0  0  0  0  0
   48.6510   30.1790   49.8370 O   0  0  0  0  0  0  0  0  0  0  0  0
   44.8875   35.4352   43.4651 H   0  0  0  0  0  0  0  0  0  0  0  0
   44.3858   34.6637   46.0025 H   0  0  0  0  0  0  0  0  0  0  0  0
   49.4999   36.0522   40.6764 H   0  0  0  0  0  0  0  0  0  0  0  0
   48.4842   34.8027   38.7165 H   0  0  0  0  0  0  0  0  0  0  0  0
   46.5911   33.2270   39.1577 H   0  0  0  0  0  0  0  0  0  0  0  0
   44.2844   32.6175   47.9083 H   0  0  0  0  0  0  0  0  0  0  0  0
   45.7770   31.4535   49.8514 H   0  0  0  0  0  0  0  0  0  0  0  0
   50.0539   33.0144   49.1920 H   0  0  0  0  0  0  0  0  0  0  0  0
   51.6003   31.3835   50.6618 H   0  0  0  0  0  0  0  0  0  0  0  0
   50.1388   29.1407   51.0072 H   0  0  0  0  0  0  0  0  0  0  0  0
  1  2  1  0
  1  5  2  0
  2  3  2  0
  3  4  1  0
  4 12  1  0
  5  4  1  0
  6 11  2  0
  7  8  2  0
  7  6  1  0
  8  9  1  0
  9 10  2  0
 10  1  1  0
 11 10  1  0
 12 16  1  0
 12 13  2  0
 13 14  1  0
 15 14  2  0
 15 17  1  0
 16 15  1  0
 17 18  2  0
 17 21  1  0
 18 19  1  0
 19 20  2  0
 21 20  1  0
  2 22  1  0
  3 23  1  0
  6 24  1  0
  7 25  1  0
  8 26  1  0
 13 27  1  0
 14 28  1  0
 18 29  1  0
 19 30  1  0
 20 31  1  0
M  ISO  8  22  14  23  14  24  14  25  14  26  14  27  14  28  14  29  14
M  ISO  2  30  14  31  14
M  END
>  <minimizedAffinity>  (1) 
-6.12662983

>  <minimizedRMSD>  (1) 
0.198429585

$$$$
