
     RDKit          3D

 33 36  0  0  0  0  0  0  0  0999 V2000
   46.7110   33.9510   43.7110 C   0  0  0  0  0  0  0  0  0  0  0  0
   45.5480   34.5650   44.1820 C   0  0  0  0  0  0  0  0  0  0  0  0
   45.3200   34.1410   45.4880 C   0  0  0  0  0  0  0  0  0  0  0  0
   46.3400   33.2950   45.7660 N   0  0  0  0  0  0  0  0  0  0  0  0
   47.1620   33.1760   44.7280 N   0  0  0  0  0  0  0  0  0  0  0  0
   48.6420   35.3150   40.8990 C   0  0  0  0  0  0  0  0  0  0  0  0
   48.0460   34.6560   39.8010 C   0  0  0  0  0  0  0  0  0  0  0  0
   47.0040   33.7680   40.0510 C   0  0  0  0  0  0  0  0  0  0  0  0
   46.6010   33.5680   41.3350 N   0  0  0  0  0  0  0  0  0  0  0  0
   47.1910   34.2120   42.3680 C   0  0  0  0  0  0  0  0  0  0  0  0
   48.2080   35.0850   42.1780 N   0  0  0  0  0  0  0  0  0  0  0  0
   46.4630   32.6450   47.0220 C   0  0  0  0  0  0  0  0  0  0  0  0
   45.5700   32.1770   47.9740 C   0  0  0  0  0  0  0  0  0  0  0  0
   46.3870   31.6470   48.9620 C   0  0  0  0  0  0  0  0  0  0  0  0
   47.6980   31.8160   48.5730 C   0  0  0  0  0  0  0  0  0  0  0  0
   47.6840   32.4110   47.4170 O   0  0  0  0  0  0  0  0  0  0  0  0
   48.8520   31.3830   49.3570 C   0  0  0  0  0  0  0  0  0  0  0  0
   49.9280   32.2170   49.5780 C   0  0  0  0  0  0  0  0  0  0  0  0
   51.0540   31.8890   50.3050 C   0  0  0  0  0  0  0  0  0  0  0  0
   51.0670   30.5980   50.8440 C   0  0  0  0  0  0  0  0  0  0  0  0
   49.9910   29.7660   50.6230 C   0  0  0  0  0  0  0  0  0  0  0  0
   48.9020   30.1490   49.8930 N   0  0  0  0  0  0  0  0  0  0  0  0
   44.9178   35.2663   43.6155 H   0  0  0  0  0  0  0  0  0  0  0  0
   44.4910   34.4304   46.1506 H   0  0  0  0  0  0  0  0  0  0  0  0
   49.4660   36.0226   40.7248 H   0  0  0  0  0  0  0  0  0  0  0  0
   48.3965   34.8399   38.7747 H   0  0  0  0  0  0  0  0  0  0  0  0
   46.5135   33.2357   39.2227 H   0  0  0  0  0  0  0  0  0  0  0  0
   44.4710   32.2167   47.9511 H   0  0  0  0  0  0  0  0  0  0  0  0
   46.0469   31.1736   49.8949 H   0  0  0  0  0  0  0  0  0  0  0  0
   49.8851   33.2248   49.1394 H   0  0  0  0  0  0  0  0  0  0  0  0
   51.8851   32.5947   50.4509 H   0  0  0  0  0  0  0  0  0  0  0  0
   51.9260   30.2512   51.4372 H   0  0  0  0  0  0  0  0  0  0  0  0
   50.0099   28.7531   51.0516 H   0  0  0  0  0  0  0  0  0  0  0  0
  1  2  1  0
  1  5  2  0
  2  3  2  0
  3  4  1  0
  4 12  1  0
  5  4  1  0
  6 11  2  0
  7  8  2  0
  7  6  1  0
  8  9  1  0
  9 10  2  0
 10  1  1  0
 11 10  1  0
 12 16  1  0
 12 13  2  0
 13 14  1  0
 15 14  2  0
 15 17  1  0
 16 15  1  0
 17 18  2  0
 17 22  1  0
 18 19  1  0
 19 20  2  0
 21 20  1  0
 22 21  2  0
  2 23  1  0
  3 24  1  0
  6 25  1  0
  7 26  1  0
  8 27  1  0
 13 28  1  0
 14 29  1  0
 18 30  1  0
 19 31  1  0
 20 32  1  0
 21 33  1  0
M  ISO  8  23  14  24  14  25  14  26  14  27  14  28  14  29  14  30  14
M  ISO  3  31  14  32  14  33  14
M  END
>  <minimizedAffinity>  (1) 
-6.01100111

>  <minimizedRMSD>  (1) 
0.467614233

$$$$
