
     RDKit          3D

 37 40  0  0  0  0  0  0  0  0999 V2000
   46.5910   34.1250   43.6560 C   0  0  0  0  0  0  0  0  0  0  0  0
   45.4800   34.8350   44.0770 C   0  0  0  0  0  0  0  0  0  0  0  0
   45.1670   34.4270   45.3800 C   0  0  0  0  0  0  0  0  0  0  0  0
   46.1040   33.4860   45.6900 N   0  0  0  0  0  0  0  0  0  0  0  0
   46.9340   33.3110   44.6820 N   0  0  0  0  0  0  0  0  0  0  0  0
   48.7010   35.3650   40.9130 C   0  0  0  0  0  0  0  0  0  0  0  0
   48.1490   34.6760   39.7980 C   0  0  0  0  0  0  0  0  0  0  0  0
   47.0750   33.8100   40.0170 C   0  0  0  0  0  0  0  0  0  0  0  0
   46.6150   33.6750   41.2890 N   0  0  0  0  0  0  0  0  0  0  0  0
   47.1540   34.3370   42.3280 C   0  0  0  0  0  0  0  0  0  0  0  0
   48.1830   35.1750   42.1550 N   0  0  0  0  0  0  0  0  0  0  0  0
   46.1180   32.8330   46.9390 C   0  0  0  0  0  0  0  0  0  0  0  0
   45.1980   32.6430   47.9610 C   0  0  0  0  0  0  0  0  0  0  0  0
   45.8900   31.8970   48.9060 C   0  0  0  0  0  0  0  0  0  0  0  0
   47.1650   31.6750   48.4250 C   0  0  0  0  0  0  0  0  0  0  0  0
   47.2410   32.2500   47.2640 O   0  0  0  0  0  0  0  0  0  0  0  0
   48.1980   30.9030   49.1800 C   0  0  0  0  0  0  0  0  0  0  0  0
   48.7430   29.7760   48.3660 C   0  0  0  0  0  0  0  0  0  0  0  0
   50.0370   29.4460   49.0790 C   0  0  0  0  0  0  0  0  0  0  0  0
   50.4670   30.7130   49.7530 C   0  0  0  0  0  0  0  0  0  0  0  0
   49.4480   31.7720   49.3700 C   0  0  0  0  0  0  0  0  0  0  0  0
   44.9365   35.5897   43.4896 H   0  0  0  0  0  0  0  0  0  0  0  0
   44.3443   34.7873   46.0150 H   0  0  0  0  0  0  0  0  0  0  0  0
   49.5479   36.0523   40.7700 H   0  0  0  0  0  0  0  0  0  0  0  0
   48.5580   34.8215   38.7873 H   0  0  0  0  0  0  0  0  0  0  0  0
   46.6158   33.2546   39.1860 H   0  0  0  0  0  0  0  0  0  0  0  0
   44.1591   33.0012   48.0109 H   0  0  0  0  0  0  0  0  0  0  0  0
   45.4921   31.5447   49.8691 H   0  0  0  0  0  0  0  0  0  0  0  0
   47.7085   30.5740   50.1085 H   0  0  0  0  0  0  0  0  0  0  0  0
   48.9307   30.0904   47.3287 H   0  0  0  0  0  0  0  0  0  0  0  0
   48.0560   28.9203   48.2899 H   0  0  0  0  0  0  0  0  0  0  0  0
   49.8726   28.6530   49.8234 H   0  0  0  0  0  0  0  0  0  0  0  0
   50.8027   29.0801   48.3791 H   0  0  0  0  0  0  0  0  0  0  0  0
   50.4817   30.5768   50.8444 H   0  0  0  0  0  0  0  0  0  0  0  0
   51.4808   31.0051   49.4416 H   0  0  0  0  0  0  0  0  0  0  0  0
   49.7288   32.2880   48.4400 H   0  0  0  0  0  0  0  0  0  0  0  0
   49.3340   32.5842   50.1030 H   0  0  0  0  0  0  0  0  0  0  0  0
  1  2  1  0
  1  5  2  0
  2  3  2  0
  3  4  1  0
  4 12  1  0
  5  4  1  0
  6 11  2  0
  7  8  2  0
  7  6  1  0
  8  9  1  0
  9 10  2  0
 10  1  1  0
 11 10  1  0
 12 16  1  0
 12 13  2  0
 13 14  1  0
 15 14  2  0
 15 17  1  0
 16 15  1  0
 17 21  1  0
 18 19  1  0
 18 17  1  0
 19 20  1  0
 21 20  1  0
  2 22  1  0
  3 23  1  0
  6 24  1  0
  7 25  1  0
  8 26  1  0
 13 27  1  0
 14 28  1  0
 17 29  1  0
 18 30  1  0
 18 31  1  0
 19 32  1  0
 19 33  1  0
 20 34  1  0
 20 35  1  0
 21 36  1  0
 21 37  1  0
M  ISO  8  22  14  23  14  24  14  25  14  26  14  27  14  28  14  29  13
M  ISO  8  30  13  31  13  32  13  33  13  34  13  35  13  36  13  37  13
M  END
>  <minimizedAffinity>  (1) 
-6.10779667

>  <minimizedRMSD>  (1) 
0.825187922

$$$$
