
     RDKit          3D

 40 43  0  0  0  0  0  0  0  0999 V2000
   46.6510   34.0100   43.7510 C   0  0  0  0  0  0  0  0  0  0  0  0
   45.5350   34.7020   44.2160 C   0  0  0  0  0  0  0  0  0  0  0  0
   45.2520   34.2620   45.5050 C   0  0  0  0  0  0  0  0  0  0  0  0
   46.1930   33.3300   45.7820 N   0  0  0  0  0  0  0  0  0  0  0  0
   47.0210   33.1780   44.7500 N   0  0  0  0  0  0  0  0  0  0  0  0
   48.6950   35.3330   40.9990 C   0  0  0  0  0  0  0  0  0  0  0  0
   48.1120   34.6870   39.8800 C   0  0  0  0  0  0  0  0  0  0  0  0
   47.0500   33.8310   40.0980 C   0  0  0  0  0  0  0  0  0  0  0  0
   46.6020   33.6340   41.3700 N   0  0  0  0  0  0  0  0  0  0  0  0
   47.1820   34.2670   42.4140 C   0  0  0  0  0  0  0  0  0  0  0  0
   48.2120   35.1040   42.2490 N   0  0  0  0  0  0  0  0  0  0  0  0
   46.2540   32.6360   47.0110 C   0  0  0  0  0  0  0  0  0  0  0  0
   45.4300   32.5600   48.1270 C   0  0  0  0  0  0  0  0  0  0  0  0
   46.0950   31.6860   48.9770 C   0  0  0  0  0  0  0  0  0  0  0  0
   47.2570   31.2860   48.3550 C   0  0  0  0  0  0  0  0  0  0  0  0
   47.2910   31.8740   47.2130 O   0  0  0  0  0  0  0  0  0  0  0  0
   48.2660   30.3440   48.9280 C   0  0  0  0  0  0  0  0  0  0  0  0
   49.1610   30.9890   49.9370 C   0  0  0  0  0  0  0  0  0  0  0  0
   50.5030   31.3950   49.3820 C   0  0  0  0  0  0  0  0  0  0  0  0
   51.2280   30.2650   48.7090 C   0  0  0  0  0  0  0  0  0  0  0  0
   50.3110   29.1300   48.3570 C   0  0  0  0  0  0  0  0  0  0  0  0
   49.0460   29.7120   47.7770 C   0  0  0  0  0  0  0  0  0  0  0  0
   44.9732   35.4662   43.6588 H   0  0  0  0  0  0  0  0  0  0  0  0
   44.4359   34.6002   46.1604 H   0  0  0  0  0  0  0  0  0  0  0  0
   49.5407   36.0216   40.8555 H   0  0  0  0  0  0  0  0  0  0  0  0
   48.4955   34.8628   38.8641 H   0  0  0  0  0  0  0  0  0  0  0  0
   46.5708   33.3137   39.2537 H   0  0  0  0  0  0  0  0  0  0  0  0
   44.4723   33.0734   48.2978 H   0  0  0  0  0  0  0  0  0  0  0  0
   45.7533   31.3685   49.9732 H   0  0  0  0  0  0  0  0  0  0  0  0
   47.7391   29.5579   49.4887 H   0  0  0  0  0  0  0  0  0  0  0  0
   48.6583   31.8878   50.3236 H   0  0  0  0  0  0  0  0  0  0  0  0
   49.3496   30.2438   50.7239 H   0  0  0  0  0  0  0  0  0  0  0  0
   50.3494   32.1993   48.6475 H   0  0  0  0  0  0  0  0  0  0  0  0
   51.1226   31.7241   50.2292 H   0  0  0  0  0  0  0  0  0  0  0  0
   51.6937   30.6427   47.7868 H   0  0  0  0  0  0  0  0  0  0  0  0
   51.9825   29.8827   49.4122 H   0  0  0  0  0  0  0  0  0  0  0  0
   50.7944   28.4761   47.6162 H   0  0  0  0  0  0  0  0  0  0  0  0
   50.0807   28.5344   49.2527 H   0  0  0  0  0  0  0  0  0  0  0  0
   49.2935   30.4765   47.0258 H   0  0  0  0  0  0  0  0  0  0  0  0
   48.4483   28.9306   47.2850 H   0  0  0  0  0  0  0  0  0  0  0  0
  1  2  1  0
  1  5  2  0
  2  3  2  0
  3  4  1  0
  4 12  1  0
  5  4  1  0
  6 11  2  0
  7  8  2  0
  7  6  1  0
  8  9  1  0
  9 10  2  0
 10  1  1  0
 11 10  1  0
 12 16  1  0
 12 13  2  0
 13 14  1  0
 15 17  1  0
 15 14  2  0
 16 15  1  0
 17 18  1  0
 19 18  1  0
 20 19  1  0
 21 20  1  0
 22 21  1  0
 22 17  1  0
  2 23  1  0
  3 24  1  0
  6 25  1  0
  7 26  1  0
  8 27  1  0
 13 28  1  0
 14 29  1  0
 17 30  1  0
 18 31  1  0
 18 32  1  0
 19 33  1  0
 19 34  1  0
 20 35  1  0
 20 36  1  0
 21 37  1  0
 21 38  1  0
 22 39  1  0
 22 40  1  0
M  ISO  8  23  14  24  14  25  14  26  14  27  14  28  14  29  14  30  13
M  ISO  8  31  13  32  13  33  13  34  13  35  13  36  13  37  13  38  13
M  ISO  2  39  13  40  13
M  END
>  <minimizedAffinity>  (1) 
-5.9665494

>  <minimizedRMSD>  (1) 
1.06625819

$$$$
