
     RDKit          3D

 31 34  0  0  0  0  0  0  0  0999 V2000
   46.6700   34.0180   43.6170 C   0  0  0  0  0  0  0  0  0  0  0  0
   45.5130   34.6220   44.0690 C   0  0  0  0  0  0  0  0  0  0  0  0
   45.2810   34.2140   45.3800 C   0  0  0  0  0  0  0  0  0  0  0  0
   46.3020   33.3780   45.6800 N   0  0  0  0  0  0  0  0  0  0  0  0
   47.1120   33.2630   44.6530 N   0  0  0  0  0  0  0  0  0  0  0  0
   48.6490   35.3430   40.8130 C   0  0  0  0  0  0  0  0  0  0  0  0
   48.0820   34.6500   39.7190 C   0  0  0  0  0  0  0  0  0  0  0  0
   47.0410   33.7520   39.9710 C   0  0  0  0  0  0  0  0  0  0  0  0
   46.6080   33.5720   41.2500 N   0  0  0  0  0  0  0  0  0  0  0  0
   47.1760   34.2530   42.2700 C   0  0  0  0  0  0  0  0  0  0  0  0
   48.1800   35.1280   42.0760 N   0  0  0  0  0  0  0  0  0  0  0  0
   46.4160   32.7520   46.9420 C   0  0  0  0  0  0  0  0  0  0  0  0
   45.5170   32.3020   47.9020 C   0  0  0  0  0  0  0  0  0  0  0  0
   46.3180   31.7830   48.9080 C   0  0  0  0  0  0  0  0  0  0  0  0
   47.6350   31.9370   48.5250 C   0  0  0  0  0  0  0  0  0  0  0  0
   47.6240   32.5150   47.3550 O   0  0  0  0  0  0  0  0  0  0  0  0
   48.7760   31.5290   49.2850 N   0  0  0  0  0  0  0  0  0  0  0  0
   48.6910   30.2980   49.7650 N   0  0  0  0  0  0  0  0  0  0  0  0
   49.8130   29.9970   50.4700 C   0  0  0  0  0  0  0  0  0  0  0  0
   50.6050   31.1380   50.3940 C   0  0  0  0  0  0  0  0  0  0  0  0
   49.9300   32.0640   49.6530 C   0  0  0  0  0  0  0  0  0  0  0  0
   44.8802   35.3106   43.4898 H   0  0  0  0  0  0  0  0  0  0  0  0
   44.4459   34.5084   46.0326 H   0  0  0  0  0  0  0  0  0  0  0  0
   49.4694   36.0565   40.6457 H   0  0  0  0  0  0  0  0  0  0  0  0
   48.4507   34.8133   38.6956 H   0  0  0  0  0  0  0  0  0  0  0  0
   46.5756   33.1957   39.1440 H   0  0  0  0  0  0  0  0  0  0  0  0
   44.4184   32.3473   47.8707 H   0  0  0  0  0  0  0  0  0  0  0  0
   45.9658   31.3287   49.8459 H   0  0  0  0  0  0  0  0  0  0  0  0
   50.0448   29.0550   50.9885 H   0  0  0  0  0  0  0  0  0  0  0  0
   51.5975   31.2702   50.8495 H   0  0  0  0  0  0  0  0  0  0  0  0
   50.2823   33.0761   49.4052 H   0  0  0  0  0  0  0  0  0  0  0  0
  1  2  1  0
  1  5  2  0
  2  3  2  0
  3  4  1  0
  4 12  1  0
  5  4  1  0
  6 11  2  0
  7  8  2  0
  7  6  1  0
  8  9  1  0
  9 10  2  0
 10  1  1  0
 11 10  1  0
 12 16  1  0
 12 13  2  0
 13 14  1  0
 15 14  2  0
 15 17  1  0
 16 15  1  0
 17 21  1  0
 17 18  1  0
 18 19  2  0
 20 19  1  0
 21 20  2  0
  2 22  1  0
  3 23  1  0
  6 24  1  0
  7 25  1  0
  8 26  1  0
 13 27  1  0
 14 28  1  0
 19 29  1  0
 20 30  1  0
 21 31  1  0
M  ISO  8  22  14  23  14  24  14  25  14  26  14  27  14  28  14  29  14
M  ISO  2  30  14  31  14
M  END
>  <minimizedAffinity>  (1) 
-5.93839979

>  <minimizedRMSD>  (1) 
0.398279607

$$$$
