
     RDKit          3D

 30 33  0  0  0  0  0  0  0  0999 V2000
   46.7080   33.9640   43.7170 C   0  0  0  0  0  0  0  0  0  0  0  0
   45.5750   34.6310   44.1900 C   0  0  0  0  0  0  0  0  0  0  0  0
   45.3160   34.1930   45.4870 C   0  0  0  0  0  0  0  0  0  0  0  0
   46.2900   33.2900   45.7490 N   0  0  0  0  0  0  0  0  0  0  0  0
   47.1190   33.1430   44.7160 N   0  0  0  0  0  0  0  0  0  0  0  0
   48.6830   35.3500   40.9420 C   0  0  0  0  0  0  0  0  0  0  0  0
   48.0860   34.6980   39.8270 C   0  0  0  0  0  0  0  0  0  0  0  0
   47.0290   33.8070   40.0500 C   0  0  0  0  0  0  0  0  0  0  0  0
   46.6030   33.5890   41.3320 N   0  0  0  0  0  0  0  0  0  0  0  0
   47.2060   34.2360   42.3690 C   0  0  0  0  0  0  0  0  0  0  0  0
   48.2260   35.1020   42.1990 N   0  0  0  0  0  0  0  0  0  0  0  0
   46.3800   32.6070   46.9900 C   0  0  0  0  0  0  0  0  0  0  0  0
   45.5630   32.4960   48.1040 C   0  0  0  0  0  0  0  0  0  0  0  0
   46.2780   31.6630   48.9530 C   0  0  0  0  0  0  0  0  0  0  0  0
   47.4760   31.3080   48.3350 C   0  0  0  0  0  0  0  0  0  0  0  0
   47.4380   31.9110   47.1940 O   0  0  0  0  0  0  0  0  0  0  0  0
   48.5210   30.4290   48.9140 C   0  0  0  0  0  0  0  0  0  0  0  0
   48.9060   29.1860   48.2490 C   0  0  0  0  0  0  0  0  0  0  0  0
   50.1490   28.5600   49.3400 S   0  0  0  0  0  0  0  0  0  0  0  0
   49.9990   30.0350   50.5500 C   0  0  0  0  0  0  0  0  0  0  0  0
   49.1110   30.7860   50.0600 N   0  0  0  0  0  0  0  0  0  0  0  0
   44.9873   35.3755   43.6329 H   0  0  0  0  0  0  0  0  0  0  0  0
   44.4995   34.5110   46.1520 H   0  0  0  0  0  0  0  0  0  0  0  0
   49.5137   36.0543   40.7875 H   0  0  0  0  0  0  0  0  0  0  0  0
   48.4489   34.8907   38.8066 H   0  0  0  0  0  0  0  0  0  0  0  0
   46.5480   33.2897   39.2067 H   0  0  0  0  0  0  0  0  0  0  0  0
   44.5799   32.9589   48.2749 H   0  0  0  0  0  0  0  0  0  0  0  0
   45.9523   31.3360   49.9515 H   0  0  0  0  0  0  0  0  0  0  0  0
   48.5225   28.7526   47.3135 H   0  0  0  0  0  0  0  0  0  0  0  0
   50.5676   30.1947   51.4780 H   0  0  0  0  0  0  0  0  0  0  0  0
  1  2  1  0
  1  5  2  0
  2  3  2  0
  3  4  1  0
  4 12  1  0
  5  4  1  0
  6 11  2  0
  7  8  2  0
  7  6  1  0
  8  9  1  0
  9 10  2  0
 10  1  1  0
 11 10  1  0
 12 16  1  0
 12 13  2  0
 13 14  1  0
 15 17  1  0
 15 14  2  0
 16 15  1  0
 17 21  1  0
 18 17  2  0
 18 19  1  0
 19 20  1  0
 21 20  2  0
  2 22  1  0
  3 23  1  0
  6 24  1  0
  7 25  1  0
  8 26  1  0
 13 27  1  0
 14 28  1  0
 18 29  1  0
 20 30  1  0
M  ISO  8  22  14  23  14  24  14  25  14  26  14  27  14  28  14  29  14
M  ISO  1  30  14
M  END
>  <minimizedAffinity>  (1) 
-5.76610947

>  <minimizedRMSD>  (1) 
0.804189742

$$$$
