
     RDKit          3D

 27 29  0  0  0  0  0  0  0  0999 V2000
   46.6610   34.0880   43.5360 C   0  0  0  0  0  0  0  0  0  0  0  0
   45.4970   34.7110   43.9620 C   0  0  0  0  0  0  0  0  0  0  0  0
   45.2410   34.3080   45.2720 C   0  0  0  0  0  0  0  0  0  0  0  0
   46.2610   33.4560   45.5930 N   0  0  0  0  0  0  0  0  0  0  0  0
   47.1030   33.3200   44.5730 N   0  0  0  0  0  0  0  0  0  0  0  0
   48.6650   35.3870   40.7350 C   0  0  0  0  0  0  0  0  0  0  0  0
   48.1110   34.6940   39.6490 C   0  0  0  0  0  0  0  0  0  0  0  0
   47.0790   33.8070   39.8860 C   0  0  0  0  0  0  0  0  0  0  0  0
   46.6300   33.6340   41.1650 N   0  0  0  0  0  0  0  0  0  0  0  0
   47.1830   34.3170   42.1970 C   0  0  0  0  0  0  0  0  0  0  0  0
   48.1860   35.1840   41.9990 N   0  0  0  0  0  0  0  0  0  0  0  0
   46.3410   32.8400   46.8530 C   0  0  0  0  0  0  0  0  0  0  0  0
   45.4510   32.5590   47.8780 C   0  0  0  0  0  0  0  0  0  0  0  0
   46.2140   31.9280   48.8430 C   0  0  0  0  0  0  0  0  0  0  0  0
   47.5110   31.8510   48.3750 C   0  0  0  0  0  0  0  0  0  0  0  0
   47.5280   32.4050   47.1960 O   0  0  0  0  0  0  0  0  0  0  0  0
   48.6590   31.2340   49.1200 C   0  0  0  0  0  0  0  0  0  0  0  0
   49.5460   32.1820   49.5670 F   0  0  0  0  0  0  0  0  0  0  0  0
   48.1920   30.4040   50.1070 F   0  0  0  0  0  0  0  0  0  0  0  0
   49.3290   30.4200   48.2010 F   0  0  0  0  0  0  0  0  0  0  0  0
   44.8820   35.4036   43.3686 H   0  0  0  0  0  0  0  0  0  0  0  0
   44.3983   34.6109   45.9109 H   0  0  0  0  0  0  0  0  0  0  0  0
   49.4886   36.0970   40.5689 H   0  0  0  0  0  0  0  0  0  0  0  0
   48.4906   34.8536   38.6290 H   0  0  0  0  0  0  0  0  0  0  0  0
   46.6243   33.2469   39.0556 H   0  0  0  0  0  0  0  0  0  0  0  0
   44.3756   32.7875   47.9153 H   0  0  0  0  0  0  0  0  0  0  0  0
   45.8521   31.5536   49.8119 H   0  0  0  0  0  0  0  0  0  0  0  0
  1  2  1  0
  1  5  2  0
  2  3  2  0
  3  4  1  0
  4 12  1  0
  5  4  1  0
  6 11  2  0
  7  8  2  0
  7  6  1  0
  8  9  1  0
  9 10  2  0
 10  1  1  0
 11 10  1  0
 12 16  1  0
 12 13  2  0
 13 14  1  0
 15 14  2  0
 15 17  1  0
 16 15  1  0
 17 18  1  0
 17 19  1  0
 20 17  1  0
  2 21  1  0
  3 22  1  0
  6 23  1  0
  7 24  1  0
  8 25  1  0
 13 26  1  0
 14 27  1  0
M  ISO  7  21  14  22  14  23  14  24  14  25  14  26  14  27  14
M  END
>  <minimizedAffinity>  (1) 
-5.68533325

>  <minimizedRMSD>  (1) 
0.305468917

$$$$
