
     RDKit          3D

 33 35  0  0  0  0  0  0  0  0999 V2000
   46.6050   34.0430   43.7750 C   0  0  0  0  0  0  0  0  0  0  0  0
   45.5000   34.7360   44.2220 C   0  0  0  0  0  0  0  0  0  0  0  0
   45.2060   34.3170   45.5220 C   0  0  0  0  0  0  0  0  0  0  0  0
   46.1430   33.3870   45.8120 N   0  0  0  0  0  0  0  0  0  0  0  0
   46.9650   33.2250   44.7900 N   0  0  0  0  0  0  0  0  0  0  0  0
   48.6770   35.3040   41.0110 C   0  0  0  0  0  0  0  0  0  0  0  0
   48.1080   34.6670   39.8990 C   0  0  0  0  0  0  0  0  0  0  0  0
   47.0350   33.8270   40.1260 C   0  0  0  0  0  0  0  0  0  0  0  0
   46.5630   33.6380   41.3920 N   0  0  0  0  0  0  0  0  0  0  0  0
   47.1470   34.2760   42.4350 C   0  0  0  0  0  0  0  0  0  0  0  0
   48.2020   35.1130   42.2780 N   0  0  0  0  0  0  0  0  0  0  0  0
   46.2020   32.7060   47.0510 C   0  0  0  0  0  0  0  0  0  0  0  0
   45.2850   32.4720   48.0670 C   0  0  0  0  0  0  0  0  0  0  0  0
   46.0020   31.7330   49.0000 C   0  0  0  0  0  0  0  0  0  0  0  0
   47.2930   31.5600   48.5130 C   0  0  0  0  0  0  0  0  0  0  0  0
   47.3410   32.1530   47.3720 O   0  0  0  0  0  0  0  0  0  0  0  0
   48.3780   30.8220   49.2100 C   0  0  0  0  0  0  0  0  0  0  0  0
   49.5800   31.7310   49.4380 C   0  0  0  0  0  0  0  0  0  0  0  0
   48.8840   29.6620   48.3540 C   0  0  0  0  0  0  0  0  0  0  0  0
   44.9427   35.4927   43.6503 H   0  0  0  0  0  0  0  0  0  0  0  0
   44.3889   34.6680   46.1694 H   0  0  0  0  0  0  0  0  0  0  0  0
   49.5325   35.9785   40.8587 H   0  0  0  0  0  0  0  0  0  0  0  0
   48.5010   34.8299   38.8846 H   0  0  0  0  0  0  0  0  0  0  0  0
   46.5586   33.3077   39.2814 H   0  0  0  0  0  0  0  0  0  0  0  0
   44.2352   32.7962   48.1208 H   0  0  0  0  0  0  0  0  0  0  0  0
   45.6159   31.3515   49.9567 H   0  0  0  0  0  0  0  0  0  0  0  0
   47.9572   30.4614   50.1602 H   0  0  0  0  0  0  0  0  0  0  0  0
   49.7454   31.8561   50.5183 H   0  0  0  0  0  0  0  0  0  0  0  0
   50.4728   31.2801   48.9801 H   0  0  0  0  0  0  0  0  0  0  0  0
   49.3893   32.7128   48.9801 H   0  0  0  0  0  0  0  0  0  0  0  0
   49.2377   28.8510   49.0076 H   0  0  0  0  0  0  0  0  0  0  0  0
   48.0660   29.2908   47.7191 H   0  0  0  0  0  0  0  0  0  0  0  0
   49.7125   30.0090   47.7191 H   0  0  0  0  0  0  0  0  0  0  0  0
  1  2  1  0
  1  5  2  0
  2  3  2  0
  3  4  1  0
  4 12  1  0
  5  4  1  0
  6 11  2  0
  7  8  2  0
  7  6  1  0
  8  9  1  0
  9 10  2  0
 10  1  1  0
 11 10  1  0
 12 16  1  0
 12 13  2  0
 13 14  1  0
 15 14  2  0
 15 17  1  0
 16 15  1  0
 17 18  1  0
 19 17  1  0
  2 20  1  0
  3 21  1  0
  6 22  1  0
  7 23  1  0
  8 24  1  0
 13 25  1  0
 14 26  1  0
 17 27  1  0
 18 28  1  0
 18 29  1  0
 18 30  1  0
 19 31  1  0
 19 32  1  0
 19 33  1  0
M  ISO  8  20  14  21  14  22  14  23  14  24  14  25  14  26  14  27   8
M  ISO  6  28   8  29   8  30   8  31   8  32   8  33   8
M  END
>  <minimizedAffinity>  (1) 
-5.71954107

>  <minimizedRMSD>  (1) 
0.356416404

$$$$
