
     RDKit          3D

 31 34  0  0  0  0  0  0  0  0999 V2000
   46.6720   34.0590   43.6180 C   0  0  0  0  0  0  0  0  0  0  0  0
   45.5440   34.7240   44.0670 C   0  0  0  0  0  0  0  0  0  0  0  0
   45.2520   34.2990   45.3680 C   0  0  0  0  0  0  0  0  0  0  0  0
   46.2130   33.3920   45.6600 N   0  0  0  0  0  0  0  0  0  0  0  0
   47.0470   33.2490   44.6380 N   0  0  0  0  0  0  0  0  0  0  0  0
   48.6950   35.3850   40.8630 C   0  0  0  0  0  0  0  0  0  0  0  0
   48.1440   34.7090   39.7480 C   0  0  0  0  0  0  0  0  0  0  0  0
   47.0910   33.8150   39.9690 C   0  0  0  0  0  0  0  0  0  0  0  0
   46.6450   33.6340   41.2440 N   0  0  0  0  0  0  0  0  0  0  0  0
   47.2060   34.3080   42.2870 C   0  0  0  0  0  0  0  0  0  0  0  0
   48.2160   35.1720   42.1150 N   0  0  0  0  0  0  0  0  0  0  0  0
   46.2840   32.7110   46.8990 C   0  0  0  0  0  0  0  0  0  0  0  0
   45.4410   32.5890   47.9930 C   0  0  0  0  0  0  0  0  0  0  0  0
   46.1520   31.7640   48.8590 C   0  0  0  0  0  0  0  0  0  0  0  0
   47.3540   31.4390   48.2670 C   0  0  0  0  0  0  0  0  0  0  0  0
   47.3490   32.0320   47.1280 O   0  0  0  0  0  0  0  0  0  0  0  0
   48.3720   30.6030   48.8410 C   0  0  0  0  0  0  0  0  0  0  0  0
   49.0920   30.7960   49.9520 C   0  0  0  0  0  0  0  0  0  0  0  0
   50.0260   29.8980   50.3610 C   0  0  0  0  0  0  0  0  0  0  0  0
   50.1490   28.7110   49.4540 C   0  0  0  0  0  0  0  0  0  0  0  0
   48.8660   29.0980   48.1310 S   0  0  0  0  0  0  0  0  0  0  0  0
   44.9698   35.4667   43.4937 H   0  0  0  0  0  0  0  0  0  0  0  0
   44.4235   34.6295   46.0117 H   0  0  0  0  0  0  0  0  0  0  0  0
   49.5233   36.0931   40.7126 H   0  0  0  0  0  0  0  0  0  0  0  0
   48.5337   34.8822   38.7340 H   0  0  0  0  0  0  0  0  0  0  0  0
   46.6325   33.2694   39.1311 H   0  0  0  0  0  0  0  0  0  0  0  0
   44.4475   33.0373   48.1410 H   0  0  0  0  0  0  0  0  0  0  0  0
   45.8121   31.4276   49.8496 H   0  0  0  0  0  0  0  0  0  0  0  0
   48.9236   31.7043   50.5492 H   0  0  0  0  0  0  0  0  0  0  0  0
   50.6327   30.0293   51.2691 H   0  0  0  0  0  0  0  0  0  0  0  0
   50.8155   27.8401   49.5391 H   0  0  0  0  0  0  0  0  0  0  0  0
  1  2  1  0
  1  5  2  0
  2  3  2  0
  3  4  1  0
  4 12  1  0
  5  4  1  0
  6 11  2  0
  7  8  2  0
  7  6  1  0
  8  9  1  0
  9 10  2  0
 10  1  1  0
 11 10  1  0
 12 16  1  0
 12 13  2  0
 13 14  1  0
 15 17  1  0
 15 14  2  0
 16 15  1  0
 17 18  2  0
 18 19  1  0
 20 19  2  0
 21 17  1  0
 21 20  1  0
  2 22  1  0
  3 23  1  0
  6 24  1  0
  7 25  1  0
  8 26  1  0
 13 27  1  0
 14 28  1  0
 18 29  1  0
 19 30  1  0
 20 31  1  0
M  ISO  8  22  14  23  14  24  14  25  14  26  14  27  14  28  14  29  14
M  ISO  2  30  14  31  14
M  END
>  <minimizedAffinity>  (1) 
-5.80536222

>  <minimizedRMSD>  (1) 
0.898060024

$$$$
