
     RDKit          3D

 25 27  0  0  0  0  0  0  0  0999 V2000
   46.5830   34.0980   43.6880 C   0  0  0  0  0  0  0  0  0  0  0  0
   45.4720   34.7830   44.1240 C   0  0  0  0  0  0  0  0  0  0  0  0
   45.1850   34.3700   45.4300 C   0  0  0  0  0  0  0  0  0  0  0  0
   46.1340   33.4520   45.7310 N   0  0  0  0  0  0  0  0  0  0  0  0
   46.9660   33.2800   44.7160 N   0  0  0  0  0  0  0  0  0  0  0  0
   48.6640   35.3350   40.9180 C   0  0  0  0  0  0  0  0  0  0  0  0
   48.1060   34.6620   39.8220 C   0  0  0  0  0  0  0  0  0  0  0  0
   47.0310   33.7990   40.0450 C   0  0  0  0  0  0  0  0  0  0  0  0
   46.5720   33.6490   41.3200 N   0  0  0  0  0  0  0  0  0  0  0  0
   47.1330   34.3130   42.3500 C   0  0  0  0  0  0  0  0  0  0  0  0
   48.1660   35.1480   42.1720 N   0  0  0  0  0  0  0  0  0  0  0  0
   46.1850   32.7920   46.9860 C   0  0  0  0  0  0  0  0  0  0  0  0
   45.2690   32.5330   47.9940 C   0  0  0  0  0  0  0  0  0  0  0  0
   46.0140   31.8350   48.9380 C   0  0  0  0  0  0  0  0  0  0  0  0
   47.3070   31.7060   48.4770 C   0  0  0  0  0  0  0  0  0  0  0  0
   47.3390   32.2910   47.3240 O   0  0  0  0  0  0  0  0  0  0  0  0
   48.6170   30.8740   49.3700 S   0  0  0  0  0  0  0  0  0  0  0  0
   44.9063   35.5278   43.5450 H   0  0  0  0  0  0  0  0  0  0  0  0
   44.3639   34.7170   46.0745 H   0  0  0  0  0  0  0  0  0  0  0  0
   49.5110   36.0197   40.7640 H   0  0  0  0  0  0  0  0  0  0  0  0
   48.5063   34.8105   38.8083 H   0  0  0  0  0  0  0  0  0  0  0  0
   46.5654   33.2529   39.2113 H   0  0  0  0  0  0  0  0  0  0  0  0
   44.2061   32.8130   48.0368 H   0  0  0  0  0  0  0  0  0  0  0  0
   45.6341   31.4491   49.8955 H   0  0  0  0  0  0  0  0  0  0  0  0
   48.4073   31.0072   50.7173 H   0  0  0  0  0  0  0  0  0  0  0  0
  1  2  1  0
  1  5  2  0
  2  3  2  0
  3  4  1  0
  4 12  1  0
  5  4  1  0
  6 11  2  0
  7  8  2  0
  7  6  1  0
  8  9  1  0
  9 10  2  0
 10  1  1  0
 11 10  1  0
 12 16  1  0
 12 13  2  0
 13 14  1  0
 15 14  2  0
 15 17  1  0
 16 15  1  0
  2 18  1  0
  3 19  1  0
  6 20  1  0
  7 21  1  0
  8 22  1  0
 13 23  1  0
 14 24  1  0
 17 25  1  0
M  ISO  8  18  14  19  14  20  14  21  14  22  14  23  14  24  14  25  11
M  END
>  <minimizedAffinity>  (1) 
-5.39287853

>  <minimizedRMSD>  (1) 
0.113308311

$$$$
