
     RDKit          3D

 44 48  0  0  0  0  0  0  0  0999 V2000
   46.3250   32.7590   46.9250 C   0  0  0  0  0  0  0  0  0  0  0  0
   45.4740   32.5790   48.0050 C   0  0  0  0  0  0  0  0  0  0  0  0
   46.2070   31.8310   48.9120 C   0  0  0  0  0  0  0  0  0  0  0  0
   47.4470   31.5890   48.3650 C   0  0  0  0  0  0  0  0  0  0  0  0
   47.4430   32.1650   47.1940 O   0  0  0  0  0  0  0  0  0  0  0  0
   48.4760   30.8530   49.0010 N   0  0  0  0  0  0  0  0  0  0  0  0
   49.3380   31.1140   50.0140 C   0  0  0  0  0  0  0  0  0  0  0  0
   50.1430   30.0410   50.2410 C   0  0  0  0  0  0  0  0  0  0  0  0
   49.7540   29.1060   49.3380 N   0  0  0  0  0  0  0  0  0  0  0  0
   48.7520   29.6040   48.5990 C   0  0  0  0  0  0  0  0  0  0  0  0
   48.2430   28.7200   47.6030 N   0  0  0  0  0  0  0  0  0  0  0  0
   48.7830   27.6420   46.7940 C   0  0  0  0  0  0  0  0  0  0  0  0
   48.2040   27.8810   45.3930 C   0  0  0  0  0  0  0  0  0  0  0  0
   46.8770   27.4600   45.4430 O   0  0  0  0  0  0  0  0  0  0  0  0
   46.1670   27.9260   46.5190 C   0  0  0  0  0  0  0  0  0  0  0  0
   46.8380   28.9700   47.3420 C   0  0  0  0  0  0  0  0  0  0  0  0
   46.6660   34.0470   43.6140 C   0  0  0  0  0  0  0  0  0  0  0  0
   45.5170   34.7030   44.0660 C   0  0  0  0  0  0  0  0  0  0  0  0
   45.2580   34.2870   45.3790 C   0  0  0  0  0  0  0  0  0  0  0  0
   46.2370   33.4090   45.6760 N   0  0  0  0  0  0  0  0  0  0  0  0
   47.0670   33.2590   44.6540 N   0  0  0  0  0  0  0  0  0  0  0  0
   48.6680   35.3510   40.8350 C   0  0  0  0  0  0  0  0  0  0  0  0
   48.1130   34.6870   39.7430 C   0  0  0  0  0  0  0  0  0  0  0  0
   47.0640   33.8020   39.9720 C   0  0  0  0  0  0  0  0  0  0  0  0
   46.6140   33.6150   41.2490 N   0  0  0  0  0  0  0  0  0  0  0  0
   47.1820   34.2820   42.2770 C   0  0  0  0  0  0  0  0  0  0  0  0
   48.1960   35.1440   42.1090 N   0  0  0  0  0  0  0  0  0  0  0  0
   44.4440   32.9486   48.1169 H   0  0  0  0  0  0  0  0  0  0  0  0
   45.8587   31.4897   49.8980 H   0  0  0  0  0  0  0  0  0  0  0  0
   49.3806   32.0600   50.5736 H   0  0  0  0  0  0  0  0  0  0  0  0
   50.9388   29.9508   50.9951 H   0  0  0  0  0  0  0  0  0  0  0  0
   49.8819   27.6857   46.7725 H   0  0  0  0  0  0  0  0  0  0  0  0
   48.5189   26.6506   47.1906 H   0  0  0  0  0  0  0  0  0  0  0  0
   48.7612   27.2972   44.6456 H   0  0  0  0  0  0  0  0  0  0  0  0
   48.2776   28.9399   45.1045 H   0  0  0  0  0  0  0  0  0  0  0  0
   45.2242   28.3492   46.1422 H   0  0  0  0  0  0  0  0  0  0  0  0
   46.0377   27.0608   47.1859 H   0  0  0  0  0  0  0  0  0  0  0  0
   46.7525   29.9312   46.8139 H   0  0  0  0  0  0  0  0  0  0  0  0
   46.3335   28.9696   48.3195 H   0  0  0  0  0  0  0  0  0  0  0  0
   44.9182   35.4232   43.4891 H   0  0  0  0  0  0  0  0  0  0  0  0
   44.4312   34.6087   46.0293 H   0  0  0  0  0  0  0  0  0  0  0  0
   49.4990   36.0536   40.6745 H   0  0  0  0  0  0  0  0  0  0  0  0
   48.4945   34.8581   38.7256 H   0  0  0  0  0  0  0  0  0  0  0  0
   46.6019   33.2588   39.1345 H   0  0  0  0  0  0  0  0  0  0  0  0
  1  5  1  0
  1  2  2  0
  2  3  1  0
  4  3  2  0
  4  6  1  0
  5  4  1  0
  6  7  1  0
  7  8  2  0
  9  8  1  0
 10  6  1  0
 10  9  2  0
 11 10  1  0
 12 11  1  0
 13 14  1  0
 13 12  1  0
 14 15  1  0
 15 16  1  0
 16 11  1  0
 17 18  1  0
 17 21  2  0
 18 19  2  0
 19 20  1  0
 20  1  1  0
 21 20  1  0
 22 27  2  0
 23 24  2  0
 23 22  1  0
 24 25  1  0
 25 26  2  0
 26 17  1  0
 27 26  1  0
  2 28  1  0
  3 29  1  0
  7 30  1  0
  8 31  1  0
 12 32  1  0
 12 33  1  0
 13 34  1  0
 13 35  1  0
 15 36  1  0
 15 37  1  0
 16 38  1  0
 16 39  1  0
 18 40  1  0
 19 41  1  0
 22 42  1  0
 23 43  1  0
 24 44  1  0
M  ISO  8  28  14  29  14  30  14  31  14  32  13  33  13  34  13  35  13
M  ISO  8  36  13  37  13  38  13  39  13  40  14  41  14  42  14  43  14
M  ISO  1  44  14
M  END
>  <minimizedAffinity>  (1) 
-6.24015474

>  <minimizedRMSD>  (1) 
1.56973779

$$$$
