
     RDKit          3D

 42 46  0  0  0  0  0  0  0  0999 V2000
   46.3440   32.7870   46.8980 C   0  0  0  0  0  0  0  0  0  0  0  0
   45.4980   32.5870   47.9680 C   0  0  0  0  0  0  0  0  0  0  0  0
   46.2360   31.8690   48.8870 C   0  0  0  0  0  0  0  0  0  0  0  0
   47.4870   31.6550   48.3610 C   0  0  0  0  0  0  0  0  0  0  0  0
   47.4810   32.2240   47.1860 O   0  0  0  0  0  0  0  0  0  0  0  0
   48.5390   30.9470   49.0150 N   0  0  0  0  0  0  0  0  0  0  0  0
   49.4630   31.2960   49.9470 C   0  0  0  0  0  0  0  0  0  0  0  0
   50.2340   30.1900   50.2090 C   0  0  0  0  0  0  0  0  0  0  0  0
   49.7620   29.1820   49.4280 N   0  0  0  0  0  0  0  0  0  0  0  0
   48.7300   29.6540   48.7050 C   0  0  0  0  0  0  0  0  0  0  0  0
   48.1390   28.6930   47.8390 N   0  0  0  0  0  0  0  0  0  0  0  0
   46.8970   28.9410   47.3830 C   0  0  0  0  0  0  0  0  0  0  0  0
   46.2880   28.0330   46.5400 C   0  0  0  0  0  0  0  0  0  0  0  0
   47.0080   26.8980   46.2070 C   0  0  0  0  0  0  0  0  0  0  0  0
   46.5740   25.8420   45.3580 N   0  0  0  0  0  0  0  0  0  0  0  0
   48.2640   26.6730   46.6820 N   0  0  0  0  0  0  0  0  0  0  0  0
   48.8460   27.5860   47.5160 C   0  0  0  0  0  0  0  0  0  0  0  0
   50.0080   27.3880   47.9620 O   0  0  0  0  0  0  0  0  0  0  0  0
   46.6650   34.0530   43.5860 C   0  0  0  0  0  0  0  0  0  0  0  0
   45.5080   34.6950   44.0330 C   0  0  0  0  0  0  0  0  0  0  0  0
   45.2560   34.2840   45.3470 C   0  0  0  0  0  0  0  0  0  0  0  0
   46.2420   33.4250   45.6540 N   0  0  0  0  0  0  0  0  0  0  0  0
   47.0840   33.2780   44.6220 N   0  0  0  0  0  0  0  0  0  0  0  0
   48.6730   35.3790   40.8110 C   0  0  0  0  0  0  0  0  0  0  0  0
   48.1170   34.6990   39.7160 C   0  0  0  0  0  0  0  0  0  0  0  0
   47.0670   33.8010   39.9440 C   0  0  0  0  0  0  0  0  0  0  0  0
   46.6190   33.6160   41.2270 N   0  0  0  0  0  0  0  0  0  0  0  0
   47.1800   34.2870   42.2410 C   0  0  0  0  0  0  0  0  0  0  0  0
   48.1920   35.1600   42.0640 N   0  0  0  0  0  0  0  0  0  0  0  0
   44.4567   32.9272   48.0680 H   0  0  0  0  0  0  0  0  0  0  0  0
   45.8833   31.5270   49.8712 H   0  0  0  0  0  0  0  0  0  0  0  0
   49.5741   32.2878   50.4096 H   0  0  0  0  0  0  0  0  0  0  0  0
   51.0741   30.1309   50.9166 H   0  0  0  0  0  0  0  0  0  0  0  0
   46.3711   29.8604   47.6799 H   0  0  0  0  0  0  0  0  0  0  0  0
   45.2740   28.2039   46.1495 H   0  0  0  0  0  0  0  0  0  0  0  0
   47.1936   25.0394   45.1765 H   0  0  0  0  0  0  0  0  0  0  0  0
   45.6403   25.8801   44.9249 H   0  0  0  0  0  0  0  0  0  0  0  0
   44.8988   35.4028   43.4517 H   0  0  0  0  0  0  0  0  0  0  0  0
   44.4237   34.5989   45.9937 H   0  0  0  0  0  0  0  0  0  0  0  0
   49.4983   36.0894   40.6554 H   0  0  0  0  0  0  0  0  0  0  0  0
   48.4988   34.8683   38.6984 H   0  0  0  0  0  0  0  0  0  0  0  0
   46.6089   33.2528   39.1076 H   0  0  0  0  0  0  0  0  0  0  0  0
  1  5  1  0
  1  2  2  0
  2  3  1  0
  4  3  2  0
  4  6  1  0
  5  4  1  0
  6  7  1  0
  7  8  2  0
  9  8  1  0
 10  6  1  0
 10  9  2  0
 11 10  1  0
 12 11  1  0
 13 12  2  0
 14 13  1  0
 14 16  2  0
 15 14  1  0
 16 17  1  0
 17 11  1  0
 17 18  2  0
 19 20  1  0
 19 23  2  0
 20 21  2  0
 21 22  1  0
 22  1  1  0
 23 22  1  0
 24 29  2  0
 25 26  2  0
 25 24  1  0
 26 27  1  0
 27 28  2  0
 28 19  1  0
 29 28  1  0
  2 30  1  0
  3 31  1  0
  7 32  1  0
  8 33  1  0
 12 34  1  0
 13 35  1  0
 15 36  1  0
 15 37  1  0
 20 38  1  0
 21 39  1  0
 24 40  1  0
 25 41  1  0
 26 42  1  0
M  ISO  8  30  14  31  14  32  14  33  14  34  14  35  14  38  14  39  14
M  ISO  3  40  14  41  14  42  14
M  END
>  <minimizedAffinity>  (1) 
-6.38343763

>  <minimizedRMSD>  (1) 
1.6353513

$$$$
