
     RDKit          3D

 45 50  0  0  0  0  0  0  0  0999 V2000
   46.3430   32.7660   46.8710 C   0  0  0  0  0  0  0  0  0  0  0  0
   45.5010   32.6360   47.9790 C   0  0  0  0  0  0  0  0  0  0  0  0
   46.2400   31.8730   48.8650 C   0  0  0  0  0  0  0  0  0  0  0  0
   47.4510   31.5670   48.3130 C   0  0  0  0  0  0  0  0  0  0  0  0
   47.4520   32.1260   47.1280 O   0  0  0  0  0  0  0  0  0  0  0  0
   46.6700   34.0560   43.5710 C   0  0  0  0  0  0  0  0  0  0  0  0
   45.5200   34.7080   44.0270 C   0  0  0  0  0  0  0  0  0  0  0  0
   45.2720   34.2820   45.3310 C   0  0  0  0  0  0  0  0  0  0  0  0
   46.2680   33.3960   45.6190 N   0  0  0  0  0  0  0  0  0  0  0  0
   47.0930   33.2540   44.5980 N   0  0  0  0  0  0  0  0  0  0  0  0
   48.6800   35.3940   40.8070 C   0  0  0  0  0  0  0  0  0  0  0  0
   48.1240   34.7130   39.7020 C   0  0  0  0  0  0  0  0  0  0  0  0
   47.0760   33.8150   39.9320 C   0  0  0  0  0  0  0  0  0  0  0  0
   46.6260   33.6230   41.2100 N   0  0  0  0  0  0  0  0  0  0  0  0
   47.1920   34.2990   42.2300 C   0  0  0  0  0  0  0  0  0  0  0  0
   48.2100   35.1830   42.0670 N   0  0  0  0  0  0  0  0  0  0  0  0
   48.4430   30.8010   48.9540 N   0  0  0  0  0  0  0  0  0  0  0  0
   49.3310   31.1120   49.9660 C   0  0  0  0  0  0  0  0  0  0  0  0
   50.1020   29.9930   50.2090 C   0  0  0  0  0  0  0  0  0  0  0  0
   49.6730   29.0460   49.3550 N   0  0  0  0  0  0  0  0  0  0  0  0
   48.6590   29.5340   48.5840 C   0  0  0  0  0  0  0  0  0  0  0  0
   48.2190   28.5250   47.6340 C   0  0  0  0  0  0  0  0  0  0  0  0
   49.1280   27.7240   46.9300 C   0  0  0  0  0  0  0  0  0  0  0  0
   48.5260   26.8230   46.1120 N   0  0  0  0  0  0  0  0  0  0  0  0
   47.2070   27.0250   46.2740 C   0  0  0  0  0  0  0  0  0  0  0  0
   46.1220   26.3870   45.7080 C   0  0  0  0  0  0  0  0  0  0  0  0
   44.8620   26.8040   46.0860 C   0  0  0  0  0  0  0  0  0  0  0  0
   44.6490   27.8180   46.9980 C   0  0  0  0  0  0  0  0  0  0  0  0
   45.7570   28.4310   47.5410 C   0  0  0  0  0  0  0  0  0  0  0  0
   47.0160   28.0390   47.1830 C   0  0  0  0  0  0  0  0  0  0  0  0
   44.4887   33.0444   48.1146 H   0  0  0  0  0  0  0  0  0  0  0  0
   45.9029   31.5598   49.8641 H   0  0  0  0  0  0  0  0  0  0  0  0
   44.9170   35.4301   43.4569 H   0  0  0  0  0  0  0  0  0  0  0  0
   44.4474   34.5944   45.9886 H   0  0  0  0  0  0  0  0  0  0  0  0
   49.5042   36.1048   40.6474 H   0  0  0  0  0  0  0  0  0  0  0  0
   48.5057   34.8844   38.6847 H   0  0  0  0  0  0  0  0  0  0  0  0
   46.6184   33.2688   39.0940 H   0  0  0  0  0  0  0  0  0  0  0  0
   49.4095   32.0786   50.4852 H   0  0  0  0  0  0  0  0  0  0  0  0
   50.9067   29.8951   50.9526 H   0  0  0  0  0  0  0  0  0  0  0  0
   50.2196   27.8159   47.0300 H   0  0  0  0  0  0  0  0  0  0  0  0
   48.9822   26.1326   45.4987 H   0  0  0  0  0  0  0  0  0  0  0  0
   46.2570   25.5735   44.9800 H   0  0  0  0  0  0  0  0  0  0  0  0
   43.9882   26.3060   45.6405 H   0  0  0  0  0  0  0  0  0  0  0  0
   43.6315   28.1255   47.2810 H   0  0  0  0  0  0  0  0  0  0  0  0
   45.6267   29.2443   48.2701 H   0  0  0  0  0  0  0  0  0  0  0  0
  1  5  1  0
  1  2  2  0
  2  3  1  0
  4  3  2  0
  4 17  1  0
  5  4  1  0
  6  7  1  0
  6 10  2  0
  7  8  2  0
  8  9  1  0
  9  1  1  0
 10  9  1  0
 11 16  2  0
 12 13  2  0
 12 11  1  0
 13 14  1  0
 14 15  2  0
 15  6  1  0
 16 15  1  0
 17 18  1  0
 18 19  2  0
 20 19  1  0
 21 17  1  0
 21 20  2  0
 22 21  1  0
 23 22  2  0
 24 25  1  0
 24 23  1  0
 25 30  2  0
 26 27  2  0
 26 25  1  0
 27 28  1  0
 28 29  2  0
 30 29  1  0
 30 22  1  0
  2 31  1  0
  3 32  1  0
  7 33  1  0
  8 34  1  0
 11 35  1  0
 12 36  1  0
 13 37  1  0
 18 38  1  0
 19 39  1  0
 23 40  1  0
 24 41  1  0
 26 42  1  0
 27 43  1  0
 28 44  1  0
 29 45  1  0
M  ISO  8  31  14  32  14  33  14  34  14  35  14  36  14  37  14  38  14
M  ISO  7  39  14  40  14  41   9  42  14  43  14  44  14  45  14
M  END
>  <minimizedAffinity>  (1) 
-6.33992863

>  <minimizedRMSD>  (1) 
1.80376148

$$$$
