
     RDKit          3D

 37 41  0  0  0  0  0  0  0  0999 V2000
   46.3430   32.7720   46.9150 C   0  0  0  0  0  0  0  0  0  0  0  0
   45.5010   32.5980   47.9940 C   0  0  0  0  0  0  0  0  0  0  0  0
   46.2400   31.8540   48.8910 C   0  0  0  0  0  0  0  0  0  0  0  0
   47.4900   31.6040   48.3380 C   0  0  0  0  0  0  0  0  0  0  0  0
   47.4620   32.1800   47.1770 O   0  0  0  0  0  0  0  0  0  0  0  0
   48.5080   30.8680   48.9860 N   0  0  0  0  0  0  0  0  0  0  0  0
   49.3920   31.1930   49.9800 C   0  0  0  0  0  0  0  0  0  0  0  0
   50.1650   30.0850   50.2270 C   0  0  0  0  0  0  0  0  0  0  0  0
   49.7390   29.1070   49.3830 N   0  0  0  0  0  0  0  0  0  0  0  0
   48.7340   29.5960   48.6360 C   0  0  0  0  0  0  0  0  0  0  0  0
   48.0910   28.7840   47.6580 N   0  0  0  0  0  0  0  0  0  0  0  0
   48.4870   27.8050   46.8510 C   0  0  0  0  0  0  0  0  0  0  0  0
   47.4500   27.3690   46.1050 N   0  0  0  0  0  0  0  0  0  0  0  0
   46.3950   28.1160   46.4810 C   0  0  0  0  0  0  0  0  0  0  0  0
   46.7830   28.9870   47.4360 N   0  0  0  0  0  0  0  0  0  0  0  0
   46.6590   34.0560   43.6050 C   0  0  0  0  0  0  0  0  0  0  0  0
   45.5120   34.6990   44.0510 C   0  0  0  0  0  0  0  0  0  0  0  0
   45.2530   34.2890   45.3630 C   0  0  0  0  0  0  0  0  0  0  0  0
   46.2360   33.4230   45.6670 N   0  0  0  0  0  0  0  0  0  0  0  0
   47.0830   33.2680   44.6400 N   0  0  0  0  0  0  0  0  0  0  0  0
   48.6560   35.3610   40.8160 C   0  0  0  0  0  0  0  0  0  0  0  0
   48.1020   34.6670   39.7200 C   0  0  0  0  0  0  0  0  0  0  0  0
   47.0540   33.7650   39.9630 C   0  0  0  0  0  0  0  0  0  0  0  0
   46.6080   33.5900   41.2450 N   0  0  0  0  0  0  0  0  0  0  0  0
   47.1800   34.2870   42.2600 C   0  0  0  0  0  0  0  0  0  0  0  0
   48.1930   35.1680   42.0800 N   0  0  0  0  0  0  0  0  0  0  0  0
   44.4722   32.9688   48.1126 H   0  0  0  0  0  0  0  0  0  0  0  0
   45.8966   31.5151   49.8796 H   0  0  0  0  0  0  0  0  0  0  0  0
   49.4690   32.1654   50.4885 H   0  0  0  0  0  0  0  0  0  0  0  0
   50.9749   30.0038   50.9669 H   0  0  0  0  0  0  0  0  0  0  0  0
   49.5114   27.4076   46.7986 H   0  0  0  0  0  0  0  0  0  0  0  0
   45.3768   28.0299   46.0738 H   0  0  0  0  0  0  0  0  0  0  0  0
   44.9081   35.4115   43.4699 H   0  0  0  0  0  0  0  0  0  0  0  0
   44.4216   34.6074   46.0091 H   0  0  0  0  0  0  0  0  0  0  0  0
   49.4780   36.0717   40.6450 H   0  0  0  0  0  0  0  0  0  0  0  0
   48.4817   34.8285   38.7003 H   0  0  0  0  0  0  0  0  0  0  0  0
   46.5970   33.2058   39.1333 H   0  0  0  0  0  0  0  0  0  0  0  0
  1  5  1  0
  1  2  2  0
  2  3  1  0
  4  3  2  0
  4  6  1  0
  5  4  1  0
  6  7  1  0
  7  8  2  0
  9  8  1  0
 10  6  1  0
 10  9  2  0
 11 10  1  0
 12 11  1  0
 13 14  1  0
 13 12  2  0
 14 15  2  0
 15 11  1  0
 16 17  1  0
 16 20  2  0
 17 18  2  0
 18 19  1  0
 19  1  1  0
 20 19  1  0
 21 26  2  0
 22 23  2  0
 22 21  1  0
 23 24  1  0
 24 25  2  0
 25 16  1  0
 26 25  1  0
  2 27  1  0
  3 28  1  0
  7 29  1  0
  8 30  1  0
 12 31  1  0
 14 32  1  0
 17 33  1  0
 18 34  1  0
 21 35  1  0
 22 36  1  0
 23 37  1  0
M  ISO  8  27  14  28  14  29  14  30  14  31  14  32  14  33  14  34  14
M  ISO  3  35  14  36  14  37  14
M  END
>  <minimizedAffinity>  (1) 
-6.19482756

>  <minimizedRMSD>  (1) 
1.28424859

$$$$
