
     RDKit          3D

 46 50  0  0  0  0  0  0  0  0999 V2000
   46.3230   32.7740   46.8860 C   0  0  0  0  0  0  0  0  0  0  0  0
   45.4730   32.5990   47.9700 C   0  0  0  0  0  0  0  0  0  0  0  0
   46.1970   31.8430   48.8660 C   0  0  0  0  0  0  0  0  0  0  0  0
   47.4410   31.5820   48.3190 C   0  0  0  0  0  0  0  0  0  0  0  0
   47.4350   32.1620   47.1580 O   0  0  0  0  0  0  0  0  0  0  0  0
   48.4570   30.8260   48.9630 N   0  0  0  0  0  0  0  0  0  0  0  0
   49.2860   31.1080   50.0230 C   0  0  0  0  0  0  0  0  0  0  0  0
   50.0770   29.9940   50.2090 C   0  0  0  0  0  0  0  0  0  0  0  0
   49.7190   29.0700   49.2730 N   0  0  0  0  0  0  0  0  0  0  0  0
   48.7310   29.5910   48.5200 C   0  0  0  0  0  0  0  0  0  0  0  0
   48.1480   28.8290   47.4420 N   0  0  0  0  0  0  0  0  0  0  0  0
   48.8460   28.1190   46.3890 C   0  0  0  0  0  0  0  0  0  0  0  0
   48.6010   28.8620   45.1030 C   0  0  0  0  0  0  0  0  0  0  0  0
   47.3380   29.6610   45.1730 C   0  0  0  0  0  0  0  0  0  0  0  0
   46.2630   29.0080   45.9900 C   0  0  0  0  0  0  0  0  0  0  0  0
   46.6950   28.7650   47.4120 C   0  0  0  0  0  0  0  0  0  0  0  0
   46.6750   34.0720   43.5880 C   0  0  0  0  0  0  0  0  0  0  0  0
   45.5280   34.7320   44.0400 C   0  0  0  0  0  0  0  0  0  0  0  0
   45.2640   34.3100   45.3510 C   0  0  0  0  0  0  0  0  0  0  0  0
   46.2410   33.4240   45.6460 N   0  0  0  0  0  0  0  0  0  0  0  0
   47.0790   33.2710   44.6240 N   0  0  0  0  0  0  0  0  0  0  0  0
   48.6850   35.3970   40.8270 C   0  0  0  0  0  0  0  0  0  0  0  0
   48.1300   34.7300   39.7270 C   0  0  0  0  0  0  0  0  0  0  0  0
   47.0820   33.8430   39.9490 C   0  0  0  0  0  0  0  0  0  0  0  0
   46.6320   33.6530   41.2270 N   0  0  0  0  0  0  0  0  0  0  0  0
   47.1910   34.3110   42.2520 C   0  0  0  0  0  0  0  0  0  0  0  0
   48.2050   35.1790   42.0850 N   0  0  0  0  0  0  0  0  0  0  0  0
   44.4478   32.9799   48.0875 H   0  0  0  0  0  0  0  0  0  0  0  0
   45.8450   31.5037   49.8514 H   0  0  0  0  0  0  0  0  0  0  0  0
   49.3129   32.0393   50.6078 H   0  0  0  0  0  0  0  0  0  0  0  0
   50.8569   29.8727   50.9752 H   0  0  0  0  0  0  0  0  0  0  0  0
   49.9239   28.0897   46.6064 H   0  0  0  0  0  0  0  0  0  0  0  0
   48.4829   27.0834   46.3134 H   0  0  0  0  0  0  0  0  0  0  0  0
   48.5222   28.1374   44.2792 H   0  0  0  0  0  0  0  0  0  0  0  0
   49.4410   29.5517   44.9333 H   0  0  0  0  0  0  0  0  0  0  0  0
   47.5690   30.6395   45.6194 H   0  0  0  0  0  0  0  0  0  0  0  0
   46.9546   29.7518   44.1460 H   0  0  0  0  0  0  0  0  0  0  0  0
   45.3774   29.6604   45.9958 H   0  0  0  0  0  0  0  0  0  0  0  0
   46.0396   28.0320   45.5344 H   0  0  0  0  0  0  0  0  0  0  0  0
   46.2709   29.5370   48.0710 H   0  0  0  0  0  0  0  0  0  0  0  0
   46.3420   27.7841   47.7630 H   0  0  0  0  0  0  0  0  0  0  0  0
   44.9343   35.4581   43.4654 H   0  0  0  0  0  0  0  0  0  0  0  0
   44.4372   34.6318   46.0013 H   0  0  0  0  0  0  0  0  0  0  0  0
   49.5150   36.1026   40.6748 H   0  0  0  0  0  0  0  0  0  0  0  0
   48.5143   34.9039   38.7111 H   0  0  0  0  0  0  0  0  0  0  0  0
   46.6216   33.3020   39.1092 H   0  0  0  0  0  0  0  0  0  0  0  0
  1  5  1  0
  1  2  2  0
  2  3  1  0
  4  3  2  0
  4  6  1  0
  5  4  1  0
  6  7  1  0
  7  8  2  0
  9  8  1  0
 10  6  1  0
 10  9  2  0
 11 10  1  0
 12 11  1  0
 13 14  1  0
 13 12  1  0
 14 15  1  0
 15 16  1  0
 16 11  1  0
 17 18  1  0
 17 21  2  0
 18 19  2  0
 19 20  1  0
 20  1  1  0
 21 20  1  0
 22 27  2  0
 23 24  2  0
 23 22  1  0
 24 25  1  0
 25 26  2  0
 26 17  1  0
 27 26  1  0
  2 28  1  0
  3 29  1  0
  7 30  1  0
  8 31  1  0
 12 32  1  0
 12 33  1  0
 13 34  1  0
 13 35  1  0
 14 36  1  0
 14 37  1  0
 15 38  1  0
 15 39  1  0
 16 40  1  0
 16 41  1  0
 18 42  1  0
 19 43  1  0
 22 44  1  0
 23 45  1  0
 24 46  1  0
M  ISO  8  28  14  29  14  30  14  31  14  32  13  33  13  34  13  35  13
M  ISO  8  36  13  37  13  38  13  39  13  40  13  41  13  42  14  43  14
M  ISO  3  44  14  45  14  46  14
M  END
>  <minimizedAffinity>  (1) 
-6.31223869

>  <minimizedRMSD>  (1) 
1.39614344

$$$$
