
     RDKit          3D

 47 51  0  0  0  0  0  0  0  0999 V2000
   46.3490   32.7470   46.8910 C   0  0  0  0  0  0  0  0  0  0  0  0
   45.4930   32.5340   47.9530 C   0  0  0  0  0  0  0  0  0  0  0  0
   46.2360   31.8120   48.8650 C   0  0  0  0  0  0  0  0  0  0  0  0
   47.4980   31.6140   48.3370 C   0  0  0  0  0  0  0  0  0  0  0  0
   47.4920   32.1920   47.1730 O   0  0  0  0  0  0  0  0  0  0  0  0
   46.6830   34.0480   43.5860 C   0  0  0  0  0  0  0  0  0  0  0  0
   45.5360   34.7010   44.0410 C   0  0  0  0  0  0  0  0  0  0  0  0
   45.2840   34.2770   45.3480 C   0  0  0  0  0  0  0  0  0  0  0  0
   46.2710   33.3930   45.6400 N   0  0  0  0  0  0  0  0  0  0  0  0
   47.1010   33.2480   44.6150 N   0  0  0  0  0  0  0  0  0  0  0  0
   48.6750   35.3950   40.8190 C   0  0  0  0  0  0  0  0  0  0  0  0
   48.1220   34.7110   39.7140 C   0  0  0  0  0  0  0  0  0  0  0  0
   47.0780   33.8030   39.9450 C   0  0  0  0  0  0  0  0  0  0  0  0
   46.6380   33.6160   41.2270 N   0  0  0  0  0  0  0  0  0  0  0  0
   47.1960   34.2910   42.2440 C   0  0  0  0  0  0  0  0  0  0  0  0
   48.2060   35.1780   42.0730 N   0  0  0  0  0  0  0  0  0  0  0  0
   48.5360   30.9080   49.0000 N   0  0  0  0  0  0  0  0  0  0  0  0
   49.4110   31.2560   50.0020 C   0  0  0  0  0  0  0  0  0  0  0  0
   50.2070   30.1810   50.2600 C   0  0  0  0  0  0  0  0  0  0  0  0
   49.8200   29.2010   49.4290 N   0  0  0  0  0  0  0  0  0  0  0  0
   48.7930   29.6320   48.6480 C   0  0  0  0  0  0  0  0  0  0  0  0
   48.1890   28.7180   47.6390 C   0  0  0  0  0  0  0  0  0  0  0  0
   48.5880   27.2950   47.8210 C   0  0  0  0  0  0  0  0  0  0  0  0
   50.0240   27.0190   47.4670 C   0  0  0  0  0  0  0  0  0  0  0  0
   50.4590   27.6670   46.1900 C   0  0  0  0  0  0  0  0  0  0  0  0
   49.8800   29.0080   45.9120 C   0  0  0  0  0  0  0  0  0  0  0  0
   48.4300   29.1600   46.2360 C   0  0  0  0  0  0  0  0  0  0  0  0
   44.4490   32.8664   48.0508 H   0  0  0  0  0  0  0  0  0  0  0  0
   45.8841   31.4553   49.8442 H   0  0  0  0  0  0  0  0  0  0  0  0
   44.9351   35.4238   43.4696 H   0  0  0  0  0  0  0  0  0  0  0  0
   44.4587   34.5934   46.0029 H   0  0  0  0  0  0  0  0  0  0  0  0
   49.4947   36.1113   40.6609 H   0  0  0  0  0  0  0  0  0  0  0  0
   48.5010   34.8861   38.6963 H   0  0  0  0  0  0  0  0  0  0  0  0
   46.6212   33.2511   39.1103 H   0  0  0  0  0  0  0  0  0  0  0  0
   49.4597   32.2320   50.5071 H   0  0  0  0  0  0  0  0  0  0  0  0
   51.0129   30.1267   51.0067 H   0  0  0  0  0  0  0  0  0  0  0  0
   47.1060   28.7769   47.8226 H   0  0  0  0  0  0  0  0  0  0  0  0
   48.4318   27.0228   48.8753 H   0  0  0  0  0  0  0  0  0  0  0  0
   47.9679   26.6974   47.1366 H   0  0  0  0  0  0  0  0  0  0  0  0
   50.6615   27.3926   48.2819 H   0  0  0  0  0  0  0  0  0  0  0  0
   50.1198   25.9321   47.3274 H   0  0  0  0  0  0  0  0  0  0  0  0
   51.5535   27.7724   46.2214 H   0  0  0  0  0  0  0  0  0  0  0  0
   50.0940   27.0125   45.3848 H   0  0  0  0  0  0  0  0  0  0  0  0
   50.4391   29.7481   46.5032 H   0  0  0  0  0  0  0  0  0  0  0  0
   49.9645   29.1549   44.8251 H   0  0  0  0  0  0  0  0  0  0  0  0
   48.1381   30.2151   46.1280 H   0  0  0  0  0  0  0  0  0  0  0  0
   47.8325   28.5438   45.5481 H   0  0  0  0  0  0  0  0  0  0  0  0
  1  5  1  0
  1  2  2  0
  2  3  1  0
  4  3  2  0
  4 17  1  0
  5  4  1  0
  6  7  1  0
  6 10  2  0
  7  8  2  0
  8  9  1  0
  9  1  1  0
 10  9  1  0
 11 16  2  0
 12 13  2  0
 12 11  1  0
 13 14  1  0
 14 15  2  0
 15  6  1  0
 16 15  1  0
 17 18  1  0
 18 19  2  0
 20 19  1  0
 21 17  1  0
 21 20  2  0
 22 23  1  0
 22 21  1  0
 24 23  1  0
 25 24  1  0
 26 25  1  0
 26 27  1  0
 27 22  1  0
  2 28  1  0
  3 29  1  0
  7 30  1  0
  8 31  1  0
 11 32  1  0
 12 33  1  0
 13 34  1  0
 18 35  1  0
 19 36  1  0
 22 37  1  0
 23 38  1  0
 23 39  1  0
 24 40  1  0
 24 41  1  0
 25 42  1  0
 25 43  1  0
 26 44  1  0
 26 45  1  0
 27 46  1  0
 27 47  1  0
M  ISO  8  28  14  29  14  30  14  31  14  32  14  33  14  34  14  35  14
M  ISO  8  36  14  37  13  38  13  39  13  40  13  41  13  42  13  43  13
M  ISO  4  44  13  45  13  46  13  47  13
M  END
>  <minimizedAffinity>  (1) 
-5.9796176

>  <minimizedRMSD>  (1) 
1.14297855

$$$$
