
     RDKit          3D

 38 42  0  0  0  0  0  0  0  0999 V2000
   46.4080   32.6800   46.9450 C   0  0  0  0  0  0  0  0  0  0  0  0
   45.5820   32.5060   48.0330 C   0  0  0  0  0  0  0  0  0  0  0  0
   46.3280   31.7690   48.9250 C   0  0  0  0  0  0  0  0  0  0  0  0
   47.5740   31.5160   48.3610 C   0  0  0  0  0  0  0  0  0  0  0  0
   47.5300   32.0880   47.2010 O   0  0  0  0  0  0  0  0  0  0  0  0
   46.6900   33.9970   43.6460 C   0  0  0  0  0  0  0  0  0  0  0  0
   45.5510   34.6390   44.1150 C   0  0  0  0  0  0  0  0  0  0  0  0
   45.3130   34.2090   45.4160 C   0  0  0  0  0  0  0  0  0  0  0  0
   46.3140   33.3210   45.6920 N   0  0  0  0  0  0  0  0  0  0  0  0
   47.1320   33.1850   44.6620 N   0  0  0  0  0  0  0  0  0  0  0  0
   48.6730   35.3590   40.8690 C   0  0  0  0  0  0  0  0  0  0  0  0
   48.1150   34.7020   39.7780 C   0  0  0  0  0  0  0  0  0  0  0  0
   47.0600   33.7920   40.0000 C   0  0  0  0  0  0  0  0  0  0  0  0
   46.6210   33.5880   41.2850 N   0  0  0  0  0  0  0  0  0  0  0  0
   47.1950   34.2510   42.3020 C   0  0  0  0  0  0  0  0  0  0  0  0
   48.2090   35.1300   42.1250 N   0  0  0  0  0  0  0  0  0  0  0  0
   48.6020   30.7760   49.0080 N   0  0  0  0  0  0  0  0  0  0  0  0
   49.4590   31.1400   50.0400 C   0  0  0  0  0  0  0  0  0  0  0  0
   50.2280   30.0590   50.3220 C   0  0  0  0  0  0  0  0  0  0  0  0
   49.8420   29.0910   49.4920 N   0  0  0  0  0  0  0  0  0  0  0  0
   48.8360   29.5190   48.6670 C   0  0  0  0  0  0  0  0  0  0  0  0
   48.3920   28.5110   47.7250 C   0  0  0  0  0  0  0  0  0  0  0  0
   48.5050   28.4200   46.3610 C   0  0  0  0  0  0  0  0  0  0  0  0
   47.9970   27.2870   45.8560 N   0  0  0  0  0  0  0  0  0  0  0  0
   47.5290   26.5940   46.9100 C   0  0  0  0  0  0  0  0  0  0  0  0
   47.7800   27.3440   47.9920 N   0  0  0  0  0  0  0  0  0  0  0  0
   44.5535   32.8744   48.1611 H   0  0  0  0  0  0  0  0  0  0  0  0
   45.9941   31.4356   49.9187 H   0  0  0  0  0  0  0  0  0  0  0  0
   44.9420   35.3630   43.5539 H   0  0  0  0  0  0  0  0  0  0  0  0
   44.4933   34.5181   46.0812 H   0  0  0  0  0  0  0  0  0  0  0  0
   49.4974   36.0705   40.7137 H   0  0  0  0  0  0  0  0  0  0  0  0
   48.4892   34.8883   38.7605 H   0  0  0  0  0  0  0  0  0  0  0  0
   46.5973   33.2554   39.1586 H   0  0  0  0  0  0  0  0  0  0  0  0
   49.5049   32.1211   50.5353 H   0  0  0  0  0  0  0  0  0  0  0  0
   51.0162   29.9942   51.0865 H   0  0  0  0  0  0  0  0  0  0  0  0
   48.9681   29.2018   45.7411 H   0  0  0  0  0  0  0  0  0  0  0  0
   47.0388   25.6095   46.8881 H   0  0  0  0  0  0  0  0  0  0  0  0
   47.5258   27.0514   48.9463 H   0  0  0  0  0  0  0  0  0  0  0  0
  1  5  1  0
  1  2  2  0
  2  3  1  0
  4  3  2  0
  4 17  1  0
  5  4  1  0
  6  7  1  0
  6 10  2  0
  7  8  2  0
  8  9  1  0
  9  1  1  0
 10  9  1  0
 11 16  2  0
 12 13  2  0
 12 11  1  0
 13 14  1  0
 14 15  2  0
 15  6  1  0
 16 15  1  0
 17 18  1  0
 18 19  2  0
 20 19  1  0
 21 17  1  0
 21 20  2  0
 22 26  1  0
 22 21  1  0
 23 22  2  0
 24 23  1  0
 24 25  2  0
 25 26  1  0
  2 27  1  0
  3 28  1  0
  7 29  1  0
  8 30  1  0
 11 31  1  0
 12 32  1  0
 13 33  1  0
 18 34  1  0
 19 35  1  0
 23 36  1  0
 25 37  1  0
 26 38  1  0
M  ISO  8  27  14  28  14  29  14  30  14  31  14  32  14  33  14  34  14
M  ISO  4  35  14  36  14  37  14  38   9
M  END
>  <minimizedAffinity>  (1) 
-5.94309616

>  <minimizedRMSD>  (1) 
1.41571712

$$$$
