
     RDKit          3D

 38 42  0  0  0  0  0  0  0  0999 V2000
   46.3400   32.7800   46.9060 C   0  0  0  0  0  0  0  0  0  0  0  0
   45.4860   32.5970   47.9820 C   0  0  0  0  0  0  0  0  0  0  0  0
   46.2270   31.8630   48.8880 C   0  0  0  0  0  0  0  0  0  0  0  0
   47.4820   31.6270   48.3460 C   0  0  0  0  0  0  0  0  0  0  0  0
   47.4580   32.1980   47.1870 O   0  0  0  0  0  0  0  0  0  0  0  0
   48.5090   30.9020   48.9970 N   0  0  0  0  0  0  0  0  0  0  0  0
   49.3960   31.2150   49.9750 C   0  0  0  0  0  0  0  0  0  0  0  0
   50.1790   30.1310   50.2380 C   0  0  0  0  0  0  0  0  0  0  0  0
   49.7490   29.1510   49.4000 N   0  0  0  0  0  0  0  0  0  0  0  0
   48.7310   29.6200   48.6440 C   0  0  0  0  0  0  0  0  0  0  0  0
   48.1270   28.7390   47.6860 N   0  0  0  0  0  0  0  0  0  0  0  0
   48.5580   27.7030   46.9700 C   0  0  0  0  0  0  0  0  0  0  0  0
   47.5580   27.1980   46.1860 C   0  0  0  0  0  0  0  0  0  0  0  0
   46.4720   27.9760   46.4470 N   0  0  0  0  0  0  0  0  0  0  0  0
   46.8310   28.9140   47.3650 C   0  0  0  0  0  0  0  0  0  0  0  0
   46.6680   34.0590   43.5980 C   0  0  0  0  0  0  0  0  0  0  0  0
   45.5180   34.6990   44.0370 C   0  0  0  0  0  0  0  0  0  0  0  0
   45.2560   34.2880   45.3490 C   0  0  0  0  0  0  0  0  0  0  0  0
   46.2420   33.4260   45.6550 N   0  0  0  0  0  0  0  0  0  0  0  0
   47.0840   33.2790   44.6330 N   0  0  0  0  0  0  0  0  0  0  0  0
   48.6730   35.3770   40.8240 C   0  0  0  0  0  0  0  0  0  0  0  0
   48.1140   34.6920   39.7230 C   0  0  0  0  0  0  0  0  0  0  0  0
   47.0620   33.7930   39.9460 C   0  0  0  0  0  0  0  0  0  0  0  0
   46.6250   33.6200   41.2300 N   0  0  0  0  0  0  0  0  0  0  0  0
   47.1860   34.2940   42.2600 C   0  0  0  0  0  0  0  0  0  0  0  0
   48.1890   35.1560   42.0710 N   0  0  0  0  0  0  0  0  0  0  0  0
   44.4516   32.9553   48.0903 H   0  0  0  0  0  0  0  0  0  0  0  0
   45.8798   31.5225   49.8746 H   0  0  0  0  0  0  0  0  0  0  0  0
   49.4713   32.1909   50.4770 H   0  0  0  0  0  0  0  0  0  0  0  0
   50.9916   30.0631   50.9763 H   0  0  0  0  0  0  0  0  0  0  0  0
   49.5831   27.3056   47.0044 H   0  0  0  0  0  0  0  0  0  0  0  0
   47.6182   26.3458   45.4930 H   0  0  0  0  0  0  0  0  0  0  0  0
   46.1695   29.6898   47.7781 H   0  0  0  0  0  0  0  0  0  0  0  0
   44.9143   35.4092   43.4528 H   0  0  0  0  0  0  0  0  0  0  0  0
   44.4215   34.6029   45.9927 H   0  0  0  0  0  0  0  0  0  0  0  0
   49.4985   36.0876   40.6704 H   0  0  0  0  0  0  0  0  0  0  0  0
   48.4981   34.8613   38.7062 H   0  0  0  0  0  0  0  0  0  0  0  0
   46.6014   33.2427   39.1123 H   0  0  0  0  0  0  0  0  0  0  0  0
  1  5  1  0
  1  2  2  0
  2  3  1  0
  4  3  2  0
  4  6  1  0
  5  4  1  0
  6  7  1  0
  7  8  2  0
  9  8  1  0
 10  6  1  0
 10  9  2  0
 11 10  1  0
 12 11  1  0
 13 14  1  0
 13 12  2  0
 14 15  2  0
 15 11  1  0
 16 17  1  0
 16 20  2  0
 17 18  2  0
 18 19  1  0
 19  1  1  0
 20 19  1  0
 21 26  2  0
 22 23  2  0
 22 21  1  0
 23 24  1  0
 24 25  2  0
 25 16  1  0
 26 25  1  0
  2 27  1  0
  3 28  1  0
  7 29  1  0
  8 30  1  0
 12 31  1  0
 13 32  1  0
 15 33  1  0
 17 34  1  0
 18 35  1  0
 21 36  1  0
 22 37  1  0
 23 38  1  0
M  ISO  8  27  14  28  14  29  14  30  14  31  14  32  14  33  14  34  14
M  ISO  4  35  14  36  14  37  14  38  14
M  END
>  <minimizedAffinity>  (1) 
-6.18855572

>  <minimizedRMSD>  (1) 
1.30457842

$$$$
