
     RDKit          3D

 45 49  0  0  0  0  0  0  0  0999 V2000
   46.3540   32.7390   46.8980 C   0  0  0  0  0  0  0  0  0  0  0  0
   45.4970   32.5600   47.9760 C   0  0  0  0  0  0  0  0  0  0  0  0
   46.2360   31.8150   48.8830 C   0  0  0  0  0  0  0  0  0  0  0  0
   47.4900   31.5760   48.3270 C   0  0  0  0  0  0  0  0  0  0  0  0
   47.4900   32.1480   47.1560 O   0  0  0  0  0  0  0  0  0  0  0  0
   48.5060   30.8430   48.9810 N   0  0  0  0  0  0  0  0  0  0  0  0
   49.3680   31.1680   50.0060 C   0  0  0  0  0  0  0  0  0  0  0  0
   50.1450   30.0760   50.2700 C   0  0  0  0  0  0  0  0  0  0  0  0
   49.7530   29.1170   49.4140 N   0  0  0  0  0  0  0  0  0  0  0  0
   48.7500   29.5790   48.6210 C   0  0  0  0  0  0  0  0  0  0  0  0
   48.3130   28.6070   47.6740 N   0  0  0  0  0  0  0  0  0  0  0  0
   46.8970   28.6260   47.2700 C   0  0  0  0  0  0  0  0  0  0  0  0
   46.8960   29.1760   45.8360 C   0  0  0  0  0  0  0  0  0  0  0  0
   47.8920   28.5130   45.0160 N   0  0  0  0  0  0  0  0  0  0  0  0
   48.2930   27.2930   45.6690 C   0  0  0  0  0  0  0  0  0  0  0  0
   48.9970   27.5290   46.9850 C   0  0  0  0  0  0  0  0  0  0  0  0
   46.6730   34.0490   43.6010 C   0  0  0  0  0  0  0  0  0  0  0  0
   45.5280   34.7090   44.0560 C   0  0  0  0  0  0  0  0  0  0  0  0
   45.2790   34.2770   45.3620 C   0  0  0  0  0  0  0  0  0  0  0  0
   46.2700   33.3860   45.6490 N   0  0  0  0  0  0  0  0  0  0  0  0
   47.0900   33.2440   44.6250 N   0  0  0  0  0  0  0  0  0  0  0  0
   48.6690   35.3770   40.8230 C   0  0  0  0  0  0  0  0  0  0  0  0
   48.1270   34.7120   39.7290 C   0  0  0  0  0  0  0  0  0  0  0  0
   47.0820   33.8180   39.9610 C   0  0  0  0  0  0  0  0  0  0  0  0
   46.6220   33.6170   41.2350 N   0  0  0  0  0  0  0  0  0  0  0  0
   47.1880   34.2900   42.2610 C   0  0  0  0  0  0  0  0  0  0  0  0
   48.1980   35.1640   42.0860 N   0  0  0  0  0  0  0  0  0  0  0  0
   44.4656   32.9262   48.0857 H   0  0  0  0  0  0  0  0  0  0  0  0
   45.8914   31.4725   49.8699 H   0  0  0  0  0  0  0  0  0  0  0  0
   49.4211   32.1381   50.5218 H   0  0  0  0  0  0  0  0  0  0  0  0
   50.9346   29.9972   51.0318 H   0  0  0  0  0  0  0  0  0  0  0  0
   46.4751   27.6104   47.2941 H   0  0  0  0  0  0  0  0  0  0  0  0
   46.2841   29.2396   47.9466 H   0  0  0  0  0  0  0  0  0  0  0  0
   45.9024   29.0164   45.3918 H   0  0  0  0  0  0  0  0  0  0  0  0
   47.1372   30.2485   45.8756 H   0  0  0  0  0  0  0  0  0  0  0  0
   48.7098   29.1283   44.8994 H   0  0  0  0  0  0  0  0  0  0  0  0
   47.3958   26.6848   45.8561 H   0  0  0  0  0  0  0  0  0  0  0  0
   49.0047   26.7831   45.0031 H   0  0  0  0  0  0  0  0  0  0  0  0
   48.9625   26.6148   47.5957 H   0  0  0  0  0  0  0  0  0  0  0  0
   50.0503   27.7946   46.8119 H   0  0  0  0  0  0  0  0  0  0  0  0
   44.9303   35.4374   43.4884 H   0  0  0  0  0  0  0  0  0  0  0  0
   44.4555   34.5905   46.0205 H   0  0  0  0  0  0  0  0  0  0  0  0
   49.4933   36.0885   40.6676 H   0  0  0  0  0  0  0  0  0  0  0  0
   48.5102   34.8855   38.7126 H   0  0  0  0  0  0  0  0  0  0  0  0
   46.6271   33.2740   39.1201 H   0  0  0  0  0  0  0  0  0  0  0  0
  1  5  1  0
  1  2  2  0
  2  3  1  0
  4  3  2  0
  4  6  1  0
  5  4  1  0
  6  7  1  0
  7  8  2  0
  9  8  1  0
 10  6  1  0
 10  9  2  0
 11 10  1  0
 12 11  1  0
 13 12  1  0
 14 15  1  0
 14 13  1  0
 15 16  1  0
 16 11  1  0
 17 18  1  0
 17 21  2  0
 18 19  2  0
 19 20  1  0
 20  1  1  0
 21 20  1  0
 22 27  2  0
 23 24  2  0
 23 22  1  0
 24 25  1  0
 25 26  2  0
 26 17  1  0
 27 26  1  0
  2 28  1  0
  3 29  1  0
  7 30  1  0
  8 31  1  0
 12 32  1  0
 12 33  1  0
 13 34  1  0
 13 35  1  0
 14 36  1  0
 15 37  1  0
 15 38  1  0
 16 39  1  0
 16 40  1  0
 18 41  1  0
 19 42  1  0
 22 43  1  0
 23 44  1  0
 24 45  1  0
M  ISO  8  28  14  29  14  30  14  31  14  32  13  33  13  34  13  35  13
M  ISO  8  36   5  37  13  38  13  39  13  40  13  41  14  42  14  43  14
M  ISO  2  44  14  45  14
M  END
>  <minimizedAffinity>  (1) 
-6.14617014

>  <minimizedRMSD>  (1) 
1.43624878

$$$$
