
     RDKit          3D

 34 37  0  0  0  0  0  0  0  0999 V2000
   46.3360   32.7590   46.8990 C   0  0  0  0  0  0  0  0  0  0  0  0
   45.4890   32.5760   47.9710 C   0  0  0  0  0  0  0  0  0  0  0  0
   46.2250   31.8390   48.8790 C   0  0  0  0  0  0  0  0  0  0  0  0
   47.4830   31.6010   48.3350 C   0  0  0  0  0  0  0  0  0  0  0  0
   47.4660   32.1780   47.1640 O   0  0  0  0  0  0  0  0  0  0  0  0
   46.6760   34.0460   43.5840 C   0  0  0  0  0  0  0  0  0  0  0  0
   45.5290   34.6970   44.0400 C   0  0  0  0  0  0  0  0  0  0  0  0
   45.2680   34.2830   45.3490 C   0  0  0  0  0  0  0  0  0  0  0  0
   46.2560   33.4010   45.6460 N   0  0  0  0  0  0  0  0  0  0  0  0
   47.0870   33.2520   44.6230 N   0  0  0  0  0  0  0  0  0  0  0  0
   48.6770   35.3790   40.8180 C   0  0  0  0  0  0  0  0  0  0  0  0
   48.1140   34.6980   39.7210 C   0  0  0  0  0  0  0  0  0  0  0  0
   47.0570   33.7920   39.9420 C   0  0  0  0  0  0  0  0  0  0  0  0
   46.6190   33.6110   41.2260 N   0  0  0  0  0  0  0  0  0  0  0  0
   47.1880   34.2850   42.2480 C   0  0  0  0  0  0  0  0  0  0  0  0
   48.2070   35.1670   42.0860 N   0  0  0  0  0  0  0  0  0  0  0  0
   48.5050   30.8760   48.9850 N   0  0  0  0  0  0  0  0  0  0  0  0
   49.3820   31.1850   49.9810 C   0  0  0  0  0  0  0  0  0  0  0  0
   50.1620   30.0990   50.2330 C   0  0  0  0  0  0  0  0  0  0  0  0
   49.7560   29.1360   49.3930 N   0  0  0  0  0  0  0  0  0  0  0  0
   48.7480   29.6080   48.6310 C   0  0  0  0  0  0  0  0  0  0  0  0
   48.2190   28.6530   47.6660 C   0  0  0  0  0  0  0  0  0  0  0  0
   48.3890   28.5390   46.4260 O   0  0  0  0  0  0  0  0  0  0  0  0
   47.3640   27.6080   47.9250 O   0  0  0  0  0  0  0  0  0  0  0  0
   44.4556   32.9369   48.0796 H   0  0  0  0  0  0  0  0  0  0  0  0
   45.8755   31.4983   49.8648 H   0  0  0  0  0  0  0  0  0  0  0  0
   44.9293   35.4172   43.4641 H   0  0  0  0  0  0  0  0  0  0  0  0
   44.4401   34.6030   45.9988 H   0  0  0  0  0  0  0  0  0  0  0  0
   49.5021   36.0878   40.6542 H   0  0  0  0  0  0  0  0  0  0  0  0
   48.4948   34.8712   38.7036 H   0  0  0  0  0  0  0  0  0  0  0  0
   46.5969   33.2455   39.1056 H   0  0  0  0  0  0  0  0  0  0  0  0
   49.4485   32.1542   50.4971 H   0  0  0  0  0  0  0  0  0  0  0  0
   50.9671   30.0255   50.9789 H   0  0  0  0  0  0  0  0  0  0  0  0
   47.0664   27.0176   47.1881 H   0  0  0  0  0  0  0  0  0  0  0  0
  1  5  1  0
  1  2  2  0
  2  3  1  0
  4  3  2  0
  4 17  1  0
  5  4  1  0
  6  7  1  0
  6 10  2  0
  7  8  2  0
  8  9  1  0
  9  1  1  0
 10  9  1  0
 11 16  2  0
 12 13  2  0
 12 11  1  0
 13 14  1  0
 14 15  2  0
 15  6  1  0
 16 15  1  0
 17 18  1  0
 18 19  2  0
 20 19  1  0
 21 17  1  0
 21 20  2  0
 22 24  1  0
 22 21  1  0
 23 22  2  0
  2 25  1  0
  3 26  1  0
  7 27  1  0
  8 28  1  0
 11 29  1  0
 12 30  1  0
 13 31  1  0
 18 32  1  0
 19 33  1  0
 24 34  1  0
M  ISO  8  25  14  26  14  27  14  28  14  29  14  30  14  31  14  32  14
M  ISO  2  33  14  34   3
M  END
>  <minimizedAffinity>  (1) 
-5.86833048

>  <minimizedRMSD>  (1) 
1.06168687

$$$$
