
     RDKit          3D

 39 43  0  0  0  0  0  0  0  0999 V2000
   46.3410   32.7280   46.8820 C   0  0  0  0  0  0  0  0  0  0  0  0
   45.5070   32.5730   47.9690 C   0  0  0  0  0  0  0  0  0  0  0  0
   46.2320   31.8000   48.8590 C   0  0  0  0  0  0  0  0  0  0  0  0
   47.4680   31.5170   48.2860 C   0  0  0  0  0  0  0  0  0  0  0  0
   47.4510   32.0970   47.1280 O   0  0  0  0  0  0  0  0  0  0  0  0
   46.6600   34.0580   43.5940 C   0  0  0  0  0  0  0  0  0  0  0  0
   45.5310   34.7080   44.0520 C   0  0  0  0  0  0  0  0  0  0  0  0
   45.2810   34.2760   45.3500 C   0  0  0  0  0  0  0  0  0  0  0  0
   46.2630   33.3820   45.6370 N   0  0  0  0  0  0  0  0  0  0  0  0
   47.0950   33.2370   44.6050 N   0  0  0  0  0  0  0  0  0  0  0  0
   48.6860   35.3920   40.8300 C   0  0  0  0  0  0  0  0  0  0  0  0
   48.1390   34.7290   39.7360 C   0  0  0  0  0  0  0  0  0  0  0  0
   47.0760   33.8270   39.9450 C   0  0  0  0  0  0  0  0  0  0  0  0
   46.6190   33.6330   41.2190 N   0  0  0  0  0  0  0  0  0  0  0  0
   47.1840   34.3020   42.2510 C   0  0  0  0  0  0  0  0  0  0  0  0
   48.2090   35.1790   42.0930 N   0  0  0  0  0  0  0  0  0  0  0  0
   48.4680   30.7390   48.9270 N   0  0  0  0  0  0  0  0  0  0  0  0
   49.2660   31.0110   50.0220 C   0  0  0  0  0  0  0  0  0  0  0  0
   50.0500   29.9150   50.2360 C   0  0  0  0  0  0  0  0  0  0  0  0
   49.7260   29.0190   49.2940 N   0  0  0  0  0  0  0  0  0  0  0  0
   48.7520   29.5170   48.4820 C   0  0  0  0  0  0  0  0  0  0  0  0
   48.2630   28.7020   47.3770 C   0  0  0  0  0  0  0  0  0  0  0  0
   48.8150   28.7390   46.1160 C   0  0  0  0  0  0  0  0  0  0  0  0
   48.3750   27.9820   45.0600 C   0  0  0  0  0  0  0  0  0  0  0  0
   47.3410   27.1380   45.2220 N   0  0  0  0  0  0  0  0  0  0  0  0
   46.7880   27.0880   46.4440 C   0  0  0  0  0  0  0  0  0  0  0  0
   47.2480   27.8430   47.4500 N   0  0  0  0  0  0  0  0  0  0  0  0
   44.4913   32.9745   48.0997 H   0  0  0  0  0  0  0  0  0  0  0  0
   45.8897   31.4664   49.8498 H   0  0  0  0  0  0  0  0  0  0  0  0
   44.9336   35.4398   43.4884 H   0  0  0  0  0  0  0  0  0  0  0  0
   44.4584   34.5926   46.0081 H   0  0  0  0  0  0  0  0  0  0  0  0
   49.5150   36.0984   40.6761 H   0  0  0  0  0  0  0  0  0  0  0  0
   48.5301   34.9060   38.7232 H   0  0  0  0  0  0  0  0  0  0  0  0
   46.6227   33.2894   39.0991 H   0  0  0  0  0  0  0  0  0  0  0  0
   49.2686   31.9394   50.6120 H   0  0  0  0  0  0  0  0  0  0  0  0
   50.8026   29.7910   51.0286 H   0  0  0  0  0  0  0  0  0  0  0  0
   49.6626   29.4188   45.9446 H   0  0  0  0  0  0  0  0  0  0  0  0
   48.8683   28.0655   44.0804 H   0  0  0  0  0  0  0  0  0  0  0  0
   45.9386   26.4123   46.6231 H   0  0  0  0  0  0  0  0  0  0  0  0
  1  5  1  0
  1  2  2  0
  2  3  1  0
  4  3  2  0
  4 17  1  0
  5  4  1  0
  6  7  1  0
  6 10  2  0
  7  8  2  0
  8  9  1  0
  9  1  1  0
 10  9  1  0
 11 16  2  0
 12 13  2  0
 12 11  1  0
 13 14  1  0
 14 15  2  0
 15  6  1  0
 16 15  1  0
 17 18  1  0
 18 19  2  0
 20 19  1  0
 21 17  1  0
 21 20  2  0
 22 27  1  0
 22 21  1  0
 23 22  2  0
 24 25  2  0
 24 23  1  0
 25 26  1  0
 26 27  2  0
  2 28  1  0
  3 29  1  0
  7 30  1  0
  8 31  1  0
 11 32  1  0
 12 33  1  0
 13 34  1  0
 18 35  1  0
 19 36  1  0
 23 37  1  0
 24 38  1  0
 26 39  1  0
M  ISO  8  28  14  29  14  30  14  31  14  32  14  33  14  34  14  35  14
M  ISO  4  36  14  37  14  38  14  39  14
M  END
>  <minimizedAffinity>  (1) 
-5.8751545

>  <minimizedRMSD>  (1) 
1.79500198

$$$$
