
     RDKit          3D

 37 40  0  0  0  0  0  0  0  0999 V2000
   46.3840   32.6480   46.9370 C   0  0  0  0  0  0  0  0  0  0  0  0
   45.5590   32.4970   48.0460 C   0  0  0  0  0  0  0  0  0  0  0  0
   46.2740   31.7030   48.9180 C   0  0  0  0  0  0  0  0  0  0  0  0
   47.4800   31.3960   48.3410 C   0  0  0  0  0  0  0  0  0  0  0  0
   47.4780   31.9870   47.1710 O   0  0  0  0  0  0  0  0  0  0  0  0
   46.7050   33.9900   43.6550 C   0  0  0  0  0  0  0  0  0  0  0  0
   45.5670   34.6500   44.1320 C   0  0  0  0  0  0  0  0  0  0  0  0
   45.3200   34.2110   45.4330 C   0  0  0  0  0  0  0  0  0  0  0  0
   46.2980   33.3120   45.7040 N   0  0  0  0  0  0  0  0  0  0  0  0
   47.1160   33.1740   44.6740 N   0  0  0  0  0  0  0  0  0  0  0  0
   48.6780   35.3660   40.8970 C   0  0  0  0  0  0  0  0  0  0  0  0
   48.1180   34.7030   39.7930 C   0  0  0  0  0  0  0  0  0  0  0  0
   47.0680   33.7880   40.0080 C   0  0  0  0  0  0  0  0  0  0  0  0
   46.6380   33.5880   41.2930 N   0  0  0  0  0  0  0  0  0  0  0  0
   47.2070   34.2470   42.3190 C   0  0  0  0  0  0  0  0  0  0  0  0
   48.2200   35.1360   42.1580 N   0  0  0  0  0  0  0  0  0  0  0  0
   48.4840   30.5930   48.9460 N   0  0  0  0  0  0  0  0  0  0  0  0
   49.2620   30.7710   50.0680 C   0  0  0  0  0  0  0  0  0  0  0  0
   50.0700   29.6820   50.1950 C   0  0  0  0  0  0  0  0  0  0  0  0
   49.7810   28.8660   49.1690 N   0  0  0  0  0  0  0  0  0  0  0  0
   48.8070   29.4170   48.3940 C   0  0  0  0  0  0  0  0  0  0  0  0
   48.3760   28.6230   47.2120 C   0  0  0  0  0  0  0  0  0  0  0  0
   49.1260   29.0220   45.9590 C   0  0  0  0  0  0  0  0  0  0  0  0
   44.5543   32.9191   48.1954 H   0  0  0  0  0  0  0  0  0  0  0  0
   45.9341   31.3714   49.9102 H   0  0  0  0  0  0  0  0  0  0  0  0
   44.9698   35.3881   43.5766 H   0  0  0  0  0  0  0  0  0  0  0  0
   44.5036   34.5276   46.0988 H   0  0  0  0  0  0  0  0  0  0  0  0
   49.4987   36.0816   40.7405 H   0  0  0  0  0  0  0  0  0  0  0  0
   48.4929   34.8948   38.7768 H   0  0  0  0  0  0  0  0  0  0  0  0
   46.6066   33.2494   39.1672 H   0  0  0  0  0  0  0  0  0  0  0  0
   49.2356   31.6394   50.7427 H   0  0  0  0  0  0  0  0  0  0  0  0
   50.8148   29.5054   50.9850 H   0  0  0  0  0  0  0  0  0  0  0  0
   48.5610   27.5574   47.4129 H   0  0  0  0  0  0  0  0  0  0  0  0
   47.3060   28.8154   47.0443 H   0  0  0  0  0  0  0  0  0  0  0  0
   50.0655   29.5218   46.2375 H   0  0  0  0  0  0  0  0  0  0  0  0
   49.3506   28.1241   45.3645 H   0  0  0  0  0  0  0  0  0  0  0  0
   48.5069   29.7100   45.3645 H   0  0  0  0  0  0  0  0  0  0  0  0
  1  5  1  0
  1  2  2  0
  2  3  1  0
  4  3  2  0
  4 17  1  0
  5  4  1  0
  6  7  1  0
  6 10  2  0
  7  8  2  0
  8  9  1  0
  9  1  1  0
 10  9  1  0
 11 16  2  0
 12 13  2  0
 12 11  1  0
 13 14  1  0
 14 15  2  0
 15  6  1  0
 16 15  1  0
 17 18  1  0
 18 19  2  0
 20 19  1  0
 21 17  1  0
 21 20  2  0
 22 21  1  0
 23 22  1  0
  2 24  1  0
  3 25  1  0
  7 26  1  0
  8 27  1  0
 11 28  1  0
 12 29  1  0
 13 30  1  0
 18 31  1  0
 19 32  1  0
 22 33  1  0
 22 34  1  0
 23 35  1  0
 23 36  1  0
 23 37  1  0
M  ISO  8  24  14  25  14  26  14  27  14  28  14  29  14  30  14  31  14
M  ISO  6  32  14  33   8  34   8  35   8  36   8  37   8
M  END
>  <minimizedAffinity>  (1) 
-5.64186859

>  <minimizedRMSD>  (1) 
1.06313837

$$$$
