
     RDKit          3D

 47 52  0  0  1  0  0  0  0  0999 V2000
   46.2870   32.7990   46.8170 C   0  0  0  0  0  0  0  0  0  0  0  0
   45.4680   32.6940   47.9120 C   0  0  0  0  0  0  0  0  0  0  0  0
   46.1430   31.8730   48.8060 C   0  0  0  0  0  0  0  0  0  0  0  0
   47.3240   31.5250   48.2150 C   0  0  0  0  0  0  0  0  0  0  0  0
   47.3460   32.1020   47.0470 O   0  0  0  0  0  0  0  0  0  0  0  0
   46.6480   34.1220   43.5200 C   0  0  0  0  0  0  0  0  0  0  0  0
   45.5140   34.7960   43.9750 C   0  0  0  0  0  0  0  0  0  0  0  0
   45.2440   34.3730   45.2790 C   0  0  0  0  0  0  0  0  0  0  0  0
   46.1990   33.4710   45.5820 N   0  0  0  0  0  0  0  0  0  0  0  0
   47.0440   33.3050   44.5530 N   0  0  0  0  0  0  0  0  0  0  0  0
   48.6780   35.4210   40.7580 C   0  0  0  0  0  0  0  0  0  0  0  0
   48.1490   34.7500   39.6640 C   0  0  0  0  0  0  0  0  0  0  0  0
   47.0900   33.8470   39.8850 C   0  0  0  0  0  0  0  0  0  0  0  0
   46.6200   33.6650   41.1630 N   0  0  0  0  0  0  0  0  0  0  0  0
   47.1840   34.3530   42.1800 C   0  0  0  0  0  0  0  0  0  0  0  0
   48.1900   35.2160   42.0070 N   0  0  0  0  0  0  0  0  0  0  0  0
   48.3120   30.6790   48.8180 N   0  0  0  0  0  0  0  0  0  0  0  0
   49.2000   30.8850   49.8500 C   0  0  0  0  0  0  0  0  0  0  0  0
   49.9210   29.7220   50.0030 C   0  0  0  0  0  0  0  0  0  0  0  0
   49.4670   28.8370   49.0710 N   0  0  0  0  0  0  0  0  0  0  0  0
   48.4940   29.4240   48.3610 C   0  0  0  0  0  0  0  0  0  0  0  0
   47.7560   28.7240   47.2440 C   0  0  1  0  0  0  0  0  0  0  0  0
   47.4850   27.2040   47.5430 C   0  0  0  0  0  0  0  0  0  0  0  0
   46.4090   28.2210   47.4350 C   0  0  2  0  0  0  0  0  0  0  0  0
   45.5470   28.0820   46.2140 C   0  0  0  0  0  0  0  0  0  0  0  0
   44.2420   28.5850   46.2250 C   0  0  0  0  0  0  0  0  0  0  0  0
   43.3770   28.5010   45.1480 C   0  0  0  0  0  0  0  0  0  0  0  0
   43.8910   27.8750   44.0270 C   0  0  0  0  0  0  0  0  0  0  0  0
   45.1760   27.3720   43.9940 C   0  0  0  0  0  0  0  0  0  0  0  0
   45.9840   27.4830   45.0870 N   0  0  0  0  0  0  0  0  0  0  0  0
   44.4826   33.1621   48.0528 H   0  0  0  0  0  0  0  0  0  0  0  0
   45.7928   31.5620   49.8013 H   0  0  0  0  0  0  0  0  0  0  0  0
   44.9318   35.5345   43.4043 H   0  0  0  0  0  0  0  0  0  0  0  0
   44.4201   34.7077   45.9264 H   0  0  0  0  0  0  0  0  0  0  0  0
   49.5058   36.1300   40.6098 H   0  0  0  0  0  0  0  0  0  0  0  0
   48.5457   34.9186   38.6520 H   0  0  0  0  0  0  0  0  0  0  0  0
   46.6450   33.2945   39.0443 H   0  0  0  0  0  0  0  0  0  0  0  0
   49.3123   31.8058   50.4412 H   0  0  0  0  0  0  0  0  0  0  0  0
   50.7163   29.5406   50.7409 H   0  0  0  0  0  0  0  0  0  0  0  0
   48.2078   29.3510   46.4612 H   0  0  0  0  0  0  0  0  0  0  0  0
   47.6197   26.4466   46.7567 H   0  0  0  0  0  0  0  0  0  0  0  0
   47.8139   26.4674   48.2908 H   0  0  0  0  0  0  0  0  0  0  0  0
   45.5920   28.5472   48.0954 H   0  0  0  0  0  0  0  0  0  0  0  0
   43.8828   29.0752   47.1418 H   0  0  0  0  0  0  0  0  0  0  0  0
   42.3538   28.9034   45.1812 H   0  0  0  0  0  0  0  0  0  0  0  0
   43.2563   27.7749   43.1342 H   0  0  0  0  0  0  0  0  0  0  0  0
   45.5493   26.8803   43.0836 H   0  0  0  0  0  0  0  0  0  0  0  0
  1  5  1  0
  1  2  2  0
  2  3  1  0
  4  3  2  0
  4 17  1  0
  5  4  1  0
  6  7  1  0
  6 10  2  0
  7  8  2  0
  8  9  1  0
  9  1  1  0
 10  9  1  0
 11 16  2  0
 12 13  2  0
 12 11  1  0
 13 14  1  0
 14 15  2  0
 15  6  1  0
 16 15  1  0
 17 18  1  0
 18 19  2  0
 20 19  1  0
 21 17  1  0
 21 20  2  0
 22 24  1  0
 22 23  1  0
 22 21  1  0
 24 23  1  0
 25 26  2  0
 25 24  1  0
 27 26  1  0
 28 27  2  0
 29 28  1  0
 29 30  2  0
 30 25  1  0
  2 31  1  0
  3 32  1  0
  7 33  1  0
  8 34  1  0
 11 35  1  0
 12 36  1  0
 13 37  1  0
 18 38  1  0
 19 39  1  0
 22 40  1  6
 23 41  1  0
 23 42  1  0
 24 43  1  1
 26 44  1  0
 27 45  1  0
 28 46  1  0
 29 47  1  0
M  ISO  8  31  14  32  14  33  14  34  14  35  14  36  14  37  14  38  14
M  ISO  8  39  14  40  13  41  13  42  13  43  13  44  14  45  14  46  14
M  ISO  1  47  14
M  END
>  <minimizedAffinity>  (1) 
-6.16573954

>  <minimizedRMSD>  (1) 
0.515458286

$$$$
