
     RDKit          3D

 54 59  0  0  1  0  0  0  0  0999 V2000
   46.3680   32.6550   46.9160 C   0  0  0  0  0  0  0  0  0  0  0  0
   45.5340   32.4850   47.9980 C   0  0  0  0  0  0  0  0  0  0  0  0
   46.2470   31.6850   48.8880 C   0  0  0  0  0  0  0  0  0  0  0  0
   47.4530   31.4140   48.3090 C   0  0  0  0  0  0  0  0  0  0  0  0
   47.4550   32.0190   47.1490 O   0  0  0  0  0  0  0  0  0  0  0  0
   46.6730   34.0390   43.6440 C   0  0  0  0  0  0  0  0  0  0  0  0
   45.5510   34.6830   44.1180 C   0  0  0  0  0  0  0  0  0  0  0  0
   45.2980   34.2380   45.4130 C   0  0  0  0  0  0  0  0  0  0  0  0
   46.2690   33.3410   45.6890 N   0  0  0  0  0  0  0  0  0  0  0  0
   47.0940   33.2070   44.6580 N   0  0  0  0  0  0  0  0  0  0  0  0
   48.6940   35.3890   40.8820 C   0  0  0  0  0  0  0  0  0  0  0  0
   48.1470   34.7350   39.7810 C   0  0  0  0  0  0  0  0  0  0  0  0
   47.0860   33.8320   39.9910 C   0  0  0  0  0  0  0  0  0  0  0  0
   46.6210   33.6240   41.2780 N   0  0  0  0  0  0  0  0  0  0  0  0
   47.1990   34.2930   42.3000 C   0  0  0  0  0  0  0  0  0  0  0  0
   48.2160   35.1620   42.1330 N   0  0  0  0  0  0  0  0  0  0  0  0
   48.4820   30.6130   48.9140 N   0  0  0  0  0  0  0  0  0  0  0  0
   49.3270   30.8540   49.9660 C   0  0  0  0  0  0  0  0  0  0  0  0
   50.1170   29.7280   50.1090 C   0  0  0  0  0  0  0  0  0  0  0  0
   49.7360   28.8370   49.1490 N   0  0  0  0  0  0  0  0  0  0  0  0
   48.7460   29.3880   48.4340 C   0  0  0  0  0  0  0  0  0  0  0  0
   48.0760   28.6660   47.2820 C   0  0  1  0  0  0  0  0  0  0  0  0
   47.7460   27.1620   47.5930 C   0  0  0  0  0  0  0  0  0  0  0  0
   46.7040   28.2040   47.3990 C   0  0  2  0  0  0  0  0  0  0  0  0
   45.8680   28.2230   46.1330 C   0  0  0  0  0  0  0  0  0  0  0  0
   46.4010   29.2300   45.1360 C   0  0  0  0  0  0  0  0  0  0  0  0
   45.3340   30.0430   44.4760 C   0  0  0  0  0  0  0  0  0  0  0  0
   44.1070   29.2540   44.1210 C   0  0  0  0  0  0  0  0  0  0  0  0
   43.5530   28.4770   45.2760 C   0  0  0  0  0  0  0  0  0  0  0  0
   44.4370   28.5250   46.5110 C   0  0  0  0  0  0  0  0  0  0  0  0
   44.5214   32.8934   48.1312 H   0  0  0  0  0  0  0  0  0  0  0  0
   45.9026   31.3369   49.8730 H   0  0  0  0  0  0  0  0  0  0  0  0
   44.9549   35.4245   43.5659 H   0  0  0  0  0  0  0  0  0  0  0  0
   44.4771   34.5521   46.0743 H   0  0  0  0  0  0  0  0  0  0  0  0
   49.5227   36.0976   40.7369 H   0  0  0  0  0  0  0  0  0  0  0  0
   48.5351   34.9195   38.7684 H   0  0  0  0  0  0  0  0  0  0  0  0
   46.6327   33.2988   39.1424 H   0  0  0  0  0  0  0  0  0  0  0  0
   49.3687   31.7669   50.5783 H   0  0  0  0  0  0  0  0  0  0  0  0
   50.9075   29.5783   50.8592 H   0  0  0  0  0  0  0  0  0  0  0  0
   48.6015   29.2553   46.5161 H   0  0  0  0  0  0  0  0  0  0  0  0
   47.9082   26.3850   46.8314 H   0  0  0  0  0  0  0  0  0  0  0  0
   48.0088   26.4334   48.3741 H   0  0  0  0  0  0  0  0  0  0  0  0
   45.8419   28.4957   48.0168 H   0  0  0  0  0  0  0  0  0  0  0  0
   45.9190   27.2401   45.6417 H   0  0  0  0  0  0  0  0  0  0  0  0
   47.0827   29.9136   45.6632 H   0  0  0  0  0  0  0  0  0  0  0  0
   46.9087   28.6607   44.3434 H   0  0  0  0  0  0  0  0  0  0  0  0
   45.0405   30.8523   45.1608 H   0  0  0  0  0  0  0  0  0  0  0  0
   45.7558   30.4229   43.5338 H   0  0  0  0  0  0  0  0  0  0  0  0
   43.3338   29.9506   43.7647 H   0  0  0  0  0  0  0  0  0  0  0  0
   44.3964   28.5285   43.3465 H   0  0  0  0  0  0  0  0  0  0  0  0
   42.5677   28.8916   45.5354 H   0  0  0  0  0  0  0  0  0  0  0  0
   43.4897   27.4250   44.9609 H   0  0  0  0  0  0  0  0  0  0  0  0
   44.0870   27.7783   47.2390 H   0  0  0  0  0  0  0  0  0  0  0  0
   44.3847   29.5304   46.9541 H   0  0  0  0  0  0  0  0  0  0  0  0
  1  5  1  0
  1  2  2  0
  2  3  1  0
  4  3  2  0
  4 17  1  0
  5  4  1  0
  6  7  1  0
  6 10  2  0
  7  8  2  0
  8  9  1  0
  9  1  1  0
 10  9  1  0
 11 16  2  0
 12 13  2  0
 12 11  1  0
 13 14  1  0
 14 15  2  0
 15  6  1  0
 16 15  1  0
 17 18  1  0
 18 19  2  0
 20 19  1  0
 21 17  1  0
 21 20  2  0
 22 24  1  0
 22 23  1  0
 22 21  1  0
 24 23  1  0
 25 30  1  0
 25 24  1  0
 26 25  1  0
 27 26  1  0
 28 27  1  0
 28 29  1  0
 29 30  1  0
  2 31  1  0
  3 32  1  0
  7 33  1  0
  8 34  1  0
 11 35  1  0
 12 36  1  0
 13 37  1  0
 18 38  1  0
 19 39  1  0
 22 40  1  6
 23 41  1  0
 23 42  1  0
 24 43  1  1
 25 44  1  0
 26 45  1  0
 26 46  1  0
 27 47  1  0
 27 48  1  0
 28 49  1  0
 28 50  1  0
 29 51  1  0
 29 52  1  0
 30 53  1  0
 30 54  1  0
M  ISO  8  31  14  32  14  33  14  34  14  35  14  36  14  37  14  38  14
M  ISO  8  39  14  40  13  41  13  42  13  43  13  44  13  45  13  46  13
M  ISO  8  47  13  48  13  49  13  50  13  51  13  52  13  53  13  54  13
M  END
>  <minimizedAffinity>  (1) 
-6.29139996

>  <minimizedRMSD>  (1) 
0.189510047

$$$$
