
     RDKit          3D

 40 44  0  0  1  0  0  0  0  0999 V2000
   46.3160   32.7170   46.8820 C   0  0  0  0  0  0  0  0  0  0  0  0
   45.4980   32.5850   47.9760 C   0  0  0  0  0  0  0  0  0  0  0  0
   46.1810   31.7770   48.8560 C   0  0  0  0  0  0  0  0  0  0  0  0
   47.3720   31.4540   48.2730 C   0  0  0  0  0  0  0  0  0  0  0  0
   47.3930   32.0400   47.1080 O   0  0  0  0  0  0  0  0  0  0  0  0
   46.6590   34.0730   43.5950 C   0  0  0  0  0  0  0  0  0  0  0  0
   45.5290   34.7370   44.0560 C   0  0  0  0  0  0  0  0  0  0  0  0
   45.2630   34.3010   45.3610 C   0  0  0  0  0  0  0  0  0  0  0  0
   46.2320   33.3980   45.6390 N   0  0  0  0  0  0  0  0  0  0  0  0
   47.0640   33.2450   44.6180 N   0  0  0  0  0  0  0  0  0  0  0  0
   48.6980   35.3990   40.8450 C   0  0  0  0  0  0  0  0  0  0  0  0
   48.1570   34.7440   39.7390 C   0  0  0  0  0  0  0  0  0  0  0  0
   47.0940   33.8510   39.9540 C   0  0  0  0  0  0  0  0  0  0  0  0
   46.6240   33.6530   41.2340 N   0  0  0  0  0  0  0  0  0  0  0  0
   47.1920   34.3160   42.2540 C   0  0  0  0  0  0  0  0  0  0  0  0
   48.2100   35.1790   42.0930 N   0  0  0  0  0  0  0  0  0  0  0  0
   48.3800   30.6190   48.8750 N   0  0  0  0  0  0  0  0  0  0  0  0
   49.1830   30.7900   49.9750 C   0  0  0  0  0  0  0  0  0  0  0  0
   49.9690   29.6630   50.0840 C   0  0  0  0  0  0  0  0  0  0  0  0
   49.6310   28.8390   49.0580 N   0  0  0  0  0  0  0  0  0  0  0  0
   48.6670   29.4240   48.3280 C   0  0  0  0  0  0  0  0  0  0  0  0
   48.0530   28.7860   47.1170 C   0  0  1  0  0  0  0  0  0  0  0  0
   47.8220   27.2450   47.2580 C   0  0  0  0  0  0  0  0  0  0  0  0
   46.7170   28.2390   47.1320 C   0  0  1  0  0  0  0  0  0  0  0  0
   45.8100   28.2160   48.2280 N   0  0  0  0  0  0  0  0  0  0  0  0
   44.5033   33.0321   48.1196 H   0  0  0  0  0  0  0  0  0  0  0  0
   45.8314   31.4514   49.8468 H   0  0  0  0  0  0  0  0  0  0  0  0
   44.9432   35.4784   43.4928 H   0  0  0  0  0  0  0  0  0  0  0  0
   44.4423   34.6236   46.0186 H   0  0  0  0  0  0  0  0  0  0  0  0
   49.5312   36.1033   40.7045 H   0  0  0  0  0  0  0  0  0  0  0  0
   48.5512   34.9215   38.7275 H   0  0  0  0  0  0  0  0  0  0  0  0
   46.6407   33.3143   39.1075 H   0  0  0  0  0  0  0  0  0  0  0  0
   49.1967   31.6629   50.6442 H   0  0  0  0  0  0  0  0  0  0  0  0
   50.7274   29.4675   50.8564 H   0  0  0  0  0  0  0  0  0  0  0  0
   48.5515   29.4908   46.4353 H   0  0  0  0  0  0  0  0  0  0  0  0
   48.0606   26.5647   46.4272 H   0  0  0  0  0  0  0  0  0  0  0  0
   48.1094   26.4559   47.9684 H   0  0  0  0  0  0  0  0  0  0  0  0
   45.8880   28.4837   46.4516 H   0  0  0  0  0  0  0  0  0  0  0  0
   46.3389   28.2294   49.1117 H   0  0  0  0  0  0  0  0  0  0  0  0
   45.1959   29.0417   48.1829 H   0  0  0  0  0  0  0  0  0  0  0  0
  1  5  1  0
  1  2  2  0
  2  3  1  0
  4  3  2  0
  4 17  1  0
  5  4  1  0
  6  7  1  0
  6 10  2  0
  7  8  2  0
  8  9  1  0
  9  1  1  0
 10  9  1  0
 11 16  2  0
 12 13  2  0
 12 11  1  0
 13 14  1  0
 14 15  2  0
 15  6  1  0
 16 15  1  0
 17 18  1  0
 18 19  2  0
 20 19  1  0
 21 17  1  0
 21 20  2  0
 22 24  1  0
 22 23  1  0
 22 21  1  0
 24 23  1  0
 24 25  1  0
  2 26  1  0
  3 27  1  0
  7 28  1  0
  8 29  1  0
 11 30  1  0
 12 31  1  0
 13 32  1  0
 18 33  1  0
 19 34  1  0
 22 35  1  6
 23 36  1  0
 23 37  1  0
 24 38  1  6
 25 39  1  0
 25 40  1  0
M  ISO  8  26  14  27  14  28  14  29  14  30  14  31  14  32  14  33  14
M  ISO  7  34  14  35  13  36  13  37  13  38  13  39   5  40   5
M  END
>  <minimizedAffinity>  (1) 
-6.10612965

>  <minimizedRMSD>  (1) 
0.139751688

$$$$
