
     RDKit          3D

 50 54  0  0  1  0  0  0  0  0999 V2000
   46.3800   32.6910   46.9400 C   0  0  0  0  0  0  0  0  0  0  0  0
   45.5460   32.5620   48.0420 C   0  0  0  0  0  0  0  0  0  0  0  0
   46.2590   31.7620   48.9200 C   0  0  0  0  0  0  0  0  0  0  0  0
   47.4680   31.4510   48.3200 C   0  0  0  0  0  0  0  0  0  0  0  0
   47.4540   32.0350   47.1680 O   0  0  0  0  0  0  0  0  0  0  0  0
   46.6590   34.0390   43.6580 C   0  0  0  0  0  0  0  0  0  0  0  0
   45.5330   34.6900   44.1260 C   0  0  0  0  0  0  0  0  0  0  0  0
   45.2850   34.2610   45.4320 C   0  0  0  0  0  0  0  0  0  0  0  0
   46.2700   33.3650   45.7050 N   0  0  0  0  0  0  0  0  0  0  0  0
   47.0960   33.2160   44.6710 N   0  0  0  0  0  0  0  0  0  0  0  0
   48.6720   35.3630   40.8760 C   0  0  0  0  0  0  0  0  0  0  0  0
   48.1050   34.7080   39.7880 C   0  0  0  0  0  0  0  0  0  0  0  0
   47.0410   33.8180   40.0110 C   0  0  0  0  0  0  0  0  0  0  0  0
   46.5880   33.6200   41.2950 N   0  0  0  0  0  0  0  0  0  0  0  0
   47.1740   34.2810   42.3070 C   0  0  0  0  0  0  0  0  0  0  0  0
   48.1960   35.1410   42.1300 N   0  0  0  0  0  0  0  0  0  0  0  0
   48.4810   30.6340   48.9300 N   0  0  0  0  0  0  0  0  0  0  0  0
   49.3140   30.8390   49.9890 C   0  0  0  0  0  0  0  0  0  0  0  0
   50.0760   29.7040   50.1270 C   0  0  0  0  0  0  0  0  0  0  0  0
   49.6850   28.8450   49.1490 N   0  0  0  0  0  0  0  0  0  0  0  0
   48.7120   29.4220   48.4260 C   0  0  0  0  0  0  0  0  0  0  0  0
   48.0770   28.7110   47.2560 C   0  0  1  0  0  0  0  0  0  0  0  0
   47.5430   27.2910   47.5600 C   0  0  0  0  0  0  0  0  0  0  0  0
   46.6280   28.4600   47.2880 C   0  0  2  0  0  0  0  0  0  0  0  0
   45.7860   28.3050   46.0820 C   0  0  0  0  0  0  0  0  0  0  0  0
   45.7670   26.8320   45.7050 C   0  0  0  0  0  0  0  0  0  0  0  0
   46.2500   29.0410   44.8590 C   0  0  0  0  0  0  0  0  0  0  0  0
   44.3250   28.6700   46.3330 C   0  0  0  0  0  0  0  0  0  0  0  0
   44.5457   32.9965   48.1856 H   0  0  0  0  0  0  0  0  0  0  0  0
   45.9249   31.4329   49.9150 H   0  0  0  0  0  0  0  0  0  0  0  0
   44.9336   35.4221   43.5649 H   0  0  0  0  0  0  0  0  0  0  0  0
   44.4684   34.5797   46.0965 H   0  0  0  0  0  0  0  0  0  0  0  0
   49.5072   36.0620   40.7216 H   0  0  0  0  0  0  0  0  0  0  0  0
   48.4832   34.8838   38.7701 H   0  0  0  0  0  0  0  0  0  0  0  0
   46.5754   33.2855   39.1686 H   0  0  0  0  0  0  0  0  0  0  0  0
   49.3664   31.7421   50.6148 H   0  0  0  0  0  0  0  0  0  0  0  0
   50.8536   29.5249   50.8841 H   0  0  0  0  0  0  0  0  0  0  0  0
   48.7522   29.1693   46.5184 H   0  0  0  0  0  0  0  0  0  0  0  0
   47.6517   26.4849   46.8194 H   0  0  0  0  0  0  0  0  0  0  0  0
   47.6677   26.5537   48.3668 H   0  0  0  0  0  0  0  0  0  0  0  0
   45.8287   29.0143   47.8018 H   0  0  0  0  0  0  0  0  0  0  0  0
   45.7591   26.2197   46.6188 H   0  0  0  0  0  0  0  0  0  0  0  0
   44.8660   26.6169   45.1117 H   0  0  0  0  0  0  0  0  0  0  0  0
   46.6621   26.5938   45.1117 H   0  0  0  0  0  0  0  0  0  0  0  0
   46.8140   29.9357   45.1614 H   0  0  0  0  0  0  0  0  0  0  0  0
   46.8978   28.3844   44.2596 H   0  0  0  0  0  0  0  0  0  0  0  0
   45.3783   29.3424   44.2596 H   0  0  0  0  0  0  0  0  0  0  0  0
   44.1395   28.7163   47.4163 H   0  0  0  0  0  0  0  0  0  0  0  0
   44.1091   29.6497   45.8818 H   0  0  0  0  0  0  0  0  0  0  0  0
   43.6737   27.9070   45.8818 H   0  0  0  0  0  0  0  0  0  0  0  0
  1  5  1  0
  1  2  2  0
  2  3  1  0
  4  3  2  0
  4 17  1  0
  5  4  1  0
  6  7  1  0
  6 10  2  0
  7  8  2  0
  8  9  1  0
  9  1  1  0
 10  9  1  0
 11 16  2  0
 12 13  2  0
 12 11  1  0
 13 14  1  0
 14 15  2  0
 15  6  1  0
 16 15  1  0
 17 18  1  0
 18 19  2  0
 20 19  1  0
 21 17  1  0
 21 20  2  0
 22 24  1  0
 22 23  1  0
 22 21  1  0
 24 23  1  0
 25 28  1  0
 25 24  1  0
 26 25  1  0
 27 25  1  0
  2 29  1  0
  3 30  1  0
  7 31  1  0
  8 32  1  0
 11 33  1  0
 12 34  1  0
 13 35  1  0
 18 36  1  0
 19 37  1  0
 22 38  1  6
 23 39  1  0
 23 40  1  0
 24 41  1  1
 26 42  1  0
 26 43  1  0
 26 44  1  0
 27 45  1  0
 27 46  1  0
 27 47  1  0
 28 48  1  0
 28 49  1  0
 28 50  1  0
M  ISO  8  29  14  30  14  31  14  32  14  33  14  34  14  35  14  36  14
M  ISO  8  37  14  38  13  39  13  40  13  41  13  42   8  43   8  44   8
M  ISO  6  45   8  46   8  47   8  48   8  49   8  50   8
M  END
>  <minimizedAffinity>  (1) 
-6.02059364

>  <minimizedRMSD>  (1) 
0.11375729

$$$$
