
     RDKit          3D

 45 50  0  0  1  0  0  0  0  0999 V2000
   46.3180   32.7490   46.8780 C   0  0  0  0  0  0  0  0  0  0  0  0
   45.5090   32.6510   47.9930 C   0  0  0  0  0  0  0  0  0  0  0  0
   46.1970   31.8200   48.8670 C   0  0  0  0  0  0  0  0  0  0  0  0
   47.3650   31.4580   48.2590 C   0  0  0  0  0  0  0  0  0  0  0  0
   47.3690   32.0430   47.0910 O   0  0  0  0  0  0  0  0  0  0  0  0
   46.6520   34.0840   43.5840 C   0  0  0  0  0  0  0  0  0  0  0  0
   45.5220   34.7490   44.0470 C   0  0  0  0  0  0  0  0  0  0  0  0
   45.2550   34.3250   45.3550 C   0  0  0  0  0  0  0  0  0  0  0  0
   46.2240   33.4220   45.6420 N   0  0  0  0  0  0  0  0  0  0  0  0
   47.0520   33.2690   44.6160 N   0  0  0  0  0  0  0  0  0  0  0  0
   48.6780   35.3970   40.8250 C   0  0  0  0  0  0  0  0  0  0  0  0
   48.1320   34.7390   39.7220 C   0  0  0  0  0  0  0  0  0  0  0  0
   47.0680   33.8470   39.9430 C   0  0  0  0  0  0  0  0  0  0  0  0
   46.6040   33.6530   41.2230 N   0  0  0  0  0  0  0  0  0  0  0  0
   47.1770   34.3210   42.2420 C   0  0  0  0  0  0  0  0  0  0  0  0
   48.1970   35.1830   42.0760 N   0  0  0  0  0  0  0  0  0  0  0  0
   48.3500   30.6060   48.8400 N   0  0  0  0  0  0  0  0  0  0  0  0
   49.2350   30.7930   49.8860 C   0  0  0  0  0  0  0  0  0  0  0  0
   49.9630   29.6280   50.0110 C   0  0  0  0  0  0  0  0  0  0  0  0
   49.5190   28.7610   49.0550 N   0  0  0  0  0  0  0  0  0  0  0  0
   48.5400   29.3630   48.3490 C   0  0  0  0  0  0  0  0  0  0  0  0
   47.8200   28.6960   47.2190 C   0  0  1  0  0  0  0  0  0  0  0  0
   47.4550   27.1940   47.5140 C   0  0  0  0  0  0  0  0  0  0  0  0
   46.4400   28.2690   47.3540 C   0  0  2  0  0  0  0  0  0  0  0  0
   45.5670   28.1330   46.2220 N   0  0  0  0  0  0  0  0  0  0  0  0
   44.3070   28.5970   46.1890 N   0  0  0  0  0  0  0  0  0  0  0  0
   43.7360   28.3330   45.0270 C   0  0  0  0  0  0  0  0  0  0  0  0
   44.6410   27.6610   44.2320 C   0  0  0  0  0  0  0  0  0  0  0  0
   45.7680   27.5610   45.0230 C   0  0  0  0  0  0  0  0  0  0  0  0
   44.5310   33.1281   48.1539 H   0  0  0  0  0  0  0  0  0  0  0  0
   45.8620   31.5095   49.8677 H   0  0  0  0  0  0  0  0  0  0  0  0
   44.9348   35.4862   43.4798 H   0  0  0  0  0  0  0  0  0  0  0  0
   44.4344   34.6545   46.0093 H   0  0  0  0  0  0  0  0  0  0  0  0
   49.5112   36.1000   40.6782 H   0  0  0  0  0  0  0  0  0  0  0  0
   48.5229   34.9133   38.7087 H   0  0  0  0  0  0  0  0  0  0  0  0
   46.6107   33.3090   39.0995 H   0  0  0  0  0  0  0  0  0  0  0  0
   49.3387   31.6988   50.5015 H   0  0  0  0  0  0  0  0  0  0  0  0
   50.7568   29.4332   50.7471 H   0  0  0  0  0  0  0  0  0  0  0  0
   48.3395   29.2903   46.4528 H   0  0  0  0  0  0  0  0  0  0  0  0
   47.5821   26.4246   46.7382 H   0  0  0  0  0  0  0  0  0  0  0  0
   47.7112   26.4462   48.2789 H   0  0  0  0  0  0  0  0  0  0  0  0
   45.6267   28.6839   47.9675 H   0  0  0  0  0  0  0  0  0  0  0  0
   42.7090   28.6042   44.7410 H   0  0  0  0  0  0  0  0  0  0  0  0
   44.4979   27.2908   43.2061 H   0  0  0  0  0  0  0  0  0  0  0  0
   46.7060   27.0773   44.7128 H   0  0  0  0  0  0  0  0  0  0  0  0
  1  5  1  0
  1  2  2  0
  2  3  1  0
  4 17  1  0
  4  3  2  0
  5  4  1  0
  6  7  1  0
  6 10  2  0
  7  8  2  0
  8  9  1  0
  9  1  1  0
 10  9  1  0
 11 16  2  0
 12 13  2  0
 12 11  1  0
 13 14  1  0
 14 15  2  0
 15  6  1  0
 16 15  1  0
 17 18  1  0
 18 19  2  0
 20 19  1  0
 21 17  1  0
 21 20  2  0
 22 24  1  0
 22 23  1  0
 22 21  1  0
 24 23  1  0
 25 24  1  0
 26 25  1  0
 27 26  2  0
 28 29  2  0
 28 27  1  0
 29 25  1  0
  2 30  1  0
  3 31  1  0
  7 32  1  0
  8 33  1  0
 11 34  1  0
 12 35  1  0
 13 36  1  0
 18 37  1  0
 19 38  1  0
 22 39  1  6
 23 40  1  0
 23 41  1  0
 24 42  1  1
 27 43  1  0
 28 44  1  0
 29 45  1  0
M  ISO  8  30  14  31  14  32  14  33  14  34  14  35  14  36  14  37  14
M  ISO  8  38  14  39  13  40  13  41  13  42  13  43  14  44  14  45  14
M  END
>  <minimizedAffinity>  (1) 
-5.96983433

>  <minimizedRMSD>  (1) 
0.419579625

$$$$
