
     RDKit          3D

 45 50  0  0  1  0  0  0  0  0999 V2000
   46.2660   32.8120   46.7750 C   0  0  0  0  0  0  0  0  0  0  0  0
   45.4250   32.6770   47.8570 C   0  0  0  0  0  0  0  0  0  0  0  0
   46.1130   31.8770   48.7580 C   0  0  0  0  0  0  0  0  0  0  0  0
   47.3170   31.5660   48.1920 C   0  0  0  0  0  0  0  0  0  0  0  0
   47.3380   32.1530   47.0240 O   0  0  0  0  0  0  0  0  0  0  0  0
   46.6420   34.1470   43.4880 C   0  0  0  0  0  0  0  0  0  0  0  0
   45.5160   34.8090   43.9300 C   0  0  0  0  0  0  0  0  0  0  0  0
   45.2320   34.3850   45.2330 C   0  0  0  0  0  0  0  0  0  0  0  0
   46.1970   33.4820   45.5320 N   0  0  0  0  0  0  0  0  0  0  0  0
   47.0380   33.3270   44.5180 N   0  0  0  0  0  0  0  0  0  0  0  0
   48.6990   35.4440   40.7290 C   0  0  0  0  0  0  0  0  0  0  0  0
   48.1740   34.7630   39.6340 C   0  0  0  0  0  0  0  0  0  0  0  0
   47.1260   33.8700   39.8500 C   0  0  0  0  0  0  0  0  0  0  0  0
   46.6390   33.6860   41.1310 N   0  0  0  0  0  0  0  0  0  0  0  0
   47.1940   34.3780   42.1510 C   0  0  0  0  0  0  0  0  0  0  0  0
   48.2020   35.2430   41.9770 N   0  0  0  0  0  0  0  0  0  0  0  0
   48.3110   30.7540   48.8160 N   0  0  0  0  0  0  0  0  0  0  0  0
   49.1890   30.9920   49.8520 C   0  0  0  0  0  0  0  0  0  0  0  0
   49.9250   29.8490   50.0300 C   0  0  0  0  0  0  0  0  0  0  0  0
   49.4990   28.9340   49.1150 N   0  0  0  0  0  0  0  0  0  0  0  0
   48.5160   29.4910   48.3790 C   0  0  0  0  0  0  0  0  0  0  0  0
   47.8060   28.7560   47.2760 C   0  0  1  0  0  0  0  0  0  0  0  0
   47.6070   27.2270   47.5760 C   0  0  0  0  0  0  0  0  0  0  0  0
   46.4840   28.1970   47.4890 C   0  0  2  0  0  0  0  0  0  0  0  0
   45.5120   27.9650   46.3830 C   0  0  0  0  0  0  0  0  0  0  0  0
   44.2030   27.3430   46.5290 C   0  0  0  0  0  0  0  0  0  0  0  0
   44.3110   28.8620   46.2150 C   0  0  0  0  0  0  0  0  0  0  0  0
   44.4218   33.1108   47.9806 H   0  0  0  0  0  0  0  0  0  0  0  0
   45.7549   31.5528   49.7463 H   0  0  0  0  0  0  0  0  0  0  0  0
   44.9378   35.5469   43.3546 H   0  0  0  0  0  0  0  0  0  0  0  0
   44.4030   34.7142   45.8766 H   0  0  0  0  0  0  0  0  0  0  0  0
   49.5265   36.1536   40.5816 H   0  0  0  0  0  0  0  0  0  0  0  0
   48.5764   34.9258   38.6233 H   0  0  0  0  0  0  0  0  0  0  0  0
   46.6890   33.3151   39.0067 H   0  0  0  0  0  0  0  0  0  0  0  0
   49.2817   31.9245   50.4280 H   0  0  0  0  0  0  0  0  0  0  0  0
   50.7175   29.6979   50.7777 H   0  0  0  0  0  0  0  0  0  0  0  0
   48.2231   29.3976   46.4858 H   0  0  0  0  0  0  0  0  0  0  0  0
   47.7610   26.4774   46.7858 H   0  0  0  0  0  0  0  0  0  0  0  0
   47.9809   26.5045   48.3164 H   0  0  0  0  0  0  0  0  0  0  0  0
   45.6739   28.5348   48.1520 H   0  0  0  0  0  0  0  0  0  0  0  0
   46.3851   27.6943   45.7711 H   0  0  0  0  0  0  0  0  0  0  0  0
   43.8359   26.6472   45.7602 H   0  0  0  0  0  0  0  0  0  0  0  0
   43.7095   26.7429   47.3077 H   0  0  0  0  0  0  0  0  0  0  0  0
   44.0608   29.6102   46.9816 H   0  0  0  0  0  0  0  0  0  0  0  0
   43.9287   29.5445   45.4416 H   0  0  0  0  0  0  0  0  0  0  0  0
  1  5  1  0
  1  2  2  0
  2  3  1  0
  4  3  2  0
  4 17  1  0
  5  4  1  0
  6  7  1  0
  6 10  2  0
  7  8  2  0
  8  9  1  0
  9  1  1  0
 10  9  1  0
 11 16  2  0
 12 13  2  0
 12 11  1  0
 13 14  1  0
 14 15  2  0
 15  6  1  0
 16 15  1  0
 17 18  1  0
 18 19  2  0
 20 19  1  0
 21 17  1  0
 21 20  2  0
 22 24  1  0
 22 23  1  0
 22 21  1  0
 24 23  1  0
 25 26  1  0
 25 24  1  0
 27 25  1  0
 27 26  1  0
  2 28  1  0
  3 29  1  0
  7 30  1  0
  8 31  1  0
 11 32  1  0
 12 33  1  0
 13 34  1  0
 18 35  1  0
 19 36  1  0
 22 37  1  6
 23 38  1  0
 23 39  1  0
 24 40  1  1
 25 41  1  0
 26 42  1  0
 26 43  1  0
 27 44  1  0
 27 45  1  0
M  ISO  8  28  14  29  14  30  14  31  14  32  14  33  14  34  14  35  14
M  ISO  8  36  14  37  13  38  13  39  13  40  13  41  13  42  13  43  13
M  ISO  2  44  13  45  13
M  END
>  <minimizedAffinity>  (1) 
-6.02057314

>  <minimizedRMSD>  (1) 
0.631666422

$$$$
