
     RDKit          3D

 39 43  0  0  1  0  0  0  0  0999 V2000
   46.3690   32.6600   46.9480 C   0  0  0  0  0  0  0  0  0  0  0  0
   45.5430   32.5000   48.0300 C   0  0  0  0  0  0  0  0  0  0  0  0
   46.2530   31.6990   48.9230 C   0  0  0  0  0  0  0  0  0  0  0  0
   47.4560   31.4220   48.3400 C   0  0  0  0  0  0  0  0  0  0  0  0
   47.4600   32.0180   47.1780 O   0  0  0  0  0  0  0  0  0  0  0  0
   46.6690   34.0280   43.6680 C   0  0  0  0  0  0  0  0  0  0  0  0
   45.5390   34.6830   44.1470 C   0  0  0  0  0  0  0  0  0  0  0  0
   45.2960   34.2410   45.4430 C   0  0  0  0  0  0  0  0  0  0  0  0
   46.2650   33.3420   45.7210 N   0  0  0  0  0  0  0  0  0  0  0  0
   47.0950   33.1970   44.6800 N   0  0  0  0  0  0  0  0  0  0  0  0
   48.6770   35.3630   40.8940 C   0  0  0  0  0  0  0  0  0  0  0  0
   48.1210   34.7110   39.7980 C   0  0  0  0  0  0  0  0  0  0  0  0
   47.0690   33.8260   40.0170 C   0  0  0  0  0  0  0  0  0  0  0  0
   46.6130   33.6210   41.3010 N   0  0  0  0  0  0  0  0  0  0  0  0
   47.1880   34.2780   42.3200 C   0  0  0  0  0  0  0  0  0  0  0  0
   48.1970   35.1330   42.1480 N   0  0  0  0  0  0  0  0  0  0  0  0
   48.4790   30.6240   48.9370 N   0  0  0  0  0  0  0  0  0  0  0  0
   49.3030   30.8320   50.0270 C   0  0  0  0  0  0  0  0  0  0  0  0
   50.1060   29.7300   50.1490 C   0  0  0  0  0  0  0  0  0  0  0  0
   49.7720   28.8630   49.1430 N   0  0  0  0  0  0  0  0  0  0  0  0
   48.7910   29.4200   48.4260 C   0  0  0  0  0  0  0  0  0  0  0  0
   48.1640   28.7330   47.2290 C   0  0  1  0  0  0  0  0  0  0  0  0
   47.7330   27.2490   47.5150 C   0  0  0  0  0  0  0  0  0  0  0  0
   46.7660   28.3400   47.2390 C   0  0  2  0  0  0  0  0  0  0  0  0
   46.1660   28.2480   45.9630 O   0  0  0  0  0  0  0  0  0  0  0  0
   44.5336   32.9157   48.1651 H   0  0  0  0  0  0  0  0  0  0  0  0
   45.9093   31.3554   49.9098 H   0  0  0  0  0  0  0  0  0  0  0  0
   44.9407   35.4232   43.5955 H   0  0  0  0  0  0  0  0  0  0  0  0
   44.4794   34.5593   46.1077 H   0  0  0  0  0  0  0  0  0  0  0  0
   49.5086   36.0679   40.7472 H   0  0  0  0  0  0  0  0  0  0  0  0
   48.5036   34.8905   38.7824 H   0  0  0  0  0  0  0  0  0  0  0  0
   46.6058   33.2950   39.1724 H   0  0  0  0  0  0  0  0  0  0  0  0
   49.3119   31.7195   50.6768 H   0  0  0  0  0  0  0  0  0  0  0  0
   50.8787   29.5701   50.9154 H   0  0  0  0  0  0  0  0  0  0  0  0
   48.7724   29.2959   46.5059 H   0  0  0  0  0  0  0  0  0  0  0  0
   47.9142   26.4607   46.7695 H   0  0  0  0  0  0  0  0  0  0  0  0
   47.8958   26.5121   48.3153 H   0  0  0  0  0  0  0  0  0  0  0  0
   45.8877   28.7311   47.7734 H   0  0  0  0  0  0  0  0  0  0  0  0
   45.1927   28.0988   46.0660 H   0  0  0  0  0  0  0  0  0  0  0  0
  1  5  1  0
  1  2  2  0
  2  3  1  0
  4  3  2  0
  4 17  1  0
  5  4  1  0
  6  7  1  0
  6 10  2  0
  7  8  2  0
  8  9  1  0
  9  1  1  0
 10  9  1  0
 11 16  2  0
 12 13  2  0
 12 11  1  0
 13 14  1  0
 14 15  2  0
 15  6  1  0
 16 15  1  0
 17 18  1  0
 18 19  2  0
 20 19  1  0
 21 17  1  0
 21 20  2  0
 22 24  1  0
 22 23  1  0
 22 21  1  0
 24 23  1  0
 25 24  1  0
  2 26  1  0
  3 27  1  0
  7 28  1  0
  8 29  1  0
 11 30  1  0
 12 31  1  0
 13 32  1  0
 18 33  1  0
 19 34  1  0
 22 35  1  6
 23 36  1  0
 23 37  1  0
 24 38  1  1
 25 39  1  0
M  ISO  8  26  14  27  14  28  14  29  14  30  14  31  14  32  14  33  14
M  ISO  6  34  14  35  13  36  13  37  13  38  13  39   3
M  END
>  <minimizedAffinity>  (1) 
-5.88896036

>  <minimizedRMSD>  (1) 
0.0107212821

$$$$
