
     RDKit          3D

 45 50  0  0  1  0  0  0  0  0999 V2000
   46.3310   32.7250   46.8980 C   0  0  0  0  0  0  0  0  0  0  0  0
   45.5120   32.6120   47.9990 C   0  0  0  0  0  0  0  0  0  0  0  0
   46.2070   31.7920   48.8790 C   0  0  0  0  0  0  0  0  0  0  0  0
   47.3890   31.4580   48.2810 C   0  0  0  0  0  0  0  0  0  0  0  0
   47.3960   32.0440   47.1110 O   0  0  0  0  0  0  0  0  0  0  0  0
   46.6490   34.0750   43.6070 C   0  0  0  0  0  0  0  0  0  0  0  0
   45.5240   34.7310   44.0700 C   0  0  0  0  0  0  0  0  0  0  0  0
   45.2620   34.3010   45.3770 C   0  0  0  0  0  0  0  0  0  0  0  0
   46.2380   33.4000   45.6590 N   0  0  0  0  0  0  0  0  0  0  0  0
   47.0630   33.2530   44.6330 N   0  0  0  0  0  0  0  0  0  0  0  0
   48.6890   35.3940   40.8410 C   0  0  0  0  0  0  0  0  0  0  0  0
   48.1360   34.7390   39.7510 C   0  0  0  0  0  0  0  0  0  0  0  0
   47.0810   33.8580   39.9590 C   0  0  0  0  0  0  0  0  0  0  0  0
   46.6070   33.6550   41.2410 N   0  0  0  0  0  0  0  0  0  0  0  0
   47.1770   34.3160   42.2620 C   0  0  0  0  0  0  0  0  0  0  0  0
   48.1940   35.1680   42.0980 N   0  0  0  0  0  0  0  0  0  0  0  0
   48.3870   30.6240   48.8680 N   0  0  0  0  0  0  0  0  0  0  0  0
   49.2570   30.8230   49.9240 C   0  0  0  0  0  0  0  0  0  0  0  0
   50.0110   29.6700   50.0520 C   0  0  0  0  0  0  0  0  0  0  0  0
   49.5930   28.8030   49.0870 N   0  0  0  0  0  0  0  0  0  0  0  0
   48.6190   29.3920   48.3850 C   0  0  0  0  0  0  0  0  0  0  0  0
   47.9160   28.7070   47.2300 C   0  0  1  0  0  0  0  0  0  0  0  0
   47.5680   27.1990   47.5150 C   0  0  0  0  0  0  0  0  0  0  0  0
   46.5400   28.2570   47.3450 C   0  0  2  0  0  0  0  0  0  0  0  0
   45.8170   28.1460   46.0680 N   0  0  0  0  0  0  0  0  0  0  0  0
   45.8460   27.1860   45.1290 C   0  0  0  0  0  0  0  0  0  0  0  0
   44.9940   27.5150   44.0960 C   0  0  0  0  0  0  0  0  0  0  0  0
   44.4480   28.6980   44.4300 N   0  0  0  0  0  0  0  0  0  0  0  0
   44.9410   29.0910   45.6260 C   0  0  0  0  0  0  0  0  0  0  0  0
   44.5235   33.0707   48.1490 H   0  0  0  0  0  0  0  0  0  0  0  0
   45.8678   31.4706   49.8748 H   0  0  0  0  0  0  0  0  0  0  0  0
   44.9331   35.4678   43.5061 H   0  0  0  0  0  0  0  0  0  0  0  0
   44.4413   34.6240   46.0343 H   0  0  0  0  0  0  0  0  0  0  0  0
   49.5246   36.0946   40.6963 H   0  0  0  0  0  0  0  0  0  0  0  0
   48.5261   34.9138   38.7375 H   0  0  0  0  0  0  0  0  0  0  0  0
   46.6270   33.3266   39.1096 H   0  0  0  0  0  0  0  0  0  0  0  0
   49.3350   31.7274   50.5452 H   0  0  0  0  0  0  0  0  0  0  0  0
   50.8013   29.4870   50.7949 H   0  0  0  0  0  0  0  0  0  0  0  0
   48.4378   29.3112   46.4732 H   0  0  0  0  0  0  0  0  0  0  0  0
   47.7171   26.4343   46.7385 H   0  0  0  0  0  0  0  0  0  0  0  0
   47.8247   26.4526   48.2812 H   0  0  0  0  0  0  0  0  0  0  0  0
   45.6960   28.6083   47.9567 H   0  0  0  0  0  0  0  0  0  0  0  0
   46.4582   26.2734   45.1770 H   0  0  0  0  0  0  0  0  0  0  0  0
   44.8004   26.9297   43.1850 H   0  0  0  0  0  0  0  0  0  0  0  0
   44.6784   30.0194   46.1543 H   0  0  0  0  0  0  0  0  0  0  0  0
  1  5  1  0
  1  2  2  0
  2  3  1  0
  4 17  1  0
  4  3  2  0
  5  4  1  0
  6  7  1  0
  6 10  2  0
  7  8  2  0
  8  9  1  0
  9  1  1  0
 10  9  1  0
 11 16  2  0
 12 13  2  0
 12 11  1  0
 13 14  1  0
 14 15  2  0
 15  6  1  0
 16 15  1  0
 17 18  1  0
 18 19  2  0
 20 19  1  0
 21 17  1  0
 21 20  2  0
 22 24  1  0
 22 23  1  0
 22 21  1  0
 24 23  1  0
 25 24  1  0
 26 25  1  0
 27 28  1  0
 27 26  2  0
 28 29  2  0
 29 25  1  0
  2 30  1  0
  3 31  1  0
  7 32  1  0
  8 33  1  0
 11 34  1  0
 12 35  1  0
 13 36  1  0
 18 37  1  0
 19 38  1  0
 22 39  1  6
 23 40  1  0
 23 41  1  0
 24 42  1  1
 26 43  1  0
 27 44  1  0
 29 45  1  0
M  ISO  8  30  14  31  14  32  14  33  14  34  14  35  14  36  14  37  14
M  ISO  8  38  14  39  13  40  13  41  13  42  13  43  14  44  14  45  14
M  END
>  <minimizedAffinity>  (1) 
-5.89816761

>  <minimizedRMSD>  (1) 
0.240957543

$$$$
