
     RDKit          3D

 33 35  0  0  0  0  0  0  0  0999 V2000
   46.5970   33.6240   43.5160 C   0  0  0  0  0  0  0  0  0  0  0  0
   47.8110   34.2260   43.3150 N   0  0  0  0  0  0  0  0  0  0  0  0
   48.1260   34.8140   42.1360 C   0  0  0  0  0  0  0  0  0  0  0  0
   47.2570   34.8360   41.0970 N   0  0  0  0  0  0  0  0  0  0  0  0
   46.0450   34.2490   41.2620 C   0  0  0  0  0  0  0  0  0  0  0  0
   45.0650   34.1990   40.2850 C   0  0  0  0  0  0  0  0  0  0  0  0
   43.8440   33.5920   40.4910 C   0  0  0  0  0  0  0  0  0  0  0  0
   43.5670   33.0030   41.7160 C   0  0  0  0  0  0  0  0  0  0  0  0
   44.5180   33.0350   42.7070 C   0  0  0  0  0  0  0  0  0  0  0  0
   45.7150   33.6480   42.4560 C   0  0  0  0  0  0  0  0  0  0  0  0
   47.1430   31.8170   44.9980 C   0  0  0  0  0  0  0  0  0  0  0  0
   46.4600   33.0590   44.8390 C   0  0  0  0  0  0  0  0  0  0  0  0
   45.7820   33.5280   45.9620 C   0  0  0  0  0  0  0  0  0  0  0  0
   45.8150   32.7920   47.1080 N   0  0  0  0  0  0  0  0  0  0  0  0
   46.4700   31.6350   47.2060 C   0  0  0  0  0  0  0  0  0  0  0  0
   47.1380   31.1290   46.1690 N   0  0  0  0  0  0  0  0  0  0  0  0
   46.4650   30.8860   48.4800 C   0  0  0  0  0  0  0  0  0  0  0  0
   47.8070   30.9510   49.1830 C   0  0  0  0  0  0  0  0  0  0  0  0
   45.4220   31.3910   49.4590 C   0  0  0  0  0  0  0  0  0  0  0  0
   49.1128   35.2858   42.0193 H   0  0  0  0  0  0  0  0  0  0  0  0
   45.2681   34.6609   39.3076 H   0  0  0  0  0  0  0  0  0  0  0  0
   43.0930   33.5750   39.6874 H   0  0  0  0  0  0  0  0  0  0  0  0
   42.5967   32.5157   41.8920 H   0  0  0  0  0  0  0  0  0  0  0  0
   44.3202   32.5751   43.6865 H   0  0  0  0  0  0  0  0  0  0  0  0
   47.6937   31.4013   44.1413 H   0  0  0  0  0  0  0  0  0  0  0  0
   45.2286   34.4779   45.9240 H   0  0  0  0  0  0  0  0  0  0  0  0
   46.2295   29.8512   48.1905 H   0  0  0  0  0  0  0  0  0  0  0  0
   47.6513   30.9435   50.2719 H   0  0  0  0  0  0  0  0  0  0  0  0
   48.4151   30.0813   48.8935 H   0  0  0  0  0  0  0  0  0  0  0  0
   48.3282   31.8754   48.8935 H   0  0  0  0  0  0  0  0  0  0  0  0
   45.7723   31.2214   50.4878 H   0  0  0  0  0  0  0  0  0  0  0  0
   45.2601   32.4673   49.2995 H   0  0  0  0  0  0  0  0  0  0  0  0
   44.4773   30.8505   49.2995 H   0  0  0  0  0  0  0  0  0  0  0  0
  1 12  1  0
  2  1  2  0
  3  2  1  0
  4  5  1  0
  4  3  2  0
  5 10  2  0
  6  7  2  0
  6  5  1  0
  7  8  1  0
  8  9  2  0
 10  9  1  0
 10  1  1  0
 11 16  2  0
 12 11  1  0
 12 13  2  0
 13 14  1  0
 14 15  2  0
 15 17  1  0
 16 15  1  0
 17 18  1  0
 17 19  1  0
  3 20  1  0
  6 21  1  0
  7 22  1  0
  8 23  1  0
  9 24  1  0
 11 25  1  0
 13 26  1  0
 17 27  1  0
 18 28  1  0
 18 29  1  0
 18 30  1  0
 19 31  1  0
 19 32  1  0
 19 33  1  0
M  ISO  8  20  14  21  14  22  14  23  14  24  14  25  14  26  14  27   8
M  ISO  6  28   8  29   8  30   8  31   8  32   8  33   8
M  END
>  <minimizedAffinity>  (1) 
-5.02486467

>  <minimizedRMSD>  (1) 
2.53374434

$$$$
