
     RDKit          3D

 44 49  0  0  1  0  0  0  0  0999 V2000
   46.3370   32.7040   46.9050 C   0  0  0  0  0  0  0  0  0  0  0  0
   45.5110   32.5710   48.0010 C   0  0  0  0  0  0  0  0  0  0  0  0
   46.2150   31.7600   48.8810 C   0  0  0  0  0  0  0  0  0  0  0  0
   47.4060   31.4470   48.2910 C   0  0  0  0  0  0  0  0  0  0  0  0
   47.4150   32.0380   47.1240 O   0  0  0  0  0  0  0  0  0  0  0  0
   46.6500   34.0630   43.6200 C   0  0  0  0  0  0  0  0  0  0  0  0
   45.5290   34.7200   44.0830 C   0  0  0  0  0  0  0  0  0  0  0  0
   45.2690   34.2860   45.3900 C   0  0  0  0  0  0  0  0  0  0  0  0
   46.2440   33.3830   45.6640 N   0  0  0  0  0  0  0  0  0  0  0  0
   47.0710   33.2340   44.6360 N   0  0  0  0  0  0  0  0  0  0  0  0
   48.6850   35.3870   40.8510 C   0  0  0  0  0  0  0  0  0  0  0  0
   48.1350   34.7300   39.7540 C   0  0  0  0  0  0  0  0  0  0  0  0
   47.0770   33.8420   39.9680 C   0  0  0  0  0  0  0  0  0  0  0  0
   46.6050   33.6380   41.2520 N   0  0  0  0  0  0  0  0  0  0  0  0
   47.1790   34.3040   42.2730 C   0  0  0  0  0  0  0  0  0  0  0  0
   48.1970   35.1660   42.1070 N   0  0  0  0  0  0  0  0  0  0  0  0
   48.4120   30.6280   48.8850 N   0  0  0  0  0  0  0  0  0  0  0  0
   49.2770   30.8340   49.9430 C   0  0  0  0  0  0  0  0  0  0  0  0
   50.0380   29.6940   50.0750 C   0  0  0  0  0  0  0  0  0  0  0  0
   49.6360   28.8210   49.1130 N   0  0  0  0  0  0  0  0  0  0  0  0
   48.6580   29.3960   48.4050 C   0  0  0  0  0  0  0  0  0  0  0  0
   47.9700   28.7000   47.2480 C   0  0  1  0  0  0  0  0  0  0  0  0
   47.6520   27.1890   47.5270 C   0  0  0  0  0  0  0  0  0  0  0  0
   46.6020   28.2290   47.3630 C   0  0  2  0  0  0  0  0  0  0  0  0
   45.8080   28.1230   46.1530 N   0  0  0  0  0  0  0  0  0  0  0  0
   45.9090   27.2860   45.1070 C   0  0  0  0  0  0  0  0  0  0  0  0
   44.9460   27.5710   44.2240 N   0  0  0  0  0  0  0  0  0  0  0  0
   44.2210   28.6100   44.7230 C   0  0  0  0  0  0  0  0  0  0  0  0
   44.7790   28.9310   45.9220 N   0  0  0  0  0  0  0  0  0  0  0  0
   44.5133   33.0109   48.1463 H   0  0  0  0  0  0  0  0  0  0  0  0
   45.8750   31.4295   49.8736 H   0  0  0  0  0  0  0  0  0  0  0  0
   44.9390   35.4594   43.5215 H   0  0  0  0  0  0  0  0  0  0  0  0
   44.4509   34.6080   46.0511 H   0  0  0  0  0  0  0  0  0  0  0  0
   49.5189   36.0894   40.7050 H   0  0  0  0  0  0  0  0  0  0  0  0
   48.5246   34.9059   38.7405 H   0  0  0  0  0  0  0  0  0  0  0  0
   46.6224   33.3085   39.1202 H   0  0  0  0  0  0  0  0  0  0  0  0
   49.3449   31.7396   50.5638 H   0  0  0  0  0  0  0  0  0  0  0  0
   50.8268   29.5211   50.8220 H   0  0  0  0  0  0  0  0  0  0  0  0
   48.4820   29.3135   46.4920 H   0  0  0  0  0  0  0  0  0  0  0  0
   47.8141   26.4303   46.7472 H   0  0  0  0  0  0  0  0  0  0  0  0
   47.9245   26.4448   48.2898 H   0  0  0  0  0  0  0  0  0  0  0  0
   45.7575   28.5724   47.9785 H   0  0  0  0  0  0  0  0  0  0  0  0
   46.6632   26.4931   44.9948 H   0  0  0  0  0  0  0  0  0  0  0  0
   43.3543   29.0948   44.2498 H   0  0  0  0  0  0  0  0  0  0  0  0
  1  5  1  0
  1  2  2  0
  2  3  1  0
  4  3  2  0
  4 17  1  0
  5  4  1  0
  6  7  1  0
  6 10  2  0
  7  8  2  0
  8  9  1  0
  9  1  1  0
 10  9  1  0
 11 16  2  0
 12 13  2  0
 12 11  1  0
 13 14  1  0
 14 15  2  0
 15  6  1  0
 16 15  1  0
 17 18  1  0
 18 19  2  0
 20 19  1  0
 21 17  1  0
 21 20  2  0
 22 24  1  0
 22 23  1  0
 22 21  1  0
 24 23  1  0
 25 24  1  0
 26 25  1  0
 27 28  1  0
 27 26  2  0
 28 29  2  0
 29 25  1  0
  2 30  1  0
  3 31  1  0
  7 32  1  0
  8 33  1  0
 11 34  1  0
 12 35  1  0
 13 36  1  0
 18 37  1  0
 19 38  1  0
 22 39  1  6
 23 40  1  0
 23 41  1  0
 24 42  1  1
 26 43  1  0
 28 44  1  0
M  ISO  8  30  14  31  14  32  14  33  14  34  14  35  14  36  14  37  14
M  ISO  7  38  14  39  13  40  13  41  13  42  13  43  14  44  14
M  END
>  <minimizedAffinity>  (1) 
-5.93691206

>  <minimizedRMSD>  (1) 
0.245167285

$$$$
