
     RDKit          3D

 31 34  0  0  0  0  0  0  0  0999 V2000
   46.6580   32.1570   42.7650 N   0  0  0  0  0  0  0  0  0  0  0  0
   45.9290   31.8430   41.6860 C   0  0  0  0  0  0  0  0  0  0  0  0
   46.3690   32.5330   40.6040 N   0  0  0  0  0  0  0  0  0  0  0  0
   47.3940   33.3000   40.9900 C   0  0  0  0  0  0  0  0  0  0  0  0
   48.1950   34.1940   40.2770 C   0  0  0  0  0  0  0  0  0  0  0  0
   48.0290   34.4040   39.0580 O   0  0  0  0  0  0  0  0  0  0  0  0
   49.1880   34.8650   40.9030 N   0  0  0  0  0  0  0  0  0  0  0  0
   49.3460   34.6240   42.2070 C   0  0  0  0  0  0  0  0  0  0  0  0
   50.3540   35.2670   42.9730 N   0  0  0  0  0  0  0  0  0  0  0  0
   48.5850   33.7720   42.8960 N   0  0  0  0  0  0  0  0  0  0  0  0
   47.5710   33.0640   42.3340 C   0  0  0  0  0  0  0  0  0  0  0  0
   46.0430   32.2470   46.3870 C   0  0  0  0  0  0  0  0  0  0  0  0
   46.0300   32.6310   45.0190 C   0  0  0  0  0  0  0  0  0  0  0  0
   46.6710   31.7770   44.1160 C   0  0  0  0  0  0  0  0  0  0  0  0
   47.2630   30.6380   44.6040 N   0  0  0  0  0  0  0  0  0  0  0  0
   47.2430   30.3280   45.9050 C   0  0  0  0  0  0  0  0  0  0  0  0
   46.6430   31.1160   46.7950 N   0  0  0  0  0  0  0  0  0  0  0  0
   45.3760   33.8360   44.6940 N   0  0  0  0  0  0  0  0  0  0  0  0
   45.0760   34.6670   45.6980 N   0  0  0  0  0  0  0  0  0  0  0  0
   44.4620   35.7650   45.2670 C   0  0  0  0  0  0  0  0  0  0  0  0
   44.3510   35.6490   43.8980 C   0  0  0  0  0  0  0  0  0  0  0  0
   44.9290   34.4430   43.5930 C   0  0  0  0  0  0  0  0  0  0  0  0
   45.0931   31.1280   41.6783 H   0  0  0  0  0  0  0  0  0  0  0  0
   49.7927   35.5292   40.3990 H   0  0  0  0  0  0  0  0  0  0  0  0
   50.4492   35.0587   43.9772 H   0  0  0  0  0  0  0  0  0  0  0  0
   50.9900   35.9417   42.5244 H   0  0  0  0  0  0  0  0  0  0  0  0
   45.5500   32.8911   47.1300 H   0  0  0  0  0  0  0  0  0  0  0  0
   47.7319   29.4037   46.2465 H   0  0  0  0  0  0  0  0  0  0  0  0
   44.1102   36.6046   45.8845 H   0  0  0  0  0  0  0  0  0  0  0  0
   43.8969   36.3683   43.2006 H   0  0  0  0  0  0  0  0  0  0  0  0
   45.0128   34.0312   42.5764 H   0  0  0  0  0  0  0  0  0  0  0  0
  1 14  1  0
  2  1  1  0
  3  4  1  0
  3  2  2  0
  4 11  2  0
  5  7  1  0
  5  4  1  0
  6  5  2  0
  7  8  1  0
  8 10  2  0
  8  9  1  0
 11  1  1  0
 11 10  1  0
 12 17  2  0
 13 12  1  0
 14 15  1  0
 14 13  2  0
 15 16  2  0
 16 17  1  0
 18 13  1  0
 18 19  1  0
 20 19  2  0
 21 20  1  0
 22 21  2  0
 22 18  1  0
  2 23  1  0
  7 24  1  0
  9 25  1  0
  9 26  1  0
 12 27  1  0
 16 28  1  0
 20 29  1  0
 21 30  1  0
 22 31  1  0
M  ISO  7  23  14  24   9  27  14  28  14  29  14  30  14  31  14
M  END
>  <minimizedAffinity>  (1) 
-6.06595707

>  <minimizedRMSD>  (1) 
2.87837267

$$$$
