
     RDKit          3D

 35 39  0  0  0  0  0  0  0  0999 V2000
   45.7030   31.5030   46.1820 C   0  0  0  0  0  0  0  0  0  0  0  0
   46.1310   31.4040   44.8480 C   0  0  0  0  0  0  0  0  0  0  0  0
   47.3740   30.7920   44.5990 C   0  0  0  0  0  0  0  0  0  0  0  0
   48.0850   30.3360   45.6640 N   0  0  0  0  0  0  0  0  0  0  0  0
   47.6450   30.4480   46.9290 C   0  0  0  0  0  0  0  0  0  0  0  0
   46.4590   31.0290   47.1950 N   0  0  0  0  0  0  0  0  0  0  0  0
   47.7850   30.7070   43.2470 N   0  0  0  0  0  0  0  0  0  0  0  0
   47.6540   29.8100   42.2690 C   0  0  0  0  0  0  0  0  0  0  0  0
   48.2610   30.2550   41.1440 N   0  0  0  0  0  0  0  0  0  0  0  0
   48.7940   31.4680   41.4090 C   0  0  0  0  0  0  0  0  0  0  0  0
   49.5170   32.3460   40.6080 C   0  0  0  0  0  0  0  0  0  0  0  0
   49.7870   32.0930   39.4160 O   0  0  0  0  0  0  0  0  0  0  0  0
   49.9490   33.5180   41.1160 N   0  0  0  0  0  0  0  0  0  0  0  0
   49.6480   33.7710   42.3940 C   0  0  0  0  0  0  0  0  0  0  0  0
   50.0550   34.9680   43.0260 N   0  0  0  0  0  0  0  0  0  0  0  0
   48.9570   32.9360   43.1710 N   0  0  0  0  0  0  0  0  0  0  0  0
   48.4950   31.7490   42.7280 C   0  0  0  0  0  0  0  0  0  0  0  0
   45.2720   31.9310   43.8390 N   0  0  0  0  0  0  0  0  0  0  0  0
   44.3960   31.2620   43.0650 C   0  0  0  0  0  0  0  0  0  0  0  0
   43.7750   32.1190   42.2360 N   0  0  0  0  0  0  0  0  0  0  0  0
   44.2770   33.3620   42.4960 C   0  0  0  0  0  0  0  0  0  0  0  0
   43.9500   34.5830   41.8940 C   0  0  0  0  0  0  0  0  0  0  0  0
   44.6180   35.6550   42.3640 N   0  0  0  0  0  0  0  0  0  0  0  0
   45.5270   35.5190   43.3420 C   0  0  0  0  0  0  0  0  0  0  0  0
   45.8750   34.3660   43.9500 N   0  0  0  0  0  0  0  0  0  0  0  0
   45.2210   33.2520   43.5040 C   0  0  0  0  0  0  0  0  0  0  0  0
   44.7348   31.9750   46.4053 H   0  0  0  0  0  0  0  0  0  0  0  0
   48.2594   30.0614   47.7554 H   0  0  0  0  0  0  0  0  0  0  0  0
   47.1288   28.8480   42.3629 H   0  0  0  0  0  0  0  0  0  0  0  0
   50.4859   34.1872   40.5461 H   0  0  0  0  0  0  0  0  0  0  0  0
   49.8102   35.1389   44.0118 H   0  0  0  0  0  0  0  0  0  0  0  0
   50.5964   35.6694   42.5007 H   0  0  0  0  0  0  0  0  0  0  0  0
   44.2158   30.1776   43.1051 H   0  0  0  0  0  0  0  0  0  0  0  0
   43.2001   34.6619   41.0931 H   0  0  0  0  0  0  0  0  0  0  0  0
   46.0362   36.4337   43.6796 H   0  0  0  0  0  0  0  0  0  0  0  0
  1  6  2  0
  2  1  1  0
  3  2  2  0
  3  4  1  0
  4  5  2  0
  5  6  1  0
  7  3  1  0
  8  7  1  0
  9 10  1  0
  9  8  2  0
 10 17  2  0
 11 13  1  0
 11 10  1  0
 12 11  2  0
 13 14  1  0
 14 15  1  0
 14 16  2  0
 17 16  1  0
 17  7  1  0
 18  2  1  0
 19 18  1  0
 20 21  1  0
 20 19  2  0
 21 26  2  0
 22 23  2  0
 22 21  1  0
 23 24  1  0
 24 25  2  0
 26 18  1  0
 26 25  1  0
  1 27  1  0
  5 28  1  0
  8 29  1  0
 13 30  1  0
 15 31  1  0
 15 32  1  0
 19 33  1  0
 22 34  1  0
 24 35  1  0
M  ISO  7  27  14  28  14  29  14  30   9  33  14  34  14  35  14
M  END
>  <minimizedAffinity>  (1) 
-5.48042297

>  <minimizedRMSD>  (1) 
4.11684132

$$$$
