
     RDKit          3D

 35 38  0  0  0  0  0  0  0  0999 V2000
   47.1220   31.7200   43.5700 N   0  0  0  0  0  0  0  0  0  0  0  0
   46.7590   30.7790   42.6710 C   0  0  0  0  0  0  0  0  0  0  0  0
   47.4290   30.9700   41.5170 N   0  0  0  0  0  0  0  0  0  0  0  0
   48.2270   32.0320   41.6630 C   0  0  0  0  0  0  0  0  0  0  0  0
   49.1270   32.6640   40.7880 C   0  0  0  0  0  0  0  0  0  0  0  0
   49.3040   32.2520   39.6320 O   0  0  0  0  0  0  0  0  0  0  0  0
   49.8230   33.7400   41.1820 N   0  0  0  0  0  0  0  0  0  0  0  0
   49.6130   34.1660   42.4330 C   0  0  0  0  0  0  0  0  0  0  0  0
   50.2980   35.2860   42.9590 N   0  0  0  0  0  0  0  0  0  0  0  0
   48.7680   33.5880   43.2820 N   0  0  0  0  0  0  0  0  0  0  0  0
   48.0360   32.5050   42.9540 C   0  0  0  0  0  0  0  0  0  0  0  0
   45.4140   33.3510   46.3970 C   0  0  0  0  0  0  0  0  0  0  0  0
   45.8030   33.0250   45.0810 C   0  0  0  0  0  0  0  0  0  0  0  0
   46.7600   32.0160   44.8990 C   0  0  0  0  0  0  0  0  0  0  0  0
   47.2650   31.4040   45.9970 N   0  0  0  0  0  0  0  0  0  0  0  0
   46.8720   31.7390   47.2410 C   0  0  0  0  0  0  0  0  0  0  0  0
   45.9590   32.6980   47.4580 N   0  0  0  0  0  0  0  0  0  0  0  0
   45.1760   33.7640   44.0440 N   0  0  0  0  0  0  0  0  0  0  0  0
   44.4090   33.3500   42.8760 C   0  0  0  0  0  0  0  0  0  0  0  0
   45.0040   34.1290   41.7250 C   0  0  0  0  0  0  0  0  0  0  0  0
   44.5480   35.4330   41.8730 O   0  0  0  0  0  0  0  0  0  0  0  0
   44.9070   36.0270   43.0470 C   0  0  0  0  0  0  0  0  0  0  0  0
   45.3340   35.1990   44.1780 C   0  0  0  0  0  0  0  0  0  0  0  0
   46.0273   29.9781   42.8532 H   0  0  0  0  0  0  0  0  0  0  0  0
   50.4862   34.2150   40.5532 H   0  0  0  0  0  0  0  0  0  0  0  0
   50.1174   35.5928   43.9255 H   0  0  0  0  0  0  0  0  0  0  0  0
   50.9774   35.7948   42.3756 H   0  0  0  0  0  0  0  0  0  0  0  0
   44.6649   34.1386   46.5661 H   0  0  0  0  0  0  0  0  0  0  0  0
   47.3110   31.2127   48.1014 H   0  0  0  0  0  0  0  0  0  0  0  0
   44.5146   32.2682   42.7070 H   0  0  0  0  0  0  0  0  0  0  0  0
   43.3331   33.5450   42.9962 H   0  0  0  0  0  0  0  0  0  0  0  0
   44.6658   33.7118   40.7650 H   0  0  0  0  0  0  0  0  0  0  0  0
   46.1030   34.0819   41.7302 H   0  0  0  0  0  0  0  0  0  0  0  0
   44.8762   37.1222   43.1444 H   0  0  0  0  0  0  0  0  0  0  0  0
   45.7563   35.6469   45.0896 H   0  0  0  0  0  0  0  0  0  0  0  0
  1 14  1  0
  2  1  1  0
  3  4  1  0
  3  2  2  0
  4 11  2  0
  5  7  1  0
  5  4  1  0
  6  5  2  0
  7  8  1  0
  8  9  1  0
  8 10  2  0
 11 10  1  0
 11  1  1  0
 12 17  2  0
 13 12  1  0
 14 13  2  0
 14 15  1  0
 15 16  2  0
 16 17  1  0
 18 23  1  0
 18 13  1  0
 19 18  1  0
 20 21  1  0
 20 19  1  0
 21 22  1  0
 22 23  2  0
  2 24  1  0
  7 25  1  0
  9 26  1  0
  9 27  1  0
 12 28  1  0
 16 29  1  0
 19 30  1  0
 19 31  1  0
 20 32  1  0
 20 33  1  0
 22 34  1  0
 23 35  1  0
M  ISO  8  24  14  25   9  28  14  29  14  30  13  31  13  32  13  33  13
M  ISO  2  34  13  35  13
M  END
>  <minimizedAffinity>  (1) 
-5.6387105

>  <minimizedRMSD>  (1) 
2.89093995

$$$$
