
     RDKit          3D

 29 32  0  0  0  0  0  0  0  0999 V2000
   46.3690   32.5010   43.2150 N   0  0  0  0  0  0  0  0  0  0  0  0
   45.8440   31.7480   42.2410 C   0  0  0  0  0  0  0  0  0  0  0  0
   46.5820   31.8390   41.1230 N   0  0  0  0  0  0  0  0  0  0  0  0
   47.6140   32.6740   41.3790 C   0  0  0  0  0  0  0  0  0  0  0  0
   48.6650   33.1120   40.5760 C   0  0  0  0  0  0  0  0  0  0  0  0
   48.8010   32.7470   39.3920 O   0  0  0  0  0  0  0  0  0  0  0  0
   49.5830   33.9600   41.0720 N   0  0  0  0  0  0  0  0  0  0  0  0
   49.4270   34.3430   42.3420 C   0  0  0  0  0  0  0  0  0  0  0  0
   50.3260   35.2410   42.9880 N   0  0  0  0  0  0  0  0  0  0  0  0
   48.4210   33.9280   43.1200 N   0  0  0  0  0  0  0  0  0  0  0  0
   47.4690   33.0790   42.6870 C   0  0  0  0  0  0  0  0  0  0  0  0
   44.9410   34.2630   46.1260 C   0  0  0  0  0  0  0  0  0  0  0  0
   45.2920   33.9590   44.7900 C   0  0  0  0  0  0  0  0  0  0  0  0
   46.0280   32.7830   44.5620 C   0  0  0  0  0  0  0  0  0  0  0  0
   46.3650   32.0000   45.6300 N   0  0  0  0  0  0  0  0  0  0  0  0
   45.9970   32.3480   46.8820 C   0  0  0  0  0  0  0  0  0  0  0  0
   45.2980   33.4570   47.1350 N   0  0  0  0  0  0  0  0  0  0  0  0
   44.9190   34.8150   43.6690 C   0  0  0  0  0  0  0  0  0  0  0  0
   45.4190   36.0040   43.2870 N   0  0  0  0  0  0  0  0  0  0  0  0
   44.7750   36.4100   42.2170 O   0  0  0  0  0  0  0  0  0  0  0  0
   43.8620   35.5300   41.8750 C   0  0  0  0  0  0  0  0  0  0  0  0
   43.9580   34.5270   42.7950 N   0  0  0  0  0  0  0  0  0  0  0  0
   44.9337   31.1388   42.3424 H   0  0  0  0  0  0  0  0  0  0  0  0
   50.3696   34.2983   40.4995 H   0  0  0  0  0  0  0  0  0  0  0  0
   50.1682   35.5103   43.9696 H   0  0  0  0  0  0  0  0  0  0  0  0
   51.1333   35.6206   42.4732 H   0  0  0  0  0  0  0  0  0  0  0  0
   44.3657   35.1758   46.3401 H   0  0  0  0  0  0  0  0  0  0  0  0
   46.2826   31.6963   47.7209 H   0  0  0  0  0  0  0  0  0  0  0  0
   43.1660   35.5892   41.0252 H   0  0  0  0  0  0  0  0  0  0  0  0
  1 14  1  0
  2  1  1  0
  3  4  1  0
  3  2  2  0
  4 11  2  0
  5  7  1  0
  5  4  1  0
  6  5  2  0
  7  8  1  0
  8  9  1  0
  8 10  2  0
 11 10  1  0
 11  1  1  0
 12 17  2  0
 13 12  1  0
 14 13  2  0
 14 15  1  0
 15 16  2  0
 16 17  1  0
 18 13  1  0
 19 18  2  0
 20 19  1  0
 21 20  1  0
 21 22  2  0
 22 18  1  0
  2 23  1  0
  7 24  1  0
  9 25  1  0
  9 26  1  0
 12 27  1  0
 16 28  1  0
 21 29  1  0
M  ISO  5  23  14  24   9  27  14  28  14  29  14
M  END
>  <minimizedAffinity>  (1) 
-5.51547956

>  <minimizedRMSD>  (1) 
1.95065546

$$$$
