
     RDKit          3D

 40 43  0  0  0  0  0  0  0  0999 V2000
   46.1950   33.1040   42.1410 N   0  0  0  0  0  0  0  0  0  0  0  0
   45.9420   32.0050   41.4100 C   0  0  0  0  0  0  0  0  0  0  0  0
   47.0810   31.5240   40.8790 N   0  0  0  0  0  0  0  0  0  0  0  0
   48.0900   32.3300   41.2730 C   0  0  0  0  0  0  0  0  0  0  0  0
   49.4630   32.2910   41.0110 C   0  0  0  0  0  0  0  0  0  0  0  0
   49.9710   31.3960   40.2940 O   0  0  0  0  0  0  0  0  0  0  0  0
   50.2810   33.2180   41.5210 N   0  0  0  0  0  0  0  0  0  0  0  0
   49.7120   34.1540   42.2770 C   0  0  0  0  0  0  0  0  0  0  0  0
   50.4670   35.2080   42.8710 N   0  0  0  0  0  0  0  0  0  0  0  0
   48.4120   34.2070   42.5370 N   0  0  0  0  0  0  0  0  0  0  0  0
   47.5230   33.3020   42.0540 C   0  0  0  0  0  0  0  0  0  0  0  0
   43.4540   35.3730   43.0700 C   0  0  0  0  0  0  0  0  0  0  0  0
   44.2320   34.4730   42.3010 C   0  0  0  0  0  0  0  0  0  0  0  0
   45.4130   34.0060   42.9050 C   0  0  0  0  0  0  0  0  0  0  0  0
   45.7380   34.4330   44.1670 N   0  0  0  0  0  0  0  0  0  0  0  0
   44.9490   35.2870   44.8310 C   0  0  0  0  0  0  0  0  0  0  0  0
   43.8180   35.7600   44.3030 N   0  0  0  0  0  0  0  0  0  0  0  0
   43.8160   34.0510   40.9350 C   0  0  0  0  0  0  0  0  0  0  0  0
   43.4650   35.2640   40.1500 C   0  0  0  0  0  0  0  0  0  0  0  0
   42.1370   35.2250   39.4580 C   0  0  0  0  0  0  0  0  0  0  0  0
   41.0890   34.7080   40.4140 C   0  0  0  0  0  0  0  0  0  0  0  0
   41.3930   33.3060   40.8830 C   0  0  0  0  0  0  0  0  0  0  0  0
   42.8270   32.9380   40.9090 C   0  0  0  0  0  0  0  0  0  0  0  0
   44.9456   31.5617   41.2662 H   0  0  0  0  0  0  0  0  0  0  0  0
   51.2947   33.2081   41.3389 H   0  0  0  0  0  0  0  0  0  0  0  0
   49.9948   35.9163   43.4508 H   0  0  0  0  0  0  0  0  0  0  0  0
   51.4845   35.2609   42.7202 H   0  0  0  0  0  0  0  0  0  0  0  0
   42.5205   35.7680   42.6427 H   0  0  0  0  0  0  0  0  0  0  0  0
   45.2415   35.6083   45.8415 H   0  0  0  0  0  0  0  0  0  0  0  0
   44.6646   33.5701   40.4265 H   0  0  0  0  0  0  0  0  0  0  0  0
   43.4636   36.1231   40.8370 H   0  0  0  0  0  0  0  0  0  0  0  0
   44.2185   35.3344   39.3517 H   0  0  0  0  0  0  0  0  0  0  0  0
   41.8650   36.2385   39.1282 H   0  0  0  0  0  0  0  0  0  0  0  0
   42.1973   34.5600   38.5838 H   0  0  0  0  0  0  0  0  0  0  0  0
   41.0471   35.3737   41.2887 H   0  0  0  0  0  0  0  0  0  0  0  0
   40.1259   34.6870   39.8830 H   0  0  0  0  0  0  0  0  0  0  0  0
   40.9968   33.1969   41.9034 H   0  0  0  0  0  0  0  0  0  0  0  0
   40.9227   32.6343   40.1498 H   0  0  0  0  0  0  0  0  0  0  0  0
   42.9949   32.3253   41.8070 H   0  0  0  0  0  0  0  0  0  0  0  0
   43.0046   32.4238   39.9529 H   0  0  0  0  0  0  0  0  0  0  0  0
  1 14  1  0
  2  1  1  0
  3  4  1  0
  3  2  2  0
  4 11  2  0
  5  4  1  0
  5  7  1  0
  6  5  2  0
  7  8  1  0
  8 10  2  0
  8  9  1  0
 11  1  1  0
 11 10  1  0
 12 17  2  0
 13 14  2  0
 13 12  1  0
 14 15  1  0
 15 16  2  0
 17 16  1  0
 18 13  1  0
 19 18  1  0
 20 19  1  0
 20 21  1  0
 21 22  1  0
 22 23  1  0
 23 18  1  0
  2 24  1  0
  7 25  1  0
  9 26  1  0
  9 27  1  0
 12 28  1  0
 16 29  1  0
 18 30  1  0
 19 31  1  0
 19 32  1  0
 20 33  1  0
 20 34  1  0
 21 35  1  0
 21 36  1  0
 22 37  1  0
 22 38  1  0
 23 39  1  0
 23 40  1  0
M  ISO  8  24  14  25   9  28  14  29  14  30  13  31  13  32  13  33  13
M  ISO  7  34  13  35  13  36  13  37  13  38  13  39  13  40  13
M  END
>  <minimizedAffinity>  (1) 
-5.32728338

>  <minimizedRMSD>  (1) 
2.37729549

$$$$
