
     RDKit          3D

 27 29  0  0  0  0  0  0  0  0999 V2000
   45.6620   33.6940   42.1510 N   0  0  0  0  0  0  0  0  0  0  0  0
   45.0700   32.9250   41.2340 C   0  0  0  0  0  0  0  0  0  0  0  0
   45.7440   32.9730   40.0640 N   0  0  0  0  0  0  0  0  0  0  0  0
   46.8020   33.8000   40.2400 C   0  0  0  0  0  0  0  0  0  0  0  0
   47.7990   34.1870   39.3510 C   0  0  0  0  0  0  0  0  0  0  0  0
   47.8530   33.7860   38.1780 O   0  0  0  0  0  0  0  0  0  0  0  0
   48.7610   35.0350   39.7670 N   0  0  0  0  0  0  0  0  0  0  0  0
   48.6930   35.4630   41.0450 C   0  0  0  0  0  0  0  0  0  0  0  0
   49.6460   36.3540   41.5910 N   0  0  0  0  0  0  0  0  0  0  0  0
   47.7330   35.0870   41.8900 N   0  0  0  0  0  0  0  0  0  0  0  0
   46.7400   34.2450   41.5490 C   0  0  0  0  0  0  0  0  0  0  0  0
   44.4650   35.5240   45.1000 C   0  0  0  0  0  0  0  0  0  0  0  0
   44.7180   35.1930   43.7560 C   0  0  0  0  0  0  0  0  0  0  0  0
   45.4120   34.0190   43.5090 C   0  0  0  0  0  0  0  0  0  0  0  0
   45.8140   33.2500   44.5760 N   0  0  0  0  0  0  0  0  0  0  0  0
   45.5480   33.6100   45.8460 C   0  0  0  0  0  0  0  0  0  0  0  0
   44.8750   34.7440   46.1110 N   0  0  0  0  0  0  0  0  0  0  0  0
   44.2550   36.0710   42.6470 C   0  0  0  0  0  0  0  0  0  0  0  0
   44.1588   32.3337   41.4073 H   0  0  0  0  0  0  0  0  0  0  0  0
   49.5152   35.3429   39.1367 H   0  0  0  0  0  0  0  0  0  0  0  0
   49.5628   36.6598   42.5710 H   0  0  0  0  0  0  0  0  0  0  0  0
   50.4232   36.6971   41.0086 H   0  0  0  0  0  0  0  0  0  0  0  0
   43.9152   36.4490   45.3280 H   0  0  0  0  0  0  0  0  0  0  0  0
   45.8845   32.9702   46.6751 H   0  0  0  0  0  0  0  0  0  0  0  0
   43.7805   36.9709   43.0654 H   0  0  0  0  0  0  0  0  0  0  0  0
   45.1156   36.3645   42.0280 H   0  0  0  0  0  0  0  0  0  0  0  0
   43.5267   35.5266   42.0280 H   0  0  0  0  0  0  0  0  0  0  0  0
  1 14  1  0
  2  1  1  0
  3  4  1  0
  3  2  2  0
  4 11  2  0
  5  7  1  0
  5  4  1  0
  6  5  2  0
  7  8  1  0
  8  9  1  0
  8 10  2  0
 11 10  1  0
 11  1  1  0
 12 17  2  0
 13 12  1  0
 14 13  2  0
 14 15  1  0
 15 16  2  0
 16 17  1  0
 18 13  1  0
  2 19  1  0
  7 20  1  0
  9 21  1  0
  9 22  1  0
 12 23  1  0
 16 24  1  0
 18 25  1  0
 18 26  1  0
 18 27  1  0
M  ISO  7  19  14  20   9  23  14  24  14  25   8  26   8  27   8
M  END
>  <minimizedAffinity>  (1) 
-5.36178398

>  <minimizedRMSD>  (1) 
0.26632461

$$$$
