
     RDKit          3D

 30 33  0  0  0  0  0  0  0  0999 V2000
   47.0660   31.7320   43.5120 N   0  0  0  0  0  0  0  0  0  0  0  0
   46.6960   30.8250   42.5960 C   0  0  0  0  0  0  0  0  0  0  0  0
   47.3770   31.0280   41.4420 N   0  0  0  0  0  0  0  0  0  0  0  0
   48.1980   32.0800   41.6180 C   0  0  0  0  0  0  0  0  0  0  0  0
   49.1000   32.6820   40.7440 C   0  0  0  0  0  0  0  0  0  0  0  0
   49.2720   32.2830   39.5800 O   0  0  0  0  0  0  0  0  0  0  0  0
   49.8200   33.7300   41.1490 N   0  0  0  0  0  0  0  0  0  0  0  0
   49.6260   34.1550   42.4160 C   0  0  0  0  0  0  0  0  0  0  0  0
   50.3300   35.2610   42.9720 N   0  0  0  0  0  0  0  0  0  0  0  0
   48.7620   33.5810   43.2550 N   0  0  0  0  0  0  0  0  0  0  0  0
   48.0050   32.5170   42.9040 C   0  0  0  0  0  0  0  0  0  0  0  0
   45.5160   33.3860   46.3960 C   0  0  0  0  0  0  0  0  0  0  0  0
   45.8610   33.0930   45.0660 C   0  0  0  0  0  0  0  0  0  0  0  0
   46.7150   32.0220   44.8580 C   0  0  0  0  0  0  0  0  0  0  0  0
   47.1570   31.3350   45.9400 N   0  0  0  0  0  0  0  0  0  0  0  0
   46.8150   31.6320   47.1970 C   0  0  0  0  0  0  0  0  0  0  0  0
   45.9880   32.6660   47.4240 N   0  0  0  0  0  0  0  0  0  0  0  0
   45.3450   33.8800   43.9530 C   0  0  0  0  0  0  0  0  0  0  0  0
   44.3800   33.2870   43.0010 C   0  0  0  0  0  0  0  0  0  0  0  0
   44.0790   34.6090   41.8790 S   0  0  0  0  0  0  0  0  0  0  0  0
   45.2550   35.7900   42.7900 C   0  0  0  0  0  0  0  0  0  0  0  0
   45.6810   35.1480   43.7030 N   0  0  0  0  0  0  0  0  0  0  0  0
   45.9498   30.0331   42.7575 H   0  0  0  0  0  0  0  0  0  0  0  0
   50.4937   34.1940   40.5231 H   0  0  0  0  0  0  0  0  0  0  0  0
   50.1497   35.5503   43.9439 H   0  0  0  0  0  0  0  0  0  0  0  0
   51.0195   35.7716   42.4022 H   0  0  0  0  0  0  0  0  0  0  0  0
   44.8399   34.2295   46.5997 H   0  0  0  0  0  0  0  0  0  0  0  0
   47.2058   31.0371   48.0357 H   0  0  0  0  0  0  0  0  0  0  0  0
   43.9560   32.2720   42.9958 H   0  0  0  0  0  0  0  0  0  0  0  0
   45.4913   36.8333   42.5338 H   0  0  0  0  0  0  0  0  0  0  0  0
  1 14  1  0
  2  1  1  0
  3  4  1  0
  3  2  2  0
  4 11  2  0
  5  7  1  0
  5  4  1  0
  6  5  2  0
  7  8  1  0
  8  9  1  0
  8 10  2  0
 11 10  1  0
 11  1  1  0
 12 17  2  0
 13 12  1  0
 14 13  2  0
 14 15  1  0
 15 16  2  0
 16 17  1  0
 18 13  1  0
 19 18  2  0
 20 21  1  0
 20 19  1  0
 21 22  2  0
 22 18  1  0
  2 23  1  0
  7 24  1  0
  9 25  1  0
  9 26  1  0
 12 27  1  0
 16 28  1  0
 19 29  1  0
 21 30  1  0
M  ISO  6  23  14  24   9  27  14  28  14  29  14  30  14
M  END
>  <minimizedAffinity>  (1) 
-5.47310162

>  <minimizedRMSD>  (1) 
2.8339119

$$$$
