
     RDKit          3D

 40 43  0  0  1  0  0  0  0  0999 V2000
   44.2490   32.8380   42.4340 C   0  0  0  0  0  0  0  0  0  0  0  0
   43.3460   33.5230   41.5650 C   0  0  0  0  0  0  0  0  0  0  0  0
   43.8600   34.6560   40.9390 C   0  0  0  0  0  0  0  0  0  0  0  0
   45.1500   35.0060   41.2010 N   0  0  0  0  0  0  0  0  0  0  0  0
   45.9470   34.3420   42.0130 C   0  0  0  0  0  0  0  0  0  0  0  0
   45.5250   33.2590   42.6410 N   0  0  0  0  0  0  0  0  0  0  0  0
   42.0450   32.9150   41.4810 C   0  0  0  0  0  0  0  0  0  0  0  0
   42.0000   31.6710   42.0420 N   0  0  0  0  0  0  0  0  0  0  0  0
   40.8640   30.9350   42.0630 C   0  0  0  0  0  0  0  0  0  0  0  0
   39.7170   31.3920   41.5320 N   0  0  0  0  0  0  0  0  0  0  0  0
   39.7170   32.6280   40.9620 C   0  0  0  0  0  0  0  0  0  0  0  0
   38.6110   33.2310   40.3760 C   0  0  0  0  0  0  0  0  0  0  0  0
   38.6550   34.4780   39.8140 C   0  0  0  0  0  0  0  0  0  0  0  0
   39.8420   35.1850   39.8210 C   0  0  0  0  0  0  0  0  0  0  0  0
   40.9640   34.6280   40.3900 C   0  0  0  0  0  0  0  0  0  0  0  0
   40.8680   33.3720   40.9410 C   0  0  0  0  0  0  0  0  0  0  0  0
   47.3150   34.8240   42.2150 C   0  0  1  0  0  0  0  0  0  0  0  0
   48.1020   33.9090   43.1670 C   0  0  0  0  0  0  0  0  0  0  0  0
   48.1270   34.9930   40.9750 C   0  0  0  0  0  0  0  0  0  0  0  0
   48.0900   33.8970   40.0050 C   0  0  0  0  0  0  0  0  0  0  0  0
   48.5700   32.6300   39.7590 C   0  0  0  0  0  0  0  0  0  0  0  0
   48.0930   32.1190   38.6110 N   0  0  0  0  0  0  0  0  0  0  0  0
   47.2870   33.0540   38.0850 C   0  0  0  0  0  0  0  0  0  0  0  0
   47.2860   34.1100   38.9150 N   0  0  0  0  0  0  0  0  0  0  0  0
   43.8986   31.9352   42.9558 H   0  0  0  0  0  0  0  0  0  0  0  0
   43.2412   35.2518   40.2519 H   0  0  0  0  0  0  0  0  0  0  0  0
   40.8801   29.9375   42.5265 H   0  0  0  0  0  0  0  0  0  0  0  0
   37.6580   32.6819   40.3632 H   0  0  0  0  0  0  0  0  0  0  0  0
   37.7527   34.9139   39.3604 H   0  0  0  0  0  0  0  0  0  0  0  0
   39.8898   36.1888   39.3736 H   0  0  0  0  0  0  0  0  0  0  0  0
   41.9177   35.1760   40.4038 H   0  0  0  0  0  0  0  0  0  0  0  0
   47.1643   35.8245   42.6465 H   0  0  0  0  0  0  0  0  0  0  0  0
   47.8709   34.1777   44.2083 H   0  0  0  0  0  0  0  0  0  0  0  0
   47.8182   32.8616   42.9870 H   0  0  0  0  0  0  0  0  0  0  0  0
   49.1801   34.0329   42.9870 H   0  0  0  0  0  0  0  0  0  0  0  0
   47.7704   35.9002   40.4653 H   0  0  0  0  0  0  0  0  0  0  0  0
   49.1708   35.0364   41.3192 H   0  0  0  0  0  0  0  0  0  0  0  0
   49.2642   32.0972   40.4255 H   0  0  0  0  0  0  0  0  0  0  0  0
   46.7268   32.9705   37.1420 H   0  0  0  0  0  0  0  0  0  0  0  0
   46.7478   34.9731   38.7527 H   0  0  0  0  0  0  0  0  0  0  0  0
  1  6  2  0
  2  1  1  0
  3  4  1  0
  3  2  2  0
  4  5  2  0
  5 17  1  0
  5  6  1  0
  7  2  1  0
  7  8  2  0
  8  9  1  0
 10  9  2  0
 11 10  1  0
 12 11  2  0
 13 14  2  0
 13 12  1  0
 14 15  1  0
 15 16  2  0
 16 11  1  0
 16  7  1  0
 17 18  1  0
 19 17  1  0
 20 19  1  0
 21 20  2  0
 22 21  1  0
 23 22  2  0
 23 24  1  0
 24 20  1  0
  1 25  1  0
  3 26  1  0
  9 27  1  0
 12 28  1  0
 13 29  1  0
 14 30  1  0
 15 31  1  0
 17 32  1  1
 18 33  1  0
 18 34  1  0
 18 35  1  0
 19 36  1  0
 19 37  1  0
 21 38  1  0
 23 39  1  0
 24 40  1  0
M  ISO  8  25  14  26  14  27  14  28  14  29  14  30  14  31  14  32   8
M  ISO  8  33   8  34   8  35   8  36   8  37   8  38  14  39  14  40   9
M  END
>  <minimizedAffinity>  (1) 
-5.9209075

>  <minimizedRMSD>  (1) 
7.76472425

$$$$
