
     RDKit          3D

 39 42  0  0  1  0  0  0  0  0999 V2000
   45.7130   32.9800   46.4150 C   0  0  0  0  0  0  0  0  0  0  0  0
   46.0120   32.7400   45.0740 C   0  0  0  0  0  0  0  0  0  0  0  0
   46.8830   31.6870   44.7850 C   0  0  0  0  0  0  0  0  0  0  0  0
   47.3790   30.9680   45.8320 N   0  0  0  0  0  0  0  0  0  0  0  0
   47.0630   31.2360   47.1050 C   0  0  0  0  0  0  0  0  0  0  0  0
   46.2280   32.2430   47.3990 N   0  0  0  0  0  0  0  0  0  0  0  0
   47.1810   31.4600   43.4390 N   0  0  0  0  0  0  0  0  0  0  0  0
   46.7960   30.5840   42.4880 C   0  0  0  0  0  0  0  0  0  0  0  0
   47.4190   30.8400   41.3320 N   0  0  0  0  0  0  0  0  0  0  0  0
   48.2390   31.8990   41.4960 C   0  0  0  0  0  0  0  0  0  0  0  0
   49.0950   32.5260   40.6170 C   0  0  0  0  0  0  0  0  0  0  0  0
   49.2240   32.1730   39.4290 O   0  0  0  0  0  0  0  0  0  0  0  0
   49.8320   33.5610   41.0300 N   0  0  0  0  0  0  0  0  0  0  0  0
   49.6850   33.9350   42.3170 C   0  0  0  0  0  0  0  0  0  0  0  0
   50.4140   35.0240   42.9000 N   0  0  0  0  0  0  0  0  0  0  0  0
   48.8580   33.3310   43.1680 N   0  0  0  0  0  0  0  0  0  0  0  0
   48.0790   32.2680   42.8020 C   0  0  0  0  0  0  0  0  0  0  0  0
   45.3980   33.5950   44.0970 N   0  0  0  0  0  0  0  0  0  0  0  0
   44.4860   33.3980   43.0460 C   0  0  0  0  0  0  0  0  0  0  0  0
   44.8170   34.3840   41.9540 C   0  0  0  0  0  0  0  0  0  0  0  0
   46.0060   35.1220   42.5260 C   0  0  0  0  0  0  0  0  0  0  0  0
   45.6740   35.0270   44.0270 C   0  0  1  0  0  0  0  0  0  0  0  0
   44.6330   35.9750   44.4200 C   0  0  0  0  0  0  0  0  0  0  0  0
   44.9740   37.2980   44.2800 F   0  0  0  0  0  0  0  0  0  0  0  0
   43.3520   35.7320   43.9940 F   0  0  0  0  0  0  0  0  0  0  0  0
   44.5200   35.8260   45.8330 F   0  0  0  0  0  0  0  0  0  0  0  0
   45.0301   33.8042   46.6688 H   0  0  0  0  0  0  0  0  0  0  0  0
   47.4909   30.6265   47.9145 H   0  0  0  0  0  0  0  0  0  0  0  0
   46.0703   29.7717   42.6417 H   0  0  0  0  0  0  0  0  0  0  0  0
   50.4807   34.0493   40.3963 H   0  0  0  0  0  0  0  0  0  0  0  0
   50.2666   35.2716   43.8889 H   0  0  0  0  0  0  0  0  0  0  0  0
   51.0849   35.5585   42.3298 H   0  0  0  0  0  0  0  0  0  0  0  0
   44.5747   32.3711   42.6618 H   0  0  0  0  0  0  0  0  0  0  0  0
   43.4554   33.5495   43.3995 H   0  0  0  0  0  0  0  0  0  0  0  0
   43.9762   35.0686   41.7688 H   0  0  0  0  0  0  0  0  0  0  0  0
   45.0222   33.9093   40.9831 H   0  0  0  0  0  0  0  0  0  0  0  0
   46.9544   34.6201   42.2840 H   0  0  0  0  0  0  0  0  0  0  0  0
   46.1480   36.1437   42.1440 H   0  0  0  0  0  0  0  0  0  0  0  0
   46.4374   35.3283   44.7594 H   0  0  0  0  0  0  0  0  0  0  0  0
  1  6  2  0
  2  1  1  0
  3  2  2  0
  3  4  1  0
  4  5  2  0
  5  6  1  0
  7  3  1  0
  8  7  1  0
  9 10  1  0
  9  8  2  0
 10 17  2  0
 11 13  1  0
 11 10  1  0
 12 11  2  0
 13 14  1  0
 14 15  1  0
 14 16  2  0
 17 16  1  0
 17  7  1  0
 18  2  1  0
 19 18  1  0
 20 21  1  0
 20 19  1  0
 21 22  1  0
 22 18  1  0
 22 23  1  0
 23 26  1  0
 24 23  1  0
 25 23  1  0
  1 27  1  0
  5 28  1  0
  8 29  1  0
 13 30  1  0
 15 31  1  0
 15 32  1  0
 19 33  1  0
 19 34  1  0
 20 35  1  0
 20 36  1  0
 21 37  1  0
 21 38  1  0
 22 39  1  1
M  ISO  8  27  14  28  14  29  14  30   9  33  13  34  13  35  13  36  13
M  ISO  3  37  13  38  13  39  13
M  END
>  <minimizedAffinity>  (1) 
-6.66372871

>  <minimizedRMSD>  (1) 
0.984079242

$$$$
