
     RDKit          3D

 20 21  0  0  0  0  0  0  0  0999 V2000
   44.5440   35.5350   45.0040 C   0  0  0  0  0  0  0  0  0  0  0  0
   45.1950   35.4330   43.7660 C   0  0  0  0  0  0  0  0  0  0  0  0
   46.1460   34.4100   43.6040 C   0  0  0  0  0  0  0  0  0  0  0  0
   46.3830   33.5730   44.6660 N   0  0  0  0  0  0  0  0  0  0  0  0
   45.7280   33.7150   45.8390 C   0  0  0  0  0  0  0  0  0  0  0  0
   44.8100   34.6940   46.0090 N   0  0  0  0  0  0  0  0  0  0  0  0
   45.9970   32.8070   46.9620 C   0  0  0  0  0  0  0  0  0  0  0  0
   47.2290   32.1660   47.0150 C   0  0  0  0  0  0  0  0  0  0  0  0
   47.5560   31.2980   48.0390 C   0  0  0  0  0  0  0  0  0  0  0  0
   46.6000   31.0910   49.0150 C   0  0  0  0  0  0  0  0  0  0  0  0
   45.3630   31.7130   48.9930 C   0  0  0  0  0  0  0  0  0  0  0  0
   45.0620   32.5800   47.9540 C   0  0  0  0  0  0  0  0  0  0  0  0
   43.7953   36.3272   45.1521 H   0  0  0  0  0  0  0  0  0  0  0  0
   44.9687   36.1317   42.9471 H   0  0  0  0  0  0  0  0  0  0  0  0
   46.6848   34.2840   42.6533 H   0  0  0  0  0  0  0  0  0  0  0  0
   47.9645   32.3551   46.2192 H   0  0  0  0  0  0  0  0  0  0  0  0
   48.5333   30.7944   48.0756 H   0  0  0  0  0  0  0  0  0  0  0  0
   46.8309   30.4044   49.8428 H   0  0  0  0  0  0  0  0  0  0  0  0
   44.6288   31.5217   49.7895 H   0  0  0  0  0  0  0  0  0  0  0  0
   44.0849   33.0842   47.9194 H   0  0  0  0  0  0  0  0  0  0  0  0
  1  6  2  0
  2  1  1  0
  3  2  2  0
  3  4  1  0
  4  5  2  0
  5  6  1  0
  5  7  1  0
  7  8  2  0
  7 12  1  0
  8  9  1  0
  9 10  2  0
 11 10  1  0
 12 11  2  0
  1 13  1  0
  2 14  1  0
  3 15  1  0
  8 16  1  0
  9 17  1  0
 10 18  1  0
 11 19  1  0
 12 20  1  0
M  ISO  8  13  14  14  14  15  14  16  14  17  14  18  14  19  14  20  14
M  END
>  <minimizedAffinity>  (1) 
-4.60804987

>  <minimizedRMSD>  (1) 
0.929203749

$$$$
