
     RDKit          3D

 22 23  0  0  0  0  0  0  0  0999 V2000
   46.0120   33.0550   46.1320 C   0  0  0  0  0  0  0  0  0  0  0  0
   46.9450   32.0720   45.8690 C   0  0  0  0  0  0  0  0  0  0  0  0
   47.2580   31.0920   46.7770 C   0  0  0  0  0  0  0  0  0  0  0  0
   46.5890   31.1250   47.9970 C   0  0  0  0  0  0  0  0  0  0  0  0
   45.6410   32.0970   48.3020 C   0  0  0  0  0  0  0  0  0  0  0  0
   45.3690   33.0550   47.3500 C   0  0  0  0  0  0  0  0  0  0  0  0
   44.5150   35.9570   44.4810 C   0  0  0  0  0  0  0  0  0  0  0  0
   45.1610   35.9870   43.2480 C   0  0  0  0  0  0  0  0  0  0  0  0
   46.1210   35.0020   42.9770 C   0  0  0  0  0  0  0  0  0  0  0  0
   46.3840   34.0520   43.9340 N   0  0  0  0  0  0  0  0  0  0  0  0
   45.7230   34.0720   45.1210 C   0  0  0  0  0  0  0  0  0  0  0  0
   44.7960   35.0210   45.3840 N   0  0  0  0  0  0  0  0  0  0  0  0
   44.4000   34.0550   47.6520 N   0  0  0  0  0  0  0  0  0  0  0  0
   47.4566   32.0745   44.8952 H   0  0  0  0  0  0  0  0  0  0  0  0
   48.0037   30.3156   46.5510 H   0  0  0  0  0  0  0  0  0  0  0  0
   46.8180   30.3544   48.7478 H   0  0  0  0  0  0  0  0  0  0  0  0
   45.1247   32.1003   49.2733 H   0  0  0  0  0  0  0  0  0  0  0  0
   43.7584   36.7211   44.7129 H   0  0  0  0  0  0  0  0  0  0  0  0
   44.9242   36.7635   42.5057 H   0  0  0  0  0  0  0  0  0  0  0  0
   46.6543   34.9899   42.0150 H   0  0  0  0  0  0  0  0  0  0  0  0
   43.9222   34.0502   48.5644 H   0  0  0  0  0  0  0  0  0  0  0  0
   44.1773   34.7827   46.9579 H   0  0  0  0  0  0  0  0  0  0  0  0
  1  6  1  0
  2  1  2  0
  2  3  1  0
  3  4  2  0
  4  5  1  0
  6 13  1  0
  6  5  2  0
  7 12  2  0
  8  7  1  0
  9  8  2  0
  9 10  1  0
 10 11  2  0
 11 12  1  0
 11  1  1  0
  2 14  1  0
  3 15  1  0
  4 16  1  0
  5 17  1  0
  7 18  1  0
  8 19  1  0
  9 20  1  0
 13 21  1  0
 13 22  1  0
M  ISO  7  14  14  15  14  16  14  17  14  18  14  19  14  20  14
M  END
>  <minimizedAffinity>  (1) 
-5.31845188

>  <minimizedRMSD>  (1) 
0.923548639

$$$$
