
     RDKit          3D

 21 22  0  0  0  0  0  0  0  0999 V2000
   45.9750   33.0450   46.2910 C   0  0  0  0  0  0  0  0  0  0  0  0
   46.8880   32.0320   46.0440 C   0  0  0  0  0  0  0  0  0  0  0  0
   47.1860   31.0700   46.9760 C   0  0  0  0  0  0  0  0  0  0  0  0
   46.5230   31.1600   48.1930 C   0  0  0  0  0  0  0  0  0  0  0  0
   45.5980   32.1600   48.4860 C   0  0  0  0  0  0  0  0  0  0  0  0
   45.3240   33.1150   47.5170 C   0  0  0  0  0  0  0  0  0  0  0  0
   44.5310   35.9180   44.5410 C   0  0  0  0  0  0  0  0  0  0  0  0
   45.1850   35.9100   43.3110 C   0  0  0  0  0  0  0  0  0  0  0  0
   46.1400   34.9010   43.0710 C   0  0  0  0  0  0  0  0  0  0  0  0
   46.3800   33.9760   44.0640 N   0  0  0  0  0  0  0  0  0  0  0  0
   45.7130   34.0350   45.2400 C   0  0  0  0  0  0  0  0  0  0  0  0
   44.7950   35.0050   45.4700 N   0  0  0  0  0  0  0  0  0  0  0  0
   44.4090   34.1240   47.7740 O   0  0  0  0  0  0  0  0  0  0  0  0
   47.3914   31.9980   45.0665 H   0  0  0  0  0  0  0  0  0  0  0  0
   47.9119   30.2696   46.7700 H   0  0  0  0  0  0  0  0  0  0  0  0
   46.7387   30.4049   48.9633 H   0  0  0  0  0  0  0  0  0  0  0  0
   45.0958   32.1918   49.4642 H   0  0  0  0  0  0  0  0  0  0  0  0
   43.7809   36.6957   44.7475 H   0  0  0  0  0  0  0  0  0  0  0  0
   44.9624   36.6702   42.5478 H   0  0  0  0  0  0  0  0  0  0  0  0
   46.6805   34.8532   42.1142 H   0  0  0  0  0  0  0  0  0  0  0  0
   43.9506   34.1651   48.6505 H   0  0  0  0  0  0  0  0  0  0  0  0
  1  6  1  0
  2  1  2  0
  2  3  1  0
  3  4  2  0
  4  5  1  0
  6 13  1  0
  6  5  2  0
  7 12  2  0
  8  7  1  0
  9  8  2  0
  9 10  1  0
 10 11  2  0
 11 12  1  0
 11  1  1  0
  2 14  1  0
  3 15  1  0
  4 16  1  0
  5 17  1  0
  7 18  1  0
  8 19  1  0
  9 20  1  0
 13 21  1  0
M  ISO  8  14  14  15  14  16  14  17  14  18  14  19  14  20  14  21   3
M  END
>  <minimizedAffinity>  (1) 
-5.3858695

>  <minimizedRMSD>  (1) 
0.809053957

$$$$
