
     RDKit          3D

 34 36  0  0  0  0  0  0  0  0999 V2000
   46.7660   34.0310   43.4670 C   0  0  0  0  0  0  0  0  0  0  0  0
   47.3620   33.0950   44.2980 C   0  0  0  0  0  0  0  0  0  0  0  0
   46.8240   32.8300   45.5460 C   0  0  0  0  0  0  0  0  0  0  0  0
   45.7080   33.4960   45.9450 C   0  0  0  0  0  0  0  0  0  0  0  0
   45.0910   34.4260   45.1540 C   0  0  0  0  0  0  0  0  0  0  0  0
   45.6530   34.6600   43.9260 C   0  0  0  0  0  0  0  0  0  0  0  0
   48.7830   35.5770   40.8480 C   0  0  0  0  0  0  0  0  0  0  0  0
   48.4670   34.8310   39.7030 C   0  0  0  0  0  0  0  0  0  0  0  0
   47.5340   33.7710   39.8500 C   0  0  0  0  0  0  0  0  0  0  0  0
   47.0020   33.5420   41.0910 N   0  0  0  0  0  0  0  0  0  0  0  0
   47.3440   34.2950   42.1620 C   0  0  0  0  0  0  0  0  0  0  0  0
   48.2320   35.3040   42.0310 N   0  0  0  0  0  0  0  0  0  0  0  0
   44.9450   35.6660   43.1240 C   0  0  0  0  0  0  0  0  0  0  0  0
   45.1580   36.9010   43.0930 O   0  0  0  0  0  0  0  0  0  0  0  0
   43.8880   35.1570   42.2830 N   0  0  0  0  0  0  0  0  0  0  0  0
   42.7580   35.6720   41.5310 C   0  0  0  0  0  0  0  0  0  0  0  0
   42.8300   35.0880   40.1660 C   0  0  0  0  0  0  0  0  0  0  0  0
   43.5920   33.8000   40.3960 C   0  0  0  0  0  0  0  0  0  0  0  0
   43.6390   33.7740   41.9060 C   0  0  0  0  0  0  0  0  0  0  0  0
   48.2645   32.5615   43.9651 H   0  0  0  0  0  0  0  0  0  0  0  0
   47.2948   32.0882   46.2079 H   0  0  0  0  0  0  0  0  0  0  0  0
   45.2868   33.2796   46.9378 H   0  0  0  0  0  0  0  0  0  0  0  0
   44.1886   34.9596   45.4870 H   0  0  0  0  0  0  0  0  0  0  0  0
   49.5016   36.4060   40.7681 H   0  0  0  0  0  0  0  0  0  0  0  0
   48.9244   35.0584   38.7288 H   0  0  0  0  0  0  0  0  0  0  0  0
   47.2458   33.1496   38.9893 H   0  0  0  0  0  0  0  0  0  0  0  0
   41.8166   35.3766   42.0173 H   0  0  0  0  0  0  0  0  0  0  0  0
   42.7894   36.7706   41.4859 H   0  0  0  0  0  0  0  0  0  0  0  0
   43.3729   35.7528   39.4781 H   0  0  0  0  0  0  0  0  0  0  0  0
   41.8437   34.9355   39.7034 H   0  0  0  0  0  0  0  0  0  0  0  0
   43.0523   32.9310   39.9914 H   0  0  0  0  0  0  0  0  0  0  0  0
   44.5758   33.7555   39.9059 H   0  0  0  0  0  0  0  0  0  0  0  0
   42.6817   33.4240   42.3195 H   0  0  0  0  0  0  0  0  0  0  0  0
   44.4091   33.0890   42.2903 H   0  0  0  0  0  0  0  0  0  0  0  0
  1  6  1  0
  1  2  2  0
  2  3  1  0
  3  4  2  0
  5  4  1  0
  6  5  2  0
  7 12  2  0
  8  9  2  0
  8  7  1  0
  9 10  1  0
 10 11  2  0
 11  1  1  0
 12 11  1  0
 13  6  1  0
 14 13  2  0
 15 13  1  0
 16 15  1  0
 17 18  1  0
 17 16  1  0
 18 19  1  0
 19 15  1  0
  2 20  1  0
  3 21  1  0
  4 22  1  0
  5 23  1  0
  7 24  1  0
  8 25  1  0
  9 26  1  0
 16 27  1  0
 16 28  1  0
 17 29  1  0
 17 30  1  0
 18 31  1  0
 18 32  1  0
 19 33  1  0
 19 34  1  0
M  ISO  8  20  14  21  14  22  14  23  14  24  14  25  14  26  14  27  13
M  ISO  7  28  13  29  13  30  13  31  13  32  13  33  13  34  13
M  END
>  <minimizedAffinity>  (1) 
-5.53353834

>  <minimizedRMSD>  (1) 
0.466057986

$$$$
