
     RDKit          3D

 36 39  0  0  0  0  0  0  0  0999 V2000
   49.7430   31.9830   42.5030 C   0  0  0  0  0  0  0  0  0  0  0  0
   51.0010   31.4750   42.3340 C   0  0  0  0  0  0  0  0  0  0  0  0
   51.3240   30.2310   42.8550 C   0  0  0  0  0  0  0  0  0  0  0  0
   50.3880   29.5180   43.5360 C   0  0  0  0  0  0  0  0  0  0  0  0
   49.1060   29.9990   43.7290 C   0  0  0  0  0  0  0  0  0  0  0  0
   48.8180   31.2470   43.1920 C   0  0  0  0  0  0  0  0  0  0  0  0
   49.4600   35.6050   42.1190 C   0  0  0  0  0  0  0  0  0  0  0  0
   48.7560   35.7580   40.9260 C   0  0  0  0  0  0  0  0  0  0  0  0
   48.3790   34.5930   40.2480 C   0  0  0  0  0  0  0  0  0  0  0  0
   48.7100   33.3650   40.7740 N   0  0  0  0  0  0  0  0  0  0  0  0
   49.4060   33.2800   41.9590 C   0  0  0  0  0  0  0  0  0  0  0  0
   49.7560   34.3960   42.5880 N   0  0  0  0  0  0  0  0  0  0  0  0
   47.4500   31.6420   43.4370 C   0  0  0  0  0  0  0  0  0  0  0  0
   46.4280   31.2790   42.7690 O   0  0  0  0  0  0  0  0  0  0  0  0
   46.6800   32.4800   44.3350 C   0  0  0  0  0  0  0  0  0  0  0  0
   46.6830   31.8290   45.5490 N   0  0  0  0  0  0  0  0  0  0  0  0
   46.0360   32.3500   46.6360 C   0  0  0  0  0  0  0  0  0  0  0  0
   45.3650   33.5360   46.5620 N   0  0  0  0  0  0  0  0  0  0  0  0
   45.3410   34.2080   45.3970 C   0  0  0  0  0  0  0  0  0  0  0  0
   44.7580   35.4250   45.1720 C   0  0  0  0  0  0  0  0  0  0  0  0
   44.8210   36.0830   43.9510 C   0  0  0  0  0  0  0  0  0  0  0  0
   45.5100   35.4940   42.8800 C   0  0  0  0  0  0  0  0  0  0  0  0
   46.0760   34.2840   43.1350 C   0  0  0  0  0  0  0  0  0  0  0  0
   45.9990   33.6550   44.3350 C   0  0  0  0  0  0  0  0  0  0  0  0
   51.7578   32.0537   41.7841 H   0  0  0  0  0  0  0  0  0  0  0  0
   52.3358   29.8219   42.7175 H   0  0  0  0  0  0  0  0  0  0  0  0
   50.6575   28.5327   43.9441 H   0  0  0  0  0  0  0  0  0  0  0  0
   48.3505   29.4209   44.2813 H   0  0  0  0  0  0  0  0  0  0  0  0
   49.7753   36.4967   42.6807 H   0  0  0  0  0  0  0  0  0  0  0  0
   48.5066   36.7546   40.5329 H   0  0  0  0  0  0  0  0  0  0  0  0
   47.8222   34.6584   39.3016 H   0  0  0  0  0  0  0  0  0  0  0  0
   46.0571   31.8016   47.5893 H   0  0  0  0  0  0  0  0  0  0  0  0
   44.2132   35.9053   45.9981 H   0  0  0  0  0  0  0  0  0  0  0  0
   44.3334   37.0608   43.8240 H   0  0  0  0  0  0  0  0  0  0  0  0
   45.5875   35.9802   41.8963 H   0  0  0  0  0  0  0  0  0  0  0  0
   46.6272   33.7872   42.3229 H   0  0  0  0  0  0  0  0  0  0  0  0
  1  6  1  0
  2  1  2  0
  2  3  1  0
  3  4  2  0
  4  5  1  0
  6 13  1  0
  6  5  2  0
  7 12  2  0
  8  7  1  0
  9 10  1  0
  9  8  2  0
 10 11  2  0
 11  1  1  0
 11 12  1  0
 13 15  1  0
 14 13  2  0
 15 16  2  0
 16 17  1  0
 18 17  2  0
 19 18  1  0
 20 19  2  0
 21 20  1  0
 22 23  1  0
 22 21  2  0
 23 24  2  0
 24 15  1  0
 24 19  1  0
  2 25  1  0
  3 26  1  0
  4 27  1  0
  5 28  1  0
  7 29  1  0
  8 30  1  0
  9 31  1  0
 17 32  1  0
 20 33  1  0
 21 34  1  0
 22 35  1  0
 23 36  1  0
M  ISO  8  25  14  26  14  27  14  28  14  29  14  30  14  31  14  32  14
M  ISO  4  33  14  34  14  35  14  36  14
M  END
>  <minimizedAffinity>  (1) 
-6.05942059

>  <minimizedRMSD>  (1) 
5.26225138

$$$$
