
     RDKit          3D

 46 49  0  0  1  0  0  0  0  0999 V2000
   47.5040   31.9790   44.5340 C   0  0  0  0  0  0  0  0  0  0  0  0
   46.8910   33.2200   44.1880 C   0  0  0  0  0  0  0  0  0  0  0  0
   45.9980   33.7320   45.1300 C   0  0  0  0  0  0  0  0  0  0  0  0
   45.7710   33.0470   46.2810 N   0  0  0  0  0  0  0  0  0  0  0  0
   46.3770   31.8770   46.5570 C   0  0  0  0  0  0  0  0  0  0  0  0
   47.2360   31.3360   45.7040 N   0  0  0  0  0  0  0  0  0  0  0  0
   47.3050   33.7360   42.9120 C   0  0  0  0  0  0  0  0  0  0  0  0
   48.3740   34.5740   42.9920 N   0  0  0  0  0  0  0  0  0  0  0  0
   48.9100   35.1580   41.8920 C   0  0  0  0  0  0  0  0  0  0  0  0
   48.4070   34.9370   40.6620 N   0  0  0  0  0  0  0  0  0  0  0  0
   47.3490   34.1140   40.5340 C   0  0  0  0  0  0  0  0  0  0  0  0
   46.7350   33.8000   39.3380 C   0  0  0  0  0  0  0  0  0  0  0  0
   45.6450   32.9470   39.2500 C   0  0  0  0  0  0  0  0  0  0  0  0
   45.1440   32.3830   40.4020 C   0  0  0  0  0  0  0  0  0  0  0  0
   45.7240   32.6670   41.6120 C   0  0  0  0  0  0  0  0  0  0  0  0
   46.7930   33.5110   41.6450 C   0  0  0  0  0  0  0  0  0  0  0  0
   46.0900   31.1970   47.8260 C   0  0  1  0  0  0  0  0  0  0  0  0
   45.8190   32.2060   48.9540 C   0  0  0  0  0  0  0  0  0  0  0  0
   44.9140   30.2690   47.7720 C   0  0  0  0  0  0  0  0  0  0  0  0
   45.0490   29.0950   47.0340 N   0  0  0  0  0  0  0  0  0  0  0  0
   46.0690   28.1710   47.3130 C   0  0  0  0  0  0  0  0  0  0  0  0
   45.4130   26.9000   47.8610 C   0  0  0  0  0  0  0  0  0  0  0  0
   44.0700   26.9440   47.5450 O   0  0  0  0  0  0  0  0  0  0  0  0
   43.8040   27.2580   46.2150 C   0  0  0  0  0  0  0  0  0  0  0  0
   44.1350   28.7370   46.0330 C   0  0  0  0  0  0  0  0  0  0  0  0
   48.2182   31.5257   43.8309 H   0  0  0  0  0  0  0  0  0  0  0  0
   45.4810   34.6845   44.9418 H   0  0  0  0  0  0  0  0  0  0  0  0
   49.7753   35.8275   42.0065 H   0  0  0  0  0  0  0  0  0  0  0  0
   47.1282   34.2467   38.4128 H   0  0  0  0  0  0  0  0  0  0  0  0
   45.1876   32.7243   38.2747 H   0  0  0  0  0  0  0  0  0  0  0  0
   44.2792   31.7051   40.3518 H   0  0  0  0  0  0  0  0  0  0  0  0
   45.3333   32.2215   42.5388 H   0  0  0  0  0  0  0  0  0  0  0  0
   46.9957   30.6048   48.0234 H   0  0  0  0  0  0  0  0  0  0  0  0
   45.9517   31.7118   49.9277 H   0  0  0  0  0  0  0  0  0  0  0  0
   46.5231   33.0470   48.8706 H   0  0  0  0  0  0  0  0  0  0  0  0
   44.7883   32.5811   48.8706 H   0  0  0  0  0  0  0  0  0  0  0  0
   44.6748   29.9812   48.8064 H   0  0  0  0  0  0  0  0  0  0  0  0
   44.1336   30.8393   47.2470 H   0  0  0  0  0  0  0  0  0  0  0  0
   46.6249   27.9382   46.3928 H   0  0  0  0  0  0  0  0  0  0  0  0
   46.7736   28.5871   48.0481 H   0  0  0  0  0  0  0  0  0  0  0  0
   45.8757   26.0135   47.4027 H   0  0  0  0  0  0  0  0  0  0  0  0
   45.5477   26.8394   48.9510 H   0  0  0  0  0  0  0  0  0  0  0  0
   44.4301   26.6457   45.5494 H   0  0  0  0  0  0  0  0  0  0  0  0
   42.7515   27.0569   45.9662 H   0  0  0  0  0  0  0  0  0  0  0  0
   44.5817   28.9018   45.0414 H   0  0  0  0  0  0  0  0  0  0  0  0
   43.2233   29.3480   46.1070 H   0  0  0  0  0  0  0  0  0  0  0  0
  1  6  2  0
  2  1  1  0
  2  3  2  0
  3  4  1  0
  4  5  2  0
  5 17  1  0
  6  5  1  0
  7  8  2  0
  7  2  1  0
  9  8  1  0
 10  9  2  0
 11 10  1  0
 11 16  2  0
 12 11  1  0
 13 12  2  0
 13 14  1  0
 14 15  2  0
 15 16  1  0
 16  7  1  0
 17 18  1  0
 19 17  1  0
 20 21  1  0
 20 19  1  0
 21 22  1  0
 23 22  1  0
 24 23  1  0
 25 24  1  0
 25 20  1  0
  1 26  1  0
  3 27  1  0
  9 28  1  0
 12 29  1  0
 13 30  1  0
 14 31  1  0
 15 32  1  0
 17 33  1  1
 18 34  1  0
 18 35  1  0
 18 36  1  0
 19 37  1  0
 19 38  1  0
 21 39  1  0
 21 40  1  0
 22 41  1  0
 22 42  1  0
 24 43  1  0
 24 44  1  0
 25 45  1  0
 25 46  1  0
M  ISO  8  26  14  27  14  28  14  29  14  30  14  31  14  32  14  33   8
M  ISO  8  34   8  35   8  36   8  37   8  38   8  39  13  40  13  41  13
M  ISO  5  42  13  43  13  44  13  45  13  46  13
M  END
>  <minimizedAffinity>  (1) 
-5.1456275

>  <minimizedRMSD>  (1) 
2.7794168

$$$$
