
     RDKit          3D

 36 39  0  0  0  0  0  0  0  0999 V2000
   46.6530   34.0950   43.7130 C   0  0  0  0  0  0  0  0  0  0  0  0
   47.0640   33.2780   44.7480 C   0  0  0  0  0  0  0  0  0  0  0  0
   46.3370   33.2330   45.9280 C   0  0  0  0  0  0  0  0  0  0  0  0
   45.2200   33.9990   46.0470 C   0  0  0  0  0  0  0  0  0  0  0  0
   44.7800   34.8210   45.0460 C   0  0  0  0  0  0  0  0  0  0  0  0
   45.5290   34.8400   43.8870 C   0  0  0  0  0  0  0  0  0  0  0  0
   48.7030   35.3640   40.9610 C   0  0  0  0  0  0  0  0  0  0  0  0
   48.9040   34.2230   40.1570 C   0  0  0  0  0  0  0  0  0  0  0  0
   48.3170   32.9990   40.5810 C   0  0  0  0  0  0  0  0  0  0  0  0
   47.5920   32.9950   41.7410 N   0  0  0  0  0  0  0  0  0  0  0  0
   47.4360   34.1290   42.4720 C   0  0  0  0  0  0  0  0  0  0  0  0
   47.9840   35.2840   42.0800 N   0  0  0  0  0  0  0  0  0  0  0  0
   45.0100   35.7320   42.8610 C   0  0  0  0  0  0  0  0  0  0  0  0
   45.1060   36.9930   42.8100 O   0  0  0  0  0  0  0  0  0  0  0  0
   44.2710   35.1920   41.7130 C   0  0  0  0  0  0  0  0  0  0  0  0
   44.9360   34.4940   40.7010 C   0  0  0  0  0  0  0  0  0  0  0  0
   44.0500   34.1130   39.7860 N   0  0  0  0  0  0  0  0  0  0  0  0
   42.8050   34.5260   40.1380 C   0  0  0  0  0  0  0  0  0  0  0  0
   41.5170   34.4320   39.6010 C   0  0  0  0  0  0  0  0  0  0  0  0
   40.4450   34.9910   40.2570 C   0  0  0  0  0  0  0  0  0  0  0  0
   40.6270   35.6610   41.4640 C   0  0  0  0  0  0  0  0  0  0  0  0
   41.8920   35.7850   42.0480 C   0  0  0  0  0  0  0  0  0  0  0  0
   42.9240   35.2010   41.3370 C   0  0  0  0  0  0  0  0  0  0  0  0
   47.9688   32.6625   44.6362 H   0  0  0  0  0  0  0  0  0  0  0  0
   46.6598   32.5860   46.7570 H   0  0  0  0  0  0  0  0  0  0  0  0
   44.6475   33.9560   46.9853 H   0  0  0  0  0  0  0  0  0  0  0  0
   43.8749   35.4358   45.1591 H   0  0  0  0  0  0  0  0  0  0  0  0
   49.1429   36.3269   40.6622 H   0  0  0  0  0  0  0  0  0  0  0  0
   49.4959   34.2780   39.2315 H   0  0  0  0  0  0  0  0  0  0  0  0
   48.4428   32.0790   39.9912 H   0  0  0  0  0  0  0  0  0  0  0  0
   46.0169   34.2926   40.6671 H   0  0  0  0  0  0  0  0  0  0  0  0
   44.2753   33.5813   38.9331 H   0  0  0  0  0  0  0  0  0  0  0  0
   41.3601   33.9072   38.6471 H   0  0  0  0  0  0  0  0  0  0  0  0
   39.4368   34.9082   39.8250 H   0  0  0  0  0  0  0  0  0  0  0  0
   39.7559   36.1030   41.9699 H   0  0  0  0  0  0  0  0  0  0  0  0
   42.0537   36.3082   43.0020 H   0  0  0  0  0  0  0  0  0  0  0  0
  1  6  1  0
  1  2  2  0
  2  3  1  0
  3  4  2  0
  5  4  1  0
  6  5  2  0
  7 12  2  0
  8  9  2  0
  8  7  1  0
  9 10  1  0
 10 11  2  0
 11  1  1  0
 12 11  1  0
 13  6  1  0
 14 13  2  0
 15 13  1  0
 16 15  2  0
 17 18  1  0
 17 16  1  0
 18 23  2  0
 19 18  1  0
 19 20  2  0
 20 21  1  0
 21 22  2  0
 23 15  1  0
 23 22  1  0
  2 24  1  0
  3 25  1  0
  4 26  1  0
  5 27  1  0
  7 28  1  0
  8 29  1  0
  9 30  1  0
 16 31  1  0
 17 32  1  0
 19 33  1  0
 20 34  1  0
 21 35  1  0
 22 36  1  0
M  ISO  8  24  14  25  14  26  14  27  14  28  14  29  14  30  14  31  14
M  ISO  5  32   9  33  14  34  14  35  14  36  14
M  END
>  <minimizedAffinity>  (1) 
-5.80915499

>  <minimizedRMSD>  (1) 
1.09811473

$$$$
