
     RDKit          3D

 30 32  0  0  0  0  0  0  0  0999 V2000
   46.7860   33.9620   43.4310 C   0  0  0  0  0  0  0  0  0  0  0  0
   47.4180   33.0620   44.2780 C   0  0  0  0  0  0  0  0  0  0  0  0
   46.9310   32.8090   45.5450 C   0  0  0  0  0  0  0  0  0  0  0  0
   45.8030   33.4690   45.9490 C   0  0  0  0  0  0  0  0  0  0  0  0
   45.1360   34.3750   45.1420 C   0  0  0  0  0  0  0  0  0  0  0  0
   45.6710   34.5810   43.8990 C   0  0  0  0  0  0  0  0  0  0  0  0
   48.7060   35.4400   40.7090 C   0  0  0  0  0  0  0  0  0  0  0  0
   48.3560   34.6380   39.6040 C   0  0  0  0  0  0  0  0  0  0  0  0
   47.4450   33.5720   39.8060 C   0  0  0  0  0  0  0  0  0  0  0  0
   46.9530   33.3810   41.0690 N   0  0  0  0  0  0  0  0  0  0  0  0
   47.3290   34.1970   42.1080 C   0  0  0  0  0  0  0  0  0  0  0  0
   48.1860   35.1950   41.9080 N   0  0  0  0  0  0  0  0  0  0  0  0
   44.9260   35.5340   43.0950 C   0  0  0  0  0  0  0  0  0  0  0  0
   45.0010   36.7860   43.0990 O   0  0  0  0  0  0  0  0  0  0  0  0
   43.9520   34.9970   42.1460 C   0  0  0  0  0  0  0  0  0  0  0  0
   43.3620   35.7840   41.1850 C   0  0  0  0  0  0  0  0  0  0  0  0
   42.4340   35.3400   40.2580 C   0  0  0  0  0  0  0  0  0  0  0  0
   42.0810   34.0250   40.3040 N   0  0  0  0  0  0  0  0  0  0  0  0
   42.6490   33.2470   41.2360 C   0  0  0  0  0  0  0  0  0  0  0  0
   43.5570   33.6940   42.1390 N   0  0  0  0  0  0  0  0  0  0  0  0
   48.3234   32.5408   43.9335 H   0  0  0  0  0  0  0  0  0  0  0  0
   47.4368   32.0954   46.2120 H   0  0  0  0  0  0  0  0  0  0  0  0
   45.4094   33.2717   46.9571 H   0  0  0  0  0  0  0  0  0  0  0  0
   44.2295   34.8985   45.4799 H   0  0  0  0  0  0  0  0  0  0  0  0
   49.4128   36.2727   40.5788 H   0  0  0  0  0  0  0  0  0  0  0  0
   48.7801   34.8351   38.6084 H   0  0  0  0  0  0  0  0  0  0  0  0
   47.1427   32.9186   38.9744 H   0  0  0  0  0  0  0  0  0  0  0  0
   43.6486   36.8454   41.1500 H   0  0  0  0  0  0  0  0  0  0  0  0
   41.9987   36.0227   39.5133 H   0  0  0  0  0  0  0  0  0  0  0  0
   42.3624   32.1855   41.2705 H   0  0  0  0  0  0  0  0  0  0  0  0
  1  6  1  0
  1  2  2  0
  2  3  1  0
  3  4  2  0
  5  4  1  0
  6  5  2  0
  7 12  2  0
  8  9  2  0
  8  7  1  0
  9 10  1  0
 10 11  2  0
 11  1  1  0
 12 11  1  0
 13 14  2  0
 13  6  1  0
 15 13  1  0
 16 15  2  0
 17 18  2  0
 17 16  1  0
 18 19  1  0
 19 20  2  0
 20 15  1  0
  2 21  1  0
  3 22  1  0
  4 23  1  0
  5 24  1  0
  7 25  1  0
  8 26  1  0
  9 27  1  0
 16 28  1  0
 17 29  1  0
 19 30  1  0
M  ISO  8  21  14  22  14  23  14  24  14  25  14  26  14  27  14  28  14
M  ISO  2  29  14  30  14
M  END
>  <minimizedAffinity>  (1) 
-5.28823519

>  <minimizedRMSD>  (1) 
0.676729918

$$$$
