
     RDKit          3D

 29 31  0  0  0  0  0  0  0  0999 V2000
   46.7490   33.9640   43.5500 C   0  0  0  0  0  0  0  0  0  0  0  0
   47.3430   33.0300   44.3760 C   0  0  0  0  0  0  0  0  0  0  0  0
   46.8400   32.7800   45.6460 C   0  0  0  0  0  0  0  0  0  0  0  0
   45.7450   33.4770   46.0680 C   0  0  0  0  0  0  0  0  0  0  0  0
   45.1240   34.4140   45.2790 C   0  0  0  0  0  0  0  0  0  0  0  0
   45.6570   34.6230   44.0370 C   0  0  0  0  0  0  0  0  0  0  0  0
   48.7020   35.4140   40.8400 C   0  0  0  0  0  0  0  0  0  0  0  0
   48.3140   34.6560   39.7160 C   0  0  0  0  0  0  0  0  0  0  0  0
   47.3630   33.6300   39.9110 C   0  0  0  0  0  0  0  0  0  0  0  0
   46.8680   33.4260   41.1760 N   0  0  0  0  0  0  0  0  0  0  0  0
   47.2920   34.2060   42.2250 C   0  0  0  0  0  0  0  0  0  0  0  0
   48.1880   35.1710   42.0420 N   0  0  0  0  0  0  0  0  0  0  0  0
   44.9460   35.6310   43.2460 C   0  0  0  0  0  0  0  0  0  0  0  0
   45.0550   36.8760   43.2970 O   0  0  0  0  0  0  0  0  0  0  0  0
   43.9880   35.0980   42.2770 C   0  0  0  0  0  0  0  0  0  0  0  0
   43.4560   35.8370   41.2180 C   0  0  0  0  0  0  0  0  0  0  0  0
   42.5880   35.0440   40.4950 C   0  0  0  0  0  0  0  0  0  0  0  0
   42.6310   33.8350   41.1570 C   0  0  0  0  0  0  0  0  0  0  0  0
   43.4440   33.9060   42.1710 O   0  0  0  0  0  0  0  0  0  0  0  0
   48.2260   32.4769   44.0233 H   0  0  0  0  0  0  0  0  0  0  0  0
   47.3153   32.0340   46.2999 H   0  0  0  0  0  0  0  0  0  0  0  0
   45.3463   33.2816   47.0744 H   0  0  0  0  0  0  0  0  0  0  0  0
   44.2412   34.9692   45.6289 H   0  0  0  0  0  0  0  0  0  0  0  0
   49.4418   36.2193   40.7205 H   0  0  0  0  0  0  0  0  0  0  0  0
   48.7376   34.8569   38.7209 H   0  0  0  0  0  0  0  0  0  0  0  0
   47.0262   33.0081   39.0685 H   0  0  0  0  0  0  0  0  0  0  0  0
   43.6921   36.8879   40.9948 H   0  0  0  0  0  0  0  0  0  0  0  0
   42.0019   35.3123   39.6036 H   0  0  0  0  0  0  0  0  0  0  0  0
   42.0604   32.9396   40.8695 H   0  0  0  0  0  0  0  0  0  0  0  0
  1  6  1  0
  1  2  2  0
  2  3  1  0
  3  4  2  0
  5  4  1  0
  6  5  2  0
  7 12  2  0
  8  9  2  0
  8  7  1  0
  9 10  1  0
 10 11  2  0
 11  1  1  0
 12 11  1  0
 13 14  2  0
 13  6  1  0
 15 13  1  0
 16 15  2  0
 17 18  2  0
 17 16  1  0
 18 19  1  0
 19 15  1  0
  2 20  1  0
  3 21  1  0
  4 22  1  0
  5 23  1  0
  7 24  1  0
  8 25  1  0
  9 26  1  0
 16 27  1  0
 17 28  1  0
 18 29  1  0
M  ISO  8  20  14  21  14  22  14  23  14  24  14  25  14  26  14  27  14
M  ISO  2  28  14  29  14
M  END
>  <minimizedAffinity>  (1) 
-5.3690958

>  <minimizedRMSD>  (1) 
0.498694628

$$$$
