
     RDKit          3D

 32 34  0  0  0  0  0  0  0  0999 V2000
   46.6110   34.0750   43.5490 C   0  0  0  0  0  0  0  0  0  0  0  0
   47.1430   33.1850   44.4540 C   0  0  0  0  0  0  0  0  0  0  0  0
   46.5900   33.0290   45.7080 C   0  0  0  0  0  0  0  0  0  0  0  0
   45.4920   33.7830   46.0380 C   0  0  0  0  0  0  0  0  0  0  0  0
   44.9310   34.6790   45.1650 C   0  0  0  0  0  0  0  0  0  0  0  0
   45.5170   34.8030   43.9230 C   0  0  0  0  0  0  0  0  0  0  0  0
   48.6250   35.4190   40.8150 C   0  0  0  0  0  0  0  0  0  0  0  0
   48.3840   34.5260   39.7700 C   0  0  0  0  0  0  0  0  0  0  0  0
   47.5130   33.4440   40.0130 C   0  0  0  0  0  0  0  0  0  0  0  0
   46.9530   33.3220   41.2490 N   0  0  0  0  0  0  0  0  0  0  0  0
   47.2200   34.2190   42.2300 C   0  0  0  0  0  0  0  0  0  0  0  0
   48.0530   35.2570   42.0000 N   0  0  0  0  0  0  0  0  0  0  0  0
   44.8690   35.7670   43.0710 C   0  0  0  0  0  0  0  0  0  0  0  0
   45.0560   37.0220   43.0180 O   0  0  0  0  0  0  0  0  0  0  0  0
   43.8440   35.4510   42.0830 C   0  0  0  0  0  0  0  0  0  0  0  0
   44.0560   34.9970   40.8000 C   0  0  0  0  0  0  0  0  0  0  0  0
   42.9750   34.7420   39.9550 C   0  0  0  0  0  0  0  0  0  0  0  0
   41.6670   34.9470   40.4090 C   0  0  0  0  0  0  0  0  0  0  0  0
   41.4580   35.4000   41.6910 C   0  0  0  0  0  0  0  0  0  0  0  0
   42.5290   35.6500   42.5220 C   0  0  0  0  0  0  0  0  0  0  0  0
   48.0234   32.5885   44.1728 H   0  0  0  0  0  0  0  0  0  0  0  0
   47.0195   32.3162   46.4273 H   0  0  0  0  0  0  0  0  0  0  0  0
   45.0468   33.6645   47.0369 H   0  0  0  0  0  0  0  0  0  0  0  0
   44.0493   35.2747   45.4440 H   0  0  0  0  0  0  0  0  0  0  0  0
   49.3009   36.2716   40.6528 H   0  0  0  0  0  0  0  0  0  0  0  0
   48.8588   34.6620   38.7871 H   0  0  0  0  0  0  0  0  0  0  0  0
   47.2903   32.7137   39.2211 H   0  0  0  0  0  0  0  0  0  0  0  0
   45.0825   34.8346   40.4396 H   0  0  0  0  0  0  0  0  0  0  0  0
   43.1510   34.3796   38.9314 H   0  0  0  0  0  0  0  0  0  0  0  0
   40.8125   34.7474   39.7456 H   0  0  0  0  0  0  0  0  0  0  0  0
   40.4326   35.5633   42.0542 H   0  0  0  0  0  0  0  0  0  0  0  0
   42.3482   36.0112   43.5452 H   0  0  0  0  0  0  0  0  0  0  0  0
  1  6  1  0
  1  2  2  0
  2  3  1  0
  3  4  2  0
  5  4  1  0
  6  5  2  0
  7 12  2  0
  8  9  2  0
  8  7  1  0
  9 10  1  0
 10 11  2  0
 11  1  1  0
 12 11  1  0
 13  6  1  0
 14 13  2  0
 15 20  1  0
 15 13  1  0
 16 15  2  0
 17 18  2  0
 17 16  1  0
 18 19  1  0
 19 20  2  0
  2 21  1  0
  3 22  1  0
  4 23  1  0
  5 24  1  0
  7 25  1  0
  8 26  1  0
  9 27  1  0
 16 28  1  0
 17 29  1  0
 18 30  1  0
 19 31  1  0
 20 32  1  0
M  ISO  8  21  14  22  14  23  14  24  14  25  14  26  14  27  14  28  14
M  ISO  4  29  14  30  14  31  14  32  14
M  END
>  <minimizedAffinity>  (1) 
-5.379848

>  <minimizedRMSD>  (1) 
0.544388652

$$$$
