
     RDKit          3D

 29 31  0  0  0  0  0  0  0  0999 V2000
   46.8270   34.0080   43.4400 C   0  0  0  0  0  0  0  0  0  0  0  0
   47.4070   33.0730   44.2590 C   0  0  0  0  0  0  0  0  0  0  0  0
   46.8820   32.7830   45.5020 C   0  0  0  0  0  0  0  0  0  0  0  0
   45.7500   33.4550   45.9150 C   0  0  0  0  0  0  0  0  0  0  0  0
   45.1410   34.3950   45.1280 C   0  0  0  0  0  0  0  0  0  0  0  0
   45.7000   34.6500   43.8980 C   0  0  0  0  0  0  0  0  0  0  0  0
   48.8190   35.5700   40.8170 C   0  0  0  0  0  0  0  0  0  0  0  0
   48.4960   34.8200   39.6760 C   0  0  0  0  0  0  0  0  0  0  0  0
   47.5740   33.7570   39.8180 C   0  0  0  0  0  0  0  0  0  0  0  0
   47.0510   33.5210   41.0560 N   0  0  0  0  0  0  0  0  0  0  0  0
   47.4060   34.2900   42.1350 C   0  0  0  0  0  0  0  0  0  0  0  0
   48.2740   35.2920   42.0020 N   0  0  0  0  0  0  0  0  0  0  0  0
   45.0050   35.6500   43.1300 C   0  0  0  0  0  0  0  0  0  0  0  0
   45.0870   36.8880   43.1740 O   0  0  0  0  0  0  0  0  0  0  0  0
   44.0100   35.1910   42.0990 C   0  0  0  0  0  0  0  0  0  0  0  0
   43.2470   35.8520   41.1190 C   0  0  0  0  0  0  0  0  0  0  0  0
   42.4450   35.0490   40.3680 C   0  0  0  0  0  0  0  0  0  0  0  0
   42.4110   33.7430   40.5730 C   0  0  0  0  0  0  0  0  0  0  0  0
   43.5710   33.3580   41.9480 S   0  0  0  0  0  0  0  0  0  0  0  0
   48.3089   32.5435   43.9182 H   0  0  0  0  0  0  0  0  0  0  0  0
   47.3564   32.0315   46.1502 H   0  0  0  0  0  0  0  0  0  0  0  0
   45.3251   33.2291   46.9041 H   0  0  0  0  0  0  0  0  0  0  0  0
   44.2391   34.9259   45.4666 H   0  0  0  0  0  0  0  0  0  0  0  0
   49.5341   36.4016   40.7326 H   0  0  0  0  0  0  0  0  0  0  0  0
   48.9466   35.0520   38.6997 H   0  0  0  0  0  0  0  0  0  0  0  0
   47.2867   33.1382   38.9551 H   0  0  0  0  0  0  0  0  0  0  0  0
   43.2953   36.9408   40.9703 H   0  0  0  0  0  0  0  0  0  0  0  0
   41.8172   35.4918   39.5807 H   0  0  0  0  0  0  0  0  0  0  0  0
   41.7981   33.0161   40.0198 H   0  0  0  0  0  0  0  0  0  0  0  0
  1  6  1  0
  1  2  2  0
  2  3  1  0
  3  4  2  0
  5  4  1  0
  6  5  2  0
  7 12  2  0
  8  9  2  0
  8  7  1  0
  9 10  1  0
 10 11  2  0
 11  1  1  0
 12 11  1  0
 13 14  2  0
 13  6  1  0
 15 13  1  0
 16 15  2  0
 17 18  2  0
 17 16  1  0
 18 19  1  0
 19 15  1  0
  2 20  1  0
  3 21  1  0
  4 22  1  0
  5 23  1  0
  7 24  1  0
  8 25  1  0
  9 26  1  0
 16 27  1  0
 17 28  1  0
 18 29  1  0
M  ISO  8  20  14  21  14  22  14  23  14  24  14  25  14  26  14  27  14
M  ISO  2  28  14  29  14
M  END
>  <minimizedAffinity>  (1) 
-5.17983198

>  <minimizedRMSD>  (1) 
0.571553648

$$$$
