
     RDKit          3D

 28 30  0  0  0  0  0  0  0  0999 V2000
   46.7730   34.0780   43.4580 C   0  0  0  0  0  0  0  0  0  0  0  0
   47.3310   33.1020   44.2700 C   0  0  0  0  0  0  0  0  0  0  0  0
   46.7970   32.8190   45.5060 C   0  0  0  0  0  0  0  0  0  0  0  0
   45.6980   33.5260   45.9180 C   0  0  0  0  0  0  0  0  0  0  0  0
   45.1160   34.4990   45.1470 C   0  0  0  0  0  0  0  0  0  0  0  0
   45.6830   34.7460   43.9230 C   0  0  0  0  0  0  0  0  0  0  0  0
   48.8370   35.6040   40.8560 C   0  0  0  0  0  0  0  0  0  0  0  0
   48.4900   34.8590   39.7050 C   0  0  0  0  0  0  0  0  0  0  0  0
   47.5300   33.8180   39.8360 C   0  0  0  0  0  0  0  0  0  0  0  0
   47.0090   33.6140   41.0780 N   0  0  0  0  0  0  0  0  0  0  0  0
   47.3660   34.3490   42.1580 C   0  0  0  0  0  0  0  0  0  0  0  0
   48.2650   35.3190   42.0200 N   0  0  0  0  0  0  0  0  0  0  0  0
   45.0170   35.7810   43.1410 C   0  0  0  0  0  0  0  0  0  0  0  0
   45.1820   37.0180   43.2250 O   0  0  0  0  0  0  0  0  0  0  0  0
   44.0590   35.2640   42.1660 C   0  0  0  0  0  0  0  0  0  0  0  0
   43.7090   33.7950   42.3720 C   0  0  0  0  0  0  0  0  0  0  0  0
   42.5160   33.4430   41.0280 S   0  0  0  0  0  0  0  0  0  0  0  0
   42.6560   35.2370   40.4150 C   0  0  0  0  0  0  0  0  0  0  0  0
   43.3900   35.7300   41.1200 N   0  0  0  0  0  0  0  0  0  0  0  0
   48.2135   32.5459   43.9207 H   0  0  0  0  0  0  0  0  0  0  0  0
   47.2415   32.0441   46.1478 H   0  0  0  0  0  0  0  0  0  0  0  0
   45.2661   33.3045   46.9051 H   0  0  0  0  0  0  0  0  0  0  0  0
   44.2338   35.0565   45.4947 H   0  0  0  0  0  0  0  0  0  0  0  0
   49.5768   36.4152   40.7873 H   0  0  0  0  0  0  0  0  0  0  0  0
   48.9518   35.0796   38.7313 H   0  0  0  0  0  0  0  0  0  0  0  0
   47.2226   33.2063   38.9750 H   0  0  0  0  0  0  0  0  0  0  0  0
   44.0843   33.1085   43.1452 H   0  0  0  0  0  0  0  0  0  0  0  0
   42.1363   35.6956   39.5608 H   0  0  0  0  0  0  0  0  0  0  0  0
  1  6  1  0
  1  2  2  0
  2  3  1  0
  3  4  2  0
  5  4  1  0
  6  5  2  0
  7 12  2  0
  8  9  2  0
  8  7  1  0
  9 10  1  0
 10 11  2  0
 11  1  1  0
 12 11  1  0
 13 14  2  0
 13  6  1  0
 15 16  2  0
 15 13  1  0
 17 16  1  0
 18 17  1  0
 18 19  2  0
 19 15  1  0
  2 20  1  0
  3 21  1  0
  4 22  1  0
  5 23  1  0
  7 24  1  0
  8 25  1  0
  9 26  1  0
 16 27  1  0
 18 28  1  0
M  ISO  8  20  14  21  14  22  14  23  14  24  14  25  14  26  14  27  14
M  ISO  1  28  14
M  END
>  <minimizedAffinity>  (1) 
-5.21098518

>  <minimizedRMSD>  (1) 
0.414676368

$$$$
