
     RDKit          3D

 38 41  0  0  0  0  0  0  0  0999 V2000
   46.6030   33.9880   43.0530 C   0  0  0  0  0  0  0  0  0  0  0  0
   47.3290   33.4000   44.0600 C   0  0  0  0  0  0  0  0  0  0  0  0
   46.8350   33.2910   45.3390 C   0  0  0  0  0  0  0  0  0  0  0  0
   45.5870   33.7880   45.5950 C   0  0  0  0  0  0  0  0  0  0  0  0
   44.8140   34.3860   44.6290 C   0  0  0  0  0  0  0  0  0  0  0  0
   45.3590   34.4650   43.3780 C   0  0  0  0  0  0  0  0  0  0  0  0
   48.5000   35.1940   40.1750 C   0  0  0  0  0  0  0  0  0  0  0  0
   48.1920   34.2750   39.1760 C   0  0  0  0  0  0  0  0  0  0  0  0
   47.3190   33.2290   39.5060 C   0  0  0  0  0  0  0  0  0  0  0  0
   46.8230   33.1680   40.7750 N   0  0  0  0  0  0  0  0  0  0  0  0
   47.1520   34.0880   41.7140 C   0  0  0  0  0  0  0  0  0  0  0  0
   47.9810   35.0780   41.3980 N   0  0  0  0  0  0  0  0  0  0  0  0
   44.4930   35.1090   42.3830 C   0  0  0  0  0  0  0  0  0  0  0  0
   44.5830   36.3020   41.9600 O   0  0  0  0  0  0  0  0  0  0  0  0
   43.5040   34.1190   41.9680 C   0  0  0  0  0  0  0  0  0  0  0  0
   43.7130   32.7410   42.0460 C   0  0  0  0  0  0  0  0  0  0  0  0
   42.7950   31.7840   41.6700 C   0  0  0  0  0  0  0  0  0  0  0  0
   41.5740   32.1980   41.1770 C   0  0  0  0  0  0  0  0  0  0  0  0
   41.3000   33.5370   41.0720 C   0  0  0  0  0  0  0  0  0  0  0  0
   40.0730   33.9210   40.5750 C   0  0  0  0  0  0  0  0  0  0  0  0
   39.7600   35.2610   40.4530 C   0  0  0  0  0  0  0  0  0  0  0  0
   40.6960   36.2170   40.8360 C   0  0  0  0  0  0  0  0  0  0  0  0
   41.9060   35.7650   41.3260 C   0  0  0  0  0  0  0  0  0  0  0  0
   42.2620   34.4400   41.4660 C   0  0  0  0  0  0  0  0  0  0  0  0
   48.3317   33.0060   43.8377 H   0  0  0  0  0  0  0  0  0  0  0  0
   47.4280   32.8167   46.1348 H   0  0  0  0  0  0  0  0  0  0  0  0
   45.1855   33.7057   46.6158 H   0  0  0  0  0  0  0  0  0  0  0  0
   43.8110   34.7797   44.8505 H   0  0  0  0  0  0  0  0  0  0  0  0
   49.1815   36.0283   39.9524 H   0  0  0  0  0  0  0  0  0  0  0  0
   48.6175   34.3661   38.1657 H   0  0  0  0  0  0  0  0  0  0  0  0
   47.0398   32.4732   38.7571 H   0  0  0  0  0  0  0  0  0  0  0  0
   44.6810   32.3935   42.4360 H   0  0  0  0  0  0  0  0  0  0  0  0
   43.0304   30.7133   41.7609 H   0  0  0  0  0  0  0  0  0  0  0  0
   40.8230   31.4555   40.8693 H   0  0  0  0  0  0  0  0  0  0  0  0
   39.3403   33.1576   40.2744 H   0  0  0  0  0  0  0  0  0  0  0  0
   38.7810   35.5692   40.0572 H   0  0  0  0  0  0  0  0  0  0  0  0
   40.4804   37.2924   40.7517 H   0  0  0  0  0  0  0  0  0  0  0  0
   42.6443   36.5222   41.6286 H   0  0  0  0  0  0  0  0  0  0  0  0
  1  6  1  0
  1  2  2  0
  2  3  1  0
  3  4  2  0
  5  4  1  0
  6  5  2  0
  7 12  2  0
  8  9  2  0
  8  7  1  0
  9 10  1  0
 10 11  2  0
 11  1  1  0
 12 11  1  0
 13  6  1  0
 14 13  2  0
 15 16  2  0
 15 13  1  0
 17 16  1  0
 18 17  2  0
 19 18  1  0
 19 24  2  0
 20 19  1  0
 21 20  2  0
 21 22  1  0
 22 23  2  0
 23 24  1  0
 24 15  1  0
  2 25  1  0
  3 26  1  0
  4 27  1  0
  5 28  1  0
  7 29  1  0
  8 30  1  0
  9 31  1  0
 16 32  1  0
 17 33  1  0
 18 34  1  0
 20 35  1  0
 21 36  1  0
 22 37  1  0
 23 38  1  0
M  ISO  8  25  14  26  14  27  14  28  14  29  14  30  14  31  14  32  14
M  ISO  6  33  14  34  14  35  14  36  14  37  14  38  14
M  END
>  <minimizedAffinity>  (1) 
-5.75765228

>  <minimizedRMSD>  (1) 
1.49757683

$$$$
