
     RDKit          3D

 45 49  0  0  0  0  0  0  0  0999 V2000
   43.5020   33.7010   40.0950 C   0  0  0  0  0  0  0  0  0  0  0  0
   43.6950   33.7700   38.8670 O   0  0  0  0  0  0  0  0  0  0  0  0
   42.5440   32.9430   40.8250 C   0  0  0  0  0  0  0  0  0  0  0  0
   42.8810   31.8690   41.6700 C   0  0  0  0  0  0  0  0  0  0  0  0
   41.9800   31.0340   42.3180 C   0  0  0  0  0  0  0  0  0  0  0  0
   40.6280   31.2600   42.1240 C   0  0  0  0  0  0  0  0  0  0  0  0
   40.2270   32.2890   41.3110 C   0  0  0  0  0  0  0  0  0  0  0  0
   38.8690   32.4470   41.0890 C   0  0  0  0  0  0  0  0  0  0  0  0
   38.4550   33.4420   40.2470 C   0  0  0  0  0  0  0  0  0  0  0  0
   39.3610   34.2830   39.6430 C   0  0  0  0  0  0  0  0  0  0  0  0
   40.7000   34.0860   39.8960 C   0  0  0  0  0  0  0  0  0  0  0  0
   41.1860   33.0930   40.7020 C   0  0  0  0  0  0  0  0  0  0  0  0
   41.4800   35.2500   39.3140 C   0  0  0  0  0  0  0  0  0  0  0  0
   40.8200   36.4240   38.7830 C   0  0  0  0  0  0  0  0  0  0  0  0
   41.0660   35.4690   37.7860 C   0  0  0  0  0  0  0  0  0  0  0  0
   45.6630   34.1950   41.1920 C   0  0  0  0  0  0  0  0  0  0  0  0
   46.3690   34.8840   42.1540 C   0  0  0  0  0  0  0  0  0  0  0  0
   45.7530   35.7600   43.0010 C   0  0  0  0  0  0  0  0  0  0  0  0
   44.4110   35.9340   42.8640 C   0  0  0  0  0  0  0  0  0  0  0  0
   43.6400   35.2730   41.9180 C   0  0  0  0  0  0  0  0  0  0  0  0
   44.3160   34.4250   41.1150 C   0  0  0  0  0  0  0  0  0  0  0  0
   47.6900   32.8310   38.4680 C   0  0  0  0  0  0  0  0  0  0  0  0
   47.7100   31.4650   38.7350 C   0  0  0  0  0  0  0  0  0  0  0  0
   47.0230   31.0150   39.8610 C   0  0  0  0  0  0  0  0  0  0  0  0
   46.3670   31.9230   40.6400 N   0  0  0  0  0  0  0  0  0  0  0  0
   46.3690   33.2440   40.3460 C   0  0  0  0  0  0  0  0  0  0  0  0
   47.0310   33.6760   39.2650 N   0  0  0  0  0  0  0  0  0  0  0  0
   43.9515   31.6739   41.8312 H   0  0  0  0  0  0  0  0  0  0  0  0
   42.3303   30.2172   42.9662 H   0  0  0  0  0  0  0  0  0  0  0  0
   39.8820   30.6198   42.6176 H   0  0  0  0  0  0  0  0  0  0  0  0
   38.1390   31.7863   41.5795 H   0  0  0  0  0  0  0  0  0  0  0  0
   37.3807   33.5720   40.0496 H   0  0  0  0  0  0  0  0  0  0  0  0
   39.0248   35.0907   38.9762 H   0  0  0  0  0  0  0  0  0  0  0  0
   42.3481   35.1223   39.9774 H   0  0  0  0  0  0  0  0  0  0  0  0
   39.7786   36.6203   39.0777 H   0  0  0  0  0  0  0  0  0  0  0  0
   41.0765   37.4919   38.8450 H   0  0  0  0  0  0  0  0  0  0  0  0
   40.2364   34.8964   37.3456 H   0  0  0  0  0  0  0  0  0  0  0  0
   41.5806   35.4510   36.8139 H   0  0  0  0  0  0  0  0  0  0  0  0
   47.4539   34.7246   42.2416 H   0  0  0  0  0  0  0  0  0  0  0  0
   46.3223   36.3061   43.7676 H   0  0  0  0  0  0  0  0  0  0  0  0
   43.9078   36.6391   43.5419 H   0  0  0  0  0  0  0  0  0  0  0  0
   42.5548   35.4293   41.8291 H   0  0  0  0  0  0  0  0  0  0  0  0
   48.2243   33.2198   37.5886 H   0  0  0  0  0  0  0  0  0  0  0  0
   48.2493   30.7650   38.0800 H   0  0  0  0  0  0  0  0  0  0  0  0
   47.0099   29.9454   40.1175 H   0  0  0  0  0  0  0  0  0  0  0  0
  1  3  1  0
  1 21  1  0
  2  1  2  0
  3  4  2  0
  4  5  1  0
  6  5  2  0
  7  6  1  0
  8  7  2  0
  9  8  1  0
 10 11  1  0
 10  9  2  0
 11 12  2  0
 12  3  1  0
 12  7  1  0
 13 11  1  0
 14 13  1  0
 15 14  1  0
 15 13  1  0
 16 17  2  0
 17 18  1  0
 19 18  2  0
 20 19  1  0
 21 16  1  0
 21 20  2  0
 22 23  2  0
 22 27  1  0
 23 24  1  0
 24 25  2  0
 26 25  1  0
 26 16  1  0
 27 26  2  0
  4 28  1  0
  5 29  1  0
  6 30  1  0
  8 31  1  0
  9 32  1  0
 10 33  1  0
 13 34  1  0
 14 35  1  0
 14 36  1  0
 15 37  1  0
 15 38  1  0
 17 39  1  0
 18 40  1  0
 19 41  1  0
 20 42  1  0
 22 43  1  0
 23 44  1  0
 24 45  1  0
M  ISO  8  28  14  29  14  30  14  31  14  32  14  33  14  34  13  35  13
M  ISO  8  36  13  37  13  38  13  39  14  40  14  41  14  42  14  43  14
M  ISO  2  44  14  45  14
M  END
>  <minimizedAffinity>  (1) 
-6.1316123

>  <minimizedRMSD>  (1) 
2.7162466

$$$$
