
     RDKit          3D

 48 52  0  0  0  0  0  0  0  0999 V2000
   44.5960   31.7780   42.5090 C   0  0  0  0  0  0  0  0  0  0  0  0
   43.8670   30.6980   43.0450 C   0  0  0  0  0  0  0  0  0  0  0  0
   42.5180   30.4480   42.8190 C   0  0  0  0  0  0  0  0  0  0  0  0
   41.8180   31.3140   42.0030 C   0  0  0  0  0  0  0  0  0  0  0  0
   42.4730   32.3900   41.4470 C   0  0  0  0  0  0  0  0  0  0  0  0
   41.7370   33.2380   40.6480 C   0  0  0  0  0  0  0  0  0  0  0  0
   42.3570   34.3460   40.0910 C   0  0  0  0  0  0  0  0  0  0  0  0
   43.7120   34.5820   40.3590 C   0  0  0  0  0  0  0  0  0  0  0  0
   44.3620   33.6860   41.1680 C   0  0  0  0  0  0  0  0  0  0  0  0
   43.8050   32.5750   41.7240 C   0  0  0  0  0  0  0  0  0  0  0  0
   45.6090   34.3630   41.3450 N   0  0  0  0  0  0  0  0  0  0  0  0
   45.9760   35.1370   42.4620 C   0  0  0  0  0  0  0  0  0  0  0  0
   47.2910   35.5830   42.5140 C   0  0  0  0  0  0  0  0  0  0  0  0
   48.1660   35.2630   41.5010 C   0  0  0  0  0  0  0  0  0  0  0  0
   49.3420   35.7020   41.6140 O   0  0  0  0  0  0  0  0  0  0  0  0
   47.8280   34.5270   40.4360 N   0  0  0  0  0  0  0  0  0  0  0  0
   46.5630   34.0840   40.3640 C   0  0  0  0  0  0  0  0  0  0  0  0
   46.2410   33.3900   39.3700 O   0  0  0  0  0  0  0  0  0  0  0  0
   46.0050   31.9440   42.6880 C   0  0  0  0  0  0  0  0  0  0  0  0
   46.9140   31.8930   41.8330 O   0  0  0  0  0  0  0  0  0  0  0  0
   46.9990   31.3130   44.8640 C   0  0  0  0  0  0  0  0  0  0  0  0
   47.1410   31.5820   46.2070 C   0  0  0  0  0  0  0  0  0  0  0  0
   46.5420   32.6570   46.7980 C   0  0  0  0  0  0  0  0  0  0  0  0
   45.7890   33.4680   46.0110 C   0  0  0  0  0  0  0  0  0  0  0  0
   45.6080   33.2530   44.6600 C   0  0  0  0  0  0  0  0  0  0  0  0
   46.2230   32.1760   44.1320 C   0  0  0  0  0  0  0  0  0  0  0  0
   49.5310   29.1340   43.3720 C   0  0  0  0  0  0  0  0  0  0  0  0
   48.8590   27.9290   43.1950 C   0  0  0  0  0  0  0  0  0  0  0  0
   47.5200   27.8680   43.5960 C   0  0  0  0  0  0  0  0  0  0  0  0
   46.9470   28.9800   44.1330 N   0  0  0  0  0  0  0  0  0  0  0  0
   47.6430   30.1430   44.2880 C   0  0  0  0  0  0  0  0  0  0  0  0
   48.9240   30.1970   43.9050 N   0  0  0  0  0  0  0  0  0  0  0  0
   44.4091   29.9955   43.6951 H   0  0  0  0  0  0  0  0  0  0  0  0
   42.0207   29.5814   43.2791 H   0  0  0  0  0  0  0  0  0  0  0  0
   40.7500   31.1465   41.7995 H   0  0  0  0  0  0  0  0  0  0  0  0
   40.6726   33.0386   40.4549 H   0  0  0  0  0  0  0  0  0  0  0  0
   41.7908   35.0331   39.4450 H   0  0  0  0  0  0  0  0  0  0  0  0
   44.2343   35.4530   39.9364 H   0  0  0  0  0  0  0  0  0  0  0  0
   45.2550   35.3777   43.2571 H   0  0  0  0  0  0  0  0  0  0  0  0
   47.6325   36.1915   43.3644 H   0  0  0  0  0  0  0  0  0  0  0  0
   48.5132   34.3084   39.6987 H   0  0  0  0  0  0  0  0  0  0  0  0
   47.7563   30.9097   46.8229 H   0  0  0  0  0  0  0  0  0  0  0  0
   46.6648   32.8589   47.8723 H   0  0  0  0  0  0  0  0  0  0  0  0
   45.2997   34.3383   46.4727 H   0  0  0  0  0  0  0  0  0  0  0  0
   44.9929   33.9264   44.0450 H   0  0  0  0  0  0  0  0  0  0  0  0
   50.5848   29.2127   43.0664 H   0  0  0  0  0  0  0  0  0  0  0  0
   49.3624   27.0553   42.7555 H   0  0  0  0  0  0  0  0  0  0  0  0
   46.9415   26.9396   43.4796 H   0  0  0  0  0  0  0  0  0  0  0  0
  1 19  1  0
  1  2  2  0
  3  2  1  0
  4  3  2  0
  5 10  2  0
  5  4  1  0
  6  5  1  0
  7  8  1  0
  7  6  2  0
  8  9  2  0
  9 11  1  0
  9 10  1  0
 10  1  1  0
 11 12  1  0
 12 13  2  0
 14 15  2  0
 14 13  1  0
 16 14  1  0
 17 16  1  0
 17 11  1  0
 18 17  2  0
 19 26  1  0
 20 19  2  0
 21 22  2  0
 22 23  1  0
 24 23  2  0
 25 24  1  0
 26 25  2  0
 26 21  1  0
 27 32  2  0
 28 27  1  0
 28 29  2  0
 29 30  1  0
 30 31  2  0
 31 21  1  0
 32 31  1  0
  2 33  1  0
  3 34  1  0
  4 35  1  0
  6 36  1  0
  7 37  1  0
  8 38  1  0
 12 39  1  0
 13 40  1  0
 16 41  1  0
 22 42  1  0
 23 43  1  0
 24 44  1  0
 25 45  1  0
 27 46  1  0
 28 47  1  0
 29 48  1  0
M  ISO  8  33  14  34  14  35  14  36  14  37  14  38  14  39  14  40  14
M  ISO  8  41   9  42  14  43  14  44  14  45  14  46  14  47  14  48  14
M  END
>  <minimizedAffinity>  (1) 
-5.47142601

>  <minimizedRMSD>  (1) 
4.44533205

$$$$
