
     RDKit          3D

 36 39  0  0  0  0  0  0  0  0999 V2000
   46.4480   34.3640   41.6170 N   0  0  0  0  0  0  0  0  0  0  0  0
   45.8470   33.6920   40.6210 C   0  0  0  0  0  0  0  0  0  0  0  0
   46.4540   33.4890   39.4020 C   0  0  0  0  0  0  0  0  0  0  0  0
   47.7150   34.0220   39.2720 C   0  0  0  0  0  0  0  0  0  0  0  0
   48.3420   33.8740   38.1710 O   0  0  0  0  0  0  0  0  0  0  0  0
   48.3510   34.7100   40.2680 N   0  0  0  0  0  0  0  0  0  0  0  0
   47.6950   34.8740   41.4490 C   0  0  0  0  0  0  0  0  0  0  0  0
   48.3270   35.5100   42.3170 O   0  0  0  0  0  0  0  0  0  0  0  0
   44.6740   36.1160   44.3270 C   0  0  0  0  0  0  0  0  0  0  0  0
   45.2160   35.8220   43.0540 C   0  0  0  0  0  0  0  0  0  0  0  0
   45.9220   34.6260   42.8950 C   0  0  0  0  0  0  0  0  0  0  0  0
   46.0580   33.7910   43.9810 N   0  0  0  0  0  0  0  0  0  0  0  0
   45.5230   34.1130   45.1830 C   0  0  0  0  0  0  0  0  0  0  0  0
   44.8340   35.2660   45.3630 N   0  0  0  0  0  0  0  0  0  0  0  0
   44.5400   33.1940   40.8890 N   0  0  0  0  0  0  0  0  0  0  0  0
   44.2620   31.9940   41.4400 C   0  0  0  0  0  0  0  0  0  0  0  0
   42.9510   31.8150   41.5640 N   0  0  0  0  0  0  0  0  0  0  0  0
   42.3360   32.9050   41.0930 C   0  0  0  0  0  0  0  0  0  0  0  0
   41.0400   33.3550   40.9350 C   0  0  0  0  0  0  0  0  0  0  0  0
   40.7570   34.5710   40.3970 N   0  0  0  0  0  0  0  0  0  0  0  0
   41.7710   35.3830   39.9960 C   0  0  0  0  0  0  0  0  0  0  0  0
   43.0710   34.9900   40.1300 N   0  0  0  0  0  0  0  0  0  0  0  0
   43.3360   33.7770   40.6670 C   0  0  0  0  0  0  0  0  0  0  0  0
   39.9890   32.4890   41.3610 N   0  0  0  0  0  0  0  0  0  0  0  0
   45.7770   32.7470   38.3220 C   0  0  0  0  0  0  0  0  0  0  0  0
   49.2972   35.0923   40.1287 H   0  0  0  0  0  0  0  0  0  0  0  0
   44.1139   37.0511   44.4747 H   0  0  0  0  0  0  0  0  0  0  0  0
   45.0853   36.5165   42.2110 H   0  0  0  0  0  0  0  0  0  0  0  0
   45.6505   33.4240   46.0310 H   0  0  0  0  0  0  0  0  0  0  0  0
   45.0215   31.2597   41.7466 H   0  0  0  0  0  0  0  0  0  0  0  0
   41.5414   36.3662   39.5594 H   0  0  0  0  0  0  0  0  0  0  0  0
   39.0070   32.7836   41.2622 H   0  0  0  0  0  0  0  0  0  0  0  0
   40.2123   31.5693   41.7674 H   0  0  0  0  0  0  0  0  0  0  0  0
   45.0968   32.0015   38.7598 H   0  0  0  0  0  0  0  0  0  0  0  0
   45.2011   33.4484   37.7004 H   0  0  0  0  0  0  0  0  0  0  0  0
   46.5281   32.2377   37.7004 H   0  0  0  0  0  0  0  0  0  0  0  0
  1 11  1  0
  2 15  1  0
  2  1  1  0
  3  2  2  0
  4  3  1  0
  4  6  1  0
  5  4  2  0
  6  7  1  0
  7  1  1  0
  7  8  2  0
  9 14  2  0
 10  9  1  0
 11 10  2  0
 11 12  1  0
 12 13  2  0
 13 14  1  0
 15 16  1  0
 16 17  2  0
 18 17  1  0
 19 18  2  0
 19 24  1  0
 20 19  1  0
 21 22  1  0
 21 20  2  0
 22 23  2  0
 23 15  1  0
 23 18  1  0
 25  3  1  0
  6 26  1  0
  9 27  1  0
 10 28  1  0
 13 29  1  0
 16 30  1  0
 21 31  1  0
 24 32  1  0
 24 33  1  0
 25 34  1  0
 25 35  1  0
 25 36  1  0
M  ISO  8  26   9  27  14  28  14  29  14  30  14  31  14  34   8  35   8
M  ISO  1  36   8
M  END
>  <minimizedAffinity>  (1) 
-6.35653353

>  <minimizedRMSD>  (1) 
1.25884044

$$$$
