
     RDKit          3D

 41 44  0  0  0  0  0  0  0  0999 V2000
   43.4660   33.6450   40.1930 C   0  0  0  0  0  0  0  0  0  0  0  0
   43.6530   33.7160   38.9720 O   0  0  0  0  0  0  0  0  0  0  0  0
   42.5250   32.8890   40.9400 C   0  0  0  0  0  0  0  0  0  0  0  0
   42.8750   31.8260   41.7940 C   0  0  0  0  0  0  0  0  0  0  0  0
   41.9810   30.9900   42.4430 C   0  0  0  0  0  0  0  0  0  0  0  0
   40.6320   31.1960   42.2440 C   0  0  0  0  0  0  0  0  0  0  0  0
   40.2170   32.2090   41.4250 C   0  0  0  0  0  0  0  0  0  0  0  0
   38.8610   32.3240   41.1790 C   0  0  0  0  0  0  0  0  0  0  0  0
   38.4390   33.2920   40.3090 C   0  0  0  0  0  0  0  0  0  0  0  0
   39.3460   34.1380   39.7130 C   0  0  0  0  0  0  0  0  0  0  0  0
   40.6770   34.0170   39.9630 C   0  0  0  0  0  0  0  0  0  0  0  0
   41.1630   33.0310   40.8060 C   0  0  0  0  0  0  0  0  0  0  0  0
   41.4240   35.0720   39.2690 C   0  0  0  0  0  0  0  0  0  0  0  0
   40.3840   36.0050   38.8770 F   0  0  0  0  0  0  0  0  0  0  0  0
   41.5010   34.8610   37.8440 F   0  0  0  0  0  0  0  0  0  0  0  0
   41.9500   36.1480   39.8160 F   0  0  0  0  0  0  0  0  0  0  0  0
   45.6430   34.1650   41.2370 C   0  0  0  0  0  0  0  0  0  0  0  0
   46.3680   34.8480   42.1870 C   0  0  0  0  0  0  0  0  0  0  0  0
   45.7660   35.7010   43.0710 C   0  0  0  0  0  0  0  0  0  0  0  0
   44.4190   35.8510   42.9840 C   0  0  0  0  0  0  0  0  0  0  0  0
   43.6320   35.1890   42.0480 C   0  0  0  0  0  0  0  0  0  0  0  0
   44.2910   34.3700   41.2070 C   0  0  0  0  0  0  0  0  0  0  0  0
   47.6370   32.8590   38.4660 C   0  0  0  0  0  0  0  0  0  0  0  0
   47.6690   31.4920   38.7010 C   0  0  0  0  0  0  0  0  0  0  0  0
   46.9980   31.0130   39.8230 C   0  0  0  0  0  0  0  0  0  0  0  0
   46.3470   31.9000   40.6280 N   0  0  0  0  0  0  0  0  0  0  0  0
   46.3350   33.2330   40.3660 C   0  0  0  0  0  0  0  0  0  0  0  0
   46.9850   33.6890   39.2840 N   0  0  0  0  0  0  0  0  0  0  0  0
   43.9471   31.6441   41.9597 H   0  0  0  0  0  0  0  0  0  0  0  0
   42.3378   30.1830   43.0998 H   0  0  0  0  0  0  0  0  0  0  0  0
   39.8943   30.5491   42.7413 H   0  0  0  0  0  0  0  0  0  0  0  0
   38.1399   31.6542   41.6703 H   0  0  0  0  0  0  0  0  0  0  0  0
   37.3671   33.3947   40.0844 H   0  0  0  0  0  0  0  0  0  0  0  0
   38.9903   34.9207   39.0268 H   0  0  0  0  0  0  0  0  0  0  0  0
   47.4575   34.7045   42.2366 H   0  0  0  0  0  0  0  0  0  0  0  0
   46.3522   36.2461   43.8255 H   0  0  0  0  0  0  0  0  0  0  0  0
   43.9242   36.5325   43.6916 H   0  0  0  0  0  0  0  0  0  0  0  0
   42.5417   35.3257   41.9980 H   0  0  0  0  0  0  0  0  0  0  0  0
   48.1592   33.2673   37.5882 H   0  0  0  0  0  0  0  0  0  0  0  0
   48.2057   30.8105   38.0246 H   0  0  0  0  0  0  0  0  0  0  0  0
   46.9932   29.9379   40.0558 H   0  0  0  0  0  0  0  0  0  0  0  0
  1  3  1  0
  1 22  1  0
  2  1  2  0
  3  4  2  0
  4  5  1  0
  6  5  2  0
  7  6  1  0
  8  7  2  0
  9  8  1  0
 10 11  1  0
 10  9  2  0
 11 12  2  0
 12  3  1  0
 12  7  1  0
 13 16  1  0
 13 11  1  0
 14 13  1  0
 15 13  1  0
 17 18  2  0
 18 19  1  0
 20 19  2  0
 21 20  1  0
 22 17  1  0
 22 21  2  0
 23 24  2  0
 23 28  1  0
 24 25  1  0
 25 26  2  0
 27 26  1  0
 27 17  1  0
 28 27  2  0
  4 29  1  0
  5 30  1  0
  6 31  1  0
  8 32  1  0
  9 33  1  0
 10 34  1  0
 18 35  1  0
 19 36  1  0
 20 37  1  0
 21 38  1  0
 23 39  1  0
 24 40  1  0
 25 41  1  0
M  ISO  8  29  14  30  14  31  14  32  14  33  14  34  14  35  14  36  14
M  ISO  5  37  14  38  14  39  14  40  14  41  14
M  END
>  <minimizedAffinity>  (1) 
-6.22029543

>  <minimizedRMSD>  (1) 
2.79442096

$$$$
