
     RDKit          3D

 37 40  0  0  0  0  0  0  0  0999 V2000
   46.4660   34.3060   41.6100 N   0  0  0  0  0  0  0  0  0  0  0  0
   45.8800   33.5770   40.6370 C   0  0  0  0  0  0  0  0  0  0  0  0
   46.4960   33.4000   39.4040 C   0  0  0  0  0  0  0  0  0  0  0  0
   47.7240   34.0150   39.2510 C   0  0  0  0  0  0  0  0  0  0  0  0
   48.3170   33.8760   38.1430 O   0  0  0  0  0  0  0  0  0  0  0  0
   48.3100   34.7460   40.2250 N   0  0  0  0  0  0  0  0  0  0  0  0
   47.6620   34.8820   41.4050 C   0  0  0  0  0  0  0  0  0  0  0  0
   48.2750   35.5790   42.2550 O   0  0  0  0  0  0  0  0  0  0  0  0
   44.5520   33.0070   40.8110 C   0  0  0  0  0  0  0  0  0  0  0  0
   44.6330   31.7630   41.3550 N   0  0  0  0  0  0  0  0  0  0  0  0
   43.5380   31.0310   41.6310 C   0  0  0  0  0  0  0  0  0  0  0  0
   42.3110   31.5460   41.3610 N   0  0  0  0  0  0  0  0  0  0  0  0
   42.1780   32.7710   40.8270 C   0  0  0  0  0  0  0  0  0  0  0  0
   40.9750   33.3830   40.5500 C   0  0  0  0  0  0  0  0  0  0  0  0
   40.9130   34.6630   40.0270 C   0  0  0  0  0  0  0  0  0  0  0  0
   42.0930   35.3540   39.7700 C   0  0  0  0  0  0  0  0  0  0  0  0
   43.3260   34.7800   40.0310 C   0  0  0  0  0  0  0  0  0  0  0  0
   43.3050   33.5090   40.5490 C   0  0  0  0  0  0  0  0  0  0  0  0
   44.6690   36.0560   44.3170 C   0  0  0  0  0  0  0  0  0  0  0  0
   45.2100   35.7670   43.0330 C   0  0  0  0  0  0  0  0  0  0  0  0
   45.9420   34.5640   42.8850 C   0  0  0  0  0  0  0  0  0  0  0  0
   46.0660   33.7840   43.9820 N   0  0  0  0  0  0  0  0  0  0  0  0
   45.5470   34.0830   45.1770 C   0  0  0  0  0  0  0  0  0  0  0  0
   44.8430   35.2190   45.3600 N   0  0  0  0  0  0  0  0  0  0  0  0
   45.8550   32.5950   38.3560 C   0  0  0  0  0  0  0  0  0  0  0  0
   49.2274   35.1888   40.0728 H   0  0  0  0  0  0  0  0  0  0  0  0
   43.6358   30.0272   42.0702 H   0  0  0  0  0  0  0  0  0  0  0  0
   40.0394   32.8401   40.7497 H   0  0  0  0  0  0  0  0  0  0  0  0
   39.9395   35.1298   39.8164 H   0  0  0  0  0  0  0  0  0  0  0  0
   42.0458   36.3710   39.3535 H   0  0  0  0  0  0  0  0  0  0  0  0
   44.2684   35.3122   39.8344 H   0  0  0  0  0  0  0  0  0  0  0  0
   44.0957   36.9835   44.4622 H   0  0  0  0  0  0  0  0  0  0  0  0
   45.0648   36.4535   42.1859 H   0  0  0  0  0  0  0  0  0  0  0  0
   45.6958   33.3942   46.0216 H   0  0  0  0  0  0  0  0  0  0  0  0
   45.2340   31.8151   38.8210 H   0  0  0  0  0  0  0  0  0  0  0  0
   45.2228   33.2429   37.7311 H   0  0  0  0  0  0  0  0  0  0  0  0
   46.6281   32.1240   37.7311 H   0  0  0  0  0  0  0  0  0  0  0  0
  1 21  1  0
  2  9  1  0
  2  1  1  0
  3  2  2  0
  4  3  1  0
  4  6  1  0
  5  4  2  0
  6  7  1  0
  7  1  1  0
  7  8  2  0
  9 10  2  0
 10 11  1  0
 12 11  2  0
 13 12  1  0
 14 13  2  0
 15 14  1  0
 16 15  2  0
 16 17  1  0
 17 18  2  0
 18  9  1  0
 18 13  1  0
 19 24  2  0
 20 19  1  0
 21 20  2  0
 21 22  1  0
 22 23  2  0
 23 24  1  0
 25  3  1  0
  6 26  1  0
 11 27  1  0
 14 28  1  0
 15 29  1  0
 16 30  1  0
 17 31  1  0
 19 32  1  0
 20 33  1  0
 23 34  1  0
 25 35  1  0
 25 36  1  0
 25 37  1  0
M  ISO  8  26   9  27  14  28  14  29  14  30  14  31  14  32  14  33  14
M  ISO  4  34  14  35   8  36   8  37   8
M  END
>  <minimizedAffinity>  (1) 
-6.23430204

>  <minimizedRMSD>  (1) 
0.562959135

$$$$
