
     RDKit          3D

 36 38  0  0  0  0  0  0  0  0999 V2000
   46.4990   34.4350   41.6210 N   0  0  0  0  0  0  0  0  0  0  0  0
   45.8690   33.8960   40.5480 C   0  0  0  0  0  0  0  0  0  0  0  0
   46.5280   33.6450   39.3630 C   0  0  0  0  0  0  0  0  0  0  0  0
   47.8620   33.9800   39.3520 C   0  0  0  0  0  0  0  0  0  0  0  0
   48.5210   33.7710   38.2880 O   0  0  0  0  0  0  0  0  0  0  0  0
   48.5220   34.5250   40.4210 N   0  0  0  0  0  0  0  0  0  0  0  0
   47.8030   34.7410   41.5480 C   0  0  0  0  0  0  0  0  0  0  0  0
   48.4650   35.2430   42.4920 O   0  0  0  0  0  0  0  0  0  0  0  0
   44.4840   33.6030   40.7130 N   0  0  0  0  0  0  0  0  0  0  0  0
   43.4660   34.4080   40.4290 C   0  0  0  0  0  0  0  0  0  0  0  0
   42.1530   33.9940   40.6390 C   0  0  0  0  0  0  0  0  0  0  0  0
   41.0470   34.9230   40.3090 C   0  0  0  0  0  0  0  0  0  0  0  0
   41.9190   32.7320   41.1470 C   0  0  0  0  0  0  0  0  0  0  0  0
   40.7080   32.3900   41.3260 O   0  0  0  0  0  0  0  0  0  0  0  0
   42.9770   31.9450   41.4240 N   0  0  0  0  0  0  0  0  0  0  0  0
   44.2280   32.3670   41.2130 C   0  0  0  0  0  0  0  0  0  0  0  0
   45.0810   31.4710   41.5390 O   0  0  0  0  0  0  0  0  0  0  0  0
   44.7150   36.2990   44.2480 C   0  0  0  0  0  0  0  0  0  0  0  0
   45.3060   35.9820   42.9950 C   0  0  0  0  0  0  0  0  0  0  0  0
   45.9200   34.7310   42.8720 C   0  0  0  0  0  0  0  0  0  0  0  0
   45.9160   33.8960   43.9480 N   0  0  0  0  0  0  0  0  0  0  0  0
   45.3450   34.2360   45.1170 C   0  0  0  0  0  0  0  0  0  0  0  0
   44.7460   35.4260   45.2750 N   0  0  0  0  0  0  0  0  0  0  0  0
   45.8270   33.0600   38.2110 C   0  0  0  0  0  0  0  0  0  0  0  0
   49.5234   34.7607   40.3699 H   0  0  0  0  0  0  0  0  0  0  0  0
   43.6622   35.4117   40.0239 H   0  0  0  0  0  0  0  0  0  0  0  0
   40.5964   35.3015   41.2384 H   0  0  0  0  0  0  0  0  0  0  0  0
   41.4394   35.7664   39.7218 H   0  0  0  0  0  0  0  0  0  0  0  0
   40.2841   34.3909   39.7218 H   0  0  0  0  0  0  0  0  0  0  0  0
   42.8192   31.0012   41.8052 H   0  0  0  0  0  0  0  0  0  0  0  0
   44.2236   37.2739   44.3823 H   0  0  0  0  0  0  0  0  0  0  0  0
   45.2816   36.6921   42.1552 H   0  0  0  0  0  0  0  0  0  0  0  0
   45.3694   33.5268   45.9575 H   0  0  0  0  0  0  0  0  0  0  0  0
   45.0281   32.3933   38.5678 H   0  0  0  0  0  0  0  0  0  0  0  0
   45.3887   33.8640   37.6016 H   0  0  0  0  0  0  0  0  0  0  0  0
   46.5396   32.4849   37.6016 H   0  0  0  0  0  0  0  0  0  0  0  0
  1 20  1  0
  2  9  1  0
  2  1  1  0
  3  2  2  0
  4  3  1  0
  4  6  1  0
  5  4  2  0
  6  7  1  0
  7  1  1  0
  7  8  2  0
  9 16  1  0
 10 11  2  0
 10  9  1  0
 11 13  1  0
 12 11  1  0
 13 14  2  0
 13 15  1  0
 16 15  1  0
 16 17  2  0
 18 23  2  0
 19 18  1  0
 20 19  2  0
 20 21  1  0
 21 22  2  0
 22 23  1  0
 24  3  1  0
  6 25  1  0
 10 26  1  0
 12 27  1  0
 12 28  1  0
 12 29  1  0
 15 30  1  0
 18 31  1  0
 19 32  1  0
 22 33  1  0
 24 34  1  0
 24 35  1  0
 24 36  1  0
M  ISO  8  25   9  26  14  27   8  28   8  29   8  30   9  31  14  32  14
M  ISO  4  33  14  34   8  35   8  36   8
M  END
>  <minimizedAffinity>  (1) 
-6.00502253

>  <minimizedRMSD>  (1) 
0.711498499

$$$$
