
     RDKit          3D

 33 35  0  0  0  0  0  0  0  0999 V2000
   46.4980   34.4230   41.6200 N   0  0  0  0  0  0  0  0  0  0  0  0
   45.8990   33.8650   40.5630 C   0  0  0  0  0  0  0  0  0  0  0  0
   46.5350   33.6360   39.3590 C   0  0  0  0  0  0  0  0  0  0  0  0
   47.8510   34.0320   39.3300 C   0  0  0  0  0  0  0  0  0  0  0  0
   48.5100   33.8570   38.2590 O   0  0  0  0  0  0  0  0  0  0  0  0
   48.4840   34.5990   40.3790 N   0  0  0  0  0  0  0  0  0  0  0  0
   47.7920   34.7920   41.5320 C   0  0  0  0  0  0  0  0  0  0  0  0
   48.4490   35.3250   42.4650 O   0  0  0  0  0  0  0  0  0  0  0  0
   44.7140   36.2230   44.2900 C   0  0  0  0  0  0  0  0  0  0  0  0
   45.2940   35.9270   43.0290 C   0  0  0  0  0  0  0  0  0  0  0  0
   45.9330   34.6920   42.8740 C   0  0  0  0  0  0  0  0  0  0  0  0
   45.9540   33.8520   43.9530 N   0  0  0  0  0  0  0  0  0  0  0  0
   45.3940   34.1660   45.1320 C   0  0  0  0  0  0  0  0  0  0  0  0
   44.7710   35.3500   45.3100 N   0  0  0  0  0  0  0  0  0  0  0  0
   44.4970   33.4910   40.7310 C   0  0  0  0  0  0  0  0  0  0  0  0
   43.9690   32.3340   41.2630 C   0  0  0  0  0  0  0  0  0  0  0  0
   42.5910   32.2010   41.3180 C   0  0  0  0  0  0  0  0  0  0  0  0
   41.7400   33.1760   40.8670 C   0  0  0  0  0  0  0  0  0  0  0  0
   42.2560   34.3540   40.3260 C   0  0  0  0  0  0  0  0  0  0  0  0
   43.6340   34.4770   40.2740 C   0  0  0  0  0  0  0  0  0  0  0  0
   45.8320   33.0160   38.2200 C   0  0  0  0  0  0  0  0  0  0  0  0
   49.4723   34.8798   40.3066 H   0  0  0  0  0  0  0  0  0  0  0  0
   44.2067   37.1881   44.4356 H   0  0  0  0  0  0  0  0  0  0  0  0
   45.2427   36.6467   42.1987 H   0  0  0  0  0  0  0  0  0  0  0  0
   45.4436   33.4485   45.9643 H   0  0  0  0  0  0  0  0  0  0  0  0
   44.6267   31.5347   41.6353 H   0  0  0  0  0  0  0  0  0  0  0  0
   42.1642   31.2788   41.7392 H   0  0  0  0  0  0  0  0  0  0  0  0
   40.6516   33.0300   40.9315 H   0  0  0  0  0  0  0  0  0  0  0  0
   41.5953   35.1519   39.9561 H   0  0  0  0  0  0  0  0  0  0  0  0
   44.0639   35.3972   39.8517 H   0  0  0  0  0  0  0  0  0  0  0  0
   45.0567   32.3322   38.5959 H   0  0  0  0  0  0  0  0  0  0  0  0
   45.3635   33.8003   37.6074 H   0  0  0  0  0  0  0  0  0  0  0  0
   46.5516   32.4531   37.6074 H   0  0  0  0  0  0  0  0  0  0  0  0
  1 11  1  0
  2 15  1  0
  2  1  1  0
  3  2  2  0
  4  3  1  0
  4  6  1  0
  5  4  2  0
  6  7  1  0
  7  1  1  0
  7  8  2  0
  9 14  2  0
 10  9  1  0
 11 10  2  0
 11 12  1  0
 12 13  2  0
 13 14  1  0
 15 16  2  0
 16 17  1  0
 18 17  2  0
 19 18  1  0
 20 19  2  0
 20 15  1  0
 21  3  1  0
  6 22  1  0
  9 23  1  0
 10 24  1  0
 13 25  1  0
 16 26  1  0
 17 27  1  0
 18 28  1  0
 19 29  1  0
 20 30  1  0
 21 31  1  0
 21 32  1  0
 21 33  1  0
M  ISO  8  22   9  23  14  24  14  25  14  26  14  27  14  28  14  29  14
M  ISO  4  30  14  31   8  32   8  33   8
M  END
>  <minimizedAffinity>  (1) 
-5.59469986

>  <minimizedRMSD>  (1) 
0.38561973

$$$$
