
     RDKit          3D

 31 33  0  0  0  0  0  0  0  0999 V2000
   46.5220   34.4260   41.5990 N   0  0  0  0  0  0  0  0  0  0  0  0
   45.9190   33.8440   40.5430 C   0  0  0  0  0  0  0  0  0  0  0  0
   46.5660   33.6390   39.3410 C   0  0  0  0  0  0  0  0  0  0  0  0
   47.8700   34.0700   39.2960 C   0  0  0  0  0  0  0  0  0  0  0  0
   48.5210   33.9110   38.2220 O   0  0  0  0  0  0  0  0  0  0  0  0
   48.5040   34.6610   40.3500 N   0  0  0  0  0  0  0  0  0  0  0  0
   47.7980   34.8260   41.4940 C   0  0  0  0  0  0  0  0  0  0  0  0
   48.4440   35.3760   42.4170 O   0  0  0  0  0  0  0  0  0  0  0  0
   44.7110   36.2010   44.2710 C   0  0  0  0  0  0  0  0  0  0  0  0
   45.2920   35.9220   43.0040 C   0  0  0  0  0  0  0  0  0  0  0  0
   45.9530   34.6810   42.8650 C   0  0  0  0  0  0  0  0  0  0  0  0
   45.9950   33.8400   43.9300 N   0  0  0  0  0  0  0  0  0  0  0  0
   45.4320   34.1440   45.1090 C   0  0  0  0  0  0  0  0  0  0  0  0
   44.7950   35.3070   45.2890 N   0  0  0  0  0  0  0  0  0  0  0  0
   44.5300   33.4410   40.7470 C   0  0  0  0  0  0  0  0  0  0  0  0
   44.0800   32.2480   41.2830 C   0  0  0  0  0  0  0  0  0  0  0  0
   42.7140   32.0780   41.3820 C   0  0  0  0  0  0  0  0  0  0  0  0
   41.8370   33.0160   40.9840 N   0  0  0  0  0  0  0  0  0  0  0  0
   42.2800   34.1580   40.4720 C   0  0  0  0  0  0  0  0  0  0  0  0
   43.5950   34.3500   40.3630 N   0  0  0  0  0  0  0  0  0  0  0  0
   45.8620   33.0040   38.2100 C   0  0  0  0  0  0  0  0  0  0  0  0
   49.4838   34.9704   40.2782 H   0  0  0  0  0  0  0  0  0  0  0  0
   44.1860   37.1547   44.4287 H   0  0  0  0  0  0  0  0  0  0  0  0
   45.2299   36.6382   42.1714 H   0  0  0  0  0  0  0  0  0  0  0  0
   45.4949   33.4265   45.9404 H   0  0  0  0  0  0  0  0  0  0  0  0
   44.7807   31.4682   41.6161 H   0  0  0  0  0  0  0  0  0  0  0  0
   42.3276   31.1381   41.8031 H   0  0  0  0  0  0  0  0  0  0  0  0
   41.5731   34.9339   40.1428 H   0  0  0  0  0  0  0  0  0  0  0  0
   45.0969   32.3139   38.5952 H   0  0  0  0  0  0  0  0  0  0  0  0
   45.3806   33.7793   37.5959 H   0  0  0  0  0  0  0  0  0  0  0  0
   46.5837   32.4455   37.5959 H   0  0  0  0  0  0  0  0  0  0  0  0
  1 11  1  0
  2 15  1  0
  2  1  1  0
  3  2  2  0
  4  3  1  0
  4  6  1  0
  5  4  2  0
  6  7  1  0
  7  1  1  0
  7  8  2  0
  9 14  2  0
 10  9  1  0
 11 10  2  0
 11 12  1  0
 12 13  2  0
 13 14  1  0
 15 16  2  0
 16 17  1  0
 18 17  2  0
 19 18  1  0
 20 19  2  0
 20 15  1  0
 21  3  1  0
  6 22  1  0
  9 23  1  0
 10 24  1  0
 13 25  1  0
 16 26  1  0
 17 27  1  0
 19 28  1  0
 21 29  1  0
 21 30  1  0
 21 31  1  0
M  ISO  8  22   9  23  14  24  14  25  14  26  14  27  14  28  14  29   8
M  ISO  2  30   8  31   8
M  END
>  <minimizedAffinity>  (1) 
-5.49149656

>  <minimizedRMSD>  (1) 
0.266722679

$$$$
