
     RDKit          3D

 31 33  0  0  0  0  0  0  0  0999 V2000
   46.5130   34.4350   41.5790 N   0  0  0  0  0  0  0  0  0  0  0  0
   45.9200   33.8560   40.5300 C   0  0  0  0  0  0  0  0  0  0  0  0
   46.5710   33.6460   39.3330 C   0  0  0  0  0  0  0  0  0  0  0  0
   47.8940   34.0790   39.2940 C   0  0  0  0  0  0  0  0  0  0  0  0
   48.5390   33.9110   38.2240 O   0  0  0  0  0  0  0  0  0  0  0  0
   48.5090   34.6650   40.3460 N   0  0  0  0  0  0  0  0  0  0  0  0
   47.8070   34.8430   41.4990 C   0  0  0  0  0  0  0  0  0  0  0  0
   48.4510   35.3910   42.4170 O   0  0  0  0  0  0  0  0  0  0  0  0
   44.7200   36.2130   44.2710 C   0  0  0  0  0  0  0  0  0  0  0  0
   45.3000   35.9250   43.0080 C   0  0  0  0  0  0  0  0  0  0  0  0
   45.9460   34.6960   42.8380 C   0  0  0  0  0  0  0  0  0  0  0  0
   45.9790   33.8390   43.9130 N   0  0  0  0  0  0  0  0  0  0  0  0
   45.4160   34.1540   45.0930 C   0  0  0  0  0  0  0  0  0  0  0  0
   44.7930   35.3270   45.2720 N   0  0  0  0  0  0  0  0  0  0  0  0
   44.5370   33.4520   40.7030 C   0  0  0  0  0  0  0  0  0  0  0  0
   43.5410   34.3120   40.3060 C   0  0  0  0  0  0  0  0  0  0  0  0
   42.2060   34.0060   40.4360 C   0  0  0  0  0  0  0  0  0  0  0  0
   41.8260   32.8220   40.9690 N   0  0  0  0  0  0  0  0  0  0  0  0
   42.8170   31.9800   41.3570 C   0  0  0  0  0  0  0  0  0  0  0  0
   44.1190   32.2740   41.2330 N   0  0  0  0  0  0  0  0  0  0  0  0
   45.8860   33.0030   38.1890 C   0  0  0  0  0  0  0  0  0  0  0  0
   49.4900   34.9710   40.2765 H   0  0  0  0  0  0  0  0  0  0  0  0
   44.2060   37.1726   44.4288 H   0  0  0  0  0  0  0  0  0  0  0  0
   45.2429   36.6505   42.1831 H   0  0  0  0  0  0  0  0  0  0  0  0
   45.4677   33.4367   45.9254 H   0  0  0  0  0  0  0  0  0  0  0  0
   43.8218   35.2812   39.8680 H   0  0  0  0  0  0  0  0  0  0  0  0
   41.4442   34.7272   40.1051 H   0  0  0  0  0  0  0  0  0  0  0  0
   42.5386   31.0098   41.7942 H   0  0  0  0  0  0  0  0  0  0  0  0
   45.1320   32.2952   38.5638 H   0  0  0  0  0  0  0  0  0  0  0  0
   45.3938   33.7728   37.5765 H   0  0  0  0  0  0  0  0  0  0  0  0
   46.6232   32.4632   37.5765 H   0  0  0  0  0  0  0  0  0  0  0  0
  1 11  1  0
  2 15  1  0
  2  1  1  0
  3  2  2  0
  4  3  1  0
  4  6  1  0
  5  4  2  0
  6  7  1  0
  7  1  1  0
  7  8  2  0
  9 14  2  0
 10  9  1  0
 11 10  2  0
 11 12  1  0
 12 13  2  0
 13 14  1  0
 15 20  2  0
 16 17  2  0
 16 15  1  0
 17 18  1  0
 18 19  2  0
 20 19  1  0
 21  3  1  0
  6 22  1  0
  9 23  1  0
 10 24  1  0
 13 25  1  0
 16 26  1  0
 17 27  1  0
 19 28  1  0
 21 29  1  0
 21 30  1  0
 21 31  1  0
M  ISO  8  22   9  23  14  24  14  25  14  26  14  27  14  28  14  29   8
M  ISO  2  30   8  31   8
M  END
>  <minimizedAffinity>  (1) 
-5.50169134

>  <minimizedRMSD>  (1) 
0.224576145

$$$$
