
     RDKit          3D

 30 32  0  0  0  0  0  0  0  0999 V2000
   46.5360   34.4370   41.5730 N   0  0  0  0  0  0  0  0  0  0  0  0
   45.9090   33.8490   40.5280 C   0  0  0  0  0  0  0  0  0  0  0  0
   46.5690   33.6400   39.3280 C   0  0  0  0  0  0  0  0  0  0  0  0
   47.8790   34.0690   39.2830 C   0  0  0  0  0  0  0  0  0  0  0  0
   48.5310   33.9020   38.2090 O   0  0  0  0  0  0  0  0  0  0  0  0
   48.5040   34.6590   40.3340 N   0  0  0  0  0  0  0  0  0  0  0  0
   47.8120   34.8370   41.4800 C   0  0  0  0  0  0  0  0  0  0  0  0
   48.4510   35.3870   42.4040 O   0  0  0  0  0  0  0  0  0  0  0  0
   44.7060   36.1960   44.2560 C   0  0  0  0  0  0  0  0  0  0  0  0
   45.2960   35.9220   42.9890 C   0  0  0  0  0  0  0  0  0  0  0  0
   45.9530   34.6970   42.8400 C   0  0  0  0  0  0  0  0  0  0  0  0
   45.9940   33.8330   43.9100 N   0  0  0  0  0  0  0  0  0  0  0  0
   45.4190   34.1450   45.0860 C   0  0  0  0  0  0  0  0  0  0  0  0
   44.7800   35.3100   45.2660 N   0  0  0  0  0  0  0  0  0  0  0  0
   44.5170   33.4500   40.7310 C   0  0  0  0  0  0  0  0  0  0  0  0
   43.8950   32.3310   41.2450 C   0  0  0  0  0  0  0  0  0  0  0  0
   42.5330   32.4880   41.1960 C   0  0  0  0  0  0  0  0  0  0  0  0
   42.3370   33.7020   40.6550 N   0  0  0  0  0  0  0  0  0  0  0  0
   43.4920   34.2730   40.3780 N   0  0  0  0  0  0  0  0  0  0  0  0
   45.8780   32.9990   38.1970 C   0  0  0  0  0  0  0  0  0  0  0  0
   49.4848   34.9643   40.2589 H   0  0  0  0  0  0  0  0  0  0  0  0
   44.1801   37.1495   44.4118 H   0  0  0  0  0  0  0  0  0  0  0  0
   45.2372   36.6445   42.1617 H   0  0  0  0  0  0  0  0  0  0  0  0
   45.4745   33.4281   45.9184 H   0  0  0  0  0  0  0  0  0  0  0  0
   44.4144   31.4439   41.6364 H   0  0  0  0  0  0  0  0  0  0  0  0
   41.7659   31.7731   41.5284 H   0  0  0  0  0  0  0  0  0  0  0  0
   41.4147   34.1264   40.4813 H   0  0  0  0  0  0  0  0  0  0  0  0
   45.1218   32.2975   38.5793 H   0  0  0  0  0  0  0  0  0  0  0  0
   45.3871   33.7687   37.5833 H   0  0  0  0  0  0  0  0  0  0  0  0
   46.6088   32.4518   37.5833 H   0  0  0  0  0  0  0  0  0  0  0  0
  1 11  1  0
  2 15  1  0
  2  1  1  0
  3  2  2  0
  4  3  1  0
  4  6  1  0
  5  4  2  0
  6  7  1  0
  7  1  1  0
  7  8  2  0
  9 14  2  0
 10  9  1  0
 11 10  2  0
 11 12  1  0
 12 13  2  0
 13 14  1  0
 15 16  1  0
 17 16  2  0
 18 17  1  0
 19 18  1  0
 19 15  2  0
 20  3  1  0
  6 21  1  0
  9 22  1  0
 10 23  1  0
 13 24  1  0
 16 25  1  0
 17 26  1  0
 18 27  1  0
 20 28  1  0
 20 29  1  0
 20 30  1  0
M  ISO  8  21   9  22  14  23  14  24  14  25  14  26  14  27   9  28   8
M  ISO  2  29   8  30   8
M  END
>  <minimizedAffinity>  (1) 
-5.29805708

>  <minimizedRMSD>  (1) 
0.394526929

$$$$
