
     RDKit          3D

 37 39  0  0  0  0  0  0  0  0999 V2000
   46.5290   34.4430   41.5650 N   0  0  0  0  0  0  0  0  0  0  0  0
   45.9650   33.8300   40.5220 C   0  0  0  0  0  0  0  0  0  0  0  0
   46.6090   33.6390   39.3110 C   0  0  0  0  0  0  0  0  0  0  0  0
   47.8960   34.1390   39.2660 C   0  0  0  0  0  0  0  0  0  0  0  0
   48.5300   33.9890   38.1750 O   0  0  0  0  0  0  0  0  0  0  0  0
   48.5010   34.7650   40.2950 N   0  0  0  0  0  0  0  0  0  0  0  0
   47.8020   34.9120   41.4480 C   0  0  0  0  0  0  0  0  0  0  0  0
   48.4260   35.5050   42.3680 O   0  0  0  0  0  0  0  0  0  0  0  0
   44.7130   36.1470   44.2710 C   0  0  0  0  0  0  0  0  0  0  0  0
   45.2910   35.8910   42.9970 C   0  0  0  0  0  0  0  0  0  0  0  0
   45.9620   34.6790   42.8220 C   0  0  0  0  0  0  0  0  0  0  0  0
   46.0080   33.8320   43.8920 N   0  0  0  0  0  0  0  0  0  0  0  0
   45.4560   34.0990   45.0770 C   0  0  0  0  0  0  0  0  0  0  0  0
   44.8010   35.2670   45.2730 N   0  0  0  0  0  0  0  0  0  0  0  0
   44.6290   33.3540   40.6550 N   0  0  0  0  0  0  0  0  0  0  0  0
   43.5900   34.2850   40.2520 C   0  0  0  0  0  0  0  0  0  0  0  0
   42.4090   33.4580   39.7930 C   0  0  0  0  0  0  0  0  0  0  0  0
   41.8340   32.8170   40.9500 N   0  0  0  0  0  0  0  0  0  0  0  0
   42.8120   32.1580   41.7720 C   0  0  0  0  0  0  0  0  0  0  0  0
   44.1680   32.0690   41.1380 C   0  0  0  0  0  0  0  0  0  0  0  0
   45.9330   32.9490   38.1880 C   0  0  0  0  0  0  0  0  0  0  0  0
   49.4638   35.1205   40.2085 H   0  0  0  0  0  0  0  0  0  0  0  0
   44.1793   37.0946   44.4361 H   0  0  0  0  0  0  0  0  0  0  0  0
   45.2123   36.6218   42.1786 H   0  0  0  0  0  0  0  0  0  0  0  0
   45.5334   33.3687   45.8959 H   0  0  0  0  0  0  0  0  0  0  0  0
   43.2996   34.9186   41.1030 H   0  0  0  0  0  0  0  0  0  0  0  0
   43.9446   34.9443   39.4460 H   0  0  0  0  0  0  0  0  0  0  0  0
   41.6607   34.1087   39.3169 H   0  0  0  0  0  0  0  0  0  0  0  0
   42.7335   32.7035   39.0613 H   0  0  0  0  0  0  0  0  0  0  0  0
   41.3563   33.5316   41.5175 H   0  0  0  0  0  0  0  0  0  0  0  0
   42.9054   32.7154   42.7157 H   0  0  0  0  0  0  0  0  0  0  0  0
   42.4606   31.1273   41.9275 H   0  0  0  0  0  0  0  0  0  0  0  0
   44.1183   31.3688   40.2911 H   0  0  0  0  0  0  0  0  0  0  0  0
   44.8774   31.7204   41.9030 H   0  0  0  0  0  0  0  0  0  0  0  0
   45.2154   32.2166   38.5863 H   0  0  0  0  0  0  0  0  0  0  0  0
   45.3992   33.6876   37.5719 H   0  0  0  0  0  0  0  0  0  0  0  0
   46.6823   32.4305   37.5719 H   0  0  0  0  0  0  0  0  0  0  0  0
  1 11  1  0
  2 15  1  0
  2  1  1  0
  3  2  2  0
  4  3  1  0
  4  6  1  0
  5  4  2  0
  6  7  1  0
  7  1  1  0
  7  8  2  0
  9 14  2  0
 10  9  1  0
 11 10  2  0
 11 12  1  0
 12 13  2  0
 13 14  1  0
 15 20  1  0
 16 15  1  0
 17 16  1  0
 17 18  1  0
 18 19  1  0
 20 19  1  0
 21  3  1  0
  6 22  1  0
  9 23  1  0
 10 24  1  0
 13 25  1  0
 16 26  1  0
 16 27  1  0
 17 28  1  0
 17 29  1  0
 18 30  1  0
 19 31  1  0
 19 32  1  0
 20 33  1  0
 20 34  1  0
 21 35  1  0
 21 36  1  0
 21 37  1  0
M  ISO  8  22   9  23  14  24  14  25  14  26  13  27  13  28  13  29  13
M  ISO  8  30   5  31  13  32  13  33  13  34  13  35   8  36   8  37   8
M  END
>  <minimizedAffinity>  (1) 
-5.48868179

>  <minimizedRMSD>  (1) 
0.461634785

$$$$
