
     RDKit          3D

 30 32  0  0  0  0  0  0  0  0999 V2000
   46.5970   34.3340   41.6860 N   0  0  0  0  0  0  0  0  0  0  0  0
   45.9880   33.9240   40.5470 C   0  0  0  0  0  0  0  0  0  0  0  0
   46.7270   33.6060   39.4190 C   0  0  0  0  0  0  0  0  0  0  0  0
   48.0870   33.7350   39.5260 C   0  0  0  0  0  0  0  0  0  0  0  0
   48.8140   33.4600   38.5270 O   0  0  0  0  0  0  0  0  0  0  0  0
   48.7240   34.1500   40.6660 N   0  0  0  0  0  0  0  0  0  0  0  0
   47.9510   34.4470   41.7440 C   0  0  0  0  0  0  0  0  0  0  0  0
   48.5900   34.8210   42.7490 O   0  0  0  0  0  0  0  0  0  0  0  0
   44.7700   36.3400   44.1690 C   0  0  0  0  0  0  0  0  0  0  0  0
   45.4160   35.9820   42.9440 C   0  0  0  0  0  0  0  0  0  0  0  0
   45.9760   34.6770   42.9040 C   0  0  0  0  0  0  0  0  0  0  0  0
   45.8810   33.8400   43.9970 N   0  0  0  0  0  0  0  0  0  0  0  0
   45.2480   34.2690   45.1150 C   0  0  0  0  0  0  0  0  0  0  0  0
   44.7000   35.4970   45.2060 N   0  0  0  0  0  0  0  0  0  0  0  0
   44.5400   33.9730   40.5410 C   0  0  0  0  0  0  0  0  0  0  0  0
   43.7180   32.9360   40.9680 C   0  0  0  0  0  0  0  0  0  0  0  0
   42.3920   33.1990   40.7730 N   0  0  0  0  0  0  0  0  0  0  0  0
   42.3410   34.4250   40.2090 C   0  0  0  0  0  0  0  0  0  0  0  0
   43.6000   34.8090   40.1060 N   0  0  0  0  0  0  0  0  0  0  0  0
   46.0770   33.1210   38.2040 C   0  0  0  0  0  0  0  0  0  0  0  0
   49.7499   34.2338   40.7046 H   0  0  0  0  0  0  0  0  0  0  0  0
   44.3172   37.3382   44.2614 H   0  0  0  0  0  0  0  0  0  0  0  0
   45.4753   36.6718   42.0892 H   0  0  0  0  0  0  0  0  0  0  0  0
   45.1788   33.5915   45.9788 H   0  0  0  0  0  0  0  0  0  0  0  0
   44.0950   32.0042   41.4147 H   0  0  0  0  0  0  0  0  0  0  0  0
   41.4443   34.9831   39.9018 H   0  0  0  0  0  0  0  0  0  0  0  0
   43.8464   35.7242   39.7028 H   0  0  0  0  0  0  0  0  0  0  0  0
   45.2225   32.4834   38.4748 H   0  0  0  0  0  0  0  0  0  0  0  0
   45.7224   33.9770   37.6111 H   0  0  0  0  0  0  0  0  0  0  0  0
   46.7966   32.5373   37.6111 H   0  0  0  0  0  0  0  0  0  0  0  0
  1  7  1  0
  1 11  1  0
  2  1  1  0
  3  4  1  0
  3  2  2  0
  4  6  1  0
  5  4  2  0
  6  7  1  0
  7  8  2  0
  9 14  2  0
 10  9  1  0
 11 10  2  0
 11 12  1  0
 12 13  2  0
 13 14  1  0
 15  2  1  0
 15 16  2  0
 17 16  1  0
 18 17  2  0
 19 18  1  0
 19 15  1  0
 20  3  1  0
  6 21  1  0
  9 22  1  0
 10 23  1  0
 13 24  1  0
 16 25  1  0
 18 26  1  0
 19 27  1  0
 20 28  1  0
 20 29  1  0
 20 30  1  0
M  ISO  8  21   9  22  14  23  14  24  14  25  14  26  14  27   9  28   8
M  ISO  2  29   8  30   8
M  END
>  <minimizedAffinity>  (1) 
-5.42747021

>  <minimizedRMSD>  (1) 
0.742319584

$$$$
