
     RDKit          3D

 30 31  0  0  0  0  0  0  0  0999 V2000
   46.6000   34.4650   41.5130 N   0  0  0  0  0  0  0  0  0  0  0  0
   45.9860   33.8710   40.4530 C   0  0  0  0  0  0  0  0  0  0  0  0
   46.6630   33.6690   39.2710 C   0  0  0  0  0  0  0  0  0  0  0  0
   47.9840   34.1140   39.2540 C   0  0  0  0  0  0  0  0  0  0  0  0
   48.6530   33.9540   38.1940 O   0  0  0  0  0  0  0  0  0  0  0  0
   48.5840   34.7060   40.3180 N   0  0  0  0  0  0  0  0  0  0  0  0
   47.8700   34.8750   41.4490 C   0  0  0  0  0  0  0  0  0  0  0  0
   48.4820   35.4250   42.3870 O   0  0  0  0  0  0  0  0  0  0  0  0
   44.7560   36.2600   44.1660 C   0  0  0  0  0  0  0  0  0  0  0  0
   45.3670   35.9880   42.9100 C   0  0  0  0  0  0  0  0  0  0  0  0
   45.9880   34.7200   42.7690 C   0  0  0  0  0  0  0  0  0  0  0  0
   45.9530   33.8710   43.8240 N   0  0  0  0  0  0  0  0  0  0  0  0
   45.3680   34.1600   44.9940 C   0  0  0  0  0  0  0  0  0  0  0  0
   44.7700   35.3470   45.1710 N   0  0  0  0  0  0  0  0  0  0  0  0
   44.6470   33.4890   40.7320 N   0  0  0  0  0  0  0  0  0  0  0  0
   43.4530   33.8580   40.0510 C   0  0  0  0  0  0  0  0  0  0  0  0
   43.3270   35.1710   40.1490 N   0  0  0  0  0  0  0  0  0  0  0  0
   42.6240   32.8830   39.4210 N   0  0  0  0  0  0  0  0  0  0  0  0
   42.4890   35.5700   39.6890 H   0  0  0  0  0  0  0  0  0  0  0  0
   46.0340   33.0090   38.1320 C   0  0  0  0  0  0  0  0  0  0  0  0
   49.5636   35.0193   40.2625 H   0  0  0  0  0  0  0  0  0  0  0  0
   44.2622   37.2298   44.3261 H   0  0  0  0  0  0  0  0  0  0  0  0
   45.3584   36.7224   42.0911 H   0  0  0  0  0  0  0  0  0  0  0  0
   45.3782   33.4228   45.8103 H   0  0  0  0  0  0  0  0  0  0  0  0
   44.5230   32.8588   41.5372 H   0  0  0  0  0  0  0  0  0  0  0  0
   42.8877   31.8877   39.4483 H   0  0  0  0  0  0  0  0  0  0  0  0
   41.7617   33.1743   38.9388 H   0  0  0  0  0  0  0  0  0  0  0  0
   45.3173   32.2570   38.4938 H   0  0  0  0  0  0  0  0  0  0  0  0
   45.5050   33.7558   37.5217 H   0  0  0  0  0  0  0  0  0  0  0  0
   46.8054   32.5165   37.5217 H   0  0  0  0  0  0  0  0  0  0  0  0
  1 11  1  0
  2 15  1  0
  2  1  1  0
  3  2  2  0
  4  3  1  0
  4  6  1  0
  5  4  2  0
  6  7  1  0
  7  1  1  0
  7  8  2  0
  9 14  2  0
 10  9  1  0
 11 10  2  0
 11 12  1  0
 12 13  2  0
 13 14  1  0
 16 17  2  0
 16 15  1  0
 18 16  1  0
 19 17  1  0
 20  3  1  0
  6 21  1  0
  9 22  1  0
 10 23  1  0
 13 24  1  0
 15 25  1  0
 18 26  1  0
 18 27  1  0
 20 28  1  0
 20 29  1  0
 20 30  1  0
M  ISO  7  21   9  22  14  23  14  24  14  28   8  29   8  30   8
M  END
>  <minimizedAffinity>  (1) 
-5.39225006

>  <minimizedRMSD>  (1) 
0.343836784

$$$$
