
     RDKit          3D

 32 33  0  0  0  0  0  0  0  0999 V2000
   46.5780   34.4490   41.5300 N   0  0  0  0  0  0  0  0  0  0  0  0
   45.9640   33.8370   40.4840 C   0  0  0  0  0  0  0  0  0  0  0  0
   46.6380   33.6500   39.2880 C   0  0  0  0  0  0  0  0  0  0  0  0
   47.9480   34.1250   39.2540 C   0  0  0  0  0  0  0  0  0  0  0  0
   48.5980   33.9720   38.1820 O   0  0  0  0  0  0  0  0  0  0  0  0
   48.5430   34.7290   40.3020 N   0  0  0  0  0  0  0  0  0  0  0  0
   47.8430   34.8880   41.4440 C   0  0  0  0  0  0  0  0  0  0  0  0
   48.4560   35.4570   42.3700 O   0  0  0  0  0  0  0  0  0  0  0  0
   44.7140   36.1930   44.2040 C   0  0  0  0  0  0  0  0  0  0  0  0
   45.3100   35.9380   42.9300 C   0  0  0  0  0  0  0  0  0  0  0  0
   45.9830   34.6940   42.7970 C   0  0  0  0  0  0  0  0  0  0  0  0
   46.0110   33.8580   43.8630 N   0  0  0  0  0  0  0  0  0  0  0  0
   45.4350   34.1450   45.0370 C   0  0  0  0  0  0  0  0  0  0  0  0
   44.7860   35.3110   45.2100 N   0  0  0  0  0  0  0  0  0  0  0  0
   45.9760   33.0190   38.1460 C   0  0  0  0  0  0  0  0  0  0  0  0
   44.5630   33.3870   40.6990 C   0  0  0  0  0  0  0  0  0  0  0  0
   44.4400   32.3340   41.7780 C   0  0  0  0  0  0  0  0  0  0  0  0
   43.5710   34.5130   40.8390 C   0  0  0  0  0  0  0  0  0  0  0  0
   49.5148   35.0631   40.2320 H   0  0  0  0  0  0  0  0  0  0  0  0
   44.1803   37.1416   44.3632 H   0  0  0  0  0  0  0  0  0  0  0  0
   45.2511   36.6609   42.1030 H   0  0  0  0  0  0  0  0  0  0  0  0
   45.4926   33.4233   45.8651 H   0  0  0  0  0  0  0  0  0  0  0  0
   45.2241   32.3023   38.5081 H   0  0  0  0  0  0  0  0  0  0  0  0
   45.4834   33.7902   37.5357 H   0  0  0  0  0  0  0  0  0  0  0  0
   46.7228   32.4900   37.5357 H   0  0  0  0  0  0  0  0  0  0  0  0
   44.2762   32.8865   39.7624 H   0  0  0  0  0  0  0  0  0  0  0  0
   44.4960   32.8135   42.7664 H   0  0  0  0  0  0  0  0  0  0  0  0
   43.4752   31.8156   41.6761 H   0  0  0  0  0  0  0  0  0  0  0  0
   45.2594   31.6072   41.6761 H   0  0  0  0  0  0  0  0  0  0  0  0
   43.3933   34.7146   41.9057 H   0  0  0  0  0  0  0  0  0  0  0  0
   43.9717   35.4168   40.3568 H   0  0  0  0  0  0  0  0  0  0  0  0
   42.6239   34.2294   40.3568 H   0  0  0  0  0  0  0  0  0  0  0  0
  1 11  1  0
  2 16  1  0
  2  1  1  0
  3  2  2  0
  4  3  1  0
  4  6  1  0
  5  4  2  0
  6  7  1  0
  7  1  1  0
  7  8  2  0
  9 14  2  0
 10  9  1  0
 11 10  2  0
 11 12  1  0
 12 13  2  0
 13 14  1  0
 15  3  1  0
 16 18  1  0
 16 17  1  0
  6 19  1  0
  9 20  1  0
 10 21  1  0
 13 22  1  0
 15 23  1  0
 15 24  1  0
 15 25  1  0
 16 26  1  0
 17 27  1  0
 17 28  1  0
 17 29  1  0
 18 30  1  0
 18 31  1  0
 18 32  1  0
M  ISO  8  19   9  20  14  21  14  22  14  23   8  24   8  25   8  26   8
M  ISO  6  27   8  28   8  29   8  30   8  31   8  32   8
M  END
>  <minimizedAffinity>  (1) 
-5.03896379

>  <minimizedRMSD>  (1) 
0.161634445

$$$$
