
     RDKit          3D

 30 32  0  0  0  0  0  0  0  0999 V2000
   46.5810   34.4310   41.5360 N   0  0  0  0  0  0  0  0  0  0  0  0
   45.9800   33.8050   40.4930 C   0  0  0  0  0  0  0  0  0  0  0  0
   46.6550   33.6400   39.2920 C   0  0  0  0  0  0  0  0  0  0  0  0
   47.9340   34.1380   39.2360 C   0  0  0  0  0  0  0  0  0  0  0  0
   48.5830   34.0070   38.1590 O   0  0  0  0  0  0  0  0  0  0  0  0
   48.5320   34.7650   40.2850 N   0  0  0  0  0  0  0  0  0  0  0  0
   47.8420   34.9090   41.4420 C   0  0  0  0  0  0  0  0  0  0  0  0
   48.4430   35.4880   42.3580 O   0  0  0  0  0  0  0  0  0  0  0  0
   44.7290   36.2110   44.1950 C   0  0  0  0  0  0  0  0  0  0  0  0
   45.3330   35.9170   42.9510 C   0  0  0  0  0  0  0  0  0  0  0  0
   45.9910   34.6670   42.8020 C   0  0  0  0  0  0  0  0  0  0  0  0
   46.0050   33.8230   43.8600 N   0  0  0  0  0  0  0  0  0  0  0  0
   45.4180   34.1400   45.0300 C   0  0  0  0  0  0  0  0  0  0  0  0
   44.7870   35.3090   45.2090 N   0  0  0  0  0  0  0  0  0  0  0  0
   45.9890   32.9940   38.1560 C   0  0  0  0  0  0  0  0  0  0  0  0
   44.6260   33.3510   40.8070 C   0  0  0  0  0  0  0  0  0  0  0  0
   43.6670   33.0720   39.6320 C   0  0  0  0  0  0  0  0  0  0  0  0
   43.4030   34.1320   40.6620 C   0  0  0  0  0  0  0  0  0  0  0  0
   49.4936   35.1243   40.2009 H   0  0  0  0  0  0  0  0  0  0  0  0
   44.2118   37.1707   44.3418 H   0  0  0  0  0  0  0  0  0  0  0  0
   45.2944   36.6372   42.1205 H   0  0  0  0  0  0  0  0  0  0  0  0
   45.4575   33.4203   45.8609 H   0  0  0  0  0  0  0  0  0  0  0  0
   45.2460   32.2733   38.5281 H   0  0  0  0  0  0  0  0  0  0  0  0
   45.4855   33.7568   37.5440 H   0  0  0  0  0  0  0  0  0  0  0  0
   46.7361   32.4674   37.5440 H   0  0  0  0  0  0  0  0  0  0  0  0
   45.0541   32.8183   41.6689 H   0  0  0  0  0  0  0  0  0  0  0  0
   43.0637   32.1524   39.6111 H   0  0  0  0  0  0  0  0  0  0  0  0
   43.7456   33.0329   38.5355 H   0  0  0  0  0  0  0  0  0  0  0  0
   43.4676   35.1926   40.3773 H   0  0  0  0  0  0  0  0  0  0  0  0
   42.5562   34.3509   41.3291 H   0  0  0  0  0  0  0  0  0  0  0  0
  1 11  1  0
  2 16  1  0
  2  1  1  0
  3  2  2  0
  4  3  1  0
  4  6  1  0
  5  4  2  0
  6  7  1  0
  7  1  1  0
  7  8  2  0
  9 14  2  0
 10  9  1  0
 11 10  2  0
 11 12  1  0
 12 13  2  0
 13 14  1  0
 15  3  1  0
 17 18  1  0
 17 16  1  0
 18 16  1  0
  6 19  1  0
  9 20  1  0
 10 21  1  0
 13 22  1  0
 15 23  1  0
 15 24  1  0
 15 25  1  0
 16 26  1  0
 17 27  1  0
 17 28  1  0
 18 29  1  0
 18 30  1  0
M  ISO  8  19   9  20  14  21  14  22  14  23   8  24   8  25   8  26  13
M  ISO  4  27  13  28  13  29  13  30  13
M  END
>  <minimizedAffinity>  (1) 
-5.00893259

>  <minimizedRMSD>  (1) 
0.759911597

$$$$
