
     RDKit          3D

 35 36  0  0  0  0  0  0  0  0999 V2000
   46.5310   34.4070   41.5300 N   0  0  0  0  0  0  0  0  0  0  0  0
   45.9340   33.7600   40.4920 C   0  0  0  0  0  0  0  0  0  0  0  0
   46.6320   33.5950   39.3120 C   0  0  0  0  0  0  0  0  0  0  0  0
   47.9140   34.0900   39.2590 C   0  0  0  0  0  0  0  0  0  0  0  0
   48.5880   33.9380   38.1930 O   0  0  0  0  0  0  0  0  0  0  0  0
   48.5070   34.7340   40.2990 N   0  0  0  0  0  0  0  0  0  0  0  0
   47.7800   34.8800   41.4250 C   0  0  0  0  0  0  0  0  0  0  0  0
   48.3930   35.5060   42.3310 O   0  0  0  0  0  0  0  0  0  0  0  0
   44.6940   36.1640   44.1840 C   0  0  0  0  0  0  0  0  0  0  0  0
   45.2820   35.8800   42.9230 C   0  0  0  0  0  0  0  0  0  0  0  0
   45.9750   34.6730   42.7990 C   0  0  0  0  0  0  0  0  0  0  0  0
   46.0630   33.8230   43.8860 N   0  0  0  0  0  0  0  0  0  0  0  0
   45.4820   34.1430   45.0630 C   0  0  0  0  0  0  0  0  0  0  0  0
   44.7980   35.3090   45.2140 N   0  0  0  0  0  0  0  0  0  0  0  0
   45.9870   33.0460   38.1580 C   0  0  0  0  0  0  0  0  0  0  0  0
   44.5750   33.2740   40.6050 C   0  0  0  0  0  0  0  0  0  0  0  0
   44.3270   32.5640   41.9420 C   0  0  0  0  0  0  0  0  0  0  0  0
   43.9100   32.4620   39.5820 C   0  0  0  0  0  0  0  0  0  0  0  0
   43.6790   34.5750   40.6120 C   0  0  0  0  0  0  0  0  0  0  0  0
   49.4694   35.0945   40.2298 H   0  0  0  0  0  0  0  0  0  0  0  0
   44.1411   37.1052   44.3200 H   0  0  0  0  0  0  0  0  0  0  0  0
   45.1956   36.5806   42.0794 H   0  0  0  0  0  0  0  0  0  0  0  0
   45.5634   33.4494   45.9129 H   0  0  0  0  0  0  0  0  0  0  0  0
   45.1851   32.3635   38.4761 H   0  0  0  0  0  0  0  0  0  0  0  0
   45.5580   33.8603   37.5556 H   0  0  0  0  0  0  0  0  0  0  0  0
   46.7223   32.4924   37.5556 H   0  0  0  0  0  0  0  0  0  0  0  0
   44.5658   33.2476   42.7700 H   0  0  0  0  0  0  0  0  0  0  0  0
   43.2708   32.2638   42.0074 H   0  0  0  0  0  0  0  0  0  0  0  0
   44.9666   31.6714   42.0074 H   0  0  0  0  0  0  0  0  0  0  0  0
   43.2850   31.6988   40.0687 H   0  0  0  0  0  0  0  0  0  0  0  0
   43.2781   33.1079   38.9547 H   0  0  0  0  0  0  0  0  0  0  0  0
   44.6678   31.9698   38.9547 H   0  0  0  0  0  0  0  0  0  0  0  0
   43.4736   34.8732   41.6507 H   0  0  0  0  0  0  0  0  0  0  0  0
   44.2094   35.3883   40.0951 H   0  0  0  0  0  0  0  0  0  0  0  0
   42.7300   34.3694   40.0951 H   0  0  0  0  0  0  0  0  0  0  0  0
  1 11  1  0
  2 16  1  0
  2  1  1  0
  3  2  2  0
  4  3  1  0
  4  6  1  0
  5  4  2  0
  6  7  1  0
  7  1  1  0
  7  8  2  0
  9 14  2  0
 10  9  1  0
 11 10  2  0
 11 12  1  0
 12 13  2  0
 13 14  1  0
 15  3  1  0
 16 19  1  0
 16 17  1  0
 18 16  1  0
  6 20  1  0
  9 21  1  0
 10 22  1  0
 13 23  1  0
 15 24  1  0
 15 25  1  0
 15 26  1  0
 17 27  1  0
 17 28  1  0
 17 29  1  0
 18 30  1  0
 18 31  1  0
 18 32  1  0
 19 33  1  0
 19 34  1  0
 19 35  1  0
M  ISO  8  20   9  21  14  22  14  23  14  24   8  25   8  26   8  27   8
M  ISO  8  28   8  29   8  30   8  31   8  32   8  33   8  34   8  35   8
M  END
>  <minimizedAffinity>  (1) 
-5.15542221

>  <minimizedRMSD>  (1) 
0.618419707

$$$$
