
     RDKit          3D

 25 26  0  0  0  0  0  0  0  0999 V2000
   46.5760   34.4240   41.5240 N   0  0  0  0  0  0  0  0  0  0  0  0
   46.0050   33.8170   40.4800 C   0  0  0  0  0  0  0  0  0  0  0  0
   46.6310   33.6310   39.2740 C   0  0  0  0  0  0  0  0  0  0  0  0
   47.9290   34.1310   39.2260 C   0  0  0  0  0  0  0  0  0  0  0  0
   48.5930   34.0040   38.1440 O   0  0  0  0  0  0  0  0  0  0  0  0
   48.5390   34.7570   40.2790 N   0  0  0  0  0  0  0  0  0  0  0  0
   47.8290   34.8910   41.4270 C   0  0  0  0  0  0  0  0  0  0  0  0
   48.4530   35.4740   42.3480 O   0  0  0  0  0  0  0  0  0  0  0  0
   44.6910   36.1120   44.2120 C   0  0  0  0  0  0  0  0  0  0  0  0
   45.2830   35.8530   42.9520 C   0  0  0  0  0  0  0  0  0  0  0  0
   45.9990   34.6520   42.7850 C   0  0  0  0  0  0  0  0  0  0  0  0
   46.0720   33.8120   43.8630 N   0  0  0  0  0  0  0  0  0  0  0  0
   45.4970   34.0900   45.0430 C   0  0  0  0  0  0  0  0  0  0  0  0
   44.8050   35.2400   45.2230 N   0  0  0  0  0  0  0  0  0  0  0  0
   45.9910   32.9620   38.1370 C   0  0  0  0  0  0  0  0  0  0  0  0
   44.6390   33.3370   40.6560 C   0  0  0  0  0  0  0  0  0  0  0  0
   43.5900   33.9770   40.4000 O   0  0  0  0  0  0  0  0  0  0  0  0
   49.5023   35.1135   40.2026 H   0  0  0  0  0  0  0  0  0  0  0  0
   44.1280   37.0448   44.3634 H   0  0  0  0  0  0  0  0  0  0  0  0
   45.1860   36.5716   42.1248 H   0  0  0  0  0  0  0  0  0  0  0  0
   45.5888   33.3752   45.8741 H   0  0  0  0  0  0  0  0  0  0  0  0
   45.2750   32.2136   38.5075 H   0  0  0  0  0  0  0  0  0  0  0  0
   45.4599   33.7061   37.5252 H   0  0  0  0  0  0  0  0  0  0  0  0
   46.7579   32.4644   37.5252 H   0  0  0  0  0  0  0  0  0  0  0  0
   44.5165   32.3175   41.0505 H   0  0  0  0  0  0  0  0  0  0  0  0
  1 11  1  0
  2 16  1  0
  2  1  1  0
  3  2  2  0
  4  3  1  0
  4  6  1  0
  5  4  2  0
  6  7  1  0
  7  1  1  0
  7  8  2  0
  9 14  2  0
 10  9  1  0
 11 10  2  0
 11 12  1  0
 12 13  2  0
 13 14  1  0
 15  3  1  0
 17 16  2  0
  6 18  1  0
  9 19  1  0
 10 20  1  0
 13 21  1  0
 15 22  1  0
 15 23  1  0
 15 24  1  0
 16 25  1  0
M  ISO  8  18   9  19  14  20  14  21  14  22   8  23   8  24   8  25   6
M  END
>  <minimizedAffinity>  (1) 
-4.81301403

>  <minimizedRMSD>  (1) 
0.313201904

$$$$
