
     RDKit          3D

 50 53  0  0  0  0  0  0  0  0999 V2000
   46.8050   34.0710   41.8600 N   0  0  0  0  0  0  0  0  0  0  0  0
   46.4600   33.0410   41.0620 C   0  0  0  0  0  0  0  0  0  0  0  0
   47.1430   32.7820   39.8800 C   0  0  0  0  0  0  0  0  0  0  0  0
   48.1910   33.6690   39.6140 C   0  0  0  0  0  0  0  0  0  0  0  0
   48.8630   33.4970   38.5610 O   0  0  0  0  0  0  0  0  0  0  0  0
   48.5280   34.7020   40.4260 N   0  0  0  0  0  0  0  0  0  0  0  0
   47.8110   34.8910   41.5630 C   0  0  0  0  0  0  0  0  0  0  0  0
   48.1730   35.8550   42.2610 O   0  0  0  0  0  0  0  0  0  0  0  0
   45.3270   32.1550   41.5090 C   0  0  0  0  0  0  0  0  0  0  0  0
   45.6470   31.1640   42.5760 C   0  0  0  0  0  0  0  0  0  0  0  0
   44.3190   30.8020   43.2260 C   0  0  0  0  0  0  0  0  0  0  0  0
   43.3280   30.6150   42.0820 C   0  0  0  0  0  0  0  0  0  0  0  0
   42.8940   31.8910   41.4220 C   0  0  0  0  0  0  0  0  0  0  0  0
   44.0290   32.8680   41.6870 C   0  0  0  0  0  0  0  0  0  0  0  0
   44.5560   35.8380   44.1830 C   0  0  0  0  0  0  0  0  0  0  0  0
   45.2230   35.4910   42.9790 C   0  0  0  0  0  0  0  0  0  0  0  0
   46.1510   34.4140   43.0660 C   0  0  0  0  0  0  0  0  0  0  0  0
   46.3020   33.8450   44.2630 N   0  0  0  0  0  0  0  0  0  0  0  0
   45.6630   34.1930   45.3720 C   0  0  0  0  0  0  0  0  0  0  0  0
   44.7850   35.1930   45.3410 N   0  0  0  0  0  0  0  0  0  0  0  0
   46.8140   31.7130   38.9970 C   0  0  0  0  0  0  0  0  0  0  0  0
   46.1900   31.9910   37.7730 N   0  0  0  0  0  0  0  0  0  0  0  0
   46.9060   31.4540   36.7300 C   0  0  0  0  0  0  0  0  0  0  0  0
   46.6130   31.6430   35.3770 C   0  0  0  0  0  0  0  0  0  0  0  0
   45.5220   32.4250   34.9850 C   0  0  0  0  0  0  0  0  0  0  0  0
   45.0550   32.7420   33.6910 N   0  0  0  0  0  0  0  0  0  0  0  0
   44.8290   32.9430   36.0180 N   0  0  0  0  0  0  0  0  0  0  0  0
   45.1890   32.7020   37.2850 C   0  0  0  0  0  0  0  0  0  0  0  0
   44.4710   33.2100   38.1950 O   0  0  0  0  0  0  0  0  0  0  0  0
   49.3096   35.3282   40.1855 H   0  0  0  0  0  0  0  0  0  0  0  0
   45.1703   31.5039   40.6364 H   0  0  0  0  0  0  0  0  0  0  0  0
   46.1147   30.2695   42.1388 H   0  0  0  0  0  0  0  0  0  0  0  0
   46.3548   31.5771   43.3097 H   0  0  0  0  0  0  0  0  0  0  0  0
   44.4171   29.8705   43.8027 H   0  0  0  0  0  0  0  0  0  0  0  0
   43.9857   31.5842   43.9239 H   0  0  0  0  0  0  0  0  0  0  0  0
   43.7989   29.9766   41.3200 H   0  0  0  0  0  0  0  0  0  0  0  0
   42.4246   30.1655   42.5200 H   0  0  0  0  0  0  0  0  0  0  0  0
   41.9558   32.2570   41.8645 H   0  0  0  0  0  0  0  0  0  0  0  0
   42.7009   31.7589   40.3472 H   0  0  0  0  0  0  0  0  0  0  0  0
   43.9552   33.2506   42.7157 H   0  0  0  0  0  0  0  0  0  0  0  0
   43.9669   33.7129   40.9854 H   0  0  0  0  0  0  0  0  0  0  0  0
   43.8274   36.6620   44.1686 H   0  0  0  0  0  0  0  0  0  0  0  0
   45.0343   36.0225   42.0346 H   0  0  0  0  0  0  0  0  0  0  0  0
   45.8577   33.6577   46.3130 H   0  0  0  0  0  0  0  0  0  0  0  0
   47.7536   31.1903   38.7647 H   0  0  0  0  0  0  0  0  0  0  0  0
   46.0503   31.1481   39.5517 H   0  0  0  0  0  0  0  0  0  0  0  0
   47.7755   30.8281   36.9793 H   0  0  0  0  0  0  0  0  0  0  0  0
   47.2474   31.1716   34.6119 H   0  0  0  0  0  0  0  0  0  0  0  0
   44.2245   33.3402   33.5754 H   0  0  0  0  0  0  0  0  0  0  0  0
   45.5448   32.3751   32.8625 H   0  0  0  0  0  0  0  0  0  0  0  0
  1 17  1  0
  2  9  1  0
  2  1  1  0
  3  2  2  0
  4  3  1  0
  4  6  1  0
  5  4  2  0
  6  7  1  0
  7  1  1  0
  7  8  2  0
  9 14  1  0
  9 10  1  0
 10 11  1  0
 12 11  1  0
 13 14  1  0
 13 12  1  0
 15 20  2  0
 16 17  2  0
 16 15  1  0
 17 18  1  0
 18 19  2  0
 20 19  1  0
 21  3  1  0
 22 21  1  0
 23 22  1  0
 24 23  2  0
 25 24  1  0
 25 27  2  0
 26 25  1  0
 27 28  1  0
 28 22  1  0
 28 29  2  0
  6 30  1  0
  9 31  1  0
 10 32  1  0
 10 33  1  0
 11 34  1  0
 11 35  1  0
 12 36  1  0
 12 37  1  0
 13 38  1  0
 13 39  1  0
 14 40  1  0
 14 41  1  0
 15 42  1  0
 16 43  1  0
 19 44  1  0
 21 45  1  0
 21 46  1  0
 23 47  1  0
 24 48  1  0
 26 49  1  0
 26 50  1  0
M  ISO  8  30   9  31  13  32  13  33  13  34  13  35  13  36  13  37  13
M  ISO  8  38  13  39  13  40  13  41  13  42  14  43  14  44  14  45   8
M  ISO  3  46   8  47  14  48  14
M  END
>  <minimizedAffinity>  (1) 
-5.96611691

>  <minimizedRMSD>  (1) 
1.9030776

$$$$
