
     RDKit          3D

 49 52  0  0  0  0  0  0  0  0999 V2000
   46.8130   34.0550   41.9140 N   0  0  0  0  0  0  0  0  0  0  0  0
   46.2570   33.6070   40.7610 C   0  0  0  0  0  0  0  0  0  0  0  0
   47.0740   33.2020   39.6920 C   0  0  0  0  0  0  0  0  0  0  0  0
   48.4340   33.3000   39.9210 C   0  0  0  0  0  0  0  0  0  0  0  0
   49.1880   32.9460   38.9830 O   0  0  0  0  0  0  0  0  0  0  0  0
   48.9620   33.7440   41.0650 N   0  0  0  0  0  0  0  0  0  0  0  0
   48.1340   34.1260   42.0740 C   0  0  0  0  0  0  0  0  0  0  0  0
   48.7040   34.5270   43.1070 O   0  0  0  0  0  0  0  0  0  0  0  0
   44.7470   33.5680   40.6810 C   0  0  0  0  0  0  0  0  0  0  0  0
   44.0900   32.5460   41.5370 C   0  0  0  0  0  0  0  0  0  0  0  0
   42.6550   33.0110   41.7430 C   0  0  0  0  0  0  0  0  0  0  0  0
   42.1830   33.4840   40.3760 C   0  0  0  0  0  0  0  0  0  0  0  0
   42.7860   34.7770   39.9050 C   0  0  0  0  0  0  0  0  0  0  0  0
   44.0950   34.9030   40.6840 C   0  0  0  0  0  0  0  0  0  0  0  0
   44.8600   36.3000   44.0870 C   0  0  0  0  0  0  0  0  0  0  0  0
   45.5920   35.8390   42.9610 C   0  0  0  0  0  0  0  0  0  0  0  0
   46.0940   34.5040   43.0380 C   0  0  0  0  0  0  0  0  0  0  0  0
   45.8260   33.8310   44.1540 N   0  0  0  0  0  0  0  0  0  0  0  0
   45.1380   34.2870   45.1940 C   0  0  0  0  0  0  0  0  0  0  0  0
   44.6510   35.5260   45.1640 N   0  0  0  0  0  0  0  0  0  0  0  0
   46.4580   32.7250   38.4710 C   0  0  0  0  0  0  0  0  0  0  0  0
   47.4530   32.4250   37.4690 N   0  0  0  0  0  0  0  0  0  0  0  0
   47.8560   31.1290   37.2850 C   0  0  0  0  0  0  0  0  0  0  0  0
   48.7860   30.6880   36.3670 C   0  0  0  0  0  0  0  0  0  0  0  0
   49.3580   31.6550   35.5650 C   0  0  0  0  0  0  0  0  0  0  0  0
   50.2110   31.2970   34.7160 O   0  0  0  0  0  0  0  0  0  0  0  0
   48.9670   32.9340   35.7400 N   0  0  0  0  0  0  0  0  0  0  0  0
   48.0570   33.3330   36.6440 C   0  0  0  0  0  0  0  0  0  0  0  0
   47.7070   34.5290   36.7910 O   0  0  0  0  0  0  0  0  0  0  0  0
   49.9841   33.7964   41.1815 H   0  0  0  0  0  0  0  0  0  0  0  0
   44.5582   33.1873   39.6664 H   0  0  0  0  0  0  0  0  0  0  0  0
   44.1037   31.5662   41.0372 H   0  0  0  0  0  0  0  0  0  0  0  0
   44.6140   32.4361   42.4979 H   0  0  0  0  0  0  0  0  0  0  0  0
   42.0288   32.1801   42.1000 H   0  0  0  0  0  0  0  0  0  0  0  0
   42.5879   33.8088   42.4974 H   0  0  0  0  0  0  0  0  0  0  0  0
   42.4321   32.7043   39.6411 H   0  0  0  0  0  0  0  0  0  0  0  0
   41.1026   33.6672   40.4718 H   0  0  0  0  0  0  0  0  0  0  0  0
   42.9807   34.7425   38.8229 H   0  0  0  0  0  0  0  0  0  0  0  0
   42.1172   35.6336   40.0749 H   0  0  0  0  0  0  0  0  0  0  0  0
   43.8881   35.2176   41.7176 H   0  0  0  0  0  0  0  0  0  0  0  0
   44.7505   35.6552   40.2209 H   0  0  0  0  0  0  0  0  0  0  0  0
   44.4521   37.3215   44.0766 H   0  0  0  0  0  0  0  0  0  0  0  0
   45.7628   36.4741   42.0792 H   0  0  0  0  0  0  0  0  0  0  0  0
   44.9717   33.6468   46.0729 H   0  0  0  0  0  0  0  0  0  0  0  0
   45.8836   31.8131   38.6910 H   0  0  0  0  0  0  0  0  0  0  0  0
   45.7975   33.5139   38.0819 H   0  0  0  0  0  0  0  0  0  0  0  0
   47.3941   30.3676   37.9307 H   0  0  0  0  0  0  0  0  0  0  0  0
   49.0567   29.6255   36.2789 H   0  0  0  0  0  0  0  0  0  0  0  0
   49.3951   33.6534   35.1399 H   0  0  0  0  0  0  0  0  0  0  0  0
  1  7  1  0
  1 17  1  0
  2  1  1  0
  3  4  1  0
  3  2  2  0
  4  6  1  0
  5  4  2  0
  6  7  1  0
  7  8  2  0
  9 14  1  0
  9  2  1  0
  9 10  1  0
 10 11  1  0
 12 11  1  0
 13 12  1  0
 13 14  1  0
 15 20  2  0
 16 17  2  0
 16 15  1  0
 17 18  1  0
 18 19  2  0
 20 19  1  0
 21  3  1  0
 22 21  1  0
 23 22  1  0
 24 23  2  0
 25 27  1  0
 25 24  1  0
 26 25  2  0
 27 28  1  0
 28 29  2  0
 28 22  1  0
  6 30  1  0
  9 31  1  0
 10 32  1  0
 10 33  1  0
 11 34  1  0
 11 35  1  0
 12 36  1  0
 12 37  1  0
 13 38  1  0
 13 39  1  0
 14 40  1  0
 14 41  1  0
 15 42  1  0
 16 43  1  0
 19 44  1  0
 21 45  1  0
 21 46  1  0
 23 47  1  0
 24 48  1  0
 27 49  1  0
M  ISO  8  30   9  31  13  32  13  33  13  34  13  35  13  36  13  37  13
M  ISO  8  38  13  39  13  40  13  41  13  42  14  43  14  44  14  45   8
M  ISO  4  46   8  47  14  48  14  49   9
M  END
>  <minimizedAffinity>  (1) 
-5.95271826

>  <minimizedRMSD>  (1) 
0.932848513

$$$$
