
     RDKit          3D

 53 56  0  0  0  0  0  0  0  0999 V2000
   46.6960   34.4300   41.4020 N   0  0  0  0  0  0  0  0  0  0  0  0
   46.0970   33.8280   40.3450 C   0  0  0  0  0  0  0  0  0  0  0  0
   46.7670   33.7200   39.1250 C   0  0  0  0  0  0  0  0  0  0  0  0
   48.0400   34.2600   39.0940 C   0  0  0  0  0  0  0  0  0  0  0  0
   48.6760   34.1830   38.0070 O   0  0  0  0  0  0  0  0  0  0  0  0
   48.6170   34.8550   40.1540 N   0  0  0  0  0  0  0  0  0  0  0  0
   47.9260   34.9360   41.3220 C   0  0  0  0  0  0  0  0  0  0  0  0
   48.5250   35.4980   42.2570 O   0  0  0  0  0  0  0  0  0  0  0  0
   44.7020   33.2890   40.5390 C   0  0  0  0  0  0  0  0  0  0  0  0
   44.5750   32.2030   41.5480 C   0  0  0  0  0  0  0  0  0  0  0  0
   43.1200   32.1880   41.9890 C   0  0  0  0  0  0  0  0  0  0  0  0
   42.3030   32.3370   40.7120 C   0  0  0  0  0  0  0  0  0  0  0  0
   42.3550   33.6940   40.0750 C   0  0  0  0  0  0  0  0  0  0  0  0
   43.6360   34.3220   40.6080 C   0  0  0  0  0  0  0  0  0  0  0  0
   44.7460   35.9950   44.1080 C   0  0  0  0  0  0  0  0  0  0  0  0
   45.3490   35.8040   42.8410 C   0  0  0  0  0  0  0  0  0  0  0  0
   46.1050   34.6090   42.6680 C   0  0  0  0  0  0  0  0  0  0  0  0
   46.1710   33.7870   43.7180 N   0  0  0  0  0  0  0  0  0  0  0  0
   45.5950   33.9930   44.8950 C   0  0  0  0  0  0  0  0  0  0  0  0
   44.8780   35.0980   45.0940 N   0  0  0  0  0  0  0  0  0  0  0  0
   46.1290   33.0820   37.9900 C   0  0  0  0  0  0  0  0  0  0  0  0
   46.3830   31.6560   37.9050 N   0  0  0  0  0  0  0  0  0  0  0  0
   47.3030   31.3000   36.8750 C   0  0  0  0  0  0  0  0  0  0  0  0
   46.6710   31.1560   35.5220 C   0  0  0  0  0  0  0  0  0  0  0  0
   45.5160   30.2980   35.5260 N   0  0  0  0  0  0  0  0  0  0  0  0
   45.2980   29.7950   36.8660 C   0  0  0  0  0  0  0  0  0  0  0  0
   45.1010   30.9880   37.7760 C   0  0  0  0  0  0  0  0  0  0  0  0
   49.5682   35.2434   40.0816 H   0  0  0  0  0  0  0  0  0  0  0  0
   44.5066   32.7736   39.5870 H   0  0  0  0  0  0  0  0  0  0  0  0
   44.8459   31.2354   41.1004 H   0  0  0  0  0  0  0  0  0  0  0  0
   45.2467   32.3744   42.4021 H   0  0  0  0  0  0  0  0  0  0  0  0
   42.8803   31.2382   42.4895 H   0  0  0  0  0  0  0  0  0  0  0  0
   42.9040   32.9933   42.7065 H   0  0  0  0  0  0  0  0  0  0  0  0
   42.6762   31.6038   39.9818 H   0  0  0  0  0  0  0  0  0  0  0  0
   41.2539   32.1752   41.0003 H   0  0  0  0  0  0  0  0  0  0  0  0
   41.4792   34.2928   40.3656 H   0  0  0  0  0  0  0  0  0  0  0  0
   42.3441   33.6389   38.9764 H   0  0  0  0  0  0  0  0  0  0  0  0
   43.4914   34.6435   41.6500 H   0  0  0  0  0  0  0  0  0  0  0  0
   43.9122   35.2042   40.0119 H   0  0  0  0  0  0  0  0  0  0  0  0
   44.1534   36.9042   44.2872 H   0  0  0  0  0  0  0  0  0  0  0  0
   45.2392   36.5408   42.0316 H   0  0  0  0  0  0  0  0  0  0  0  0
   45.7088   33.2550   45.7028 H   0  0  0  0  0  0  0  0  0  0  0  0
   45.0429   33.2374   38.0693 H   0  0  0  0  0  0  0  0  0  0  0  0
   46.5527   33.5391   37.0836 H   0  0  0  0  0  0  0  0  0  0  0  0
   48.0760   32.0804   36.8155 H   0  0  0  0  0  0  0  0  0  0  0  0
   47.7174   30.3165   37.1414 H   0  0  0  0  0  0  0  0  0  0  0  0
   47.4164   30.7362   34.8305 H   0  0  0  0  0  0  0  0  0  0  0  0
   46.3353   32.1557   35.2092 H   0  0  0  0  0  0  0  0  0  0  0  0
   44.6899   30.8318   35.2202 H   0  0  0  0  0  0  0  0  0  0  0  0
   44.4027   29.1562   36.8858 H   0  0  0  0  0  0  0  0  0  0  0  0
   46.1574   29.1939   37.1976 H   0  0  0  0  0  0  0  0  0  0  0  0
   44.3618   31.6755   37.3390 H   0  0  0  0  0  0  0  0  0  0  0  0
   44.7313   30.6666   38.7609 H   0  0  0  0  0  0  0  0  0  0  0  0
  1 17  1  0
  2  9  1  0
  2  1  1  0
  3  2  2  0
  4  3  1  0
  4  6  1  0
  5  4  2  0
  6  7  1  0
  7  1  1  0
  7  8  2  0
  9 14  1  0
  9 10  1  0
 10 11  1  0
 12 11  1  0
 13 14  1  0
 13 12  1  0
 15 20  2  0
 16 15  1  0
 17 16  2  0
 17 18  1  0
 18 19  2  0
 19 20  1  0
 21  3  1  0
 22 21  1  0
 23 22  1  0
 24 25  1  0
 24 23  1  0
 25 26  1  0
 26 27  1  0
 27 22  1  0
  6 28  1  0
  9 29  1  0
 10 30  1  0
 10 31  1  0
 11 32  1  0
 11 33  1  0
 12 34  1  0
 12 35  1  0
 13 36  1  0
 13 37  1  0
 14 38  1  0
 14 39  1  0
 15 40  1  0
 16 41  1  0
 19 42  1  0
 21 43  1  0
 21 44  1  0
 23 45  1  0
 23 46  1  0
 24 47  1  0
 24 48  1  0
 25 49  1  0
 26 50  1  0
 26 51  1  0
 27 52  1  0
 27 53  1  0
M  ISO  8  28   9  29  13  30  13  31  13  32  13  33  13  34  13  35  13
M  ISO  8  36  13  37  13  38  13  39  13  40  14  41  14  42  14  43   8
M  ISO  8  44   8  45  13  46  13  47  13  48  13  49   5  50  13  51  13
M  ISO  2  52  13  53  13
M  END
>  <minimizedAffinity>  (1) 
-5.54022455

>  <minimizedRMSD>  (1) 
1.31572902

$$$$
