
     RDKit          3D

 45 48  0  0  0  0  0  0  0  0999 V2000
   46.7040   34.4280   41.4020 N   0  0  0  0  0  0  0  0  0  0  0  0
   46.1060   33.8160   40.3490 C   0  0  0  0  0  0  0  0  0  0  0  0
   46.7640   33.7180   39.1270 C   0  0  0  0  0  0  0  0  0  0  0  0
   48.0360   34.2740   39.0860 C   0  0  0  0  0  0  0  0  0  0  0  0
   48.6640   34.2000   37.9970 O   0  0  0  0  0  0  0  0  0  0  0  0
   48.6110   34.8760   40.1430 N   0  0  0  0  0  0  0  0  0  0  0  0
   47.9240   34.9480   41.3130 C   0  0  0  0  0  0  0  0  0  0  0  0
   48.5210   35.5230   42.2500 O   0  0  0  0  0  0  0  0  0  0  0  0
   44.7170   33.2520   40.5600 C   0  0  0  0  0  0  0  0  0  0  0  0
   44.6150   32.1650   41.5580 C   0  0  0  0  0  0  0  0  0  0  0  0
   43.1490   32.1430   41.9980 C   0  0  0  0  0  0  0  0  0  0  0  0
   42.3350   32.2790   40.7230 C   0  0  0  0  0  0  0  0  0  0  0  0
   42.3610   33.6480   40.0980 C   0  0  0  0  0  0  0  0  0  0  0  0
   43.6500   34.2850   40.6190 C   0  0  0  0  0  0  0  0  0  0  0  0
   44.7420   36.0000   44.1020 C   0  0  0  0  0  0  0  0  0  0  0  0
   45.3490   35.8060   42.8310 C   0  0  0  0  0  0  0  0  0  0  0  0
   46.1120   34.6080   42.6660 C   0  0  0  0  0  0  0  0  0  0  0  0
   46.1810   33.7950   43.7180 N   0  0  0  0  0  0  0  0  0  0  0  0
   45.6020   34.0040   44.8950 C   0  0  0  0  0  0  0  0  0  0  0  0
   44.8790   35.1090   45.0890 N   0  0  0  0  0  0  0  0  0  0  0  0
   46.1460   33.0950   37.9810 C   0  0  0  0  0  0  0  0  0  0  0  0
   46.7190   31.8520   37.5110 N   0  0  0  0  0  0  0  0  0  0  0  0
   46.8140   30.7920   38.3840 C   0  0  0  0  0  0  0  0  0  0  0  0
   47.3900   29.6970   37.8060 N   0  0  0  0  0  0  0  0  0  0  0  0
   47.6530   30.1140   36.5310 C   0  0  0  0  0  0  0  0  0  0  0  0
   47.2460   31.3770   36.4010 N   0  0  0  0  0  0  0  0  0  0  0  0
   49.5571   35.2760   40.0664 H   0  0  0  0  0  0  0  0  0  0  0  0
   44.5048   32.7115   39.6258 H   0  0  0  0  0  0  0  0  0  0  0  0
   44.8943   31.2018   41.1060 H   0  0  0  0  0  0  0  0  0  0  0  0
   45.2919   32.3304   42.4091 H   0  0  0  0  0  0  0  0  0  0  0  0
   42.9145   31.1945   42.5034 H   0  0  0  0  0  0  0  0  0  0  0  0
   42.9266   32.9517   42.7098 H   0  0  0  0  0  0  0  0  0  0  0  0
   42.7277   31.5605   39.9885 H   0  0  0  0  0  0  0  0  0  0  0  0
   41.2886   32.0873   41.0029 H   0  0  0  0  0  0  0  0  0  0  0  0
   41.4842   34.2343   40.4103 H   0  0  0  0  0  0  0  0  0  0  0  0
   42.3309   33.6058   38.9992 H   0  0  0  0  0  0  0  0  0  0  0  0
   43.5097   34.6206   41.6571 H   0  0  0  0  0  0  0  0  0  0  0  0
   43.9235   35.1585   40.0089 H   0  0  0  0  0  0  0  0  0  0  0  0
   44.1443   36.9066   44.2776 H   0  0  0  0  0  0  0  0  0  0  0  0
   45.2376   36.5385   42.0179 H   0  0  0  0  0  0  0  0  0  0  0  0
   45.7178   33.2699   45.7060 H   0  0  0  0  0  0  0  0  0  0  0  0
   45.0951   32.8975   38.2391 H   0  0  0  0  0  0  0  0  0  0  0  0
   46.2998   33.8062   37.1561 H   0  0  0  0  0  0  0  0  0  0  0  0
   46.4660   30.8233   39.4270 H   0  0  0  0  0  0  0  0  0  0  0  0
   48.1228   29.5077   35.7425 H   0  0  0  0  0  0  0  0  0  0  0  0
  1 17  1  0
  2  9  1  0
  2  1  1  0
  3  2  2  0
  4  3  1  0
  4  6  1  0
  5  4  2  0
  6  7  1  0
  7  1  1  0
  7  8  2  0
  9 14  1  0
  9 10  1  0
 10 11  1  0
 12 11  1  0
 13 14  1  0
 13 12  1  0
 15 20  2  0
 16 15  1  0
 17 16  2  0
 17 18  1  0
 18 19  2  0
 19 20  1  0
 21  3  1  0
 22 21  1  0
 22 23  1  0
 24 23  2  0
 25 24  1  0
 26 25  2  0
 26 22  1  0
  6 27  1  0
  9 28  1  0
 10 29  1  0
 10 30  1  0
 11 31  1  0
 11 32  1  0
 12 33  1  0
 12 34  1  0
 13 35  1  0
 13 36  1  0
 14 37  1  0
 14 38  1  0
 15 39  1  0
 16 40  1  0
 19 41  1  0
 21 42  1  0
 21 43  1  0
 23 44  1  0
 25 45  1  0
M  ISO  8  27   9  28  13  29  13  30  13  31  13  32  13  33  13  34  13
M  ISO  8  35  13  36  13  37  13  38  13  39  14  40  14  41  14  42   8
M  ISO  3  43   8  44  14  45  14
M  END
>  <minimizedAffinity>  (1) 
-5.38382292

>  <minimizedRMSD>  (1) 
0.72908777

$$$$
