
     RDKit          3D

 45 48  0  0  0  0  0  0  0  0999 V2000
   46.6870   34.4320   41.4140 N   0  0  0  0  0  0  0  0  0  0  0  0
   46.0900   33.8290   40.3610 C   0  0  0  0  0  0  0  0  0  0  0  0
   46.7540   33.7370   39.1300 C   0  0  0  0  0  0  0  0  0  0  0  0
   48.0200   34.2920   39.0970 C   0  0  0  0  0  0  0  0  0  0  0  0
   48.6340   34.2160   38.0020 O   0  0  0  0  0  0  0  0  0  0  0  0
   48.5930   34.8830   40.1500 N   0  0  0  0  0  0  0  0  0  0  0  0
   47.9100   34.9500   41.3240 C   0  0  0  0  0  0  0  0  0  0  0  0
   48.5140   35.5190   42.2580 O   0  0  0  0  0  0  0  0  0  0  0  0
   44.7010   33.2680   40.5690 C   0  0  0  0  0  0  0  0  0  0  0  0
   44.6010   32.1560   41.5530 C   0  0  0  0  0  0  0  0  0  0  0  0
   43.1560   32.1110   42.0160 C   0  0  0  0  0  0  0  0  0  0  0  0
   42.3180   32.2860   40.7580 C   0  0  0  0  0  0  0  0  0  0  0  0
   42.3370   33.6680   40.1650 C   0  0  0  0  0  0  0  0  0  0  0  0
   43.6310   34.2910   40.6840 C   0  0  0  0  0  0  0  0  0  0  0  0
   44.7510   35.9640   44.1520 C   0  0  0  0  0  0  0  0  0  0  0  0
   45.3450   35.7870   42.8710 C   0  0  0  0  0  0  0  0  0  0  0  0
   46.1090   34.5990   42.6880 C   0  0  0  0  0  0  0  0  0  0  0  0
   46.1910   33.7750   43.7320 N   0  0  0  0  0  0  0  0  0  0  0  0
   45.6270   33.9640   44.9190 C   0  0  0  0  0  0  0  0  0  0  0  0
   44.9040   35.0630   45.1300 N   0  0  0  0  0  0  0  0  0  0  0  0
   46.0960   33.1050   38.0010 C   0  0  0  0  0  0  0  0  0  0  0  0
   46.7390   31.7860   37.6600 C   0  0  0  0  0  0  0  0  0  0  0  0
   46.7730   30.7360   38.6400 C   0  0  0  0  0  0  0  0  0  0  0  0
   47.6290   29.3960   37.7750 S   0  0  0  0  0  0  0  0  0  0  0  0
   47.8130   30.4640   36.2120 C   0  0  0  0  0  0  0  0  0  0  0  0
   47.2900   31.5120   36.5060 N   0  0  0  0  0  0  0  0  0  0  0  0
   49.5393   35.2824   40.0733 H   0  0  0  0  0  0  0  0  0  0  0  0
   44.4928   32.7695   39.6108 H   0  0  0  0  0  0  0  0  0  0  0  0
   44.8764   31.2031   41.0774 H   0  0  0  0  0  0  0  0  0  0  0  0
   45.2831   32.3159   42.4010 H   0  0  0  0  0  0  0  0  0  0  0  0
   42.9355   31.1446   42.4930 H   0  0  0  0  0  0  0  0  0  0  0  0
   42.9422   32.8928   42.7597 H   0  0  0  0  0  0  0  0  0  0  0  0
   42.6931   31.5843   39.9985 H   0  0  0  0  0  0  0  0  0  0  0  0
   41.2763   32.0948   41.0552 H   0  0  0  0  0  0  0  0  0  0  0  0
   41.4646   34.2473   40.5017 H   0  0  0  0  0  0  0  0  0  0  0  0
   42.2930   33.6514   39.0660 H   0  0  0  0  0  0  0  0  0  0  0  0
   43.5083   34.5885   41.7359 H   0  0  0  0  0  0  0  0  0  0  0  0
   43.8893   35.1867   40.1000 H   0  0  0  0  0  0  0  0  0  0  0  0
   44.1501   36.8652   44.3436 H   0  0  0  0  0  0  0  0  0  0  0  0
   45.2209   36.5269   42.0665 H   0  0  0  0  0  0  0  0  0  0  0  0
   45.7553   33.2210   45.7199 H   0  0  0  0  0  0  0  0  0  0  0  0
   45.0389   32.9338   38.2524 H   0  0  0  0  0  0  0  0  0  0  0  0
   46.1863   33.7705   37.1298 H   0  0  0  0  0  0  0  0  0  0  0  0
   46.3758   30.7443   39.6657 H   0  0  0  0  0  0  0  0  0  0  0  0
   48.2874   30.1897   35.2582 H   0  0  0  0  0  0  0  0  0  0  0  0
  1 17  1  0
  2  9  1  0
  2  1  1  0
  3  2  2  0
  4  3  1  0
  4  6  1  0
  5  4  2  0
  6  7  1  0
  7  1  1  0
  7  8  2  0
  9 14  1  0
  9 10  1  0
 10 11  1  0
 12 11  1  0
 13 14  1  0
 13 12  1  0
 15 20  2  0
 16 15  1  0
 17 16  2  0
 17 18  1  0
 18 19  2  0
 19 20  1  0
 21  3  1  0
 22 21  1  0
 22 23  2  0
 24 23  1  0
 25 26  2  0
 25 24  1  0
 26 22  1  0
  6 27  1  0
  9 28  1  0
 10 29  1  0
 10 30  1  0
 11 31  1  0
 11 32  1  0
 12 33  1  0
 12 34  1  0
 13 35  1  0
 13 36  1  0
 14 37  1  0
 14 38  1  0
 15 39  1  0
 16 40  1  0
 19 41  1  0
 21 42  1  0
 21 43  1  0
 23 44  1  0
 25 45  1  0
M  ISO  8  27   9  28  13  29  13  30  13  31  13  32  13  33  13  34  13
M  ISO  8  35  13  36  13  37  13  38  13  39  14  40  14  41  14  42   8
M  ISO  3  43   8  44  14  45  14
M  END
>  <minimizedAffinity>  (1) 
-5.38109112

>  <minimizedRMSD>  (1) 
1.36735535

$$$$
