
     RDKit          3D

 47 50  0  0  0  0  0  0  0  0999 V2000
   46.6420   34.3760   41.4060 N   0  0  0  0  0  0  0  0  0  0  0  0
   46.0130   33.8470   40.3350 C   0  0  0  0  0  0  0  0  0  0  0  0
   46.6670   33.7090   39.1220 C   0  0  0  0  0  0  0  0  0  0  0  0
   47.9910   34.1460   39.1130 C   0  0  0  0  0  0  0  0  0  0  0  0
   48.6270   34.0310   38.0270 O   0  0  0  0  0  0  0  0  0  0  0  0
   48.5990   34.6640   40.1820 N   0  0  0  0  0  0  0  0  0  0  0  0
   47.9070   34.7810   41.3510 C   0  0  0  0  0  0  0  0  0  0  0  0
   48.5430   35.2780   42.3050 O   0  0  0  0  0  0  0  0  0  0  0  0
   44.5750   33.4130   40.5150 C   0  0  0  0  0  0  0  0  0  0  0  0
   44.3600   32.2750   41.4520 C   0  0  0  0  0  0  0  0  0  0  0  0
   42.9030   32.3660   41.8880 C   0  0  0  0  0  0  0  0  0  0  0  0
   42.1150   32.6470   40.6210 C   0  0  0  0  0  0  0  0  0  0  0  0
   42.2640   34.0480   40.0850 C   0  0  0  0  0  0  0  0  0  0  0  0
   43.6040   34.5290   40.6350 C   0  0  0  0  0  0  0  0  0  0  0  0
   44.7650   36.0400   44.1110 C   0  0  0  0  0  0  0  0  0  0  0  0
   45.3690   35.8230   42.8420 C   0  0  0  0  0  0  0  0  0  0  0  0
   46.0520   34.5820   42.6700 C   0  0  0  0  0  0  0  0  0  0  0  0
   46.0580   33.7540   43.7110 N   0  0  0  0  0  0  0  0  0  0  0  0
   45.4850   33.9850   44.8860 C   0  0  0  0  0  0  0  0  0  0  0  0
   44.8310   35.1380   45.0900 N   0  0  0  0  0  0  0  0  0  0  0  0
   46.0310   33.1610   37.9480 C   0  0  0  0  0  0  0  0  0  0  0  0
   46.2130   31.7050   37.7130 C   0  0  0  0  0  0  0  0  0  0  0  0
   46.0060   30.5650   38.4780 C   0  0  0  0  0  0  0  0  0  0  0  0
   46.2750   29.3000   38.0130 C   0  0  0  0  0  0  0  0  0  0  0  0
   46.7590   29.0830   36.7770 N   0  0  0  0  0  0  0  0  0  0  0  0
   46.9660   30.1800   36.0240 C   0  0  0  0  0  0  0  0  0  0  0  0
   46.7020   31.4090   36.4800 N   0  0  0  0  0  0  0  0  0  0  0  0
   49.5802   34.9720   40.1247 H   0  0  0  0  0  0  0  0  0  0  0  0
   44.3252   32.9611   39.5437 H   0  0  0  0  0  0  0  0  0  0  0  0
   44.5484   31.3185   40.9425 H   0  0  0  0  0  0  0  0  0  0  0  0
   45.0439   32.3240   42.3122 H   0  0  0  0  0  0  0  0  0  0  0  0
   42.5775   31.4176   42.3403 H   0  0  0  0  0  0  0  0  0  0  0  0
   42.7524   33.1509   42.6438 H   0  0  0  0  0  0  0  0  0  0  0  0
   42.4530   31.9451   39.8444 H   0  0  0  0  0  0  0  0  0  0  0  0
   41.0533   32.5250   40.8816 H   0  0  0  0  0  0  0  0  0  0  0  0
   42.2744   34.0441   38.9851 H   0  0  0  0  0  0  0  0  0  0  0  0
   41.4309   34.7007   40.3850 H   0  0  0  0  0  0  0  0  0  0  0  0
   43.4930   34.8156   41.6912 H   0  0  0  0  0  0  0  0  0  0  0  0
   43.9566   35.4052   40.0712 H   0  0  0  0  0  0  0  0  0  0  0  0
   44.2263   36.9821   44.2903 H   0  0  0  0  0  0  0  0  0  0  0  0
   45.3128   36.5707   42.0372 H   0  0  0  0  0  0  0  0  0  0  0  0
   45.5463   33.2347   45.6881 H   0  0  0  0  0  0  0  0  0  0  0  0
   44.9512   33.3533   38.0325 H   0  0  0  0  0  0  0  0  0  0  0  0
   46.5184   33.6563   37.0953 H   0  0  0  0  0  0  0  0  0  0  0  0
   45.6105   30.6790   39.4981 H   0  0  0  0  0  0  0  0  0  0  0  0
   46.0888   28.4389   38.6716 H   0  0  0  0  0  0  0  0  0  0  0  0
   47.3634   30.0618   35.0051 H   0  0  0  0  0  0  0  0  0  0  0  0
  1 17  1  0
  2  9  1  0
  2  1  1  0
  3  2  2  0
  4  3  1  0
  4  6  1  0
  5  4  2  0
  6  7  1  0
  7  1  1  0
  7  8  2  0
  9 14  1  0
  9 10  1  0
 10 11  1  0
 12 11  1  0
 13 12  1  0
 13 14  1  0
 15 20  2  0
 16 15  1  0
 17 16  2  0
 17 18  1  0
 18 19  2  0
 19 20  1  0
 21  3  1  0
 22 21  1  0
 22 23  2  0
 24 23  1  0
 25 24  2  0
 26 27  2  0
 26 25  1  0
 27 22  1  0
  6 28  1  0
  9 29  1  0
 10 30  1  0
 10 31  1  0
 11 32  1  0
 11 33  1  0
 12 34  1  0
 12 35  1  0
 13 36  1  0
 13 37  1  0
 14 38  1  0
 14 39  1  0
 15 40  1  0
 16 41  1  0
 19 42  1  0
 21 43  1  0
 21 44  1  0
 23 45  1  0
 24 46  1  0
 26 47  1  0
M  ISO  8  28   9  29  13  30  13  31  13  32  13  33  13  34  13  35  13
M  ISO  8  36  13  37  13  38  13  39  13  40  14  41  14  42  14  43   8
M  ISO  4  44   8  45  14  46  14  47  14
M  END
>  <minimizedAffinity>  (1) 
-5.40280581

>  <minimizedRMSD>  (1) 
0.521268129

$$$$
