
     RDKit          3D

 41 43  0  0  0  0  0  0  0  0999 V2000
   46.6370   34.4250   41.4590 N   0  0  0  0  0  0  0  0  0  0  0  0
   46.0280   33.8510   40.4020 C   0  0  0  0  0  0  0  0  0  0  0  0
   46.7180   33.6820   39.2010 C   0  0  0  0  0  0  0  0  0  0  0  0
   48.0240   34.1360   39.1970 C   0  0  0  0  0  0  0  0  0  0  0  0
   48.6700   33.9940   38.1250 O   0  0  0  0  0  0  0  0  0  0  0  0
   48.6130   34.7060   40.2640 N   0  0  0  0  0  0  0  0  0  0  0  0
   47.8940   34.8460   41.4090 C   0  0  0  0  0  0  0  0  0  0  0  0
   48.5080   35.3850   42.3590 O   0  0  0  0  0  0  0  0  0  0  0  0
   44.5920   33.4090   40.5670 C   0  0  0  0  0  0  0  0  0  0  0  0
   44.3810   32.2730   41.5040 C   0  0  0  0  0  0  0  0  0  0  0  0
   42.9280   32.3390   41.9440 C   0  0  0  0  0  0  0  0  0  0  0  0
   42.1330   32.6230   40.6770 C   0  0  0  0  0  0  0  0  0  0  0  0
   42.2790   34.0200   40.1360 C   0  0  0  0  0  0  0  0  0  0  0  0
   43.6100   34.5140   40.6980 C   0  0  0  0  0  0  0  0  0  0  0  0
   44.7390   36.1540   44.1140 C   0  0  0  0  0  0  0  0  0  0  0  0
   45.3610   35.9110   42.8580 C   0  0  0  0  0  0  0  0  0  0  0  0
   46.0260   34.6580   42.7130 C   0  0  0  0  0  0  0  0  0  0  0  0
   45.9990   33.8440   43.7680 N   0  0  0  0  0  0  0  0  0  0  0  0
   45.4100   34.0960   44.9290 C   0  0  0  0  0  0  0  0  0  0  0  0
   44.7770   35.2540   45.1050 N   0  0  0  0  0  0  0  0  0  0  0  0
   46.0660   33.0730   38.0510 C   0  0  0  0  0  0  0  0  0  0  0  0
   46.6250   31.8120   37.6250 N   0  0  0  0  0  0  0  0  0  0  0  0
   49.5895   35.0299   40.2142 H   0  0  0  0  0  0  0  0  0  0  0  0
   44.3562   32.9690   39.5868 H   0  0  0  0  0  0  0  0  0  0  0  0
   44.5806   31.3186   40.9948 H   0  0  0  0  0  0  0  0  0  0  0  0
   45.0606   32.3380   42.3665 H   0  0  0  0  0  0  0  0  0  0  0  0
   42.6164   31.3816   42.3871 H   0  0  0  0  0  0  0  0  0  0  0  0
   42.7676   33.1129   42.7091 H   0  0  0  0  0  0  0  0  0  0  0  0
   42.4660   31.9193   39.8999 H   0  0  0  0  0  0  0  0  0  0  0  0
   41.0728   32.5059   40.9457 H   0  0  0  0  0  0  0  0  0  0  0  0
   42.3016   34.0101   39.0363 H   0  0  0  0  0  0  0  0  0  0  0  0
   41.4384   34.6686   40.4238 H   0  0  0  0  0  0  0  0  0  0  0  0
   43.4916   34.7866   41.7571 H   0  0  0  0  0  0  0  0  0  0  0  0
   43.9542   35.4029   40.1491 H   0  0  0  0  0  0  0  0  0  0  0  0
   44.2128   37.1064   44.2756 H   0  0  0  0  0  0  0  0  0  0  0  0
   45.3306   36.6493   42.0432 H   0  0  0  0  0  0  0  0  0  0  0  0
   45.4441   33.3541   45.7404 H   0  0  0  0  0  0  0  0  0  0  0  0
   45.0090   32.9078   38.3068 H   0  0  0  0  0  0  0  0  0  0  0  0
   46.2109   33.7703   37.2127 H   0  0  0  0  0  0  0  0  0  0  0  0
   46.8741   31.2501   38.4515 H   0  0  0  0  0  0  0  0  0  0  0  0
   45.9310   31.3023   37.0598 H   0  0  0  0  0  0  0  0  0  0  0  0
  1 17  1  0
  2  9  1  0
  2  1  1  0
  3  2  2  0
  4  3  1  0
  4  6  1  0
  5  4  2  0
  6  7  1  0
  7  1  1  0
  7  8  2  0
  9 14  1  0
  9 10  1  0
 10 11  1  0
 12 11  1  0
 13 12  1  0
 13 14  1  0
 15 20  2  0
 16 15  1  0
 17 16  2  0
 17 18  1  0
 18 19  2  0
 19 20  1  0
 21  3  1  0
 22 21  1  0
  6 23  1  0
  9 24  1  0
 10 25  1  0
 10 26  1  0
 11 27  1  0
 11 28  1  0
 12 29  1  0
 12 30  1  0
 13 31  1  0
 13 32  1  0
 14 33  1  0
 14 34  1  0
 15 35  1  0
 16 36  1  0
 19 37  1  0
 21 38  1  0
 21 39  1  0
 22 40  1  0
 22 41  1  0
M  ISO  8  23   9  24  13  25  13  26  13  27  13  28  13  29  13  30  13
M  ISO  8  31  13  32  13  33  13  34  13  35  14  36  14  37  14  38   8
M  ISO  3  39   8  40   5  41   5
M  END
>  <minimizedAffinity>  (1) 
-5.3413291

>  <minimizedRMSD>  (1) 
0.199701354

$$$$
