
     RDKit          3D

 46 49  0  0  0  0  0  0  0  0999 V2000
   46.6470   34.3780   41.4110 N   0  0  0  0  0  0  0  0  0  0  0  0
   46.0260   33.8140   40.3480 C   0  0  0  0  0  0  0  0  0  0  0  0
   46.7010   33.6630   39.1420 C   0  0  0  0  0  0  0  0  0  0  0  0
   48.0150   34.1160   39.1290 C   0  0  0  0  0  0  0  0  0  0  0  0
   48.6610   33.9890   38.0570 O   0  0  0  0  0  0  0  0  0  0  0  0
   48.6160   34.6750   40.2020 N   0  0  0  0  0  0  0  0  0  0  0  0
   47.9110   34.8030   41.3530 C   0  0  0  0  0  0  0  0  0  0  0  0
   48.5240   35.3280   42.3000 O   0  0  0  0  0  0  0  0  0  0  0  0
   44.5970   33.3590   40.5240 C   0  0  0  0  0  0  0  0  0  0  0  0
   44.4010   32.2510   41.4820 C   0  0  0  0  0  0  0  0  0  0  0  0
   42.9290   32.3300   41.9030 C   0  0  0  0  0  0  0  0  0  0  0  0
   42.1440   32.5830   40.6370 C   0  0  0  0  0  0  0  0  0  0  0  0
   42.2820   33.9710   40.0770 C   0  0  0  0  0  0  0  0  0  0  0  0
   43.6110   34.4790   40.6310 C   0  0  0  0  0  0  0  0  0  0  0  0
   44.7500   36.0950   44.0780 C   0  0  0  0  0  0  0  0  0  0  0  0
   45.3680   35.8570   42.8150 C   0  0  0  0  0  0  0  0  0  0  0  0
   46.0450   34.6100   42.6670 C   0  0  0  0  0  0  0  0  0  0  0  0
   46.0340   33.7990   43.7210 N   0  0  0  0  0  0  0  0  0  0  0  0
   45.4510   34.0450   44.8890 C   0  0  0  0  0  0  0  0  0  0  0  0
   44.8040   35.2030   45.0670 N   0  0  0  0  0  0  0  0  0  0  0  0
   46.0640   33.0960   37.9830 C   0  0  0  0  0  0  0  0  0  0  0  0
   46.2810   31.7030   37.8220 N   0  0  0  0  0  0  0  0  0  0  0  0
   46.3570   30.5260   38.4200 C   0  0  0  0  0  0  0  0  0  0  0  0
   46.6810   29.4330   37.6690 C   0  0  0  0  0  0  0  0  0  0  0  0
   46.8320   29.9500   36.4340 N   0  0  0  0  0  0  0  0  0  0  0  0
   46.5950   31.2700   36.5480 C   0  0  0  0  0  0  0  0  0  0  0  0
   49.5924   34.9982   40.1467 H   0  0  0  0  0  0  0  0  0  0  0  0
   44.3509   32.8813   39.5642 H   0  0  0  0  0  0  0  0  0  0  0  0
   44.6120   31.2846   41.0007 H   0  0  0  0  0  0  0  0  0  0  0  0
   45.0776   32.3332   42.3454 H   0  0  0  0  0  0  0  0  0  0  0  0
   42.6129   31.3833   42.3654 H   0  0  0  0  0  0  0  0  0  0  0  0
   42.7650   33.1268   42.6435 H   0  0  0  0  0  0  0  0  0  0  0  0
   42.4875   31.8700   39.8730 H   0  0  0  0  0  0  0  0  0  0  0  0
   41.0832   32.4592   40.9003 H   0  0  0  0  0  0  0  0  0  0  0  0
   41.4517   34.6096   40.4128 H   0  0  0  0  0  0  0  0  0  0  0  0
   42.2569   33.9817   38.9773 H   0  0  0  0  0  0  0  0  0  0  0  0
   43.4911   34.7752   41.6836 H   0  0  0  0  0  0  0  0  0  0  0  0
   43.9574   35.3570   40.0661 H   0  0  0  0  0  0  0  0  0  0  0  0
   44.2136   37.0415   44.2406 H   0  0  0  0  0  0  0  0  0  0  0  0
   45.3250   36.5943   41.9998 H   0  0  0  0  0  0  0  0  0  0  0  0
   45.4995   33.3048   45.7013 H   0  0  0  0  0  0  0  0  0  0  0  0
   44.9808   33.2689   38.0657 H   0  0  0  0  0  0  0  0  0  0  0  0
   46.5090   33.5883   37.1057 H   0  0  0  0  0  0  0  0  0  0  0  0
   46.1635   30.4298   39.4986 H   0  0  0  0  0  0  0  0  0  0  0  0
   46.7916   28.3875   37.9925 H   0  0  0  0  0  0  0  0  0  0  0  0
   46.6475   31.9548   35.6888 H   0  0  0  0  0  0  0  0  0  0  0  0
  1 17  1  0
  2  9  1  0
  2  1  1  0
  3  2  2  0
  4  3  1  0
  4  6  1  0
  5  4  2  0
  6  7  1  0
  7  1  1  0
  7  8  2  0
  9 14  1  0
  9 10  1  0
 10 11  1  0
 12 11  1  0
 13 14  1  0
 13 12  1  0
 15 20  2  0
 16 15  1  0
 17 16  2  0
 17 18  1  0
 18 19  2  0
 19 20  1  0
 21  3  1  0
 22 21  1  0
 22 23  1  0
 24 23  2  0
 25 26  2  0
 25 24  1  0
 26 22  1  0
  6 27  1  0
  9 28  1  0
 10 29  1  0
 10 30  1  0
 11 31  1  0
 11 32  1  0
 12 33  1  0
 12 34  1  0
 13 35  1  0
 13 36  1  0
 14 37  1  0
 14 38  1  0
 15 39  1  0
 16 40  1  0
 19 41  1  0
 21 42  1  0
 21 43  1  0
 23 44  1  0
 24 45  1  0
 26 46  1  0
M  ISO  8  27   9  28  13  29  13  30  13  31  13  32  13  33  13  34  13
M  ISO  8  35  13  36  13  37  13  38  13  39  14  40  14  41  14  42   8
M  ISO  4  43   8  44  14  45  14  46  14
M  END
>  <minimizedAffinity>  (1) 
-5.33992624

>  <minimizedRMSD>  (1) 
0.399343491

$$$$
