
     RDKit          3D

 27 29  0  0  0  0  0  0  0  0999 V2000
   45.3430   36.1500   43.2580 C   0  0  0  0  0  0  0  0  0  0  0  0
   46.0390   34.9290   43.1320 C   0  0  0  0  0  0  0  0  0  0  0  0
   46.0080   33.9550   44.1420 C   0  0  0  0  0  0  0  0  0  0  0  0
   45.2640   34.2580   45.2610 N   0  0  0  0  0  0  0  0  0  0  0  0
   44.6050   35.4330   45.3610 C   0  0  0  0  0  0  0  0  0  0  0  0
   44.6330   36.3750   44.3860 N   0  0  0  0  0  0  0  0  0  0  0  0
   46.6980   32.6960   44.0550 C   0  0  0  0  0  0  0  0  0  0  0  0
   47.9630   32.3600   43.6310 C   0  0  0  0  0  0  0  0  0  0  0  0
   48.4000   31.0610   43.6690 C   0  0  0  0  0  0  0  0  0  0  0  0
   47.6200   30.0210   44.1240 C   0  0  0  0  0  0  0  0  0  0  0  0
   46.3460   30.3350   44.5540 C   0  0  0  0  0  0  0  0  0  0  0  0
   45.8890   31.6550   44.5210 C   0  0  0  0  0  0  0  0  0  0  0  0
   46.7940   34.7740   41.9360 N   0  0  0  0  0  0  0  0  0  0  0  0
   47.9930   35.3180   41.8270 N   0  0  0  0  0  0  0  0  0  0  0  0
   48.4850   35.0210   40.5750 C   0  0  0  0  0  0  0  0  0  0  0  0
   47.4700   34.2560   39.9580 C   0  0  0  0  0  0  0  0  0  0  0  0
   46.3800   34.1000   40.8440 C   0  0  0  0  0  0  0  0  0  0  0  0
   45.3775   36.9021   42.4560 H   0  0  0  0  0  0  0  0  0  0  0  0
   44.0213   35.6340   46.2714 H   0  0  0  0  0  0  0  0  0  0  0  0
   48.6345   33.1461   43.2555 H   0  0  0  0  0  0  0  0  0  0  0  0
   49.4195   30.8394   43.3204 H   0  0  0  0  0  0  0  0  0  0  0  0
   47.9950   28.9871   44.1439 H   0  0  0  0  0  0  0  0  0  0  0  0
   45.6847   29.5386   44.9260 H   0  0  0  0  0  0  0  0  0  0  0  0
   44.8702   31.8803   44.8693 H   0  0  0  0  0  0  0  0  0  0  0  0
   49.4556   35.3151   40.1490 H   0  0  0  0  0  0  0  0  0  0  0  0
   47.5206   33.8433   38.9396 H   0  0  0  0  0  0  0  0  0  0  0  0
   45.4329   33.5640   40.6833 H   0  0  0  0  0  0  0  0  0  0  0  0
  1  6  2  0
  2  1  1  0
  2  3  2  0
  3  4  1  0
  4  5  2  0
  6  5  1  0
  7  3  1  0
  7 12  2  0
  8  9  2  0
  8  7  1  0
  9 10  1  0
 10 11  2  0
 12 11  1  0
 13  2  1  0
 14 13  1  0
 15 14  2  0
 16 15  1  0
 16 17  2  0
 17 13  1  0
  1 18  1  0
  5 19  1  0
  8 20  1  0
  9 21  1  0
 10 22  1  0
 11 23  1  0
 12 24  1  0
 15 25  1  0
 16 26  1  0
 17 27  1  0
M  ISO  8  18  14  19  14  20  14  21  14  22  14  23  14  24  14  25  14
M  ISO  2  26  14  27  14
M  END
>  <minimizedAffinity>  (1) 
-4.66555071

>  <minimizedRMSD>  (1) 
3.26634336

$$$$
