
     RDKit          3D

 23 25  0  0  0  0  0  0  0  0999 V2000
   45.3020   36.0350   43.3210 C   0  0  0  0  0  0  0  0  0  0  0  0
   46.1120   34.8760   43.2240 C   0  0  0  0  0  0  0  0  0  0  0  0
   46.1550   33.9500   44.2510 C   0  0  0  0  0  0  0  0  0  0  0  0
   45.3660   34.2440   45.3490 N   0  0  0  0  0  0  0  0  0  0  0  0
   44.6100   35.3370   45.4260 C   0  0  0  0  0  0  0  0  0  0  0  0
   44.5640   36.2370   44.4310 N   0  0  0  0  0  0  0  0  0  0  0  0
   46.8730   34.7690   42.0280 N   0  0  0  0  0  0  0  0  0  0  0  0
   48.0480   35.3030   41.9280 N   0  0  0  0  0  0  0  0  0  0  0  0
   48.5780   35.0870   40.7010 C   0  0  0  0  0  0  0  0  0  0  0  0
   47.5770   34.3420   40.0360 C   0  0  0  0  0  0  0  0  0  0  0  0
   46.4760   34.1390   40.8980 C   0  0  0  0  0  0  0  0  0  0  0  0
   46.9410   32.7200   44.1930 C   0  0  0  0  0  0  0  0  0  0  0  0
   46.7150   31.8320   45.2270 C   0  0  0  0  0  0  0  0  0  0  0  0
   47.7990   30.4150   44.9160 S   0  0  0  0  0  0  0  0  0  0  0  0
   48.4570   31.2450   43.3440 C   0  0  0  0  0  0  0  0  0  0  0  0
   47.8200   32.1120   43.4980 N   0  0  0  0  0  0  0  0  0  0  0  0
   45.2757   36.7637   42.4974 H   0  0  0  0  0  0  0  0  0  0  0  0
   44.0064   35.5074   46.3297 H   0  0  0  0  0  0  0  0  0  0  0  0
   49.5545   35.4133   40.3138 H   0  0  0  0  0  0  0  0  0  0  0  0
   47.6453   33.9750   39.0013 H   0  0  0  0  0  0  0  0  0  0  0  0
   45.5350   33.6045   40.7007 H   0  0  0  0  0  0  0  0  0  0  0  0
   46.0181   31.9598   46.0684 H   0  0  0  0  0  0  0  0  0  0  0  0
   49.1934   30.9610   42.5778 H   0  0  0  0  0  0  0  0  0  0  0  0
  1  6  2  0
  2  1  1  0
  2  3  2  0
  3  4  1  0
  4  5  2  0
  6  5  1  0
  7  2  1  0
  8  7  1  0
  9  8  2  0
 10  9  1  0
 10 11  2  0
 11  7  1  0
 12  3  1  0
 12 13  2  0
 14 13  1  0
 15 16  2  0
 15 14  1  0
 16 12  1  0
  1 17  1  0
  5 18  1  0
  9 19  1  0
 10 20  1  0
 11 21  1  0
 13 22  1  0
 15 23  1  0
M  ISO  7  17  14  18  14  19  14  20  14  21  14  22  14  23  14
M  END
>  <minimizedAffinity>  (1) 
-4.62033892

>  <minimizedRMSD>  (1) 
3.35402417

$$$$
