
     RDKit          3D

 29 31  0  0  0  0  0  0  0  0999 V2000
   45.4020   36.2920   43.2260 C   0  0  0  0  0  0  0  0  0  0  0  0
   45.9960   35.0250   43.0850 C   0  0  0  0  0  0  0  0  0  0  0  0
   45.8180   34.0780   44.0750 C   0  0  0  0  0  0  0  0  0  0  0  0
   45.0680   34.4040   45.1630 N   0  0  0  0  0  0  0  0  0  0  0  0
   44.5110   35.6330   45.2670 C   0  0  0  0  0  0  0  0  0  0  0  0
   44.6720   36.5560   44.3210 N   0  0  0  0  0  0  0  0  0  0  0  0
   46.7450   34.7980   41.9050 N   0  0  0  0  0  0  0  0  0  0  0  0
   47.9600   35.2200   41.7690 N   0  0  0  0  0  0  0  0  0  0  0  0
   48.4620   34.8770   40.5600 C   0  0  0  0  0  0  0  0  0  0  0  0
   47.4090   34.1920   39.9680 C   0  0  0  0  0  0  0  0  0  0  0  0
   46.3080   34.1360   40.8180 C   0  0  0  0  0  0  0  0  0  0  0  0
   46.4000   32.7880   44.0040 N   0  0  0  0  0  0  0  0  0  0  0  0
   47.6630   32.0810   44.0700 C   0  0  0  0  0  0  0  0  0  0  0  0
   47.3430   31.1220   45.2320 C   0  0  0  0  0  0  0  0  0  0  0  0
   46.0530   30.5310   44.7050 C   0  0  0  0  0  0  0  0  0  0  0  0
   45.5460   31.6200   43.7810 C   0  0  0  0  0  0  0  0  0  0  0  0
   45.5342   37.0580   42.4477 H   0  0  0  0  0  0  0  0  0  0  0  0
   43.9099   35.8756   46.1557 H   0  0  0  0  0  0  0  0  0  0  0  0
   49.4594   35.0888   40.1474 H   0  0  0  0  0  0  0  0  0  0  0  0
   47.4407   33.7518   38.9604 H   0  0  0  0  0  0  0  0  0  0  0  0
   45.3276   33.6683   40.6447 H   0  0  0  0  0  0  0  0  0  0  0  0
   47.8820   31.5402   43.1375 H   0  0  0  0  0  0  0  0  0  0  0  0
   48.5520   32.7135   44.2102 H   0  0  0  0  0  0  0  0  0  0  0  0
   48.1234   30.3578   45.3626 H   0  0  0  0  0  0  0  0  0  0  0  0
   47.2774   31.5891   46.2257 H   0  0  0  0  0  0  0  0  0  0  0  0
   46.2395   29.5973   44.1541 H   0  0  0  0  0  0  0  0  0  0  0  0
   45.3391   30.2607   45.4970 H   0  0  0  0  0  0  0  0  0  0  0  0
   44.5000   31.8634   44.0191 H   0  0  0  0  0  0  0  0  0  0  0  0
   45.5814   31.2972   42.7300 H   0  0  0  0  0  0  0  0  0  0  0  0
  1  6  2  0
  2  1  1  0
  2  3  2  0
  3  4  1  0
  4  5  2  0
  6  5  1  0
  7  2  1  0
  8  7  1  0
  9  8  2  0
 10  9  1  0
 10 11  2  0
 11  7  1  0
 12 13  1  0
 12  3  1  0
 13 14  1  0
 15 14  1  0
 16 12  1  0
 16 15  1  0
  1 17  1  0
  5 18  1  0
  9 19  1  0
 10 20  1  0
 11 21  1  0
 13 22  1  0
 13 23  1  0
 14 24  1  0
 14 25  1  0
 15 26  1  0
 15 27  1  0
 16 28  1  0
 16 29  1  0
M  ISO  8  17  14  18  14  19  14  20  14  21  14  22  13  23  13  24  13
M  ISO  5  25  13  26  13  27  13  28  13  29  13
M  END
>  <minimizedAffinity>  (1) 
-4.36908197

>  <minimizedRMSD>  (1) 
3.00855684

$$$$
