
     RDKit          3D

 28 31  0  0  0  0  0  0  0  0999 V2000
   46.2470   35.5680   42.7500 C   0  0  0  0  0  0  0  0  0  0  0  0
   46.3990   34.2410   43.1710 C   0  0  0  0  0  0  0  0  0  0  0  0
   45.6270   33.7450   44.2280 C   0  0  0  0  0  0  0  0  0  0  0  0
   44.7350   34.6030   44.8170 N   0  0  0  0  0  0  0  0  0  0  0  0
   44.6120   35.8790   44.3880 C   0  0  0  0  0  0  0  0  0  0  0  0
   45.3510   36.3570   43.3750 N   0  0  0  0  0  0  0  0  0  0  0  0
   45.8050   32.3950   44.6300 N   0  0  0  0  0  0  0  0  0  0  0  0
   45.5410   31.1560   44.1190 C   0  0  0  0  0  0  0  0  0  0  0  0
   45.9480   30.2260   44.9800 N   0  0  0  0  0  0  0  0  0  0  0  0
   46.4810   30.8470   46.0610 C   0  0  0  0  0  0  0  0  0  0  0  0
   47.0180   30.2600   47.1780 C   0  0  0  0  0  0  0  0  0  0  0  0
   47.5010   31.0660   48.1510 N   0  0  0  0  0  0  0  0  0  0  0  0
   47.4200   32.3860   47.9510 C   0  0  0  0  0  0  0  0  0  0  0  0
   46.8960   32.9600   46.8580 N   0  0  0  0  0  0  0  0  0  0  0  0
   46.3940   32.2080   45.8450 C   0  0  0  0  0  0  0  0  0  0  0  0
   47.3560   33.4630   42.4750 N   0  0  0  0  0  0  0  0  0  0  0  0
   48.5450   33.2410   42.9650 N   0  0  0  0  0  0  0  0  0  0  0  0
   49.2650   32.4730   42.1090 C   0  0  0  0  0  0  0  0  0  0  0  0
   48.3900   32.2440   41.0350 C   0  0  0  0  0  0  0  0  0  0  0  0
   47.1770   32.8790   41.2790 C   0  0  0  0  0  0  0  0  0  0  0  0
   46.8515   35.9614   41.9194 H   0  0  0  0  0  0  0  0  0  0  0  0
   43.8873   36.5428   44.8821 H   0  0  0  0  0  0  0  0  0  0  0  0
   45.0659   30.9576   43.1470 H   0  0  0  0  0  0  0  0  0  0  0  0
   47.0549   29.1653   47.2798 H   0  0  0  0  0  0  0  0  0  0  0  0
   47.8107   33.0474   48.7384 H   0  0  0  0  0  0  0  0  0  0  0  0
   50.2973   32.1125   42.2289 H   0  0  0  0  0  0  0  0  0  0  0  0
   48.6275   31.6530   40.1382 H   0  0  0  0  0  0  0  0  0  0  0  0
   46.2807   32.8984   40.6416 H   0  0  0  0  0  0  0  0  0  0  0  0
  1  2  2  0
  1  6  1  0
  2  3  1  0
  3  7  1  0
  3  4  2  0
  5  4  1  0
  6  5  2  0
  7 15  1  0
  8  7  1  0
  8  9  2  0
  9 10  1  0
 10 11  2  0
 11 12  1  0
 13 12  2  0
 14 13  1  0
 15 10  1  0
 15 14  2  0
 16 17  1  0
 16  2  1  0
 18 17  2  0
 19 20  2  0
 19 18  1  0
 20 16  1  0
  1 21  1  0
  5 22  1  0
  8 23  1  0
 11 24  1  0
 13 25  1  0
 18 26  1  0
 19 27  1  0
 20 28  1  0
M  ISO  8  21  14  22  14  23  14  24  14  25  14  26  14  27  14  28  14
M  END
>  <minimizedAffinity>  (1) 
-4.55317163

>  <minimizedRMSD>  (1) 
3.93147302

$$$$
