
     RDKit          3D

 24 26  0  0  0  0  0  0  0  0999 V2000
   45.3490   36.1430   43.2660 C   0  0  0  0  0  0  0  0  0  0  0  0
   46.0600   34.9410   43.1320 C   0  0  0  0  0  0  0  0  0  0  0  0
   46.0090   33.9900   44.1490 C   0  0  0  0  0  0  0  0  0  0  0  0
   45.2550   34.2760   45.2480 N   0  0  0  0  0  0  0  0  0  0  0  0
   44.5800   35.4380   45.3550 C   0  0  0  0  0  0  0  0  0  0  0  0
   44.6260   36.3570   44.3770 N   0  0  0  0  0  0  0  0  0  0  0  0
   46.8010   34.7820   41.9310 N   0  0  0  0  0  0  0  0  0  0  0  0
   47.9960   35.3070   41.8140 N   0  0  0  0  0  0  0  0  0  0  0  0
   48.4910   35.0170   40.5840 C   0  0  0  0  0  0  0  0  0  0  0  0
   47.4790   34.2650   39.9610 C   0  0  0  0  0  0  0  0  0  0  0  0
   46.3970   34.1190   40.8360 C   0  0  0  0  0  0  0  0  0  0  0  0
   46.7440   32.7830   43.9780 N   0  0  0  0  0  0  0  0  0  0  0  0
   47.9970   32.3850   43.8410 N   0  0  0  0  0  0  0  0  0  0  0  0
   48.0500   31.0560   43.7120 C   0  0  0  0  0  0  0  0  0  0  0  0
   46.7550   30.5620   43.7680 C   0  0  0  0  0  0  0  0  0  0  0  0
   45.9380   31.6810   43.9380 C   0  0  0  0  0  0  0  0  0  0  0  0
   45.3835   36.9014   42.4700 H   0  0  0  0  0  0  0  0  0  0  0  0
   43.9825   35.6363   46.2571 H   0  0  0  0  0  0  0  0  0  0  0  0
   49.4670   35.3060   40.1670 H   0  0  0  0  0  0  0  0  0  0  0  0
   47.5302   33.8544   38.9418 H   0  0  0  0  0  0  0  0  0  0  0  0
   45.4473   33.5901   40.6677 H   0  0  0  0  0  0  0  0  0  0  0  0
   48.9635   30.4568   43.5835 H   0  0  0  0  0  0  0  0  0  0  0  0
   46.4388   29.5110   43.6941 H   0  0  0  0  0  0  0  0  0  0  0  0
   44.8414   31.6762   44.0243 H   0  0  0  0  0  0  0  0  0  0  0  0
  1  6  2  0
  2  1  1  0
  2  3  2  0
  3  4  1  0
  4  5  2  0
  6  5  1  0
  7  2  1  0
  8  7  1  0
  9  8  2  0
 10  9  1  0
 10 11  2  0
 11  7  1  0
 12  3  1  0
 13 12  1  0
 14 15  1  0
 14 13  2  0
 15 16  2  0
 16 12  1  0
  1 17  1  0
  5 18  1  0
  9 19  1  0
 10 20  1  0
 11 21  1  0
 14 22  1  0
 15 23  1  0
 16 24  1  0
M  ISO  8  17  14  18  14  19  14  20  14  21  14  22  14  23  14  24  14
M  END
>  <minimizedAffinity>  (1) 
-4.41037607

>  <minimizedRMSD>  (1) 
2.99429846

$$$$
