
     RDKit          3D

 30 32  0  0  0  0  0  0  0  0999 V2000
   43.7420   34.2560   41.9920 C   0  0  0  0  0  0  0  0  0  0  0  0
   42.6160   33.7330   41.3530 C   0  0  0  0  0  0  0  0  0  0  0  0
   42.4110   32.3670   41.4070 C   0  0  0  0  0  0  0  0  0  0  0  0
   43.3180   31.5910   42.0830 N   0  0  0  0  0  0  0  0  0  0  0  0
   44.3810   32.1300   42.6810 C   0  0  0  0  0  0  0  0  0  0  0  0
   44.5930   33.4460   42.6390 N   0  0  0  0  0  0  0  0  0  0  0  0
   41.2620   31.8370   40.7540 N   0  0  0  0  0  0  0  0  0  0  0  0
   41.3850   31.4250   39.4670 C   0  0  0  0  0  0  0  0  0  0  0  0
   40.2690   30.9200   38.8610 C   0  0  0  0  0  0  0  0  0  0  0  0
   40.4200   30.4660   37.4340 C   0  0  0  0  0  0  0  0  0  0  0  0
   39.0390   30.8170   39.5050 C   0  0  0  0  0  0  0  0  0  0  0  0
   38.0710   30.3430   38.8760 O   0  0  0  0  0  0  0  0  0  0  0  0
   38.9590   31.2380   40.7840 N   0  0  0  0  0  0  0  0  0  0  0  0
   40.0570   31.7350   41.3790 C   0  0  0  0  0  0  0  0  0  0  0  0
   39.9340   32.1160   42.5720 O   0  0  0  0  0  0  0  0  0  0  0  0
   41.7730   34.6510   40.6970 N   0  0  0  0  0  0  0  0  0  0  0  0
   41.9000   34.8890   39.4220 N   0  0  0  0  0  0  0  0  0  0  0  0
   40.9750   35.8050   39.0380 C   0  0  0  0  0  0  0  0  0  0  0  0
   40.2610   36.1100   40.1980 C   0  0  0  0  0  0  0  0  0  0  0  0
   40.7830   35.3620   41.2590 C   0  0  0  0  0  0  0  0  0  0  0  0
   43.9323   35.3391   41.9646 H   0  0  0  0  0  0  0  0  0  0  0  0
   45.0912   31.4817   43.2151 H   0  0  0  0  0  0  0  0  0  0  0  0
   42.3442   31.4947   38.9330 H   0  0  0  0  0  0  0  0  0  0  0  0
   40.7671   29.4224   37.4160 H   0  0  0  0  0  0  0  0  0  0  0  0
   39.4494   30.5385   36.9215 H   0  0  0  0  0  0  0  0  0  0  0  0
   41.1539   31.1054   36.9215 H   0  0  0  0  0  0  0  0  0  0  0  0
   38.0683   31.1794   41.2979 H   0  0  0  0  0  0  0  0  0  0  0  0
   40.8212   36.2179   38.0301 H   0  0  0  0  0  0  0  0  0  0  0  0
   39.4251   36.8217   40.2667 H   0  0  0  0  0  0  0  0  0  0  0  0
   40.4576   35.3577   42.3098 H   0  0  0  0  0  0  0  0  0  0  0  0
  1  6  2  0
  2  3  2  0
  2  1  1  0
  3  4  1  0
  4  5  2  0
  6  5  1  0
  7 14  1  0
  7  3  1  0
  8  7  1  0
  9  8  2  0
  9 11  1  0
 10  9  1  0
 11 13  1  0
 12 11  2  0
 13 14  1  0
 14 15  2  0
 16 20  1  0
 16  2  1  0
 17 16  1  0
 18 17  2  0
 18 19  1  0
 19 20  2  0
  1 21  1  0
  5 22  1  0
  8 23  1  0
 10 24  1  0
 10 25  1  0
 10 26  1  0
 13 27  1  0
 18 28  1  0
 19 29  1  0
 20 30  1  0
M  ISO  8  21  14  22  14  23  14  24   8  25   8  26   8  27   9  28  14
M  ISO  2  29  14  30  14
M  END
>  <minimizedAffinity>  (1) 
-4.33091068

>  <minimizedRMSD>  (1) 
4.54888535

$$$$
