
     RDKit          3D

 30 32  0  0  0  0  0  0  0  0999 V2000
   44.0880   34.7840   41.8700 C   0  0  0  0  0  0  0  0  0  0  0  0
   42.8960   34.1010   41.5360 C   0  0  0  0  0  0  0  0  0  0  0  0
   42.7350   32.7370   41.8080 C   0  0  0  0  0  0  0  0  0  0  0  0
   43.7990   32.1020   42.4130 N   0  0  0  0  0  0  0  0  0  0  0  0
   44.9310   32.7770   42.7230 C   0  0  0  0  0  0  0  0  0  0  0  0
   45.0790   34.0980   42.4580 N   0  0  0  0  0  0  0  0  0  0  0  0
   41.9000   34.8850   40.8810 N   0  0  0  0  0  0  0  0  0  0  0  0
   41.8780   34.9720   39.5660 N   0  0  0  0  0  0  0  0  0  0  0  0
   40.8290   35.7920   39.2120 C   0  0  0  0  0  0  0  0  0  0  0  0
   40.2400   36.1770   40.4350 C   0  0  0  0  0  0  0  0  0  0  0  0
   40.9380   35.5870   41.5090 C   0  0  0  0  0  0  0  0  0  0  0  0
   39.4590   30.4700   40.3620 C   0  0  0  0  0  0  0  0  0  0  0  0
   39.3360   31.0880   41.5930 C   0  0  0  0  0  0  0  0  0  0  0  0
   40.3350   31.8310   42.1480 C   0  0  0  0  0  0  0  0  0  0  0  0
   41.5320   32.0010   41.4880 C   0  0  0  0  0  0  0  0  0  0  0  0
   41.6750   31.3820   40.2410 C   0  0  0  0  0  0  0  0  0  0  0  0
   40.6480   30.6190   39.6750 C   0  0  0  0  0  0  0  0  0  0  0  0
   38.1240   29.5310   39.7210 S   0  0  0  0  0  0  0  0  0  0  0  0
   38.4450   28.8880   38.4160 O   0  0  0  0  0  0  0  0  0  0  0  0
   37.8350   28.4170   40.7120 O   0  0  0  0  0  0  0  0  0  0  0  0
   44.2003   35.8563   41.6520 H   0  0  0  0  0  0  0  0  0  0  0  0
   45.7578   32.2355   43.2058 H   0  0  0  0  0  0  0  0  0  0  0  0
   40.5185   36.0830   38.1976 H   0  0  0  0  0  0  0  0  0  0  0  0
   39.3669   36.8385   40.5357 H   0  0  0  0  0  0  0  0  0  0  0  0
   40.7450   35.6776   42.5882 H   0  0  0  0  0  0  0  0  0  0  0  0
   38.3926   30.9753   42.1474 H   0  0  0  0  0  0  0  0  0  0  0  0
   40.1839   32.2991   43.1319 H   0  0  0  0  0  0  0  0  0  0  0  0
   42.6205   31.4985   39.6910 H   0  0  0  0  0  0  0  0  0  0  0  0
   40.7860   30.1427   38.6931 H   0  0  0  0  0  0  0  0  0  0  0  0
   37.0650   30.3788   39.5297 H   0  0  0  0  0  0  0  0  0  0  0  0
  1  6  2  0
  2  3  2  0
  2  1  1  0
  3  4  1  0
  4  5  2  0
  6  5  1  0
  7 11  1  0
  7  2  1  0
  8  7  1  0
  9  8  2  0
  9 10  1  0
 10 11  2  0
 12 13  2  0
 13 14  1  0
 15  3  1  0
 15 14  2  0
 16 15  1  0
 17 16  2  0
 17 12  1  0
 18 12  1  0
 18 20  2  0
 19 18  2  0
  1 21  1  0
  5 22  1  0
  9 23  1  0
 10 24  1  0
 11 25  1  0
 13 26  1  0
 14 27  1  0
 16 28  1  0
 17 29  1  0
 18 30  1  0
M  ISO  8  21  14  22  14  23  14  24  14  25  14  26  14  27  14  28  14
M  ISO  2  29  14  30  11
M  END
>  <minimizedAffinity>  (1) 
-4.15598154

>  <minimizedRMSD>  (1) 
4.63107586

$$$$
