
     RDKit          3D

 18 19  0  0  0  0  0  0  0  0999 V2000
   44.1840   35.7410   42.0270 C   0  0  0  0  0  0  0  0  0  0  0  0
   43.2870   34.7410   41.6310 C   0  0  0  0  0  0  0  0  0  0  0  0
   43.5670   33.4150   41.9260 C   0  0  0  0  0  0  0  0  0  0  0  0
   44.7210   33.1440   42.5990 N   0  0  0  0  0  0  0  0  0  0  0  0
   45.5590   34.1180   42.9650 C   0  0  0  0  0  0  0  0  0  0  0  0
   45.3110   35.4170   42.6900 N   0  0  0  0  0  0  0  0  0  0  0  0
   42.1240   35.1750   40.9370 N   0  0  0  0  0  0  0  0  0  0  0  0
   42.1050   35.2010   39.6290 N   0  0  0  0  0  0  0  0  0  0  0  0
   40.8890   35.6490   39.2130 C   0  0  0  0  0  0  0  0  0  0  0  0
   40.1680   35.8970   40.3990 C   0  0  0  0  0  0  0  0  0  0  0  0
   40.9790   35.5850   41.5020 C   0  0  0  0  0  0  0  0  0  0  0  0
   42.4200   32.1680   41.4160 S   0  0  0  0  0  0  0  0  0  0  0  0
   43.9675   36.7944   41.7959 H   0  0  0  0  0  0  0  0  0  0  0  0
   46.4791   33.8540   43.5069 H   0  0  0  0  0  0  0  0  0  0  0  0
   40.5441   35.7874   38.1777 H   0  0  0  0  0  0  0  0  0  0  0  0
   39.1361   36.2743   40.4517 H   0  0  0  0  0  0  0  0  0  0  0  0
   40.7341   35.6591   42.5718 H   0  0  0  0  0  0  0  0  0  0  0  0
   41.8719   31.5721   42.5212 H   0  0  0  0  0  0  0  0  0  0  0  0
  1  6  2  0
  2  3  2  0
  2  1  1  0
  3  4  1  0
  4  5  2  0
  6  5  1  0
  7 11  1  0
  7  2  1  0
  8  7  1  0
  9  8  2  0
  9 10  1  0
 10 11  2  0
 12  3  1  0
  1 13  1  0
  5 14  1  0
  9 15  1  0
 10 16  1  0
 11 17  1  0
 12 18  1  0
M  ISO  6  13  14  14  14  15  14  16  14  17  14  18  11
M  END
>  <minimizedAffinity>  (1) 
-3.50048804

>  <minimizedRMSD>  (1) 
2.39217353

$$$$
