
     RDKit          3D

 23 24  0  0  0  0  0  0  0  0999 V2000
   44.1720   35.7560   42.0780 C   0  0  0  0  0  0  0  0  0  0  0  0
   43.3120   34.7680   41.6010 C   0  0  0  0  0  0  0  0  0  0  0  0
   43.6280   33.4280   41.8210 C   0  0  0  0  0  0  0  0  0  0  0  0
   44.7870   33.1530   42.5050 N   0  0  0  0  0  0  0  0  0  0  0  0
   45.5870   34.1240   42.9470 C   0  0  0  0  0  0  0  0  0  0  0  0
   45.2940   35.4090   42.7430 N   0  0  0  0  0  0  0  0  0  0  0  0
   42.1570   35.1920   40.9170 N   0  0  0  0  0  0  0  0  0  0  0  0
   42.0930   35.2490   39.6270 N   0  0  0  0  0  0  0  0  0  0  0  0
   40.8770   35.6870   39.2130 C   0  0  0  0  0  0  0  0  0  0  0  0
   40.1910   35.8960   40.4040 C   0  0  0  0  0  0  0  0  0  0  0  0
   41.0040   35.5820   41.4860 C   0  0  0  0  0  0  0  0  0  0  0  0
   42.7380   32.3680   41.3250 C   0  0  0  0  0  0  0  0  0  0  0  0
   42.6550   31.1950   42.2820 C   0  0  0  0  0  0  0  0  0  0  0  0
   43.9363   36.8176   41.9125 H   0  0  0  0  0  0  0  0  0  0  0  0
   46.5063   33.8600   43.4903 H   0  0  0  0  0  0  0  0  0  0  0  0
   40.5203   35.8397   38.1837 H   0  0  0  0  0  0  0  0  0  0  0  0
   39.1548   36.2575   40.4788 H   0  0  0  0  0  0  0  0  0  0  0  0
   40.7608   35.6393   42.5572 H   0  0  0  0  0  0  0  0  0  0  0  0
   41.7298   32.7866   41.1895 H   0  0  0  0  0  0  0  0  0  0  0  0
   43.1497   31.9992   40.3739 H   0  0  0  0  0  0  0  0  0  0  0  0
   42.6811   31.5643   43.3178 H   0  0  0  0  0  0  0  0  0  0  0  0
   41.7159   30.6482   42.1113 H   0  0  0  0  0  0  0  0  0  0  0  0
   43.5077   30.5214   42.1113 H   0  0  0  0  0  0  0  0  0  0  0  0
  1  6  2  0
  2  3  2  0
  2  1  1  0
  3  4  1  0
  4  5  2  0
  6  5  1  0
  7 11  1  0
  7  2  1  0
  8  7  1  0
  9  8  2  0
  9 10  1  0
 10 11  2  0
 12  3  1  0
 12 13  1  0
  1 14  1  0
  5 15  1  0
  9 16  1  0
 10 17  1  0
 11 18  1  0
 12 19  1  0
 12 20  1  0
 13 21  1  0
 13 22  1  0
 13 23  1  0
M  ISO  8  14  14  15  14  16  14  17  14  18  14  19   8  20   8  21   8
M  ISO  2  22   8  23   8
M  END
>  <minimizedAffinity>  (1) 
-3.48978376

>  <minimizedRMSD>  (1) 
2.4175334

$$$$
