
     RDKit          3D

 19 20  0  0  0  0  0  0  0  0999 V2000
   44.2060   35.7680   41.9660 C   0  0  0  0  0  0  0  0  0  0  0  0
   43.2980   34.7810   41.6010 C   0  0  0  0  0  0  0  0  0  0  0  0
   43.5890   33.4700   41.9280 C   0  0  0  0  0  0  0  0  0  0  0  0
   44.7360   33.1530   42.5900 N   0  0  0  0  0  0  0  0  0  0  0  0
   45.5830   34.1340   42.9220 C   0  0  0  0  0  0  0  0  0  0  0  0
   45.3250   35.3990   42.6190 N   0  0  0  0  0  0  0  0  0  0  0  0
   42.1330   35.1940   40.9150 N   0  0  0  0  0  0  0  0  0  0  0  0
   42.0900   35.1990   39.5980 N   0  0  0  0  0  0  0  0  0  0  0  0
   40.8700   35.6390   39.2110 C   0  0  0  0  0  0  0  0  0  0  0  0
   40.1770   35.9000   40.4110 C   0  0  0  0  0  0  0  0  0  0  0  0
   40.9940   35.6130   41.4940 C   0  0  0  0  0  0  0  0  0  0  0  0
   42.6980   32.4170   41.5850 C   0  0  0  0  0  0  0  0  0  0  0  0
   41.6450   31.7800   41.4640 O   0  0  0  0  0  0  0  0  0  0  0  0
   44.0155   36.8248   41.7274 H   0  0  0  0  0  0  0  0  0  0  0  0
   46.5118   33.8864   43.4569 H   0  0  0  0  0  0  0  0  0  0  0  0
   40.4994   35.7656   38.1831 H   0  0  0  0  0  0  0  0  0  0  0  0
   39.1449   36.2745   40.4778 H   0  0  0  0  0  0  0  0  0  0  0  0
   40.7658   35.7056   42.5661 H   0  0  0  0  0  0  0  0  0  0  0  0
   43.4055   31.7062   41.1332 H   0  0  0  0  0  0  0  0  0  0  0  0
  1  6  2  0
  2  3  2  0
  2  1  1  0
  3  4  1  0
  4  5  2  0
  6  5  1  0
  7 11  1  0
  7  2  1  0
  8  7  1  0
  9  8  2  0
  9 10  1  0
 10 11  2  0
 12  3  1  0
 13 12  2  0
  1 14  1  0
  5 15  1  0
  9 16  1  0
 10 17  1  0
 11 18  1  0
 12 19  1  0
M  ISO  6  14  14  15  14  16  14  17  14  18  14  19   6
M  END
>  <minimizedAffinity>  (1) 
-3.45726895

>  <minimizedRMSD>  (1) 
2.46629

$$$$
