
     RDKit          3D

 40 43  0  0  0  0  0  0  0  0999 V2000
   43.7390   33.7870   38.2550 C   0  0  0  0  0  0  0  0  0  0  0  0
   42.6330   33.3810   38.9880 C   0  0  0  0  0  0  0  0  0  0  0  0
   42.2860   32.0340   38.9000 C   0  0  0  0  0  0  0  0  0  0  0  0
   43.0330   31.1890   38.1130 N   0  0  0  0  0  0  0  0  0  0  0  0
   44.0870   31.6450   37.4320 C   0  0  0  0  0  0  0  0  0  0  0  0
   44.4360   32.9310   37.5030 N   0  0  0  0  0  0  0  0  0  0  0  0
   41.1460   31.5890   39.6470 N   0  0  0  0  0  0  0  0  0  0  0  0
   41.3380   31.2260   40.9430 C   0  0  0  0  0  0  0  0  0  0  0  0
   40.2430   30.8050   41.6410 C   0  0  0  0  0  0  0  0  0  0  0  0
   38.9770   30.7390   41.0820 C   0  0  0  0  0  0  0  0  0  0  0  0
   38.0300   30.3420   41.7920 O   0  0  0  0  0  0  0  0  0  0  0  0
   38.8340   31.1090   39.7970 N   0  0  0  0  0  0  0  0  0  0  0  0
   39.9090   31.5230   39.1080 C   0  0  0  0  0  0  0  0  0  0  0  0
   39.7310   31.8620   37.8980 O   0  0  0  0  0  0  0  0  0  0  0  0
   40.4630   30.4060   43.0740 C   0  0  0  0  0  0  0  0  0  0  0  0
   41.9540   34.3360   39.7460 N   0  0  0  0  0  0  0  0  0  0  0  0
   40.8200   34.8410   39.3200 N   0  0  0  0  0  0  0  0  0  0  0  0
   40.3780   35.7410   40.2500 C   0  0  0  0  0  0  0  0  0  0  0  0
   41.3240   35.7390   41.2600 C   0  0  0  0  0  0  0  0  0  0  0  0
   42.3290   34.8330   40.9200 C   0  0  0  0  0  0  0  0  0  0  0  0
   43.4690   34.5920   41.7860 C   0  0  0  0  0  0  0  0  0  0  0  0
   43.9760   33.4190   42.3010 C   0  0  0  0  0  0  0  0  0  0  0  0
   45.0800   33.4240   43.1190 C   0  0  0  0  0  0  0  0  0  0  0  0
   45.7460   34.5690   43.4740 C   0  0  0  0  0  0  0  0  0  0  0  0
   45.2820   35.7500   42.9890 C   0  0  0  0  0  0  0  0  0  0  0  0
   44.1730   35.7420   42.1690 C   0  0  0  0  0  0  0  0  0  0  0  0
   44.0499   34.8414   38.2942 H   0  0  0  0  0  0  0  0  0  0  0  0
   44.6727   30.9547   36.8071 H   0  0  0  0  0  0  0  0  0  0  0  0
   42.3333   31.2697   41.4093 H   0  0  0  0  0  0  0  0  0  0  0  0
   37.9086   31.0750   39.3459 H   0  0  0  0  0  0  0  0  0  0  0  0
   40.0394   31.1742   43.7377 H   0  0  0  0  0  0  0  0  0  0  0  0
   39.9687   29.4423   43.2663 H   0  0  0  0  0  0  0  0  0  0  0  0
   41.5418   30.3096   43.2663 H   0  0  0  0  0  0  0  0  0  0  0  0
   39.4586   36.3433   40.2045 H   0  0  0  0  0  0  0  0  0  0  0  0
   41.2895   36.3482   42.1753 H   0  0  0  0  0  0  0  0  0  0  0  0
   43.4896   32.4639   42.0535 H   0  0  0  0  0  0  0  0  0  0  0  0
   45.4474   32.4629   43.5080 H   0  0  0  0  0  0  0  0  0  0  0  0
   46.6278   34.5323   44.1305 H   0  0  0  0  0  0  0  0  0  0  0  0
   45.7817   36.6957   43.2456 H   0  0  0  0  0  0  0  0  0  0  0  0
   43.8146   36.7094   41.7874 H   0  0  0  0  0  0  0  0  0  0  0  0
  1  2  2  0
  2 16  1  0
  3  2  1  0
  3  7  1  0
  4  3  2  0
  5  6  2  0
  5  4  1  0
  6  1  1  0
  7  8  1  0
  8  9  2  0
  9 15  1  0
 10  9  1  0
 10 11  2  0
 12 10  1  0
 13  7  1  0
 13 12  1  0
 14 13  2  0
 16 20  1  0
 17 16  1  0
 17 18  2  0
 18 19  1  0
 20 19  2  0
 20 21  1  0
 21 26  1  0
 21 22  2  0
 22 23  1  0
 23 24  2  0
 25 24  1  0
 26 25  2  0
  1 27  1  0
  5 28  1  0
  8 29  1  0
 12 30  1  0
 15 31  1  0
 15 32  1  0
 15 33  1  0
 18 34  1  0
 19 35  1  0
 22 36  1  0
 23 37  1  0
 24 38  1  0
 25 39  1  0
 26 40  1  0
M  ISO  8  27  14  28  14  29  14  30   9  31   8  32   8  33   8  34  14
M  ISO  6  35  14  36  14  37  14  38  14  39  14  40  14
M  END
>  <minimizedAffinity>  (1) 
-5.32097435

>  <minimizedRMSD>  (1) 
3.69262147

$$$$
