
     RDKit          3D

 38 40  0  0  1  0  0  0  0  0999 V2000
   45.7700   33.7140   45.0460 C   0  0  0  0  0  0  0  0  0  0  0  0
   46.5530   32.5670   45.3670 C   0  0  0  0  0  0  0  0  0  0  0  0
   47.5630   32.2520   44.4560 C   0  0  0  0  0  0  0  0  0  0  0  0
   47.7370   33.0290   43.3580 N   0  0  0  0  0  0  0  0  0  0  0  0
   46.9620   34.1100   43.1040 C   0  0  0  0  0  0  0  0  0  0  0  0
   45.9880   34.4590   43.9280 N   0  0  0  0  0  0  0  0  0  0  0  0
   46.1660   31.9250   46.5870 C   0  0  0  0  0  0  0  0  0  0  0  0
   46.3070   32.7140   47.6760 N   0  0  0  0  0  0  0  0  0  0  0  0
   45.9860   32.2790   48.9190 C   0  0  0  0  0  0  0  0  0  0  0  0
   45.5090   31.0350   49.1450 N   0  0  0  0  0  0  0  0  0  0  0  0
   45.3520   30.2070   48.0710 C   0  0  0  0  0  0  0  0  0  0  0  0
   44.8810   28.9240   48.1590 C   0  0  0  0  0  0  0  0  0  0  0  0
   44.7360   28.1110   47.0520 C   0  0  0  0  0  0  0  0  0  0  0  0
   45.0750   28.5990   45.8100 C   0  0  0  0  0  0  0  0  0  0  0  0
   45.5530   29.8840   45.6870 C   0  0  0  0  0  0  0  0  0  0  0  0
   45.6790   30.6580   46.8270 C   0  0  0  0  0  0  0  0  0  0  0  0
   47.2270   34.8900   41.9020 C   0  0  1  0  0  0  0  0  0  0  0  0
   48.7230   35.3060   41.8230 C   0  0  0  0  0  0  0  0  0  0  0  0
   46.8800   34.2240   40.6190 C   0  0  0  0  0  0  0  0  0  0  0  0
   47.9550   34.4570   39.7250 O   0  0  0  0  0  0  0  0  0  0  0  0
   47.9110   34.2840   38.3670 C   0  0  0  0  0  0  0  0  0  0  0  0
   46.7820   33.6270   37.7930 N   0  0  0  0  0  0  0  0  0  0  0  0
   48.8470   34.6910   37.6120 O   0  0  0  0  0  0  0  0  0  0  0  0
   44.9586   34.0083   45.7279 H   0  0  0  0  0  0  0  0  0  0  0  0
   48.2123   31.3808   44.6273 H   0  0  0  0  0  0  0  0  0  0  0  0
   46.1181   32.9611   49.7718 H   0  0  0  0  0  0  0  0  0  0  0  0
   44.6082   28.5264   49.1477 H   0  0  0  0  0  0  0  0  0  0  0  0
   44.3540   27.0853   47.1614 H   0  0  0  0  0  0  0  0  0  0  0  0
   44.9642   27.9639   44.9187 H   0  0  0  0  0  0  0  0  0  0  0  0
   45.8294   30.2876   44.7018 H   0  0  0  0  0  0  0  0  0  0  0  0
   46.5623   35.7598   42.0101 H   0  0  0  0  0  0  0  0  0  0  0  0
   49.1266   35.4182   42.8401 H   0  0  0  0  0  0  0  0  0  0  0  0
   49.2910   34.5317   41.2865 H   0  0  0  0  0  0  0  0  0  0  0  0
   48.8098   36.2624   41.2865 H   0  0  0  0  0  0  0  0  0  0  0  0
   46.7488   33.1435   40.7780 H   0  0  0  0  0  0  0  0  0  0  0  0
   45.9389   34.6229   40.2125 H   0  0  0  0  0  0  0  0  0  0  0  0
   46.7305   33.4875   36.7738 H   0  0  0  0  0  0  0  0  0  0  0  0
   46.0184   33.2923   38.3978 H   0  0  0  0  0  0  0  0  0  0  0  0
  1  2  2  0
  2  7  1  0
  3  2  1  0
  4  3  2  0
  5  4  1  0
  5  6  2  0
  6  1  1  0
  7 16  1  0
  7  8  2  0
  8  9  1  0
  9 10  2  0
 11 12  2  0
 11 10  1  0
 13 12  1  0
 14 13  2  0
 15 14  1  0
 15 16  2  0
 16 11  1  0
 17  5  1  0
 18 17  1  0
 19 17  1  0
 20 19  1  0
 21 20  1  0
 22 21  1  0
 23 21  2  0
  1 24  1  0
  3 25  1  0
  9 26  1  0
 12 27  1  0
 13 28  1  0
 14 29  1  0
 15 30  1  0
 17 31  1  1
 18 32  1  0
 18 33  1  0
 18 34  1  0
 19 35  1  0
 19 36  1  0
 22 37  1  0
 22 38  1  0
M  ISO  8  24  14  25  14  26  14  27  14  28  14  29  14  30  14  31   8
M  ISO  5  32   8  33   8  34   8  35   8  36   8
M  END
>  <minimizedAffinity>  (1) 
-5.54555702

>  <minimizedRMSD>  (1) 
7.94600582

$$$$
