
     RDKit          3D

 37 40  0  0  0  0  0  0  0  0999 V2000
   41.1150   35.0270   41.6790 C   0  0  0  0  0  0  0  0  0  0  0  0
   41.3970   33.9410   40.8470 C   0  0  0  0  0  0  0  0  0  0  0  0
   41.1660   34.1040   39.4870 C   0  0  0  0  0  0  0  0  0  0  0  0
   40.6780   35.3070   39.0380 N   0  0  0  0  0  0  0  0  0  0  0  0
   40.4260   36.3080   39.8780 C   0  0  0  0  0  0  0  0  0  0  0  0
   40.6410   36.1710   41.1770 N   0  0  0  0  0  0  0  0  0  0  0  0
   41.4520   33.0020   38.6290 N   0  0  0  0  0  0  0  0  0  0  0  0
   40.4600   32.0890   38.4080 C   0  0  0  0  0  0  0  0  0  0  0  0
   40.7520   31.0370   37.5830 C   0  0  0  0  0  0  0  0  0  0  0  0
   41.9900   30.8750   36.9810 C   0  0  0  0  0  0  0  0  0  0  0  0
   42.1790   29.8880   36.2400 O   0  0  0  0  0  0  0  0  0  0  0  0
   42.9480   31.8070   37.2290 N   0  0  0  0  0  0  0  0  0  0  0  0
   42.6550   32.8310   38.0360 C   0  0  0  0  0  0  0  0  0  0  0  0
   43.5730   33.6710   38.2370 O   0  0  0  0  0  0  0  0  0  0  0  0
   39.6610   30.0390   37.3430 C   0  0  0  0  0  0  0  0  0  0  0  0
   41.8920   32.7740   41.4470 N   0  0  0  0  0  0  0  0  0  0  0  0
   41.1180   31.7520   41.6870 N   0  0  0  0  0  0  0  0  0  0  0  0
   41.8390   30.7590   42.2680 C   0  0  0  0  0  0  0  0  0  0  0  0
   43.1300   31.2600   42.3650 C   0  0  0  0  0  0  0  0  0  0  0  0
   43.1490   32.5480   41.8360 C   0  0  0  0  0  0  0  0  0  0  0  0
   44.2880   33.3980   41.7530 N   0  0  0  0  0  0  0  0  0  0  0  0
   44.4490   34.3570   42.6740 N   0  0  0  0  0  0  0  0  0  0  0  0
   45.5790   35.0530   42.4260 C   0  0  0  0  0  0  0  0  0  0  0  0
   46.1720   34.5140   41.2930 C   0  0  0  0  0  0  0  0  0  0  0  0
   45.3330   33.4890   40.9110 C   0  0  0  0  0  0  0  0  0  0  0  0
   41.2855   34.9392   42.7622 H   0  0  0  0  0  0  0  0  0  0  0  0
   40.0348   37.2595   39.4887 H   0  0  0  0  0  0  0  0  0  0  0  0
   39.4689   32.1950   38.8733 H   0  0  0  0  0  0  0  0  0  0  0  0
   43.8822   31.7254   36.8029 H   0  0  0  0  0  0  0  0  0  0  0  0
   39.2713   29.6826   38.3079 H   0  0  0  0  0  0  0  0  0  0  0  0
   38.8490   30.5135   36.7724 H   0  0  0  0  0  0  0  0  0  0  0  0
   40.0615   29.1881   36.7724 H   0  0  0  0  0  0  0  0  0  0  0  0
   41.4783   29.7715   42.5917 H   0  0  0  0  0  0  0  0  0  0  0  0
   43.9943   30.7280   42.7892 H   0  0  0  0  0  0  0  0  0  0  0  0
   45.9619   35.8978   43.0174 H   0  0  0  0  0  0  0  0  0  0  0  0
   47.1055   34.8340   40.8070 H   0  0  0  0  0  0  0  0  0  0  0  0
   45.4953   32.8371   40.0400 H   0  0  0  0  0  0  0  0  0  0  0  0
  2 16  1  0
  2  1  2  0
  3  2  1  0
  4  3  2  0
  4  5  1  0
  5  6  2  0
  6  1  1  0
  7  3  1  0
  8  7  1  0
  9  8  2  0
 10 12  1  0
 10  9  1  0
 11 10  2  0
 12 13  1  0
 13 14  2  0
 13  7  1  0
 15  9  1  0
 16 17  1  0
 16 20  1  0
 17 18  2  0
 18 19  1  0
 20 19  2  0
 21 20  1  0
 21 22  1  0
 23 22  2  0
 24 23  1  0
 25 24  2  0
 25 21  1  0
  1 26  1  0
  5 27  1  0
  8 28  1  0
 12 29  1  0
 15 30  1  0
 15 31  1  0
 15 32  1  0
 18 33  1  0
 19 34  1  0
 23 35  1  0
 24 36  1  0
 25 37  1  0
M  ISO  8  26  14  27  14  28  14  29   9  30   8  31   8  32   8  33  14
M  ISO  4  34  14  35  14  36  14  37  14
M  END
>  <minimizedAffinity>  (1) 
-4.95489025

>  <minimizedRMSD>  (1) 
4.57719278

$$$$
