
     RDKit          3D

 36 38  0  0  1  0  0  0  0  0999 V2000
   45.7490   33.7130   45.0750 C   0  0  0  0  0  0  0  0  0  0  0  0
   46.5290   32.5640   45.3920 C   0  0  0  0  0  0  0  0  0  0  0  0
   47.5480   32.2680   44.4840 C   0  0  0  0  0  0  0  0  0  0  0  0
   47.7360   33.0530   43.3970 N   0  0  0  0  0  0  0  0  0  0  0  0
   46.9570   34.1340   43.1510 C   0  0  0  0  0  0  0  0  0  0  0  0
   45.9700   34.4810   43.9640 N   0  0  0  0  0  0  0  0  0  0  0  0
   46.1400   31.9080   46.5920 C   0  0  0  0  0  0  0  0  0  0  0  0
   46.2690   32.6940   47.6990 N   0  0  0  0  0  0  0  0  0  0  0  0
   45.9480   32.2460   48.9400 C   0  0  0  0  0  0  0  0  0  0  0  0
   45.4820   30.9960   49.1430 N   0  0  0  0  0  0  0  0  0  0  0  0
   45.3390   30.1790   48.0660 C   0  0  0  0  0  0  0  0  0  0  0  0
   44.8730   28.8700   48.1260 C   0  0  0  0  0  0  0  0  0  0  0  0
   44.7410   28.0820   47.0280 C   0  0  0  0  0  0  0  0  0  0  0  0
   45.0810   28.5850   45.7940 C   0  0  0  0  0  0  0  0  0  0  0  0
   45.5480   29.8710   45.6760 C   0  0  0  0  0  0  0  0  0  0  0  0
   45.6660   30.6410   46.8170 C   0  0  0  0  0  0  0  0  0  0  0  0
   47.2340   34.9290   41.9580 C   0  0  1  0  0  0  0  0  0  0  0  0
   48.7150   35.3920   41.9190 C   0  0  0  0  0  0  0  0  0  0  0  0
   46.9410   34.2640   40.6610 C   0  0  0  0  0  0  0  0  0  0  0  0
   48.0150   34.5730   39.7850 O   0  0  0  0  0  0  0  0  0  0  0  0
   48.0860   34.0880   38.4860 C   0  0  0  0  0  0  0  0  0  0  0  0
   48.5850   34.7560   37.5350 O   0  0  0  0  0  0  0  0  0  0  0  0
   44.9315   33.9960   45.7544 H   0  0  0  0  0  0  0  0  0  0  0  0
   48.1981   31.3967   44.6520 H   0  0  0  0  0  0  0  0  0  0  0  0
   46.0709   32.9189   49.8014 H   0  0  0  0  0  0  0  0  0  0  0  0
   44.5991   28.4543   49.1069 H   0  0  0  0  0  0  0  0  0  0  0  0
   44.3661   27.0524   47.1245 H   0  0  0  0  0  0  0  0  0  0  0  0
   44.9785   27.9549   44.8982 H   0  0  0  0  0  0  0  0  0  0  0  0
   45.8227   30.2799   44.6925 H   0  0  0  0  0  0  0  0  0  0  0  0
   46.5403   35.7770   42.0564 H   0  0  0  0  0  0  0  0  0  0  0  0
   49.0897   35.5091   42.9466 H   0  0  0  0  0  0  0  0  0  0  0  0
   49.3204   34.6403   41.3914 H   0  0  0  0  0  0  0  0  0  0  0  0
   48.7844   36.3547   41.3914 H   0  0  0  0  0  0  0  0  0  0  0  0
   46.8696   33.1754   40.8021 H   0  0  0  0  0  0  0  0  0  0  0  0
   45.9836   34.6139   40.2475 H   0  0  0  0  0  0  0  0  0  0  0  0
   47.6925   33.0826   38.2755 H   0  0  0  0  0  0  0  0  0  0  0  0
  1  2  2  0
  2  7  1  0
  3  2  1  0
  4  3  2  0
  5  4  1  0
  5  6  2  0
  6  1  1  0
  7 16  1  0
  7  8  2  0
  8  9  1  0
  9 10  2  0
 11 12  2  0
 11 10  1  0
 13 12  1  0
 14 13  2  0
 15 14  1  0
 15 16  2  0
 16 11  1  0
 17  5  1  0
 18 17  1  0
 19 17  1  0
 20 19  1  0
 21 20  1  0
 22 21  2  0
  1 23  1  0
  3 24  1  0
  9 25  1  0
 12 26  1  0
 13 27  1  0
 14 28  1  0
 15 29  1  0
 17 30  1  1
 18 31  1  0
 18 32  1  0
 18 33  1  0
 19 34  1  0
 19 35  1  0
 21 36  1  0
M  ISO  8  23  14  24  14  25  14  26  14  27  14  28  14  29  14  30   8
M  ISO  6  31   8  32   8  33   8  34   8  35   8  36   6
M  END
>  <minimizedAffinity>  (1) 
-5.42793369

>  <minimizedRMSD>  (1) 
7.61816311

$$$$
