
     RDKit          3D

 36 39  0  0  0  0  0  0  0  0999 V2000
   43.5410   33.9240   38.3330 C   0  0  0  0  0  0  0  0  0  0  0  0
   42.4500   33.4430   39.0650 C   0  0  0  0  0  0  0  0  0  0  0  0
   42.1550   32.0970   38.9560 C   0  0  0  0  0  0  0  0  0  0  0  0
   42.9360   31.3130   38.1510 N   0  0  0  0  0  0  0  0  0  0  0  0
   43.9620   31.8110   37.4740 C   0  0  0  0  0  0  0  0  0  0  0  0
   44.2610   33.1010   37.5650 N   0  0  0  0  0  0  0  0  0  0  0  0
   41.0380   31.5940   39.7010 N   0  0  0  0  0  0  0  0  0  0  0  0
   41.2430   31.2090   40.9840 C   0  0  0  0  0  0  0  0  0  0  0  0
   40.1640   30.7340   41.6710 C   0  0  0  0  0  0  0  0  0  0  0  0
   38.9000   30.6370   41.1160 C   0  0  0  0  0  0  0  0  0  0  0  0
   37.9690   30.1890   41.8260 O   0  0  0  0  0  0  0  0  0  0  0  0
   38.7320   31.0320   39.8320 N   0  0  0  0  0  0  0  0  0  0  0  0
   39.7890   31.4980   39.1550 C   0  0  0  0  0  0  0  0  0  0  0  0
   39.5990   31.8540   37.9720 O   0  0  0  0  0  0  0  0  0  0  0  0
   40.4050   30.3080   43.0980 C   0  0  0  0  0  0  0  0  0  0  0  0
   41.7430   34.3630   39.8460 N   0  0  0  0  0  0  0  0  0  0  0  0
   40.6060   34.8540   39.4570 N   0  0  0  0  0  0  0  0  0  0  0  0
   40.1270   35.7170   40.3840 C   0  0  0  0  0  0  0  0  0  0  0  0
   41.0760   35.7170   41.3930 C   0  0  0  0  0  0  0  0  0  0  0  0
   42.1110   34.8420   41.0360 C   0  0  0  0  0  0  0  0  0  0  0  0
   43.2730   34.5630   41.8080 N   0  0  0  0  0  0  0  0  0  0  0  0
   44.0780   35.5770   42.1990 C   0  0  0  0  0  0  0  0  0  0  0  0
   45.1210   35.0900   42.9210 N   0  0  0  0  0  0  0  0  0  0  0  0
   44.9440   33.7500   42.9680 C   0  0  0  0  0  0  0  0  0  0  0  0
   43.8130   33.4450   42.2850 N   0  0  0  0  0  0  0  0  0  0  0  0
   43.8085   34.9894   38.3902 H   0  0  0  0  0  0  0  0  0  0  0  0
   44.5677   31.1522   36.8344 H   0  0  0  0  0  0  0  0  0  0  0  0
   42.2364   31.2765   41.4515 H   0  0  0  0  0  0  0  0  0  0  0  0
   37.8066   30.9750   39.3834 H   0  0  0  0  0  0  0  0  0  0  0  0
   39.9805   31.0583   43.7813 H   0  0  0  0  0  0  0  0  0  0  0  0
   39.9234   29.3353   43.2766 H   0  0  0  0  0  0  0  0  0  0  0  0
   41.4868   30.2198   43.2766 H   0  0  0  0  0  0  0  0  0  0  0  0
   39.1900   36.2918   40.3445 H   0  0  0  0  0  0  0  0  0  0  0  0
   41.0257   36.3061   42.3206 H   0  0  0  0  0  0  0  0  0  0  0  0
   43.9127   36.6394   41.9667 H   0  0  0  0  0  0  0  0  0  0  0  0
   45.6046   33.0305   43.4738 H   0  0  0  0  0  0  0  0  0  0  0  0
  1  2  2  0
  2 16  1  0
  3  2  1  0
  3  7  1  0
  4  3  2  0
  5  6  2  0
  5  4  1  0
  6  1  1  0
  7  8  1  0
  8  9  2  0
  9 15  1  0
 10  9  1  0
 10 11  2  0
 12 10  1  0
 13  7  1  0
 13 12  1  0
 14 13  2  0
 16 20  1  0
 17 16  1  0
 17 18  2  0
 18 19  1  0
 20 19  2  0
 20 21  1  0
 21 22  1  0
 21 25  1  0
 22 23  2  0
 23 24  1  0
 25 24  2  0
  1 26  1  0
  5 27  1  0
  8 28  1  0
 12 29  1  0
 15 30  1  0
 15 31  1  0
 15 32  1  0
 18 33  1  0
 19 34  1  0
 22 35  1  0
 24 36  1  0
M  ISO  8  26  14  27  14  28  14  29   9  30   8  31   8  32   8  33  14
M  ISO  3  34  14  35  14  36  14
M  END
>  <minimizedAffinity>  (1) 
-4.79244995

>  <minimizedRMSD>  (1) 
3.49305415

$$$$
