
     RDKit          3D

 37 40  0  0  0  0  0  0  0  0999 V2000
   43.0230   35.5840   41.4450 C   0  0  0  0  0  0  0  0  0  0  0  0
   43.0310   34.6870   40.3750 C   0  0  0  0  0  0  0  0  0  0  0  0
   43.9520   33.6680   40.3860 C   0  0  0  0  0  0  0  0  0  0  0  0
   44.8230   33.5800   41.4500 N   0  0  0  0  0  0  0  0  0  0  0  0
   44.7810   34.4610   42.4540 C   0  0  0  0  0  0  0  0  0  0  0  0
   43.8940   35.4460   42.4480 N   0  0  0  0  0  0  0  0  0  0  0  0
   43.9600   32.7500   39.2930 N   0  0  0  0  0  0  0  0  0  0  0  0
   44.6350   33.1070   38.1630 C   0  0  0  0  0  0  0  0  0  0  0  0
   44.6370   32.2260   37.1270 C   0  0  0  0  0  0  0  0  0  0  0  0
   43.9890   31.0040   37.1790 C   0  0  0  0  0  0  0  0  0  0  0  0
   44.0380   30.2500   36.1820 O   0  0  0  0  0  0  0  0  0  0  0  0
   43.3310   30.6890   38.3160 N   0  0  0  0  0  0  0  0  0  0  0  0
   43.3250   31.5530   39.3430 C   0  0  0  0  0  0  0  0  0  0  0  0
   42.7060   31.2260   40.3800 O   0  0  0  0  0  0  0  0  0  0  0  0
   45.3840   32.6290   35.8860 C   0  0  0  0  0  0  0  0  0  0  0  0
   42.0820   34.9010   39.3580 N   0  0  0  0  0  0  0  0  0  0  0  0
   42.3200   35.7210   38.3700 N   0  0  0  0  0  0  0  0  0  0  0  0
   41.2580   35.7510   37.5320 C   0  0  0  0  0  0  0  0  0  0  0  0
   40.3360   34.8760   38.0890 C   0  0  0  0  0  0  0  0  0  0  0  0
   40.8750   34.3400   39.2570 C   0  0  0  0  0  0  0  0  0  0  0  0
   40.2520   33.4020   40.1260 N   0  0  0  0  0  0  0  0  0  0  0  0
   39.6090   32.2330   39.9380 C   0  0  0  0  0  0  0  0  0  0  0  0
   39.1900   31.7170   41.1480 C   0  0  0  0  0  0  0  0  0  0  0  0
   39.5890   32.5990   42.1120 N   0  0  0  0  0  0  0  0  0  0  0  0
   40.2330   33.6170   41.4740 C   0  0  0  0  0  0  0  0  0  0  0  0
   42.2954   36.4088   41.4619 H   0  0  0  0  0  0  0  0  0  0  0  0
   45.4878   34.3681   43.2917 H   0  0  0  0  0  0  0  0  0  0  0  0
   45.1585   34.0719   38.0922 H   0  0  0  0  0  0  0  0  0  0  0  0
   42.8358   29.7892   38.3944 H   0  0  0  0  0  0  0  0  0  0  0  0
   46.3196   33.1337   36.1688 H   0  0  0  0  0  0  0  0  0  0  0  0
   45.6159   31.7336   35.2906 H   0  0  0  0  0  0  0  0  0  0  0  0
   44.7630   33.3145   35.2906 H   0  0  0  0  0  0  0  0  0  0  0  0
   41.1491   36.3407   36.6098 H   0  0  0  0  0  0  0  0  0  0  0  0
   39.3431   34.6437   37.6764 H   0  0  0  0  0  0  0  0  0  0  0  0
   39.4418   31.7577   38.9602 H   0  0  0  0  0  0  0  0  0  0  0  0
   38.6408   30.7770   41.3055 H   0  0  0  0  0  0  0  0  0  0  0  0
   40.6758   34.4902   41.9755 H   0  0  0  0  0  0  0  0  0  0  0  0
  1  6  2  0
  2  3  2  0
  2  1  1  0
  3  4  1  0
  4  5  2  0
  6  5  1  0
  7 13  1  0
  7  3  1  0
  8  7  1  0
  9 10  1  0
  9  8  2  0
 10 12  1  0
 11 10  2  0
 12 13  1  0
 13 14  2  0
 15  9  1  0
 16  2  1  0
 17 16  1  0
 18 19  1  0
 18 17  2  0
 19 20  2  0
 20 16  1  0
 20 21  1  0
 21 25  1  0
 22 21  1  0
 22 23  2  0
 23 24  1  0
 25 24  2  0
  1 26  1  0
  5 27  1  0
  8 28  1  0
 12 29  1  0
 15 30  1  0
 15 31  1  0
 15 32  1  0
 18 33  1  0
 19 34  1  0
 22 35  1  0
 23 36  1  0
 25 37  1  0
M  ISO  8  26  14  27  14  28  14  29   9  30   8  31   8  32   8  33  14
M  ISO  4  34  14  35  14  36  14  37  14
M  END
>  <minimizedAffinity>  (1) 
-4.76242733

>  <minimizedRMSD>  (1) 
3.65084386

$$$$
