
     RDKit          3D

 43 46  0  0  0  0  0  0  0  0999 V2000
   44.7780   34.2410   40.6020 C   0  0  0  0  0  0  0  0  0  0  0  0
   45.5120   33.5940   41.6040 C   0  0  0  0  0  0  0  0  0  0  0  0
   44.8130   32.6840   42.3930 C   0  0  0  0  0  0  0  0  0  0  0  0
   43.4880   32.4700   42.1640 N   0  0  0  0  0  0  0  0  0  0  0  0
   42.8400   33.1170   41.1950 C   0  0  0  0  0  0  0  0  0  0  0  0
   43.4790   33.9970   40.4180 N   0  0  0  0  0  0  0  0  0  0  0  0
   45.5460   32.0130   43.4230 N   0  0  0  0  0  0  0  0  0  0  0  0
   45.7410   32.6790   44.5980 C   0  0  0  0  0  0  0  0  0  0  0  0
   46.4430   32.0270   45.5750 C   0  0  0  0  0  0  0  0  0  0  0  0
   46.9530   30.7370   45.4080 C   0  0  0  0  0  0  0  0  0  0  0  0
   47.5820   30.2130   46.3500 O   0  0  0  0  0  0  0  0  0  0  0  0
   46.7310   30.1170   44.2200 N   0  0  0  0  0  0  0  0  0  0  0  0
   46.0430   30.7650   43.2730 C   0  0  0  0  0  0  0  0  0  0  0  0
   45.8640   30.1580   42.1990 O   0  0  0  0  0  0  0  0  0  0  0  0
   46.6550   32.7630   46.8680 C   0  0  0  0  0  0  0  0  0  0  0  0
   46.8660   33.9110   41.7290 N   0  0  0  0  0  0  0  0  0  0  0  0
   47.2710   34.7580   42.6350 N   0  0  0  0  0  0  0  0  0  0  0  0
   48.6200   34.8990   42.5590 C   0  0  0  0  0  0  0  0  0  0  0  0
   49.0060   34.0520   41.5150 C   0  0  0  0  0  0  0  0  0  0  0  0
   47.8620   33.4240   40.9940 C   0  0  0  0  0  0  0  0  0  0  0  0
   47.8920   32.5110   39.9360 N   0  0  0  0  0  0  0  0  0  0  0  0
   47.8730   31.1780   39.9350 C   0  0  0  0  0  0  0  0  0  0  0  0
   47.9090   30.4370   38.7920 C   0  0  0  0  0  0  0  0  0  0  0  0
   47.8840   28.9640   38.8620 C   0  0  0  0  0  0  0  0  0  0  0  0
   47.9670   31.0590   37.5740 C   0  0  0  0  0  0  0  0  0  0  0  0
   48.0030   30.4320   36.4830 O   0  0  0  0  0  0  0  0  0  0  0  0
   47.9870   32.4240   37.5680 N   0  0  0  0  0  0  0  0  0  0  0  0
   47.9510   33.1450   38.7270 C   0  0  0  0  0  0  0  0  0  0  0  0
   47.9770   34.4080   38.5450 O   0  0  0  0  0  0  0  0  0  0  0  0
   45.2847   34.9682   39.9506 H   0  0  0  0  0  0  0  0  0  0  0  0
   41.7691   32.9247   41.0334 H   0  0  0  0  0  0  0  0  0  0  0  0
   45.3508   33.6957   44.7530 H   0  0  0  0  0  0  0  0  0  0  0  0
   47.0860   29.1650   44.0512 H   0  0  0  0  0  0  0  0  0  0  0  0
   46.4597   32.0851   47.7120 H   0  0  0  0  0  0  0  0  0  0  0  0
   47.6933   33.1227   46.9192 H   0  0  0  0  0  0  0  0  0  0  0  0
   45.9672   33.6199   46.9192 H   0  0  0  0  0  0  0  0  0  0  0  0
   49.2653   35.5374   43.1804 H   0  0  0  0  0  0  0  0  0  0  0  0
   50.0363   33.9021   41.1600 H   0  0  0  0  0  0  0  0  0  0  0  0
   47.8262   30.6526   40.9003 H   0  0  0  0  0  0  0  0  0  0  0  0
   47.8786   28.6470   39.9153 H   0  0  0  0  0  0  0  0  0  0  0  0
   46.9794   28.5884   38.3614 H   0  0  0  0  0  0  0  0  0  0  0  0
   48.7754   28.5579   38.3614 H   0  0  0  0  0  0  0  0  0  0  0  0
   48.0303   32.9220   36.6674 H   0  0  0  0  0  0  0  0  0  0  0  0
  1  2  2  0
  2 16  1  0
  2  3  1  0
  3  7  1  0
  4  3  2  0
  5  4  1  0
  6  1  1  0
  6  5  2  0
  7  8  1  0
  8  9  2  0
  9 15  1  0
 10  9  1  0
 10 11  2  0
 12 10  1  0
 13  7  1  0
 13 12  1  0
 14 13  2  0
 16 17  1  0
 18 17  2  0
 19 18  1  0
 20 19  2  0
 20 16  1  0
 21 20  1  0
 22 21  1  0
 23 24  1  0
 23 22  2  0
 25 23  1  0
 26 25  2  0
 27 25  1  0
 27 28  1  0
 28 21  1  0
 29 28  2  0
  1 30  1  0
  5 31  1  0
  8 32  1  0
 12 33  1  0
 15 34  1  0
 15 35  1  0
 15 36  1  0
 18 37  1  0
 19 38  1  0
 22 39  1  0
 24 40  1  0
 24 41  1  0
 24 42  1  0
 27 43  1  0
M  ISO  8  30  14  31  14  32  14  33   9  34   8  35   8  36   8  37  14
M  ISO  6  38  14  39  14  40   8  41   8  42   8  43   9
M  END
>  <minimizedAffinity>  (1) 
-4.52787447

>  <minimizedRMSD>  (1) 
8.48006821

$$$$
