
     RDKit          3D

 43 46  0  0  0  0  0  0  0  0999 V2000
   44.4140   35.4710   41.9910 C   0  0  0  0  0  0  0  0  0  0  0  0
   44.5150   34.1080   41.6700 C   0  0  0  0  0  0  0  0  0  0  0  0
   44.8300   33.2460   42.7110 C   0  0  0  0  0  0  0  0  0  0  0  0
   45.0280   33.7440   43.9740 N   0  0  0  0  0  0  0  0  0  0  0  0
   44.9180   35.0530   44.2150 C   0  0  0  0  0  0  0  0  0  0  0  0
   44.6160   35.9120   43.2460 N   0  0  0  0  0  0  0  0  0  0  0  0
   44.9350   31.8600   42.3960 N   0  0  0  0  0  0  0  0  0  0  0  0
   46.1670   31.3380   42.1630 C   0  0  0  0  0  0  0  0  0  0  0  0
   46.2430   30.0090   41.8630 C   0  0  0  0  0  0  0  0  0  0  0  0
   45.1270   29.1860   41.7870 C   0  0  0  0  0  0  0  0  0  0  0  0
   45.2610   27.9780   41.5060 O   0  0  0  0  0  0  0  0  0  0  0  0
   43.9150   29.7380   42.0240 N   0  0  0  0  0  0  0  0  0  0  0  0
   43.8430   31.0520   42.3220 C   0  0  0  0  0  0  0  0  0  0  0  0
   42.7070   31.5260   42.5370 O   0  0  0  0  0  0  0  0  0  0  0  0
   47.6010   29.4290   41.6090 C   0  0  0  0  0  0  0  0  0  0  0  0
   44.3090   33.7450   40.3440 N   0  0  0  0  0  0  0  0  0  0  0  0
   45.2990   33.3660   39.5770 N   0  0  0  0  0  0  0  0  0  0  0  0
   44.8210   33.0730   38.3370 C   0  0  0  0  0  0  0  0  0  0  0  0
   43.4430   33.3080   38.4110 C   0  0  0  0  0  0  0  0  0  0  0  0
   43.1490   33.7350   39.7030 C   0  0  0  0  0  0  0  0  0  0  0  0
   41.7920   34.0120   39.9590 N   0  0  0  0  0  0  0  0  0  0  0  0
   40.7970   33.0070   40.3100 C   0  0  0  0  0  0  0  0  0  0  0  0
   39.8200   33.6040   41.2630 C   0  0  0  0  0  0  0  0  0  0  0  0
   40.3100   34.7050   41.9420 O   0  0  0  0  0  0  0  0  0  0  0  0
   40.6670   35.7540   41.1420 C   0  0  0  0  0  0  0  0  0  0  0  0
   41.3560   35.3930   39.8660 C   0  0  0  0  0  0  0  0  0  0  0  0
   44.1645   36.1935   41.1999 H   0  0  0  0  0  0  0  0  0  0  0  0
   45.0806   35.4282   45.2362 H   0  0  0  0  0  0  0  0  0  0  0  0
   47.0704   31.9636   42.2142 H   0  0  0  0  0  0  0  0  0  0  0  0
   43.0607   29.1644   41.9777 H   0  0  0  0  0  0  0  0  0  0  0  0
   48.0950   29.2180   42.5689 H   0  0  0  0  0  0  0  0  0  0  0  0
   47.4997   28.4956   41.0358 H   0  0  0  0  0  0  0  0  0  0  0  0
   48.2053   30.1476   41.0358 H   0  0  0  0  0  0  0  0  0  0  0  0
   45.3940   32.7262   37.4645 H   0  0  0  0  0  0  0  0  0  0  0  0
   42.7198   33.1781   37.5924 H   0  0  0  0  0  0  0  0  0  0  0  0
   40.2714   32.6756   39.4023 H   0  0  0  0  0  0  0  0  0  0  0  0
   41.2910   32.1423   40.7772 H   0  0  0  0  0  0  0  0  0  0  0  0
   38.9277   33.9125   40.6985 H   0  0  0  0  0  0  0  0  0  0  0  0
   39.5936   32.8352   42.0164 H   0  0  0  0  0  0  0  0  0  0  0  0
   39.7529   36.3101   40.8865 H   0  0  0  0  0  0  0  0  0  0  0  0
   41.3977   36.3370   41.7218 H   0  0  0  0  0  0  0  0  0  0  0  0
   42.2263   36.0485   39.7148 H   0  0  0  0  0  0  0  0  0  0  0  0
   40.6691   35.5173   39.0159 H   0  0  0  0  0  0  0  0  0  0  0  0
  1  6  2  0
  2  1  1  0
  2  3  2  0
  3  4  1  0
  4  5  2  0
  6  5  1  0
  7  3  1  0
  8  7  1  0
  9  8  2  0
 10  9  1  0
 10 12  1  0
 11 10  2  0
 12 13  1  0
 13  7  1  0
 13 14  2  0
 15  9  1  0
 16  2  1  0
 17 16  1  0
 18 19  1  0
 18 17  2  0
 19 20  2  0
 20 21  1  0
 20 16  1  0
 21 22  1  0
 22 23  1  0
 23 24  1  0
 25 24  1  0
 26 21  1  0
 26 25  1  0
  1 27  1  0
  5 28  1  0
  8 29  1  0
 12 30  1  0
 15 31  1  0
 15 32  1  0
 15 33  1  0
 18 34  1  0
 19 35  1  0
 22 36  1  0
 22 37  1  0
 23 38  1  0
 23 39  1  0
 25 40  1  0
 25 41  1  0
 26 42  1  0
 26 43  1  0
M  ISO  8  27  14  28  14  29  14  30   9  31   8  32   8  33   8  34  14
M  ISO  8  35  14  36  13  37  13  38  13  39  13  40  13  41  13  42  13
M  ISO  1  43  13
M  END
>  <minimizedAffinity>  (1) 
-4.55425549

>  <minimizedRMSD>  (1) 
4.44611168

$$$$
