
     RDKit          3D

 40 42  0  0  1  0  0  0  0  0999 V2000
   45.3610   33.7120   45.5940 C   0  0  0  0  0  0  0  0  0  0  0  0
   46.2020   32.5740   45.7500 C   0  0  0  0  0  0  0  0  0  0  0  0
   47.1620   32.3840   44.7550 C   0  0  0  0  0  0  0  0  0  0  0  0
   47.2470   33.2620   43.7260 N   0  0  0  0  0  0  0  0  0  0  0  0
   46.4190   34.3310   43.6300 C   0  0  0  0  0  0  0  0  0  0  0  0
   45.4780   34.5750   44.5380 N   0  0  0  0  0  0  0  0  0  0  0  0
   45.9260   31.7980   46.9180 C   0  0  0  0  0  0  0  0  0  0  0  0
   46.0950   32.5000   48.0800 N   0  0  0  0  0  0  0  0  0  0  0  0
   45.8780   31.9260   49.2850 C   0  0  0  0  0  0  0  0  0  0  0  0
   45.4870   30.6440   49.4190 N   0  0  0  0  0  0  0  0  0  0  0  0
   45.3060   29.9080   48.2790 C   0  0  0  0  0  0  0  0  0  0  0  0
   44.9080   28.5870   48.2660 C   0  0  0  0  0  0  0  0  0  0  0  0
   44.7370   27.8840   47.1160 C   0  0  0  0  0  0  0  0  0  0  0  0
   44.9690   28.5020   45.8910 C   0  0  0  0  0  0  0  0  0  0  0  0
   45.3660   29.8180   45.8660 C   0  0  0  0  0  0  0  0  0  0  0  0
   45.5240   30.4850   47.0630 C   0  0  0  0  0  0  0  0  0  0  0  0
   46.5780   35.2360   42.4940 C   0  0  1  0  0  0  0  0  0  0  0  0
   47.7000   34.7410   41.5370 C   0  0  0  0  0  0  0  0  0  0  0  0
   45.3580   35.4520   41.6750 C   0  0  0  0  0  0  0  0  0  0  0  0
   45.0200   34.2040   41.0880 O   0  0  0  0  0  0  0  0  0  0  0  0
   43.6470   34.0000   41.1070 C   0  0  0  0  0  0  0  0  0  0  0  0
   43.0120   35.3380   41.4790 C   0  0  0  0  0  0  0  0  0  0  0  0
   44.5871   33.9053   46.3515 H   0  0  0  0  0  0  0  0  0  0  0  0
   47.8471   31.5249   44.8057 H   0  0  0  0  0  0  0  0  0  0  0  0
   46.0267   32.5302   50.1921 H   0  0  0  0  0  0  0  0  0  0  0  0
   44.7216   28.0825   49.2256 H   0  0  0  0  0  0  0  0  0  0  0  0
   44.4170   26.8322   47.1531 H   0  0  0  0  0  0  0  0  0  0  0  0
   44.8362   27.9435   44.9527 H   0  0  0  0  0  0  0  0  0  0  0  0
   45.5540   30.3290   44.9102 H   0  0  0  0  0  0  0  0  0  0  0  0
   46.8314   36.1967   42.9660 H   0  0  0  0  0  0  0  0  0  0  0  0
   48.5482   34.3668   42.1290 H   0  0  0  0  0  0  0  0  0  0  0  0
   47.3101   33.9314   40.9026 H   0  0  0  0  0  0  0  0  0  0  0  0
   48.0351   35.5748   40.9026 H   0  0  0  0  0  0  0  0  0  0  0  0
   44.5336   35.8043   42.3124 H   0  0  0  0  0  0  0  0  0  0  0  0
   45.5372   36.2121   40.9003 H   0  0  0  0  0  0  0  0  0  0  0  0
   43.2976   33.6768   40.1153 H   0  0  0  0  0  0  0  0  0  0  0  0
   43.3724   33.2164   41.8286 H   0  0  0  0  0  0  0  0  0  0  0  0
   42.9679   35.4310   42.5742 H   0  0  0  0  0  0  0  0  0  0  0  0
   43.6168   36.1585   41.0654 H   0  0  0  0  0  0  0  0  0  0  0  0
   41.9940   35.3883   41.0654 H   0  0  0  0  0  0  0  0  0  0  0  0
  1  2  2  0
  2  7  1  0
  3  2  1  0
  4  3  2  0
  5  4  1  0
  5  6  2  0
  6  1  1  0
  7 16  1  0
  7  8  2  0
  8  9  1  0
  9 10  2  0
 11 10  1  0
 12 11  2  0
 13 12  1  0
 14 13  2  0
 15 14  1  0
 15 16  2  0
 16 11  1  0
 17  5  1  0
 18 17  1  0
 19 17  1  0
 20 21  1  0
 20 19  1  0
 21 22  1  0
  1 23  1  0
  3 24  1  0
  9 25  1  0
 12 26  1  0
 13 27  1  0
 14 28  1  0
 15 29  1  0
 17 30  1  1
 18 31  1  0
 18 32  1  0
 18 33  1  0
 19 34  1  0
 19 35  1  0
 21 36  1  0
 21 37  1  0
 22 38  1  0
 22 39  1  0
 22 40  1  0
M  ISO  8  23  14  24  14  25  14  26  14  27  14  28  14  29  14  30   8
M  ISO  8  31   8  32   8  33   8  34   8  35   8  36   8  37   8  38   8
M  ISO  2  39   8  40   8
M  END
>  <minimizedAffinity>  (1) 
-4.84181309

>  <minimizedRMSD>  (1) 
7.04075909

$$$$
