
     RDKit          3D

 45 48  0  0  0  0  0  0  0  0999 V2000
   42.8540   35.5790   41.5100 C   0  0  0  0  0  0  0  0  0  0  0  0
   42.7560   34.6720   40.4510 C   0  0  0  0  0  0  0  0  0  0  0  0
   43.5750   33.5600   40.4920 C   0  0  0  0  0  0  0  0  0  0  0  0
   44.4320   33.3950   41.5500 N   0  0  0  0  0  0  0  0  0  0  0  0
   44.4880   34.2790   42.5280 C   0  0  0  0  0  0  0  0  0  0  0  0
   43.7100   35.3650   42.5180 N   0  0  0  0  0  0  0  0  0  0  0  0
   43.4820   32.6270   39.4130 N   0  0  0  0  0  0  0  0  0  0  0  0
   44.2690   32.8190   38.3250 C   0  0  0  0  0  0  0  0  0  0  0  0
   44.1590   31.9070   37.3020 C   0  0  0  0  0  0  0  0  0  0  0  0
   43.2960   30.8250   37.3420 C   0  0  0  0  0  0  0  0  0  0  0  0
   43.2740   30.0560   36.3580 O   0  0  0  0  0  0  0  0  0  0  0  0
   42.5340   30.6710   38.4400 N   0  0  0  0  0  0  0  0  0  0  0  0
   42.6390   31.5590   39.4380 C   0  0  0  0  0  0  0  0  0  0  0  0
   41.9100   31.3680   40.4320 O   0  0  0  0  0  0  0  0  0  0  0  0
   45.0450   32.1450   36.1030 C   0  0  0  0  0  0  0  0  0  0  0  0
   41.8350   34.9620   39.4270 N   0  0  0  0  0  0  0  0  0  0  0  0
   42.1940   35.5960   38.3600 N   0  0  0  0  0  0  0  0  0  0  0  0
   41.1450   35.7540   37.5330 C   0  0  0  0  0  0  0  0  0  0  0  0
   40.0920   35.1460   38.2050 C   0  0  0  0  0  0  0  0  0  0  0  0
   40.5230   34.6370   39.4170 C   0  0  0  0  0  0  0  0  0  0  0  0
   39.7550   33.9360   40.4140 C   0  0  0  0  0  0  0  0  0  0  0  0
   40.0600   33.8530   41.6360 O   0  0  0  0  0  0  0  0  0  0  0  0
   38.4790   33.2120   40.1020 C   0  0  0  0  0  0  0  0  0  0  0  0
   38.4730   32.7680   38.6550 C   0  0  0  0  0  0  0  0  0  0  0  0
   38.9680   31.3430   38.7680 C   0  0  0  0  0  0  0  0  0  0  0  0
   38.0220   30.8510   39.8740 C   0  0  0  0  0  0  0  0  0  0  0  0
   38.3300   31.9420   40.9120 C   0  0  0  0  0  0  0  0  0  0  0  0
   42.2211   36.4787   41.5158 H   0  0  0  0  0  0  0  0  0  0  0  0
   45.1853   34.1195   43.3636 H   0  0  0  0  0  0  0  0  0  0  0  0
   44.9655   33.6682   38.2638 H   0  0  0  0  0  0  0  0  0  0  0  0
   41.8780   29.8803   38.5126 H   0  0  0  0  0  0  0  0  0  0  0  0
   46.0556   32.4165   36.4420 H   0  0  0  0  0  0  0  0  0  0  0  0
   45.0955   31.2286   35.4967 H   0  0  0  0  0  0  0  0  0  0  0  0
   44.6295   32.9634   35.4967 H   0  0  0  0  0  0  0  0  0  0  0  0
   41.1254   36.2500   36.5514 H   0  0  0  0  0  0  0  0  0  0  0  0
   39.0612   35.0788   37.8268 H   0  0  0  0  0  0  0  0  0  0  0  0
   37.6669   33.9170   40.3330 H   0  0  0  0  0  0  0  0  0  0  0  0
   39.1526   33.3811   38.0449 H   0  0  0  0  0  0  0  0  0  0  0  0
   37.4934   32.8622   38.1636 H   0  0  0  0  0  0  0  0  0  0  0  0
   38.8337   30.7835   37.8305 H   0  0  0  0  0  0  0  0  0  0  0  0
   40.0420   31.2289   38.9768 H   0  0  0  0  0  0  0  0  0  0  0  0
   36.9686   30.8612   39.5575 H   0  0  0  0  0  0  0  0  0  0  0  0
   38.1635   29.8120   40.2062 H   0  0  0  0  0  0  0  0  0  0  0  0
   39.2618   31.7135   41.4501 H   0  0  0  0  0  0  0  0  0  0  0  0
   37.5419   32.0250   41.6749 H   0  0  0  0  0  0  0  0  0  0  0  0
  1  6  2  0
  2  3  2  0
  2  1  1  0
  3  4  1  0
  4  5  2  0
  6  5  1  0
  7 13  1  0
  7  3  1  0
  8  7  1  0
  9 10  1  0
  9  8  2  0
 10 12  1  0
 11 10  2  0
 12 13  1  0
 13 14  2  0
 15  9  1  0
 16  2  1  0
 17 16  1  0
 18 19  1  0
 18 17  2  0
 19 20  2  0
 20 16  1  0
 20 21  1  0
 21 22  2  0
 23 21  1  0
 23 27  1  0
 24 25  1  0
 24 23  1  0
 25 26  1  0
 26 27  1  0
  1 28  1  0
  5 29  1  0
  8 30  1  0
 12 31  1  0
 15 32  1  0
 15 33  1  0
 15 34  1  0
 18 35  1  0
 19 36  1  0
 23 37  1  0
 24 38  1  0
 24 39  1  0
 25 40  1  0
 25 41  1  0
 26 42  1  0
 26 43  1  0
 27 44  1  0
 27 45  1  0
M  ISO  8  28  14  29  14  30  14  31   9  32   8  33   8  34   8  35  14
M  ISO  8  36  14  37  13  38  13  39  13  40  13  41  13  42  13  43  13
M  ISO  2  44  13  45  13
M  END
>  <minimizedAffinity>  (1) 
-5.58307362

>  <minimizedRMSD>  (1) 
3.08968067

$$$$
