
     RDKit          3D

 42 45  0  0  0  0  0  0  0  0999 V2000
   47.9000   35.0880   42.1710 C   0  0  0  0  0  0  0  0  0  0  0  0
   46.5530   34.7080   42.2160 C   0  0  0  0  0  0  0  0  0  0  0  0
   45.9960   34.2130   41.0470 C   0  0  0  0  0  0  0  0  0  0  0  0
   46.7680   34.1190   39.9230 N   0  0  0  0  0  0  0  0  0  0  0  0
   48.0420   34.4930   39.9290 C   0  0  0  0  0  0  0  0  0  0  0  0
   48.6090   34.9730   41.0390 N   0  0  0  0  0  0  0  0  0  0  0  0
   44.6210   33.8230   41.0870 N   0  0  0  0  0  0  0  0  0  0  0  0
   43.6760   34.7650   40.8330 C   0  0  0  0  0  0  0  0  0  0  0  0
   42.3610   34.3670   40.8760 C   0  0  0  0  0  0  0  0  0  0  0  0
   41.9780   33.0630   41.1650 C   0  0  0  0  0  0  0  0  0  0  0  0
   40.7580   32.8000   41.1800 O   0  0  0  0  0  0  0  0  0  0  0  0
   42.9470   32.1660   41.4090 N   0  0  0  0  0  0  0  0  0  0  0  0
   44.2350   32.5560   41.3660 C   0  0  0  0  0  0  0  0  0  0  0  0
   45.0870   31.6800   41.6010 O   0  0  0  0  0  0  0  0  0  0  0  0
   41.3270   35.4280   40.5920 C   0  0  0  0  0  0  0  0  0  0  0  0
   45.8830   34.8590   43.4350 N   0  0  0  0  0  0  0  0  0  0  0  0
   45.1370   35.9000   43.6740 N   0  0  0  0  0  0  0  0  0  0  0  0
   44.6010   35.8160   44.9100 C   0  0  0  0  0  0  0  0  0  0  0  0
   45.0890   34.6120   45.4200 C   0  0  0  0  0  0  0  0  0  0  0  0
   45.9130   34.0020   44.4640 C   0  0  0  0  0  0  0  0  0  0  0  0
   46.6090   32.7370   44.6160 C   0  0  0  0  0  0  0  0  0  0  0  0
   47.7340   32.4960   44.0750 O   0  0  0  0  0  0  0  0  0  0  0  0
   46.0590   31.6380   45.4090 C   0  0  0  0  0  0  0  0  0  0  0  0
   45.5760   30.5180   44.7330 C   0  0  0  0  0  0  0  0  0  0  0  0
   45.0290   29.4090   45.3780 C   0  0  0  0  0  0  0  0  0  0  0  0
   44.9610   29.4200   46.7700 C   0  0  0  0  0  0  0  0  0  0  0  0
   45.4460   30.5430   47.4390 C   0  0  0  0  0  0  0  0  0  0  0  0
   45.9820   31.6280   46.7880 C   0  0  0  0  0  0  0  0  0  0  0  0
   48.3825   35.4859   43.0759 H   0  0  0  0  0  0  0  0  0  0  0  0
   48.6379   34.4065   39.0084 H   0  0  0  0  0  0  0  0  0  0  0  0
   43.9519   35.8045   40.6022 H   0  0  0  0  0  0  0  0  0  0  0  0
   42.7071   31.1884   41.6271 H   0  0  0  0  0  0  0  0  0  0  0  0
   40.9394   35.8257   41.5415 H   0  0  0  0  0  0  0  0  0  0  0  0
   41.7870   36.2428   40.0137 H   0  0  0  0  0  0  0  0  0  0  0  0
   40.5006   34.9891   40.0137 H   0  0  0  0  0  0  0  0  0  0  0  0
   43.9306   36.5347   45.4040 H   0  0  0  0  0  0  0  0  0  0  0  0
   44.8624   34.2052   46.4166 H   0  0  0  0  0  0  0  0  0  0  0  0
   45.6292   30.5087   43.6343 H   0  0  0  0  0  0  0  0  0  0  0  0
   44.6604   28.5471   44.8024 H   0  0  0  0  0  0  0  0  0  0  0  0
   44.5378   28.5690   47.3237 H   0  0  0  0  0  0  0  0  0  0  0  0
   45.3974   30.5613   48.5378 H   0  0  0  0  0  0  0  0  0  0  0  0
   46.3499   32.4890   47.3654 H   0  0  0  0  0  0  0  0  0  0  0  0
  1  2  2  0
  2 16  1  0
  3  7  1  0
  3  2  1  0
  4  5  1  0
  4  3  2  0
  5  6  2  0
  6  1  1  0
  7 13  1  0
  8  9  2  0
  8  7  1  0
  9 10  1  0
 10 11  2  0
 10 12  1  0
 13 12  1  0
 13 14  2  0
 15  9  1  0
 16 17  1  0
 16 20  1  0
 17 18  2  0
 18 19  1  0
 20 21  1  0
 20 19  2  0
 21 23  1  0
 22 21  2  0
 23 28  2  0
 24 25  2  0
 24 23  1  0
 25 26  1  0
 26 27  2  0
 28 27  1  0
  1 29  1  0
  5 30  1  0
  8 31  1  0
 12 32  1  0
 15 33  1  0
 15 34  1  0
 15 35  1  0
 18 36  1  0
 19 37  1  0
 24 38  1  0
 25 39  1  0
 26 40  1  0
 27 41  1  0
 28 42  1  0
M  ISO  8  29  14  30  14  31  14  32   9  33   8  34   8  35   8  36  14
M  ISO  6  37  14  38  14  39  14  40  14  41  14  42  14
M  END
>  <minimizedAffinity>  (1) 
-6.39072227

>  <minimizedRMSD>  (1) 
7.02342463

$$$$
