
     RDKit          3D

 38 41  0  0  0  0  0  0  0  0999 V2000
   45.8470   34.5530   41.3210 C   0  0  0  0  0  0  0  0  0  0  0  0
   45.0690   33.4310   41.0650 C   0  0  0  0  0  0  0  0  0  0  0  0
   44.4880   32.8070   42.1610 C   0  0  0  0  0  0  0  0  0  0  0  0
   44.7050   33.3160   43.4180 N   0  0  0  0  0  0  0  0  0  0  0  0
   45.4600   34.3920   43.6000 C   0  0  0  0  0  0  0  0  0  0  0  0
   46.0280   35.0100   42.5700 N   0  0  0  0  0  0  0  0  0  0  0  0
   43.6860   31.6550   41.9150 N   0  0  0  0  0  0  0  0  0  0  0  0
   44.2880   30.4470   41.8150 C   0  0  0  0  0  0  0  0  0  0  0  0
   43.4860   29.3610   41.5780 C   0  0  0  0  0  0  0  0  0  0  0  0
   42.1120   29.4560   41.4420 C   0  0  0  0  0  0  0  0  0  0  0  0
   41.4690   28.4030   41.2280 O   0  0  0  0  0  0  0  0  0  0  0  0
   41.5520   30.6700   41.5470 N   0  0  0  0  0  0  0  0  0  0  0  0
   42.3250   31.7460   41.7780 C   0  0  0  0  0  0  0  0  0  0  0  0
   41.7580   32.8510   41.8680 O   0  0  0  0  0  0  0  0  0  0  0  0
   44.1900   28.0310   41.4720 C   0  0  0  0  0  0  0  0  0  0  0  0
   44.9300   33.0200   39.7310 N   0  0  0  0  0  0  0  0  0  0  0  0
   45.7700   32.2110   39.1880 N   0  0  0  0  0  0  0  0  0  0  0  0
   45.4250   31.9680   37.9040 C   0  0  0  0  0  0  0  0  0  0  0  0
   44.2710   32.7230   37.7170 C   0  0  0  0  0  0  0  0  0  0  0  0
   43.9510   33.4040   38.9000 C   0  0  0  0  0  0  0  0  0  0  0  0
   42.8160   34.2960   39.1080 C   0  0  0  0  0  0  0  0  0  0  0  0
   42.9290   35.4080   39.6770 O   0  0  0  0  0  0  0  0  0  0  0  0
   41.4730   33.8900   38.6330 C   0  0  0  0  0  0  0  0  0  0  0  0
   40.6640   34.9030   38.2540 C   0  0  0  0  0  0  0  0  0  0  0  0
   39.1070   34.0630   37.7320 S   0  0  0  0  0  0  0  0  0  0  0  0
   39.8880   32.3820   38.1530 C   0  0  0  0  0  0  0  0  0  0  0  0
   40.8950   32.7200   38.5050 N   0  0  0  0  0  0  0  0  0  0  0  0
   46.3254   35.0786   40.4814 H   0  0  0  0  0  0  0  0  0  0  0  0
   45.6178   34.7778   44.6180 H   0  0  0  0  0  0  0  0  0  0  0  0
   45.3778   30.3409   41.9198 H   0  0  0  0  0  0  0  0  0  0  0  0
   40.5322   30.7781   41.4509 H   0  0  0  0  0  0  0  0  0  0  0  0
   44.3952   27.6433   42.4808 H   0  0  0  0  0  0  0  0  0  0  0  0
   43.5503   27.3198   40.9290 H   0  0  0  0  0  0  0  0  0  0  0  0
   45.1379   28.1601   40.9290 H   0  0  0  0  0  0  0  0  0  0  0  0
   45.9377   31.3228   37.1754 H   0  0  0  0  0  0  0  0  0  0  0  0
   43.6959   32.7773   36.7809 H   0  0  0  0  0  0  0  0  0  0  0  0
   40.8832   35.9809   38.2561 H   0  0  0  0  0  0  0  0  0  0  0  0
   39.4699   31.3677   38.0734 H   0  0  0  0  0  0  0  0  0  0  0  0
  1  6  2  0
  2  1  1  0
  2  3  2  0
  3  4  1  0
  4  5  2  0
  6  5  1  0
  7  3  1  0
  8  7  1  0
  9  8  2  0
 10 12  1  0
 10  9  1  0
 11 10  2  0
 12 13  1  0
 13 14  2  0
 13  7  1  0
 15  9  1  0
 16  2  1  0
 17 16  1  0
 18 17  2  0
 19 18  1  0
 19 20  2  0
 20 21  1  0
 20 16  1  0
 21 22  2  0
 23 21  1  0
 24 23  2  0
 25 26  1  0
 25 24  1  0
 26 27  2  0
 27 23  1  0
  1 28  1  0
  5 29  1  0
  8 30  1  0
 12 31  1  0
 15 32  1  0
 15 33  1  0
 15 34  1  0
 18 35  1  0
 19 36  1  0
 24 37  1  0
 26 38  1  0
M  ISO  8  28  14  29  14  30  14  31   9  32   8  33   8  34   8  35  14
M  ISO  3  36  14  37  14  38  14
M  END
>  <minimizedAffinity>  (1) 
-4.07319736

>  <minimizedRMSD>  (1) 
3.75137281

$$$$
