
     RDKit          3D

 34 36  0  0  0  0  0  0  0  0999 V2000
   43.9520   34.7920   41.2000 C   0  0  0  0  0  0  0  0  0  0  0  0
   42.9540   34.1370   40.4810 C   0  0  0  0  0  0  0  0  0  0  0  0
   42.6020   32.8640   40.8840 C   0  0  0  0  0  0  0  0  0  0  0  0
   43.2460   32.3130   41.9620 N   0  0  0  0  0  0  0  0  0  0  0  0
   44.1850   32.9660   42.6160 C   0  0  0  0  0  0  0  0  0  0  0  0
   44.5400   34.1880   42.2490 N   0  0  0  0  0  0  0  0  0  0  0  0
   41.5840   32.1900   40.1520 N   0  0  0  0  0  0  0  0  0  0  0  0
   41.9080   31.6490   38.9470 C   0  0  0  0  0  0  0  0  0  0  0  0
   40.9100   31.0030   38.2580 C   0  0  0  0  0  0  0  0  0  0  0  0
   39.6200   30.8920   38.7460 C   0  0  0  0  0  0  0  0  0  0  0  0
   38.7680   30.2840   38.0490 O   0  0  0  0  0  0  0  0  0  0  0  0
   39.3440   31.4410   39.9380 N   0  0  0  0  0  0  0  0  0  0  0  0
   40.3130   32.0700   40.6130 C   0  0  0  0  0  0  0  0  0  0  0  0
   40.0010   32.5650   41.7240 O   0  0  0  0  0  0  0  0  0  0  0  0
   41.2870   30.4110   36.9260 C   0  0  0  0  0  0  0  0  0  0  0  0
   42.3810   34.8320   39.3910 N   0  0  0  0  0  0  0  0  0  0  0  0
   42.9640   34.8640   38.2450 N   0  0  0  0  0  0  0  0  0  0  0  0
   42.2280   35.5860   37.3680 C   0  0  0  0  0  0  0  0  0  0  0  0
   41.1220   35.9950   38.1080 C   0  0  0  0  0  0  0  0  0  0  0  0
   41.2300   35.5070   39.4040 C   0  0  0  0  0  0  0  0  0  0  0  0
   40.2800   35.7090   40.4950 C   0  0  0  0  0  0  0  0  0  0  0  0
   40.5430   36.3700   41.5390 O   0  0  0  0  0  0  0  0  0  0  0  0
   38.9720   35.1490   40.4200 N   0  0  0  0  0  0  0  0  0  0  0  0
   44.2604   35.8070   40.9089 H   0  0  0  0  0  0  0  0  0  0  0  0
   44.6795   32.4911   43.4762 H   0  0  0  0  0  0  0  0  0  0  0  0
   42.9273   31.7255   38.5406 H   0  0  0  0  0  0  0  0  0  0  0  0
   38.3938   31.3790   40.3307 H   0  0  0  0  0  0  0  0  0  0  0  0
   41.8717   29.4929   37.0851 H   0  0  0  0  0  0  0  0  0  0  0  0
   40.3748   30.1713   36.3599 H   0  0  0  0  0  0  0  0  0  0  0  0
   41.8900   31.1362   36.3599 H   0  0  0  0  0  0  0  0  0  0  0  0
   42.4523   35.8004   36.3127 H   0  0  0  0  0  0  0  0  0  0  0  0
   40.2926   36.6085   37.7262 H   0  0  0  0  0  0  0  0  0  0  0  0
   38.3049   35.2936   41.1913 H   0  0  0  0  0  0  0  0  0  0  0  0
   38.6936   34.5996   39.5945 H   0  0  0  0  0  0  0  0  0  0  0  0
  1  6  2  0
  2  3  2  0
  2  1  1  0
  3  4  1  0
  4  5  2  0
  6  5  1  0
  7 13  1  0
  7  3  1  0
  8  7  1  0
  9 10  1  0
  9  8  2  0
 10 12  1  0
 11 10  2  0
 12 13  1  0
 13 14  2  0
 15  9  1  0
 16 20  1  0
 16  2  1  0
 17 16  1  0
 18 19  1  0
 18 17  2  0
 19 20  2  0
 20 21  1  0
 21 22  2  0
 23 21  1  0
  1 24  1  0
  5 25  1  0
  8 26  1  0
 12 27  1  0
 15 28  1  0
 15 29  1  0
 15 30  1  0
 18 31  1  0
 19 32  1  0
 23 33  1  0
 23 34  1  0
M  ISO  8  24  14  25  14  26  14  27   9  28   8  29   8  30   8  31  14
M  ISO  1  32  14
M  END
>  <minimizedAffinity>  (1) 
-3.89390302

>  <minimizedRMSD>  (1) 
0.6800946

$$$$
