
     RDKit          3D

 30 32  0  0  0  0  0  0  0  0999 V2000
   46.2690   32.9590   45.6300 N   0  0  0  0  0  0  0  0  0  0  0  0
   46.7510   32.6220   44.4530 C   0  0  0  0  0  0  0  0  0  0  0  0
   46.3900   33.5400   43.4800 C   0  0  0  0  0  0  0  0  0  0  0  0
   45.6610   34.4610   44.1120 N   0  0  0  0  0  0  0  0  0  0  0  0
   45.5880   34.1070   45.4170 C   0  0  0  0  0  0  0  0  0  0  0  0
   45.3160   32.5870   47.7910 C   0  0  0  0  0  0  0  0  0  0  0  0
   46.3800   32.3350   46.8760 C   0  0  0  0  0  0  0  0  0  0  0  0
   47.4210   31.5100   47.2820 C   0  0  0  0  0  0  0  0  0  0  0  0
   47.3780   30.9780   48.5380 N   0  0  0  0  0  0  0  0  0  0  0  0
   46.3590   31.2330   49.3830 C   0  0  0  0  0  0  0  0  0  0  0  0
   45.3280   32.0380   49.0090 N   0  0  0  0  0  0  0  0  0  0  0  0
   47.3620   33.6230   39.3680 C   0  0  0  0  0  0  0  0  0  0  0  0
   48.3110   33.9180   40.3460 C   0  0  0  0  0  0  0  0  0  0  0  0
   47.9910   33.8900   41.7010 C   0  0  0  0  0  0  0  0  0  0  0  0
   46.7000   33.5610   42.0630 C   0  0  0  0  0  0  0  0  0  0  0  0
   45.7690   33.2710   41.0880 C   0  0  0  0  0  0  0  0  0  0  0  0
   46.0630   33.2910   39.7290 C   0  0  0  0  0  0  0  0  0  0  0  0
   47.8890   33.6920   37.7090 S   0  0  0  0  0  0  0  0  0  0  0  0
   48.6430   34.9770   37.4980 O   0  0  0  0  0  0  0  0  0  0  0  0
   46.6990   33.6400   36.8220 O   0  0  0  0  0  0  0  0  0  0  0  0
   47.3619   31.7267   44.2656 H   0  0  0  0  0  0  0  0  0  0  0  0
   45.0513   34.6728   46.1928 H   0  0  0  0  0  0  0  0  0  0  0  0
   44.4804   33.2371   47.4924 H   0  0  0  0  0  0  0  0  0  0  0  0
   48.2610   31.2904   46.6065 H   0  0  0  0  0  0  0  0  0  0  0  0
   46.3612   30.7846   50.3874 H   0  0  0  0  0  0  0  0  0  0  0  0
   49.3351   34.1786   40.0405 H   0  0  0  0  0  0  0  0  0  0  0  0
   48.7480   34.1242   42.4639 H   0  0  0  0  0  0  0  0  0  0  0  0
   44.7464   33.0118   41.3997 H   0  0  0  0  0  0  0  0  0  0  0  0
   45.2998   33.0542   38.9730 H   0  0  0  0  0  0  0  0  0  0  0  0
   48.7079   32.6332   37.4171 H   0  0  0  0  0  0  0  0  0  0  0  0
  1  7  1  0
  2  1  1  0
  3  4  1  0
  3  2  2  0
  4  5  2  0
  5  1  1  0
  6 11  2  0
  7  8  2  0
  7  6  1  0
  8  9  1  0
  9 10  2  0
 11 10  1  0
 12 17  2  0
 12 13  1  0
 13 14  2  0
 14 15  1  0
 15  3  1  0
 16 15  2  0
 17 16  1  0
 18 12  1  0
 19 18  2  0
 20 18  2  0
  2 21  1  0
  5 22  1  0
  6 23  1  0
  8 24  1  0
 10 25  1  0
 13 26  1  0
 14 27  1  0
 16 28  1  0
 17 29  1  0
 18 30  1  0
M  ISO  8  21  14  22  14  23  14  24  14  25  14  26  14  27  14  28  14
M  ISO  2  29  14  30  11
M  END
>  <minimizedAffinity>  (1) 
-4.81203413

>  <minimizedRMSD>  (1) 
5.54880476

$$$$
