
     RDKit          3D

 28 31  0  0  0  0  0  0  0  0999 V2000
   44.3190   34.1920   42.5790 N   0  0  0  0  0  0  0  0  0  0  0  0
   43.4570   33.7740   41.6520 C   0  0  0  0  0  0  0  0  0  0  0  0
   43.0000   34.8900   40.9450 C   0  0  0  0  0  0  0  0  0  0  0  0
   43.5910   35.9600   41.4550 N   0  0  0  0  0  0  0  0  0  0  0  0
   44.4060   35.5460   42.4610 C   0  0  0  0  0  0  0  0  0  0  0  0
   42.0640   34.8510   39.8740 N   0  0  0  0  0  0  0  0  0  0  0  0
   42.2420   35.2900   38.6220 C   0  0  0  0  0  0  0  0  0  0  0  0
   41.1110   35.0670   37.9110 N   0  0  0  0  0  0  0  0  0  0  0  0
   40.1930   34.4810   38.6980 C   0  0  0  0  0  0  0  0  0  0  0  0
   38.8970   34.0130   38.5920 C   0  0  0  0  0  0  0  0  0  0  0  0
   38.2220   33.4510   39.6100 N   0  0  0  0  0  0  0  0  0  0  0  0
   38.8800   33.3490   40.8020 C   0  0  0  0  0  0  0  0  0  0  0  0
   40.1420   33.7860   40.9630 N   0  0  0  0  0  0  0  0  0  0  0  0
   40.8300   34.3580   39.9320 C   0  0  0  0  0  0  0  0  0  0  0  0
   45.4450   34.1470   44.6920 C   0  0  0  0  0  0  0  0  0  0  0  0
   45.0410   33.4400   43.5310 C   0  0  0  0  0  0  0  0  0  0  0  0
   45.3670   32.0890   43.3980 C   0  0  0  0  0  0  0  0  0  0  0  0
   46.0690   31.5040   44.4070 N   0  0  0  0  0  0  0  0  0  0  0  0
   46.4440   32.2010   45.5080 C   0  0  0  0  0  0  0  0  0  0  0  0
   46.1350   33.5070   45.6480 N   0  0  0  0  0  0  0  0  0  0  0  0
   43.1570   32.7308   41.4741 H   0  0  0  0  0  0  0  0  0  0  0  0
   45.0358   36.2006   43.0813 H   0  0  0  0  0  0  0  0  0  0  0  0
   43.1591   35.7567   38.2332 H   0  0  0  0  0  0  0  0  0  0  0  0
   38.3893   34.1054   37.6205 H   0  0  0  0  0  0  0  0  0  0  0  0
   38.3611   32.8945   41.6588 H   0  0  0  0  0  0  0  0  0  0  0  0
   45.1946   35.2118   44.8078 H   0  0  0  0  0  0  0  0  0  0  0  0
   45.0667   31.5166   42.5079 H   0  0  0  0  0  0  0  0  0  0  0  0
   47.0107   31.6923   46.3018 H   0  0  0  0  0  0  0  0  0  0  0  0
  1 16  1  0
  2  1  1  0
  3  4  1  0
  3  2  2  0
  4  5  2  0
  5  1  1  0
  6 14  1  0
  6  3  1  0
  7  6  1  0
  8  7  2  0
  8  9  1  0
  9 14  2  0
 10  9  1  0
 10 11  2  0
 11 12  1  0
 12 13  2  0
 14 13  1  0
 15 20  2  0
 16 15  1  0
 17 16  2  0
 17 18  1  0
 18 19  2  0
 19 20  1  0
  2 21  1  0
  5 22  1  0
  7 23  1  0
 10 24  1  0
 12 25  1  0
 15 26  1  0
 17 27  1  0
 19 28  1  0
M  ISO  8  21  14  22  14  23  14  24  14  25  14  26  14  27  14  28  14
M  END
>  <minimizedAffinity>  (1) 
-5.13025045

>  <minimizedRMSD>  (1) 
3.41453362

$$$$
