
     RDKit          3D

 30 32  0  0  0  0  0  0  0  0999 V2000
   46.0140   32.9640   45.7790 N   0  0  0  0  0  0  0  0  0  0  0  0
   46.8890   32.8910   44.7880 C   0  0  0  0  0  0  0  0  0  0  0  0
   46.7010   33.9940   43.9570 C   0  0  0  0  0  0  0  0  0  0  0  0
   45.7170   34.7120   44.4620 N   0  0  0  0  0  0  0  0  0  0  0  0
   45.2900   34.0880   45.5780 C   0  0  0  0  0  0  0  0  0  0  0  0
   45.7240   32.6870   48.1220 C   0  0  0  0  0  0  0  0  0  0  0  0
   45.8330   32.0720   46.8550 C   0  0  0  0  0  0  0  0  0  0  0  0
   45.7530   30.6900   46.7920 C   0  0  0  0  0  0  0  0  0  0  0  0
   45.5760   30.0000   47.9440 N   0  0  0  0  0  0  0  0  0  0  0  0
   45.4760   30.6220   49.1440 C   0  0  0  0  0  0  0  0  0  0  0  0
   45.5490   31.9610   49.2280 N   0  0  0  0  0  0  0  0  0  0  0  0
   47.4640   34.2530   42.7840 N   0  0  0  0  0  0  0  0  0  0  0  0
   46.8140   34.5300   41.5160 C   0  0  0  0  0  0  0  0  0  0  0  0
   47.9430   34.6200   40.4830 C   0  0  0  0  0  0  0  0  0  0  0  0
   48.8040   35.6430   40.8530 O   0  0  0  0  0  0  0  0  0  0  0  0
   49.4240   35.4310   42.0640 C   0  0  0  0  0  0  0  0  0  0  0  0
   48.8940   34.2470   42.8350 C   0  0  0  0  0  0  0  0  0  0  0  0
   47.6360   32.0963   44.6451 H   0  0  0  0  0  0  0  0  0  0  0  0
   44.4751   34.4403   46.2275 H   0  0  0  0  0  0  0  0  0  0  0  0
   45.7844   33.7827   48.1983 H   0  0  0  0  0  0  0  0  0  0  0  0
   45.8315   30.1653   45.8284 H   0  0  0  0  0  0  0  0  0  0  0  0
   45.3338   30.0254   50.0572 H   0  0  0  0  0  0  0  0  0  0  0  0
   46.1194   33.7178   41.2554 H   0  0  0  0  0  0  0  0  0  0  0  0
   46.2246   35.4579   41.5557 H   0  0  0  0  0  0  0  0  0  0  0  0
   47.5201   34.8330   39.4901 H   0  0  0  0  0  0  0  0  0  0  0  0
   48.4899   33.6665   40.4415 H   0  0  0  0  0  0  0  0  0  0  0  0
   50.4961   35.2691   41.8783 H   0  0  0  0  0  0  0  0  0  0  0  0
   49.2259   36.3212   42.6790 H   0  0  0  0  0  0  0  0  0  0  0  0
   49.2249   34.3120   43.8820 H   0  0  0  0  0  0  0  0  0  0  0  0
   49.2753   33.3161   42.3900 H   0  0  0  0  0  0  0  0  0  0  0  0
  1  7  1  0
  2  1  1  0
  3  4  1  0
  3  2  2  0
  4  5  2  0
  5  1  1  0
  6 11  2  0
  7  6  1  0
  8  7  2  0
  8  9  1  0
  9 10  2  0
 10 11  1  0
 12 17  1  0
 12  3  1  0
 13 12  1  0
 14 15  1  0
 14 13  1  0
 15 16  1  0
 16 17  1  0
  2 18  1  0
  5 19  1  0
  6 20  1  0
  8 21  1  0
 10 22  1  0
 13 23  1  0
 13 24  1  0
 14 25  1  0
 14 26  1  0
 16 27  1  0
 16 28  1  0
 17 29  1  0
 17 30  1  0
M  ISO  8  18  14  19  14  20  14  21  14  22  14  23  13  24  13  25  13
M  ISO  5  26  13  27  13  28  13  29  13  30  13
M  END
>  <minimizedAffinity>  (1) 
-5.03490448

>  <minimizedRMSD>  (1) 
6.06412649

$$$$
