
     RDKit          3D

 27 29  0  0  0  0  0  0  0  0999 V2000
   46.3080   33.1640   45.6650 N   0  0  0  0  0  0  0  0  0  0  0  0
   47.0770   33.1140   44.5790 C   0  0  0  0  0  0  0  0  0  0  0  0
   46.6250   34.0630   43.6760 C   0  0  0  0  0  0  0  0  0  0  0  0
   45.5910   34.6830   44.2130 N   0  0  0  0  0  0  0  0  0  0  0  0
   45.3830   34.1420   45.4360 C   0  0  0  0  0  0  0  0  0  0  0  0
   45.3200   32.6250   47.7670 C   0  0  0  0  0  0  0  0  0  0  0  0
   46.3630   32.4120   46.8420 C   0  0  0  0  0  0  0  0  0  0  0  0
   47.3400   31.4880   47.1770 C   0  0  0  0  0  0  0  0  0  0  0  0
   47.2520   30.8320   48.3710 N   0  0  0  0  0  0  0  0  0  0  0  0
   46.2290   31.0690   49.2300 C   0  0  0  0  0  0  0  0  0  0  0  0
   45.2760   31.9600   48.9210 N   0  0  0  0  0  0  0  0  0  0  0  0
   47.1920   34.3360   42.3560 C   0  0  0  0  0  0  0  0  0  0  0  0
   46.6080   33.7020   41.2680 C   0  0  0  0  0  0  0  0  0  0  0  0
   47.1250   33.9390   39.9990 C   0  0  0  0  0  0  0  0  0  0  0  0
   48.2100   34.8030   39.8370 C   0  0  0  0  0  0  0  0  0  0  0  0
   48.7900   35.4330   40.9150 C   0  0  0  0  0  0  0  0  0  0  0  0
   48.2640   35.1860   42.1770 C   0  0  0  0  0  0  0  0  0  0  0  0
   47.9277   32.4339   44.4247 H   0  0  0  0  0  0  0  0  0  0  0  0
   44.5910   34.4436   46.1373 H   0  0  0  0  0  0  0  0  0  0  0  0
   44.5292   33.3526   47.5319 H   0  0  0  0  0  0  0  0  0  0  0  0
   48.1751   31.2859   46.4901 H   0  0  0  0  0  0  0  0  0  0  0  0
   46.1811   30.5268   50.1859 H   0  0  0  0  0  0  0  0  0  0  0  0
   45.7523   33.0248   41.4070 H   0  0  0  0  0  0  0  0  0  0  0  0
   46.6792   33.4458   39.1227 H   0  0  0  0  0  0  0  0  0  0  0  0
   48.6092   34.9838   38.8281 H   0  0  0  0  0  0  0  0  0  0  0  0
   49.6449   36.1121   40.7811 H   0  0  0  0  0  0  0  0  0  0  0  0
   48.7119   35.6788   43.0525 H   0  0  0  0  0  0  0  0  0  0  0  0
  1  7  1  0
  2  1  1  0
  3  4  1  0
  3  2  2  0
  4  5  2  0
  5  1  1  0
  6 11  2  0
  7  8  2  0
  7  6  1  0
  8  9  1  0
  9 10  2  0
 11 10  1  0
 12  3  1  0
 13 12  2  0
 14 13  1  0
 15 14  2  0
 15 16  1  0
 16 17  2  0
 17 12  1  0
  2 18  1  0
  5 19  1  0
  6 20  1  0
  8 21  1  0
 10 22  1  0
 13 23  1  0
 14 24  1  0
 15 25  1  0
 16 26  1  0
 17 27  1  0
M  ISO  8  18  14  19  14  20  14  21  14  22  14  23  14  24  14  25  14
M  ISO  2  26  14  27  14
M  END
>  <minimizedAffinity>  (1) 
-5.48502827

>  <minimizedRMSD>  (1) 
5.73816442

$$$$
