
     RDKit          3D

 25 27  0  0  0  0  0  0  0  0999 V2000
   46.2730   33.1760   45.6320 N   0  0  0  0  0  0  0  0  0  0  0  0
   47.0160   33.1260   44.5280 C   0  0  0  0  0  0  0  0  0  0  0  0
   46.5440   34.1050   43.6400 C   0  0  0  0  0  0  0  0  0  0  0  0
   45.5300   34.7240   44.2200 N   0  0  0  0  0  0  0  0  0  0  0  0
   45.3560   34.1660   45.4340 C   0  0  0  0  0  0  0  0  0  0  0  0
   45.3570   32.6740   47.7740 C   0  0  0  0  0  0  0  0  0  0  0  0
   46.3540   32.4060   46.7950 C   0  0  0  0  0  0  0  0  0  0  0  0
   47.3020   31.4330   47.0620 C   0  0  0  0  0  0  0  0  0  0  0  0
   47.2310   30.7770   48.2540 N   0  0  0  0  0  0  0  0  0  0  0  0
   46.2820   31.0400   49.1680 C   0  0  0  0  0  0  0  0  0  0  0  0
   45.3590   31.9810   48.9230 N   0  0  0  0  0  0  0  0  0  0  0  0
   47.1220   34.3400   42.3200 C   0  0  0  0  0  0  0  0  0  0  0  0
   48.1960   35.1870   42.1850 C   0  0  0  0  0  0  0  0  0  0  0  0
   48.7010   35.3680   40.8930 C   0  0  0  0  0  0  0  0  0  0  0  0
   48.1510   34.7320   39.8170 N   0  0  0  0  0  0  0  0  0  0  0  0
   47.1010   33.9130   39.9960 C   0  0  0  0  0  0  0  0  0  0  0  0
   46.6090   33.7330   41.2340 N   0  0  0  0  0  0  0  0  0  0  0  0
   47.8538   32.4373   44.3441 H   0  0  0  0  0  0  0  0  0  0  0  0
   44.5860   34.4655   46.1602 H   0  0  0  0  0  0  0  0  0  0  0  0
   44.5915   33.4423   47.5906 H   0  0  0  0  0  0  0  0  0  0  0  0
   48.0903   31.1962   46.3323 H   0  0  0  0  0  0  0  0  0  0  0  0
   46.2623   30.4836   50.1167 H   0  0  0  0  0  0  0  0  0  0  0  0
   48.6380   35.6988   43.0526 H   0  0  0  0  0  0  0  0  0  0  0  0
   49.5603   36.0376   40.7404 H   0  0  0  0  0  0  0  0  0  0  0  0
   46.6483   33.3948   39.1378 H   0  0  0  0  0  0  0  0  0  0  0  0
  1  7  1  0
  2  1  1  0
  3  4  1  0
  3  2  2  0
  4  5  2  0
  5  1  1  0
  6 11  2  0
  7  8  2  0
  7  6  1  0
  8  9  1  0
  9 10  2  0
 11 10  1  0
 12  3  1  0
 13 12  2  0
 14 13  1  0
 15 16  1  0
 15 14  2  0
 16 17  2  0
 17 12  1  0
  2 18  1  0
  5 19  1  0
  6 20  1  0
  8 21  1  0
 10 22  1  0
 13 23  1  0
 14 24  1  0
 16 25  1  0
M  ISO  8  18  14  19  14  20  14  21  14  22  14  23  14  24  14  25  14
M  END
>  <minimizedAffinity>  (1) 
-4.96341753

>  <minimizedRMSD>  (1) 
5.67601871

$$$$
