
     RDKit          3D

 24 26  0  0  0  0  0  0  0  0999 V2000
   46.9640   31.5840   47.8580 N   0  0  0  0  0  0  0  0  0  0  0  0
   46.9030   32.2850   46.7240 C   0  0  0  0  0  0  0  0  0  0  0  0
   45.7710   33.0850   46.7670 C   0  0  0  0  0  0  0  0  0  0  0  0
   45.1630   32.8630   47.9150 N   0  0  0  0  0  0  0  0  0  0  0  0
   45.8800   31.9420   48.6060 C   0  0  0  0  0  0  0  0  0  0  0  0
   48.6020   30.9560   49.4870 C   0  0  0  0  0  0  0  0  0  0  0  0
   47.9270   30.6440   48.2730 C   0  0  0  0  0  0  0  0  0  0  0  0
   48.2520   29.4750   47.6050 C   0  0  0  0  0  0  0  0  0  0  0  0
   49.2090   28.6750   48.1460 N   0  0  0  0  0  0  0  0  0  0  0  0
   49.8350   29.0000   49.3060 C   0  0  0  0  0  0  0  0  0  0  0  0
   49.5300   30.1360   49.9700 N   0  0  0  0  0  0  0  0  0  0  0  0
   45.3970   33.9860   45.6820 C   0  0  0  0  0  0  0  0  0  0  0  0
   45.7520   33.9120   44.3500 C   0  0  0  0  0  0  0  0  0  0  0  0
   45.1430   34.9900   43.7680 C   0  0  0  0  0  0  0  0  0  0  0  0
   44.4510   35.7000   44.6650 N   0  0  0  0  0  0  0  0  0  0  0  0
   44.6150   35.0790   45.8200 N   0  0  0  0  0  0  0  0  0  0  0  0
   47.6266   32.2365   45.8969 H   0  0  0  0  0  0  0  0  0  0  0  0
   45.6297   31.5493   49.6026 H   0  0  0  0  0  0  0  0  0  0  0  0
   48.3542   31.8809   50.0284 H   0  0  0  0  0  0  0  0  0  0  0  0
   47.7507   29.2019   46.6647 H   0  0  0  0  0  0  0  0  0  0  0  0
   50.6040   28.3265   49.7122 H   0  0  0  0  0  0  0  0  0  0  0  0
   46.3844   33.1543   43.8643 H   0  0  0  0  0  0  0  0  0  0  0  0
   45.2136   35.2405   42.6992 H   0  0  0  0  0  0  0  0  0  0  0  0
   43.9030   36.5547   44.4916 H   0  0  0  0  0  0  0  0  0  0  0  0
  1  7  1  0
  1  5  1  0
  2  3  2  0
  2  1  1  0
  3  4  1  0
  4  5  2  0
  6 11  2  0
  7  6  1  0
  8  9  1  0
  8  7  2  0
  9 10  2  0
 10 11  1  0
 12 16  2  0
 12  3  1  0
 13 12  1  0
 14 13  2  0
 14 15  1  0
 15 16  1  0
  2 17  1  0
  5 18  1  0
  6 19  1  0
  8 20  1  0
 10 21  1  0
 13 22  1  0
 14 23  1  0
 15 24  1  0
M  ISO  8  17  14  18  14  19  14  20  14  21  14  22  14  23  14  24   9
M  END
>  <minimizedAffinity>  (1) 
-4.79984617

>  <minimizedRMSD>  (1) 
8.15953159

$$$$
