
     RDKit          3D

 30 32  0  0  0  0  0  0  0  0999 V2000
   42.5360   34.5900   40.9080 N   0  0  0  0  0  0  0  0  0  0  0  0
   42.2200   33.8240   39.8640 C   0  0  0  0  0  0  0  0  0  0  0  0
   41.0490   34.3240   39.3120 C   0  0  0  0  0  0  0  0  0  0  0  0
   40.6640   35.3850   40.0220 N   0  0  0  0  0  0  0  0  0  0  0  0
   41.5750   35.5510   41.0030 C   0  0  0  0  0  0  0  0  0  0  0  0
   44.2330   35.7120   42.1640 C   0  0  0  0  0  0  0  0  0  0  0  0
   43.6240   34.4980   41.7900 C   0  0  0  0  0  0  0  0  0  0  0  0
   44.1380   33.3050   42.3140 C   0  0  0  0  0  0  0  0  0  0  0  0
   45.2030   33.3890   43.1600 N   0  0  0  0  0  0  0  0  0  0  0  0
   45.7580   34.5650   43.4950 C   0  0  0  0  0  0  0  0  0  0  0  0
   45.2700   35.7180   42.9970 N   0  0  0  0  0  0  0  0  0  0  0  0
   40.3680   33.7380   38.1220 C   0  0  0  0  0  0  0  0  0  0  0  0
   39.9890   32.2850   38.3220 C   0  0  0  0  0  0  0  0  0  0  0  0
   38.4880   32.3110   38.4630 C   0  0  0  0  0  0  0  0  0  0  0  0
   38.0980   33.3230   37.4070 C   0  0  0  0  0  0  0  0  0  0  0  0
   39.0850   34.4410   37.7680 C   0  0  0  0  0  0  0  0  0  0  0  0
   42.7859   32.9519   39.5044 H   0  0  0  0  0  0  0  0  0  0  0  0
   41.5462   36.3435   41.7653 H   0  0  0  0  0  0  0  0  0  0  0  0
   43.8482   36.6618   41.7643 H   0  0  0  0  0  0  0  0  0  0  0  0
   43.6965   32.3323   42.0513 H   0  0  0  0  0  0  0  0  0  0  0  0
   46.6175   34.5872   44.1811 H   0  0  0  0  0  0  0  0  0  0  0  0
   41.1128   33.8523   37.3206 H   0  0  0  0  0  0  0  0  0  0  0  0
   40.2890   31.6803   37.4534 H   0  0  0  0  0  0  0  0  0  0  0  0
   40.4867   31.8357   39.1940 H   0  0  0  0  0  0  0  0  0  0  0  0
   38.0485   31.3244   38.2546 H   0  0  0  0  0  0  0  0  0  0  0  0
   38.1389   32.5645   39.4749 H   0  0  0  0  0  0  0  0  0  0  0  0
   37.0520   33.6466   37.5125 H   0  0  0  0  0  0  0  0  0  0  0  0
   38.1485   32.9652   36.3680 H   0  0  0  0  0  0  0  0  0  0  0  0
   39.2374   35.1124   36.9101 H   0  0  0  0  0  0  0  0  0  0  0  0
   38.7156   35.0629   38.5967 H   0  0  0  0  0  0  0  0  0  0  0  0
  1  5  1  0
  1  7  1  0
  2  1  1  0
  3  2  2  0
  3  4  1  0
  4  5  2  0
  6 11  2  0
  7  6  1  0
  7  8  2  0
  8  9  1  0
  9 10  2  0
 11 10  1  0
 12 13  1  0
 12  3  1  0
 13 14  1  0
 15 16  1  0
 15 14  1  0
 16 12  1  0
  2 17  1  0
  5 18  1  0
  6 19  1  0
  8 20  1  0
 10 21  1  0
 12 22  1  0
 13 23  1  0
 13 24  1  0
 14 25  1  0
 14 26  1  0
 15 27  1  0
 15 28  1  0
 16 29  1  0
 16 30  1  0
M  ISO  8  17  14  18  14  19  14  20  14  21  14  22  13  23  13  24  13
M  ISO  6  25  13  26  13  27  13  28  13  29  13  30  13
M  END
>  <minimizedAffinity>  (1) 
-4.80649519

>  <minimizedRMSD>  (1) 
2.33119583

$$$$
