
     RDKit          3D

 29 31  0  0  0  0  0  0  0  0999 V2000
   46.8570   31.9190   47.5110 N   0  0  0  0  0  0  0  0  0  0  0  0
   46.7890   32.5620   46.3460 C   0  0  0  0  0  0  0  0  0  0  0  0
   45.6520   33.3770   46.3460 C   0  0  0  0  0  0  0  0  0  0  0  0
   45.0620   33.2040   47.5130 N   0  0  0  0  0  0  0  0  0  0  0  0
   45.7880   32.3180   48.2300 C   0  0  0  0  0  0  0  0  0  0  0  0
   48.2710   31.1910   49.2880 C   0  0  0  0  0  0  0  0  0  0  0  0
   47.8160   31.0060   47.9530 C   0  0  0  0  0  0  0  0  0  0  0  0
   48.3550   29.9480   47.2090 C   0  0  0  0  0  0  0  0  0  0  0  0
   49.2880   29.1510   47.8060 N   0  0  0  0  0  0  0  0  0  0  0  0
   49.6980   29.3600   49.0870 C   0  0  0  0  0  0  0  0  0  0  0  0
   49.1920   30.3750   49.8240 N   0  0  0  0  0  0  0  0  0  0  0  0
   45.2560   34.2130   45.2640 N   0  0  0  0  0  0  0  0  0  0  0  0
   45.5070   33.8870   43.8540 C   0  0  0  0  0  0  0  0  0  0  0  0
   44.8050   34.9680   43.0670 C   0  0  0  0  0  0  0  0  0  0  0  0
   44.8350   36.1450   44.0350 C   0  0  0  0  0  0  0  0  0  0  0  0
   44.5640   35.4860   45.3450 C   0  0  0  0  0  0  0  0  0  0  0  0
   47.5089   32.4675   45.5197 H   0  0  0  0  0  0  0  0  0  0  0  0
   45.5440   31.9743   49.2461 H   0  0  0  0  0  0  0  0  0  0  0  0
   47.8617   32.0155   49.8903 H   0  0  0  0  0  0  0  0  0  0  0  0
   48.0350   29.7650   46.1726 H   0  0  0  0  0  0  0  0  0  0  0  0
   50.4525   28.6931   49.5297 H   0  0  0  0  0  0  0  0  0  0  0  0
   46.5864   33.8950   43.6424 H   0  0  0  0  0  0  0  0  0  0  0  0
   45.1401   32.8836   43.5923 H   0  0  0  0  0  0  0  0  0  0  0  0
   45.3475   35.2014   42.1390 H   0  0  0  0  0  0  0  0  0  0  0  0
   43.7914   34.6896   42.7430 H   0  0  0  0  0  0  0  0  0  0  0  0
   45.8185   36.6376   44.0328 H   0  0  0  0  0  0  0  0  0  0  0  0
   44.1167   36.9396   43.7847 H   0  0  0  0  0  0  0  0  0  0  0  0
   43.4840   35.3327   45.4866 H   0  0  0  0  0  0  0  0  0  0  0  0
   44.9056   36.0933   46.1962 H   0  0  0  0  0  0  0  0  0  0  0  0
  1  7  1  0
  1  5  1  0
  2  3  2  0
  2  1  1  0
  3  4  1  0
  4  5  2  0
  6 11  2  0
  7  6  1  0
  8  9  1  0
  8  7  2  0
  9 10  2  0
 10 11  1  0
 12 16  1  0
 12  3  1  0
 13 12  1  0
 14 13  1  0
 14 15  1  0
 15 16  1  0
  2 17  1  0
  5 18  1  0
  6 19  1  0
  8 20  1  0
 10 21  1  0
 13 22  1  0
 13 23  1  0
 14 24  1  0
 14 25  1  0
 15 26  1  0
 15 27  1  0
 16 28  1  0
 16 29  1  0
M  ISO  8  17  14  18  14  19  14  20  14  21  14  22  13  23  13  24  13
M  ISO  5  25  13  26  13  27  13  28  13  29  13
M  END
>  <minimizedAffinity>  (1) 
-4.6819706

>  <minimizedRMSD>  (1) 
7.7004528

$$$$
