
     RDKit          3D

 32 34  0  0  0  0  0  0  0  0999 V2000
   45.0000   34.4030   43.3540 N   0  0  0  0  0  0  0  0  0  0  0  0
   44.0060   34.0970   42.5470 C   0  0  0  0  0  0  0  0  0  0  0  0
   43.5850   35.2280   41.8580 C   0  0  0  0  0  0  0  0  0  0  0  0
   44.3600   36.2130   42.2830 N   0  0  0  0  0  0  0  0  0  0  0  0
   45.2240   35.7270   43.1920 C   0  0  0  0  0  0  0  0  0  0  0  0
   45.5260   33.8470   45.6100 C   0  0  0  0  0  0  0  0  0  0  0  0
   45.7110   33.5620   44.2240 C   0  0  0  0  0  0  0  0  0  0  0  0
   46.5520   32.5120   43.8750 C   0  0  0  0  0  0  0  0  0  0  0  0
   47.1560   31.8100   44.8760 N   0  0  0  0  0  0  0  0  0  0  0  0
   46.9580   32.1060   46.1720 C   0  0  0  0  0  0  0  0  0  0  0  0
   46.1470   33.1190   46.5380 N   0  0  0  0  0  0  0  0  0  0  0  0
   42.5210   35.2550   40.8960 N   0  0  0  0  0  0  0  0  0  0  0  0
   42.7450   34.7680   39.5680 C   0  0  0  0  0  0  0  0  0  0  0  0
   41.5130   34.1870   38.9320 C   0  0  0  0  0  0  0  0  0  0  0  0
   40.3990   35.1950   39.0260 C   0  0  0  0  0  0  0  0  0  0  0  0
   40.1010   35.5010   40.4610 C   0  0  0  0  0  0  0  0  0  0  0  0
   41.2510   35.7870   41.3370 C   0  0  0  0  0  0  0  0  0  0  0  0
   43.5720   33.0925   42.4345 H   0  0  0  0  0  0  0  0  0  0  0  0
   45.9908   36.3131   43.7197 H   0  0  0  0  0  0  0  0  0  0  0  0
   44.8665   34.6730   45.9146 H   0  0  0  0  0  0  0  0  0  0  0  0
   46.7257   32.2542   42.8198 H   0  0  0  0  0  0  0  0  0  0  0  0
   47.4657   31.5123   46.9464 H   0  0  0  0  0  0  0  0  0  0  0  0
   43.0989   35.6027   38.9451 H   0  0  0  0  0  0  0  0  0  0  0  0
   43.4875   33.9594   39.6384 H   0  0  0  0  0  0  0  0  0  0  0  0
   41.2239   33.2658   39.4591 H   0  0  0  0  0  0  0  0  0  0  0  0
   41.7135   33.9479   37.8772 H   0  0  0  0  0  0  0  0  0  0  0  0
   40.7007   36.1195   38.5120 H   0  0  0  0  0  0  0  0  0  0  0  0
   39.4973   34.7800   38.5519 H   0  0  0  0  0  0  0  0  0  0  0  0
   39.4407   36.3805   40.4825 H   0  0  0  0  0  0  0  0  0  0  0  0
   39.6578   34.5783   40.8637 H   0  0  0  0  0  0  0  0  0  0  0  0
   41.0336   35.3648   42.3292 H   0  0  0  0  0  0  0  0  0  0  0  0
   41.3662   36.8809   41.3340 H   0  0  0  0  0  0  0  0  0  0  0  0
  1  7  1  0
  2  1  1  0
  3  4  1  0
  3  2  2  0
  4  5  2  0
  5  1  1  0
  6 11  2  0
  7  6  1  0
  8  7  2  0
  8  9  1  0
  9 10  2  0
 10 11  1  0
 12 17  1  0
 12  3  1  0
 13 12  1  0
 14 15  1  0
 14 13  1  0
 15 16  1  0
 16 17  1  0
  2 18  1  0
  5 19  1  0
  6 20  1  0
  8 21  1  0
 10 22  1  0
 13 23  1  0
 13 24  1  0
 14 25  1  0
 14 26  1  0
 15 27  1  0
 15 28  1  0
 16 29  1  0
 16 30  1  0
 17 31  1  0
 17 32  1  0
M  ISO  8  18  14  19  14  20  14  21  14  22  14  23  13  24  13  25  13
M  ISO  7  26  13  27  13  28  13  29  13  30  13  31  13  32  13
M  END
>  <minimizedAffinity>  (1) 
-4.70531702

>  <minimizedRMSD>  (1) 
3.60101652

$$$$
