
     RDKit          3D

 20 21  0  0  0  0  0  0  0  0999 V2000
   43.9650   34.4560   41.7250 N   0  0  0  0  0  0  0  0  0  0  0  0
   44.1940   33.6560   40.6820 C   0  0  0  0  0  0  0  0  0  0  0  0
   43.4830   34.1650   39.6060 C   0  0  0  0  0  0  0  0  0  0  0  0
   42.8400   35.2500   39.9900 N   0  0  0  0  0  0  0  0  0  0  0  0
   43.1280   35.4450   41.3010 C   0  0  0  0  0  0  0  0  0  0  0  0
   44.2560   35.4840   43.8530 C   0  0  0  0  0  0  0  0  0  0  0  0
   44.4680   34.3510   43.0420 C   0  0  0  0  0  0  0  0  0  0  0  0
   45.1340   33.2500   43.5840 C   0  0  0  0  0  0  0  0  0  0  0  0
   45.5450   33.3360   44.8740 N   0  0  0  0  0  0  0  0  0  0  0  0
   45.3250   34.4380   45.6270 C   0  0  0  0  0  0  0  0  0  0  0  0
   44.6780   35.5250   45.1220 N   0  0  0  0  0  0  0  0  0  0  0  0
   43.5170   33.5190   38.2980 C   0  0  0  0  0  0  0  0  0  0  0  0
   42.7520   32.5520   38.0490 O   0  0  0  0  0  0  0  0  0  0  0  0
   44.3600   33.9070   37.2710 O   0  0  0  0  0  0  0  0  0  0  0  0
   44.8296   32.7582   40.6768 H   0  0  0  0  0  0  0  0  0  0  0  0
   42.7473   36.2690   41.9224 H   0  0  0  0  0  0  0  0  0  0  0  0
   43.7314   36.3548   43.4329 H   0  0  0  0  0  0  0  0  0  0  0  0
   45.3188   32.3452   42.9864 H   0  0  0  0  0  0  0  0  0  0  0  0
   45.6761   34.4567   46.6693 H   0  0  0  0  0  0  0  0  0  0  0  0
   44.3370   33.4290   36.4043 H   0  0  0  0  0  0  0  0  0  0  0  0
  1  7  1  0
  2  1  1  0
  3  4  1  0
  3  2  2  0
  4  5  2  0
  5  1  1  0
  6 11  2  0
  7  8  2  0
  7  6  1  0
  8  9  1  0
  9 10  2  0
 11 10  1  0
 12  3  1  0
 13 12  2  0
 14 12  1  0
  2 15  1  0
  5 16  1  0
  6 17  1  0
  8 18  1  0
 10 19  1  0
 14 20  1  0
M  ISO  6  15  14  16  14  17  14  18  14  19  14  20   3
M  END
>  <minimizedAffinity>  (1) 
-3.79998398

>  <minimizedRMSD>  (1) 
0.390223026

$$$$
