
     RDKit          3D

 29 30  0  0  0  0  0  0  0  0999 V2000
   44.1670   34.2150   42.4540 N   0  0  0  0  0  0  0  0  0  0  0  0
   43.2190   33.7710   41.6310 C   0  0  0  0  0  0  0  0  0  0  0  0
   42.7820   34.8210   40.8380 C   0  0  0  0  0  0  0  0  0  0  0  0
   43.4680   35.8970   41.1870 N   0  0  0  0  0  0  0  0  0  0  0  0
   44.3270   35.5430   42.1820 C   0  0  0  0  0  0  0  0  0  0  0  0
   45.2670   34.2950   44.5760 C   0  0  0  0  0  0  0  0  0  0  0  0
   44.9020   33.5320   43.4300 C   0  0  0  0  0  0  0  0  0  0  0  0
   45.2950   32.2020   43.3720 C   0  0  0  0  0  0  0  0  0  0  0  0
   46.0080   31.7010   44.4170 N   0  0  0  0  0  0  0  0  0  0  0  0
   46.3410   32.4400   45.4870 C   0  0  0  0  0  0  0  0  0  0  0  0
   45.9700   33.7400   45.5680 N   0  0  0  0  0  0  0  0  0  0  0  0
   41.7340   34.7630   39.7840 C   0  0  0  0  0  0  0  0  0  0  0  0
   40.5620   35.5950   40.2960 C   0  0  0  0  0  0  0  0  0  0  0  0
   42.1590   35.3620   38.4790 C   0  0  0  0  0  0  0  0  0  0  0  0
   41.2120   33.3520   39.6180 C   0  0  0  0  0  0  0  0  0  0  0  0
   42.8433   32.7381   41.5873 H   0  0  0  0  0  0  0  0  0  0  0  0
   45.0352   36.2177   42.6852 H   0  0  0  0  0  0  0  0  0  0  0  0
   44.9674   35.3512   44.6453 H   0  0  0  0  0  0  0  0  0  0  0  0
   45.0379   31.5722   42.5076 H   0  0  0  0  0  0  0  0  0  0  0  0
   46.9200   31.9860   46.3047 H   0  0  0  0  0  0  0  0  0  0  0  0
   40.5641   35.5935   41.3960 H   0  0  0  0  0  0  0  0  0  0  0  0
   40.6584   36.6280   39.9306 H   0  0  0  0  0  0  0  0  0  0  0  0
   39.6186   35.1633   39.9306 H   0  0  0  0  0  0  0  0  0  0  0  0
   42.7860   36.2458   38.6681 H   0  0  0  0  0  0  0  0  0  0  0  0
   42.7341   34.6204   37.9051 H   0  0  0  0  0  0  0  0  0  0  0  0
   41.2691   35.6598   37.9051 H   0  0  0  0  0  0  0  0  0  0  0  0
   41.0461   32.9035   40.6086 H   0  0  0  0  0  0  0  0  0  0  0  0
   40.2629   33.3751   39.0624 H   0  0  0  0  0  0  0  0  0  0  0  0
   41.9476   32.7519   39.0624 H   0  0  0  0  0  0  0  0  0  0  0  0
  1  7  1  0
  2  1  1  0
  3  4  1  0
  3  2  2  0
  4  5  2  0
  5  1  1  0
  6 11  2  0
  7  6  1  0
  8  7  2  0
  8  9  1  0
  9 10  2  0
 10 11  1  0
 12 13  1  0
 12  3  1  0
 14 12  1  0
 15 12  1  0
  2 16  1  0
  5 17  1  0
  6 18  1  0
  8 19  1  0
 10 20  1  0
 13 21  1  0
 13 22  1  0
 13 23  1  0
 14 24  1  0
 14 25  1  0
 14 26  1  0
 15 27  1  0
 15 28  1  0
 15 29  1  0
M  ISO  8  16  14  17  14  18  14  19  14  20  14  21   8  22   8  23   8
M  ISO  6  24   8  25   8  26   8  27   8  28   8  29   8
M  END
>  <minimizedAffinity>  (1) 
-4.00218248

>  <minimizedRMSD>  (1) 
2.43525791

$$$$
