
     RDKit          3D

 18 19  0  0  0  0  0  0  0  0999 V2000
   44.2320   35.6010   43.4240 C   0  0  0  0  0  0  0  0  0  0  0  0
   44.5300   34.3270   42.8470 C   0  0  0  0  0  0  0  0  0  0  0  0
   45.1220   33.3210   43.6220 C   0  0  0  0  0  0  0  0  0  0  0  0
   45.3830   33.6350   44.9220 N   0  0  0  0  0  0  0  0  0  0  0  0
   45.0920   34.8420   45.4370 C   0  0  0  0  0  0  0  0  0  0  0  0
   44.5250   35.8110   44.7020 N   0  0  0  0  0  0  0  0  0  0  0  0
   44.1860   34.1900   41.4820 N   0  0  0  0  0  0  0  0  0  0  0  0
   44.6740   33.3610   40.5690 C   0  0  0  0  0  0  0  0  0  0  0  0
   44.0220   33.5990   39.3660 C   0  0  0  0  0  0  0  0  0  0  0  0
   43.1380   34.5810   39.5700 N   0  0  0  0  0  0  0  0  0  0  0  0
   43.2330   34.9510   40.8700 C   0  0  0  0  0  0  0  0  0  0  0  0
   44.3390   32.7170   37.8230 S   0  0  0  0  0  0  0  0  0  0  0  0
   43.7677   36.3939   42.8192 H   0  0  0  0  0  0  0  0  0  0  0  0
   45.3628   32.3324   43.2041 H   0  0  0  0  0  0  0  0  0  0  0  0
   45.3258   35.0415   46.4932 H   0  0  0  0  0  0  0  0  0  0  0  0
   45.4618   32.6117   40.7362 H   0  0  0  0  0  0  0  0  0  0  0  0
   42.6373   35.7387   41.3544 H   0  0  0  0  0  0  0  0  0  0  0  0
   44.7926   31.4550   38.1033 H   0  0  0  0  0  0  0  0  0  0  0  0
  1  6  2  0
  2  1  1  0
  2  3  2  0
  3  4  1  0
  4  5  2  0
  6  5  1  0
  7  2  1  0
  8  7  1  0
  9 10  1  0
  9  8  2  0
 10 11  2  0
 11  7  1  0
 12  9  1  0
  1 13  1  0
  3 14  1  0
  5 15  1  0
  8 16  1  0
 11 17  1  0
 12 18  1  0
M  ISO  6  13  14  14  14  15  14  16  14  17  14  18  11
M  END
>  <minimizedAffinity>  (1) 
-3.17904687

>  <minimizedRMSD>  (1) 
0.549652636

$$$$
