
     RDKit          3D

 20 21  0  0  0  0  0  0  0  0999 V2000
   44.2130   35.5970   43.5910 C   0  0  0  0  0  0  0  0  0  0  0  0
   44.4390   34.3850   42.8800 C   0  0  0  0  0  0  0  0  0  0  0  0
   45.0760   33.3200   43.5240 C   0  0  0  0  0  0  0  0  0  0  0  0
   45.4520   33.5040   44.8210 N   0  0  0  0  0  0  0  0  0  0  0  0
   45.2220   34.6640   45.4620 C   0  0  0  0  0  0  0  0  0  0  0  0
   44.6110   35.6960   44.8550 N   0  0  0  0  0  0  0  0  0  0  0  0
   43.9840   34.3720   41.5510 N   0  0  0  0  0  0  0  0  0  0  0  0
   44.2270   33.4820   40.5880 C   0  0  0  0  0  0  0  0  0  0  0  0
   43.5630   33.8880   39.4380 C   0  0  0  0  0  0  0  0  0  0  0  0
   42.9220   35.0280   39.7190 N   0  0  0  0  0  0  0  0  0  0  0  0
   43.1810   35.3250   41.0160 C   0  0  0  0  0  0  0  0  0  0  0  0
   43.6380   33.0930   38.1710 C   0  0  0  0  0  0  0  0  0  0  0  0
   43.7133   36.4443   43.0986 H   0  0  0  0  0  0  0  0  0  0  0  0
   45.2664   32.3697   43.0037 H   0  0  0  0  0  0  0  0  0  0  0  0
   45.5419   34.7707   46.5090 H   0  0  0  0  0  0  0  0  0  0  0  0
   44.8480   32.5795   40.6877 H   0  0  0  0  0  0  0  0  0  0  0  0
   42.7980   36.2053   41.5530 H   0  0  0  0  0  0  0  0  0  0  0  0
   43.7388   32.0249   38.4138 H   0  0  0  0  0  0  0  0  0  0  0  0
   42.7210   33.2508   37.5843 H   0  0  0  0  0  0  0  0  0  0  0  0
   44.5093   33.4195   37.5843 H   0  0  0  0  0  0  0  0  0  0  0  0
  1  6  2  0
  2  3  2  0
  2  1  1  0
  3  4  1  0
  4  5  2  0
  6  5  1  0
  7  2  1  0
  8  7  1  0
  9 10  1  0
  9  8  2  0
 10 11  2  0
 11  7  1  0
 12  9  1  0
  1 13  1  0
  3 14  1  0
  5 15  1  0
  8 16  1  0
 11 17  1  0
 12 18  1  0
 12 19  1  0
 12 20  1  0
M  ISO  8  13  14  14  14  15  14  16  14  17  14  18   8  19   8  20   8
M  END
>  <minimizedAffinity>  (1) 
-3.27005839

>  <minimizedRMSD>  (1) 
0.225653768

$$$$
