
     RDKit          3D

 19 20  0  0  0  0  0  0  0  0999 V2000
   43.8060   34.4230   41.4080 N   0  0  0  0  0  0  0  0  0  0  0  0
   43.9650   33.6340   40.3630 C   0  0  0  0  0  0  0  0  0  0  0  0
   43.2200   34.1010   39.2890 C   0  0  0  0  0  0  0  0  0  0  0  0
   42.5920   35.2060   39.6980 N   0  0  0  0  0  0  0  0  0  0  0  0
   42.9500   35.4020   40.9930 C   0  0  0  0  0  0  0  0  0  0  0  0
   44.2590   35.5420   43.4660 C   0  0  0  0  0  0  0  0  0  0  0  0
   44.3520   34.3470   42.6890 C   0  0  0  0  0  0  0  0  0  0  0  0
   44.9640   33.2190   43.2440 C   0  0  0  0  0  0  0  0  0  0  0  0
   45.4420   33.3280   44.5150 N   0  0  0  0  0  0  0  0  0  0  0  0
   45.3360   34.4760   45.2200 C   0  0  0  0  0  0  0  0  0  0  0  0
   44.7490   35.5740   44.7000 N   0  0  0  0  0  0  0  0  0  0  0  0
   43.1830   33.4570   38.0030 N   0  0  0  0  0  0  0  0  0  0  0  0
   44.5977   32.7343   40.3452 H   0  0  0  0  0  0  0  0  0  0  0  0
   42.5989   36.2343   41.6207 H   0  0  0  0  0  0  0  0  0  0  0  0
   43.7808   36.4371   43.0416 H   0  0  0  0  0  0  0  0  0  0  0  0
   45.0558   32.2809   42.6769 H   0  0  0  0  0  0  0  0  0  0  0  0
   45.7382   34.5163   46.2430 H   0  0  0  0  0  0  0  0  0  0  0  0
   43.7300   32.5995   37.8405 H   0  0  0  0  0  0  0  0  0  0  0  0
   42.6096   33.8535   37.2448 H   0  0  0  0  0  0  0  0  0  0  0  0
  1  7  1  0
  2  1  1  0
  3  4  1  0
  3  2  2  0
  4  5  2  0
  5  1  1  0
  6 11  2  0
  7  8  2  0
  7  6  1  0
  8  9  1  0
  9 10  2  0
 11 10  1  0
 12  3  1  0
  2 13  1  0
  5 14  1  0
  6 15  1  0
  8 16  1  0
 10 17  1  0
 12 18  1  0
 12 19  1  0
M  ISO  5  13  14  14  14  15  14  16  14  17  14
M  END
>  <minimizedAffinity>  (1) 
-3.47710514

>  <minimizedRMSD>  (1) 
0.1552874

$$$$
