
     RDKit          3D

 18 19  0  0  0  0  0  0  0  0999 V2000
   44.1910   35.5760   43.3670 C   0  0  0  0  0  0  0  0  0  0  0  0
   44.2760   34.3970   42.5890 C   0  0  0  0  0  0  0  0  0  0  0  0
   44.8970   33.2990   43.1580 C   0  0  0  0  0  0  0  0  0  0  0  0
   45.3930   33.4030   44.4320 N   0  0  0  0  0  0  0  0  0  0  0  0
   45.2930   34.5420   45.1410 C   0  0  0  0  0  0  0  0  0  0  0  0
   44.6870   35.6370   44.6040 N   0  0  0  0  0  0  0  0  0  0  0  0
   43.7150   34.4760   41.3140 N   0  0  0  0  0  0  0  0  0  0  0  0
   44.0020   33.7640   40.2230 C   0  0  0  0  0  0  0  0  0  0  0  0
   43.1660   34.2150   39.1920 C   0  0  0  0  0  0  0  0  0  0  0  0
   42.3950   35.1860   39.6800 N   0  0  0  0  0  0  0  0  0  0  0  0
   42.7240   35.3500   40.9740 C   0  0  0  0  0  0  0  0  0  0  0  0
   43.2650   33.6240   37.9200 O   0  0  0  0  0  0  0  0  0  0  0  0
   43.7034   36.4652   42.9408 H   0  0  0  0  0  0  0  0  0  0  0  0
   44.9912   32.3575   42.5970 H   0  0  0  0  0  0  0  0  0  0  0  0
   45.7032   34.5891   46.1606 H   0  0  0  0  0  0  0  0  0  0  0  0
   44.7572   32.9679   40.1463 H   0  0  0  0  0  0  0  0  0  0  0  0
   42.2630   36.0796   41.6560 H   0  0  0  0  0  0  0  0  0  0  0  0
   43.9193   32.8983   37.7609 H   0  0  0  0  0  0  0  0  0  0  0  0
  1  6  2  0
  2  3  2  0
  2  1  1  0
  3  4  1  0
  4  5  2  0
  6  5  1  0
  7  2  1  0
  8  7  1  0
  9 10  1  0
  9  8  2  0
 10 11  2  0
 11  7  1  0
 12  9  1  0
  1 13  1  0
  3 14  1  0
  5 15  1  0
  8 16  1  0
 11 17  1  0
 12 18  1  0
M  ISO  6  13  14  14  14  15  14  16  14  17  14  18   3
M  END
>  <minimizedAffinity>  (1) 
-3.46847582

>  <minimizedRMSD>  (1) 
0.228164896

$$$$
