
     RDKit          3D

 26 28  0  0  0  0  0  0  0  0999 V2000
   47.3120   31.3820   47.9470 N   0  0  0  0  0  0  0  0  0  0  0  0
   47.3430   31.9850   46.7660 C   0  0  0  0  0  0  0  0  0  0  0  0
   46.2230   32.8150   46.6610 C   0  0  0  0  0  0  0  0  0  0  0  0
   45.5300   32.6950   47.7930 N   0  0  0  0  0  0  0  0  0  0  0  0
   46.1890   31.8230   48.5790 C   0  0  0  0  0  0  0  0  0  0  0  0
   48.8330   30.8800   49.7060 C   0  0  0  0  0  0  0  0  0  0  0  0
   48.2190   30.4690   48.4910 C   0  0  0  0  0  0  0  0  0  0  0  0
   48.5640   29.2380   47.9660 C   0  0  0  0  0  0  0  0  0  0  0  0
   49.4740   28.4860   48.6480 N   0  0  0  0  0  0  0  0  0  0  0  0
   50.0440   28.8790   49.7870 C   0  0  0  0  0  0  0  0  0  0  0  0
   49.7170   30.0640   50.2960 N   0  0  0  0  0  0  0  0  0  0  0  0
   45.9010   33.6520   45.5050 C   0  0  0  0  0  0  0  0  0  0  0  0
   46.5690   33.6930   44.3080 C   0  0  0  0  0  0  0  0  0  0  0  0
   45.8840   34.6340   43.5460 C   0  0  0  0  0  0  0  0  0  0  0  0
   44.8530   35.1020   44.3170 C   0  0  0  0  0  0  0  0  0  0  0  0
   44.8830   34.5080   45.4670 O   0  0  0  0  0  0  0  0  0  0  0  0
   43.8700   36.0750   43.9850 N   0  0  0  0  0  0  0  0  0  0  0  0
   48.1196   31.8540   45.9981 H   0  0  0  0  0  0  0  0  0  0  0  0
   45.8676   31.5123   49.5841 H   0  0  0  0  0  0  0  0  0  0  0  0
   48.5859   31.8534   50.1549 H   0  0  0  0  0  0  0  0  0  0  0  0
   48.1185   28.8764   47.0275 H   0  0  0  0  0  0  0  0  0  0  0  0
   50.7735   28.2336   50.2982 H   0  0  0  0  0  0  0  0  0  0  0  0
   47.4537   33.1090   44.0144 H   0  0  0  0  0  0  0  0  0  0  0  0
   46.1248   34.9438   42.5184 H   0  0  0  0  0  0  0  0  0  0  0  0
   43.1466   36.3314   44.6719 H   0  0  0  0  0  0  0  0  0  0  0  0
   43.8816   36.5232   43.0577 H   0  0  0  0  0  0  0  0  0  0  0  0
  1  7  1  0
  1  5  1  0
  2  1  1  0
  3  2  2  0
  3  4  1  0
  4  5  2  0
  6 11  2  0
  7  6  1  0
  8  7  2  0
  8  9  1  0
  9 10  2  0
 10 11  1  0
 12  3  1  0
 13 12  2  0
 14 13  1  0
 14 15  2  0
 15 16  1  0
 16 12  1  0
 17 15  1  0
  2 18  1  0
  5 19  1  0
  6 20  1  0
  8 21  1  0
 10 22  1  0
 13 23  1  0
 14 24  1  0
 17 25  1  0
 17 26  1  0
M  ISO  7  18  14  19  14  20  14  21  14  22  14  23  14  24  14
M  END
>  <minimizedAffinity>  (1) 
-5.08367205

>  <minimizedRMSD>  (1) 
0.779057801

$$$$
