
     RDKit          3D

 28 29  0  0  0  0  0  0  0  0999 V2000
   44.8560   35.1850   44.0080 C   0  0  0  0  0  0  0  0  0  0  0  0
   45.6440   35.3160   42.8450 C   0  0  0  0  0  0  0  0  0  0  0  0
   46.8230   34.5380   42.7610 C   0  0  0  0  0  0  0  0  0  0  0  0
   47.1260   33.7150   43.7990 N   0  0  0  0  0  0  0  0  0  0  0  0
   46.3410   33.6230   44.8930 C   0  0  0  0  0  0  0  0  0  0  0  0
   45.2270   34.3440   44.9970 N   0  0  0  0  0  0  0  0  0  0  0  0
   43.6590   35.9060   44.2090 N   0  0  0  0  0  0  0  0  0  0  0  0
   47.6550   34.6570   41.5660 C   0  0  0  0  0  0  0  0  0  0  0  0
   48.7550   35.6520   41.7110 C   0  0  0  0  0  0  0  0  0  0  0  0
   49.9310   35.1900   42.4970 C   0  0  0  0  0  0  0  0  0  0  0  0
   50.3490   33.7760   42.2690 C   0  0  0  0  0  0  0  0  0  0  0  0
   49.2270   32.8050   42.0770 C   0  0  0  0  0  0  0  0  0  0  0  0
   48.2160   33.3320   41.1100 C   0  0  0  0  0  0  0  0  0  0  0  0
   45.3524   35.9983   42.0329 H   0  0  0  0  0  0  0  0  0  0  0  0
   46.6256   32.9431   45.7096 H   0  0  0  0  0  0  0  0  0  0  0  0
   43.3261   36.5625   43.4886 H   0  0  0  0  0  0  0  0  0  0  0  0
   43.1186   35.7755   45.0761 H   0  0  0  0  0  0  0  0  0  0  0  0
   46.9701   35.0267   40.7887 H   0  0  0  0  0  0  0  0  0  0  0  0
   49.1044   35.9216   40.7034 H   0  0  0  0  0  0  0  0  0  0  0  0
   48.3284   36.4976   42.2705 H   0  0  0  0  0  0  0  0  0  0  0  0
   50.7824   35.8388   42.2436 H   0  0  0  0  0  0  0  0  0  0  0  0
   49.6255   35.2450   43.5523 H   0  0  0  0  0  0  0  0  0  0  0  0
   50.9811   33.7485   41.3691 H   0  0  0  0  0  0  0  0  0  0  0  0
   50.8736   33.4607   43.1830 H   0  0  0  0  0  0  0  0  0  0  0  0
   49.6335   31.8586   41.6910 H   0  0  0  0  0  0  0  0  0  0  0  0
   48.7325   32.6476   43.0469 H   0  0  0  0  0  0  0  0  0  0  0  0
   47.3937   32.6068   41.0214 H   0  0  0  0  0  0  0  0  0  0  0  0
   48.7112   33.4818   40.1392 H   0  0  0  0  0  0  0  0  0  0  0  0
  1  7  1  0
  1  6  2  0
  2  1  1  0
  3  2  2  0
  3  4  1  0
  4  5  2  0
  5  6  1  0
  8  9  1  0
  8  3  1  0
  9 10  1  0
 11 10  1  0
 12 11  1  0
 13  8  1  0
 13 12  1  0
  2 14  1  0
  5 15  1  0
  7 16  1  0
  7 17  1  0
  8 18  1  0
  9 19  1  0
  9 20  1  0
 10 21  1  0
 10 22  1  0
 11 23  1  0
 11 24  1  0
 12 25  1  0
 12 26  1  0
 13 27  1  0
 13 28  1  0
M  ISO  8  14  14  15  14  18  13  19  13  20  13  21  13  22  13  23  13
M  ISO  5  24  13  25  13  26  13  27  13  28  13
M  END
>  <minimizedAffinity>  (1) 
-5.46295214

>  <minimizedRMSD>  (1) 
1.07606995

$$$$
