
     RDKit          3D

 27 29  0  0  0  0  0  0  0  0999 V2000
   47.6950   31.0540   48.2870 N   0  0  0  0  0  0  0  0  0  0  0  0
   47.6670   31.6260   47.0990 C   0  0  0  0  0  0  0  0  0  0  0  0
   46.5730   32.4900   47.0210 C   0  0  0  0  0  0  0  0  0  0  0  0
   45.9450   32.4240   48.1930 N   0  0  0  0  0  0  0  0  0  0  0  0
   46.6240   31.5530   48.9640 C   0  0  0  0  0  0  0  0  0  0  0  0
   49.2110   30.4980   50.0190 C   0  0  0  0  0  0  0  0  0  0  0  0
   48.5920   30.1300   48.8130 C   0  0  0  0  0  0  0  0  0  0  0  0
   48.9270   28.8990   48.2710 C   0  0  0  0  0  0  0  0  0  0  0  0
   49.8310   28.1220   48.9360 N   0  0  0  0  0  0  0  0  0  0  0  0
   50.4040   28.5070   50.0910 C   0  0  0  0  0  0  0  0  0  0  0  0
   50.0900   29.6890   50.6220 N   0  0  0  0  0  0  0  0  0  0  0  0
   46.2170   33.2970   45.8600 C   0  0  0  0  0  0  0  0  0  0  0  0
   46.7630   33.2000   44.6040 C   0  0  0  0  0  0  0  0  0  0  0  0
   46.0950   34.1760   43.8520 C   0  0  0  0  0  0  0  0  0  0  0  0
   45.1910   34.7980   44.7040 C   0  0  0  0  0  0  0  0  0  0  0  0
   45.3080   34.2420   45.8640 O   0  0  0  0  0  0  0  0  0  0  0  0
   44.2900   35.8980   44.2750 C   0  0  0  0  0  0  0  0  0  0  0  0
   48.3943   31.4494   46.2929 H   0  0  0  0  0  0  0  0  0  0  0  0
   46.3518   31.2829   49.9950 H   0  0  0  0  0  0  0  0  0  0  0  0
   48.9688   31.4688   50.4761 H   0  0  0  0  0  0  0  0  0  0  0  0
   48.4754   28.5567   47.3282 H   0  0  0  0  0  0  0  0  0  0  0  0
   51.1280   27.8497   50.5947 H   0  0  0  0  0  0  0  0  0  0  0  0
   47.5493   32.5101   44.2638 H   0  0  0  0  0  0  0  0  0  0  0  0
   46.2560   34.4060   42.7884 H   0  0  0  0  0  0  0  0  0  0  0  0
   43.8777   36.4013   45.1620 H   0  0  0  0  0  0  0  0  0  0  0  0
   44.8573   36.6228   43.6726 H   0  0  0  0  0  0  0  0  0  0  0  0
   43.4677   35.4846   43.6726 H   0  0  0  0  0  0  0  0  0  0  0  0
  1  7  1  0
  1  5  1  0
  2  1  1  0
  3  2  2  0
  3  4  1  0
  4  5  2  0
  6 11  2  0
  7  6  1  0
  8  7  2  0
  8  9  1  0
  9 10  2  0
 10 11  1  0
 12 16  1  0
 12  3  1  0
 13 12  2  0
 14 13  1  0
 14 15  2  0
 15 16  1  0
 17 15  1  0
  2 18  1  0
  5 19  1  0
  6 20  1  0
  8 21  1  0
 10 22  1  0
 13 23  1  0
 14 24  1  0
 17 25  1  0
 17 26  1  0
 17 27  1  0
M  ISO  8  18  14  19  14  20  14  21  14  22  14  23  14  24  14  25   8
M  ISO  2  26   8  27   8
M  END
>  <minimizedAffinity>  (1) 
-4.65060806

>  <minimizedRMSD>  (1) 
1.31695127

$$$$
