
     RDKit          3D

 26 28  0  0  0  0  0  0  0  0999 V2000
   47.7970   30.9040   48.4170 N   0  0  0  0  0  0  0  0  0  0  0  0
   47.7710   31.5180   47.2570 C   0  0  0  0  0  0  0  0  0  0  0  0
   46.6500   32.3130   47.1450 C   0  0  0  0  0  0  0  0  0  0  0  0
   45.9780   32.1690   48.2870 N   0  0  0  0  0  0  0  0  0  0  0  0
   46.6740   31.3140   49.0610 C   0  0  0  0  0  0  0  0  0  0  0  0
   49.3530   30.4230   50.1520 C   0  0  0  0  0  0  0  0  0  0  0  0
   48.7350   30.0140   48.9510 C   0  0  0  0  0  0  0  0  0  0  0  0
   49.0980   28.7920   48.4100 C   0  0  0  0  0  0  0  0  0  0  0  0
   50.0360   28.0500   49.0700 N   0  0  0  0  0  0  0  0  0  0  0  0
   50.6110   28.4530   50.2040 C   0  0  0  0  0  0  0  0  0  0  0  0
   50.2600   29.6290   50.7240 N   0  0  0  0  0  0  0  0  0  0  0  0
   46.2630   33.1430   46.0240 C   0  0  0  0  0  0  0  0  0  0  0  0
   46.7770   33.0410   44.7340 C   0  0  0  0  0  0  0  0  0  0  0  0
   46.1180   34.0290   44.0080 C   0  0  0  0  0  0  0  0  0  0  0  0
   45.2580   34.6660   44.8760 C   0  0  0  0  0  0  0  0  0  0  0  0
   45.3770   34.1150   46.0400 O   0  0  0  0  0  0  0  0  0  0  0  0
   44.3690   35.7710   44.5280 C   0  0  0  0  0  0  0  0  0  0  0  0
   44.8670   36.9050   44.2150 O   0  0  0  0  0  0  0  0  0  0  0  0
   48.5407   31.4124   46.4783 H   0  0  0  0  0  0  0  0  0  0  0  0
   46.3754   30.9938   50.0701 H   0  0  0  0  0  0  0  0  0  0  0  0
   49.0896   31.3868   50.6120 H   0  0  0  0  0  0  0  0  0  0  0  0
   48.6442   28.4294   47.4759 H   0  0  0  0  0  0  0  0  0  0  0  0
   51.3635   27.8243   50.7025 H   0  0  0  0  0  0  0  0  0  0  0  0
   47.5371   32.3347   44.3688 H   0  0  0  0  0  0  0  0  0  0  0  0
   46.2576   34.2583   42.9413 H   0  0  0  0  0  0  0  0  0  0  0  0
   43.2784   35.6279   44.5353 H   0  0  0  0  0  0  0  0  0  0  0  0
  1  7  1  0
  1  5  1  0
  2  1  1  0
  3  2  2  0
  3  4  1  0
  4  5  2  0
  6 11  2  0
  7  6  1  0
  8  7  2  0
  8  9  1  0
  9 10  2  0
 10 11  1  0
 12 16  1  0
 12  3  1  0
 13 12  2  0
 14 13  1  0
 14 15  2  0
 15 16  1  0
 17 15  1  0
 18 17  2  0
  2 19  1  0
  5 20  1  0
  6 21  1  0
  8 22  1  0
 10 23  1  0
 13 24  1  0
 14 25  1  0
 17 26  1  0
M  ISO  8  19  14  20  14  21  14  22  14  23  14  24  14  25  14  26   6
M  END
>  <minimizedAffinity>  (1) 
-4.71072578

>  <minimizedRMSD>  (1) 
1.51865327

$$$$
