
     RDKit          3D

 25 27  0  0  0  0  0  0  0  0999 V2000
   47.6090   33.6710   42.3760 N   0  0  0  0  0  0  0  0  0  0  0  0
   47.6200   34.4510   41.2810 C   0  0  0  0  0  0  0  0  0  0  0  0
   48.5120   33.9980   40.3560 N   0  0  0  0  0  0  0  0  0  0  0  0
   49.0870   32.8990   40.8700 C   0  0  0  0  0  0  0  0  0  0  0  0
   50.0370   31.9740   40.4920 C   0  0  0  0  0  0  0  0  0  0  0  0
   50.4040   30.9350   41.2870 N   0  0  0  0  0  0  0  0  0  0  0  0
   49.8250   30.7750   42.5130 C   0  0  0  0  0  0  0  0  0  0  0  0
   48.8960   31.6750   42.8880 N   0  0  0  0  0  0  0  0  0  0  0  0
   48.5220   32.7050   42.1200 C   0  0  0  0  0  0  0  0  0  0  0  0
   44.8900   35.0300   44.4590 C   0  0  0  0  0  0  0  0  0  0  0  0
   45.7100   34.8020   43.3510 C   0  0  0  0  0  0  0  0  0  0  0  0
   46.7820   33.8960   43.5030 C   0  0  0  0  0  0  0  0  0  0  0  0
   46.9460   33.3030   44.7230 N   0  0  0  0  0  0  0  0  0  0  0  0
   46.1320   33.5550   45.7530 C   0  0  0  0  0  0  0  0  0  0  0  0
   45.1040   34.4150   45.6290 N   0  0  0  0  0  0  0  0  0  0  0  0
   43.7680   35.9150   44.4620 N   0  0  0  0  0  0  0  0  0  0  0  0
   50.6440   32.1370   39.2140 N   0  0  0  0  0  0  0  0  0  0  0  0
   46.9888   35.3421   41.1486 H   0  0  0  0  0  0  0  0  0  0  0  0
   50.1074   29.9403   43.1714 H   0  0  0  0  0  0  0  0  0  0  0  0
   45.5266   35.3109   42.3932 H   0  0  0  0  0  0  0  0  0  0  0  0
   46.3048   33.0522   46.7160 H   0  0  0  0  0  0  0  0  0  0  0  0
   43.5206   36.4358   43.6085 H   0  0  0  0  0  0  0  0  0  0  0  0
   43.2067   36.0321   45.3177 H   0  0  0  0  0  0  0  0  0  0  0  0
   51.3583   31.4675   38.8940 H   0  0  0  0  0  0  0  0  0  0  0  0
   50.3687   32.9244   38.6097 H   0  0  0  0  0  0  0  0  0  0  0  0
  1 12  1  0
  2  1  1  0
  3  4  1  0
  3  2  2  0
  4  9  2  0
  5  4  1  0
  5  6  2  0
  6  7  1  0
  7  8  2  0
  9  1  1  0
  9  8  1  0
 10 16  1  0
 10 15  2  0
 11 12  2  0
 11 10  1  0
 12 13  1  0
 13 14  2  0
 15 14  1  0
 17  5  1  0
  2 18  1  0
  7 19  1  0
 11 20  1  0
 14 21  1  0
 16 22  1  0
 16 23  1  0
 17 24  1  0
 17 25  1  0
M  ISO  4  18  14  19  14  20  14  21  14
M  END
>  <minimizedAffinity>  (1) 
-5.02609062

>  <minimizedRMSD>  (1) 
0.792679548

$$$$
