
     RDKit          3D

 26 28  0  0  0  0  0  0  0  0999 V2000
   47.5020   33.5710   42.3900 N   0  0  0  0  0  0  0  0  0  0  0  0
   48.8570   33.4070   42.4480 C   0  0  0  0  0  0  0  0  0  0  0  0
   49.3260   33.1890   41.2070 N   0  0  0  0  0  0  0  0  0  0  0  0
   48.2950   33.2090   40.3330 C   0  0  0  0  0  0  0  0  0  0  0  0
   48.1670   33.0500   38.9660 C   0  0  0  0  0  0  0  0  0  0  0  0
   49.1920   32.8360   38.3050 O   0  0  0  0  0  0  0  0  0  0  0  0
   46.9180   33.1420   38.4480 N   0  0  0  0  0  0  0  0  0  0  0  0
   45.8140   33.3780   39.1970 C   0  0  0  0  0  0  0  0  0  0  0  0
   44.5950   33.4380   38.4580 N   0  0  0  0  0  0  0  0  0  0  0  0
   45.9320   33.5350   40.5450 N   0  0  0  0  0  0  0  0  0  0  0  0
   47.1600   33.4490   41.0920 C   0  0  0  0  0  0  0  0  0  0  0  0
   44.9050   35.0500   44.5180 C   0  0  0  0  0  0  0  0  0  0  0  0
   45.6970   34.7800   43.3920 C   0  0  0  0  0  0  0  0  0  0  0  0
   46.7220   33.8180   43.5530 C   0  0  0  0  0  0  0  0  0  0  0  0
   46.8850   33.2170   44.7660 N   0  0  0  0  0  0  0  0  0  0  0  0
   46.0930   33.5220   45.8010 C   0  0  0  0  0  0  0  0  0  0  0  0
   45.1010   34.4320   45.7030 N   0  0  0  0  0  0  0  0  0  0  0  0
   43.8450   35.9920   44.4960 N   0  0  0  0  0  0  0  0  0  0  0  0
   49.4663   33.4469   43.3629 H   0  0  0  0  0  0  0  0  0  0  0  0
   46.8020   33.0264   37.4311 H   0  0  0  0  0  0  0  0  0  0  0  0
   43.7050   33.6134   38.9460 H   0  0  0  0  0  0  0  0  0  0  0  0
   44.6050   33.3059   37.4366 H   0  0  0  0  0  0  0  0  0  0  0  0
   45.5296   35.2905   42.4321 H   0  0  0  0  0  0  0  0  0  0  0  0
   46.2559   33.0143   46.7631 H   0  0  0  0  0  0  0  0  0  0  0  0
   43.6309   36.5062   43.6296 H   0  0  0  0  0  0  0  0  0  0  0  0
   43.2893   36.1619   45.3464 H   0  0  0  0  0  0  0  0  0  0  0  0
  1  2  1  0
  1 14  1  0
  3  2  2  0
  4 11  2  0
  4  3  1  0
  5  4  1  0
  6  5  2  0
  7  5  1  0
  7  8  1  0
  8 10  2  0
  9  8  1  0
 10 11  1  0
 11  1  1  0
 12 17  2  0
 13 14  2  0
 13 12  1  0
 14 15  1  0
 15 16  2  0
 17 16  1  0
 18 12  1  0
  2 19  1  0
  7 20  1  0
  9 21  1  0
  9 22  1  0
 13 23  1  0
 16 24  1  0
 18 25  1  0
 18 26  1  0
M  ISO  4  19  14  20   9  23  14  24  14
M  END
>  <minimizedAffinity>  (1) 
-5.08444548

>  <minimizedRMSD>  (1) 
0.639609218

$$$$
