
     RDKit          3D

 28 31  0  0  1  0  0  0  0  0999 V2000
   48.0560   33.5690   43.2130 C   0  0  0  0  0  0  0  0  0  0  0  0
   49.1010   33.3110   42.5870 N   0  0  0  0  0  0  0  0  0  0  0  0
   50.1790   33.0610   42.0640 C   0  0  0  0  0  0  0  0  0  0  0  0
   49.6570   32.9940   40.8340 N   0  0  0  0  0  0  0  0  0  0  0  0
   48.3090   33.2020   40.6980 C   0  0  2  0  0  0  0  0  0  0  0  0
   47.8630   33.0380   39.3620 C   0  0  0  0  0  0  0  0  0  0  0  0
   46.5210   33.1510   39.1610 C   0  0  0  0  0  0  0  0  0  0  0  0
   45.5720   33.4060   40.1250 C   0  0  0  0  0  0  0  0  0  0  0  0
   46.1910   33.5370   41.3640 C   0  0  0  0  0  0  0  0  0  0  0  0
   47.5410   33.4780   41.8670 C   0  0  2  0  0  0  0  0  0  0  0  0
   44.9320   35.0630   44.5860 C   0  0  0  0  0  0  0  0  0  0  0  0
   45.9030   34.8330   43.6300 C   0  0  0  0  0  0  0  0  0  0  0  0
   46.8690   33.8620   43.9250 C   0  0  0  0  0  0  0  0  0  0  0  0
   46.7890   33.2170   45.1260 N   0  0  0  0  0  0  0  0  0  0  0  0
   45.8410   33.4600   46.0310 C   0  0  0  0  0  0  0  0  0  0  0  0
   44.9500   34.3800   45.7130 N   0  0  0  0  0  0  0  0  0  0  0  0
   43.9000   36.0100   44.4160 N   0  0  0  0  0  0  0  0  0  0  0  0
   48.3562   34.6252   43.2789 H   0  0  0  0  0  0  0  0  0  0  0  0
   51.1983   32.9374   42.4587 H   0  0  0  0  0  0  0  0  0  0  0  0
   48.1249   32.1347   40.8905 H   0  0  0  0  0  0  0  0  0  0  0  0
   48.5601   32.8316   38.5365 H   0  0  0  0  0  0  0  0  0  0  0  0
   46.1606   33.0266   38.1292 H   0  0  0  0  0  0  0  0  0  0  0  0
   44.4905   33.4928   39.9436 H   0  0  0  0  0  0  0  0  0  0  0  0
   45.4643   33.7368   42.1652 H   0  0  0  0  0  0  0  0  0  0  0  0
   45.9169   35.3874   42.6800 H   0  0  0  0  0  0  0  0  0  0  0  0
   45.8035   32.9231   46.9903 H   0  0  0  0  0  0  0  0  0  0  0  0
   43.8484   36.5656   43.5503 H   0  0  0  0  0  0  0  0  0  0  0  0
   43.1982   36.1457   45.1576 H   0  0  0  0  0  0  0  0  0  0  0  0
  1 13  1  0
  2  1  1  0
  3  2  1  0
  4  3  2  0
  5  6  1  0
  5  4  1  0
  5 10  1  0
  7  6  2  0
  7  8  1  0
  8  9  2  0
 10  9  1  0
 10  2  1  0
 10  1  1  6
 11 16  2  0
 12 13  2  0
 12 11  1  0
 13 14  1  0
 14 15  2  0
 16 15  1  0
 17 11  1  0
  1 18  1  0
  3 19  1  0
  5 20  1  6
  6 21  1  0
  7 22  1  0
  8 23  1  0
  9 24  1  0
 12 25  1  0
 15 26  1  0
 17 27  1  0
 17 28  1  0
M  ISO  8  18  13  19  13  20  13  21  13  22  13  23  13  24  13  25  14
M  ISO  1  26  14
M  END
>  <minimizedAffinity>  (1) 
-4.950418

>  <minimizedRMSD>  (1) 
0.526202798

$$$$
