
     RDKit          3D

 15 15  0  0  0  0  0  0  0  0999 V2000
   44.9530   35.1560   43.9970 C   0  0  0  0  0  0  0  0  0  0  0  0
   45.7980   35.3980   42.9020 C   0  0  0  0  0  0  0  0  0  0  0  0
   47.0050   34.6650   42.8270 C   0  0  0  0  0  0  0  0  0  0  0  0
   47.2760   33.7580   43.8300 N   0  0  0  0  0  0  0  0  0  0  0  0
   46.4180   33.5750   44.8560 C   0  0  0  0  0  0  0  0  0  0  0  0
   45.2660   34.2620   44.9480 N   0  0  0  0  0  0  0  0  0  0  0  0
   43.7270   35.8330   44.1690 N   0  0  0  0  0  0  0  0  0  0  0  0
   47.8840   34.9160   41.6870 C   0  0  0  0  0  0  0  0  0  0  0  0
   48.4870   36.1670   41.8200 F   0  0  0  0  0  0  0  0  0  0  0  0
   48.9600   34.0170   41.7070 F   0  0  0  0  0  0  0  0  0  0  0  0
   47.2830   34.7820   40.4530 F   0  0  0  0  0  0  0  0  0  0  0  0
   45.5301   36.1329   42.1286 H   0  0  0  0  0  0  0  0  0  0  0  0
   46.6683   32.8435   45.6385 H   0  0  0  0  0  0  0  0  0  0  0  0
   43.4237   36.5330   43.4769 H   0  0  0  0  0  0  0  0  0  0  0  0
   43.1354   35.6272   44.9866 H   0  0  0  0  0  0  0  0  0  0  0  0
  1  7  1  0
  1  6  2  0
  2  1  1  0
  3  2  2  0
  3  4  1  0
  4  5  2  0
  5  6  1  0
  8 10  1  0
  8  9  1  0
  8  3  1  0
 11  8  1  0
  2 12  1  0
  5 13  1  0
  7 14  1  0
  7 15  1  0
M  ISO  2  12  14  13  14
M  END
>  <minimizedAffinity>  (1) 
-4.48909235

>  <minimizedRMSD>  (1) 
1.06186759

$$$$
