
     RDKit          3D

 19 20  0  0  0  0  0  0  0  0999 V2000
   44.8710   35.0460   44.5180 C   0  0  0  0  0  0  0  0  0  0  0  0
   45.9230   34.8220   43.6280 C   0  0  0  0  0  0  0  0  0  0  0  0
   46.9280   33.9230   44.0330 C   0  0  0  0  0  0  0  0  0  0  0  0
   46.8360   33.3220   45.2490 N   0  0  0  0  0  0  0  0  0  0  0  0
   45.7960   33.5800   46.0660 C   0  0  0  0  0  0  0  0  0  0  0  0
   44.8200   34.4340   45.7060 N   0  0  0  0  0  0  0  0  0  0  0  0
   43.7940   35.9250   44.2410 N   0  0  0  0  0  0  0  0  0  0  0  0
   48.0130   33.7060   43.0870 C   0  0  0  0  0  0  0  0  0  0  0  0
   47.8290   32.9130   41.9470 C   0  0  0  0  0  0  0  0  0  0  0  0
   48.9950   32.8890   41.2590 N   0  0  0  0  0  0  0  0  0  0  0  0
   49.9010   33.6430   41.9360 C   0  0  0  0  0  0  0  0  0  0  0  0
   49.2690   34.1140   43.0260 N   0  0  0  0  0  0  0  0  0  0  0  0
   45.9649   35.3266   42.6515 H   0  0  0  0  0  0  0  0  0  0  0  0
   45.7437   33.0831   47.0460 H   0  0  0  0  0  0  0  0  0  0  0  0
   43.7617   36.4339   43.3461 H   0  0  0  0  0  0  0  0  0  0  0  0
   43.0437   36.0548   44.9347 H   0  0  0  0  0  0  0  0  0  0  0  0
   46.8994   32.3994   41.6607 H   0  0  0  0  0  0  0  0  0  0  0  0
   50.9461   33.8311   41.6488 H   0  0  0  0  0  0  0  0  0  0  0  0
   49.7117   34.7212   43.7304 H   0  0  0  0  0  0  0  0  0  0  0  0
  1  6  2  0
  2  3  2  0
  2  1  1  0
  3  4  1  0
  4  5  2  0
  6  5  1  0
  7  1  1  0
  8  3  1  0
  9  8  2  0
 10 11  2  0
 10  9  1  0
 11 12  1  0
 12  8  1  0
  2 13  1  0
  5 14  1  0
  7 15  1  0
  7 16  1  0
  9 17  1  0
 11 18  1  0
 12 19  1  0
M  ISO  5  13  14  14  14  17  14  18  14  19   9
M  END
>  <minimizedAffinity>  (1) 
-4.09353638

>  <minimizedRMSD>  (1) 
0.640274644

$$$$
