
     RDKit          3D

 20 21  0  0  0  0  0  0  0  0999 V2000
   44.8900   35.0240   44.4150 C   0  0  0  0  0  0  0  0  0  0  0  0
   45.5970   34.8320   43.2240 C   0  0  0  0  0  0  0  0  0  0  0  0
   46.6690   33.9260   43.2640 C   0  0  0  0  0  0  0  0  0  0  0  0
   46.9630   33.2900   44.4300 N   0  0  0  0  0  0  0  0  0  0  0  0
   46.2390   33.5170   45.5540 C   0  0  0  0  0  0  0  0  0  0  0  0
   45.2200   34.3770   45.5310 N   0  0  0  0  0  0  0  0  0  0  0  0
   43.7780   35.9090   44.5450 N   0  0  0  0  0  0  0  0  0  0  0  0
   47.4280   33.7010   42.0410 C   0  0  0  0  0  0  0  0  0  0  0  0
   47.3090   34.5380   40.9660 C   0  0  0  0  0  0  0  0  0  0  0  0
   48.0810   34.2150   39.8700 C   0  0  0  0  0  0  0  0  0  0  0  0
   48.9130   33.1390   39.8440 N   0  0  0  0  0  0  0  0  0  0  0  0
   49.0030   32.3290   40.9360 C   0  0  0  0  0  0  0  0  0  0  0  0
   48.2510   32.6390   42.0090 N   0  0  0  0  0  0  0  0  0  0  0  0
   45.3265   35.3649   42.3005 H   0  0  0  0  0  0  0  0  0  0  0  0
   46.4926   32.9909   46.4862 H   0  0  0  0  0  0  0  0  0  0  0  0
   43.4532   36.4509   43.7315 H   0  0  0  0  0  0  0  0  0  0  0  0
   43.3002   36.0058   45.4523 H   0  0  0  0  0  0  0  0  0  0  0  0
   46.6410   35.4119   40.9750 H   0  0  0  0  0  0  0  0  0  0  0  0
   48.0215   34.8554   38.9776 H   0  0  0  0  0  0  0  0  0  0  0  0
   49.6671   31.4521   40.9408 H   0  0  0  0  0  0  0  0  0  0  0  0
  1  7  1  0
  1  6  2  0
  2  3  2  0
  2  1  1  0
  3  4  1  0
  4  5  2  0
  6  5  1  0
  8  3  1  0
  9  8  2  0
 10  9  1  0
 11 10  2  0
 11 12  1  0
 12 13  2  0
 13  8  1  0
  2 14  1  0
  5 15  1  0
  7 16  1  0
  7 17  1  0
  9 18  1  0
 10 19  1  0
 12 20  1  0
M  ISO  5  14  14  15  14  18  14  19  14  20  14
M  END
>  <minimizedAffinity>  (1) 
-4.25826454

>  <minimizedRMSD>  (1) 
0.693741083

$$$$
