
     RDKit          3D

 19 20  0  0  0  0  0  0  0  0999 V2000
   44.8840   35.0410   44.4890 C   0  0  0  0  0  0  0  0  0  0  0  0
   45.6880   34.8620   43.3400 C   0  0  0  0  0  0  0  0  0  0  0  0
   46.7610   33.9550   43.4480 C   0  0  0  0  0  0  0  0  0  0  0  0
   46.9610   33.3120   44.6300 N   0  0  0  0  0  0  0  0  0  0  0  0
   46.1600   33.5250   45.6920 C   0  0  0  0  0  0  0  0  0  0  0  0
   45.1360   34.3770   45.6220 N   0  0  0  0  0  0  0  0  0  0  0  0
   43.7770   35.9210   44.5150 N   0  0  0  0  0  0  0  0  0  0  0  0
   47.5640   33.7820   42.2880 N   0  0  0  0  0  0  0  0  0  0  0  0
   47.2740   34.5400   41.1980 C   0  0  0  0  0  0  0  0  0  0  0  0
   48.1880   34.1810   40.2280 C   0  0  0  0  0  0  0  0  0  0  0  0
   49.0090   33.2240   40.7320 N   0  0  0  0  0  0  0  0  0  0  0  0
   48.6010   32.9940   42.0100 C   0  0  0  0  0  0  0  0  0  0  0  0
   45.4854   35.4054   42.4053 H   0  0  0  0  0  0  0  0  0  0  0  0
   46.3535   32.9876   46.6321 H   0  0  0  0  0  0  0  0  0  0  0  0
   43.5296   36.4623   43.6744 H   0  0  0  0  0  0  0  0  0  0  0  0
   43.2183   36.0205   45.3746 H   0  0  0  0  0  0  0  0  0  0  0  0
   46.4729   35.2883   41.1071 H   0  0  0  0  0  0  0  0  0  0  0  0
   48.2424   34.6013   39.2129 H   0  0  0  0  0  0  0  0  0  0  0  0
   49.0559   32.2715   42.7036 H   0  0  0  0  0  0  0  0  0  0  0  0
  1  7  1  0
  1  6  2  0
  2  3  2  0
  2  1  1  0
  3  4  1  0
  4  5  2  0
  6  5  1  0
  8  3  1  0
  9  8  1  0
 10 11  1  0
 10  9  2  0
 11 12  2  0
 12  8  1  0
  2 13  1  0
  5 14  1  0
  7 15  1  0
  7 16  1  0
  9 17  1  0
 10 18  1  0
 12 19  1  0
M  ISO  5  13  14  14  14  17  14  18  14  19  14
M  END
>  <minimizedAffinity>  (1) 
-4.06874895

>  <minimizedRMSD>  (1) 
0.357539177

$$$$
