
     RDKit          3D

 19 20  0  0  0  0  0  0  0  0999 V2000
   44.8970   35.0240   44.4610 C   0  0  0  0  0  0  0  0  0  0  0  0
   45.5610   34.8920   43.2200 C   0  0  0  0  0  0  0  0  0  0  0  0
   46.6350   33.9900   43.1900 C   0  0  0  0  0  0  0  0  0  0  0  0
   46.9850   33.3060   44.3070 N   0  0  0  0  0  0  0  0  0  0  0  0
   46.3040   33.4810   45.4660 C   0  0  0  0  0  0  0  0  0  0  0  0
   45.2790   34.3270   45.5330 N   0  0  0  0  0  0  0  0  0  0  0  0
   43.7820   35.9060   44.6460 N   0  0  0  0  0  0  0  0  0  0  0  0
   47.3310   33.8410   41.9210 C   0  0  0  0  0  0  0  0  0  0  0  0
   47.5850   34.7590   40.9400 C   0  0  0  0  0  0  0  0  0  0  0  0
   48.2650   34.3720   39.8250 C   0  0  0  0  0  0  0  0  0  0  0  0
   48.6610   32.9720   39.8000 C   0  0  0  0  0  0  0  0  0  0  0  0
   48.0100   32.3180   41.4120 S   0  0  0  0  0  0  0  0  0  0  0  0
   45.2539   35.4625   42.3310 H   0  0  0  0  0  0  0  0  0  0  0  0
   46.6023   32.9168   46.3620 H   0  0  0  0  0  0  0  0  0  0  0  0
   43.4373   36.4726   43.8580 H   0  0  0  0  0  0  0  0  0  0  0  0
   43.3257   35.9730   45.5670 H   0  0  0  0  0  0  0  0  0  0  0  0
   47.2438   35.7990   41.0501 H   0  0  0  0  0  0  0  0  0  0  0  0
   48.4976   35.0664   39.0042 H   0  0  0  0  0  0  0  0  0  0  0  0
   49.2123   32.4318   39.0163 H   0  0  0  0  0  0  0  0  0  0  0  0
  1  7  1  0
  1  6  2  0
  2  1  1  0
  3  2  2  0
  3  4  1  0
  4  5  2  0
  5  6  1  0
  8  3  1  0
  9  8  2  0
 10  9  1  0
 11 10  2  0
 11 12  1  0
 12  8  1  0
  2 13  1  0
  5 14  1  0
  7 15  1  0
  7 16  1  0
  9 17  1  0
 10 18  1  0
 11 19  1  0
M  ISO  5  13  14  14  14  17  14  18  14  19  14
M  END
>  <minimizedAffinity>  (1) 
-4.1804595

>  <minimizedRMSD>  (1) 
0.752786219

$$$$
