
     RDKit          3D

 18 19  0  0  0  0  0  0  0  0999 V2000
   44.8870   35.0440   44.4180 C   0  0  0  0  0  0  0  0  0  0  0  0
   45.6480   34.8970   43.2390 C   0  0  0  0  0  0  0  0  0  0  0  0
   46.7310   33.9970   43.2900 C   0  0  0  0  0  0  0  0  0  0  0  0
   46.9840   33.3260   44.4500 N   0  0  0  0  0  0  0  0  0  0  0  0
   46.2210   33.5070   45.5450 C   0  0  0  0  0  0  0  0  0  0  0  0
   45.1940   34.3550   45.5140 N   0  0  0  0  0  0  0  0  0  0  0  0
   43.7760   35.9160   44.4950 N   0  0  0  0  0  0  0  0  0  0  0  0
   47.5060   33.8420   42.1050 N   0  0  0  0  0  0  0  0  0  0  0  0
   48.4920   33.0050   41.7290 C   0  0  0  0  0  0  0  0  0  0  0  0
   48.8800   33.3060   40.4660 N   0  0  0  0  0  0  0  0  0  0  0  0
   48.1200   34.3470   40.0550 C   0  0  0  0  0  0  0  0  0  0  0  0
   47.2880   34.6580   41.0700 N   0  0  0  0  0  0  0  0  0  0  0  0
   45.4074   35.4581   42.3239 H   0  0  0  0  0  0  0  0  0  0  0  0
   46.4466   32.9528   46.4680 H   0  0  0  0  0  0  0  0  0  0  0  0
   43.4989   36.4709   43.6727 H   0  0  0  0  0  0  0  0  0  0  0  0
   43.2441   35.9961   45.3734 H   0  0  0  0  0  0  0  0  0  0  0  0
   48.9161   32.2024   42.3502 H   0  0  0  0  0  0  0  0  0  0  0  0
   48.1710   34.8463   39.0762 H   0  0  0  0  0  0  0  0  0  0  0  0
  1  7  1  0
  1  6  2  0
  2  3  2  0
  2  1  1  0
  3  4  1  0
  4  5  2  0
  6  5  1  0
  8  3  1  0
  9  8  1  0
 10  9  2  0
 11 10  1  0
 11 12  2  0
 12  8  1  0
  2 13  1  0
  5 14  1  0
  7 15  1  0
  7 16  1  0
  9 17  1  0
 11 18  1  0
M  ISO  4  13  14  14  14  17  14  18  14
M  END
>  <minimizedAffinity>  (1) 
-4.08869123

>  <minimizedRMSD>  (1) 
0.524705052

$$$$
