
     RDKit          3D

 20 21  0  0  0  0  0  0  0  0999 V2000
   44.8880   35.0200   44.4380 C   0  0  0  0  0  0  0  0  0  0  0  0
   45.5970   34.8220   43.2440 C   0  0  0  0  0  0  0  0  0  0  0  0
   46.6640   33.9120   43.3000 C   0  0  0  0  0  0  0  0  0  0  0  0
   46.9610   33.2780   44.4640 N   0  0  0  0  0  0  0  0  0  0  0  0
   46.2380   33.5120   45.5860 C   0  0  0  0  0  0  0  0  0  0  0  0
   45.2140   34.3710   45.5750 N   0  0  0  0  0  0  0  0  0  0  0  0
   43.7850   35.9060   44.5470 N   0  0  0  0  0  0  0  0  0  0  0  0
   47.4230   33.6820   42.0750 C   0  0  0  0  0  0  0  0  0  0  0  0
   47.2650   34.5270   40.9960 C   0  0  0  0  0  0  0  0  0  0  0  0
   48.0430   34.1930   39.9050 C   0  0  0  0  0  0  0  0  0  0  0  0
   48.9030   33.1400   39.8470 N   0  0  0  0  0  0  0  0  0  0  0  0
   49.0020   32.3550   40.9510 C   0  0  0  0  0  0  0  0  0  0  0  0
   48.2600   32.6290   42.0640 N   0  0  0  0  0  0  0  0  0  0  0  0
   45.3317   35.3501   42.3162 H   0  0  0  0  0  0  0  0  0  0  0  0
   46.4972   32.9882   46.5179 H   0  0  0  0  0  0  0  0  0  0  0  0
   43.4709   36.4409   43.7247 H   0  0  0  0  0  0  0  0  0  0  0  0
   43.2985   36.0143   45.4484 H   0  0  0  0  0  0  0  0  0  0  0  0
   46.5813   35.3887   41.0040 H   0  0  0  0  0  0  0  0  0  0  0  0
   47.9610   34.8291   39.0113 H   0  0  0  0  0  0  0  0  0  0  0  0
   49.6847   31.4925   40.9484 H   0  0  0  0  0  0  0  0  0  0  0  0
  1  7  1  0
  1  6  2  0
  2  3  2  0
  2  1  1  0
  3  4  1  0
  4  5  2  0
  6  5  1  0
  8  3  1  0
  9  8  2  0
 10  9  1  0
 11 10  2  0
 11 12  1  0
 12 13  2  0
 13  8  1  0
  2 14  1  0
  5 15  1  0
  7 16  1  0
  7 17  1  0
  9 18  1  0
 10 19  1  0
 12 20  1  0
M  ISO  5  14  14  15  14  18  14  19  14  20  14
M  END
>  <minimizedAffinity>  (1) 
-4.27203321

>  <minimizedRMSD>  (1) 
0.673575044

$$$$
