
     RDKit          3D

 14 14  0  0  0  0  0  0  0  0999 V2000
   44.9430   35.0410   44.3850 C   0  0  0  0  0  0  0  0  0  0  0  0
   45.8770   34.9400   43.3570 C   0  0  0  0  0  0  0  0  0  0  0  0
   46.9650   34.0700   43.5440 C   0  0  0  0  0  0  0  0  0  0  0  0
   47.0460   33.3760   44.7160 N   0  0  0  0  0  0  0  0  0  0  0  0
   46.1200   33.5090   45.6710 C   0  0  0  0  0  0  0  0  0  0  0  0
   45.0690   34.3320   45.5240 N   0  0  0  0  0  0  0  0  0  0  0  0
   43.7990   35.8780   44.3300 N   0  0  0  0  0  0  0  0  0  0  0  0
   47.8620   34.0280   42.4570 N   0  0  0  0  0  0  0  0  0  0  0  0
   45.7670   35.5215   42.4298 H   0  0  0  0  0  0  0  0  0  0  0  0
   46.2215   32.9297   46.6006 H   0  0  0  0  0  0  0  0  0  0  0  0
   43.6234   36.4560   43.4958 H   0  0  0  0  0  0  0  0  0  0  0  0
   43.1439   35.9077   45.1243 H   0  0  0  0  0  0  0  0  0  0  0  0
   48.6922   33.4197   42.4976 H   0  0  0  0  0  0  0  0  0  0  0  0
   47.6871   34.6056   41.6223 H   0  0  0  0  0  0  0  0  0  0  0  0
  1  6  2  0
  2  3  2  0
  2  1  1  0
  3  4  1  0
  4  5  2  0
  6  5  1  0
  7  1  1  0
  8  3  1  0
  2  9  1  0
  5 10  1  0
  7 11  1  0
  7 12  1  0
  8 13  1  0
  8 14  1  0
M  ISO  2   9  14  10  14
M  END
>  <minimizedAffinity>  (1) 
-3.34269857

>  <minimizedRMSD>  (1) 
0.0429179408

$$$$
