
     RDKit          3D

 23 25  0  0  0  0  0  0  0  0999 V2000
   45.1110   35.9190   43.6660 C   0  0  0  0  0  0  0  0  0  0  0  0
   45.9870   34.9430   43.1540 C   0  0  0  0  0  0  0  0  0  0  0  0
   46.2970   33.8430   43.9940 C   0  0  0  0  0  0  0  0  0  0  0  0
   45.7360   33.7960   45.2310 N   0  0  0  0  0  0  0  0  0  0  0  0
   44.9090   34.7550   45.6680 C   0  0  0  0  0  0  0  0  0  0  0  0
   44.5950   35.8030   44.9070 N   0  0  0  0  0  0  0  0  0  0  0  0
   44.7180   37.0650   42.9410 N   0  0  0  0  0  0  0  0  0  0  0  0
   47.1810   32.8610   43.4680 N   0  0  0  0  0  0  0  0  0  0  0  0
   46.9670   31.5470   43.3010 C   0  0  0  0  0  0  0  0  0  0  0  0
   48.0730   30.9950   42.7720 N   0  0  0  0  0  0  0  0  0  0  0  0
   48.9900   31.9580   42.6020 C   0  0  0  0  0  0  0  0  0  0  0  0
   50.2930   32.0120   42.1120 C   0  0  0  0  0  0  0  0  0  0  0  0
   50.9250   33.2020   42.0950 N   0  0  0  0  0  0  0  0  0  0  0  0
   50.3900   34.3550   42.5200 C   0  0  0  0  0  0  0  0  0  0  0  0
   49.1150   34.3250   43.0030 N   0  0  0  0  0  0  0  0  0  0  0  0
   48.4350   33.1430   43.0390 C   0  0  0  0  0  0  0  0  0  0  0  0
   46.4136   35.0300   42.1438 H   0  0  0  0  0  0  0  0  0  0  0  0
   44.4795   34.6757   46.6776 H   0  0  0  0  0  0  0  0  0  0  0  0
   45.0739   37.2177   41.9866 H   0  0  0  0  0  0  0  0  0  0  0  0
   44.0754   37.7483   43.3665 H   0  0  0  0  0  0  0  0  0  0  0  0
   46.0408   31.0106   43.5547 H   0  0  0  0  0  0  0  0  0  0  0  0
   50.7947   31.1036   41.7472 H   0  0  0  0  0  0  0  0  0  0  0  0
   50.9606   35.2946   42.4805 H   0  0  0  0  0  0  0  0  0  0  0  0
  1  6  2  0
  2  1  1  0
  2  3  2  0
  3  4  1  0
  4  5  2  0
  6  5  1  0
  7  1  1  0
  8  3  1  0
  9  8  1  0
 10  9  2  0
 11 10  1  0
 11 16  2  0
 12 11  1  0
 13 12  2  0
 13 14  1  0
 14 15  2  0
 15 16  1  0
 16  8  1  0
  2 17  1  0
  5 18  1  0
  7 19  1  0
  7 20  1  0
  9 21  1  0
 12 22  1  0
 14 23  1  0
M  ISO  5  17  14  18  14  21  14  22  14  23  14
M  END
>  <minimizedAffinity>  (1) 
-4.78196859

>  <minimizedRMSD>  (1) 
1.95911348

$$$$
