
     RDKit          3D

 15 15  0  0  0  0  0  0  0  0999 V2000
   44.9220   35.1540   44.0030 C   0  0  0  0  0  0  0  0  0  0  0  0
   45.7730   35.4110   42.9230 C   0  0  0  0  0  0  0  0  0  0  0  0
   46.9740   34.6890   42.8530 C   0  0  0  0  0  0  0  0  0  0  0  0
   47.2460   33.7820   43.8310 N   0  0  0  0  0  0  0  0  0  0  0  0
   46.4030   33.5660   44.8470 C   0  0  0  0  0  0  0  0  0  0  0  0
   45.2430   34.2440   44.9420 N   0  0  0  0  0  0  0  0  0  0  0  0
   43.6740   35.7960   44.2210 N   0  0  0  0  0  0  0  0  0  0  0  0
   47.7950   35.0310   41.6850 C   0  0  0  0  0  0  0  0  0  0  0  0
   45.5098   36.1534   42.1552 H   0  0  0  0  0  0  0  0  0  0  0  0
   46.6610   32.8235   45.6165 H   0  0  0  0  0  0  0  0  0  0  0  0
   43.3388   36.5089   43.5575 H   0  0  0  0  0  0  0  0  0  0  0  0
   43.1042   35.5486   45.0426 H   0  0  0  0  0  0  0  0  0  0  0  0
   48.7617   35.4337   42.0216 H   0  0  0  0  0  0  0  0  0  0  0  0
   47.9646   34.1287   41.0791 H   0  0  0  0  0  0  0  0  0  0  0  0
   47.2739   35.7869   41.0791 H   0  0  0  0  0  0  0  0  0  0  0  0
  1  7  1  0
  1  6  2  0
  2  1  1  0
  3  2  2  0
  3  4  1  0
  4  5  2  0
  5  6  1  0
  8  3  1  0
  2  9  1  0
  5 10  1  0
  7 11  1  0
  7 12  1  0
  8 13  1  0
  8 14  1  0
  8 15  1  0
M  ISO  5   9  14  10  14  13   8  14   8  15   8
M  END
>  <minimizedAffinity>  (1) 
-3.67456675

>  <minimizedRMSD>  (1) 
0.811363399

$$$$
