
     RDKit          3D

 26 28  0  0  0  0  0  0  0  0999 V2000
   46.9670   34.8530   42.0600 N   0  0  0  0  0  0  0  0  0  0  0  0
   48.2490   35.1990   41.8940 C   0  0  0  0  0  0  0  0  0  0  0  0
   48.6390   34.8200   40.6640 N   0  0  0  0  0  0  0  0  0  0  0  0
   47.5980   34.2270   40.0420 C   0  0  0  0  0  0  0  0  0  0  0  0
   47.3880   33.6480   38.8010 C   0  0  0  0  0  0  0  0  0  0  0  0
   46.1660   33.1410   38.5300 N   0  0  0  0  0  0  0  0  0  0  0  0
   45.1390   33.1570   39.3780 C   0  0  0  0  0  0  0  0  0  0  0  0
   45.3180   33.7200   40.6040 N   0  0  0  0  0  0  0  0  0  0  0  0
   46.5290   34.2440   40.9240 C   0  0  0  0  0  0  0  0  0  0  0  0
   45.4250   34.2610   45.3730 C   0  0  0  0  0  0  0  0  0  0  0  0
   46.2370   34.0910   44.2350 C   0  0  0  0  0  0  0  0  0  0  0  0
   46.1370   35.0510   43.1920 C   0  0  0  0  0  0  0  0  0  0  0  0
   45.2620   36.0800   43.3500 N   0  0  0  0  0  0  0  0  0  0  0  0
   44.5060   36.2010   44.4560 C   0  0  0  0  0  0  0  0  0  0  0  0
   44.5760   35.3190   45.4520 N   0  0  0  0  0  0  0  0  0  0  0  0
   45.4310   33.3830   46.4700 N   0  0  0  0  0  0  0  0  0  0  0  0
   43.8040   32.5710   39.0000 C   0  0  0  0  0  0  0  0  0  0  0  0
   43.9950   31.2900   38.5280 F   0  0  0  0  0  0  0  0  0  0  0  0
   43.0170   32.4660   40.1510 F   0  0  0  0  0  0  0  0  0  0  0  0
   43.1400   33.3820   38.1350 F   0  0  0  0  0  0  0  0  0  0  0  0
   48.8784   35.7081   42.6388 H   0  0  0  0  0  0  0  0  0  0  0  0
   48.1957   33.6024   38.0557 H   0  0  0  0  0  0  0  0  0  0  0  0
   46.9288   33.2395   44.1557 H   0  0  0  0  0  0  0  0  0  0  0  0
   43.8120   37.0502   44.5402 H   0  0  0  0  0  0  0  0  0  0  0  0
   46.0532   32.5622   46.4693 H   0  0  0  0  0  0  0  0  0  0  0  0
   44.8132   33.5602   47.2748 H   0  0  0  0  0  0  0  0  0  0  0  0
  1 12  1  0
  2  1  1  0
  3  2  2  0
  4  3  1  0
  4  9  2  0
  5  4  1  0
  6  5  2  0
  6  7  1  0
  7  8  2  0
  8  9  1  0
  9  1  1  0
 10 15  2  0
 10 16  1  0
 11 10  1  0
 12 13  1  0
 12 11  2  0
 13 14  2  0
 14 15  1  0
 17  7  1  0
 17 19  1  0
 18 17  1  0
 20 17  1  0
  2 21  1  0
  5 22  1  0
 11 23  1  0
 14 24  1  0
 16 25  1  0
 16 26  1  0
M  ISO  4  21  14  22  14  23  14  24  14
M  END
>  <minimizedAffinity>  (1) 
-5.40001583

>  <minimizedRMSD>  (1) 
5.41051388

$$$$
