
     RDKit          3D

 26 28  0  0  0  0  0  0  0  0999 V2000
   47.0080   32.7120   44.0270 N   0  0  0  0  0  0  0  0  0  0  0  0
   47.3220   31.5830   44.6610 C   0  0  0  0  0  0  0  0  0  0  0  0
   48.1900   30.8820   43.8970 N   0  0  0  0  0  0  0  0  0  0  0  0
   48.4210   31.5860   42.7690 C   0  0  0  0  0  0  0  0  0  0  0  0
   49.1990   31.3830   41.6430 C   0  0  0  0  0  0  0  0  0  0  0  0
   49.1860   32.3260   40.6850 N   0  0  0  0  0  0  0  0  0  0  0  0
   48.4670   33.4570   40.7470 C   0  0  0  0  0  0  0  0  0  0  0  0
   47.6970   33.6760   41.8400 N   0  0  0  0  0  0  0  0  0  0  0  0
   47.6810   32.7380   42.8430 C   0  0  0  0  0  0  0  0  0  0  0  0
   45.0280   35.8390   43.9390 C   0  0  0  0  0  0  0  0  0  0  0  0
   45.8970   34.8050   43.5160 C   0  0  0  0  0  0  0  0  0  0  0  0
   46.1360   33.7630   44.4350 C   0  0  0  0  0  0  0  0  0  0  0  0
   45.5240   33.8150   45.6570 N   0  0  0  0  0  0  0  0  0  0  0  0
   44.7140   34.8210   45.9960 C   0  0  0  0  0  0  0  0  0  0  0  0
   44.4620   35.8280   45.1530 N   0  0  0  0  0  0  0  0  0  0  0  0
   44.7120   36.9380   43.1070 N   0  0  0  0  0  0  0  0  0  0  0  0
   48.4560   34.4770   39.7060 C   0  0  0  0  0  0  0  0  0  0  0  0
   47.9570   34.2860   38.5680 O   0  0  0  0  0  0  0  0  0  0  0  0
   49.0050   35.7380   39.9170 O   0  0  0  0  0  0  0  0  0  0  0  0
   46.9383   31.2723   45.6440 H   0  0  0  0  0  0  0  0  0  0  0  0
   49.8110   30.4754   41.5347 H   0  0  0  0  0  0  0  0  0  0  0  0
   46.3628   34.8140   42.5195 H   0  0  0  0  0  0  0  0  0  0  0  0
   44.2438   34.8214   46.9904 H   0  0  0  0  0  0  0  0  0  0  0  0
   45.1169   37.0018   42.1621 H   0  0  0  0  0  0  0  0  0  0  0  0
   44.0769   37.6747   43.4459 H   0  0  0  0  0  0  0  0  0  0  0  0
   48.9852   36.4138   39.1938 H   0  0  0  0  0  0  0  0  0  0  0  0
  1 12  1  0
  1  2  1  0
  3  2  2  0
  4  9  2  0
  4  3  1  0
  5  4  1  0
  6  7  1  0
  6  5  2  0
  7  8  2  0
  8  9  1  0
  9  1  1  0
 10 15  2  0
 11 10  1  0
 11 12  2  0
 12 13  1  0
 13 14  2  0
 15 14  1  0
 16 10  1  0
 17 19  1  0
 17  7  1  0
 18 17  2  0
  2 20  1  0
  5 21  1  0
 11 22  1  0
 14 23  1  0
 16 24  1  0
 16 25  1  0
 19 26  1  0
M  ISO  5  20  14  21  14  22  14  23  14  26   3
M  END
>  <minimizedAffinity>  (1) 
-5.24446964

>  <minimizedRMSD>  (1) 
2.11605215

$$$$
