
     RDKit          3D

 34 37  0  0  0  0  0  0  0  0999 V2000
   46.5830   32.3850   46.4790 N   0  0  0  0  0  0  0  0  0  0  0  0
   47.2450   32.6120   47.6290 C   0  0  0  0  0  0  0  0  0  0  0  0
   47.1990   31.4840   48.3690 N   0  0  0  0  0  0  0  0  0  0  0  0
   46.5170   30.5510   47.6970 C   0  0  0  0  0  0  0  0  0  0  0  0
   46.1480   29.2330   47.9360 C   0  0  0  0  0  0  0  0  0  0  0  0
   45.4430   28.5920   47.0030 N   0  0  0  0  0  0  0  0  0  0  0  0
   45.0530   29.1170   45.8390 C   0  0  0  0  0  0  0  0  0  0  0  0
   45.3990   30.4110   45.5750 N   0  0  0  0  0  0  0  0  0  0  0  0
   46.1210   31.1050   46.5010 C   0  0  0  0  0  0  0  0  0  0  0  0
   45.0100   35.0150   44.4250 C   0  0  0  0  0  0  0  0  0  0  0  0
   45.2440   34.1180   45.4760 C   0  0  0  0  0  0  0  0  0  0  0  0
   46.3750   33.2780   45.4050 C   0  0  0  0  0  0  0  0  0  0  0  0
   47.1620   33.3970   44.3200 N   0  0  0  0  0  0  0  0  0  0  0  0
   46.9190   34.2570   43.3350 C   0  0  0  0  0  0  0  0  0  0  0  0
   45.8650   35.0610   43.3680 N   0  0  0  0  0  0  0  0  0  0  0  0
   43.9010   35.9090   44.3890 N   0  0  0  0  0  0  0  0  0  0  0  0
   44.2730   28.2960   44.8930 C   0  0  0  0  0  0  0  0  0  0  0  0
   43.0250   27.7220   45.4770 C   0  0  0  0  0  0  0  0  0  0  0  0
   41.8910   28.5050   44.9060 C   0  0  0  0  0  0  0  0  0  0  0  0
   40.6610   28.5830   45.4410 N   0  0  0  0  0  0  0  0  0  0  0  0
   39.9140   29.3430   44.7010 O   0  0  0  0  0  0  0  0  0  0  0  0
   40.5990   29.7950   43.6630 C   0  0  0  0  0  0  0  0  0  0  0  0
   41.8450   29.2730   43.7850 N   0  0  0  0  0  0  0  0  0  0  0  0
   47.7376   33.5528   47.9157 H   0  0  0  0  0  0  0  0  0  0  0  0
   46.4307   28.7302   48.8726 H   0  0  0  0  0  0  0  0  0  0  0  0
   44.5611   34.0700   46.3370 H   0  0  0  0  0  0  0  0  0  0  0  0
   47.6054   34.3022   42.4766 H   0  0  0  0  0  0  0  0  0  0  0  0
   43.7795   36.5470   43.5895 H   0  0  0  0  0  0  0  0  0  0  0  0
   43.2208   35.9172   45.1624 H   0  0  0  0  0  0  0  0  0  0  0  0
   44.9081   27.4662   44.5492 H   0  0  0  0  0  0  0  0  0  0  0  0
   43.9653   28.9603   44.0720 H   0  0  0  0  0  0  0  0  0  0  0  0
   42.9302   26.6609   45.2029 H   0  0  0  0  0  0  0  0  0  0  0  0
   43.0360   27.7812   46.5754 H   0  0  0  0  0  0  0  0  0  0  0  0
   40.2331   30.4579   42.8651 H   0  0  0  0  0  0  0  0  0  0  0  0
  1  9  1  0
  1  2  1  0
  2  3  2  0
  4  5  2  0
  4  3  1  0
  6  5  1  0
  7  6  2  0
  8  7  1  0
  8  9  2  0
  9  4  1  0
 10 11  2  0
 12 11  1  0
 12  1  1  0
 13 12  2  0
 14 15  2  0
 14 13  1  0
 15 10  1  0
 16 10  1  0
 17 18  1  0
 17  7  1  0
 19 20  2  0
 19 18  1  0
 21 20  1  0
 22 23  2  0
 22 21  1  0
 23 19  1  0
  2 24  1  0
  5 25  1  0
 11 26  1  0
 14 27  1  0
 16 28  1  0
 16 29  1  0
 17 30  1  0
 17 31  1  0
 18 32  1  0
 18 33  1  0
 22 34  1  0
M  ISO  8  24  14  25  14  26  14  27  14  30   8  31   8  32   8  33   8
M  ISO  1  34  14
M  END
>  <minimizedAffinity>  (1) 
-5.39726925

>  <minimizedRMSD>  (1) 
7.97123814

$$$$
