
     RDKit          3D

 46 49  0  0  1  0  0  0  0  0999 V2000
   47.1810   32.3050   44.5990 C   0  0  0  0  0  0  0  0  0  0  0  0
   46.6960   33.5610   44.1270 C   0  0  0  0  0  0  0  0  0  0  0  0
   45.7880   34.1980   44.9620 C   0  0  0  0  0  0  0  0  0  0  0  0
   45.4200   33.6280   46.1330 N   0  0  0  0  0  0  0  0  0  0  0  0
   45.9090   32.4410   46.5300 C   0  0  0  0  0  0  0  0  0  0  0  0
   46.7730   31.7790   45.7910 N   0  0  0  0  0  0  0  0  0  0  0  0
   47.2350   33.9520   42.8640 C   0  0  0  0  0  0  0  0  0  0  0  0
   48.3490   34.7200   42.9680 N   0  0  0  0  0  0  0  0  0  0  0  0
   48.9960   35.1810   41.8750 C   0  0  0  0  0  0  0  0  0  0  0  0
   48.5650   34.9010   40.6110 N   0  0  0  0  0  0  0  0  0  0  0  0
   47.4590   34.1390   40.4710 C   0  0  0  0  0  0  0  0  0  0  0  0
   46.9030   33.7730   39.2490 C   0  0  0  0  0  0  0  0  0  0  0  0
   45.7890   33.0070   39.1360 C   0  0  0  0  0  0  0  0  0  0  0  0
   45.1710   32.5640   40.2830 C   0  0  0  0  0  0  0  0  0  0  0  0
   45.6620   32.8850   41.5200 C   0  0  0  0  0  0  0  0  0  0  0  0
   46.8080   33.6750   41.5760 C   0  0  0  0  0  0  0  0  0  0  0  0
   45.4660   31.9040   47.8080 C   0  0  1  0  0  0  0  0  0  0  0  0
   45.2100   30.3630   47.7250 C   0  0  0  0  0  0  0  0  0  0  0  0
   46.3990   32.1560   48.9490 C   0  0  0  0  0  0  0  0  0  0  0  0
   47.2500   31.1100   49.0510 O   0  0  0  0  0  0  0  0  0  0  0  0
   48.5940   30.9820   48.7690 C   0  0  0  0  0  0  0  0  0  0  0  0
   49.0430   30.1720   47.9130 O   0  0  0  0  0  0  0  0  0  0  0  0
   49.4770   31.7890   49.4670 O   0  0  0  0  0  0  0  0  0  0  0  0
   50.2130   31.1650   50.5640 C   0  0  0  0  0  0  0  0  0  0  0  0
   51.1080   31.9020   51.3240 C   0  0  0  0  0  0  0  0  0  0  0  0
   51.7670   31.2460   52.3440 C   0  0  0  0  0  0  0  0  0  0  0  0
   51.4750   29.9110   52.5140 C   0  0  0  0  0  0  0  0  0  0  0  0
   50.5880   29.1660   51.7640 C   0  0  0  0  0  0  0  0  0  0  0  0
   49.9660   29.8440   50.7800 N   0  0  0  0  0  0  0  0  0  0  0  0
   47.9030   31.7454   43.9861 H   0  0  0  0  0  0  0  0  0  0  0  0
   45.3656   35.1709   44.6703 H   0  0  0  0  0  0  0  0  0  0  0  0
   49.8958   35.7996   42.0080 H   0  0  0  0  0  0  0  0  0  0  0  0
   47.3917   34.1226   38.3276 H   0  0  0  0  0  0  0  0  0  0  0  0
   45.3873   32.7449   38.1461 H   0  0  0  0  0  0  0  0  0  0  0  0
   44.2674   31.9416   40.2046 H   0  0  0  0  0  0  0  0  0  0  0  0
   45.1689   32.5315   42.4375 H   0  0  0  0  0  0  0  0  0  0  0  0
   44.5333   32.4499   48.0131 H   0  0  0  0  0  0  0  0  0  0  0  0
   45.1410   29.9475   48.7412 H   0  0  0  0  0  0  0  0  0  0  0  0
   44.2685   30.1761   47.1877 H   0  0  0  0  0  0  0  0  0  0  0  0
   46.0405   29.8818   47.1877 H   0  0  0  0  0  0  0  0  0  0  0  0
   46.9676   33.0795   48.7654 H   0  0  0  0  0  0  0  0  0  0  0  0
   45.8283   32.2679   49.8827 H   0  0  0  0  0  0  0  0  0  0  0  0
   51.2861   32.9685   51.1219 H   0  0  0  0  0  0  0  0  0  0  0  0
   52.4906   31.7646   52.9900 H   0  0  0  0  0  0  0  0  0  0  0  0
   51.9999   29.3875   53.3267 H   0  0  0  0  0  0  0  0  0  0  0  0
   50.4028   28.0987   51.9553 H   0  0  0  0  0  0  0  0  0  0  0  0
  1  6  2  0
  2  1  1  0
  2  3  2  0
  3  4  1  0
  4  5  2  0
  5 17  1  0
  6  5  1  0
  7  8  2  0
  7  2  1  0
  9  8  1  0
 10  9  2  0
 11 10  1  0
 11 16  2  0
 12 11  1  0
 13 12  2  0
 13 14  1  0
 14 15  2  0
 15 16  1  0
 16  7  1  0
 17 19  1  0
 18 17  1  0
 19 20  1  0
 21 20  1  0
 21 23  1  0
 22 21  2  0
 23 24  1  0
 24 29  1  0
 24 25  2  0
 25 26  1  0
 26 27  2  0
 28 27  1  0
 29 28  2  0
  1 30  1  0
  3 31  1  0
  9 32  1  0
 12 33  1  0
 13 34  1  0
 14 35  1  0
 15 36  1  0
 17 37  1  1
 18 38  1  0
 18 39  1  0
 18 40  1  0
 19 41  1  0
 19 42  1  0
 25 43  1  0
 26 44  1  0
 27 45  1  0
 28 46  1  0
M  ISO  8  30  14  31  14  32  14  33  14  34  14  35  14  36  14  37   8
M  ISO  8  38   8  39   8  40   8  41   8  42   8  43  14  44  14  45  14
M  ISO  1  46  14
M  END
>  <minimizedAffinity>  (1) 
-6.04257393

>  <minimizedRMSD>  (1) 
4.80880928

$$$$
