
     RDKit          3D

 44 47  0  0  1  0  0  0  0  0999 V2000
   47.1880   32.4200   44.5450 C   0  0  0  0  0  0  0  0  0  0  0  0
   46.6730   33.6480   44.0480 C   0  0  0  0  0  0  0  0  0  0  0  0
   45.7430   34.2730   44.8640 C   0  0  0  0  0  0  0  0  0  0  0  0
   45.3840   33.7130   46.0410 N   0  0  0  0  0  0  0  0  0  0  0  0
   45.9030   32.5480   46.4630 C   0  0  0  0  0  0  0  0  0  0  0  0
   46.7910   31.8950   45.7450 N   0  0  0  0  0  0  0  0  0  0  0  0
   47.2110   34.0310   42.7830 C   0  0  0  0  0  0  0  0  0  0  0  0
   48.3090   34.8310   42.8890 N   0  0  0  0  0  0  0  0  0  0  0  0
   48.9600   35.2920   41.7930 C   0  0  0  0  0  0  0  0  0  0  0  0
   48.5510   34.9830   40.5270 N   0  0  0  0  0  0  0  0  0  0  0  0
   47.4570   34.1880   40.3840 C   0  0  0  0  0  0  0  0  0  0  0  0
   46.9300   33.7920   39.1710 C   0  0  0  0  0  0  0  0  0  0  0  0
   45.8330   32.9940   39.0600 C   0  0  0  0  0  0  0  0  0  0  0  0
   45.2170   32.5590   40.2040 C   0  0  0  0  0  0  0  0  0  0  0  0
   45.6890   32.9130   41.4380 C   0  0  0  0  0  0  0  0  0  0  0  0
   46.8070   33.7260   41.4980 C   0  0  0  0  0  0  0  0  0  0  0  0
   45.4680   32.0210   47.7480 C   0  0  1  0  0  0  0  0  0  0  0  0
   45.1700   30.4910   47.6720 C   0  0  0  0  0  0  0  0  0  0  0  0
   46.4190   32.2530   48.8780 C   0  0  0  0  0  0  0  0  0  0  0  0
   47.2310   31.1750   48.9870 O   0  0  0  0  0  0  0  0  0  0  0  0
   48.5630   30.9880   48.6760 C   0  0  0  0  0  0  0  0  0  0  0  0
   48.9550   30.1380   47.8260 O   0  0  0  0  0  0  0  0  0  0  0  0
   49.4910   31.7690   49.3320 O   0  0  0  0  0  0  0  0  0  0  0  0
   50.1930   31.2450   50.4990 C   0  0  0  0  0  0  0  0  0  0  0  0
   51.1650   31.8150   51.3270 C   0  0  0  0  0  0  0  0  0  0  0  0
   51.4410   30.8340   52.2580 C   0  0  0  0  0  0  0  0  0  0  0  0
   50.6860   29.7410   52.0080 N   0  0  0  0  0  0  0  0  0  0  0  0
   49.9450   30.0140   50.9470 N   0  0  0  0  0  0  0  0  0  0  0  0
   47.9305   31.8733   43.9451 H   0  0  0  0  0  0  0  0  0  0  0  0
   45.2953   35.2283   44.5527 H   0  0  0  0  0  0  0  0  0  0  0  0
   49.8434   35.9336   41.9271 H   0  0  0  0  0  0  0  0  0  0  0  0
   47.4206   34.1383   38.2493 H   0  0  0  0  0  0  0  0  0  0  0  0
   45.4484   32.7039   38.0711 H   0  0  0  0  0  0  0  0  0  0  0  0
   44.3286   31.9147   40.1288 H   0  0  0  0  0  0  0  0  0  0  0  0
   45.1944   32.5617   42.3556 H   0  0  0  0  0  0  0  0  0  0  0  0
   44.5524   32.5909   47.9643 H   0  0  0  0  0  0  0  0  0  0  0  0
   45.0903   30.0820   48.6900 H   0  0  0  0  0  0  0  0  0  0  0  0
   44.2232   30.3280   47.1362 H   0  0  0  0  0  0  0  0  0  0  0  0
   45.9864   29.9846   47.1362 H   0  0  0  0  0  0  0  0  0  0  0  0
   47.0209   33.1516   48.6774 H   0  0  0  0  0  0  0  0  0  0  0  0
   45.8612   32.3998   49.8147 H   0  0  0  0  0  0  0  0  0  0  0  0
   51.6093   32.8185   51.2531 H   0  0  0  0  0  0  0  0  0  0  0  0
   52.1662   30.9276   53.0797 H   0  0  0  0  0  0  0  0  0  0  0  0
   50.6875   28.8610   52.5432 H   0  0  0  0  0  0  0  0  0  0  0  0
  1  6  2  0
  2  1  1  0
  2  3  2  0
  3  4  1  0
  4  5  2  0
  5 17  1  0
  6  5  1  0
  7  8  2  0
  7  2  1  0
  9  8  1  0
 10  9  2  0
 11 10  1  0
 11 16  2  0
 12 11  1  0
 13 12  2  0
 13 14  1  0
 14 15  2  0
 15 16  1  0
 16  7  1  0
 17 19  1  0
 18 17  1  0
 19 20  1  0
 21 20  1  0
 21 23  1  0
 22 21  2  0
 23 24  1  0
 24 28  2  0
 24 25  1  0
 25 26  2  0
 27 26  1  0
 28 27  1  0
  1 29  1  0
  3 30  1  0
  9 31  1  0
 12 32  1  0
 13 33  1  0
 14 34  1  0
 15 35  1  0
 17 36  1  1
 18 37  1  0
 18 38  1  0
 18 39  1  0
 19 40  1  0
 19 41  1  0
 25 42  1  0
 26 43  1  0
 27 44  1  0
M  ISO  8  29  14  30  14  31  14  32  14  33  14  34  14  35  14  36   8
M  ISO  8  37   8  38   8  39   8  40   8  41   8  42  14  43  14  44   9
M  END
>  <minimizedAffinity>  (1) 
-5.90114164

>  <minimizedRMSD>  (1) 
4.46793032

$$$$
