
     RDKit          3D

 44 47  0  0  1  0  0  0  0  0999 V2000
   47.2830   32.5050   44.5700 C   0  0  0  0  0  0  0  0  0  0  0  0
   46.7000   33.6720   44.0290 C   0  0  0  0  0  0  0  0  0  0  0  0
   45.7260   34.2710   44.8240 C   0  0  0  0  0  0  0  0  0  0  0  0
   45.3890   33.7450   46.0220 N   0  0  0  0  0  0  0  0  0  0  0  0
   45.9800   32.6300   46.4850 C   0  0  0  0  0  0  0  0  0  0  0  0
   46.9090   32.0060   45.7920 N   0  0  0  0  0  0  0  0  0  0  0  0
   47.2080   34.0520   42.7530 C   0  0  0  0  0  0  0  0  0  0  0  0
   48.2780   34.8830   42.8270 N   0  0  0  0  0  0  0  0  0  0  0  0
   48.9020   35.3520   41.7270 C   0  0  0  0  0  0  0  0  0  0  0  0
   48.4880   35.0160   40.4780 N   0  0  0  0  0  0  0  0  0  0  0  0
   47.4230   34.1880   40.3540 C   0  0  0  0  0  0  0  0  0  0  0  0
   46.8910   33.7580   39.1480 C   0  0  0  0  0  0  0  0  0  0  0  0
   45.8230   32.9270   39.0640 C   0  0  0  0  0  0  0  0  0  0  0  0
   45.2250   32.4800   40.2250 C   0  0  0  0  0  0  0  0  0  0  0  0
   45.7040   32.8680   41.4470 C   0  0  0  0  0  0  0  0  0  0  0  0
   46.8020   33.7200   41.4820 C   0  0  0  0  0  0  0  0  0  0  0  0
   45.5800   32.1170   47.7910 C   0  0  1  0  0  0  0  0  0  0  0  0
   45.1140   30.6290   47.6920 C   0  0  0  0  0  0  0  0  0  0  0  0
   46.6320   32.2110   48.8470 C   0  0  0  0  0  0  0  0  0  0  0  0
   47.1470   30.9800   49.0510 O   0  0  0  0  0  0  0  0  0  0  0  0
   48.4320   30.4920   48.9630 C   0  0  0  0  0  0  0  0  0  0  0  0
   48.9770   30.1750   47.8740 O   0  0  0  0  0  0  0  0  0  0  0  0
   49.1620   30.3380   50.1110 O   0  0  0  0  0  0  0  0  0  0  0  0
   50.1750   31.3020   50.4900 C   0  0  0  0  0  0  0  0  0  0  0  0
   51.0660   31.3890   51.4950 C   0  0  0  0  0  0  0  0  0  0  0  0
   51.7560   32.5880   51.2730 C   0  0  0  0  0  0  0  0  0  0  0  0
   51.2400   33.1650   50.1360 C   0  0  0  0  0  0  0  0  0  0  0  0
   50.3000   32.3610   49.7050 O   0  0  0  0  0  0  0  0  0  0  0  0
   48.0600   31.9806   43.9945 H   0  0  0  0  0  0  0  0  0  0  0  0
   45.2244   35.1845   44.4719 H   0  0  0  0  0  0  0  0  0  0  0  0
   49.7663   36.0222   41.8443 H   0  0  0  0  0  0  0  0  0  0  0  0
   47.3575   34.1076   38.2152 H   0  0  0  0  0  0  0  0  0  0  0  0
   45.4378   32.6129   38.0827 H   0  0  0  0  0  0  0  0  0  0  0  0
   44.3569   31.8069   40.1677 H   0  0  0  0  0  0  0  0  0  0  0  0
   45.2329   32.5152   42.3763 H   0  0  0  0  0  0  0  0  0  0  0  0
   44.7513   32.7722   48.0973 H   0  0  0  0  0  0  0  0  0  0  0  0
   44.9850   30.2171   48.7038 H   0  0  0  0  0  0  0  0  0  0  0  0
   44.1574   30.5796   47.1513 H   0  0  0  0  0  0  0  0  0  0  0  0
   45.8716   30.0427   47.1513 H   0  0  0  0  0  0  0  0  0  0  0  0
   47.4274   32.8959   48.5181 H   0  0  0  0  0  0  0  0  0  0  0  0
   46.1950   32.5955   49.7804 H   0  0  0  0  0  0  0  0  0  0  0  0
   51.2196   30.6722   52.3151 H   0  0  0  0  0  0  0  0  0  0  0  0
   52.5656   32.9951   51.8965 H   0  0  0  0  0  0  0  0  0  0  0  0
   51.5548   34.1146   49.6787 H   0  0  0  0  0  0  0  0  0  0  0  0
  1  6  2  0
  2  1  1  0
  2  3  2  0
  3  4  1  0
  4  5  2  0
  5 17  1  0
  6  5  1  0
  7  8  2  0
  7  2  1  0
  9  8  1  0
 10  9  2  0
 11 10  1  0
 11 16  2  0
 12 11  1  0
 13 12  2  0
 13 14  1  0
 14 15  2  0
 15 16  1  0
 16  7  1  0
 17 19  1  0
 18 17  1  0
 19 20  1  0
 21 20  1  0
 21 23  1  0
 22 21  2  0
 23 24  1  0
 24 25  2  0
 26 25  1  0
 27 26  2  0
 28 27  1  0
 28 24  1  0
  1 29  1  0
  3 30  1  0
  9 31  1  0
 12 32  1  0
 13 33  1  0
 14 34  1  0
 15 35  1  0
 17 36  1  1
 18 37  1  0
 18 38  1  0
 18 39  1  0
 19 40  1  0
 19 41  1  0
 25 42  1  0
 26 43  1  0
 27 44  1  0
M  ISO  8  29  14  30  14  31  14  32  14  33  14  34  14  35  14  36   8
M  ISO  8  37   8  38   8  39   8  40   8  41   8  42  14  43  14  44  14
M  END
>  <minimizedAffinity>  (1) 
-5.83818245

>  <minimizedRMSD>  (1) 
4.73759079

$$$$
