
     RDKit          3D

 30 32  0  0  0  0  0  0  0  0999 V2000
   46.8650   32.0180   44.4680 N   0  0  0  0  0  0  0  0  0  0  0  0
   46.7860   30.6730   44.3640 C   0  0  0  0  0  0  0  0  0  0  0  0
   47.7420   30.2640   43.5150 N   0  0  0  0  0  0  0  0  0  0  0  0
   48.4180   31.3220   43.0840 C   0  0  0  0  0  0  0  0  0  0  0  0
   49.4830   31.5370   42.2220 C   0  0  0  0  0  0  0  0  0  0  0  0
   49.9130   32.7800   42.0190 N   0  0  0  0  0  0  0  0  0  0  0  0
   49.3990   33.8890   42.5890 C   0  0  0  0  0  0  0  0  0  0  0  0
   48.3550   33.6980   43.4370 N   0  0  0  0  0  0  0  0  0  0  0  0
   47.8780   32.4510   43.6780 C   0  0  0  0  0  0  0  0  0  0  0  0
   44.6860   34.8570   45.3620 C   0  0  0  0  0  0  0  0  0  0  0  0
   45.4780   33.9910   44.6040 C   0  0  0  0  0  0  0  0  0  0  0  0
   46.0620   32.8910   45.2500 C   0  0  0  0  0  0  0  0  0  0  0  0
   45.8230   32.7310   46.5760 N   0  0  0  0  0  0  0  0  0  0  0  0
   45.0590   33.5800   47.2720 C   0  0  0  0  0  0  0  0  0  0  0  0
   44.4940   34.6290   46.6870 N   0  0  0  0  0  0  0  0  0  0  0  0
   44.0420   36.0020   44.8330 N   0  0  0  0  0  0  0  0  0  0  0  0
   49.9800   35.1910   42.2690 C   0  0  0  0  0  0  0  0  0  0  0  0
   49.1140   36.0050   41.3420 C   0  0  0  0  0  0  0  0  0  0  0  0
   48.2730   35.1950   40.6040 O   0  0  0  0  0  0  0  0  0  0  0  0
   46.0642   30.0262   44.8843 H   0  0  0  0  0  0  0  0  0  0  0  0
   49.9664   30.6905   41.7123 H   0  0  0  0  0  0  0  0  0  0  0  0
   45.6393   34.1668   43.5302 H   0  0  0  0  0  0  0  0  0  0  0  0
   44.8964   33.4062   48.3459 H   0  0  0  0  0  0  0  0  0  0  0  0
   44.1444   36.2355   43.8351 H   0  0  0  0  0  0  0  0  0  0  0  0
   43.4712   36.6013   45.4462 H   0  0  0  0  0  0  0  0  0  0  0  0
   50.1191   35.7532   43.2042 H   0  0  0  0  0  0  0  0  0  0  0  0
   50.9359   35.0100   41.7557 H   0  0  0  0  0  0  0  0  0  0  0  0
   48.5079   36.7032   41.9379 H   0  0  0  0  0  0  0  0  0  0  0  0
   49.7671   36.5537   40.6474 H   0  0  0  0  0  0  0  0  0  0  0  0
   47.7129   34.6556   41.2167 H   0  0  0  0  0  0  0  0  0  0  0  0
  1 12  1  0
  2  1  1  0
  3  2  2  0
  4  3  1  0
  4  9  2  0
  5  4  1  0
  6  5  2  0
  6  7  1  0
  7  8  2  0
  8  9  1  0
  9  1  1  0
 10 15  2  0
 11 12  2  0
 11 10  1  0
 12 13  1  0
 13 14  2  0
 15 14  1  0
 16 10  1  0
 17  7  1  0
 18 17  1  0
 19 18  1  0
  2 20  1  0
  5 21  1  0
 11 22  1  0
 14 23  1  0
 16 24  1  0
 16 25  1  0
 17 26  1  0
 17 27  1  0
 18 28  1  0
 18 29  1  0
 19 30  1  0
M  ISO  8  20  14  21  14  22  14  23  14  26   8  27   8  28   8  29   8
M  ISO  1  30   3
M  END
>  <minimizedAffinity>  (1) 
-4.39982605

>  <minimizedRMSD>  (1) 
0.43424511

$$$$
