
     RDKit          3D

 45 49  0  0  0  0  0  0  0  0999 V2000
   50.3050   28.6310   45.0920 N   0  0  0  0  0  0  0  0  0  0  0  0
   50.7720   27.7610   44.1530 C   0  0  0  0  0  0  0  0  0  0  0  0
   49.9640   27.8350   43.0720 N   0  0  0  0  0  0  0  0  0  0  0  0
   49.0090   28.7340   43.3240 C   0  0  0  0  0  0  0  0  0  0  0  0
   47.9120   29.2350   42.6140 C   0  0  0  0  0  0  0  0  0  0  0  0
   47.1550   30.1500   43.2010 N   0  0  0  0  0  0  0  0  0  0  0  0
   47.3310   30.6580   44.4280 C   0  0  0  0  0  0  0  0  0  0  0  0
   48.3940   30.1830   45.1360 N   0  0  0  0  0  0  0  0  0  0  0  0
   49.2120   29.2400   44.5870 C   0  0  0  0  0  0  0  0  0  0  0  0
   50.6050   28.6400   48.7640 C   0  0  0  0  0  0  0  0  0  0  0  0
   50.1070   28.4100   47.4780 C   0  0  0  0  0  0  0  0  0  0  0  0
   50.8360   28.8830   46.3750 C   0  0  0  0  0  0  0  0  0  0  0  0
   51.9860   29.5400   46.6300 N   0  0  0  0  0  0  0  0  0  0  0  0
   52.4510   29.7540   47.8610 C   0  0  0  0  0  0  0  0  0  0  0  0
   51.7760   29.3140   48.9220 N   0  0  0  0  0  0  0  0  0  0  0  0
   49.9770   28.2220   49.9510 N   0  0  0  0  0  0  0  0  0  0  0  0
   46.4030   31.6790   44.9460 C   0  0  0  0  0  0  0  0  0  0  0  0
   46.9360   33.0650   44.8430 C   0  0  0  0  0  0  0  0  0  0  0  0
   47.1340   33.5570   43.4830 C   0  0  0  0  0  0  0  0  0  0  0  0
   48.4080   33.9210   43.1000 C   0  0  0  0  0  0  0  0  0  0  0  0
   48.6230   34.4110   41.8260 C   0  0  0  0  0  0  0  0  0  0  0  0
   47.6320   34.5650   40.8800 C   0  0  0  0  0  0  0  0  0  0  0  0
   46.3770   34.1760   41.3390 C   0  0  0  0  0  0  0  0  0  0  0  0
   45.3160   34.2920   40.4410 C   0  0  0  0  0  0  0  0  0  0  0  0
   44.0390   33.9350   40.7770 C   0  0  0  0  0  0  0  0  0  0  0  0
   43.7420   33.4330   42.0400 C   0  0  0  0  0  0  0  0  0  0  0  0
   44.7920   33.3180   42.9270 C   0  0  0  0  0  0  0  0  0  0  0  0
   46.0750   33.6790   42.5880 C   0  0  0  0  0  0  0  0  0  0  0  0
   51.6535   27.1113   44.2567 H   0  0  0  0  0  0  0  0  0  0  0  0
   47.6850   28.8794   41.5981 H   0  0  0  0  0  0  0  0  0  0  0  0
   49.1608   27.8681   47.3328 H   0  0  0  0  0  0  0  0  0  0  0  0
   53.3973   30.2969   48.0015 H   0  0  0  0  0  0  0  0  0  0  0  0
   49.0866   27.7060   49.9084 H   0  0  0  0  0  0  0  0  0  0  0  0
   50.4075   28.4318   50.8629 H   0  0  0  0  0  0  0  0  0  0  0  0
   45.4657   31.6218   44.3731 H   0  0  0  0  0  0  0  0  0  0  0  0
   46.2490   31.4675   46.0144 H   0  0  0  0  0  0  0  0  0  0  0  0
   46.2295   33.7394   45.3490 H   0  0  0  0  0  0  0  0  0  0  0  0
   47.9331   33.0431   45.3071 H   0  0  0  0  0  0  0  0  0  0  0  0
   49.2474   33.8219   43.8040 H   0  0  0  0  0  0  0  0  0  0  0  0
   49.6488   34.6960   41.5494 H   0  0  0  0  0  0  0  0  0  0  0  0
   47.8143   34.9548   39.8677 H   0  0  0  0  0  0  0  0  0  0  0  0
   45.5122   34.6826   39.4316 H   0  0  0  0  0  0  0  0  0  0  0  0
   43.2335   34.0467   40.0362 H   0  0  0  0  0  0  0  0  0  0  0  0
   42.7184   33.1416   42.3181 H   0  0  0  0  0  0  0  0  0  0  0  0
   44.5973   32.9257   43.9360 H   0  0  0  0  0  0  0  0  0  0  0  0
  1 12  1  0
  2  1  1  0
  3  4  1  0
  3  2  2  0
  4  9  2  0
  5  6  2  0
  5  4  1  0
  6  7  1  0
  7 17  1  0
  7  8  2  0
  9  1  1  0
  9  8  1  0
 10 15  2  0
 10 16  1  0
 11 10  1  0
 12 13  1  0
 12 11  2  0
 13 14  2  0
 14 15  1  0
 18 17  1  0
 19 18  1  0
 20 19  2  0
 21 20  1  0
 22 23  1  0
 22 21  2  0
 23 28  2  0
 24 25  2  0
 24 23  1  0
 25 26  1  0
 26 27  2  0
 28 27  1  0
 28 19  1  0
  2 29  1  0
  5 30  1  0
 11 31  1  0
 14 32  1  0
 16 33  1  0
 16 34  1  0
 17 35  1  0
 17 36  1  0
 18 37  1  0
 18 38  1  0
 20 39  1  0
 21 40  1  0
 22 41  1  0
 24 42  1  0
 25 43  1  0
 26 44  1  0
 27 45  1  0
M  ISO  8  29  14  30  14  31  14  32  14  35   8  36   8  37   8  38   8
M  ISO  7  39  14  40  14  41  14  42  14  43  14  44  14  45  14
M  END
>  <minimizedAffinity>  (1) 
-4.22032452

>  <minimizedRMSD>  (1) 
6.36548901

$$$$
