
     RDKit          3D

 36 39  0  0  0  0  0  0  0  0999 V2000
   46.8840   32.2200   44.8540 N   0  0  0  0  0  0  0  0  0  0  0  0
   47.0880   31.0010   45.4080 C   0  0  0  0  0  0  0  0  0  0  0  0
   47.9970   30.3320   44.6580 N   0  0  0  0  0  0  0  0  0  0  0  0
   48.3640   31.1180   43.6390 C   0  0  0  0  0  0  0  0  0  0  0  0
   49.2300   31.0050   42.5680 C   0  0  0  0  0  0  0  0  0  0  0  0
   49.3430   32.0280   41.7260 N   0  0  0  0  0  0  0  0  0  0  0  0
   48.6780   33.2000   41.8140 C   0  0  0  0  0  0  0  0  0  0  0  0
   47.8240   33.3320   42.8560 N   0  0  0  0  0  0  0  0  0  0  0  0
   47.6700   32.3130   43.7500 C   0  0  0  0  0  0  0  0  0  0  0  0
   44.8250   35.2640   44.7820 C   0  0  0  0  0  0  0  0  0  0  0  0
   45.6730   34.2360   44.3760 C   0  0  0  0  0  0  0  0  0  0  0  0
   46.0240   33.2440   45.3010 C   0  0  0  0  0  0  0  0  0  0  0  0
   45.5150   33.3460   46.5370 N   0  0  0  0  0  0  0  0  0  0  0  0
   44.7020   34.3370   46.9190 C   0  0  0  0  0  0  0  0  0  0  0  0
   44.3570   35.2920   46.0500 N   0  0  0  0  0  0  0  0  0  0  0  0
   44.3920   36.3260   43.9530 N   0  0  0  0  0  0  0  0  0  0  0  0
   48.9260   34.2200   40.7980 C   0  0  0  0  0  0  0  0  0  0  0  0
   47.8540   34.2550   39.7430 C   0  0  0  0  0  0  0  0  0  0  0  0
   48.3210   33.6690   38.5000 N   0  0  0  0  0  0  0  0  0  0  0  0
   48.9180   32.4840   38.2710 C   0  0  0  0  0  0  0  0  0  0  0  0
   49.1420   32.4480   36.9000 C   0  0  0  0  0  0  0  0  0  0  0  0
   48.6760   33.6040   36.3700 N   0  0  0  0  0  0  0  0  0  0  0  0
   48.1620   34.3680   37.3630 C   0  0  0  0  0  0  0  0  0  0  0  0
   46.5977   30.6180   46.3152 H   0  0  0  0  0  0  0  0  0  0  0  0
   49.8149   30.0860   42.4149 H   0  0  0  0  0  0  0  0  0  0  0  0
   46.0603   34.2037   43.3469 H   0  0  0  0  0  0  0  0  0  0  0  0
   44.3171   34.3660   47.9490 H   0  0  0  0  0  0  0  0  0  0  0  0
   44.7053   36.3750   42.9730 H   0  0  0  0  0  0  0  0  0  0  0  0
   43.7635   37.0499   44.3296 H   0  0  0  0  0  0  0  0  0  0  0  0
   48.9701   35.2034   41.2888 H   0  0  0  0  0  0  0  0  0  0  0  0
   49.8758   33.9729   40.3013 H   0  0  0  0  0  0  0  0  0  0  0  0
   46.9806   33.6897   40.1002 H   0  0  0  0  0  0  0  0  0  0  0  0
   47.5859   35.3049   39.5538 H   0  0  0  0  0  0  0  0  0  0  0  0
   49.1735   31.7106   39.0103 H   0  0  0  0  0  0  0  0  0  0  0  0
   49.6146   31.6254   36.3432 H   0  0  0  0  0  0  0  0  0  0  0  0
   47.7050   35.3632   37.2596 H   0  0  0  0  0  0  0  0  0  0  0  0
  1 12  1  0
  1  2  1  0
  3  2  2  0
  4  9  2  0
  4  3  1  0
  5  4  1  0
  6  7  1  0
  6  5  2  0
  7  8  2  0
  8  9  1  0
  9  1  1  0
 10 15  2  0
 11 10  1  0
 11 12  2  0
 12 13  1  0
 13 14  2  0
 15 14  1  0
 16 10  1  0
 17  7  1  0
 18 17  1  0
 19 18  1  0
 20 19  1  0
 21 20  2  0
 22 21  1  0
 22 23  2  0
 23 19  1  0
  2 24  1  0
  5 25  1  0
 11 26  1  0
 14 27  1  0
 16 28  1  0
 16 29  1  0
 17 30  1  0
 17 31  1  0
 18 32  1  0
 18 33  1  0
 20 34  1  0
 21 35  1  0
 23 36  1  0
M  ISO  8  24  14  25  14  26  14  27  14  30   8  31   8  32   8  33   8
M  ISO  3  34  14  35  14  36  14
M  END
>  <minimizedAffinity>  (1) 
-4.80330944

>  <minimizedRMSD>  (1) 
1.4879142

$$$$
