
     RDKit          3D

 29 29  0  0  0  0  0  0  0  0999 V2000
   45.1920   36.3630   43.7310 C   0  0  0  0  0  0  0  0  0  0  0  0
   46.0770   35.4620   43.0920 C   0  0  0  0  0  0  0  0  0  0  0  0
   46.3320   34.2230   43.6930 C   0  0  0  0  0  0  0  0  0  0  0  0
   45.7090   33.9530   44.8690 N   0  0  0  0  0  0  0  0  0  0  0  0
   44.8640   34.8250   45.4690 C   0  0  0  0  0  0  0  0  0  0  0  0
   44.6140   36.0230   44.8920 N   0  0  0  0  0  0  0  0  0  0  0  0
   44.9220   37.6250   43.1330 N   0  0  0  0  0  0  0  0  0  0  0  0
   45.2230   38.8490   43.8200 C   0  0  0  0  0  0  0  0  0  0  0  0
   45.0720   38.8300   45.1210 N   0  0  0  0  0  0  0  0  0  0  0  0
   45.6570   39.9720   43.0400 N   0  0  0  0  0  0  0  0  0  0  0  0
   45.2900   39.7190   45.6300 H   0  0  0  0  0  0  0  0  0  0  0  0
   47.2340   33.2220   43.1090 C   0  0  0  0  0  0  0  0  0  0  0  0
   46.5730   32.6840   41.8440 C   0  0  0  0  0  0  0  0  0  0  0  0
   47.3360   32.0480   44.0670 C   0  0  0  0  0  0  0  0  0  0  0  0
   48.6250   33.6940   42.8410 C   0  0  0  0  0  0  0  0  0  0  0  0
   46.5566   35.7305   42.1391 H   0  0  0  0  0  0  0  0  0  0  0  0
   44.3827   34.5602   46.4220 H   0  0  0  0  0  0  0  0  0  0  0  0
   44.5040   37.6612   42.1923 H   0  0  0  0  0  0  0  0  0  0  0  0
   45.8808   40.8647   43.5026 H   0  0  0  0  0  0  0  0  0  0  0  0
   45.7448   39.8857   42.0174 H   0  0  0  0  0  0  0  0  0  0  0  0
   45.7470   32.0117   42.1194 H   0  0  0  0  0  0  0  0  0  0  0  0
   46.1807   33.5227   41.2502 H   0  0  0  0  0  0  0  0  0  0  0  0
   47.3146   32.1296   41.2502 H   0  0  0  0  0  0  0  0  0  0  0  0
   47.3040   32.4163   45.1030 H   0  0  0  0  0  0  0  0  0  0  0  0
   46.4942   31.3609   43.8959 H   0  0  0  0  0  0  0  0  0  0  0  0
   48.2837   31.5164   43.8959 H   0  0  0  0  0  0  0  0  0  0  0  0
   49.1429   33.8697   43.7954 H   0  0  0  0  0  0  0  0  0  0  0  0
   49.1670   32.9295   42.2651 H   0  0  0  0  0  0  0  0  0  0  0  0
   48.5898   34.6305   42.2651 H   0  0  0  0  0  0  0  0  0  0  0  0
  1  6  2  0
  2  3  2  0
  2  1  1  0
  3  4  1  0
  4  5  2  0
  6  5  1  0
  7  1  1  0
  7  8  1  0
  8  9  2  0
  9 11  1  0
 10  8  1  0
 12  3  1  0
 12 14  1  0
 13 12  1  0
 15 12  1  0
  2 16  1  0
  5 17  1  0
  7 18  1  0
 10 19  1  0
 10 20  1  0
 13 21  1  0
 13 22  1  0
 13 23  1  0
 14 24  1  0
 14 25  1  0
 14 26  1  0
 15 27  1  0
 15 28  1  0
 15 29  1  0
M  ISO  8  16  14  17  14  21   8  22   8  23   8  24   8  25   8  26   8
M  ISO  3  27   8  28   8  29   8
M  END
>  <minimizedAffinity>  (1) 
-4.75239372

>  <minimizedRMSD>  (1) 
1.65754235

$$$$
