
     RDKit          3D

 23 23  0  0  0  0  0  0  0  0999 V2000
   47.7120   34.4100   41.8920 C   0  0  0  0  0  0  0  0  0  0  0  0
   44.8610   35.0950   44.2930 C   0  0  0  0  0  0  0  0  0  0  0  0
   45.6470   35.1780   43.1280 C   0  0  0  0  0  0  0  0  0  0  0  0
   46.8200   34.3980   43.0610 C   0  0  0  0  0  0  0  0  0  0  0  0
   47.1380   33.6050   44.1190 N   0  0  0  0  0  0  0  0  0  0  0  0
   46.3460   33.5560   45.2270 C   0  0  0  0  0  0  0  0  0  0  0  0
   45.2170   34.2970   45.3100 N   0  0  0  0  0  0  0  0  0  0  0  0
   43.7210   35.8930   44.2850 O   0  0  0  0  0  0  0  0  0  0  0  0
   46.8480   34.2270   40.6470 C   0  0  0  0  0  0  0  0  0  0  0  0
   48.6100   33.1780   41.9530 C   0  0  0  0  0  0  0  0  0  0  0  0
   48.5940   35.6000   41.7640 C   0  0  0  0  0  0  0  0  0  0  0  0
   45.3545   35.8326   42.2938 H   0  0  0  0  0  0  0  0  0  0  0  0
   46.6289   32.9041   46.0666 H   0  0  0  0  0  0  0  0  0  0  0  0
   43.5187   36.4593   43.4986 H   0  0  0  0  0  0  0  0  0  0  0  0
   45.8129   34.0078   40.9480 H   0  0  0  0  0  0  0  0  0  0  0  0
   46.8681   35.1493   40.0479 H   0  0  0  0  0  0  0  0  0  0  0  0
   47.2403   33.3920   40.0479 H   0  0  0  0  0  0  0  0  0  0  0  0
   48.8014   32.9154   43.0039 H   0  0  0  0  0  0  0  0  0  0  0  0
   48.1122   32.3361   41.4495 H   0  0  0  0  0  0  0  0  0  0  0  0
   49.5638   33.3942   41.4495 H   0  0  0  0  0  0  0  0  0  0  0  0
   48.8647   35.9652   42.7657 H   0  0  0  0  0  0  0  0  0  0  0  0
   49.5065   35.3228   41.2158 H   0  0  0  0  0  0  0  0  0  0  0  0
   48.0634   36.3924   41.2158 H   0  0  0  0  0  0  0  0  0  0  0  0
  1 10  1  0
  1  4  1  0
  2  7  2  0
  3  2  1  0
  4  3  2  0
  4  5  1  0
  5  6  2  0
  6  7  1  0
  8  2  1  0
  9  1  1  0
 11  1  1  0
  3 12  1  0
  6 13  1  0
  8 14  1  0
  9 15  1  0
  9 16  1  0
  9 17  1  0
 10 18  1  0
 10 19  1  0
 10 20  1  0
 11 21  1  0
 11 22  1  0
 11 23  1  0
M  ISO  8  12  14  13  14  14   3  15   8  16   8  17   8  18   8  19   8
M  ISO  4  20   8  21   8  22   8  23   8
M  END
>  <minimizedAffinity>  (1) 
-4.42868328

>  <minimizedRMSD>  (1) 
0.814880252

$$$$
