
     RDKit          3D

 42 45  0  0  1  0  0  0  0  0999 V2000
   47.2710   32.4970   44.5760 C   0  0  0  0  0  0  0  0  0  0  0  0
   46.6860   33.6780   44.0440 C   0  0  0  0  0  0  0  0  0  0  0  0
   45.7190   34.2720   44.8400 C   0  0  0  0  0  0  0  0  0  0  0  0
   45.3870   33.7310   46.0350 N   0  0  0  0  0  0  0  0  0  0  0  0
   45.9700   32.6110   46.4940 C   0  0  0  0  0  0  0  0  0  0  0  0
   46.8960   31.9900   45.7940 N   0  0  0  0  0  0  0  0  0  0  0  0
   47.2040   34.0550   42.7700 C   0  0  0  0  0  0  0  0  0  0  0  0
   48.2820   34.8780   42.8500 N   0  0  0  0  0  0  0  0  0  0  0  0
   48.9070   35.3360   41.7400 C   0  0  0  0  0  0  0  0  0  0  0  0
   48.4950   35.0000   40.4870 N   0  0  0  0  0  0  0  0  0  0  0  0
   47.4250   34.1820   40.3660 C   0  0  0  0  0  0  0  0  0  0  0  0
   46.8940   33.7560   39.1610 C   0  0  0  0  0  0  0  0  0  0  0  0
   45.8090   32.9260   39.0750 C   0  0  0  0  0  0  0  0  0  0  0  0
   45.2160   32.4940   40.2330 C   0  0  0  0  0  0  0  0  0  0  0  0
   45.6920   32.8790   41.4570 C   0  0  0  0  0  0  0  0  0  0  0  0
   46.7940   33.7200   41.4900 C   0  0  0  0  0  0  0  0  0  0  0  0
   45.5640   32.0980   47.7920 C   0  0  1  0  0  0  0  0  0  0  0  0
   45.0810   30.6140   47.6940 C   0  0  0  0  0  0  0  0  0  0  0  0
   46.6100   32.1780   48.8540 C   0  0  0  0  0  0  0  0  0  0  0  0
   47.1230   30.9420   49.0500 O   0  0  0  0  0  0  0  0  0  0  0  0
   48.4070   30.4450   48.9460 C   0  0  0  0  0  0  0  0  0  0  0  0
   48.9110   30.0800   47.8460 O   0  0  0  0  0  0  0  0  0  0  0  0
   49.1540   30.3500   50.0980 O   0  0  0  0  0  0  0  0  0  0  0  0
   50.1420   31.3730   50.4220 C   0  0  0  0  0  0  0  0  0  0  0  0
   50.9170   31.3430   51.5390 N   0  0  0  0  0  0  0  0  0  0  0  0
   51.6760   32.4030   51.5040 O   0  0  0  0  0  0  0  0  0  0  0  0
   51.3950   33.0860   50.4040 C   0  0  0  0  0  0  0  0  0  0  0  0
   50.4180   32.4450   49.6990 N   0  0  0  0  0  0  0  0  0  0  0  0
   48.0457   31.9753   43.9950 H   0  0  0  0  0  0  0  0  0  0  0  0
   45.2180   35.1896   44.4978 H   0  0  0  0  0  0  0  0  0  0  0  0
   49.7757   36.0010   41.8543 H   0  0  0  0  0  0  0  0  0  0  0  0
   47.3659   34.1005   38.2290 H   0  0  0  0  0  0  0  0  0  0  0  0
   45.4202   32.6116   38.0952 H   0  0  0  0  0  0  0  0  0  0  0  0
   44.3431   31.8269   40.1775 H   0  0  0  0  0  0  0  0  0  0  0  0
   45.2153   32.5321   42.3857 H   0  0  0  0  0  0  0  0  0  0  0  0
   44.7409   32.7634   48.0915 H   0  0  0  0  0  0  0  0  0  0  0  0
   44.9476   30.2042   48.7061 H   0  0  0  0  0  0  0  0  0  0  0  0
   44.1238   30.5749   47.1535 H   0  0  0  0  0  0  0  0  0  0  0  0
   45.8318   30.0190   47.1535 H   0  0  0  0  0  0  0  0  0  0  0  0
   47.4087   32.8644   48.5362 H   0  0  0  0  0  0  0  0  0  0  0  0
   46.1678   32.5533   49.7887 H   0  0  0  0  0  0  0  0  0  0  0  0
   51.8769   34.0283   50.1040 H   0  0  0  0  0  0  0  0  0  0  0  0
  1  6  2  0
  2  1  1  0
  2  3  2  0
  3  4  1  0
  4  5  2  0
  5 17  1  0
  6  5  1  0
  7  8  2  0
  7  2  1  0
  9  8  1  0
 10  9  2  0
 11 10  1  0
 11 16  2  0
 12 11  1  0
 13 12  2  0
 13 14  1  0
 14 15  2  0
 15 16  1  0
 16  7  1  0
 17 19  1  0
 18 17  1  0
 19 20  1  0
 21 20  1  0
 21 23  1  0
 22 21  2  0
 23 24  1  0
 24 25  2  0
 26 25  1  0
 27 26  1  0
 28 27  2  0
 28 24  1  0
  1 29  1  0
  3 30  1  0
  9 31  1  0
 12 32  1  0
 13 33  1  0
 14 34  1  0
 15 35  1  0
 17 36  1  1
 18 37  1  0
 18 38  1  0
 18 39  1  0
 19 40  1  0
 19 41  1  0
 27 42  1  0
M  ISO  8  29  14  30  14  31  14  32  14  33  14  34  14  35  14  36   8
M  ISO  6  37   8  38   8  39   8  40   8  41   8  42  14
M  END
>  <minimizedAffinity>  (1) 
-5.75390005

>  <minimizedRMSD>  (1) 
4.73562193

$$$$
