
     RDKit          3D

 45 48  0  0  1  0  0  0  0  0999 V2000
   47.3340   32.6270   44.4390 C   0  0  0  0  0  0  0  0  0  0  0  0
   46.7020   33.7640   43.8610 C   0  0  0  0  0  0  0  0  0  0  0  0
   45.6990   34.3730   44.6480 C   0  0  0  0  0  0  0  0  0  0  0  0
   45.4030   33.8670   45.8610 N   0  0  0  0  0  0  0  0  0  0  0  0
   46.0360   32.7920   46.3490 C   0  0  0  0  0  0  0  0  0  0  0  0
   46.9890   32.1630   45.6730 N   0  0  0  0  0  0  0  0  0  0  0  0
   47.1890   34.1190   42.5670 C   0  0  0  0  0  0  0  0  0  0  0  0
   48.2190   35.0030   42.6070 N   0  0  0  0  0  0  0  0  0  0  0  0
   48.8080   35.4500   41.4670 C   0  0  0  0  0  0  0  0  0  0  0  0
   48.3980   35.0380   40.2310 N   0  0  0  0  0  0  0  0  0  0  0  0
   47.3790   34.1600   40.1570 C   0  0  0  0  0  0  0  0  0  0  0  0
   46.8640   33.6580   38.9890 C   0  0  0  0  0  0  0  0  0  0  0  0
   45.8330   32.7690   38.9360 C   0  0  0  0  0  0  0  0  0  0  0  0
   45.2610   32.3400   40.1210 C   0  0  0  0  0  0  0  0  0  0  0  0
   45.7330   32.8070   41.3200 C   0  0  0  0  0  0  0  0  0  0  0  0
   46.7780   33.7050   41.3100 C   0  0  0  0  0  0  0  0  0  0  0  0
   45.6540   32.3110   47.6920 C   0  0  1  0  0  0  0  0  0  0  0  0
   45.0240   30.9010   47.6290 C   0  0  0  0  0  0  0  0  0  0  0  0
   46.7710   32.3000   48.6850 C   0  0  0  0  0  0  0  0  0  0  0  0
   47.2010   31.0180   48.8140 O   0  0  0  0  0  0  0  0  0  0  0  0
   48.4050   30.4280   48.5270 C   0  0  0  0  0  0  0  0  0  0  0  0
   48.6590   29.8590   47.4310 O   0  0  0  0  0  0  0  0  0  0  0  0
   49.3780   30.4760   49.5260 O   0  0  0  0  0  0  0  0  0  0  0  0
   49.9840   29.2520   49.9230 C   0  0  0  0  0  0  0  0  0  0  0  0
   50.2820   29.7200   51.2500 C   0  0  0  0  0  0  0  0  0  0  0  0
   50.9260   29.0240   52.3060 C   0  0  0  0  0  0  0  0  0  0  0  0
   51.3230   27.7330   52.0470 N   0  0  0  0  0  0  0  0  0  0  0  0
   51.0580   27.2380   50.7870 C   0  0  0  0  0  0  0  0  0  0  0  0
   50.4830   28.2130   50.2140 N   0  0  0  0  0  0  0  0  0  0  0  0
   48.1227   32.1086   43.8740 H   0  0  0  0  0  0  0  0  0  0  0  0
   45.1622   35.2564   44.2720 H   0  0  0  0  0  0  0  0  0  0  0  0
   49.6403   36.1654   41.5418 H   0  0  0  0  0  0  0  0  0  0  0  0
   47.3091   33.9925   38.0403 H   0  0  0  0  0  0  0  0  0  0  0  0
   45.4619   32.3989   37.9689 H   0  0  0  0  0  0  0  0  0  0  0  0
   44.4267   31.6234   40.1005 H   0  0  0  0  0  0  0  0  0  0  0  0
   45.2877   32.4725   42.2686 H   0  0  0  0  0  0  0  0  0  0  0  0
   44.9146   33.0449   48.0451 H   0  0  0  0  0  0  0  0  0  0  0  0
   44.8573   30.5279   48.6503 H   0  0  0  0  0  0  0  0  0  0  0  0
   44.0632   30.9522   47.0959 H   0  0  0  0  0  0  0  0  0  0  0  0
   45.7032   30.2194   47.0959 H   0  0  0  0  0  0  0  0  0  0  0  0
   47.5944   32.9365   48.3287 H   0  0  0  0  0  0  0  0  0  0  0  0
   46.4261   32.6884   49.6547 H   0  0  0  0  0  0  0  0  0  0  0  0
   49.9705   30.7506   51.4756 H   0  0  0  0  0  0  0  0  0  0  0  0
   51.0993   29.4947   53.2850 H   0  0  0  0  0  0  0  0  0  0  0  0
   51.2885   26.2427   50.3793 H   0  0  0  0  0  0  0  0  0  0  0  0
  1  6  2  0
  2  1  1  0
  2  3  2  0
  3  4  1  0
  4  5  2  0
  5 17  1  0
  6  5  1  0
  7  8  2  0
  7  2  1  0
  9  8  1  0
 10  9  2  0
 11 10  1  0
 11 16  2  0
 12 11  1  0
 13 12  2  0
 13 14  1  0
 14 15  2  0
 16 15  1  0
 16  7  1  0
 17 19  1  0
 18 17  1  0
 19 20  1  0
 21 20  1  0
 21 23  1  0
 22 21  2  0
 23 24  1  0
 24 29  1  0
 24 25  2  0
 25 26  1  0
 27 26  2  0
 28 27  1  0
 29 28  2  0
  1 30  1  0
  3 31  1  0
  9 32  1  0
 12 33  1  0
 13 34  1  0
 14 35  1  0
 15 36  1  0
 17 37  1  1
 18 38  1  0
 18 39  1  0
 18 40  1  0
 19 41  1  0
 19 42  1  0
 25 43  1  0
 26 44  1  0
 28 45  1  0
M  ISO  8  30  14  31  14  32  14  33  14  34  14  35  14  36  14  37   8
M  ISO  8  38   8  39   8  40   8  41   8  42   8  43  14  44  14  45  14
M  END
>  <minimizedAffinity>  (1) 
-5.7524209

>  <minimizedRMSD>  (1) 
4.34064388

$$$$
