
     RDKit          3D

 43 46  0  0  1  0  0  0  0  0999 V2000
   47.2530   32.4800   44.5760 C   0  0  0  0  0  0  0  0  0  0  0  0
   46.6800   33.6760   44.0490 C   0  0  0  0  0  0  0  0  0  0  0  0
   45.7200   34.2780   44.8490 C   0  0  0  0  0  0  0  0  0  0  0  0
   45.3820   33.7300   46.0410 N   0  0  0  0  0  0  0  0  0  0  0  0
   45.9530   32.6010   46.4920 C   0  0  0  0  0  0  0  0  0  0  0  0
   46.8730   31.9710   45.7900 N   0  0  0  0  0  0  0  0  0  0  0  0
   47.2050   34.0480   42.7760 C   0  0  0  0  0  0  0  0  0  0  0  0
   48.2950   34.8610   42.8640 N   0  0  0  0  0  0  0  0  0  0  0  0
   48.9280   35.3150   41.7570 C   0  0  0  0  0  0  0  0  0  0  0  0
   48.5150   34.9870   40.5050 N   0  0  0  0  0  0  0  0  0  0  0  0
   47.4280   34.1760   40.3750 C   0  0  0  0  0  0  0  0  0  0  0  0
   46.9010   33.7660   39.1750 C   0  0  0  0  0  0  0  0  0  0  0  0
   45.8210   32.9620   39.0750 C   0  0  0  0  0  0  0  0  0  0  0  0
   45.2070   32.5230   40.2330 C   0  0  0  0  0  0  0  0  0  0  0  0
   45.6790   32.8910   41.4610 C   0  0  0  0  0  0  0  0  0  0  0  0
   46.7950   33.7230   41.5020 C   0  0  0  0  0  0  0  0  0  0  0  0
   45.5410   32.0890   47.7900 C   0  0  1  0  0  0  0  0  0  0  0  0
   45.0760   30.6000   47.6970 C   0  0  0  0  0  0  0  0  0  0  0  0
   46.5840   32.1780   48.8590 C   0  0  0  0  0  0  0  0  0  0  0  0
   47.1140   30.9430   49.0450 O   0  0  0  0  0  0  0  0  0  0  0  0
   48.4180   30.4870   48.9630 C   0  0  0  0  0  0  0  0  0  0  0  0
   48.9630   30.1410   47.8910 O   0  0  0  0  0  0  0  0  0  0  0  0
   49.1480   30.4130   50.1430 O   0  0  0  0  0  0  0  0  0  0  0  0
   50.4960   30.9760   50.1870 C   0  0  0  0  0  0  0  0  0  0  0  0
   51.6870   30.3260   50.3170 C   0  0  0  0  0  0  0  0  0  0  0  0
   52.8090   31.8280   50.2740 S   0  0  0  0  0  0  0  0  0  0  0  0
   51.4870   32.9780   50.0990 C   0  0  0  0  0  0  0  0  0  0  0  0
   50.3250   32.2780   50.0760 N   0  0  0  0  0  0  0  0  0  0  0  0
   48.0209   31.9522   43.9915 H   0  0  0  0  0  0  0  0  0  0  0  0
   45.2309   35.2046   44.5141 H   0  0  0  0  0  0  0  0  0  0  0  0
   49.8040   35.9698   41.8748 H   0  0  0  0  0  0  0  0  0  0  0  0
   47.3833   34.1101   38.2482 H   0  0  0  0  0  0  0  0  0  0  0  0
   45.4364   32.6615   38.0892 H   0  0  0  0  0  0  0  0  0  0  0  0
   44.3259   31.8681   40.1647 H   0  0  0  0  0  0  0  0  0  0  0  0
   45.1946   32.5424   42.3850 H   0  0  0  0  0  0  0  0  0  0  0  0
   44.7094   32.7485   48.0789 H   0  0  0  0  0  0  0  0  0  0  0  0
   44.9485   30.1917   48.7104 H   0  0  0  0  0  0  0  0  0  0  0  0
   44.1188   30.5478   47.1576 H   0  0  0  0  0  0  0  0  0  0  0  0
   45.8334   30.0123   47.1576 H   0  0  0  0  0  0  0  0  0  0  0  0
   47.3739   32.8784   48.5498 H   0  0  0  0  0  0  0  0  0  0  0  0
   46.1351   32.5412   49.7953 H   0  0  0  0  0  0  0  0  0  0  0  0
   51.9179   29.2551   50.4161 H   0  0  0  0  0  0  0  0  0  0  0  0
   51.5858   34.0708   50.0219 H   0  0  0  0  0  0  0  0  0  0  0  0
  1  6  2  0
  2  1  1  0
  2  3  2  0
  3  4  1  0
  4  5  2  0
  5 17  1  0
  6  5  1  0
  7  8  2  0
  7  2  1  0
  9  8  1  0
 10  9  2  0
 11 10  1  0
 11 16  2  0
 12 11  1  0
 13 12  2  0
 13 14  1  0
 14 15  2  0
 15 16  1  0
 16  7  1  0
 17 19  1  0
 18 17  1  0
 19 20  1  0
 21 20  1  0
 21 23  1  0
 22 21  2  0
 23 24  1  0
 24 25  2  0
 26 25  1  0
 27 26  1  0
 28 27  2  0
 28 24  1  0
  1 29  1  0
  3 30  1  0
  9 31  1  0
 12 32  1  0
 13 33  1  0
 14 34  1  0
 15 35  1  0
 17 36  1  1
 18 37  1  0
 18 38  1  0
 18 39  1  0
 19 40  1  0
 19 41  1  0
 25 42  1  0
 27 43  1  0
M  ISO  8  29  14  30  14  31  14  32  14  33  14  34  14  35  14  36   8
M  ISO  7  37   8  38   8  39   8  40   8  41   8  42  14  43  14
M  END
>  <minimizedAffinity>  (1) 
-5.52345848

>  <minimizedRMSD>  (1) 
4.69741631

$$$$
