
     RDKit          3D

 43 46  0  0  1  0  0  0  0  0999 V2000
   47.9180   32.6790   41.3610 C   0  0  0  0  0  0  0  0  0  0  0  0
   47.7750   34.1040   41.4790 C   0  0  0  0  0  0  0  0  0  0  0  0
   44.0830   34.9010   41.2970 C   0  0  0  0  0  0  0  0  0  0  0  0
   45.3070   34.3080   40.9430 C   0  0  0  0  0  0  0  0  0  0  0  0
   46.4380   34.6440   41.7240 C   0  0  0  0  0  0  0  0  0  0  0  0
   46.2800   35.5170   42.7690 N   0  0  0  0  0  0  0  0  0  0  0  0
   45.0760   36.0510   43.0560 C   0  0  0  0  0  0  0  0  0  0  0  0
   43.9870   35.7520   42.3330 N   0  0  0  0  0  0  0  0  0  0  0  0
   42.9530   34.5050   40.4490 C   0  0  0  0  0  0  0  0  0  0  0  0
   42.3910   35.1710   39.6030 O   0  0  0  0  0  0  0  0  0  0  0  0
   48.7140   34.6940   42.5430 C   0  0  0  0  0  0  0  0  0  0  0  0
   48.3250   34.7040   40.1770 C   0  0  0  0  0  0  0  0  0  0  0  0
   47.8810   32.1160   42.6520 O   0  0  0  0  0  0  0  0  0  0  0  0
   47.0490   31.0250   42.5160 C   0  0  1  0  0  0  0  0  0  0  0  0
   47.1420   29.8540   43.3720 C   0  0  0  0  0  0  0  0  0  0  0  0
   46.1100   30.8530   43.7090 C   0  0  1  0  0  0  0  0  0  0  0  0
   46.2940   31.6930   44.8770 N   0  0  0  0  0  0  0  0  0  0  0  0
   45.8300   32.9690   45.0270 C   0  0  0  0  0  0  0  0  0  0  0  0
   46.1950   33.4400   46.2510 N   0  0  0  0  0  0  0  0  0  0  0  0
   46.8850   32.5000   46.8980 C   0  0  0  0  0  0  0  0  0  0  0  0
   47.5080   32.3530   48.1230 C   0  0  0  0  0  0  0  0  0  0  0  0
   48.1530   31.2410   48.5160 N   0  0  0  0  0  0  0  0  0  0  0  0
   48.1890   30.2000   47.6470 C   0  0  0  0  0  0  0  0  0  0  0  0
   47.5900   30.3200   46.4500 N   0  0  0  0  0  0  0  0  0  0  0  0
   46.9390   31.4200   46.0320 C   0  0  0  0  0  0  0  0  0  0  0  0
   47.0944   32.2726   40.7556 H   0  0  0  0  0  0  0  0  0  0  0  0
   48.8728   32.4360   40.8718 H   0  0  0  0  0  0  0  0  0  0  0  0
   45.3826   33.6120   40.0945 H   0  0  0  0  0  0  0  0  0  0  0  0
   44.9848   36.7477   43.9023 H   0  0  0  0  0  0  0  0  0  0  0  0
   42.5696   33.4846   40.5969 H   0  0  0  0  0  0  0  0  0  0  0  0
   48.3301   34.4528   43.5452 H   0  0  0  0  0  0  0  0  0  0  0  0
   49.7198   34.2653   42.4227 H   0  0  0  0  0  0  0  0  0  0  0  0
   48.7642   35.7862   42.4227 H   0  0  0  0  0  0  0  0  0  0  0  0
   49.0506   35.4955   40.4158 H   0  0  0  0  0  0  0  0  0  0  0  0
   48.8213   33.9163   39.5912 H   0  0  0  0  0  0  0  0  0  0  0  0
   47.4972   35.1301   39.5912 H   0  0  0  0  0  0  0  0  0  0  0  0
   47.0096   31.1197   41.4208 H   0  0  0  0  0  0  0  0  0  0  0  0
   46.8381   28.8717   42.9812 H   0  0  0  0  0  0  0  0  0  0  0  0
   47.9629   29.3884   43.9371 H   0  0  0  0  0  0  0  0  0  0  0  0
   45.0209   30.8420   43.8631 H   0  0  0  0  0  0  0  0  0  0  0  0
   45.2521   33.5282   44.2765 H   0  0  0  0  0  0  0  0  0  0  0  0
   47.4738   33.2015   48.8221 H   0  0  0  0  0  0  0  0  0  0  0  0
   48.7035   29.2667   47.9195 H   0  0  0  0  0  0  0  0  0  0  0  0
  1  2  1  0
  1 13  1  0
  2  5  1  0
  2 11  1  0
  3  8  2  0
  4  3  1  0
  4  5  2  0
  5  6  1  0
  6  7  2  0
  8  7  1  0
  9  3  1  0
 10  9  2  0
 12  2  1  0
 14 13  1  0
 14 15  1  0
 14 16  1  0
 15 16  1  0
 16 17  1  0
 17 18  1  0
 17 25  1  0
 18 19  2  0
 19 20  1  0
 20 21  2  0
 21 22  1  0
 23 22  2  0
 24 23  1  0
 25 24  2  0
 25 20  1  0
  1 26  1  0
  1 27  1  0
  4 28  1  0
  7 29  1  0
  9 30  1  0
 11 31  1  0
 11 32  1  0
 11 33  1  0
 12 34  1  0
 12 35  1  0
 12 36  1  0
 14 37  1  6
 15 38  1  0
 15 39  1  0
 16 40  1  6
 18 41  1  0
 21 42  1  0
 23 43  1  0
M  ISO  8  26   8  27   8  28  14  29  14  30   6  31   8  32   8  33   8
M  ISO  8  34   8  35   8  36   8  37  13  38  13  39  13  40  13  41  14
M  ISO  2  42  14  43  14
M  END
>  <minimizedAffinity>  (1) 
-5.11095047

>  <minimizedRMSD>  (1) 
4.27148771

$$$$
