
     RDKit          3D

 37 39  0  0  1  0  0  0  0  0999 V2000
   48.7870   34.3140   41.6980 C   0  0  0  0  0  0  0  0  0  0  0  0
   45.8190   34.5900   44.0220 C   0  0  0  0  0  0  0  0  0  0  0  0
   46.6840   34.9360   42.9730 C   0  0  0  0  0  0  0  0  0  0  0  0
   47.8010   34.0930   42.7550 C   0  0  0  0  0  0  0  0  0  0  0  0
   47.9650   33.0060   43.5710 N   0  0  0  0  0  0  0  0  0  0  0  0
   47.0860   32.7340   44.5670 C   0  0  0  0  0  0  0  0  0  0  0  0
   46.0320   33.5110   44.7890 N   0  0  0  0  0  0  0  0  0  0  0  0
   44.6750   35.5170   44.1810 C   0  0  0  0  0  0  0  0  0  0  0  0
   44.7170   36.6960   44.4740 O   0  0  0  0  0  0  0  0  0  0  0  0
   50.1450   33.8300   42.2280 C   0  0  0  0  0  0  0  0  0  0  0  0
   49.0070   35.8220   41.5270 C   0  0  0  0  0  0  0  0  0  0  0  0
   48.4920   33.7870   40.3860 C   0  0  0  0  0  0  0  0  0  0  0  0
   49.3700   32.7070   40.1480 O   0  0  0  0  0  0  0  0  0  0  0  0
   48.8360   32.0890   39.0390 C   0  0  1  0  0  0  0  0  0  0  0  0
   49.2350   32.4170   37.6780 C   0  0  0  0  0  0  0  0  0  0  0  0
   49.8620   31.2340   38.2920 C   0  0  1  0  0  0  0  0  0  0  0  0
   51.2800   31.2730   38.7540 C   0  0  0  0  0  0  0  0  0  0  0  0
   52.2710   31.8100   38.0070 N   0  0  0  0  0  0  0  0  0  0  0  0
   53.3840   31.7140   38.6340 O   0  0  0  0  0  0  0  0  0  0  0  0
   53.1760   31.1190   39.8000 C   0  0  0  0  0  0  0  0  0  0  0  0
   51.8590   30.8410   39.8770 N   0  0  0  0  0  0  0  0  0  0  0  0
   46.5027   35.8226   42.3477 H   0  0  0  0  0  0  0  0  0  0  0  0
   47.2492   31.8521   45.2039 H   0  0  0  0  0  0  0  0  0  0  0  0
   43.6746   35.0906   44.0153 H   0  0  0  0  0  0  0  0  0  0  0  0
   50.1321   33.8346   43.3279 H   0  0  0  0  0  0  0  0  0  0  0  0
   50.3362   32.8084   41.8678 H   0  0  0  0  0  0  0  0  0  0  0  0
   50.9392   34.5004   41.8678 H   0  0  0  0  0  0  0  0  0  0  0  0
   49.0763   36.2970   42.5167 H   0  0  0  0  0  0  0  0  0  0  0  0
   49.9400   35.9957   40.9708 H   0  0  0  0  0  0  0  0  0  0  0  0
   48.1625   36.2550   40.9708 H   0  0  0  0  0  0  0  0  0  0  0  0
   47.4497   33.4373   40.3487 H   0  0  0  0  0  0  0  0  0  0  0  0
   48.6238   34.5657   39.6203 H   0  0  0  0  0  0  0  0  0  0  0  0
   47.8412   32.0029   39.5004 H   0  0  0  0  0  0  0  0  0  0  0  0
   49.8408   33.3164   37.4932 H   0  0  0  0  0  0  0  0  0  0  0  0
   48.6802   32.5836   36.7429 H   0  0  0  0  0  0  0  0  0  0  0  0
   49.9728   30.1786   38.0023 H   0  0  0  0  0  0  0  0  0  0  0  0
   53.9361   30.8940   40.5626 H   0  0  0  0  0  0  0  0  0  0  0  0
  1 10  1  0
  1  4  1  0
  2  8  1  0
  2  7  2  0
  3  2  1  0
  4  3  2  0
  4  5  1  0
  5  6  2  0
  6  7  1  0
  8  9  2  0
 11  1  1  0
 12  1  1  0
 13 12  1  0
 14 13  1  0
 15 16  1  0
 15 14  1  0
 16 17  1  0
 16 14  1  0
 17 21  1  0
 18 19  1  0
 18 17  2  0
 19 20  1  0
 20 21  2  0
  3 22  1  0
  6 23  1  0
  8 24  1  0
 10 25  1  0
 10 26  1  0
 10 27  1  0
 11 28  1  0
 11 29  1  0
 11 30  1  0
 12 31  1  0
 12 32  1  0
 14 33  1  6
 15 34  1  0
 15 35  1  0
 16 36  1  6
 20 37  1  0
M  ISO  8  22  14  23  14  24   6  25   8  26   8  27   8  28   8  29   8
M  ISO  8  30   8  31   8  32   8  33  13  34  13  35  13  36  13  37  14
M  END
>  <minimizedAffinity>  (1) 
-4.76890755

>  <minimizedRMSD>  (1) 
3.86796498

$$$$
