
     RDKit          3D

 40 42  0  0  1  0  0  0  0  0999 V2000
   43.8550   32.5910   40.3530 C   0  0  0  0  0  0  0  0  0  0  0  0
   40.8860   34.7950   39.5540 C   0  0  0  0  0  0  0  0  0  0  0  0
   42.0400   34.3420   40.2130 C   0  0  0  0  0  0  0  0  0  0  0  0
   42.6500   33.1690   39.7590 C   0  0  0  0  0  0  0  0  0  0  0  0
   42.0930   32.5180   38.6920 N   0  0  0  0  0  0  0  0  0  0  0  0
   40.9710   32.9970   38.0850 C   0  0  0  0  0  0  0  0  0  0  0  0
   40.3830   34.1050   38.5040 N   0  0  0  0  0  0  0  0  0  0  0  0
   40.3090   36.0320   40.0930 C   0  0  0  0  0  0  0  0  0  0  0  0
   40.5410   36.5350   41.1820 O   0  0  0  0  0  0  0  0  0  0  0  0
   43.7720   31.0700   40.1890 C   0  0  0  0  0  0  0  0  0  0  0  0
   43.7840   32.7700   41.8770 C   0  0  0  0  0  0  0  0  0  0  0  0
   45.1300   33.1200   39.9380 C   0  0  0  0  0  0  0  0  0  0  0  0
   45.4920   34.1470   40.8330 O   0  0  0  0  0  0  0  0  0  0  0  0
   46.8620   34.0300   40.9300 C   0  0  1  0  0  0  0  0  0  0  0  0
   47.7340   35.1400   41.2810 C   0  0  0  0  0  0  0  0  0  0  0  0
   47.3560   34.2190   42.3690 C   0  0  1  0  0  0  0  0  0  0  0  0
   46.3660   34.6520   43.4080 C   0  0  0  0  0  0  0  0  0  0  0  0
   45.5850   35.7870   43.3310 C   0  0  0  0  0  0  0  0  0  0  0  0
   44.6940   36.1200   44.3280 C   0  0  0  0  0  0  0  0  0  0  0  0
   44.5770   35.3260   45.4060 N   0  0  0  0  0  0  0  0  0  0  0  0
   45.3270   34.2200   45.4960 C   0  0  0  0  0  0  0  0  0  0  0  0
   46.1820   33.9030   44.5360 N   0  0  0  0  0  0  0  0  0  0  0  0
   42.4547   34.8975   41.0671 H   0  0  0  0  0  0  0  0  0  0  0  0
   40.5460   32.4513   37.2297 H   0  0  0  0  0  0  0  0  0  0  0  0
   39.5922   36.5622   39.4487 H   0  0  0  0  0  0  0  0  0  0  0  0
   43.7461   30.5951   41.1809 H   0  0  0  0  0  0  0  0  0  0  0  0
   42.8583   30.8103   39.6342 H   0  0  0  0  0  0  0  0  0  0  0  0
   44.6520   30.7125   39.6342 H   0  0  0  0  0  0  0  0  0  0  0  0
   44.1464   31.8563   42.3708 H   0  0  0  0  0  0  0  0  0  0  0  0
   44.4122   33.6221   42.1758 H   0  0  0  0  0  0  0  0  0  0  0  0
   42.7425   32.9598   42.1758 H   0  0  0  0  0  0  0  0  0  0  0  0
   45.8884   32.3235   39.9585 H   0  0  0  0  0  0  0  0  0  0  0  0
   45.0629   33.5145   38.9134 H   0  0  0  0  0  0  0  0  0  0  0  0
   46.9158   33.3063   40.1033 H   0  0  0  0  0  0  0  0  0  0  0  0
   48.7716   35.1494   40.9160 H   0  0  0  0  0  0  0  0  0  0  0  0
   47.6649   36.2301   41.1509 H   0  0  0  0  0  0  0  0  0  0  0  0
   47.9049   33.6219   43.1121 H   0  0  0  0  0  0  0  0  0  0  0  0
   45.6759   36.4421   42.4520 H   0  0  0  0  0  0  0  0  0  0  0  0
   44.0822   37.0301   44.2421 H   0  0  0  0  0  0  0  0  0  0  0  0
   45.2316   33.5681   46.3768 H   0  0  0  0  0  0  0  0  0  0  0  0
  1 11  1  0
  2  8  1  0
  2  3  2  0
  4  3  1  0
  4  1  1  0
  5  4  2  0
  6  7  2  0
  6  5  1  0
  7  2  1  0
  8  9  2  0
 10  1  1  0
 12  1  1  0
 12 13  1  0
 13 14  1  0
 14 15  1  0
 14 16  1  0
 15 16  1  0
 16 17  1  0
 17 22  1  0
 18 17  2  0
 18 19  1  0
 19 20  2  0
 20 21  1  0
 22 21  2  0
  3 23  1  0
  6 24  1  0
  8 25  1  0
 10 26  1  0
 10 27  1  0
 10 28  1  0
 11 29  1  0
 11 30  1  0
 11 31  1  0
 12 32  1  0
 12 33  1  0
 14 34  1  6
 15 35  1  0
 15 36  1  0
 16 37  1  1
 18 38  1  0
 19 39  1  0
 21 40  1  0
M  ISO  8  23  14  24  14  25   6  26   8  27   8  28   8  29   8  30   8
M  ISO  8  31   8  32   8  33   8  34  13  35  13  36  13  37  13  38  14
M  ISO  2  39  14  40  14
M  END
>  <minimizedAffinity>  (1) 
-4.90893936

>  <minimizedRMSD>  (1) 
5.65663767

$$$$
