
     RDKit          3D

 48 51  0  0  1  0  0  0  0  0999 V2000
   48.5140   33.1300   41.6280 C   0  0  0  0  0  0  0  0  0  0  0  0
   47.9720   34.3790   41.1760 C   0  0  0  0  0  0  0  0  0  0  0  0
   44.2170   34.7890   41.3440 C   0  0  0  0  0  0  0  0  0  0  0  0
   45.4590   34.3910   40.8320 C   0  0  0  0  0  0  0  0  0  0  0  0
   46.6130   34.7320   41.5750 C   0  0  0  0  0  0  0  0  0  0  0  0
   46.4550   35.4260   42.7430 N   0  0  0  0  0  0  0  0  0  0  0  0
   45.2170   35.7830   43.1850 C   0  0  0  0  0  0  0  0  0  0  0  0
   44.1210   35.4730   42.5030 N   0  0  0  0  0  0  0  0  0  0  0  0
   43.0640   34.3970   40.5250 C   0  0  0  0  0  0  0  0  0  0  0  0
   42.4650   35.0790   39.7150 O   0  0  0  0  0  0  0  0  0  0  0  0
   48.8860   35.5620   41.5250 C   0  0  0  0  0  0  0  0  0  0  0  0
   48.0440   34.3420   39.6400 C   0  0  0  0  0  0  0  0  0  0  0  0
   49.9110   33.1640   41.5110 O   0  0  0  0  0  0  0  0  0  0  0  0
   50.2540   31.8640   41.2130 C   0  0  1  0  0  0  0  0  0  0  0  0
   50.0900   31.2790   39.8890 C   0  0  0  0  0  0  0  0  0  0  0  0
   51.4350   31.7840   40.2430 C   0  0  2  0  0  0  0  0  0  0  0  0
   52.5050   30.8050   40.5560 C   0  0  0  0  0  0  0  0  0  0  0  0
   52.5380   30.0930   41.7370 C   0  0  0  0  0  0  0  0  0  0  0  0
   53.5210   29.1780   42.0500 C   0  0  0  0  0  0  0  0  0  0  0  0
   54.5390   28.9580   41.1210 C   0  0  0  0  0  0  0  0  0  0  0  0
   54.5460   29.6500   39.9210 C   0  0  0  0  0  0  0  0  0  0  0  0
   55.5620   29.4230   39.0080 C   0  0  0  0  0  0  0  0  0  0  0  0
   55.5960   30.1040   37.7910 C   0  0  0  0  0  0  0  0  0  0  0  0
   54.5900   31.0100   37.5220 C   0  0  0  0  0  0  0  0  0  0  0  0
   53.5720   31.2410   38.4340 C   0  0  0  0  0  0  0  0  0  0  0  0
   53.5350   30.5650   39.6450 C   0  0  0  0  0  0  0  0  0  0  0  0
   48.2368   32.9679   42.6801 H   0  0  0  0  0  0  0  0  0  0  0  0
   48.1118   32.3095   41.0156 H   0  0  0  0  0  0  0  0  0  0  0  0
   45.5338   33.8336   39.8866 H   0  0  0  0  0  0  0  0  0  0  0  0
   45.1233   36.3408   44.1284 H   0  0  0  0  0  0  0  0  0  0  0  0
   42.6994   33.3679   40.6590 H   0  0  0  0  0  0  0  0  0  0  0  0
   48.9602   35.6580   42.6183 H   0  0  0  0  0  0  0  0  0  0  0  0
   49.8871   35.3887   41.1034 H   0  0  0  0  0  0  0  0  0  0  0  0
   48.4657   36.4870   41.1034 H   0  0  0  0  0  0  0  0  0  0  0  0
   48.9823   33.8598   39.3284 H   0  0  0  0  0  0  0  0  0  0  0  0
   47.1901   33.7710   39.2465 H   0  0  0  0  0  0  0  0  0  0  0  0
   48.0111   35.3687   39.2465 H   0  0  0  0  0  0  0  0  0  0  0  0
   49.9476   31.4978   42.2040 H   0  0  0  0  0  0  0  0  0  0  0  0
   49.4937   31.8096   39.1321 H   0  0  0  0  0  0  0  0  0  0  0  0
   49.7116   30.3120   39.5260 H   0  0  0  0  0  0  0  0  0  0  0  0
   52.1486   32.4897   39.7927 H   0  0  0  0  0  0  0  0  0  0  0  0
   51.7357   30.2646   42.4697 H   0  0  0  0  0  0  0  0  0  0  0  0
   53.5033   28.6357   43.0069 H   0  0  0  0  0  0  0  0  0  0  0  0
   55.3371   28.2340   41.3420 H   0  0  0  0  0  0  0  0  0  0  0  0
   56.3527   28.6961   39.2455 H   0  0  0  0  0  0  0  0  0  0  0  0
   56.4028   29.9238   37.0653 H   0  0  0  0  0  0  0  0  0  0  0  0
   54.5962   31.5578   36.5681 H   0  0  0  0  0  0  0  0  0  0  0  0
   52.7834   31.9696   38.1945 H   0  0  0  0  0  0  0  0  0  0  0  0
  2 11  1  0
  2  5  1  0
  2  1  1  0
  3  8  2  0
  4  3  1  0
  4  5  2  0
  5  6  1  0
  6  7  2  0
  8  7  1  0
  9  3  1  0
 10  9  2  0
 12  2  1  0
 13  1  1  0
 14 13  1  0
 15 16  1  0
 15 14  1  0
 16 17  1  0
 16 14  1  0
 17 18  2  0
 18 19  1  0
 20 19  2  0
 21 20  1  0
 22 21  2  0
 23 22  1  0
 24 23  2  0
 24 25  1  0
 25 26  2  0
 26 21  1  0
 26 17  1  0
  1 27  1  0
  1 28  1  0
  4 29  1  0
  7 30  1  0
  9 31  1  0
 11 32  1  0
 11 33  1  0
 11 34  1  0
 12 35  1  0
 12 36  1  0
 12 37  1  0
 14 38  1  1
 15 39  1  0
 15 40  1  0
 16 41  1  6
 18 42  1  0
 19 43  1  0
 20 44  1  0
 22 45  1  0
 23 46  1  0
 24 47  1  0
 25 48  1  0
M  ISO  8  27   8  28   8  29  14  30  14  31   6  32   8  33   8  34   8
M  ISO  8  35   8  36   8  37   8  38  13  39  13  40  13  41  13  42  14
M  ISO  6  43  14  44  14  45  14  46  14  47  14  48  14
M  END
>  <minimizedAffinity>  (1) 
-5.28250742

>  <minimizedRMSD>  (1) 
3.03453159

$$$$
