
     RDKit          3D

 44 46  0  0  1  0  0  0  0  0999 V2000
   48.3580   34.2990   41.5760 C   0  0  0  0  0  0  0  0  0  0  0  0
   45.7210   34.5800   44.2940 C   0  0  0  0  0  0  0  0  0  0  0  0
   46.4390   34.8980   43.1360 C   0  0  0  0  0  0  0  0  0  0  0  0
   47.5160   34.0920   42.7540 C   0  0  0  0  0  0  0  0  0  0  0  0
   47.8130   33.0180   43.5500 N   0  0  0  0  0  0  0  0  0  0  0  0
   47.0820   32.7510   44.6710 C   0  0  0  0  0  0  0  0  0  0  0  0
   46.0630   33.5080   45.0350 N   0  0  0  0  0  0  0  0  0  0  0  0
   44.6050   35.4800   44.6130 C   0  0  0  0  0  0  0  0  0  0  0  0
   44.6430   36.6960   44.6810 O   0  0  0  0  0  0  0  0  0  0  0  0
   49.4510   33.2750   41.5640 C   0  0  0  0  0  0  0  0  0  0  0  0
   49.0760   35.6440   41.7280 C   0  0  0  0  0  0  0  0  0  0  0  0
   47.6250   34.4070   40.2750 C   0  0  0  0  0  0  0  0  0  0  0  0
   48.3590   33.5770   39.3820 O   0  0  0  0  0  0  0  0  0  0  0  0
   48.2520   34.2540   38.1870 C   0  0  1  0  0  0  0  0  0  0  0  0
   48.8930   33.8020   36.9630 C   0  0  0  0  0  0  0  0  0  0  0  0
   47.4540   33.5120   37.1240 C   0  0  1  0  0  0  0  0  0  0  0  0
   47.1280   32.1200   37.3240 N   0  0  0  0  0  0  0  0  0  0  0  0
   47.0490   31.5360   35.9930 C   0  0  0  0  0  0  0  0  0  0  0  0
   45.7690   32.2040   35.4690 C   0  0  0  0  0  0  0  0  0  0  0  0
   45.0320   32.6880   36.7040 C   0  0  0  0  0  0  0  0  0  0  0  0
   45.7670   31.8890   37.7560 C   0  0  0  0  0  0  0  0  0  0  0  0
   46.1590   35.7736   42.5319 H   0  0  0  0  0  0  0  0  0  0  0  0
   47.3490   31.8809   45.2887 H   0  0  0  0  0  0  0  0  0  0  0  0
   43.6323   35.0063   44.8115 H   0  0  0  0  0  0  0  0  0  0  0  0
   49.7246   33.0186   42.5981 H   0  0  0  0  0  0  0  0  0  0  0  0
   49.1015   32.3717   41.0425 H   0  0  0  0  0  0  0  0  0  0  0  0
   50.3296   33.6826   41.0425 H   0  0  0  0  0  0  0  0  0  0  0  0
   49.1994   35.8751   42.7963 H   0  0  0  0  0  0  0  0  0  0  0  0
   50.0644   35.5883   41.2484 H   0  0  0  0  0  0  0  0  0  0  0  0
   48.4797   36.4342   41.2484 H   0  0  0  0  0  0  0  0  0  0  0  0
   46.5912   34.0461   40.3801 H   0  0  0  0  0  0  0  0  0  0  0  0
   47.5558   35.4455   39.9191 H   0  0  0  0  0  0  0  0  0  0  0  0
   48.2562   35.2293   38.6958 H   0  0  0  0  0  0  0  0  0  0  0  0
   49.6205   32.9780   37.0038 H   0  0  0  0  0  0  0  0  0  0  0  0
   49.4873   34.3022   36.1842 H   0  0  0  0  0  0  0  0  0  0  0  0
   46.5161   33.7187   36.5877 H   0  0  0  0  0  0  0  0  0  0  0  0
   47.9243   31.7999   35.3813 H   0  0  0  0  0  0  0  0  0  0  0  0
   47.0320   30.4363   35.9755 H   0  0  0  0  0  0  0  0  0  0  0  0
   46.0179   33.0510   34.8128 H   0  0  0  0  0  0  0  0  0  0  0  0
   45.1584   31.5082   34.8749 H   0  0  0  0  0  0  0  0  0  0  0  0
   45.1488   33.7714   36.8544 H   0  0  0  0  0  0  0  0  0  0  0  0
   43.9410   32.5489   36.6851 H   0  0  0  0  0  0  0  0  0  0  0  0
   45.5010   30.8222   37.7213 H   0  0  0  0  0  0  0  0  0  0  0  0
   45.5512   32.1744   38.7962 H   0  0  0  0  0  0  0  0  0  0  0  0
  1 11  1  0
  1  4  1  0
  2  8  1  0
  2  7  2  0
  3  2  1  0
  4  3  2  0
  4  5  1  0
  5  6  2  0
  6  7  1  0
  8  9  2  0
 10  1  1  0
 12  1  1  0
 13 12  1  0
 14 13  1  0
 15 16  1  0
 15 14  1  0
 16 17  1  0
 16 14  1  0
 17 18  1  0
 17 21  1  0
 19 18  1  0
 19 20  1  0
 20 21  1  0
  3 22  1  0
  6 23  1  0
  8 24  1  0
 10 25  1  0
 10 26  1  0
 10 27  1  0
 11 28  1  0
 11 29  1  0
 11 30  1  0
 12 31  1  0
 12 32  1  0
 14 33  1  1
 15 34  1  0
 15 35  1  0
 16 36  1  6
 18 37  1  0
 18 38  1  0
 19 39  1  0
 19 40  1  0
 20 41  1  0
 20 42  1  0
 21 43  1  0
 21 44  1  0
M  ISO  8  22  14  23  14  24   6  25   8  26   8  27   8  28   8  29   8
M  ISO  8  30   8  31   8  32   8  33  13  34  13  35  13  36  13  37  13
M  ISO  7  38  13  39  13  40  13  41  13  42  13  43  13  44  13
M  END
>  <minimizedAffinity>  (1) 
-4.74758959

>  <minimizedRMSD>  (1) 
5.69515419

$$$$
