
     RDKit          3D

 39 41  0  0  1  0  0  0  0  0999 V2000
   47.9540   34.3770   41.1750 C   0  0  0  0  0  0  0  0  0  0  0  0
   44.2000   34.7950   41.3430 C   0  0  0  0  0  0  0  0  0  0  0  0
   45.4530   34.3950   40.8470 C   0  0  0  0  0  0  0  0  0  0  0  0
   46.5960   34.7350   41.5770 C   0  0  0  0  0  0  0  0  0  0  0  0
   46.4320   35.4430   42.7380 N   0  0  0  0  0  0  0  0  0  0  0  0
   45.2090   35.8060   43.1770 C   0  0  0  0  0  0  0  0  0  0  0  0
   44.1100   35.4940   42.5010 N   0  0  0  0  0  0  0  0  0  0  0  0
   43.0500   34.4000   40.5110 C   0  0  0  0  0  0  0  0  0  0  0  0
   42.4610   35.1110   39.7050 O   0  0  0  0  0  0  0  0  0  0  0  0
   48.8640   35.5680   41.5100 C   0  0  0  0  0  0  0  0  0  0  0  0
   48.0210   34.3240   39.6410 C   0  0  0  0  0  0  0  0  0  0  0  0
   48.4970   33.1350   41.6450 C   0  0  0  0  0  0  0  0  0  0  0  0
   49.8940   33.1650   41.5030 O   0  0  0  0  0  0  0  0  0  0  0  0
   50.2180   31.8760   41.1300 C   0  0  1  0  0  0  0  0  0  0  0  0
   50.5980   31.5210   39.7680 C   0  0  0  0  0  0  0  0  0  0  0  0
   51.6920   31.7490   40.7300 C   0  0  2  0  0  0  0  0  0  0  0  0
   52.3780   30.5190   41.2010 C   0  0  0  0  0  0  0  0  0  0  0  0
   52.6380   29.4690   40.3440 C   0  0  0  0  0  0  0  0  0  0  0  0
   53.2650   28.5430   41.1230 N   0  0  0  0  0  0  0  0  0  0  0  0
   53.3750   29.0270   42.3950 C   0  0  0  0  0  0  0  0  0  0  0  0
   52.8160   30.2660   42.4320 N   0  0  0  0  0  0  0  0  0  0  0  0
   45.5323   33.8284   39.9075 H   0  0  0  0  0  0  0  0  0  0  0  0
   45.1206   36.3729   44.1155 H   0  0  0  0  0  0  0  0  0  0  0  0
   42.6852   33.3684   40.6240 H   0  0  0  0  0  0  0  0  0  0  0  0
   48.9439   35.6726   42.6021 H   0  0  0  0  0  0  0  0  0  0  0  0
   49.8636   35.3969   41.0839 H   0  0  0  0  0  0  0  0  0  0  0  0
   48.4363   36.4875   41.0839 H   0  0  0  0  0  0  0  0  0  0  0  0
   48.8491   33.6689   39.3326 H   0  0  0  0  0  0  0  0  0  0  0  0
   47.0737   33.9282   39.2461 H   0  0  0  0  0  0  0  0  0  0  0  0
   48.1881   35.3370   39.2461 H   0  0  0  0  0  0  0  0  0  0  0  0
   48.2367   32.9960   42.7047 H   0  0  0  0  0  0  0  0  0  0  0  0
   48.0813   32.3018   41.0594 H   0  0  0  0  0  0  0  0  0  0  0  0
   49.4855   31.4256   41.8160 H   0  0  0  0  0  0  0  0  0  0  0  0
   50.4333   32.2427   38.9544 H   0  0  0  0  0  0  0  0  0  0  0  0
   50.3361   30.6881   39.0989 H   0  0  0  0  0  0  0  0  0  0  0  0
   52.5816   32.3938   40.7832 H   0  0  0  0  0  0  0  0  0  0  0  0
   52.3942   29.3960   39.2738 H   0  0  0  0  0  0  0  0  0  0  0  0
   53.8371   28.5037   43.2451 H   0  0  0  0  0  0  0  0  0  0  0  0
   52.7455   30.8864   43.2512 H   0  0  0  0  0  0  0  0  0  0  0  0
  1 10  1  0
  1  4  1  0
  1 12  1  0
  2  7  2  0
  3  2  1  0
  3  4  2  0
  4  5  1  0
  5  6  2  0
  7  6  1  0
  8  2  1  0
  9  8  2  0
 11  1  1  0
 13 12  1  0
 14 13  1  0
 15 16  1  0
 15 14  1  0
 16 14  1  0
 16 17  1  0
 17 21  1  0
 18 19  1  0
 18 17  2  0
 19 20  2  0
 20 21  1  0
  3 22  1  0
  6 23  1  0
  8 24  1  0
 10 25  1  0
 10 26  1  0
 10 27  1  0
 11 28  1  0
 11 29  1  0
 11 30  1  0
 12 31  1  0
 12 32  1  0
 14 33  1  1
 15 34  1  0
 15 35  1  0
 16 36  1  6
 18 37  1  0
 20 38  1  0
 21 39  1  0
M  ISO  8  22  14  23  14  24   6  25   8  26   8  27   8  28   8  29   8
M  ISO  8  30   8  31   8  32   8  33  13  34  13  35  13  36  13  37  14
M  ISO  2  38  14  39   9
M  END
>  <minimizedAffinity>  (1) 
-4.48987865

>  <minimizedRMSD>  (1) 
1.26082885

$$$$
