
     RDKit          3D

 42 44  0  0  1  0  0  0  0  0999 V2000
   47.9480   34.4170   41.1520 C   0  0  0  0  0  0  0  0  0  0  0  0
   44.1760   34.8000   41.3570 C   0  0  0  0  0  0  0  0  0  0  0  0
   45.4170   34.4080   40.8370 C   0  0  0  0  0  0  0  0  0  0  0  0
   46.5760   34.7450   41.5520 C   0  0  0  0  0  0  0  0  0  0  0  0
   46.4330   35.4400   42.7240 N   0  0  0  0  0  0  0  0  0  0  0  0
   45.1910   35.7960   43.1820 C   0  0  0  0  0  0  0  0  0  0  0  0
   44.0950   35.4790   42.5070 N   0  0  0  0  0  0  0  0  0  0  0  0
   43.0130   34.4040   40.5560 C   0  0  0  0  0  0  0  0  0  0  0  0
   42.4450   35.0630   39.7080 O   0  0  0  0  0  0  0  0  0  0  0  0
   48.8500   35.5550   41.5030 C   0  0  0  0  0  0  0  0  0  0  0  0
   47.9870   34.3280   39.6220 C   0  0  0  0  0  0  0  0  0  0  0  0
   48.4510   33.0870   41.6220 C   0  0  0  0  0  0  0  0  0  0  0  0
   49.8600   33.1600   41.4530 O   0  0  0  0  0  0  0  0  0  0  0  0
   50.1860   31.8660   41.1010 C   0  0  1  0  0  0  0  0  0  0  0  0
   50.8190   31.5250   39.8370 C   0  0  0  0  0  0  0  0  0  0  0  0
   51.7010   31.6360   41.0120 C   0  0  2  0  0  0  0  0  0  0  0  0
   52.2080   30.3420   41.5310 C   0  0  0  0  0  0  0  0  0  0  0  0
   52.1530   30.0210   42.8750 C   0  0  0  0  0  0  0  0  0  0  0  0
   52.6250   28.8120   43.3570 C   0  0  0  0  0  0  0  0  0  0  0  0
   53.1660   27.9230   42.4250 C   0  0  0  0  0  0  0  0  0  0  0  0
   53.2360   28.2140   41.0700 C   0  0  0  0  0  0  0  0  0  0  0  0
   52.7480   29.4360   40.6420 C   0  0  0  0  0  0  0  0  0  0  0  0
   45.4807   33.8497   39.8913 H   0  0  0  0  0  0  0  0  0  0  0  0
   45.1023   36.3542   44.1257 H   0  0  0  0  0  0  0  0  0  0  0  0
   42.6100   33.3979   40.7440 H   0  0  0  0  0  0  0  0  0  0  0  0
   48.9200   35.6433   42.5972 H   0  0  0  0  0  0  0  0  0  0  0  0
   49.8509   35.3719   41.0851 H   0  0  0  0  0  0  0  0  0  0  0  0
   48.4432   36.4877   41.0851 H   0  0  0  0  0  0  0  0  0  0  0  0
   48.4117   33.3587   39.3218 H   0  0  0  0  0  0  0  0  0  0  0  0
   46.9660   34.4202   39.2232 H   0  0  0  0  0  0  0  0  0  0  0  0
   48.6113   35.1412   39.2232 H   0  0  0  0  0  0  0  0  0  0  0  0
   48.1940   32.9255   42.6793 H   0  0  0  0  0  0  0  0  0  0  0  0
   48.0054   32.2502   41.0642 H   0  0  0  0  0  0  0  0  0  0  0  0
   49.2992   31.4523   41.6035 H   0  0  0  0  0  0  0  0  0  0  0  0
   50.8803   32.2820   39.0413 H   0  0  0  0  0  0  0  0  0  0  0  0
   50.6457   30.7356   39.0908 H   0  0  0  0  0  0  0  0  0  0  0  0
   52.5963   32.2102   41.2925 H   0  0  0  0  0  0  0  0  0  0  0  0
   51.7222   30.7465   43.5808 H   0  0  0  0  0  0  0  0  0  0  0  0
   52.5762   28.5623   44.4272 H   0  0  0  0  0  0  0  0  0  0  0  0
   53.5512   26.9553   42.7788 H   0  0  0  0  0  0  0  0  0  0  0  0
   53.6665   27.4949   40.3576 H   0  0  0  0  0  0  0  0  0  0  0  0
   52.7915   29.6898   39.5726 H   0  0  0  0  0  0  0  0  0  0  0  0
  1 10  1  0
  1  4  1  0
  1 12  1  0
  2  7  2  0
  3  2  1  0
  3  4  2  0
  4  5  1  0
  5  6  2  0
  7  6  1  0
  8  2  1  0
  9  8  2  0
 11  1  1  0
 13 12  1  0
 14 13  1  0
 15 16  1  0
 15 14  1  0
 16 14  1  0
 16 17  1  0
 17 18  2  0
 18 19  1  0
 20 19  2  0
 21 20  1  0
 22 21  2  0
 22 17  1  0
  3 23  1  0
  6 24  1  0
  8 25  1  0
 10 26  1  0
 10 27  1  0
 10 28  1  0
 11 29  1  0
 11 30  1  0
 11 31  1  0
 12 32  1  0
 12 33  1  0
 14 34  1  1
 15 35  1  0
 15 36  1  0
 16 37  1  6
 18 38  1  0
 19 39  1  0
 20 40  1  0
 21 41  1  0
 22 42  1  0
M  ISO  8  23  14  24  14  25   6  26   8  27   8  28   8  29   8  30   8
M  ISO  8  31   8  32   8  33   8  34  13  35  13  36  13  37  13  38  14
M  ISO  4  39  14  40  14  41  14  42  14
M  END
>  <minimizedAffinity>  (1) 
-4.35944271

>  <minimizedRMSD>  (1) 
1.25250483

$$$$
