
     RDKit          3D

 42 44  0  0  1  0  0  0  0  0999 V2000
   47.9420   34.4150   41.1500 C   0  0  0  0  0  0  0  0  0  0  0  0
   44.1670   34.7630   41.3800 C   0  0  0  0  0  0  0  0  0  0  0  0
   45.4070   34.3720   40.8540 C   0  0  0  0  0  0  0  0  0  0  0  0
   46.5700   34.7360   41.5540 C   0  0  0  0  0  0  0  0  0  0  0  0
   46.4260   35.4560   42.7140 N   0  0  0  0  0  0  0  0  0  0  0  0
   45.1880   35.8060   43.1710 C   0  0  0  0  0  0  0  0  0  0  0  0
   44.0860   35.4710   42.5230 N   0  0  0  0  0  0  0  0  0  0  0  0
   43.0030   34.3330   40.5930 C   0  0  0  0  0  0  0  0  0  0  0  0
   42.4400   34.9600   39.7180 O   0  0  0  0  0  0  0  0  0  0  0  0
   48.8430   35.5550   41.5000 C   0  0  0  0  0  0  0  0  0  0  0  0
   47.9770   34.3270   39.6230 C   0  0  0  0  0  0  0  0  0  0  0  0
   48.4530   33.0880   41.6180 C   0  0  0  0  0  0  0  0  0  0  0  0
   49.8580   33.1590   41.4350 O   0  0  0  0  0  0  0  0  0  0  0  0
   50.1810   31.8640   41.0790 C   0  0  1  0  0  0  0  0  0  0  0  0
   50.8510   31.5200   39.8360 C   0  0  0  0  0  0  0  0  0  0  0  0
   51.6930   31.6120   41.0450 C   0  0  2  0  0  0  0  0  0  0  0  0
   52.1610   30.3130   41.5880 C   0  0  0  0  0  0  0  0  0  0  0  0
   52.6470   29.3170   40.7670 C   0  0  0  0  0  0  0  0  0  0  0  0
   53.0870   28.0930   41.2870 C   0  0  0  0  0  0  0  0  0  0  0  0
   53.0320   27.8780   42.6680 C   0  0  0  0  0  0  0  0  0  0  0  0
   52.5430   28.8720   43.5220 C   0  0  0  0  0  0  0  0  0  0  0  0
   52.1260   30.0530   42.9440 C   0  0  0  0  0  0  0  0  0  0  0  0
   45.4676   33.7960   39.9188 H   0  0  0  0  0  0  0  0  0  0  0  0
   45.1055   36.3826   44.1041 H   0  0  0  0  0  0  0  0  0  0  0  0
   42.5978   33.3360   40.8207 H   0  0  0  0  0  0  0  0  0  0  0  0
   48.9134   35.6441   42.5941 H   0  0  0  0  0  0  0  0  0  0  0  0
   49.8440   35.3730   41.0817 H   0  0  0  0  0  0  0  0  0  0  0  0
   48.4347   36.4868   41.0817 H   0  0  0  0  0  0  0  0  0  0  0  0
   48.3679   33.3441   39.3212 H   0  0  0  0  0  0  0  0  0  0  0  0
   46.9596   34.4549   39.2249 H   0  0  0  0  0  0  0  0  0  0  0  0
   48.6287   35.1187   39.2249 H   0  0  0  0  0  0  0  0  0  0  0  0
   48.2073   32.9296   42.6785 H   0  0  0  0  0  0  0  0  0  0  0  0
   48.0029   32.2500   41.0656 H   0  0  0  0  0  0  0  0  0  0  0  0
   49.2695   31.4610   41.5446 H   0  0  0  0  0  0  0  0  0  0  0  0
   50.9518   32.2800   39.0472 H   0  0  0  0  0  0  0  0  0  0  0  0
   50.6921   30.7375   39.0794 H   0  0  0  0  0  0  0  0  0  0  0  0
   52.5885   32.1701   41.3559 H   0  0  0  0  0  0  0  0  0  0  0  0
   52.6900   29.4874   39.6811 H   0  0  0  0  0  0  0  0  0  0  0  0
   53.4714   27.3099   40.6170 H   0  0  0  0  0  0  0  0  0  0  0  0
   53.3758   26.9202   43.0855 H   0  0  0  0  0  0  0  0  0  0  0  0
   52.4930   28.7182   44.6100 H   0  0  0  0  0  0  0  0  0  0  0  0
   51.7396   30.8406   43.6076 H   0  0  0  0  0  0  0  0  0  0  0  0
  1 10  1  0
  1  4  1  0
  1 12  1  0
  2  7  2  0
  3  2  1  0
  3  4  2  0
  4  5  1  0
  5  6  2  0
  7  6  1  0
  8  2  1  0
  9  8  2  0
 11  1  1  0
 13 12  1  0
 14 13  1  0
 15 16  1  0
 15 14  1  0
 16 14  1  0
 16 17  1  0
 17 22  2  0
 18 19  2  0
 18 17  1  0
 19 20  1  0
 20 21  2  0
 22 21  1  0
  3 23  1  0
  6 24  1  0
  8 25  1  0
 10 26  1  0
 10 27  1  0
 10 28  1  0
 11 29  1  0
 11 30  1  0
 11 31  1  0
 12 32  1  0
 12 33  1  0
 14 34  1  1
 15 35  1  0
 15 36  1  0
 16 37  1  6
 18 38  1  0
 19 39  1  0
 20 40  1  0
 21 41  1  0
 22 42  1  0
M  ISO  8  23  14  24  14  25   6  26   8  27   8  28   8  29   8  30   8
M  ISO  8  31   8  32   8  33   8  34  13  35  13  36  13  37  13  38  14
M  ISO  4  39  14  40  14  41  14  42  14
M  END
>  <minimizedAffinity>  (1) 
-4.35682058

>  <minimizedRMSD>  (1) 
1.18751168

$$$$
