
     RDKit          3D

 33 34  0  0  1  0  0  0  0  0999 V2000
   47.9830   34.3600   41.1190 C   0  0  0  0  0  0  0  0  0  0  0  0
   44.2150   34.7700   41.3270 C   0  0  0  0  0  0  0  0  0  0  0  0
   45.4600   34.3740   40.8220 C   0  0  0  0  0  0  0  0  0  0  0  0
   46.6210   34.7020   41.5270 C   0  0  0  0  0  0  0  0  0  0  0  0
   46.4810   35.4050   42.6940 N   0  0  0  0  0  0  0  0  0  0  0  0
   45.2410   35.7730   43.1510 C   0  0  0  0  0  0  0  0  0  0  0  0
   44.1460   35.4590   42.4790 N   0  0  0  0  0  0  0  0  0  0  0  0
   43.0510   34.3850   40.5280 C   0  0  0  0  0  0  0  0  0  0  0  0
   42.4570   35.0830   39.7210 O   0  0  0  0  0  0  0  0  0  0  0  0
   48.9210   35.4090   41.6340 C   0  0  0  0  0  0  0  0  0  0  0  0
   48.0680   34.4640   39.5930 C   0  0  0  0  0  0  0  0  0  0  0  0
   48.4150   32.9630   41.4390 C   0  0  0  0  0  0  0  0  0  0  0  0
   49.8340   33.0350   41.4840 O   0  0  0  0  0  0  0  0  0  0  0  0
   50.2170   31.8490   40.8970 C   0  0  1  0  0  0  0  0  0  0  0  0
   51.5680   31.6270   40.3960 C   0  0  0  0  0  0  0  0  0  0  0  0
   51.2440   31.0680   41.7190 C   0  0  1  0  0  0  0  0  0  0  0  0
   51.7460   31.6500   42.8810 O   0  0  0  0  0  0  0  0  0  0  0  0
   45.5232   33.8103   39.8796 H   0  0  0  0  0  0  0  0  0  0  0  0
   45.1561   36.3380   44.0910 H   0  0  0  0  0  0  0  0  0  0  0  0
   42.6722   33.3619   40.6688 H   0  0  0  0  0  0  0  0  0  0  0  0
   48.9129   35.4000   42.7339 H   0  0  0  0  0  0  0  0  0  0  0  0
   49.9388   35.1999   41.2731 H   0  0  0  0  0  0  0  0  0  0  0  0
   48.5998   36.3972   41.2731 H   0  0  0  0  0  0  0  0  0  0  0  0
   48.7421   35.2888   39.3187 H   0  0  0  0  0  0  0  0  0  0  0  0
   48.4569   33.5206   39.1823 H   0  0  0  0  0  0  0  0  0  0  0  0
   47.0660   34.6573   39.1823 H   0  0  0  0  0  0  0  0  0  0  0  0
   48.0102   32.6430   42.4104 H   0  0  0  0  0  0  0  0  0  0  0  0
   48.0548   32.2323   40.6998 H   0  0  0  0  0  0  0  0  0  0  0  0
   49.2304   31.7009   40.4337 H   0  0  0  0  0  0  0  0  0  0  0  0
   51.7254   30.9481   39.5449 H   0  0  0  0  0  0  0  0  0  0  0  0
   52.3606   32.2940   40.0260 H   0  0  0  0  0  0  0  0  0  0  0  0
   51.3133   30.0707   42.1779 H   0  0  0  0  0  0  0  0  0  0  0  0
   51.3564   31.1984   43.6712 H   0  0  0  0  0  0  0  0  0  0  0  0
  1 12  1  0
  1  4  1  0
  1 10  1  0
  2  7  2  0
  3  2  1  0
  3  4  2  0
  4  5  1  0
  5  6  2  0
  7  6  1  0
  8  2  1  0
  9  8  2  0
 11  1  1  0
 12 13  1  0
 14 13  1  0
 14 16  1  0
 15 14  1  0
 15 16  1  0
 16 17  1  0
  3 18  1  0
  6 19  1  0
  8 20  1  0
 10 21  1  0
 10 22  1  0
 10 23  1  0
 11 24  1  0
 11 25  1  0
 11 26  1  0
 12 27  1  0
 12 28  1  0
 14 29  1  6
 15 30  1  0
 15 31  1  0
 16 32  1  6
 17 33  1  0
M  ISO  8  18  14  19  14  20   6  21   8  22   8  23   8  24   8  25   8
M  ISO  8  26   8  27   8  28   8  29  13  30  13  31  13  32  13  33   3
M  END
>  <minimizedAffinity>  (1) 
-4.29287672

>  <minimizedRMSD>  (1) 
0.286772907

$$$$
