
     RDKit          3D

 39 41  0  0  1  0  0  0  0  0999 V2000
   47.9460   34.3980   41.1640 C   0  0  0  0  0  0  0  0  0  0  0  0
   44.1890   34.7980   41.3450 C   0  0  0  0  0  0  0  0  0  0  0  0
   45.4340   34.4040   40.8330 C   0  0  0  0  0  0  0  0  0  0  0  0
   46.5890   34.7470   41.5750 C   0  0  0  0  0  0  0  0  0  0  0  0
   46.4280   35.4410   42.7430 N   0  0  0  0  0  0  0  0  0  0  0  0
   45.1990   35.7980   43.1920 C   0  0  0  0  0  0  0  0  0  0  0  0
   44.0970   35.4840   42.5090 N   0  0  0  0  0  0  0  0  0  0  0  0
   43.0380   34.4070   40.5230 C   0  0  0  0  0  0  0  0  0  0  0  0
   42.4500   35.0860   39.7000 O   0  0  0  0  0  0  0  0  0  0  0  0
   48.8580   35.5840   41.5170 C   0  0  0  0  0  0  0  0  0  0  0  0
   48.0130   34.3650   39.6320 C   0  0  0  0  0  0  0  0  0  0  0  0
   48.4860   33.1430   41.6260 C   0  0  0  0  0  0  0  0  0  0  0  0
   49.8810   33.1640   41.4400 O   0  0  0  0  0  0  0  0  0  0  0  0
   50.1860   31.8680   41.0850 C   0  0  1  0  0  0  0  0  0  0  0  0
   50.8100   31.5110   39.8180 C   0  0  0  0  0  0  0  0  0  0  0  0
   51.6950   31.6290   40.9930 C   0  0  2  0  0  0  0  0  0  0  0  0
   52.2250   30.4220   41.5970 N   0  0  0  0  0  0  0  0  0  0  0  0
   52.9240   29.5010   40.9100 C   0  0  0  0  0  0  0  0  0  0  0  0
   53.2870   28.4690   41.7730 C   0  0  0  0  0  0  0  0  0  0  0  0
   52.7890   28.7960   42.9800 N   0  0  0  0  0  0  0  0  0  0  0  0
   52.1350   29.9890   42.8880 C   0  0  0  0  0  0  0  0  0  0  0  0
   45.5099   33.8475   39.8872 H   0  0  0  0  0  0  0  0  0  0  0  0
   45.1094   36.3561   44.1357 H   0  0  0  0  0  0  0  0  0  0  0  0
   42.6630   33.3829   40.6665 H   0  0  0  0  0  0  0  0  0  0  0  0
   48.9304   35.6781   42.6106 H   0  0  0  0  0  0  0  0  0  0  0  0
   49.8601   35.4138   41.0965 H   0  0  0  0  0  0  0  0  0  0  0  0
   48.4361   36.5088   41.0965 H   0  0  0  0  0  0  0  0  0  0  0  0
   48.9583   33.8994   39.3163 H   0  0  0  0  0  0  0  0  0  0  0  0
   47.1675   33.7802   39.2405 H   0  0  0  0  0  0  0  0  0  0  0  0
   47.9612   35.3917   39.2405 H   0  0  0  0  0  0  0  0  0  0  0  0
   48.2555   33.0098   42.6933 H   0  0  0  0  0  0  0  0  0  0  0  0
   48.0420   32.3099   41.0614 H   0  0  0  0  0  0  0  0  0  0  0  0
   49.2944   31.4649   41.5875 H   0  0  0  0  0  0  0  0  0  0  0  0
   50.8729   32.2602   39.0150 H   0  0  0  0  0  0  0  0  0  0  0  0
   50.6295   30.7165   39.0789 H   0  0  0  0  0  0  0  0  0  0  0  0
   52.6076   32.1946   41.2320 H   0  0  0  0  0  0  0  0  0  0  0  0
   53.1696   29.5539   39.8391 H   0  0  0  0  0  0  0  0  0  0  0  0
   53.8646   27.5680   41.5189 H   0  0  0  0  0  0  0  0  0  0  0  0
   51.6242   30.5110   43.7105 H   0  0  0  0  0  0  0  0  0  0  0  0
  1 10  1  0
  1  4  1  0
  1 12  1  0
  2  7  2  0
  3  2  1  0
  3  4  2  0
  4  5  1  0
  5  6  2  0
  7  6  1  0
  8  2  1  0
  9  8  2  0
 11  1  1  0
 13 12  1  0
 14 13  1  0
 15 16  1  0
 15 14  1  0
 16 14  1  0
 16 17  1  0
 17 21  1  0
 18 17  1  0
 18 19  2  0
 19 20  1  0
 21 20  2  0
  3 22  1  0
  6 23  1  0
  8 24  1  0
 10 25  1  0
 10 26  1  0
 10 27  1  0
 11 28  1  0
 11 29  1  0
 11 30  1  0
 12 31  1  0
 12 32  1  0
 14 33  1  1
 15 34  1  0
 15 35  1  0
 16 36  1  6
 18 37  1  0
 19 38  1  0
 21 39  1  0
M  ISO  8  22  14  23  14  24   6  25   8  26   8  27   8  28   8  29   8
M  ISO  8  30   8  31   8  32   8  33  13  34  13  35  13  36  13  37  14
M  ISO  2  38  14  39  14
M  END
>  <minimizedAffinity>  (1) 
-4.29989672

>  <minimizedRMSD>  (1) 
1.17209303

$$$$
