
     RDKit          3D

 49 52  0  0  1  0  0  0  0  0999 V2000
   47.3740   32.5160   44.6360 C   0  0  0  0  0  0  0  0  0  0  0  0
   46.6020   33.5560   44.0670 C   0  0  0  0  0  0  0  0  0  0  0  0
   45.6540   34.1230   44.9190 C   0  0  0  0  0  0  0  0  0  0  0  0
   45.5150   33.6790   46.1900 N   0  0  0  0  0  0  0  0  0  0  0  0
   46.2790   32.6860   46.6750 C   0  0  0  0  0  0  0  0  0  0  0  0
   47.1940   32.1030   45.9300 N   0  0  0  0  0  0  0  0  0  0  0  0
   46.9240   33.8580   42.7130 C   0  0  0  0  0  0  0  0  0  0  0  0
   47.9900   34.6990   42.5940 N   0  0  0  0  0  0  0  0  0  0  0  0
   48.4370   35.0920   41.3780 C   0  0  0  0  0  0  0  0  0  0  0  0
   47.8600   34.6790   40.2200 N   0  0  0  0  0  0  0  0  0  0  0  0
   46.7890   33.8370   40.3050 C   0  0  0  0  0  0  0  0  0  0  0  0
   46.1040   33.3380   39.2190 C   0  0  0  0  0  0  0  0  0  0  0  0
   45.0490   32.5070   39.3280 C   0  0  0  0  0  0  0  0  0  0  0  0
   44.6200   32.1260   40.5880 C   0  0  0  0  0  0  0  0  0  0  0  0
   45.2600   32.5890   41.7060 C   0  0  0  0  0  0  0  0  0  0  0  0
   46.3320   33.4360   41.5300 C   0  0  0  0  0  0  0  0  0  0  0  0
   46.0750   32.2680   48.0550 C   0  0  1  0  0  0  0  0  0  0  0  0
   44.6110   31.7700   48.2870 C   0  0  0  0  0  0  0  0  0  0  0  0
   47.0070   31.2000   48.5260 C   0  0  0  0  0  0  0  0  0  0  0  0
   46.4360   29.9950   48.3100 O   0  0  0  0  0  0  0  0  0  0  0  0
   46.7650   28.9510   47.4690 C   0  0  0  0  0  0  0  0  0  0  0  0
   47.9570   28.6920   47.1350 O   0  0  0  0  0  0  0  0  0  0  0  0
   45.7410   28.1720   46.9840 O   0  0  0  0  0  0  0  0  0  0  0  0
   44.8700   27.2790   49.0030 N   0  0  0  0  0  0  0  0  0  0  0  0
   43.9980   26.1470   49.3330 C   0  0  0  0  0  0  0  0  0  0  0  0
   43.2990   25.7900   48.0420 C   0  0  0  0  0  0  0  0  0  0  0  0
   44.1100   26.4520   46.9740 C   0  0  0  0  0  0  0  0  0  0  0  0
   45.3230   26.9400   47.6900 C   0  0  1  0  0  0  0  0  0  0  0  0
   48.1420   32.0240   44.0210 H   0  0  0  0  0  0  0  0  0  0  0  0
   45.0130   34.9391   44.5542 H   0  0  0  0  0  0  0  0  0  0  0  0
   49.3003   35.7717   41.3259 H   0  0  0  0  0  0  0  0  0  0  0  0
   46.4349   33.6328   38.2122 H   0  0  0  0  0  0  0  0  0  0  0  0
   44.5357   32.1365   38.4284 H   0  0  0  0  0  0  0  0  0  0  0  0
   43.7603   31.4476   40.6913 H   0  0  0  0  0  0  0  0  0  0  0  0
   44.9289   32.2941   42.7127 H   0  0  0  0  0  0  0  0  0  0  0  0
   46.2841   33.1742   48.6425 H   0  0  0  0  0  0  0  0  0  0  0  0
   44.4134   31.7028   49.3670 H   0  0  0  0  0  0  0  0  0  0  0  0
   43.9056   32.4787   47.8286 H   0  0  0  0  0  0  0  0  0  0  0  0
   44.4841   30.7782   47.8286 H   0  0  0  0  0  0  0  0  0  0  0  0
   47.9541   31.2649   47.9703 H   0  0  0  0  0  0  0  0  0  0  0  0
   47.2103   31.3293   49.5993 H   0  0  0  0  0  0  0  0  0  0  0  0
   44.3456   28.1655   48.9996 H   0  0  0  0  0  0  0  0  0  0  0  0
   44.5928   25.2962   49.6968 H   0  0  0  0  0  0  0  0  0  0  0  0
   43.2826   26.4000   50.1294 H   0  0  0  0  0  0  0  0  0  0  0  0
   43.2843   24.6996   47.8978 H   0  0  0  0  0  0  0  0  0  0  0  0
   42.2499   26.1205   48.0322 H   0  0  0  0  0  0  0  0  0  0  0  0
   43.5566   27.2908   46.5266 H   0  0  0  0  0  0  0  0  0  0  0  0
   44.3538   25.7710   46.1452 H   0  0  0  0  0  0  0  0  0  0  0  0
   46.1504   26.2161   47.7280 H   0  0  0  0  0  0  0  0  0  0  0  0
  1  6  2  0
  2  1  1  0
  2  3  2  0
  3  4  1  0
  4  5  2  0
  5 17  1  0
  6  5  1  0
  7  2  1  0
  8  7  2  0
  9  8  1  0
 10 11  1  0
 10  9  2  0
 11 16  2  0
 12 13  2  0
 12 11  1  0
 13 14  1  0
 14 15  2  0
 16 15  1  0
 16  7  1  0
 17 18  1  0
 17 19  1  0
 20 19  1  0
 21 20  1  0
 22 21  2  0
 23 21  1  0
 24 25  1  0
 26 25  1  0
 27 28  1  0
 27 26  1  0
 28 23  1  0
 28 24  1  0
  1 29  1  0
  3 30  1  0
  9 31  1  0
 12 32  1  0
 13 33  1  0
 14 34  1  0
 15 35  1  0
 17 36  1  1
 18 37  1  0
 18 38  1  0
 18 39  1  0
 19 40  1  0
 19 41  1  0
 24 42  1  0
 25 43  1  0
 25 44  1  0
 26 45  1  0
 26 46  1  0
 27 47  1  0
 27 48  1  0
 28 49  1  1
M  ISO  8  29  14  30  14  31  14  32  14  33  14  34  14  35  14  36   8
M  ISO  8  37   8  38   8  39   8  40   8  41   8  42   5  43  13  44  13
M  ISO  5  45  13  46  13  47  13  48  13  49  13
M  END
>  <minimizedAffinity>  (1) 
-5.3041153

>  <minimizedRMSD>  (1) 
1.27107048

$$$$
