
     RDKit          3D

 41 42  0  0  1  0  0  0  0  0999 V2000
   47.9520   34.4720   41.1820 C   0  0  0  0  0  0  0  0  0  0  0  0
   44.1720   34.7430   41.3930 C   0  0  0  0  0  0  0  0  0  0  0  0
   45.4260   34.3790   40.8890 C   0  0  0  0  0  0  0  0  0  0  0  0
   46.5770   34.7700   41.5790 C   0  0  0  0  0  0  0  0  0  0  0  0
   46.4110   35.4990   42.7250 N   0  0  0  0  0  0  0  0  0  0  0  0
   45.1620   35.8310   43.1760 C   0  0  0  0  0  0  0  0  0  0  0  0
   44.0710   35.4630   42.5270 N   0  0  0  0  0  0  0  0  0  0  0  0
   43.0170   34.2800   40.6160 C   0  0  0  0  0  0  0  0  0  0  0  0
   42.4280   34.8780   39.7360 O   0  0  0  0  0  0  0  0  0  0  0  0
   48.8310   35.6260   41.5400 C   0  0  0  0  0  0  0  0  0  0  0  0
   47.9970   34.3910   39.6530 C   0  0  0  0  0  0  0  0  0  0  0  0
   48.4810   33.1540   41.6530 C   0  0  0  0  0  0  0  0  0  0  0  0
   49.8940   33.2940   41.5930 O   0  0  0  0  0  0  0  0  0  0  0  0
   50.3090   32.0010   41.3260 C   0  0  1  0  0  0  0  0  0  0  0  0
   51.6700   31.6710   40.9310 C   0  0  0  0  0  0  0  0  0  0  0  0
   51.3220   31.4810   42.3550 C   0  0  2  0  0  0  0  0  0  0  0  0
   51.0790   30.1180   42.9150 C   0  0  0  0  0  0  0  0  0  0  0  0
   49.7040   29.9220   43.5120 C   0  0  0  0  0  0  0  0  0  0  0  0
   51.2180   29.0880   41.8160 C   0  0  0  0  0  0  0  0  0  0  0  0
   45.5047   33.7927   39.9616 H   0  0  0  0  0  0  0  0  0  0  0  0
   45.0639   36.4183   44.1009 H   0  0  0  0  0  0  0  0  0  0  0  0
   42.6399   33.2752   40.8574 H   0  0  0  0  0  0  0  0  0  0  0  0
   48.8961   35.7115   42.6347 H   0  0  0  0  0  0  0  0  0  0  0  0
   49.8365   35.4638   41.1244 H   0  0  0  0  0  0  0  0  0  0  0  0
   48.4075   36.5523   41.1244 H   0  0  0  0  0  0  0  0  0  0  0  0
   48.5105   33.4667   39.3497 H   0  0  0  0  0  0  0  0  0  0  0  0
   46.9713   34.3879   39.2556 H   0  0  0  0  0  0  0  0  0  0  0  0
   48.5415   35.2602   39.2556 H   0  0  0  0  0  0  0  0  0  0  0  0
   48.1542   32.9499   42.6833 H   0  0  0  0  0  0  0  0  0  0  0  0
   48.1180   32.3154   41.0407 H   0  0  0  0  0  0  0  0  0  0  0  0
   49.3404   31.7254   40.8834 H   0  0  0  0  0  0  0  0  0  0  0  0
   51.8510   30.7912   40.2960 H   0  0  0  0  0  0  0  0  0  0  0  0
   52.4653   32.2255   40.4113 H   0  0  0  0  0  0  0  0  0  0  0  0
   51.7649   31.8168   43.3043 H   0  0  0  0  0  0  0  0  0  0  0  0
   51.8226   30.0021   43.7173 H   0  0  0  0  0  0  0  0  0  0  0  0
   49.7760   29.9323   44.6096 H   0  0  0  0  0  0  0  0  0  0  0  0
   49.0410   30.7347   43.1804 H   0  0  0  0  0  0  0  0  0  0  0  0
   49.2945   28.9564   43.1804 H   0  0  0  0  0  0  0  0  0  0  0  0
   51.3525   28.0916   42.2622 H   0  0  0  0  0  0  0  0  0  0  0  0
   50.3112   29.0916   41.1933 H   0  0  0  0  0  0  0  0  0  0  0  0
   52.0914   29.3318   41.1933 H   0  0  0  0  0  0  0  0  0  0  0  0
  1 10  1  0
  1  4  1  0
  1 12  1  0
  2  7  2  0
  3  2  1  0
  3  4  2  0
  4  5  1  0
  5  6  2  0
  7  6  1  0
  8  2  1  0
  9  8  2  0
 11  1  1  0
 13 12  1  0
 14 13  1  0
 14 16  1  0
 15 14  1  0
 15 16  1  0
 16 17  1  0
 17 18  1  0
 19 17  1  0
  3 20  1  0
  6 21  1  0
  8 22  1  0
 10 23  1  0
 10 24  1  0
 10 25  1  0
 11 26  1  0
 11 27  1  0
 11 28  1  0
 12 29  1  0
 12 30  1  0
 14 31  1  6
 15 32  1  0
 15 33  1  0
 16 34  1  1
 17 35  1  0
 18 36  1  0
 18 37  1  0
 18 38  1  0
 19 39  1  0
 19 40  1  0
 19 41  1  0
M  ISO  8  20  14  21  14  22   6  23   8  24   8  25   8  26   8  27   8
M  ISO  8  28   8  29   8  30   8  31  13  32  13  33  13  34  13  35   8
M  ISO  6  36   8  37   8  38   8  39   8  40   8  41   8
M  END
>  <minimizedAffinity>  (1) 
-4.21802378

>  <minimizedRMSD>  (1) 
0.27385509

$$$$
