
     RDKit          3D

 50 53  0  0  1  0  0  0  0  0999 V2000
   47.5430   31.9360   44.4510 C   0  0  0  0  0  0  0  0  0  0  0  0
   46.9450   33.1760   44.1240 C   0  0  0  0  0  0  0  0  0  0  0  0
   46.0550   33.6710   45.0650 C   0  0  0  0  0  0  0  0  0  0  0  0
   45.8010   32.9830   46.2060 N   0  0  0  0  0  0  0  0  0  0  0  0
   46.3980   31.8070   46.4640 C   0  0  0  0  0  0  0  0  0  0  0  0
   47.2550   31.2760   45.6180 N   0  0  0  0  0  0  0  0  0  0  0  0
   47.3650   33.7170   42.8730 C   0  0  0  0  0  0  0  0  0  0  0  0
   48.4090   34.5900   42.9920 N   0  0  0  0  0  0  0  0  0  0  0  0
   48.9430   35.2000   41.9100 C   0  0  0  0  0  0  0  0  0  0  0  0
   48.4700   34.9810   40.6470 N   0  0  0  0  0  0  0  0  0  0  0  0
   47.4400   34.1230   40.5020 C   0  0  0  0  0  0  0  0  0  0  0  0
   46.8560   33.8010   39.2800 C   0  0  0  0  0  0  0  0  0  0  0  0
   45.8190   32.9350   39.1550 C   0  0  0  0  0  0  0  0  0  0  0  0
   45.3110   32.3360   40.2900 C   0  0  0  0  0  0  0  0  0  0  0  0
   45.8390   32.6110   41.5210 C   0  0  0  0  0  0  0  0  0  0  0  0
   46.8890   33.4970   41.5900 C   0  0  0  0  0  0  0  0  0  0  0  0
   46.0830   31.1340   47.7140 C   0  0  1  0  0  0  0  0  0  0  0  0
   44.8120   31.7360   48.3870 C   0  0  0  0  0  0  0  0  0  0  0  0
   45.8870   29.6520   47.5860 C   0  0  0  0  0  0  0  0  0  0  0  0
   44.6490   29.4270   47.0990 O   0  0  0  0  0  0  0  0  0  0  0  0
   44.2110   28.9350   45.8860 C   0  0  0  0  0  0  0  0  0  0  0  0
   44.9160   28.9320   44.8520 O   0  0  0  0  0  0  0  0  0  0  0  0
   42.9380   28.4210   45.8060 O   0  0  0  0  0  0  0  0  0  0  0  0
   42.6670   27.0440   45.4390 C   0  0  0  0  0  0  0  0  0  0  0  0
   43.4290   26.0700   46.2690 C   0  0  0  0  0  0  0  0  0  0  0  0
   42.4170   25.6470   47.2940 C   0  0  0  0  0  0  0  0  0  0  0  0
   41.0480   25.8960   46.7170 C   0  0  0  0  0  0  0  0  0  0  0  0
   41.2210   26.7170   45.4600 C   0  0  0  0  0  0  0  0  0  0  0  0
   48.2605   31.4879   43.7479 H   0  0  0  0  0  0  0  0  0  0  0  0
   45.5499   34.6313   44.8844 H   0  0  0  0  0  0  0  0  0  0  0  0
   49.7845   35.8943   42.0509 H   0  0  0  0  0  0  0  0  0  0  0  0
   47.2554   34.2724   38.3699 H   0  0  0  0  0  0  0  0  0  0  0  0
   45.3906   32.7141   38.1662 H   0  0  0  0  0  0  0  0  0  0  0  0
   44.4722   31.6297   40.2033 H   0  0  0  0  0  0  0  0  0  0  0  0
   45.4362   32.1380   42.4288 H   0  0  0  0  0  0  0  0  0  0  0  0
   46.9718   31.3032   48.3396 H   0  0  0  0  0  0  0  0  0  0  0  0
   44.9177   31.6859   49.4808 H   0  0  0  0  0  0  0  0  0  0  0  0
   44.6952   32.7851   48.0775 H   0  0  0  0  0  0  0  0  0  0  0  0
   43.9263   31.1617   48.0775 H   0  0  0  0  0  0  0  0  0  0  0  0
   46.6381   29.2359   46.8984 H   0  0  0  0  0  0  0  0  0  0  0  0
   46.0005   29.1694   48.5679 H   0  0  0  0  0  0  0  0  0  0  0  0
   43.0159   26.9498   44.4000 H   0  0  0  0  0  0  0  0  0  0  0  0
   43.7653   25.2133   45.6666 H   0  0  0  0  0  0  0  0  0  0  0  0
   44.3445   26.4931   46.7082 H   0  0  0  0  0  0  0  0  0  0  0  0
   42.5387   24.5777   47.5214 H   0  0  0  0  0  0  0  0  0  0  0  0
   42.5515   26.2163   48.2255 H   0  0  0  0  0  0  0  0  0  0  0  0
   40.5636   24.9384   46.4752 H   0  0  0  0  0  0  0  0  0  0  0  0
   40.4160   26.4301   47.4418 H   0  0  0  0  0  0  0  0  0  0  0  0
   40.6139   27.6332   45.5052 H   0  0  0  0  0  0  0  0  0  0  0  0
   40.8960   26.1802   44.5566 H   0  0  0  0  0  0  0  0  0  0  0  0
  1  6  2  0
  2  1  1  0
  2  3  2  0
  3  4  1  0
  4  5  2  0
  5 17  1  0
  6  5  1  0
  7  8  2  0
  7  2  1  0
  9  8  1  0
 10  9  2  0
 11 10  1  0
 11 16  2  0
 12 11  1  0
 13 12  2  0
 13 14  1  0
 14 15  2  0
 15 16  1  0
 16  7  1  0
 17 18  1  0
 19 17  1  0
 20 19  1  0
 21 20  1  0
 22 21  2  0
 23 21  1  0
 24 28  1  0
 24 23  1  0
 24 25  1  0
 25 26  1  0
 27 26  1  0
 28 27  1  0
  1 29  1  0
  3 30  1  0
  9 31  1  0
 12 32  1  0
 13 33  1  0
 14 34  1  0
 15 35  1  0
 17 36  1  1
 18 37  1  0
 18 38  1  0
 18 39  1  0
 19 40  1  0
 19 41  1  0
 24 42  1  0
 25 43  1  0
 25 44  1  0
 26 45  1  0
 26 46  1  0
 27 47  1  0
 27 48  1  0
 28 49  1  0
 28 50  1  0
M  ISO  8  29  14  30  14  31  14  32  14  33  14  34  14  35  14  36   8
M  ISO  8  37   8  38   8  39   8  40   8  41   8  42  13  43  13  44  13
M  ISO  6  45  13  46  13  47  13  48  13  49  13  50  13
M  END
>  <minimizedAffinity>  (1) 
-5.22448015

>  <minimizedRMSD>  (1) 
1.77283823

$$$$
