
     RDKit          3D

 55 57  0  0  1  0  0  0  0  0999 V2000
   49.8870   33.2780   41.6050 O   0  0  0  0  0  0  0  0  0  0  0  0
   50.3240   31.9950   41.4000 C   0  0  1  0  0  0  0  0  0  0  0  0
   51.6280   31.6890   40.8570 C   0  0  0  0  0  0  0  0  0  0  0  0
   51.5020   31.6220   42.3330 C   0  0  2  0  0  0  0  0  0  0  0  0
   51.3920   30.2830   43.0080 C   0  0  1  0  0  0  0  0  0  0  0  0
   50.0070   29.6740   42.9680 C   0  0  0  0  0  0  0  0  0  0  0  0
   52.3010   29.2870   42.3380 C   0  0  0  0  0  0  0  0  0  0  0  0
   53.6230   29.4670   42.8840 N   0  0  0  0  0  0  0  0  0  0  0  0
   54.7070   29.2210   42.0140 C   0  0  0  0  0  0  0  0  0  0  0  0
   56.0020   29.5950   42.7290 C   0  0  0  0  0  0  0  0  0  0  0  0
   55.7430   30.3690   43.9260 N   0  0  0  0  0  0  0  0  0  0  0  0
   55.0200   29.5090   44.8340 C   0  0  0  0  0  0  0  0  0  0  0  0
   53.7530   28.9590   44.2240 C   0  0  0  0  0  0  0  0  0  0  0  0
   48.4730   33.1390   41.6060 C   0  0  0  0  0  0  0  0  0  0  0  0
   47.9370   34.4430   41.1890 C   0  0  0  0  0  0  0  0  0  0  0  0
   44.1670   34.7460   41.3820 C   0  0  0  0  0  0  0  0  0  0  0  0
   45.4160   34.3700   40.8720 C   0  0  0  0  0  0  0  0  0  0  0  0
   46.5690   34.7550   41.5740 C   0  0  0  0  0  0  0  0  0  0  0  0
   46.4130   35.4740   42.7160 N   0  0  0  0  0  0  0  0  0  0  0  0
   45.1710   35.8170   43.1720 C   0  0  0  0  0  0  0  0  0  0  0  0
   44.0760   35.4660   42.5290 N   0  0  0  0  0  0  0  0  0  0  0  0
   43.0140   34.3040   40.6050 C   0  0  0  0  0  0  0  0  0  0  0  0
   42.4490   34.8970   39.7140 O   0  0  0  0  0  0  0  0  0  0  0  0
   48.8300   35.6090   41.5160 C   0  0  0  0  0  0  0  0  0  0  0  0
   47.9950   34.3790   39.6410 C   0  0  0  0  0  0  0  0  0  0  0  0
   49.3230   31.6351   41.1197 H   0  0  0  0  0  0  0  0  0  0  0  0
   51.7694   30.7599   40.2853 H   0  0  0  0  0  0  0  0  0  0  0  0
   52.3093   32.2270   40.1815 H   0  0  0  0  0  0  0  0  0  0  0  0
   52.0517   32.0656   43.1762 H   0  0  0  0  0  0  0  0  0  0  0  0
   51.6632   30.4803   44.0556 H   0  0  0  0  0  0  0  0  0  0  0  0
   49.6464   29.5154   43.9950 H   0  0  0  0  0  0  0  0  0  0  0  0
   49.3225   30.3542   42.4399 H   0  0  0  0  0  0  0  0  0  0  0  0
   50.0455   28.7098   42.4399 H   0  0  0  0  0  0  0  0  0  0  0  0
   52.3162   29.4641   41.2525 H   0  0  0  0  0  0  0  0  0  0  0  0
   51.9466   28.2608   42.5147 H   0  0  0  0  0  0  0  0  0  0  0  0
   54.5972   29.8297   41.1044 H   0  0  0  0  0  0  0  0  0  0  0  0
   54.7278   28.1580   41.7320 H   0  0  0  0  0  0  0  0  0  0  0  0
   56.5355   28.6742   43.0072 H   0  0  0  0  0  0  0  0  0  0  0  0
   56.6087   30.2079   42.0462 H   0  0  0  0  0  0  0  0  0  0  0  0
   56.6311   30.6683   44.3533 H   0  0  0  0  0  0  0  0  0  0  0  0
   55.6700   28.6675   45.1158 H   0  0  0  0  0  0  0  0  0  0  0  0
   54.7355   30.1111   45.7095 H   0  0  0  0  0  0  0  0  0  0  0  0
   52.8869   29.2744   44.8243 H   0  0  0  0  0  0  0  0  0  0  0  0
   53.7953   27.8600   44.2038 H   0  0  0  0  0  0  0  0  0  0  0  0
   48.1655   32.3553   40.8979 H   0  0  0  0  0  0  0  0  0  0  0  0
   48.0976   32.8478   42.5981 H   0  0  0  0  0  0  0  0  0  0  0  0
   45.4917   33.7864   39.9427 H   0  0  0  0  0  0  0  0  0  0  0  0
   45.0834   36.4012   44.0999 H   0  0  0  0  0  0  0  0  0  0  0  0
   42.6098   33.3131   40.8595 H   0  0  0  0  0  0  0  0  0  0  0  0
   48.9106   35.7142   42.6080 H   0  0  0  0  0  0  0  0  0  0  0  0
   49.8292   35.4365   41.0895 H   0  0  0  0  0  0  0  0  0  0  0  0
   48.4031   36.5287   41.0895 H   0  0  0  0  0  0  0  0  0  0  0  0
   48.7041   33.5966   39.3327 H   0  0  0  0  0  0  0  0  0  0  0  0
   46.9955   34.1444   39.2460 H   0  0  0  0  0  0  0  0  0  0  0  0
   48.3266   35.3506   39.2460 H   0  0  0  0  0  0  0  0  0  0  0  0
  1 14  1  0
  2  1  1  0
  2  4  1  0
  3  2  1  0
  3  4  1  0
  4  5  1  0
  6  5  1  0
  7  8  1  0
  7  5  1  0
  8 13  1  0
  9 10  1  0
  9  8  1  0
 10 11  1  0
 11 12  1  0
 13 12  1  0
 15 24  1  0
 15 18  1  0
 15 14  1  0
 16 21  2  0
 17 16  1  0
 17 18  2  0
 18 19  1  0
 19 20  2  0
 21 20  1  0
 22 16  1  0
 23 22  2  0
 25 15  1  0
  2 26  1  6
  3 27  1  0
  3 28  1  0
  4 29  1  1
  5 30  1  1
  6 31  1  0
  6 32  1  0
  6 33  1  0
  7 34  1  0
  7 35  1  0
  9 36  1  0
  9 37  1  0
 10 38  1  0
 10 39  1  0
 11 40  1  0
 12 41  1  0
 12 42  1  0
 13 43  1  0
 13 44  1  0
 14 45  1  0
 14 46  1  0
 17 47  1  0
 20 48  1  0
 22 49  1  0
 24 50  1  0
 24 51  1  0
 24 52  1  0
 25 53  1  0
 25 54  1  0
 25 55  1  0
M  ISO  8  26  13  27  13  28  13  29  13  30   8  31   8  32   8  33   8
M  ISO  8  34   8  35   8  36  13  37  13  38  13  39  13  40   5  41  13
M  ISO  8  42  13  43  13  44  13  45   8  46   8  47  14  48  14  49   6
M  ISO  6  50   8  51   8  52   8  53   8  54   8  55   8
M  END
>  <minimizedAffinity>  (1) 
-4.5395937

>  <minimizedRMSD>  (1) 
2.73845553

$$$$
