
     RDKit          3D

 51 53  0  0  1  0  0  0  0  0999 V2000
   50.2910   31.9650   41.2690 C   0  0  1  0  0  0  0  0  0  0  0  0
   51.6400   31.7410   40.7920 C   0  0  0  0  0  0  0  0  0  0  0  0
   51.3770   31.4030   42.2170 C   0  0  2  0  0  0  0  0  0  0  0  0
   51.2000   29.9660   42.6160 C   0  0  1  0  0  0  0  0  0  0  0  0
   49.9820   29.2980   42.0160 C   0  0  0  0  0  0  0  0  0  0  0  0
   52.3820   29.1600   42.1850 C   0  0  0  0  0  0  0  0  0  0  0  0
   53.5860   29.4290   42.9420 N   0  0  0  0  0  0  0  0  0  0  0  0
   53.7500   29.4080   44.2810 C   0  0  0  0  0  0  0  0  0  0  0  0
   54.9660   29.6890   44.8390 C   0  0  0  0  0  0  0  0  0  0  0  0
   56.0660   30.0020   44.0800 C   0  0  0  0  0  0  0  0  0  0  0  0
   57.1920   30.2620   44.5800 O   0  0  0  0  0  0  0  0  0  0  0  0
   55.8930   30.0200   42.7280 N   0  0  0  0  0  0  0  0  0  0  0  0
   54.6710   29.7370   42.2040 C   0  0  0  0  0  0  0  0  0  0  0  0
   54.6340   29.7860   40.9500 O   0  0  0  0  0  0  0  0  0  0  0  0
   49.8470   33.2040   41.6460 O   0  0  0  0  0  0  0  0  0  0  0  0
   48.4330   33.0700   41.5660 C   0  0  0  0  0  0  0  0  0  0  0  0
   47.9310   34.3890   41.1610 C   0  0  0  0  0  0  0  0  0  0  0  0
   44.1730   34.8130   41.3380 C   0  0  0  0  0  0  0  0  0  0  0  0
   45.4120   34.4080   40.8220 C   0  0  0  0  0  0  0  0  0  0  0  0
   46.5710   34.7340   41.5440 C   0  0  0  0  0  0  0  0  0  0  0  0
   46.4330   35.4240   42.7060 N   0  0  0  0  0  0  0  0  0  0  0  0
   45.2030   35.7970   43.1700 C   0  0  0  0  0  0  0  0  0  0  0  0
   44.0990   35.5000   42.5050 N   0  0  0  0  0  0  0  0  0  0  0  0
   43.0100   34.4400   40.5420 C   0  0  0  0  0  0  0  0  0  0  0  0
   42.4430   35.0900   39.6850 O   0  0  0  0  0  0  0  0  0  0  0  0
   48.8530   35.5330   41.4930 C   0  0  0  0  0  0  0  0  0  0  0  0
   47.9910   34.3360   39.6110 C   0  0  0  0  0  0  0  0  0  0  0  0
   49.3148   31.6763   40.8523 H   0  0  0  0  0  0  0  0  0  0  0  0
   51.8304   30.9319   40.0716 H   0  0  0  0  0  0  0  0  0  0  0  0
   52.3810   32.3813   40.2911 H   0  0  0  0  0  0  0  0  0  0  0  0
   51.8485   31.6717   43.1738 H   0  0  0  0  0  0  0  0  0  0  0  0
   51.0804   29.9937   43.7091 H   0  0  0  0  0  0  0  0  0  0  0  0
   49.3263   28.9384   42.8227 H   0  0  0  0  0  0  0  0  0  0  0  0
   49.4352   30.0225   41.3946 H   0  0  0  0  0  0  0  0  0  0  0  0
   50.2990   28.4475   41.3946 H   0  0  0  0  0  0  0  0  0  0  0  0
   52.1336   28.0944   42.2976 H   0  0  0  0  0  0  0  0  0  0  0  0
   52.5933   29.4380   41.1419 H   0  0  0  0  0  0  0  0  0  0  0  0
   52.8967   29.1623   44.9303 H   0  0  0  0  0  0  0  0  0  0  0  0
   55.0664   29.6634   45.9341 H   0  0  0  0  0  0  0  0  0  0  0  0
   56.6832   30.2466   42.1074 H   0  0  0  0  0  0  0  0  0  0  0  0
   48.1615   32.3102   40.8184 H   0  0  0  0  0  0  0  0  0  0  0  0
   48.0009   32.7482   42.5250 H   0  0  0  0  0  0  0  0  0  0  0  0
   45.4744   33.8495   39.8764 H   0  0  0  0  0  0  0  0  0  0  0  0
   45.1296   36.3552   44.1150 H   0  0  0  0  0  0  0  0  0  0  0  0
   42.5918   33.4425   40.7424 H   0  0  0  0  0  0  0  0  0  0  0  0
   48.9340   35.6335   42.5854 H   0  0  0  0  0  0  0  0  0  0  0  0
   49.8485   35.3369   41.0680 H   0  0  0  0  0  0  0  0  0  0  0  0
   48.4498   36.4641   41.0680 H   0  0  0  0  0  0  0  0  0  0  0  0
   48.7814   33.6378   39.2983 H   0  0  0  0  0  0  0  0  0  0  0  0
   47.0225   33.9932   39.2181 H   0  0  0  0  0  0  0  0  0  0  0  0
   48.2117   35.3395   39.2181 H   0  0  0  0  0  0  0  0  0  0  0  0
  1 15  1  0
  1  3  1  0
  2  1  1  0
  2  3  1  0
  3  4  1  0
  5  4  1  0
  6  4  1  0
  6  7  1  0
  7  8  1  0
  8  9  2  0
 10 11  2  0
 10  9  1  0
 12 10  1  0
 13 12  1  0
 13  7  1  0
 14 13  2  0
 16 15  1  0
 17 26  1  0
 17 20  1  0
 17 16  1  0
 18 23  2  0
 19 18  1  0
 19 20  2  0
 20 21  1  0
 21 22  2  0
 23 22  1  0
 24 18  1  0
 25 24  2  0
 27 17  1  0
  1 28  1  6
  2 29  1  0
  2 30  1  0
  3 31  1  1
  4 32  1  1
  5 33  1  0
  5 34  1  0
  5 35  1  0
  6 36  1  0
  6 37  1  0
  8 38  1  0
  9 39  1  0
 12 40  1  0
 16 41  1  0
 16 42  1  0
 19 43  1  0
 22 44  1  0
 24 45  1  0
 26 46  1  0
 26 47  1  0
 26 48  1  0
 27 49  1  0
 27 50  1  0
 27 51  1  0
M  ISO  8  28  13  29  13  30  13  31  13  32   8  33   8  34   8  35   8
M  ISO  8  36   8  37   8  38  14  39  14  40   9  41   8  42   8  43  14
M  ISO  8  44  14  45   6  46   8  47   8  48   8  49   8  50   8  51   8
M  END
>  <minimizedAffinity>  (1) 
-4.59931755

>  <minimizedRMSD>  (1) 
3.18381119

$$$$
