
     RDKit          3D

 50 52  0  0  1  0  0  0  0  0999 V2000
   49.8840   33.2430   41.5860 O   0  0  0  0  0  0  0  0  0  0  0  0
   50.2970   31.9620   41.3160 C   0  0  1  0  0  0  0  0  0  0  0  0
   51.6300   31.6670   40.8350 C   0  0  0  0  0  0  0  0  0  0  0  0
   51.3980   31.4720   42.2840 C   0  0  2  0  0  0  0  0  0  0  0  0
   51.2120   30.0910   42.8380 C   0  0  1  0  0  0  0  0  0  0  0  0
   49.8850   29.4630   42.4900 C   0  0  0  0  0  0  0  0  0  0  0  0
   52.2680   29.1530   42.2750 C   0  0  0  0  0  0  0  0  0  0  0  0
   53.5870   29.3960   42.9240 C   0  0  0  0  0  0  0  0  0  0  0  0
   54.6810   29.4990   42.0890 C   0  0  0  0  0  0  0  0  0  0  0  0
   55.9380   29.7230   42.6080 C   0  0  0  0  0  0  0  0  0  0  0  0
   56.1340   29.8500   43.9500 C   0  0  0  0  0  0  0  0  0  0  0  0
   55.0190   29.7420   44.7570 C   0  0  0  0  0  0  0  0  0  0  0  0
   53.7970   29.5230   44.2390 N   0  0  0  0  0  0  0  0  0  0  0  0
   48.4660   33.1200   41.6020 C   0  0  0  0  0  0  0  0  0  0  0  0
   47.9450   34.4280   41.1830 C   0  0  0  0  0  0  0  0  0  0  0  0
   44.1810   34.8040   41.3460 C   0  0  0  0  0  0  0  0  0  0  0  0
   45.4270   34.4170   40.8340 C   0  0  0  0  0  0  0  0  0  0  0  0
   46.5790   34.7530   41.5610 C   0  0  0  0  0  0  0  0  0  0  0  0
   46.4280   35.4380   42.7250 N   0  0  0  0  0  0  0  0  0  0  0  0
   45.1890   35.7940   43.1860 C   0  0  0  0  0  0  0  0  0  0  0  0
   44.0900   35.4850   42.5120 N   0  0  0  0  0  0  0  0  0  0  0  0
   43.0280   34.4160   40.5430 C   0  0  0  0  0  0  0  0  0  0  0  0
   42.4510   35.0480   39.6860 O   0  0  0  0  0  0  0  0  0  0  0  0
   48.8500   35.5830   41.5150 C   0  0  0  0  0  0  0  0  0  0  0  0
   48.0070   34.3660   39.6340 C   0  0  0  0  0  0  0  0  0  0  0  0
   49.3057   31.6552   40.9510 H   0  0  0  0  0  0  0  0  0  0  0  0
   51.7892   30.7893   40.1913 H   0  0  0  0  0  0  0  0  0  0  0  0
   52.3698   32.2426   40.2593 H   0  0  0  0  0  0  0  0  0  0  0  0
   51.9007   31.8213   43.1980 H   0  0  0  0  0  0  0  0  0  0  0  0
   51.2805   30.2171   43.9286 H   0  0  0  0  0  0  0  0  0  0  0  0
   49.3463   29.2081   43.4146 H   0  0  0  0  0  0  0  0  0  0  0  0
   49.2864   30.1734   41.9009 H   0  0  0  0  0  0  0  0  0  0  0  0
   50.0548   28.5497   41.9009 H   0  0  0  0  0  0  0  0  0  0  0  0
   51.9615   28.1125   42.4581 H   0  0  0  0  0  0  0  0  0  0  0  0
   52.3656   29.3373   41.1949 H   0  0  0  0  0  0  0  0  0  0  0  0
   54.5488   29.4016   41.0013 H   0  0  0  0  0  0  0  0  0  0  0  0
   56.7980   29.8006   41.9266 H   0  0  0  0  0  0  0  0  0  0  0  0
   57.1341   30.0302   44.3711 H   0  0  0  0  0  0  0  0  0  0  0  0
   55.1323   29.8371   45.8470 H   0  0  0  0  0  0  0  0  0  0  0  0
   48.1417   32.3364   40.9014 H   0  0  0  0  0  0  0  0  0  0  0  0
   48.0958   32.8376   42.5986 H   0  0  0  0  0  0  0  0  0  0  0  0
   45.4999   33.8638   39.8860 H   0  0  0  0  0  0  0  0  0  0  0  0
   45.1038   36.3467   44.1332 H   0  0  0  0  0  0  0  0  0  0  0  0
   42.6270   33.4114   40.7428 H   0  0  0  0  0  0  0  0  0  0  0  0
   48.9294   35.6843   42.6074 H   0  0  0  0  0  0  0  0  0  0  0  0
   49.8481   35.4006   41.0902 H   0  0  0  0  0  0  0  0  0  0  0  0
   48.4342   36.5085   41.0902 H   0  0  0  0  0  0  0  0  0  0  0  0
   48.7538   33.6192   39.3265 H   0  0  0  0  0  0  0  0  0  0  0  0
   47.0205   34.0823   39.2386 H   0  0  0  0  0  0  0  0  0  0  0  0
   48.2907   35.3525   39.2386 H   0  0  0  0  0  0  0  0  0  0  0  0
  1 14  1  0
  2  1  1  0
  2  4  1  0
  3  2  1  0
  3  4  1  0
  4  5  1  0
  6  5  1  0
  7  5  1  0
  7  8  1  0
  8 13  2  0
  9 10  2  0
  9  8  1  0
 10 11  1  0
 11 12  2  0
 13 12  1  0
 15 24  1  0
 15 18  1  0
 15 14  1  0
 16 21  2  0
 17 16  1  0
 17 18  2  0
 18 19  1  0
 19 20  2  0
 21 20  1  0
 22 16  1  0
 23 22  2  0
 25 15  1  0
  2 26  1  6
  3 27  1  0
  3 28  1  0
  4 29  1  1
  5 30  1  1
  6 31  1  0
  6 32  1  0
  6 33  1  0
  7 34  1  0
  7 35  1  0
  9 36  1  0
 10 37  1  0
 11 38  1  0
 12 39  1  0
 14 40  1  0
 14 41  1  0
 17 42  1  0
 20 43  1  0
 22 44  1  0
 24 45  1  0
 24 46  1  0
 24 47  1  0
 25 48  1  0
 25 49  1  0
 25 50  1  0
M  ISO  8  26  13  27  13  28  13  29  13  30   8  31   8  32   8  33   8
M  ISO  8  34   8  35   8  36  14  37  14  38  14  39  14  40   8  41   8
M  ISO  8  42  14  43  14  44   6  45   8  46   8  47   8  48   8  49   8
M  ISO  1  50   8
M  END
>  <minimizedAffinity>  (1) 
-4.38837862

>  <minimizedRMSD>  (1) 
2.84167647

$$$$
