
     RDKit          3D

 51 53  0  0  1  0  0  0  0  0999 V2000
   49.8720   33.2760   41.5140 O   0  0  0  0  0  0  0  0  0  0  0  0
   50.2920   31.9720   41.3620 C   0  0  1  0  0  0  0  0  0  0  0  0
   51.6420   31.6380   40.9610 C   0  0  0  0  0  0  0  0  0  0  0  0
   51.3350   31.5290   42.4040 C   0  0  2  0  0  0  0  0  0  0  0  0
   51.0930   30.1850   43.0250 C   0  0  1  0  0  0  0  0  0  0  0  0
   49.8780   29.4540   42.5050 C   0  0  0  0  0  0  0  0  0  0  0  0
   52.2700   29.2790   42.7630 C   0  0  0  0  0  0  0  0  0  0  0  0
   53.2590   29.5400   43.8420 C   0  0  0  0  0  0  0  0  0  0  0  0
   52.9810   29.9240   45.1450 C   0  0  0  0  0  0  0  0  0  0  0  0
   53.9930   30.1390   46.0560 C   0  0  0  0  0  0  0  0  0  0  0  0
   55.3240   29.9870   45.7280 C   0  0  0  0  0  0  0  0  0  0  0  0
   55.6720   29.6060   44.4490 C   0  0  0  0  0  0  0  0  0  0  0  0
   54.6260   29.4020   43.5730 C   0  0  0  0  0  0  0  0  0  0  0  0
   48.4560   33.1200   41.5940 C   0  0  0  0  0  0  0  0  0  0  0  0
   47.9470   34.4860   41.1900 C   0  0  0  0  0  0  0  0  0  0  0  0
   44.1600   34.7400   41.3920 C   0  0  0  0  0  0  0  0  0  0  0  0
   45.4120   34.3820   40.8800 C   0  0  0  0  0  0  0  0  0  0  0  0
   46.5710   34.7670   41.5690 C   0  0  0  0  0  0  0  0  0  0  0  0
   46.4130   35.4780   42.7180 N   0  0  0  0  0  0  0  0  0  0  0  0
   45.1600   35.8060   43.1820 C   0  0  0  0  0  0  0  0  0  0  0  0
   44.0620   35.4450   42.5340 N   0  0  0  0  0  0  0  0  0  0  0  0
   43.0040   34.3000   40.6200 C   0  0  0  0  0  0  0  0  0  0  0  0
   42.4340   34.8930   39.7290 O   0  0  0  0  0  0  0  0  0  0  0  0
   48.8270   35.6140   41.5350 C   0  0  0  0  0  0  0  0  0  0  0  0
   47.9880   34.4040   39.6410 C   0  0  0  0  0  0  0  0  0  0  0  0
   49.3120   31.6511   40.9791 H   0  0  0  0  0  0  0  0  0  0  0  0
   51.8212   30.7237   40.3763 H   0  0  0  0  0  0  0  0  0  0  0  0
   52.4160   32.1719   40.3901 H   0  0  0  0  0  0  0  0  0  0  0  0
   51.8013   31.9238   43.3187 H   0  0  0  0  0  0  0  0  0  0  0  0
   50.9359   30.4012   44.0920 H   0  0  0  0  0  0  0  0  0  0  0  0
   49.2771   29.0924   43.3524 H   0  0  0  0  0  0  0  0  0  0  0  0
   49.2730   30.1382   41.8919 H   0  0  0  0  0  0  0  0  0  0  0  0
   50.1990   28.5990   41.8919 H   0  0  0  0  0  0  0  0  0  0  0  0
   51.9511   28.2265   42.7876 H   0  0  0  0  0  0  0  0  0  0  0  0
   52.7056   29.4731   41.7718 H   0  0  0  0  0  0  0  0  0  0  0  0
   51.9349   30.0594   45.4571 H   0  0  0  0  0  0  0  0  0  0  0  0
   53.7299   30.4423   47.0801 H   0  0  0  0  0  0  0  0  0  0  0  0
   56.1037   30.1687   46.4824 H   0  0  0  0  0  0  0  0  0  0  0  0
   56.7209   29.4728   44.1455 H   0  0  0  0  0  0  0  0  0  0  0  0
   54.8956   29.0975   42.5509 H   0  0  0  0  0  0  0  0  0  0  0  0
   48.1027   32.3437   40.8993 H   0  0  0  0  0  0  0  0  0  0  0  0
   48.1077   32.8009   42.5874 H   0  0  0  0  0  0  0  0  0  0  0  0
   45.4863   33.8045   39.9467 H   0  0  0  0  0  0  0  0  0  0  0  0
   45.0674   36.3824   44.1143 H   0  0  0  0  0  0  0  0  0  0  0  0
   42.5998   33.3098   40.8771 H   0  0  0  0  0  0  0  0  0  0  0  0
   48.8967   35.7033   42.6291 H   0  0  0  0  0  0  0  0  0  0  0  0
   49.8292   35.4384   41.1169 H   0  0  0  0  0  0  0  0  0  0  0  0
   48.4129   36.5433   41.1169 H   0  0  0  0  0  0  0  0  0  0  0  0
   48.4607   33.4586   39.3363 H   0  0  0  0  0  0  0  0  0  0  0  0
   46.9629   34.4460   39.2443 H   0  0  0  0  0  0  0  0  0  0  0  0
   48.5695   35.2493   39.2443 H   0  0  0  0  0  0  0  0  0  0  0  0
  1 14  1  0
  2  1  1  0
  2  4  1  0
  3  2  1  0
  3  4  1  0
  4  5  1  0
  6  5  1  0
  7  5  1  0
  7  8  1  0
  8  9  2  0
  9 10  1  0
 11 10  2  0
 12 11  1  0
 13  8  1  0
 13 12  2  0
 15 24  1  0
 15 18  1  0
 15 14  1  0
 16 21  2  0
 17 16  1  0
 17 18  2  0
 18 19  1  0
 19 20  2  0
 21 20  1  0
 22 16  1  0
 23 22  2  0
 25 15  1  0
  2 26  1  6
  3 27  1  0
  3 28  1  0
  4 29  1  1
  5 30  1  1
  6 31  1  0
  6 32  1  0
  6 33  1  0
  7 34  1  0
  7 35  1  0
  9 36  1  0
 10 37  1  0
 11 38  1  0
 12 39  1  0
 13 40  1  0
 14 41  1  0
 14 42  1  0
 17 43  1  0
 20 44  1  0
 22 45  1  0
 24 46  1  0
 24 47  1  0
 24 48  1  0
 25 49  1  0
 25 50  1  0
 25 51  1  0
M  ISO  8  26  13  27  13  28  13  29  13  30   8  31   8  32   8  33   8
M  ISO  8  34   8  35   8  36  14  37  14  38  14  39  14  40  14  41   8
M  ISO  8  42   8  43  14  44  14  45   6  46   8  47   8  48   8  49   8
M  ISO  2  50   8  51   8
M  END
>  <minimizedAffinity>  (1) 
-4.43362713

>  <minimizedRMSD>  (1) 
2.70829535

$$$$
