
     RDKit          3D

 52 55  0  0  1  0  0  0  0  0999 V2000
   50.2910   31.9680   41.3520 C   0  0  1  0  0  0  0  0  0  0  0  0
   51.6370   31.6430   40.9290 C   0  0  0  0  0  0  0  0  0  0  0  0
   51.3360   31.4800   42.3740 C   0  0  2  0  0  0  0  0  0  0  0  0
   51.0890   30.1050   42.9280 C   0  0  1  0  0  0  0  0  0  0  0  0
   49.7810   29.4860   42.4960 C   0  0  0  0  0  0  0  0  0  0  0  0
   52.1730   29.1620   42.4770 C   0  0  0  0  0  0  0  0  0  0  0  0
   53.4370   29.3810   43.1790 N   0  0  0  0  0  0  0  0  0  0  0  0
   54.5900   29.4240   42.4850 C   0  0  0  0  0  0  0  0  0  0  0  0
   55.6270   29.6380   43.3380 N   0  0  0  0  0  0  0  0  0  0  0  0
   55.1390   29.7290   44.5710 C   0  0  0  0  0  0  0  0  0  0  0  0
   55.6090   29.9300   45.8440 C   0  0  0  0  0  0  0  0  0  0  0  0
   54.7480   29.9580   46.8950 N   0  0  0  0  0  0  0  0  0  0  0  0
   53.4270   29.7990   46.7700 C   0  0  0  0  0  0  0  0  0  0  0  0
   52.9370   29.6000   45.5210 N   0  0  0  0  0  0  0  0  0  0  0  0
   53.7730   29.5680   44.4690 C   0  0  0  0  0  0  0  0  0  0  0  0
   49.8890   33.2590   41.5580 O   0  0  0  0  0  0  0  0  0  0  0  0
   48.4780   33.1540   41.6190 C   0  0  0  0  0  0  0  0  0  0  0  0
   47.9570   34.4620   41.2160 C   0  0  0  0  0  0  0  0  0  0  0  0
   44.1840   34.8160   41.3560 C   0  0  0  0  0  0  0  0  0  0  0  0
   45.4350   34.4340   40.8530 C   0  0  0  0  0  0  0  0  0  0  0  0
   46.5840   34.7770   41.5780 C   0  0  0  0  0  0  0  0  0  0  0  0
   46.4250   35.4650   42.7380 N   0  0  0  0  0  0  0  0  0  0  0  0
   45.1860   35.8180   43.1930 C   0  0  0  0  0  0  0  0  0  0  0  0
   44.0880   35.4990   42.5150 N   0  0  0  0  0  0  0  0  0  0  0  0
   43.0330   34.4240   40.5530 C   0  0  0  0  0  0  0  0  0  0  0  0
   42.4480   35.0670   39.7030 O   0  0  0  0  0  0  0  0  0  0  0  0
   48.8530   35.6190   41.5310 C   0  0  0  0  0  0  0  0  0  0  0  0
   48.0180   34.3820   39.6580 C   0  0  0  0  0  0  0  0  0  0  0  0
   49.3078   31.6666   40.9616 H   0  0  0  0  0  0  0  0  0  0  0  0
   51.8079   30.7509   40.3086 H   0  0  0  0  0  0  0  0  0  0  0  0
   52.4103   32.1942   40.3739 H   0  0  0  0  0  0  0  0  0  0  0  0
   51.8047   31.8378   43.3026 H   0  0  0  0  0  0  0  0  0  0  0  0
   51.0683   30.2435   44.0190 H   0  0  0  0  0  0  0  0  0  0  0  0
   49.1953   29.2088   43.3849 H   0  0  0  0  0  0  0  0  0  0  0  0
   49.2133   30.2110   41.8942 H   0  0  0  0  0  0  0  0  0  0  0  0
   49.9817   28.5873   41.8942 H   0  0  0  0  0  0  0  0  0  0  0  0
   51.8414   28.1297   42.6623 H   0  0  0  0  0  0  0  0  0  0  0  0
   52.3501   29.3454   41.4070 H   0  0  0  0  0  0  0  0  0  0  0  0
   54.6793   29.3044   41.3952 H   0  0  0  0  0  0  0  0  0  0  0  0
   56.6868   30.0690   46.0147 H   0  0  0  0  0  0  0  0  0  0  0  0
   52.7627   29.8284   47.6463 H   0  0  0  0  0  0  0  0  0  0  0  0
   48.1230   32.3728   40.9307 H   0  0  0  0  0  0  0  0  0  0  0  0
   48.1382   32.8790   42.6284 H   0  0  0  0  0  0  0  0  0  0  0  0
   45.5134   33.8762   39.9082 H   0  0  0  0  0  0  0  0  0  0  0  0
   45.0955   36.3758   44.1367 H   0  0  0  0  0  0  0  0  0  0  0  0
   42.6419   33.4131   40.7406 H   0  0  0  0  0  0  0  0  0  0  0  0
   48.9388   35.7299   42.6220 H   0  0  0  0  0  0  0  0  0  0  0  0
   49.8494   35.4388   41.1012 H   0  0  0  0  0  0  0  0  0  0  0  0
   48.4292   36.5386   41.1012 H   0  0  0  0  0  0  0  0  0  0  0  0
   48.6599   33.5402   39.3589 H   0  0  0  0  0  0  0  0  0  0  0  0
   47.0044   34.2301   39.2587 H   0  0  0  0  0  0  0  0  0  0  0  0
   48.4328   35.3193   39.2587 H   0  0  0  0  0  0  0  0  0  0  0  0
  1 16  1  0
  1  3  1  0
  2  1  1  0
  2  3  1  0
  3  4  1  0
  5  4  1  0
  6  4  1  0
  6  7  1  0
  7 15  1  0
  8  7  1  0
  8  9  2  0
  9 10  1  0
 10 11  2  0
 11 12  1  0
 13 12  2  0
 14 13  1  0
 15 10  1  0
 15 14  2  0
 16 17  1  0
 18 27  1  0
 18 21  1  0
 18 17  1  0
 19 24  2  0
 20 19  1  0
 20 21  2  0
 21 22  1  0
 22 23  2  0
 24 23  1  0
 25 19  1  0
 26 25  2  0
 28 18  1  0
  1 29  1  6
  2 30  1  0
  2 31  1  0
  3 32  1  1
  4 33  1  1
  5 34  1  0
  5 35  1  0
  5 36  1  0
  6 37  1  0
  6 38  1  0
  8 39  1  0
 11 40  1  0
 13 41  1  0
 17 42  1  0
 17 43  1  0
 20 44  1  0
 23 45  1  0
 25 46  1  0
 27 47  1  0
 27 48  1  0
 27 49  1  0
 28 50  1  0
 28 51  1  0
 28 52  1  0
M  ISO  8  29  13  30  13  31  13  32  13  33   8  34   8  35   8  36   8
M  ISO  8  37   8  38   8  39  14  40  14  41  14  42   8  43   8  44  14
M  ISO  8  45  14  46   6  47   8  48   8  49   8  50   8  51   8  52   8
M  END
>  <minimizedAffinity>  (1) 
-4.5106039

>  <minimizedRMSD>  (1) 
3.51114988

$$$$
