
     RDKit          3D

 48 50  0  0  1  0  0  0  0  0999 V2000
   48.6440   33.3360   41.9270 C   0  0  0  0  0  0  0  0  0  0  0  0
   48.0450   34.5410   41.3340 C   0  0  0  0  0  0  0  0  0  0  0  0
   44.2650   34.7810   41.3680 C   0  0  0  0  0  0  0  0  0  0  0  0
   45.5480   34.4340   40.9120 C   0  0  0  0  0  0  0  0  0  0  0  0
   46.6570   34.8260   41.6650 C   0  0  0  0  0  0  0  0  0  0  0  0
   46.4370   35.5280   42.8060 N   0  0  0  0  0  0  0  0  0  0  0  0
   45.1770   35.8480   43.2190 C   0  0  0  0  0  0  0  0  0  0  0  0
   44.1150   35.4830   42.5180 N   0  0  0  0  0  0  0  0  0  0  0  0
   43.1540   34.3270   40.5310 C   0  0  0  0  0  0  0  0  0  0  0  0
   42.4830   34.9760   39.7650 O   0  0  0  0  0  0  0  0  0  0  0  0
   48.8690   35.7870   41.5220 C   0  0  0  0  0  0  0  0  0  0  0  0
   48.1340   34.2840   39.8110 C   0  0  0  0  0  0  0  0  0  0  0  0
   49.6260   32.8860   41.0000 O   0  0  0  0  0  0  0  0  0  0  0  0
   50.4780   32.1730   41.8000 C   0  0  1  0  0  0  0  0  0  0  0  0
   50.0550   30.9870   42.5350 C   0  0  0  0  0  0  0  0  0  0  0  0
   50.7840   30.7670   41.2790 C   0  0  2  0  0  0  0  0  0  0  0  0
   52.2540   30.3900   41.2880 C   0  0  1  0  0  0  0  0  0  0  0  0
   52.5910   29.1890   42.1020 C   0  0  0  0  0  0  0  0  0  0  0  0
   52.7170   30.1900   39.8970 C   0  0  0  0  0  0  0  0  0  0  0  0
   53.3140   31.3720   39.2040 C   0  0  0  0  0  0  0  0  0  0  0  0
   52.5770   31.6400   37.8610 C   0  0  0  0  0  0  0  0  0  0  0  0
   54.0260   31.3800   37.9330 C   0  0  0  0  0  0  0  0  0  0  0  0
   49.1128   33.5782   42.8922 H   0  0  0  0  0  0  0  0  0  0  0  0
   47.8857   32.5620   42.1164 H   0  0  0  0  0  0  0  0  0  0  0  0
   45.6765   33.8645   39.9797 H   0  0  0  0  0  0  0  0  0  0  0  0
   45.0411   36.4186   44.1496 H   0  0  0  0  0  0  0  0  0  0  0  0
   42.8977   33.2601   40.6094 H   0  0  0  0  0  0  0  0  0  0  0  0
   48.9982   35.9824   42.5968 H   0  0  0  0  0  0  0  0  0  0  0  0
   49.8545   35.6490   41.0533 H   0  0  0  0  0  0  0  0  0  0  0  0
   48.3562   36.6399   41.0533 H   0  0  0  0  0  0  0  0  0  0  0  0
   48.4892   33.2584   39.6324 H   0  0  0  0  0  0  0  0  0  0  0  0
   47.1394   34.4115   39.3589 H   0  0  0  0  0  0  0  0  0  0  0  0
   48.8367   34.9994   39.3589 H   0  0  0  0  0  0  0  0  0  0  0  0
   51.0123   33.0813   42.1154 H   0  0  0  0  0  0  0  0  0  0  0  0
   50.5390   30.7419   43.4919 H   0  0  0  0  0  0  0  0  0  0  0  0
   49.0859   30.6386   42.9216 H   0  0  0  0  0  0  0  0  0  0  0  0
   50.5816   30.1574   40.3860 H   0  0  0  0  0  0  0  0  0  0  0  0
   52.7743   31.2296   41.7720 H   0  0  0  0  0  0  0  0  0  0  0  0
   52.5208   29.4390   43.1709 H   0  0  0  0  0  0  0  0  0  0  0  0
   51.8858   28.3779   41.8681 H   0  0  0  0  0  0  0  0  0  0  0  0
   53.6153   28.8631   41.8681 H   0  0  0  0  0  0  0  0  0  0  0  0
   53.4770   29.3949   39.9113 H   0  0  0  0  0  0  0  0  0  0  0  0
   51.8081   29.9524   39.3248 H   0  0  0  0  0  0  0  0  0  0  0  0
   53.6030   31.8327   40.1601 H   0  0  0  0  0  0  0  0  0  0  0  0
   52.2029   32.6465   37.6221 H   0  0  0  0  0  0  0  0  0  0  0  0
   51.7192   31.2051   37.3270 H   0  0  0  0  0  0  0  0  0  0  0  0
   54.4240   30.4358   37.5330 H   0  0  0  0  0  0  0  0  0  0  0  0
   54.9080   31.9263   37.5675 H   0  0  0  0  0  0  0  0  0  0  0  0
  2 11  1  0
  2  5  1  0
  2  1  1  0
  3  8  2  0
  4  3  1  0
  4  5  2  0
  5  6  1  0
  6  7  2  0
  8  7  1  0
  9  3  1  0
 10  9  2  0
 12  2  1  0
 13 14  1  0
 13  1  1  0
 14 15  1  0
 16 17  1  0
 16 14  1  0
 16 15  1  0
 17 18  1  0
 19 17  1  0
 20 19  1  0
 21 22  1  0
 21 20  1  0
 22 20  1  0
  1 23  1  0
  1 24  1  0
  4 25  1  0
  7 26  1  0
  9 27  1  0
 11 28  1  0
 11 29  1  0
 11 30  1  0
 12 31  1  0
 12 32  1  0
 12 33  1  0
 14 34  1  1
 15 35  1  0
 15 36  1  0
 16 37  1  6
 17 38  1  1
 18 39  1  0
 18 40  1  0
 18 41  1  0
 19 42  1  0
 19 43  1  0
 20 44  1  0
 21 45  1  0
 21 46  1  0
 22 47  1  0
 22 48  1  0
M  ISO  8  23   8  24   8  25  14  26  14  27   6  28   8  29   8  30   8
M  ISO  8  31   8  32   8  33   8  34  13  35  13  36  13  37  13  38   8
M  ISO  8  39   8  40   8  41   8  42   8  43   8  44  13  45  13  46  13
M  ISO  2  47  13  48  13
M  END
>  <minimizedAffinity>  (1) 
-4.40908098

>  <minimizedRMSD>  (1) 
1.88850904

$$$$
