
     RDKit          3D

 48 50  0  0  1  0  0  0  0  0999 V2000
   48.4730   33.1450   41.5980 C   0  0  0  0  0  0  0  0  0  0  0  0
   47.9400   34.4510   41.2020 C   0  0  0  0  0  0  0  0  0  0  0  0
   44.1680   34.7550   41.3830 C   0  0  0  0  0  0  0  0  0  0  0  0
   45.4180   34.3800   40.8750 C   0  0  0  0  0  0  0  0  0  0  0  0
   46.5700   34.7590   41.5790 C   0  0  0  0  0  0  0  0  0  0  0  0
   46.4130   35.4750   42.7210 N   0  0  0  0  0  0  0  0  0  0  0  0
   45.1750   35.8200   43.1830 C   0  0  0  0  0  0  0  0  0  0  0  0
   44.0730   35.4650   42.5250 N   0  0  0  0  0  0  0  0  0  0  0  0
   43.0160   34.3190   40.6020 C   0  0  0  0  0  0  0  0  0  0  0  0
   42.4370   34.9040   39.7170 O   0  0  0  0  0  0  0  0  0  0  0  0
   48.8330   35.6130   41.5290 C   0  0  0  0  0  0  0  0  0  0  0  0
   47.9980   34.3900   39.6460 C   0  0  0  0  0  0  0  0  0  0  0  0
   49.8850   33.2630   41.5400 O   0  0  0  0  0  0  0  0  0  0  0  0
   50.3000   31.9700   41.3670 C   0  0  1  0  0  0  0  0  0  0  0  0
   51.6470   31.6400   40.9570 C   0  0  0  0  0  0  0  0  0  0  0  0
   51.3520   31.5290   42.4110 C   0  0  2  0  0  0  0  0  0  0  0  0
   51.1230   30.1730   43.0140 C   0  0  1  0  0  0  0  0  0  0  0  0
   49.9100   29.4460   42.4750 C   0  0  0  0  0  0  0  0  0  0  0  0
   52.3060   29.2690   42.7170 C   0  0  0  0  0  0  0  0  0  0  0  0
   53.4230   29.4940   43.6100 N   0  0  0  0  0  0  0  0  0  0  0  0
   54.7380   29.3900   43.2870 C   0  0  0  0  0  0  0  0  0  0  0  0
   55.5740   29.6630   44.3470 C   0  0  0  0  0  0  0  0  0  0  0  0
   54.7090   29.9460   45.3630 N   0  0  0  0  0  0  0  0  0  0  0  0
   53.4530   29.8370   44.8950 C   0  0  0  0  0  0  0  0  0  0  0  0
   48.1523   32.8957   42.6203 H   0  0  0  0  0  0  0  0  0  0  0  0
   48.1089   32.3449   40.9368 H   0  0  0  0  0  0  0  0  0  0  0  0
   45.4946   33.8003   39.9433 H   0  0  0  0  0  0  0  0  0  0  0  0
   45.0867   36.4003   44.1133 H   0  0  0  0  0  0  0  0  0  0  0  0
   42.6208   33.3234   40.8522 H   0  0  0  0  0  0  0  0  0  0  0  0
   48.9134   35.7177   42.6211 H   0  0  0  0  0  0  0  0  0  0  0  0
   49.8320   35.4390   41.1028 H   0  0  0  0  0  0  0  0  0  0  0  0
   48.4077   36.5336   41.1028 H   0  0  0  0  0  0  0  0  0  0  0  0
   48.7252   33.6252   39.3359 H   0  0  0  0  0  0  0  0  0  0  0  0
   47.0040   34.1320   39.2519 H   0  0  0  0  0  0  0  0  0  0  0  0
   48.3057   35.3698   39.2519 H   0  0  0  0  0  0  0  0  0  0  0  0
   49.3221   31.6478   40.9799 H   0  0  0  0  0  0  0  0  0  0  0  0
   51.8242   30.7262   40.3709 H   0  0  0  0  0  0  0  0  0  0  0  0
   52.4146   32.1766   40.3801 H   0  0  0  0  0  0  0  0  0  0  0  0
   51.8161   31.9263   43.3258 H   0  0  0  0  0  0  0  0  0  0  0  0
   50.9765   30.3674   44.0867 H   0  0  0  0  0  0  0  0  0  0  0  0
   49.2993   29.0800   43.3135 H   0  0  0  0  0  0  0  0  0  0  0  0
   49.3128   30.1352   41.8599 H   0  0  0  0  0  0  0  0  0  0  0  0
   50.2362   28.5944   41.8599 H   0  0  0  0  0  0  0  0  0  0  0  0
   51.9821   28.2225   42.8163 H   0  0  0  0  0  0  0  0  0  0  0  0
   52.6476   29.4957   41.6963 H   0  0  0  0  0  0  0  0  0  0  0  0
   55.0977   29.1165   42.2841 H   0  0  0  0  0  0  0  0  0  0  0  0
   56.6738   29.6548   44.3689 H   0  0  0  0  0  0  0  0  0  0  0  0
   52.5540   30.0114   45.5045 H   0  0  0  0  0  0  0  0  0  0  0  0
  2 11  1  0
  2  5  1  0
  2  1  1  0
  3  8  2  0
  4  3  1  0
  4  5  2  0
  5  6  1  0
  6  7  2  0
  8  7  1  0
  9  3  1  0
 10  9  2  0
 12  2  1  0
 13  1  1  0
 14 13  1  0
 14 16  1  0
 15 14  1  0
 15 16  1  0
 16 17  1  0
 18 17  1  0
 19 17  1  0
 19 20  1  0
 20 24  1  0
 21 20  1  0
 21 22  2  0
 22 23  1  0
 24 23  2  0
  1 25  1  0
  1 26  1  0
  4 27  1  0
  7 28  1  0
  9 29  1  0
 11 30  1  0
 11 31  1  0
 11 32  1  0
 12 33  1  0
 12 34  1  0
 12 35  1  0
 14 36  1  6
 15 37  1  0
 15 38  1  0
 16 39  1  1
 17 40  1  1
 18 41  1  0
 18 42  1  0
 18 43  1  0
 19 44  1  0
 19 45  1  0
 21 46  1  0
 22 47  1  0
 24 48  1  0
M  ISO  8  25   8  26   8  27  14  28  14  29   6  30   8  31   8  32   8
M  ISO  8  33   8  34   8  35   8  36  13  37  13  38  13  39  13  40   8
M  ISO  8  41   8  42   8  43   8  44   8  45   8  46  14  47  14  48  14
M  END
>  <minimizedAffinity>  (1) 
-4.29836416

>  <minimizedRMSD>  (1) 
2.46624494

$$$$
