
     RDKit          3D

 54 56  0  0  1  0  0  0  0  0999 V2000
   50.2820   31.9920   41.4280 C   0  0  1  0  0  0  0  0  0  0  0  0
   51.6240   31.7150   40.9610 C   0  0  0  0  0  0  0  0  0  0  0  0
   51.3660   31.5060   42.4100 C   0  0  2  0  0  0  0  0  0  0  0  0
   51.1790   30.1030   42.9210 C   0  0  1  0  0  0  0  0  0  0  0  0
   49.7340   29.6630   42.9980 C   0  0  0  0  0  0  0  0  0  0  0  0
   51.8940   29.1230   42.0430 C   0  0  0  0  0  0  0  0  0  0  0  0
   53.2750   28.9270   42.3160 N   0  0  0  0  0  0  0  0  0  0  0  0
   53.6760   28.6820   43.5810 C   0  0  0  0  0  0  0  0  0  0  0  0
   54.9730   28.4660   43.9930 C   0  0  0  0  0  0  0  0  0  0  0  0
   55.3080   28.2040   45.4170 C   0  0  0  0  0  0  0  0  0  0  0  0
   55.9610   28.5020   43.0330 C   0  0  0  0  0  0  0  0  0  0  0  0
   57.1530   28.3080   43.3840 O   0  0  0  0  0  0  0  0  0  0  0  0
   55.5820   28.7460   41.7590 N   0  0  0  0  0  0  0  0  0  0  0  0
   54.2970   28.9470   41.4300 C   0  0  0  0  0  0  0  0  0  0  0  0
   54.0150   29.1700   40.2300 O   0  0  0  0  0  0  0  0  0  0  0  0
   49.8310   33.2680   41.6880 O   0  0  0  0  0  0  0  0  0  0  0  0
   48.4150   33.0950   41.6360 C   0  0  0  0  0  0  0  0  0  0  0  0
   47.9270   34.4530   41.1850 C   0  0  0  0  0  0  0  0  0  0  0  0
   44.1490   34.8130   41.3420 C   0  0  0  0  0  0  0  0  0  0  0  0
   45.4020   34.4300   40.8530 C   0  0  0  0  0  0  0  0  0  0  0  0
   46.5540   34.7700   41.5510 C   0  0  0  0  0  0  0  0  0  0  0  0
   46.4030   35.4750   42.7040 N   0  0  0  0  0  0  0  0  0  0  0  0
   45.1520   35.8340   43.1520 C   0  0  0  0  0  0  0  0  0  0  0  0
   44.0580   35.5090   42.4870 N   0  0  0  0  0  0  0  0  0  0  0  0
   42.9900   34.4120   40.5460 C   0  0  0  0  0  0  0  0  0  0  0  0
   42.4500   35.0390   39.6600 O   0  0  0  0  0  0  0  0  0  0  0  0
   48.8250   35.5760   41.4990 C   0  0  0  0  0  0  0  0  0  0  0  0
   47.9770   34.3280   39.6410 C   0  0  0  0  0  0  0  0  0  0  0  0
   49.2992   31.6758   41.0485 H   0  0  0  0  0  0  0  0  0  0  0  0
   51.8017   30.8444   40.3126 H   0  0  0  0  0  0  0  0  0  0  0  0
   52.3672   32.3013   40.4007 H   0  0  0  0  0  0  0  0  0  0  0  0
   51.8431   31.8536   43.3382 H   0  0  0  0  0  0  0  0  0  0  0  0
   51.5912   30.1182   43.9407 H   0  0  0  0  0  0  0  0  0  0  0  0
   49.4342   29.5717   44.0524 H   0  0  0  0  0  0  0  0  0  0  0  0
   49.0968   30.4078   42.4988 H   0  0  0  0  0  0  0  0  0  0  0  0
   49.6201   28.6894   42.4988 H   0  0  0  0  0  0  0  0  0  0  0  0
   51.8038   29.4747   41.0046 H   0  0  0  0  0  0  0  0  0  0  0  0
   51.4152   28.1515   42.2354 H   0  0  0  0  0  0  0  0  0  0  0  0
   52.8950   28.6519   44.3550 H   0  0  0  0  0  0  0  0  0  0  0  0
   54.6079   28.7515   46.0651 H   0  0  0  0  0  0  0  0  0  0  0  0
   55.2287   27.1258   45.6199 H   0  0  0  0  0  0  0  0  0  0  0  0
   56.3353   28.5407   45.6199 H   0  0  0  0  0  0  0  0  0  0  0  0
   56.2992   28.7785   41.0205 H   0  0  0  0  0  0  0  0  0  0  0  0
   48.1377   32.3142   40.9125 H   0  0  0  0  0  0  0  0  0  0  0  0
   47.9806   32.7726   42.5938 H   0  0  0  0  0  0  0  0  0  0  0  0
   45.4754   33.8594   39.9154 H   0  0  0  0  0  0  0  0  0  0  0  0
   45.0610   36.4059   44.0872 H   0  0  0  0  0  0  0  0  0  0  0  0
   42.5579   33.4273   40.7779 H   0  0  0  0  0  0  0  0  0  0  0  0
   48.9105   35.6830   42.5904 H   0  0  0  0  0  0  0  0  0  0  0  0
   49.8193   35.3813   41.0706 H   0  0  0  0  0  0  0  0  0  0  0  0
   48.4164   36.5031   41.0706 H   0  0  0  0  0  0  0  0  0  0  0  0
   48.3725   33.3392   39.3658 H   0  0  0  0  0  0  0  0  0  0  0  0
   46.9631   34.4445   39.2307 H   0  0  0  0  0  0  0  0  0  0  0  0
   48.6309   35.1116   39.2307 H   0  0  0  0  0  0  0  0  0  0  0  0
  1 16  1  0
  1  3  1  0
  2  1  1  0
  2  3  1  0
  3  4  1  0
  4  5  1  0
  6  7  1  0
  6  4  1  0
  7  8  1  0
  8  9  2  0
  9 10  1  0
 11 12  2  0
 11  9  1  0
 13 11  1  0
 14 13  1  0
 14  7  1  0
 15 14  2  0
 17 16  1  0
 18 27  1  0
 18 21  1  0
 18 17  1  0
 19 24  2  0
 20 19  1  0
 20 21  2  0
 21 22  1  0
 22 23  2  0
 24 23  1  0
 25 19  1  0
 26 25  2  0
 28 18  1  0
  1 29  1  6
  2 30  1  0
  2 31  1  0
  3 32  1  1
  4 33  1  1
  5 34  1  0
  5 35  1  0
  5 36  1  0
  6 37  1  0
  6 38  1  0
  8 39  1  0
 10 40  1  0
 10 41  1  0
 10 42  1  0
 13 43  1  0
 17 44  1  0
 17 45  1  0
 20 46  1  0
 23 47  1  0
 25 48  1  0
 27 49  1  0
 27 50  1  0
 27 51  1  0
 28 52  1  0
 28 53  1  0
 28 54  1  0
M  ISO  8  29  13  30  13  31  13  32  13  33   8  34   8  35   8  36   8
M  ISO  8  37   8  38   8  39  14  40   8  41   8  42   8  43   9  44   8
M  ISO  8  45   8  46  14  47  14  48   6  49   8  50   8  51   8  52   8
M  ISO  2  53   8  54   8
M  END
>  <minimizedAffinity>  (1) 
-4.24332237

>  <minimizedRMSD>  (1) 
3.09308767

$$$$
