
     RDKit          3D

 47 49  0  0  1  0  0  0  0  0999 V2000
   48.4710   33.1120   41.5670 C   0  0  0  0  0  0  0  0  0  0  0  0
   47.9460   34.4210   41.1780 C   0  0  0  0  0  0  0  0  0  0  0  0
   44.1770   34.7580   41.3600 C   0  0  0  0  0  0  0  0  0  0  0  0
   45.4220   34.3750   40.8480 C   0  0  0  0  0  0  0  0  0  0  0  0
   46.5780   34.7370   41.5570 C   0  0  0  0  0  0  0  0  0  0  0  0
   46.4270   35.4420   42.7070 N   0  0  0  0  0  0  0  0  0  0  0  0
   45.1910   35.7940   43.1720 C   0  0  0  0  0  0  0  0  0  0  0  0
   44.0920   35.4600   42.5140 N   0  0  0  0  0  0  0  0  0  0  0  0
   43.0180   34.3430   40.5780 C   0  0  0  0  0  0  0  0  0  0  0  0
   42.4440   34.9460   39.7020 O   0  0  0  0  0  0  0  0  0  0  0  0
   48.8440   35.5810   41.5060 C   0  0  0  0  0  0  0  0  0  0  0  0
   48.0000   34.3680   39.6220 C   0  0  0  0  0  0  0  0  0  0  0  0
   49.8840   33.2520   41.5860 O   0  0  0  0  0  0  0  0  0  0  0  0
   50.3200   31.9770   41.3390 C   0  0  1  0  0  0  0  0  0  0  0  0
   51.6590   31.6950   40.8660 C   0  0  0  0  0  0  0  0  0  0  0  0
   51.4150   31.5120   42.3220 C   0  0  2  0  0  0  0  0  0  0  0  0
   51.2400   30.1290   42.8780 C   0  0  1  0  0  0  0  0  0  0  0  0
   49.9180   29.4690   42.5420 C   0  0  0  0  0  0  0  0  0  0  0  0
   52.2990   29.2080   42.2880 C   0  0  0  0  0  0  0  0  0  0  0  0
   53.5910   29.3890   42.9370 N   0  0  0  0  0  0  0  0  0  0  0  0
   54.7890   29.4520   42.2900 C   0  0  0  0  0  0  0  0  0  0  0  0
   55.7630   29.6240   43.1990 N   0  0  0  0  0  0  0  0  0  0  0  0
   55.1510   29.6660   44.4030 C   0  0  0  0  0  0  0  0  0  0  0  0
   53.8320   29.5220   44.2320 N   0  0  0  0  0  0  0  0  0  0  0  0
   48.1717   32.3466   40.8359 H   0  0  0  0  0  0  0  0  0  0  0  0
   48.0824   32.7945   42.5459 H   0  0  0  0  0  0  0  0  0  0  0  0
   45.4929   33.8031   39.9110 H   0  0  0  0  0  0  0  0  0  0  0  0
   45.1080   36.3645   44.1088 H   0  0  0  0  0  0  0  0  0  0  0  0
   42.6124   33.3489   40.8174 H   0  0  0  0  0  0  0  0  0  0  0  0
   48.9245   35.6850   42.5981 H   0  0  0  0  0  0  0  0  0  0  0  0
   49.8425   35.4036   41.0800 H   0  0  0  0  0  0  0  0  0  0  0  0
   48.4221   36.5032   41.0800 H   0  0  0  0  0  0  0  0  0  0  0  0
   48.7520   33.6299   39.3061 H   0  0  0  0  0  0  0  0  0  0  0  0
   47.0139   34.0773   39.2306 H   0  0  0  0  0  0  0  0  0  0  0  0
   48.2722   35.3593   39.2306 H   0  0  0  0  0  0  0  0  0  0  0  0
   49.3353   31.6518   40.9720 H   0  0  0  0  0  0  0  0  0  0  0  0
   51.8336   30.8129   40.2324 H   0  0  0  0  0  0  0  0  0  0  0  0
   52.3954   32.2731   40.2885 H   0  0  0  0  0  0  0  0  0  0  0  0
   51.9021   31.8777   43.2380 H   0  0  0  0  0  0  0  0  0  0  0  0
   51.3070   30.2614   43.9679 H   0  0  0  0  0  0  0  0  0  0  0  0
   49.3924   29.2066   43.4720 H   0  0  0  0  0  0  0  0  0  0  0  0
   49.2998   30.1642   41.9551 H   0  0  0  0  0  0  0  0  0  0  0  0
   50.1022   28.5571   41.9551 H   0  0  0  0  0  0  0  0  0  0  0  0
   51.9771   28.1643   42.4190 H   0  0  0  0  0  0  0  0  0  0  0  0
   52.4127   29.4540   41.2219 H   0  0  0  0  0  0  0  0  0  0  0  0
   54.9344   29.3747   41.2024 H   0  0  0  0  0  0  0  0  0  0  0  0
   55.6573   29.7978   45.3707 H   0  0  0  0  0  0  0  0  0  0  0  0
  1 13  1  0
  2 11  1  0
  2  5  1  0
  2  1  1  0
  3  8  2  0
  4  3  1  0
  4  5  2  0
  5  6  1  0
  6  7  2  0
  8  7  1  0
  9  3  1  0
 10  9  2  0
 12  2  1  0
 14 13  1  0
 14 16  1  0
 15 14  1  0
 15 16  1  0
 16 17  1  0
 18 17  1  0
 19 17  1  0
 19 20  1  0
 20 24  1  0
 21 20  1  0
 21 22  2  0
 22 23  1  0
 24 23  2  0
  1 25  1  0
  1 26  1  0
  4 27  1  0
  7 28  1  0
  9 29  1  0
 11 30  1  0
 11 31  1  0
 11 32  1  0
 12 33  1  0
 12 34  1  0
 12 35  1  0
 14 36  1  6
 15 37  1  0
 15 38  1  0
 16 39  1  1
 17 40  1  1
 18 41  1  0
 18 42  1  0
 18 43  1  0
 19 44  1  0
 19 45  1  0
 21 46  1  0
 23 47  1  0
M  ISO  8  25   8  26   8  27  14  28  14  29   6  30   8  31   8  32   8
M  ISO  8  33   8  34   8  35   8  36  13  37  13  38  13  39  13  40   8
M  ISO  7  41   8  42   8  43   8  44   8  45   8  46  14  47  14
M  END
>  <minimizedAffinity>  (1) 
-4.25863314

>  <minimizedRMSD>  (1) 
2.30033684

$$$$
