
     RDKit          3D

 48 50  0  0  1  0  0  0  0  0999 V2000
   48.4500   33.0850   41.5770 C   0  0  0  0  0  0  0  0  0  0  0  0
   47.9520   34.4580   41.1760 C   0  0  0  0  0  0  0  0  0  0  0  0
   44.1660   34.7330   41.3900 C   0  0  0  0  0  0  0  0  0  0  0  0
   45.4150   34.3640   40.8730 C   0  0  0  0  0  0  0  0  0  0  0  0
   46.5740   34.7420   41.5450 C   0  0  0  0  0  0  0  0  0  0  0  0
   46.4230   35.4670   42.6940 N   0  0  0  0  0  0  0  0  0  0  0  0
   45.1780   35.8070   43.1630 C   0  0  0  0  0  0  0  0  0  0  0  0
   44.0800   35.4460   42.5230 N   0  0  0  0  0  0  0  0  0  0  0  0
   43.0040   34.2900   40.6220 C   0  0  0  0  0  0  0  0  0  0  0  0
   42.4380   34.8750   39.7240 O   0  0  0  0  0  0  0  0  0  0  0  0
   48.8420   35.5780   41.5200 C   0  0  0  0  0  0  0  0  0  0  0  0
   47.9890   34.3640   39.6250 C   0  0  0  0  0  0  0  0  0  0  0  0
   49.8670   33.2500   41.5680 O   0  0  0  0  0  0  0  0  0  0  0  0
   50.3030   31.9740   41.2960 C   0  0  1  0  0  0  0  0  0  0  0  0
   51.6580   31.6910   40.8660 C   0  0  0  0  0  0  0  0  0  0  0  0
   51.3470   31.4400   42.2960 C   0  0  2  0  0  0  0  0  0  0  0  0
   51.1290   30.0370   42.7730 C   0  0  1  0  0  0  0  0  0  0  0  0
   49.9630   29.3340   42.1100 C   0  0  0  0  0  0  0  0  0  0  0  0
   52.3460   29.1790   42.4520 C   0  0  0  0  0  0  0  0  0  0  0  0
   53.3700   29.4280   43.4860 C   0  0  0  0  0  0  0  0  0  0  0  0
   53.3280   29.7630   44.8240 C   0  0  0  0  0  0  0  0  0  0  0  0
   54.4700   29.9330   45.5450 C   0  0  0  0  0  0  0  0  0  0  0  0
   55.7460   29.7570   44.9030 C   0  0  0  0  0  0  0  0  0  0  0  0
   55.1890   29.3200   43.1380 S   0  0  0  0  0  0  0  0  0  0  0  0
   48.0892   32.8093   42.5789 H   0  0  0  0  0  0  0  0  0  0  0  0
   48.0999   32.2823   40.9114 H   0  0  0  0  0  0  0  0  0  0  0  0
   45.4792   33.7800   39.9431 H   0  0  0  0  0  0  0  0  0  0  0  0
   45.0931   36.3920   44.0907 H   0  0  0  0  0  0  0  0  0  0  0  0
   42.5932   33.3059   40.8919 H   0  0  0  0  0  0  0  0  0  0  0  0
   48.9129   35.6673   42.6141 H   0  0  0  0  0  0  0  0  0  0  0  0
   49.8424   35.3933   41.1016 H   0  0  0  0  0  0  0  0  0  0  0  0
   48.4361   36.5108   41.1016 H   0  0  0  0  0  0  0  0  0  0  0  0
   48.3768   33.3788   39.3265 H   0  0  0  0  0  0  0  0  0  0  0  0
   46.9725   34.4944   39.2254 H   0  0  0  0  0  0  0  0  0  0  0  0
   48.6439   35.1523   39.2254 H   0  0  0  0  0  0  0  0  0  0  0  0
   49.3265   31.6831   40.8814 H   0  0  0  0  0  0  0  0  0  0  0  0
   51.8456   30.8390   40.1961 H   0  0  0  0  0  0  0  0  0  0  0  0
   52.4287   32.2833   40.3510 H   0  0  0  0  0  0  0  0  0  0  0  0
   51.7992   31.7504   43.2495 H   0  0  0  0  0  0  0  0  0  0  0  0
   50.9344   30.1382   43.8509 H   0  0  0  0  0  0  0  0  0  0  0  0
   49.2918   28.9294   42.8819 H   0  0  0  0  0  0  0  0  0  0  0  0
   49.4114   30.0502   41.4833 H   0  0  0  0  0  0  0  0  0  0  0  0
   50.3388   28.5118   41.4833 H   0  0  0  0  0  0  0  0  0  0  0  0
   52.0638   28.1158   42.4555 H   0  0  0  0  0  0  0  0  0  0  0  0
   52.7398   29.4343   41.4572 H   0  0  0  0  0  0  0  0  0  0  0  0
   52.3536   29.8951   45.3171 H   0  0  0  0  0  0  0  0  0  0  0  0
   54.4180   30.2028   46.6101 H   0  0  0  0  0  0  0  0  0  0  0  0
   56.7606   29.8495   45.3177 H   0  0  0  0  0  0  0  0  0  0  0  0
  2 11  1  0
  2  5  1  0
  2  1  1  0
  3  8  2  0
  4  3  1  0
  4  5  2  0
  5  6  1  0
  6  7  2  0
  8  7  1  0
  9  3  1  0
 10  9  2  0
 12  2  1  0
 13  1  1  0
 14 13  1  0
 14 16  1  0
 15 14  1  0
 15 16  1  0
 16 17  1  0
 18 17  1  0
 19 17  1  0
 19 20  1  0
 20 21  2  0
 21 22  1  0
 23 22  2  0
 24 20  1  0
 24 23  1  0
  1 25  1  0
  1 26  1  0
  4 27  1  0
  7 28  1  0
  9 29  1  0
 11 30  1  0
 11 31  1  0
 11 32  1  0
 12 33  1  0
 12 34  1  0
 12 35  1  0
 14 36  1  6
 15 37  1  0
 15 38  1  0
 16 39  1  1
 17 40  1  1
 18 41  1  0
 18 42  1  0
 18 43  1  0
 19 44  1  0
 19 45  1  0
 21 46  1  0
 22 47  1  0
 23 48  1  0
M  ISO  8  25   8  26   8  27  14  28  14  29   6  30   8  31   8  32   8
M  ISO  8  33   8  34   8  35   8  36  13  37  13  38  13  39  13  40   8
M  ISO  8  41   8  42   8  43   8  44   8  45   8  46  14  47  14  48  14
M  END
>  <minimizedAffinity>  (1) 
-4.32519293

>  <minimizedRMSD>  (1) 
2.57683039

$$$$
