
     RDKit          3D

 46 48  0  0  1  0  0  0  0  0999 V2000
   47.5840   32.2530   44.5150 C   0  0  0  0  0  0  0  0  0  0  0  0
   46.8950   33.4130   44.0790 C   0  0  0  0  0  0  0  0  0  0  0  0
   45.9970   33.9430   44.9950 C   0  0  0  0  0  0  0  0  0  0  0  0
   45.8190   33.3670   46.2070 N   0  0  0  0  0  0  0  0  0  0  0  0
   46.5010   32.2660   46.5650 C   0  0  0  0  0  0  0  0  0  0  0  0
   47.3710   31.7030   45.7530 N   0  0  0  0  0  0  0  0  0  0  0  0
   47.2460   33.8430   42.7680 C   0  0  0  0  0  0  0  0  0  0  0  0
   48.2800   34.7300   42.7560 N   0  0  0  0  0  0  0  0  0  0  0  0
   48.7480   35.2440   41.5920 C   0  0  0  0  0  0  0  0  0  0  0  0
   48.2250   34.9120   40.3870 N   0  0  0  0  0  0  0  0  0  0  0  0
   47.1990   34.0370   40.3590 C   0  0  0  0  0  0  0  0  0  0  0  0
   46.5680   33.6060   39.2080 C   0  0  0  0  0  0  0  0  0  0  0  0
   45.5290   32.7150   39.2150 C   0  0  0  0  0  0  0  0  0  0  0  0
   45.0880   32.2210   40.4210 C   0  0  0  0  0  0  0  0  0  0  0  0
   45.6740   32.6100   41.5950 C   0  0  0  0  0  0  0  0  0  0  0  0
   46.7120   33.5060   41.5300 C   0  0  0  0  0  0  0  0  0  0  0  0
   46.2680   31.7050   47.8870 C   0  0  1  0  0  0  0  0  0  0  0  0
   44.7490   31.7400   48.2610 C   0  0  0  0  0  0  0  0  0  0  0  0
   46.7590   30.3050   48.0710 C   0  0  0  0  0  0  0  0  0  0  0  0
   45.8500   29.4570   47.5470 O   0  0  0  0  0  0  0  0  0  0  0  0
   45.6250   28.1100   47.7410 C   0  0  0  0  0  0  0  0  0  0  0  0
   46.3810   27.2120   47.2860 O   0  0  0  0  0  0  0  0  0  0  0  0
   44.5220   27.7300   48.4660 O   0  0  0  0  0  0  0  0  0  0  0  0
   44.3260   26.3210   48.8480 C   0  0  0  0  0  0  0  0  0  0  0  0
   43.9250   26.2400   50.2810 C   0  0  0  0  0  0  0  0  0  0  0  0
   43.2870   25.7030   47.9550 C   0  0  0  0  0  0  0  0  0  0  0  0
   48.3117   31.7797   43.8394 H   0  0  0  0  0  0  0  0  0  0  0  0
   45.4221   34.8433   44.7325 H   0  0  0  0  0  0  0  0  0  0  0  0
   49.5842   35.9578   41.6272 H   0  0  0  0  0  0  0  0  0  0  0  0
   46.9169   33.9971   38.2409 H   0  0  0  0  0  0  0  0  0  0  0  0
   45.0553   32.3997   38.2737 H   0  0  0  0  0  0  0  0  0  0  0  0
   44.2538   31.5043   40.4419 H   0  0  0  0  0  0  0  0  0  0  0  0
   45.3240   32.2168   42.5609 H   0  0  0  0  0  0  0  0  0  0  0  0
   46.8571   32.3507   48.5548 H   0  0  0  0  0  0  0  0  0  0  0  0
   44.6409   31.7425   49.3557 H   0  0  0  0  0  0  0  0  0  0  0  0
   44.2898   32.6490   47.8451 H   0  0  0  0  0  0  0  0  0  0  0  0
   44.2485   30.8531   47.8451 H   0  0  0  0  0  0  0  0  0  0  0  0
   47.7227   30.1797   47.5557 H   0  0  0  0  0  0  0  0  0  0  0  0
   46.8968   30.0931   49.1416 H   0  0  0  0  0  0  0  0  0  0  0  0
   45.2660   25.7631   48.7252 H   0  0  0  0  0  0  0  0  0  0  0  0
   44.8038   26.4175   50.9183 H   0  0  0  0  0  0  0  0  0  0  0  0
   43.1598   27.0017   50.4912 H   0  0  0  0  0  0  0  0  0  0  0  0
   43.5154   25.2410   50.4912 H   0  0  0  0  0  0  0  0  0  0  0  0
   42.5039   25.2372   48.5713 H   0  0  0  0  0  0  0  0  0  0  0  0
   42.8392   26.4817   47.3200 H   0  0  0  0  0  0  0  0  0  0  0  0
   43.7575   24.9378   47.3200 H   0  0  0  0  0  0  0  0  0  0  0  0
  1  6  2  0
  2  1  1  0
  2  3  2  0
  3  4  1  0
  4  5  2  0
  5 17  1  0
  6  5  1  0
  7  2  1  0
  8  7  2  0
  9  8  1  0
 10  9  2  0
 11 10  1  0
 11 16  2  0
 12 13  2  0
 12 11  1  0
 13 14  1  0
 14 15  2  0
 16 15  1  0
 16  7  1  0
 17 19  1  0
 17 18  1  0
 20 21  1  0
 20 19  1  0
 21 23  1  0
 22 21  2  0
 23 24  1  0
 24 25  1  0
 26 24  1  0
  1 27  1  0
  3 28  1  0
  9 29  1  0
 12 30  1  0
 13 31  1  0
 14 32  1  0
 15 33  1  0
 17 34  1  1
 18 35  1  0
 18 36  1  0
 18 37  1  0
 19 38  1  0
 19 39  1  0
 24 40  1  0
 25 41  1  0
 25 42  1  0
 25 43  1  0
 26 44  1  0
 26 45  1  0
 26 46  1  0
M  ISO  8  27  14  28  14  29  14  30  14  31  14  32  14  33  14  34   8
M  ISO  8  35   8  36   8  37   8  38   8  39   8  40   8  41   8  42   8
M  ISO  4  43   8  44   8  45   8  46   8
M  END
>  <minimizedAffinity>  (1) 
-4.93281269

>  <minimizedRMSD>  (1) 
0.48394075

$$$$
