
     RDKit          3D

 54 56  0  0  1  0  0  0  0  0999 V2000
   48.4560   33.0890   41.5850 C   0  0  0  0  0  0  0  0  0  0  0  0
   47.9400   34.4480   41.1510 C   0  0  0  0  0  0  0  0  0  0  0  0
   44.1570   34.7220   41.3820 C   0  0  0  0  0  0  0  0  0  0  0  0
   45.4090   34.3630   40.8680 C   0  0  0  0  0  0  0  0  0  0  0  0
   46.5680   34.7340   41.5390 C   0  0  0  0  0  0  0  0  0  0  0  0
   46.4200   35.4450   42.6890 N   0  0  0  0  0  0  0  0  0  0  0  0
   45.1740   35.7800   43.1640 C   0  0  0  0  0  0  0  0  0  0  0  0
   44.0710   35.4250   42.5230 N   0  0  0  0  0  0  0  0  0  0  0  0
   42.9940   34.2830   40.6200 C   0  0  0  0  0  0  0  0  0  0  0  0
   42.4360   34.8520   39.7120 O   0  0  0  0  0  0  0  0  0  0  0  0
   48.8220   35.5800   41.4750 C   0  0  0  0  0  0  0  0  0  0  0  0
   47.9670   34.3270   39.6080 C   0  0  0  0  0  0  0  0  0  0  0  0
   49.8690   33.2810   41.6040 O   0  0  0  0  0  0  0  0  0  0  0  0
   50.3330   31.9970   41.4160 C   0  0  1  0  0  0  0  0  0  0  0  0
   51.6310   31.7080   40.8420 C   0  0  0  0  0  0  0  0  0  0  0  0
   51.5250   31.6270   42.3200 C   0  0  2  0  0  0  0  0  0  0  0  0
   51.4380   30.2840   42.9880 C   0  0  1  0  0  0  0  0  0  0  0  0
   50.0350   29.8300   43.2920 C   0  0  0  0  0  0  0  0  0  0  0  0
   52.0350   29.2160   42.0860 C   0  0  0  0  0  0  0  0  0  0  0  0
   53.3990   28.7690   42.6380 C   0  0  0  0  0  0  0  0  0  0  0  0
   54.5170   29.4520   41.8590 C   0  0  0  0  0  0  0  0  0  0  0  0
   55.6500   29.6240   42.8430 C   0  0  0  0  0  0  0  0  0  0  0  0
   55.0600   29.5540   44.2180 C   0  0  0  0  0  0  0  0  0  0  0  0
   53.5850   29.3590   43.9990 C   0  0  0  0  0  0  0  0  0  0  0  0
   48.1716   32.3082   40.8643 H   0  0  0  0  0  0  0  0  0  0  0  0
   48.0480   32.7554   42.5505 H   0  0  0  0  0  0  0  0  0  0  0  0
   45.4752   33.7873   39.9330 H   0  0  0  0  0  0  0  0  0  0  0  0
   45.0915   36.3559   44.0976 H   0  0  0  0  0  0  0  0  0  0  0  0
   42.5707   33.3096   40.9087 H   0  0  0  0  0  0  0  0  0  0  0  0
   48.9014   35.6820   42.5674 H   0  0  0  0  0  0  0  0  0  0  0  0
   49.8205   35.4002   41.0499 H   0  0  0  0  0  0  0  0  0  0  0  0
   48.4035   36.5042   41.0499 H   0  0  0  0  0  0  0  0  0  0  0  0
   48.1985   33.2894   39.3256 H   0  0  0  0  0  0  0  0  0  0  0  0
   46.9842   34.6072   39.2010 H   0  0  0  0  0  0  0  0  0  0  0  0
   48.7374   34.9984   39.2010 H   0  0  0  0  0  0  0  0  0  0  0  0
   49.3273   31.6258   41.1695 H   0  0  0  0  0  0  0  0  0  0  0  0
   51.7708   30.7858   40.2589 H   0  0  0  0  0  0  0  0  0  0  0  0
   52.2964   32.2570   40.1594 H   0  0  0  0  0  0  0  0  0  0  0  0
   52.0846   32.0682   43.1580 H   0  0  0  0  0  0  0  0  0  0  0  0
   51.9831   30.4089   43.9352 H   0  0  0  0  0  0  0  0  0  0  0  0
   49.8926   29.7839   44.3818 H   0  0  0  0  0  0  0  0  0  0  0  0
   49.3172   30.5417   42.8582 H   0  0  0  0  0  0  0  0  0  0  0  0
   49.8702   28.8327   42.8582 H   0  0  0  0  0  0  0  0  0  0  0  0
   52.1674   29.6255   41.0737 H   0  0  0  0  0  0  0  0  0  0  0  0
   51.3568   28.3506   42.0506 H   0  0  0  0  0  0  0  0  0  0  0  0
   53.4272   27.6701   42.5989 H   0  0  0  0  0  0  0  0  0  0  0  0
   54.8347   28.8246   41.0132 H   0  0  0  0  0  0  0  0  0  0  0  0
   54.1917   30.4155   41.4397 H   0  0  0  0  0  0  0  0  0  0  0  0
   56.3898   28.8210   42.7094 H   0  0  0  0  0  0  0  0  0  0  0  0
   56.1594   30.5863   42.6862 H   0  0  0  0  0  0  0  0  0  0  0  0
   55.4831   28.7068   44.7776 H   0  0  0  0  0  0  0  0  0  0  0  0
   55.2744   30.4584   44.8062 H   0  0  0  0  0  0  0  0  0  0  0  0
   53.0663   30.3270   44.0613 H   0  0  0  0  0  0  0  0  0  0  0  0
   53.1675   28.6917   44.7673 H   0  0  0  0  0  0  0  0  0  0  0  0
  1 13  1  0
  2 11  1  0
  2  5  1  0
  2  1  1  0
  3  8  2  0
  4  3  1  0
  4  5  2  0
  5  6  1  0
  6  7  2  0
  8  7  1  0
  9  3  1  0
 10  9  2  0
 12  2  1  0
 14 13  1  0
 14 16  1  0
 15 14  1  0
 15 16  1  0
 16 17  1  0
 17 18  1  0
 19 20  1  0
 19 17  1  0
 20 24  1  0
 21 20  1  0
 21 22  1  0
 22 23  1  0
 24 23  1  0
  1 25  1  0
  1 26  1  0
  4 27  1  0
  7 28  1  0
  9 29  1  0
 11 30  1  0
 11 31  1  0
 11 32  1  0
 12 33  1  0
 12 34  1  0
 12 35  1  0
 14 36  1  6
 15 37  1  0
 15 38  1  0
 16 39  1  1
 17 40  1  1
 18 41  1  0
 18 42  1  0
 18 43  1  0
 19 44  1  0
 19 45  1  0
 20 46  1  0
 21 47  1  0
 21 48  1  0
 22 49  1  0
 22 50  1  0
 23 51  1  0
 23 52  1  0
 24 53  1  0
 24 54  1  0
M  ISO  8  25   8  26   8  27  14  28  14  29   6  30   8  31   8  32   8
M  ISO  8  33   8  34   8  35   8  36  13  37  13  38  13  39  13  40   8
M  ISO  8  41   8  42   8  43   8  44   8  45   8  46  13  47  13  48  13
M  ISO  6  49  13  50  13  51  13  52  13  53  13  54  13
M  END
>  <minimizedAffinity>  (1) 
-4.22221231

>  <minimizedRMSD>  (1) 
1.90860462

$$$$
