
     RDKit          3D

 23 23  0  0  0  0  0  0  0  0999 V2000
   47.5560   34.3940   43.0620 C   0  0  0  0  0  0  0  0  0  0  0  0
   46.5750   35.2090   42.4830 C   0  0  0  0  0  0  0  0  0  0  0  0
   45.2790   35.2460   42.9870 C   0  0  0  0  0  0  0  0  0  0  0  0
   45.0490   34.4390   44.0700 N   0  0  0  0  0  0  0  0  0  0  0  0
   46.0070   33.6590   44.6150 C   0  0  0  0  0  0  0  0  0  0  0  0
   47.2370   33.6440   44.1120 N   0  0  0  0  0  0  0  0  0  0  0  0
   44.2100   36.0330   42.4910 N   0  0  0  0  0  0  0  0  0  0  0  0
   43.3180   35.6110   41.4710 C   0  0  0  0  0  0  0  0  0  0  0  0
   43.8890   35.0260   40.4460 N   0  0  0  0  0  0  0  0  0  0  0  0
   41.9130   35.8540   41.6390 N   0  0  0  0  0  0  0  0  0  0  0  0
   43.3140   34.6880   39.6620 H   0  0  0  0  0  0  0  0  0  0  0  0
   48.8530   34.4980   42.3800 C   0  0  0  0  0  0  0  0  0  0  0  0
   48.9230   35.7410   41.5170 C   0  0  0  0  0  0  0  0  0  0  0  0
   46.8342   35.8313   41.6137 H   0  0  0  0  0  0  0  0  0  0  0  0
   45.7668   33.0294   45.4844 H   0  0  0  0  0  0  0  0  0  0  0  0
   44.0717   36.9699   42.8961 H   0  0  0  0  0  0  0  0  0  0  0  0
   41.2481   35.5559   40.9110 H   0  0  0  0  0  0  0  0  0  0  0  0
   41.5699   36.3264   42.4876 H   0  0  0  0  0  0  0  0  0  0  0  0
   49.6523   34.5402   43.1346 H   0  0  0  0  0  0  0  0  0  0  0  0
   48.9759   33.6179   41.7317 H   0  0  0  0  0  0  0  0  0  0  0  0
   48.9732   36.6318   42.1604 H   0  0  0  0  0  0  0  0  0  0  0  0
   49.8201   35.6964   40.8819 H   0  0  0  0  0  0  0  0  0  0  0  0
   48.0266   35.7974   40.8819 H   0  0  0  0  0  0  0  0  0  0  0  0
  1  6  2  0
  2  3  2  0
  2  1  1  0
  3  4  1  0
  4  5  2  0
  6  5  1  0
  7  3  1  0
  8 10  1  0
  8  7  1  0
  9  8  2  0
 11  9  1  0
 12  1  1  0
 13 12  1  0
  2 14  1  0
  5 15  1  0
  7 16  1  0
 10 17  1  0
 10 18  1  0
 12 19  1  0
 12 20  1  0
 13 21  1  0
 13 22  1  0
 13 23  1  0
M  ISO  7  14  14  15  14  19   8  20   8  21   8  22   8  23   8
M  END
>  <minimizedAffinity>  (1) 
-4.9138484

>  <minimizedRMSD>  (1) 
1.66701567

$$$$
