
     RDKit          3D

 24 25  0  0  0  0  0  0  0  0999 V2000
   47.0520   34.6030   41.9650 C   0  0  0  0  0  0  0  0  0  0  0  0
   45.7760   34.6200   41.3800 C   0  0  0  0  0  0  0  0  0  0  0  0
   44.6530   34.3760   42.1700 C   0  0  0  0  0  0  0  0  0  0  0  0
   44.8620   34.1320   43.4800 N   0  0  0  0  0  0  0  0  0  0  0  0
   46.1070   34.1200   44.0230 C   0  0  0  0  0  0  0  0  0  0  0  0
   47.1720   34.3540   43.2590 N   0  0  0  0  0  0  0  0  0  0  0  0
   43.2860   34.3680   41.6750 C   0  0  0  0  0  0  0  0  0  0  0  0
   42.6090   33.2410   41.2680 C   0  0  0  0  0  0  0  0  0  0  0  0
   41.3160   33.2140   40.7980 C   0  0  0  0  0  0  0  0  0  0  0  0
   40.6730   34.4120   40.7360 N   0  0  0  0  0  0  0  0  0  0  0  0
   41.3170   35.5310   41.1280 C   0  0  0  0  0  0  0  0  0  0  0  0
   42.5830   35.5010   41.5820 N   0  0  0  0  0  0  0  0  0  0  0  0
   48.1120   34.8780   40.9820 C   0  0  0  0  0  0  0  0  0  0  0  0
   49.0870   35.9260   41.4950 C   0  0  0  0  0  0  0  0  0  0  0  0
   45.6627   34.8245   40.3051 H   0  0  0  0  0  0  0  0  0  0  0  0
   46.2356   33.9165   45.0963 H   0  0  0  0  0  0  0  0  0  0  0  0
   43.1459   32.2825   41.3230 H   0  0  0  0  0  0  0  0  0  0  0  0
   40.8294   32.2769   40.4897 H   0  0  0  0  0  0  0  0  0  0  0  0
   40.7915   36.4959   41.0748 H   0  0  0  0  0  0  0  0  0  0  0  0
   47.6516   35.2426   40.0519 H   0  0  0  0  0  0  0  0  0  0  0  0
   48.6683   33.9460   40.8033 H   0  0  0  0  0  0  0  0  0  0  0  0
   49.0838   35.9225   42.5950 H   0  0  0  0  0  0  0  0  0  0  0  0
   50.0988   35.6950   41.1306 H   0  0  0  0  0  0  0  0  0  0  0  0
   48.7837   36.9186   41.1306 H   0  0  0  0  0  0  0  0  0  0  0  0
  1  6  2  0
  2  1  1  0
  2  3  2  0
  3  4  1  0
  4  5  2  0
  6  5  1  0
  7  3  1  0
  8  7  2  0
  9  8  1  0
 10  9  2  0
 10 11  1  0
 11 12  2  0
 12  7  1  0
 13 14  1  0
 13  1  1  0
  2 15  1  0
  5 16  1  0
  8 17  1  0
  9 18  1  0
 11 19  1  0
 13 20  1  0
 13 21  1  0
 14 22  1  0
 14 23  1  0
 14 24  1  0
M  ISO  8  15  14  16  14  17  14  18  14  19  14  20   8  21   8  22   8
M  ISO  2  23   8  24   8
M  END
>  <minimizedAffinity>  (1) 
-4.36332464

>  <minimizedRMSD>  (1) 
2.95262623

$$$$
