
     RDKit          3D

 18 18  0  0  0  0  0  0  0  0999 V2000
   47.0020   34.6770   42.6840 C   0  0  0  0  0  0  0  0  0  0  0  0
   45.7900   35.3670   42.8830 C   0  0  0  0  0  0  0  0  0  0  0  0
   45.0160   35.1070   44.0100 C   0  0  0  0  0  0  0  0  0  0  0  0
   45.4830   34.1760   44.8850 N   0  0  0  0  0  0  0  0  0  0  0  0
   46.6540   33.5250   44.6700 C   0  0  0  0  0  0  0  0  0  0  0  0
   47.3850   33.7850   43.5840 N   0  0  0  0  0  0  0  0  0  0  0  0
   43.7890   35.7920   44.2330 N   0  0  0  0  0  0  0  0  0  0  0  0
   47.6890   35.0710   41.4450 C   0  0  0  0  0  0  0  0  0  0  0  0
   49.0030   35.7380   41.7190 C   0  0  0  0  0  0  0  0  0  0  0  0
   45.4550   36.1123   42.1466 H   0  0  0  0  0  0  0  0  0  0  0  0
   47.0037   32.7769   45.3967 H   0  0  0  0  0  0  0  0  0  0  0  0
   43.2296   35.5862   45.0730 H   0  0  0  0  0  0  0  0  0  0  0  0
   43.4602   36.4937   43.5544 H   0  0  0  0  0  0  0  0  0  0  0  0
   47.0458   35.7688   40.8888 H   0  0  0  0  0  0  0  0  0  0  0  0
   47.8859   34.1597   40.8613 H   0  0  0  0  0  0  0  0  0  0  0  0
   49.1554   35.8154   42.8056 H   0  0  0  0  0  0  0  0  0  0  0  0
   49.8155   35.1432   41.2762 H   0  0  0  0  0  0  0  0  0  0  0  0
   49.0024   36.7449   41.2762 H   0  0  0  0  0  0  0  0  0  0  0  0
  1  2  2  0
  1  6  1  0
  2  3  1  0
  3  7  1  0
  3  4  2  0
  5  4  1  0
  6  5  2  0
  8  9  1  0
  8  1  1  0
  2 10  1  0
  5 11  1  0
  7 12  1  0
  7 13  1  0
  8 14  1  0
  8 15  1  0
  9 16  1  0
  9 17  1  0
  9 18  1  0
M  ISO  7  10  14  11  14  14   8  15   8  16   8  17   8  18   8
M  END
>  <minimizedAffinity>  (1) 
-4.1010232

>  <minimizedRMSD>  (1) 
0.121247448

$$$$
