
     RDKit          3D

 17 17  0  0  0  0  0  0  0  0999 V2000
   47.6570   34.3350   42.3110 C   0  0  0  0  0  0  0  0  0  0  0  0
   46.5600   35.1490   42.7090 C   0  0  0  0  0  0  0  0  0  0  0  0
   45.8510   34.7820   43.8460 C   0  0  0  0  0  0  0  0  0  0  0  0
   46.2410   33.6620   44.5220 N   0  0  0  0  0  0  0  0  0  0  0  0
   47.2890   32.9200   44.1050 C   0  0  0  0  0  0  0  0  0  0  0  0
   47.9850   33.2480   43.0210 N   0  0  0  0  0  0  0  0  0  0  0  0
   48.3280   34.8350   41.0880 C   0  0  0  0  0  0  0  0  0  0  0  0
   49.1540   36.0650   41.3900 C   0  0  0  0  0  0  0  0  0  0  0  0
   44.4770   35.7360   44.4100 S   0  0  0  0  0  0  0  0  0  0  0  0
   46.2812   36.0436   42.1328 H   0  0  0  0  0  0  0  0  0  0  0  0
   47.5735   32.0235   44.6753 H   0  0  0  0  0  0  0  0  0  0  0  0
   47.5654   35.0888   40.3370 H   0  0  0  0  0  0  0  0  0  0  0  0
   48.9957   34.0482   40.7069 H   0  0  0  0  0  0  0  0  0  0  0  0
   49.2388   36.1913   42.4794 H   0  0  0  0  0  0  0  0  0  0  0  0
   50.1577   35.9485   40.9551 H   0  0  0  0  0  0  0  0  0  0  0  0
   48.6664   36.9500   40.9551 H   0  0  0  0  0  0  0  0  0  0  0  0
   44.4605   35.7474   45.7799 H   0  0  0  0  0  0  0  0  0  0  0  0
  1  2  2  0
  1  6  1  0
  2  3  1  0
  3  9  1  0
  3  4  2  0
  5  4  1  0
  6  5  2  0
  7  8  1  0
  7  1  1  0
  2 10  1  0
  5 11  1  0
  7 12  1  0
  7 13  1  0
  8 14  1  0
  8 15  1  0
  8 16  1  0
  9 17  1  0
M  ISO  8  10  14  11  14  12   8  13   8  14   8  15   8  16   8  17  11
M  END
>  <minimizedAffinity>  (1) 
-3.37797117

>  <minimizedRMSD>  (1) 
0.861991704

$$$$
