
     RDKit          3D

 31 32  0  0  0  0  0  0  0  0999 V2000
   48.7070   34.2330   42.7130 C   0  0  0  0  0  0  0  0  0  0  0  0
   49.4200   33.0410   42.4850 C   0  0  0  0  0  0  0  0  0  0  0  0
   48.9250   31.8540   43.0120 C   0  0  0  0  0  0  0  0  0  0  0  0
   47.7800   31.9030   43.7210 N   0  0  0  0  0  0  0  0  0  0  0  0
   47.1130   33.0700   43.9250 C   0  0  0  0  0  0  0  0  0  0  0  0
   47.5870   34.2030   43.4190 N   0  0  0  0  0  0  0  0  0  0  0  0
   49.5520   30.5940   42.8510 N   0  0  0  0  0  0  0  0  0  0  0  0
   50.7890   30.4540   42.1100 C   0  0  0  0  0  0  0  0  0  0  0  0
   51.8600   30.1540   43.1220 C   0  0  0  0  0  0  0  0  0  0  0  0
   51.4220   29.4120   44.3290 C   0  0  0  0  0  0  0  0  0  0  0  0
   50.1260   28.6840   44.2540 C   0  0  0  0  0  0  0  0  0  0  0  0
   49.0910   29.3220   43.3650 C   0  0  0  0  0  0  0  0  0  0  0  0
   49.3500   35.4010   42.0950 C   0  0  0  0  0  0  0  0  0  0  0  0
   48.8520   35.6330   40.6740 C   0  0  0  0  0  0  0  0  0  0  0  0
   50.3518   33.0488   41.9005 H   0  0  0  0  0  0  0  0  0  0  0  0
   46.1809   33.0759   44.5090 H   0  0  0  0  0  0  0  0  0  0  0  0
   50.7076   29.6293   41.3867 H   0  0  0  0  0  0  0  0  0  0  0  0
   51.0203   31.3688   41.5447 H   0  0  0  0  0  0  0  0  0  0  0  0
   52.6373   29.5567   42.6229 H   0  0  0  0  0  0  0  0  0  0  0  0
   52.2089   31.1322   43.4846 H   0  0  0  0  0  0  0  0  0  0  0  0
   52.2023   28.6728   44.5629 H   0  0  0  0  0  0  0  0  0  0  0  0
   51.2648   30.1872   45.0935 H   0  0  0  0  0  0  0  0  0  0  0  0
   50.3246   27.6708   43.8746 H   0  0  0  0  0  0  0  0  0  0  0  0
   49.7073   28.6936   45.2712 H   0  0  0  0  0  0  0  0  0  0  0  0
   48.1701   29.4823   43.9449 H   0  0  0  0  0  0  0  0  0  0  0  0
   48.9028   28.6510   42.5139 H   0  0  0  0  0  0  0  0  0  0  0  0
   49.1277   36.2921   42.7005 H   0  0  0  0  0  0  0  0  0  0  0  0
   50.4330   35.2132   42.0522 H   0  0  0  0  0  0  0  0  0  0  0  0
   47.8553   36.0973   40.7060 H   0  0  0  0  0  0  0  0  0  0  0  0
   49.5498   36.2987   40.1450 H   0  0  0  0  0  0  0  0  0  0  0  0
   48.7913   34.6705   40.1450 H   0  0  0  0  0  0  0  0  0  0  0  0
  1  6  2  0
  2  1  1  0
  2  3  2  0
  3  4  1  0
  4  5  2  0
  6  5  1  0
  7  3  1  0
  7 12  1  0
  8  7  1  0
  8  9  1  0
  9 10  1  0
 11 10  1  0
 12 11  1  0
 13  1  1  0
 14 13  1  0
  2 15  1  0
  5 16  1  0
  8 17  1  0
  8 18  1  0
  9 19  1  0
  9 20  1  0
 10 21  1  0
 10 22  1  0
 11 23  1  0
 11 24  1  0
 12 25  1  0
 12 26  1  0
 13 27  1  0
 13 28  1  0
 14 29  1  0
 14 30  1  0
 14 31  1  0
M  ISO  8  15  14  16  14  17  13  18  13  19  13  20  13  21  13  22  13
M  ISO  8  23  13  24  13  25  13  26  13  27   8  28   8  29   8  30   8
M  ISO  1  31   8
M  END
>  <minimizedAffinity>  (1) 
-3.23273945

>  <minimizedRMSD>  (1) 
7.06156826

$$$$
