
     RDKit          3D

 23 24  0  0  0  0  0  0  0  0999 V2000
   47.9020   34.3550   42.0850 C   0  0  0  0  0  0  0  0  0  0  0  0
   46.6880   34.9600   42.4810 C   0  0  0  0  0  0  0  0  0  0  0  0
   45.9850   34.3840   43.5610 C   0  0  0  0  0  0  0  0  0  0  0  0
   46.5040   33.2870   44.1590 N   0  0  0  0  0  0  0  0  0  0  0  0
   47.6860   32.7360   43.7360 C   0  0  0  0  0  0  0  0  0  0  0  0
   48.3450   33.2830   42.7190 N   0  0  0  0  0  0  0  0  0  0  0  0
   48.5210   35.0580   40.9560 C   0  0  0  0  0  0  0  0  0  0  0  0
   49.2830   36.2880   41.4200 C   0  0  0  0  0  0  0  0  0  0  0  0
   44.7140   34.9790   44.0120 C   0  0  0  0  0  0  0  0  0  0  0  0
   44.8280   36.5110   44.2550 C   0  0  0  0  0  0  0  0  0  0  0  0
   44.5080   35.5100   45.3540 C   0  0  0  0  0  0  0  0  0  0  0  0
   46.3031   35.8514   41.9641 H   0  0  0  0  0  0  0  0  0  0  0  0
   48.0883   31.8432   44.2370 H   0  0  0  0  0  0  0  0  0  0  0  0
   47.7342   35.3685   40.2528 H   0  0  0  0  0  0  0  0  0  0  0  0
   49.2314   34.3736   40.4692 H   0  0  0  0  0  0  0  0  0  0  0  0
   49.3001   36.3156   42.5195 H   0  0  0  0  0  0  0  0  0  0  0  0
   50.3138   36.2464   41.0382 H   0  0  0  0  0  0  0  0  0  0  0  0
   48.7868   37.1924   41.0382 H   0  0  0  0  0  0  0  0  0  0  0  0
   44.1138   34.2645   43.4295 H   0  0  0  0  0  0  0  0  0  0  0  0
   45.8071   37.0112   44.2219 H   0  0  0  0  0  0  0  0  0  0  0  0
   44.3642   37.4201   43.8447 H   0  0  0  0  0  0  0  0  0  0  0  0
   43.5002   35.4929   45.7946 H   0  0  0  0  0  0  0  0  0  0  0  0
   44.9537   35.2901   46.3353 H   0  0  0  0  0  0  0  0  0  0  0  0
  1  2  2  0
  1  6  1  0
  2  3  1  0
  3  9  1  0
  3  4  2  0
  5  4  1  0
  6  5  2  0
  7  8  1  0
  7  1  1  0
  9 10  1  0
  9 11  1  0
 10 11  1  0
  2 12  1  0
  5 13  1  0
  7 14  1  0
  7 15  1  0
  8 16  1  0
  8 17  1  0
  8 18  1  0
  9 19  1  0
 10 20  1  0
 10 21  1  0
 11 22  1  0
 11 23  1  0
M  ISO  8  12  14  13  14  14   8  15   8  16   8  17   8  18   8  19  13
M  ISO  4  20  13  21  13  22  13  23  13
M  END
>  <minimizedAffinity>  (1) 
-3.83213353

>  <minimizedRMSD>  (1) 
1.37770748

$$$$
