
     RDKit          3D

 18 18  0  0  0  0  0  0  0  0999 V2000
   47.5880   34.3210   42.3160 C   0  0  0  0  0  0  0  0  0  0  0  0
   46.4870   35.0750   42.7730 C   0  0  0  0  0  0  0  0  0  0  0  0
   45.8160   34.6790   43.9540 C   0  0  0  0  0  0  0  0  0  0  0  0
   46.3000   33.5660   44.5800 N   0  0  0  0  0  0  0  0  0  0  0  0
   47.3600   32.8750   44.1030 C   0  0  0  0  0  0  0  0  0  0  0  0
   47.9890   33.2450   42.9960 N   0  0  0  0  0  0  0  0  0  0  0  0
   48.1430   34.8940   41.0910 C   0  0  0  0  0  0  0  0  0  0  0  0
   49.1240   36.0200   41.4190 C   0  0  0  0  0  0  0  0  0  0  0  0
   44.6760   35.4400   44.4480 C   0  0  0  0  0  0  0  0  0  0  0  0
   44.4600   35.5010   45.7050 O   0  0  0  0  0  0  0  0  0  0  0  0
   46.1530   35.9629   42.2162 H   0  0  0  0  0  0  0  0  0  0  0  0
   47.7088   31.9845   44.6465 H   0  0  0  0  0  0  0  0  0  0  0  0
   47.3238   35.2959   40.4767 H   0  0  0  0  0  0  0  0  0  0  0  0
   48.6791   34.1056   40.5424 H   0  0  0  0  0  0  0  0  0  0  0  0
   49.2131   36.1223   42.5106 H   0  0  0  0  0  0  0  0  0  0  0  0
   50.1095   35.7839   40.9912 H   0  0  0  0  0  0  0  0  0  0  0  0
   48.7551   36.9639   40.9912 H   0  0  0  0  0  0  0  0  0  0  0  0
   44.0073   35.9574   43.7443 H   0  0  0  0  0  0  0  0  0  0  0  0
  1  2  2  0
  1  6  1  0
  2  3  1  0
  3  9  1  0
  3  4  2  0
  5  4  1  0
  6  5  2  0
  7  8  1  0
  7  1  1  0
  9 10  2  0
  2 11  1  0
  5 12  1  0
  7 13  1  0
  7 14  1  0
  8 15  1  0
  8 16  1  0
  8 17  1  0
  9 18  1  0
M  ISO  8  11  14  12  14  13   8  14   8  15   8  16   8  17   8  18   6
M  END
>  <minimizedAffinity>  (1) 
-3.72935963

>  <minimizedRMSD>  (1) 
0.997132421

$$$$
