
     RDKit          3D

 33 35  0  0  0  0  0  0  0  0999 V2000
   48.3740   34.0210   41.8440 C   0  0  0  0  0  0  0  0  0  0  0  0
   47.3730   34.1800   42.8300 C   0  0  0  0  0  0  0  0  0  0  0  0
   47.1900   33.1250   43.7320 C   0  0  0  0  0  0  0  0  0  0  0  0
   47.9790   32.0090   43.6130 N   0  0  0  0  0  0  0  0  0  0  0  0
   48.9200   31.9190   42.6440 C   0  0  0  0  0  0  0  0  0  0  0  0
   49.1130   32.9180   41.7700 N   0  0  0  0  0  0  0  0  0  0  0  0
   48.4810   35.1890   40.9490 C   0  0  0  0  0  0  0  0  0  0  0  0
   49.2840   36.2890   41.5790 C   0  0  0  0  0  0  0  0  0  0  0  0
   45.9660   33.2140   45.0080 S   0  0  0  0  0  0  0  0  0  0  0  0
   46.4040   32.1040   46.3380 C   0  0  0  0  0  0  0  0  0  0  0  0
   47.1500   32.6700   47.3670 C   0  0  0  0  0  0  0  0  0  0  0  0
   47.5270   31.8620   48.4390 C   0  0  0  0  0  0  0  0  0  0  0  0
   47.1810   30.5300   48.5020 C   0  0  0  0  0  0  0  0  0  0  0  0
   46.4390   30.0300   47.4490 C   0  0  0  0  0  0  0  0  0  0  0  0
   46.0890   28.6880   47.5120 C   0  0  0  0  0  0  0  0  0  0  0  0
   45.3430   28.1750   46.4590 C   0  0  0  0  0  0  0  0  0  0  0  0
   44.9420   28.9180   45.3760 C   0  0  0  0  0  0  0  0  0  0  0  0
   45.2960   30.2640   45.3200 C   0  0  0  0  0  0  0  0  0  0  0  0
   46.0380   30.7750   46.3680 C   0  0  0  0  0  0  0  0  0  0  0  0
   46.7637   35.0941   42.8860 H   0  0  0  0  0  0  0  0  0  0  0  0
   49.5369   31.0111   42.5721 H   0  0  0  0  0  0  0  0  0  0  0  0
   47.4709   35.5645   40.7281 H   0  0  0  0  0  0  0  0  0  0  0  0
   48.9901   34.8731   40.0265 H   0  0  0  0  0  0  0  0  0  0  0  0
   49.2235   36.2061   42.6742 H   0  0  0  0  0  0  0  0  0  0  0  0
   50.3340   36.2041   41.2623 H   0  0  0  0  0  0  0  0  0  0  0  0
   48.8832   37.2632   41.2623 H   0  0  0  0  0  0  0  0  0  0  0  0
   47.4361   33.7317   47.3355 H   0  0  0  0  0  0  0  0  0  0  0  0
   48.1172   32.3004   49.2573 H   0  0  0  0  0  0  0  0  0  0  0  0
   47.4807   29.8955   49.3491 H   0  0  0  0  0  0  0  0  0  0  0  0
   46.3902   28.0570   48.3611 H   0  0  0  0  0  0  0  0  0  0  0  0
   45.0571   27.1134   46.4944 H   0  0  0  0  0  0  0  0  0  0  0  0
   44.3527   28.4591   44.5684 H   0  0  0  0  0  0  0  0  0  0  0  0
   44.9958   30.8974   44.4722 H   0  0  0  0  0  0  0  0  0  0  0  0
  1  2  2  0
  2  3  1  0
  3  9  1  0
  4  3  2  0
  5  4  1  0
  6  1  1  0
  6  5  2  0
  7  8  1  0
  7  1  1  0
  9 10  1  0
 10 19  1  0
 10 11  2  0
 11 12  1  0
 12 13  2  0
 14 15  2  0
 14 13  1  0
 16 15  1  0
 17 16  2  0
 18 17  1  0
 18 19  2  0
 19 14  1  0
  2 20  1  0
  5 21  1  0
  7 22  1  0
  7 23  1  0
  8 24  1  0
  8 25  1  0
  8 26  1  0
 11 27  1  0
 12 28  1  0
 13 29  1  0
 15 30  1  0
 16 31  1  0
 17 32  1  0
 18 33  1  0
M  ISO  8  20  14  21  14  22   8  23   8  24   8  25   8  26   8  27  14
M  ISO  6  28  14  29  14  30  14  31  14  32  14  33  14
M  END
>  <minimizedAffinity>  (1) 
-4.72475576

>  <minimizedRMSD>  (1) 
3.36878347

$$$$
