
     RDKit          3D

 43 45  0  0  1  0  0  0  0  0999 V2000
   47.5290   31.9740   44.4760 C   0  0  0  0  0  0  0  0  0  0  0  0
   46.9120   33.2050   44.1420 C   0  0  0  0  0  0  0  0  0  0  0  0
   46.0640   33.7250   45.1080 C   0  0  0  0  0  0  0  0  0  0  0  0
   45.8660   33.0710   46.2770 N   0  0  0  0  0  0  0  0  0  0  0  0
   46.4780   31.9050   46.5430 C   0  0  0  0  0  0  0  0  0  0  0  0
   47.2970   31.3480   45.6750 N   0  0  0  0  0  0  0  0  0  0  0  0
   47.2710   33.7090   42.8580 C   0  0  0  0  0  0  0  0  0  0  0  0
   48.2970   34.5990   42.8960 N   0  0  0  0  0  0  0  0  0  0  0  0
   48.7770   35.1810   41.7740 C   0  0  0  0  0  0  0  0  0  0  0  0
   48.2570   34.9080   40.5430 N   0  0  0  0  0  0  0  0  0  0  0  0
   47.2320   34.0260   40.4670 C   0  0  0  0  0  0  0  0  0  0  0  0
   46.6080   33.6540   39.2820 C   0  0  0  0  0  0  0  0  0  0  0  0
   45.5780   32.7630   39.2360 C   0  0  0  0  0  0  0  0  0  0  0  0
   45.1340   32.2040   40.4080 C   0  0  0  0  0  0  0  0  0  0  0  0
   45.7070   32.5290   41.6100 C   0  0  0  0  0  0  0  0  0  0  0  0
   46.7540   33.4420   41.6040 C   0  0  0  0  0  0  0  0  0  0  0  0
   46.2240   31.2650   47.8270 C   0  0  1  0  0  0  0  0  0  0  0  0
   44.8000   31.6180   48.3660 C   0  0  0  0  0  0  0  0  0  0  0  0
   46.3630   29.7770   47.8210 C   0  0  0  0  0  0  0  0  0  0  0  0
   45.1340   29.2280   47.7170 O   0  0  0  0  0  0  0  0  0  0  0  0
   44.7160   27.9410   47.4450 C   0  0  0  0  0  0  0  0  0  0  0  0
   44.0190   27.6430   46.4350 O   0  0  0  0  0  0  0  0  0  0  0  0
   45.0800   26.9450   48.3230 O   0  0  0  0  0  0  0  0  0  0  0  0
   44.0560   26.0390   48.8840 C   0  0  0  0  0  0  0  0  0  0  0  0
   43.8820   26.3180   50.3520 C   0  0  0  0  0  0  0  0  0  0  0  0
   48.2139   31.5065   43.7532 H   0  0  0  0  0  0  0  0  0  0  0  0
   45.5471   34.6782   44.9229 H   0  0  0  0  0  0  0  0  0  0  0  0
   49.6101   35.8946   41.8562 H   0  0  0  0  0  0  0  0  0  0  0  0
   46.9612   34.0984   38.3398 H   0  0  0  0  0  0  0  0  0  0  0  0
   45.1108   32.4966   38.2765 H   0  0  0  0  0  0  0  0  0  0  0  0
   44.3039   31.4827   40.3824 H   0  0  0  0  0  0  0  0  0  0  0  0
   45.3494   32.0814   42.5490 H   0  0  0  0  0  0  0  0  0  0  0  0
   47.0080   31.6676   48.4852 H   0  0  0  0  0  0  0  0  0  0  0  0
   44.8131   31.6148   49.4659 H   0  0  0  0  0  0  0  0  0  0  0  0
   44.5085   32.6156   48.0057 H   0  0  0  0  0  0  0  0  0  0  0  0
   44.0763   30.8721   48.0057 H   0  0  0  0  0  0  0  0  0  0  0  0
   46.9808   29.4664   46.9655 H   0  0  0  0  0  0  0  0  0  0  0  0
   46.8458   29.4419   48.7508 H   0  0  0  0  0  0  0  0  0  0  0  0
   43.0999   26.2017   48.3650 H   0  0  0  0  0  0  0  0  0  0  0  0
   44.3777   24.9961   48.7469 H   0  0  0  0  0  0  0  0  0  0  0  0
   44.3751   25.5273   50.9365 H   0  0  0  0  0  0  0  0  0  0  0  0
   44.3339   27.2906   50.5965 H   0  0  0  0  0  0  0  0  0  0  0  0
   42.8097   26.3401   50.5965 H   0  0  0  0  0  0  0  0  0  0  0  0
  1  6  2  0
  2  1  1  0
  2  3  2  0
  3  4  1  0
  4  5  2  0
  5 17  1  0
  6  5  1  0
  7  8  2  0
  7  2  1  0
  9  8  1  0
 10  9  2  0
 11 10  1  0
 11 16  2  0
 12 11  1  0
 13 12  2  0
 13 14  1  0
 14 15  2  0
 16 15  1  0
 16  7  1  0
 17 18  1  0
 19 17  1  0
 20 19  1  0
 21 20  1  0
 21 23  1  0
 22 21  2  0
 23 24  1  0
 24 25  1  0
  1 26  1  0
  3 27  1  0
  9 28  1  0
 12 29  1  0
 13 30  1  0
 14 31  1  0
 15 32  1  0
 17 33  1  1
 18 34  1  0
 18 35  1  0
 18 36  1  0
 19 37  1  0
 19 38  1  0
 24 39  1  0
 24 40  1  0
 25 41  1  0
 25 42  1  0
 25 43  1  0
M  ISO  8  26  14  27  14  28  14  29  14  30  14  31  14  32  14  33   8
M  ISO  8  34   8  35   8  36   8  37   8  38   8  39   8  40   8  41   8
M  ISO  2  42   8  43   8
M  END
>  <minimizedAffinity>  (1) 
-4.74813128

>  <minimizedRMSD>  (1) 
0.459532201

$$$$
