
     RDKit          3D

 24 25  0  0  0  0  0  0  0  0999 V2000
   48.0590   33.9570   42.0310 C   0  0  0  0  0  0  0  0  0  0  0  0
   47.0840   34.4160   42.9700 C   0  0  0  0  0  0  0  0  0  0  0  0
   46.6910   33.5430   43.9710 C   0  0  0  0  0  0  0  0  0  0  0  0
   47.2460   32.2950   44.0170 N   0  0  0  0  0  0  0  0  0  0  0  0
   48.1650   31.9170   43.1000 C   0  0  0  0  0  0  0  0  0  0  0  0
   48.5660   32.7170   42.1300 N   0  0  0  0  0  0  0  0  0  0  0  0
   48.4030   34.9700   41.0070 C   0  0  0  0  0  0  0  0  0  0  0  0
   49.1990   36.1000   41.6230 C   0  0  0  0  0  0  0  0  0  0  0  0
   45.4970   34.0300   45.1650 S   0  0  0  0  0  0  0  0  0  0  0  0
   45.5030   32.3420   48.7200 N   0  0  0  0  0  0  0  0  0  0  0  0
   44.9330   32.9960   47.7420 N   0  0  0  0  0  0  0  0  0  0  0  0
   45.7980   33.1930   46.7170 C   0  0  0  0  0  0  0  0  0  0  0  0
   47.0180   32.6160   47.0760 C   0  0  0  0  0  0  0  0  0  0  0  0
   46.7760   32.1010   48.3310 C   0  0  0  0  0  0  0  0  0  0  0  0
   46.6600   35.4286   42.9000 H   0  0  0  0  0  0  0  0  0  0  0  0
   48.5939   30.9061   43.1648 H   0  0  0  0  0  0  0  0  0  0  0  0
   47.4767   35.3747   40.5732 H   0  0  0  0  0  0  0  0  0  0  0  0
   49.0117   34.4920   40.2253 H   0  0  0  0  0  0  0  0  0  0  0  0
   49.1488   36.0287   42.7195 H   0  0  0  0  0  0  0  0  0  0  0  0
   50.2477   36.0291   41.2986 H   0  0  0  0  0  0  0  0  0  0  0  0
   48.7792   37.0636   41.2986 H   0  0  0  0  0  0  0  0  0  0  0  0
   45.0682   32.0647   49.6116 H   0  0  0  0  0  0  0  0  0  0  0  0
   47.9512   32.5809   46.4946 H   0  0  0  0  0  0  0  0  0  0  0  0
   47.5205   31.5642   48.9372 H   0  0  0  0  0  0  0  0  0  0  0  0
  1  6  2  0
  1  2  1  0
  2  3  2  0
  3  4  1  0
  3  9  1  0
  5  4  2  0
  6  5  1  0
  7  8  1  0
  7  1  1  0
  9 12  1  0
 11 10  1  0
 12 13  1  0
 12 11  2  0
 13 14  2  0
 14 10  1  0
  2 15  1  0
  5 16  1  0
  7 17  1  0
  7 18  1  0
  8 19  1  0
  8 20  1  0
  8 21  1  0
 10 22  1  0
 13 23  1  0
 14 24  1  0
M  ISO  8  15  14  16  14  17   8  18   8  19   8  20   8  21   8  22   9
M  ISO  2  23  14  24  14
M  END
>  <minimizedAffinity>  (1) 
-4.36932945

>  <minimizedRMSD>  (1) 
2.30090237

$$$$
