
     RDKit          3D

 24 25  0  0  0  0  0  0  0  0999 V2000
   48.0110   33.9220   42.1930 C   0  0  0  0  0  0  0  0  0  0  0  0
   47.1020   34.2980   43.2210 C   0  0  0  0  0  0  0  0  0  0  0  0
   46.8270   33.3660   44.2140 C   0  0  0  0  0  0  0  0  0  0  0  0
   47.4310   32.1570   44.1570 N   0  0  0  0  0  0  0  0  0  0  0  0
   48.2930   31.8310   43.1610 C   0  0  0  0  0  0  0  0  0  0  0  0
   48.5800   32.7070   42.1890 N   0  0  0  0  0  0  0  0  0  0  0  0
   48.2170   35.0020   41.2010 C   0  0  0  0  0  0  0  0  0  0  0  0
   49.2220   36.0040   41.6970 C   0  0  0  0  0  0  0  0  0  0  0  0
   45.7200   33.7450   45.5140 S   0  0  0  0  0  0  0  0  0  0  0  0
   46.0200   32.8810   47.0070 C   0  0  0  0  0  0  0  0  0  0  0  0
   47.2210   32.4230   47.4950 C   0  0  0  0  0  0  0  0  0  0  0  0
   46.9710   31.8010   48.7030 C   0  0  0  0  0  0  0  0  0  0  0  0
   45.6130   31.9220   48.8800 C   0  0  0  0  0  0  0  0  0  0  0  0
   45.0790   32.5620   47.8640 O   0  0  0  0  0  0  0  0  0  0  0  0
   46.6329   35.2929   43.2293 H   0  0  0  0  0  0  0  0  0  0  0  0
   48.7616   30.8358   43.1516 H   0  0  0  0  0  0  0  0  0  0  0  0
   47.2593   35.5121   41.0204 H   0  0  0  0  0  0  0  0  0  0  0  0
   48.5970   34.5554   40.2703 H   0  0  0  0  0  0  0  0  0  0  0  0
   49.2248   36.0068   42.7970 H   0  0  0  0  0  0  0  0  0  0  0  0
   50.2224   35.7332   41.3285 H   0  0  0  0  0  0  0  0  0  0  0  0
   48.9541   37.0052   41.3285 H   0  0  0  0  0  0  0  0  0  0  0  0
   48.2029   32.5320   47.0113 H   0  0  0  0  0  0  0  0  0  0  0  0
   47.6964   31.3170   49.3735 H   0  0  0  0  0  0  0  0  0  0  0  0
   45.0543   31.5386   49.7466 H   0  0  0  0  0  0  0  0  0  0  0  0
  1  2  2  0
  2  3  1  0
  3  9  1  0
  4  3  2  0
  5  4  1  0
  6  1  1  0
  6  5  2  0
  7  8  1  0
  7  1  1  0
  9 10  1  0
 10 11  2  0
 10 14  1  0
 11 12  1  0
 12 13  2  0
 14 13  1  0
  2 15  1  0
  5 16  1  0
  7 17  1  0
  7 18  1  0
  8 19  1  0
  8 20  1  0
  8 21  1  0
 11 22  1  0
 12 23  1  0
 13 24  1  0
M  ISO  8  15  14  16  14  17   8  18   8  19   8  20   8  21   8  22  14
M  ISO  2  23  14  24  14
M  END
>  <minimizedAffinity>  (1) 
-4.42720318

>  <minimizedRMSD>  (1) 
2.72593451

$$$$
