
     RDKit          3D

 26 26  0  0  0  0  0  0  0  0999 V2000
   47.7440   33.9400   42.4090 C   0  0  0  0  0  0  0  0  0  0  0  0
   46.9720   34.1630   43.5720 C   0  0  0  0  0  0  0  0  0  0  0  0
   46.8640   33.1470   44.5250 C   0  0  0  0  0  0  0  0  0  0  0  0
   47.5160   31.9860   44.2790 N   0  0  0  0  0  0  0  0  0  0  0  0
   48.2500   31.8000   43.1540 C   0  0  0  0  0  0  0  0  0  0  0  0
   48.3550   32.7710   42.2390 N   0  0  0  0  0  0  0  0  0  0  0  0
   47.7680   35.0960   41.4940 C   0  0  0  0  0  0  0  0  0  0  0  0
   49.0830   35.8410   41.6000 C   0  0  0  0  0  0  0  0  0  0  0  0
   45.9150   33.3690   45.9930 S   0  0  0  0  0  0  0  0  0  0  0  0
   46.2140   32.0460   47.1840 C   0  0  0  0  0  0  0  0  0  0  0  0
   47.4750   32.3760   47.9450 C   0  0  0  0  0  0  0  0  0  0  0  0
   45.0770   31.9880   48.1770 C   0  0  0  0  0  0  0  0  0  0  0  0
   46.4620   35.1256   43.7250 H   0  0  0  0  0  0  0  0  0  0  0  0
   48.7643   30.8413   42.9919 H   0  0  0  0  0  0  0  0  0  0  0  0
   46.9453   35.7784   41.7539 H   0  0  0  0  0  0  0  0  0  0  0  0
   47.6525   34.7310   40.4628 H   0  0  0  0  0  0  0  0  0  0  0  0
   49.3381   35.9855   42.6602 H   0  0  0  0  0  0  0  0  0  0  0  0
   49.8755   35.2577   41.1084 H   0  0  0  0  0  0  0  0  0  0  0  0
   48.9901   36.8206   41.1084 H   0  0  0  0  0  0  0  0  0  0  0  0
   46.3012   31.0849   46.6560 H   0  0  0  0  0  0  0  0  0  0  0  0
   47.2755   32.3238   49.0255 H   0  0  0  0  0  0  0  0  0  0  0  0
   48.2616   31.6535   47.6821 H   0  0  0  0  0  0  0  0  0  0  0  0
   47.8069   33.3912   47.6821 H   0  0  0  0  0  0  0  0  0  0  0  0
   45.4818   32.0087   49.1996 H   0  0  0  0  0  0  0  0  0  0  0  0
   44.4149   32.8535   48.0272 H   0  0  0  0  0  0  0  0  0  0  0  0
   44.5064   31.0596   48.0272 H   0  0  0  0  0  0  0  0  0  0  0  0
  1  2  2  0
  2  3  1  0
  3  9  1  0
  4  3  2  0
  5  4  1  0
  6  1  1  0
  6  5  2  0
  7  8  1  0
  7  1  1  0
  9 10  1  0
 10 11  1  0
 10 12  1  0
  2 13  1  0
  5 14  1  0
  7 15  1  0
  7 16  1  0
  8 17  1  0
  8 18  1  0
  8 19  1  0
 10 20  1  0
 11 21  1  0
 11 22  1  0
 11 23  1  0
 12 24  1  0
 12 25  1  0
 12 26  1  0
M  ISO  8  13  14  14  14  15   8  16   8  17   8  18   8  19   8  20   8
M  ISO  6  21   8  22   8  23   8  24   8  25   8  26   8
M  END
>  <minimizedAffinity>  (1) 
-3.73601985

>  <minimizedRMSD>  (1) 
2.58300304

$$$$
