
     RDKit          3D

 29 30  0  0  1  0  0  0  0  0999 V2000
   47.9810   33.8990   42.1880 C   0  0  0  0  0  0  0  0  0  0  0  0
   47.1170   34.3210   43.2220 C   0  0  0  0  0  0  0  0  0  0  0  0
   46.8190   33.4010   44.2320 C   0  0  0  0  0  0  0  0  0  0  0  0
   47.3730   32.1500   44.1700 N   0  0  0  0  0  0  0  0  0  0  0  0
   48.1960   31.7990   43.1540 C   0  0  0  0  0  0  0  0  0  0  0  0
   48.4890   32.6620   42.1840 N   0  0  0  0  0  0  0  0  0  0  0  0
   48.2090   34.9670   41.1900 C   0  0  0  0  0  0  0  0  0  0  0  0
   49.2040   35.9750   41.6890 C   0  0  0  0  0  0  0  0  0  0  0  0
   45.7550   33.8020   45.5700 S   0  0  0  0  0  0  0  0  0  0  0  0
   45.5360   31.2790   46.3040 N   0  0  0  0  0  0  0  0  0  0  0  0
   46.3550   30.3380   47.0270 C   0  0  0  0  0  0  0  0  0  0  0  0
   47.6030   31.0910   47.3530 C   0  0  0  0  0  0  0  0  0  0  0  0
   47.0990   32.4940   47.6050 C   0  0  0  0  0  0  0  0  0  0  0  0
   45.7670   32.5760   46.8870 C   0  0  1  0  0  0  0  0  0  0  0  0
   46.6938   35.3363   43.2326 H   0  0  0  0  0  0  0  0  0  0  0  0
   48.6281   30.7877   43.1298 H   0  0  0  0  0  0  0  0  0  0  0  0
   47.2554   35.4756   40.9849 H   0  0  0  0  0  0  0  0  0  0  0  0
   48.6091   34.5074   40.2742 H   0  0  0  0  0  0  0  0  0  0  0  0
   49.2049   35.9759   42.7890 H   0  0  0  0  0  0  0  0  0  0  0  0
   50.2072   35.7128   41.3218 H   0  0  0  0  0  0  0  0  0  0  0  0
   48.9288   36.9747   41.3218 H   0  0  0  0  0  0  0  0  0  0  0  0
   44.5421   31.0236   46.3926 H   0  0  0  0  0  0  0  0  0  0  0  0
   45.8487   30.0101   47.9469 H   0  0  0  0  0  0  0  0  0  0  0  0
   46.5590   29.4292   46.4417 H   0  0  0  0  0  0  0  0  0  0  0  0
   48.0903   30.6792   48.2491 H   0  0  0  0  0  0  0  0  0  0  0  0
   48.3604   31.0394   46.5569 H   0  0  0  0  0  0  0  0  0  0  0  0
   46.9668   32.6680   48.6831 H   0  0  0  0  0  0  0  0  0  0  0  0
   47.8067   33.2548   47.2440 H   0  0  0  0  0  0  0  0  0  0  0  0
   44.9918   32.8733   47.6086 H   0  0  0  0  0  0  0  0  0  0  0  0
  1  2  2  0
  2  3  1  0
  3  9  1  0
  4  3  2  0
  5  4  1  0
  6  1  1  0
  6  5  2  0
  7  8  1  0
  7  1  1  0
 10 14  1  0
 10 11  1  0
 11 12  1  0
 12 13  1  0
 14  9  1  0
 14 13  1  0
  2 15  1  0
  5 16  1  0
  7 17  1  0
  7 18  1  0
  8 19  1  0
  8 20  1  0
  8 21  1  0
 10 22  1  0
 11 23  1  0
 11 24  1  0
 12 25  1  0
 12 26  1  0
 13 27  1  0
 13 28  1  0
 14 29  1  1
M  ISO  8  15  14  16  14  17   8  18   8  19   8  20   8  21   8  22   5
M  ISO  7  23  13  24  13  25  13  26  13  27  13  28  13  29  13
M  END
>  <minimizedAffinity>  (1) 
-4.18063831

>  <minimizedRMSD>  (1) 
2.73181343

$$$$
