
     RDKit          3D

 30 31  0  0  0  0  0  0  0  0999 V2000
   47.7740   33.9220   42.4830 C   0  0  0  0  0  0  0  0  0  0  0  0
   46.8870   34.2490   43.5490 C   0  0  0  0  0  0  0  0  0  0  0  0
   46.6710   33.3110   44.5460 C   0  0  0  0  0  0  0  0  0  0  0  0
   47.3270   32.1280   44.4390 N   0  0  0  0  0  0  0  0  0  0  0  0
   48.1560   31.8520   43.4220 C   0  0  0  0  0  0  0  0  0  0  0  0
   48.3850   32.7200   42.4570 N   0  0  0  0  0  0  0  0  0  0  0  0
   47.9180   35.0150   41.4830 C   0  0  0  0  0  0  0  0  0  0  0  0
   49.1840   35.7960   41.7480 C   0  0  0  0  0  0  0  0  0  0  0  0
   45.5890   33.6410   45.8920 S   0  0  0  0  0  0  0  0  0  0  0  0
   45.9300   32.4240   47.2160 C   0  0  0  0  0  0  0  0  0  0  0  0
   47.3770   32.5240   47.6410 C   0  0  0  0  0  0  0  0  0  0  0  0
   47.6870   31.1090   48.0700 C   0  0  0  0  0  0  0  0  0  0  0  0
   47.0390   30.2900   46.9810 C   0  0  0  0  0  0  0  0  0  0  0  0
   45.7110   31.0180   46.7740 C   0  0  0  0  0  0  0  0  0  0  0  0
   46.3836   35.2266   43.5800 H   0  0  0  0  0  0  0  0  0  0  0  0
   48.6589   30.8741   43.3922 H   0  0  0  0  0  0  0  0  0  0  0  0
   47.0523   35.6899   41.5541 H   0  0  0  0  0  0  0  0  0  0  0  0
   47.9687   34.5772   40.4751 H   0  0  0  0  0  0  0  0  0  0  0  0
   49.3364   35.8900   42.8333 H   0  0  0  0  0  0  0  0  0  0  0  0
   50.0402   35.2689   41.3018 H   0  0  0  0  0  0  0  0  0  0  0  0
   49.0971   36.7977   41.3018 H   0  0  0  0  0  0  0  0  0  0  0  0
   45.2367   32.6601   48.0367 H   0  0  0  0  0  0  0  0  0  0  0  0
   48.0175   32.8351   46.8026 H   0  0  0  0  0  0  0  0  0  0  0  0
   47.5533   33.2710   48.4290 H   0  0  0  0  0  0  0  0  0  0  0  0
   48.7722   30.9334   48.1075 H   0  0  0  0  0  0  0  0  0  0  0  0
   47.3217   30.8659   49.0787 H   0  0  0  0  0  0  0  0  0  0  0  0
   47.6448   30.2972   46.0629 H   0  0  0  0  0  0  0  0  0  0  0  0
   46.9235   29.2268   47.2384 H   0  0  0  0  0  0  0  0  0  0  0  0
   45.4247   30.9930   45.7122 H   0  0  0  0  0  0  0  0  0  0  0  0
   44.9010   30.5413   47.3456 H   0  0  0  0  0  0  0  0  0  0  0  0
  1  2  2  0
  2  3  1  0
  3  9  1  0
  4  3  2  0
  5  4  1  0
  6  1  1  0
  6  5  2  0
  7  8  1  0
  7  1  1  0
  9 10  1  0
 10 11  1  0
 11 12  1  0
 13 12  1  0
 14 13  1  0
 14 10  1  0
  2 15  1  0
  5 16  1  0
  7 17  1  0
  7 18  1  0
  8 19  1  0
  8 20  1  0
  8 21  1  0
 10 22  1  0
 11 23  1  0
 11 24  1  0
 12 25  1  0
 12 26  1  0
 13 27  1  0
 13 28  1  0
 14 29  1  0
 14 30  1  0
M  ISO  8  15  14  16  14  17   8  18   8  19   8  20   8  21   8  22  13
M  ISO  8  23  13  24  13  25  13  26  13  27  13  28  13  29  13  30  13
M  END
>  <minimizedAffinity>  (1) 
-3.95401216

>  <minimizedRMSD>  (1) 
2.64413905

$$$$
