
     RDKit          3D

 40 43  0  0  0  0  0  0  0  0999 V2000
   47.2560   30.4110   45.8760 C   0  0  0  0  0  0  0  0  0  0  0  0
   48.2490   29.9450   45.0250 C   0  0  0  0  0  0  0  0  0  0  0  0
   48.3600   30.8830   44.0160 C   0  0  0  0  0  0  0  0  0  0  0  0
   47.4750   31.8720   44.2430 N   0  0  0  0  0  0  0  0  0  0  0  0
   46.8180   31.5890   45.3530 N   0  0  0  0  0  0  0  0  0  0  0  0
   47.3540   32.9880   43.3670 C   0  0  0  0  0  0  0  0  0  0  0  0
   48.0730   33.1220   42.2100 C   0  0  0  0  0  0  0  0  0  0  0  0
   47.8930   34.2450   41.4120 C   0  0  0  0  0  0  0  0  0  0  0  0
   47.0050   35.2660   41.7270 C   0  0  0  0  0  0  0  0  0  0  0  0
   46.2870   35.1150   42.9010 C   0  0  0  0  0  0  0  0  0  0  0  0
   45.4050   36.1370   43.2070 C   0  0  0  0  0  0  0  0  0  0  0  0
   44.6680   36.0280   44.3680 C   0  0  0  0  0  0  0  0  0  0  0  0
   44.7960   34.9410   45.2060 C   0  0  0  0  0  0  0  0  0  0  0  0
   45.6940   33.9330   44.8630 C   0  0  0  0  0  0  0  0  0  0  0  0
   46.4580   34.0030   43.7000 C   0  0  0  0  0  0  0  0  0  0  0  0
   46.4390   29.9270   47.3850 S   0  0  0  0  0  0  0  0  0  0  0  0
   44.0550   26.6860   47.7550 C   0  0  0  0  0  0  0  0  0  0  0  0
   45.0460   27.6440   48.0450 C   0  0  0  0  0  0  0  0  0  0  0  0
   45.2450   28.6750   47.1460 C   0  0  0  0  0  0  0  0  0  0  0  0
   44.4680   28.7080   46.0240 N   0  0  0  0  0  0  0  0  0  0  0  0
   43.5240   27.7750   45.7720 C   0  0  0  0  0  0  0  0  0  0  0  0
   43.3190   26.7680   46.6330 N   0  0  0  0  0  0  0  0  0  0  0  0
   43.9450   25.6360   48.7990 C   0  0  0  0  0  0  0  0  0  0  0  0
   43.9180   26.2610   50.1710 C   0  0  0  0  0  0  0  0  0  0  0  0
   48.8299   29.0170   45.1321 H   0  0  0  0  0  0  0  0  0  0  0  0
   49.0571   30.8302   43.1667 H   0  0  0  0  0  0  0  0  0  0  0  0
   48.7909   32.3432   41.9130 H   0  0  0  0  0  0  0  0  0  0  0  0
   48.4817   34.3298   40.4866 H   0  0  0  0  0  0  0  0  0  0  0  0
   46.8793   36.1461   41.0791 H   0  0  0  0  0  0  0  0  0  0  0  0
   45.2952   37.0087   42.5452 H   0  0  0  0  0  0  0  0  0  0  0  0
   43.9607   36.8282   44.6316 H   0  0  0  0  0  0  0  0  0  0  0  0
   44.2003   34.8710   46.1281 H   0  0  0  0  0  0  0  0  0  0  0  0
   45.8025   33.0617   45.5256 H   0  0  0  0  0  0  0  0  0  0  0  0
   45.6465   27.5735   48.9639 H   0  0  0  0  0  0  0  0  0  0  0  0
   42.9201   27.8419   44.8551 H   0  0  0  0  0  0  0  0  0  0  0  0
   43.0181   25.0647   48.6425 H   0  0  0  0  0  0  0  0  0  0  0  0
   44.8165   24.9686   48.7276 H   0  0  0  0  0  0  0  0  0  0  0  0
   43.9522   25.4702   50.9349 H   0  0  0  0  0  0  0  0  0  0  0  0
   44.7884   26.9231   50.2895 H   0  0  0  0  0  0  0  0  0  0  0  0
   42.9938   26.8456   50.2895 H   0  0  0  0  0  0  0  0  0  0  0  0
  1 16  1  0
  2  1  1  0
  3  4  1  0
  3  2  2  0
  4  5  1  0
  5  1  2  0
  6 15  1  0
  6  4  1  0
  7  6  2  0
  8  9  2  0
  8  7  1  0
  9 10  1  0
 10 11  1  0
 10 15  2  0
 11 12  2  0
 12 13  1  0
 14 13  2  0
 15 14  1  0
 17 18  2  0
 17 23  1  0
 19 16  1  0
 19 18  1  0
 20 19  2  0
 21 20  1  0
 21 22  2  0
 22 17  1  0
 23 24  1  0
  2 25  1  0
  3 26  1  0
  7 27  1  0
  8 28  1  0
  9 29  1  0
 11 30  1  0
 12 31  1  0
 13 32  1  0
 14 33  1  0
 18 34  1  0
 21 35  1  0
 23 36  1  0
 23 37  1  0
 24 38  1  0
 24 39  1  0
 24 40  1  0
M  ISO  8  25  14  26  14  27  14  28  14  29  14  30  14  31  14  32  14
M  ISO  8  33  14  34  14  35  14  36   8  37   8  38   8  39   8  40   8
M  END
>  <minimizedAffinity>  (1) 
-5.5363102

>  <minimizedRMSD>  (1) 
8.39889908

$$$$
