
     RDKit          3D

 38 41  0  0  0  0  0  0  0  0999 V2000
   46.3710   30.6020   45.9150 C   0  0  0  0  0  0  0  0  0  0  0  0
   45.8000   31.0460   47.0990 C   0  0  0  0  0  0  0  0  0  0  0  0
   45.0380   29.9900   47.5670 C   0  0  0  0  0  0  0  0  0  0  0  0
   45.1420   28.9600   46.7070 N   0  0  0  0  0  0  0  0  0  0  0  0
   45.9390   29.3270   45.7220 N   0  0  0  0  0  0  0  0  0  0  0  0
   44.4510   27.7470   46.9580 C   0  0  0  0  0  0  0  0  0  0  0  0
   44.8820   26.7690   47.8240 C   0  0  0  0  0  0  0  0  0  0  0  0
   43.9780   25.7900   47.7940 N   0  0  0  0  0  0  0  0  0  0  0  0
   42.9600   26.0720   46.9440 C   0  0  0  0  0  0  0  0  0  0  0  0
   41.8060   25.4050   46.5610 C   0  0  0  0  0  0  0  0  0  0  0  0
   40.9950   26.0420   45.6410 C   0  0  0  0  0  0  0  0  0  0  0  0
   41.2710   27.2900   45.0900 C   0  0  0  0  0  0  0  0  0  0  0  0
   42.4330   27.9520   45.4810 C   0  0  0  0  0  0  0  0  0  0  0  0
   43.2500   27.3280   46.3980 C   0  0  0  0  0  0  0  0  0  0  0  0
   47.4630   31.1940   44.6310 S   0  0  0  0  0  0  0  0  0  0  0  0
   47.2680   34.7110   42.6510 C   0  0  0  0  0  0  0  0  0  0  0  0
   47.7640   33.4870   43.1300 C   0  0  0  0  0  0  0  0  0  0  0  0
   46.9590   32.7350   43.9680 C   0  0  0  0  0  0  0  0  0  0  0  0
   45.7240   33.2210   44.2890 N   0  0  0  0  0  0  0  0  0  0  0  0
   45.2870   34.4090   43.8020 C   0  0  0  0  0  0  0  0  0  0  0  0
   46.0440   35.1390   43.0000 N   0  0  0  0  0  0  0  0  0  0  0  0
   48.2370   35.4140   41.7610 C   0  0  0  0  0  0  0  0  0  0  0  0
   49.6440   35.2290   42.2750 C   0  0  0  0  0  0  0  0  0  0  0  0
   45.9267   32.0328   47.5683 H   0  0  0  0  0  0  0  0  0  0  0  0
   44.4433   29.9921   48.4924 H   0  0  0  0  0  0  0  0  0  0  0  0
   45.8009   26.7908   48.4283 H   0  0  0  0  0  0  0  0  0  0  0  0
   44.0446   24.9248   48.3488 H   0  0  0  0  0  0  0  0  0  0  0  0
   41.5486   24.4167   46.9697 H   0  0  0  0  0  0  0  0  0  0  0  0
   40.0739   25.5308   45.3244 H   0  0  0  0  0  0  0  0  0  0  0  0
   40.5851   27.7448   44.3601 H   0  0  0  0  0  0  0  0  0  0  0  0
   42.6895   28.9400   45.0711 H   0  0  0  0  0  0  0  0  0  0  0  0
   48.7668   33.1351   42.8462 H   0  0  0  0  0  0  0  0  0  0  0  0
   44.2860   34.7715   44.0788 H   0  0  0  0  0  0  0  0  0  0  0  0
   47.9966   36.4872   41.7376 H   0  0  0  0  0  0  0  0  0  0  0  0
   48.1661   34.9917   40.7478 H   0  0  0  0  0  0  0  0  0  0  0  0
   49.6356   35.2301   43.3750 H   0  0  0  0  0  0  0  0  0  0  0  0
   50.0438   34.2706   41.9123 H   0  0  0  0  0  0  0  0  0  0  0  0
   50.2780   36.0515   41.9123 H   0  0  0  0  0  0  0  0  0  0  0  0
  1  2  1  0
  2  3  2  0
  4  6  1  0
  4  3  1  0
  5  1  2  0
  5  4  1  0
  6  7  2  0
  8  7  1  0
  9  8  1  0
 10  9  2  0
 11 10  1  0
 12 13  1  0
 12 11  2  0
 13 14  2  0
 14  9  1  0
 14  6  1  0
 15  1  1  0
 16 21  2  0
 16 17  1  0
 17 18  2  0
 18 19  1  0
 18 15  1  0
 20 19  2  0
 21 20  1  0
 22 23  1  0
 22 16  1  0
  2 24  1  0
  3 25  1  0
  7 26  1  0
  8 27  1  0
 10 28  1  0
 11 29  1  0
 12 30  1  0
 13 31  1  0
 17 32  1  0
 20 33  1  0
 22 34  1  0
 22 35  1  0
 23 36  1  0
 23 37  1  0
 23 38  1  0
M  ISO  8  24  14  25  14  26  14  27   9  28  14  29  14  30  14  31  14
M  ISO  7  32  14  33  14  34   8  35   8  36   8  37   8  38   8
M  END
>  <minimizedAffinity>  (1) 
-5.27631283

>  <minimizedRMSD>  (1) 
1.61802459

$$$$
