
     RDKit          3D

 31 33  0  0  0  0  0  0  0  0999 V2000
   49.9590   33.4540   41.8980 C   0  0  0  0  0  0  0  0  0  0  0  0
   49.1450   33.0190   40.8410 C   0  0  0  0  0  0  0  0  0  0  0  0
   48.2620   33.9210   40.2690 C   0  0  0  0  0  0  0  0  0  0  0  0
   48.2230   35.1950   40.7630 N   0  0  0  0  0  0  0  0  0  0  0  0
   49.0230   35.5710   41.7790 C   0  0  0  0  0  0  0  0  0  0  0  0
   49.8780   34.7080   42.3360 N   0  0  0  0  0  0  0  0  0  0  0  0
   50.8480   32.3750   42.4000 C   0  0  0  0  0  0  0  0  0  0  0  0
   51.4930   31.6300   41.2540 C   0  0  0  0  0  0  0  0  0  0  0  0
   47.1920   33.4810   38.9370 S   0  0  0  0  0  0  0  0  0  0  0  0
   45.5860   32.9360   39.4950 C   0  0  0  0  0  0  0  0  0  0  0  0
   44.8510   31.7360   39.5550 C   0  0  0  0  0  0  0  0  0  0  0  0
   43.6590   32.0850   40.1270 C   0  0  0  0  0  0  0  0  0  0  0  0
   43.6350   33.4010   40.4100 N   0  0  0  0  0  0  0  0  0  0  0  0
   44.8030   33.9000   40.0230 N   0  0  0  0  0  0  0  0  0  0  0  0
   42.5220   34.0570   41.0130 C   0  0  0  0  0  0  0  0  0  0  0  0
   41.2080   33.7290   41.0890 C   0  0  0  0  0  0  0  0  0  0  0  0
   40.5630   34.7430   41.8040 C   0  0  0  0  0  0  0  0  0  0  0  0
   41.5250   35.6480   42.1300 N   0  0  0  0  0  0  0  0  0  0  0  0
   42.7120   35.2430   41.6570 N   0  0  0  0  0  0  0  0  0  0  0  0
   49.2065   31.9838   40.4742 H   0  0  0  0  0  0  0  0  0  0  0  0
   48.9720   36.6032   42.1558 H   0  0  0  0  0  0  0  0  0  0  0  0
   51.6340   32.8193   43.0284 H   0  0  0  0  0  0  0  0  0  0  0  0
   50.2437   31.6655   42.9843 H   0  0  0  0  0  0  0  0  0  0  0  0
   52.1642   30.8548   41.6522 H   0  0  0  0  0  0  0  0  0  0  0  0
   50.7131   31.1586   40.6379 H   0  0  0  0  0  0  0  0  0  0  0  0
   52.0711   32.3344   40.6379 H   0  0  0  0  0  0  0  0  0  0  0  0
   45.1663   30.7381   39.2164 H   0  0  0  0  0  0  0  0  0  0  0  0
   42.8333   31.3866   40.3282 H   0  0  0  0  0  0  0  0  0  0  0  0
   40.7362   32.8300   40.6657 H   0  0  0  0  0  0  0  0  0  0  0  0
   39.4929   34.7979   42.0528 H   0  0  0  0  0  0  0  0  0  0  0  0
   41.3650   36.5157   42.6614 H   0  0  0  0  0  0  0  0  0  0  0  0
  1  6  2  0
  1  7  1  0
  2  1  1  0
  3  4  1  0
  3  2  2  0
  4  5  2  0
  5  6  1  0
  8  7  1  0
  9 10  1  0
  9  3  1  0
 10 11  1  0
 10 14  2  0
 11 12  2  0
 12 13  1  0
 13 15  1  0
 14 13  1  0
 15 16  1  0
 15 19  2  0
 16 17  2  0
 17 18  1  0
 19 18  1  0
  2 20  1  0
  5 21  1  0
  7 22  1  0
  7 23  1  0
  8 24  1  0
  8 25  1  0
  8 26  1  0
 11 27  1  0
 12 28  1  0
 16 29  1  0
 17 30  1  0
 18 31  1  0
M  ISO  8  20  14  21  14  22   8  23   8  24   8  25   8  26   8  27  14
M  ISO  4  28  14  29  14  30  14  31   9
M  END
>  <minimizedAffinity>  (1) 
-4.53878927

>  <minimizedRMSD>  (1) 
7.03297186

$$$$
