
     RDKit          3D

 29 31  0  0  0  0  0  0  0  0999 V2000
   47.1120   34.6650   42.8440 C   0  0  0  0  0  0  0  0  0  0  0  0
   47.6290   33.4500   43.3260 C   0  0  0  0  0  0  0  0  0  0  0  0
   46.8880   32.7300   44.2470 C   0  0  0  0  0  0  0  0  0  0  0  0
   45.6830   33.2530   44.6380 N   0  0  0  0  0  0  0  0  0  0  0  0
   45.2210   34.4230   44.1520 C   0  0  0  0  0  0  0  0  0  0  0  0
   45.9320   35.1250   43.2610 N   0  0  0  0  0  0  0  0  0  0  0  0
   48.0190   35.3230   41.8630 C   0  0  0  0  0  0  0  0  0  0  0  0
   49.4580   35.1570   42.2710 C   0  0  0  0  0  0  0  0  0  0  0  0
   47.4170   31.2070   44.9240 S   0  0  0  0  0  0  0  0  0  0  0  0
   46.3690   30.6260   46.2400 C   0  0  0  0  0  0  0  0  0  0  0  0
   45.7780   31.1180   47.4100 C   0  0  0  0  0  0  0  0  0  0  0  0
   45.0730   30.0520   47.9420 C   0  0  0  0  0  0  0  0  0  0  0  0
   45.2260   28.9780   47.1460 N   0  0  0  0  0  0  0  0  0  0  0  0
   45.9990   29.3210   46.1320 N   0  0  0  0  0  0  0  0  0  0  0  0
   44.6130   27.7260   47.4430 C   0  0  0  0  0  0  0  0  0  0  0  0
   44.0000   26.8920   46.5970 N   0  0  0  0  0  0  0  0  0  0  0  0
   43.5650   25.8500   47.2380 O   0  0  0  0  0  0  0  0  0  0  0  0
   43.8770   25.9710   48.5010 C   0  0  0  0  0  0  0  0  0  0  0  0
   44.5360   27.1370   48.6680 N   0  0  0  0  0  0  0  0  0  0  0  0
   48.6040   33.0784   42.9778 H   0  0  0  0  0  0  0  0  0  0  0  0
   44.2473   34.8055   44.4921 H   0  0  0  0  0  0  0  0  0  0  0  0
   47.7796   36.3955   41.8135 H   0  0  0  0  0  0  0  0  0  0  0  0
   47.8749   34.8528   40.8791 H   0  0  0  0  0  0  0  0  0  0  0  0
   49.5293   35.1488   43.3687 H   0  0  0  0  0  0  0  0  0  0  0  0
   49.8453   34.2082   41.8713 H   0  0  0  0  0  0  0  0  0  0  0  0
   50.0512   35.9927   41.8713 H   0  0  0  0  0  0  0  0  0  0  0  0
   45.8571   32.1358   47.8197 H   0  0  0  0  0  0  0  0  0  0  0  0
   44.4813   30.0787   48.8689 H   0  0  0  0  0  0  0  0  0  0  0  0
   43.6424   25.2455   49.2939 H   0  0  0  0  0  0  0  0  0  0  0  0
  1  6  2  0
  1  2  1  0
  2  3  2  0
  3  4  1  0
  3  9  1  0
  5  4  2  0
  6  5  1  0
  7  8  1  0
  7  1  1  0
  9 10  1  0
 10 11  1  0
 11 12  2  0
 13 15  1  0
 13 12  1  0
 14 10  2  0
 14 13  1  0
 15 19  1  0
 16 17  1  0
 16 15  2  0
 17 18  1  0
 18 19  2  0
  2 20  1  0
  5 21  1  0
  7 22  1  0
  7 23  1  0
  8 24  1  0
  8 25  1  0
  8 26  1  0
 11 27  1  0
 12 28  1  0
 18 29  1  0
M  ISO  8  20  14  21  14  22   8  23   8  24   8  25   8  26   8  27  14
M  ISO  2  28  14  29  14
M  END
>  <minimizedAffinity>  (1) 
-4.56383944

>  <minimizedRMSD>  (1) 
1.42816877

$$$$
