
     RDKit          3D

 30 31  0  0  0  0  0  0  0  0999 V2000
   47.0560   35.0280   41.8440 C   0  0  0  0  0  0  0  0  0  0  0  0
   46.3540   34.3010   40.8650 C   0  0  0  0  0  0  0  0  0  0  0  0
   44.9810   34.1870   40.9810 C   0  0  0  0  0  0  0  0  0  0  0  0
   44.3690   34.7880   42.0420 N   0  0  0  0  0  0  0  0  0  0  0  0
   45.0800   35.4770   42.9610 C   0  0  0  0  0  0  0  0  0  0  0  0
   46.4040   35.5980   42.8660 N   0  0  0  0  0  0  0  0  0  0  0  0
   48.5180   35.0590   41.5810 C   0  0  0  0  0  0  0  0  0  0  0  0
   49.0980   33.6670   41.5850 C   0  0  0  0  0  0  0  0  0  0  0  0
   43.9940   33.3040   39.8230 S   0  0  0  0  0  0  0  0  0  0  0  0
   42.5630   34.2310   39.2910 C   0  0  0  0  0  0  0  0  0  0  0  0
   42.2590   35.3410   38.5140 C   0  0  0  0  0  0  0  0  0  0  0  0
   40.8810   35.4670   38.5620 C   0  0  0  0  0  0  0  0  0  0  0  0
   40.3740   34.4850   39.3310 N   0  0  0  0  0  0  0  0  0  0  0  0
   41.3810   33.7490   39.7630 N   0  0  0  0  0  0  0  0  0  0  0  0
   38.9470   34.3640   39.5650 C   0  0  0  0  0  0  0  0  0  0  0  0
   38.2380   33.4950   38.5850 C   0  0  0  0  0  0  0  0  0  0  0  0
   46.8868   33.8328   40.0243 H   0  0  0  0  0  0  0  0  0  0  0  0
   44.5554   35.9480   43.8053 H   0  0  0  0  0  0  0  0  0  0  0  0
   49.0113   35.6564   42.3619 H   0  0  0  0  0  0  0  0  0  0  0  0
   48.6862   35.5056   40.5899 H   0  0  0  0  0  0  0  0  0  0  0  0
   49.2380   33.3311   42.6231 H   0  0  0  0  0  0  0  0  0  0  0  0
   48.4105   32.9818   41.0674 H   0  0  0  0  0  0  0  0  0  0  0  0
   50.0686   33.6727   41.0674 H   0  0  0  0  0  0  0  0  0  0  0  0
   42.9663   35.9864   37.9726 H   0  0  0  0  0  0  0  0  0  0  0  0
   40.2939   36.2455   38.0529 H   0  0  0  0  0  0  0  0  0  0  0  0
   38.7969   33.9435   40.5703 H   0  0  0  0  0  0  0  0  0  0  0  0
   38.5228   35.3731   39.4567 H   0  0  0  0  0  0  0  0  0  0  0  0
   37.6321   32.7523   39.1247 H   0  0  0  0  0  0  0  0  0  0  0  0
   37.5832   34.1132   37.9533 H   0  0  0  0  0  0  0  0  0  0  0  0
   38.9751   32.9777   37.9533 H   0  0  0  0  0  0  0  0  0  0  0  0
  1  6  2  0
  2  3  2  0
  2  1  1  0
  3  4  1  0
  4  5  2  0
  6  5  1  0
  7  8  1  0
  7  1  1  0
  9  3  1  0
 10 14  2  0
 10  9  1  0
 11 12  2  0
 11 10  1  0
 12 13  1  0
 13 15  1  0
 13 14  1  0
 16 15  1  0
  2 17  1  0
  5 18  1  0
  7 19  1  0
  7 20  1  0
  8 21  1  0
  8 22  1  0
  8 23  1  0
 11 24  1  0
 12 25  1  0
 15 26  1  0
 15 27  1  0
 16 28  1  0
 16 29  1  0
 16 30  1  0
M  ISO  8  17  14  18  14  19   8  20   8  21   8  22   8  23   8  24  14
M  ISO  6  25  14  26   8  27   8  28   8  29   8  30   8
M  END
>  <minimizedAffinity>  (1) 
-4.3120203

>  <minimizedRMSD>  (1) 
7.07573891

$$$$
