
     RDKit          3D

 37 40  0  0  0  0  0  0  0  0999 V2000
   46.3760   30.6670   46.1110 C   0  0  0  0  0  0  0  0  0  0  0  0
   45.6200   31.1370   47.2160 C   0  0  0  0  0  0  0  0  0  0  0  0
   44.9330   30.0270   47.6650 C   0  0  0  0  0  0  0  0  0  0  0  0
   45.2400   28.9760   46.9060 N   0  0  0  0  0  0  0  0  0  0  0  0
   46.1070   29.3450   45.9640 N   0  0  0  0  0  0  0  0  0  0  0  0
   44.6910   27.6710   47.1270 C   0  0  0  0  0  0  0  0  0  0  0  0
   43.5010   27.1530   46.4250 C   0  0  0  0  0  0  0  0  0  0  0  0
   43.4060   25.4490   47.1700 S   0  0  0  0  0  0  0  0  0  0  0  0
   44.9470   25.7720   48.2500 C   0  0  0  0  0  0  0  0  0  0  0  0
   45.2740   26.8270   48.0040 N   0  0  0  0  0  0  0  0  0  0  0  0
   45.4860   24.7610   49.1710 N   0  0  0  0  0  0  0  0  0  0  0  0
   45.3300   24.8000   50.4870 N   0  0  0  0  0  0  0  0  0  0  0  0
   45.9160   23.7670   51.0740 C   0  0  0  0  0  0  0  0  0  0  0  0
   46.4890   23.0090   50.0730 C   0  0  0  0  0  0  0  0  0  0  0  0
   46.1920   23.6730   48.9010 C   0  0  0  0  0  0  0  0  0  0  0  0
   47.5210   31.3640   44.9490 S   0  0  0  0  0  0  0  0  0  0  0  0
   47.1830   34.7100   42.7290 C   0  0  0  0  0  0  0  0  0  0  0  0
   47.7200   33.5410   43.2870 C   0  0  0  0  0  0  0  0  0  0  0  0
   46.9470   32.8330   44.1930 C   0  0  0  0  0  0  0  0  0  0  0  0
   45.7130   33.3060   44.4940 N   0  0  0  0  0  0  0  0  0  0  0  0
   45.2250   34.4360   43.9380 C   0  0  0  0  0  0  0  0  0  0  0  0
   45.9640   35.1190   43.0680 N   0  0  0  0  0  0  0  0  0  0  0  0
   48.1210   35.3690   41.7730 C   0  0  0  0  0  0  0  0  0  0  0  0
   49.5440   35.2260   42.2460 C   0  0  0  0  0  0  0  0  0  0  0  0
   45.5884   32.1581   47.6239 H   0  0  0  0  0  0  0  0  0  0  0  0
   44.2389   30.0125   48.5182 H   0  0  0  0  0  0  0  0  0  0  0  0
   42.8552   27.6351   45.6763 H   0  0  0  0  0  0  0  0  0  0  0  0
   45.9411   23.5541   52.1529 H   0  0  0  0  0  0  0  0  0  0  0  0
   47.0600   22.0756   50.1857 H   0  0  0  0  0  0  0  0  0  0  0  0
   46.4954   23.3483   47.8947 H   0  0  0  0  0  0  0  0  0  0  0  0
   48.7277   33.1954   43.0128 H   0  0  0  0  0  0  0  0  0  0  0  0
   44.2184   34.7908   44.2041 H   0  0  0  0  0  0  0  0  0  0  0  0
   47.8701   36.4374   41.6983 H   0  0  0  0  0  0  0  0  0  0  0  0
   48.0232   34.8865   40.7893 H   0  0  0  0  0  0  0  0  0  0  0  0
   49.5664   35.2238   43.3458 H   0  0  0  0  0  0  0  0  0  0  0  0
   49.9626   34.2813   41.8688 H   0  0  0  0  0  0  0  0  0  0  0  0
   50.1422   36.0686   41.8688 H   0  0  0  0  0  0  0  0  0  0  0  0
  1  2  1  0
  2  3  2  0
  4  6  1  0
  4  3  1  0
  5  1  2  0
  5  4  1  0
  6 10  1  0
  7  6  2  0
  7  8  1  0
  8  9  1  0
  9 11  1  0
 10  9  2  0
 11 12  1  0
 12 13  2  0
 14 13  1  0
 15 11  1  0
 15 14  2  0
 16  1  1  0
 17 22  2  0
 17 18  1  0
 18 19  2  0
 19 20  1  0
 19 16  1  0
 21 20  2  0
 22 21  1  0
 23 24  1  0
 23 17  1  0
  2 25  1  0
  3 26  1  0
  7 27  1  0
 13 28  1  0
 14 29  1  0
 15 30  1  0
 18 31  1  0
 21 32  1  0
 23 33  1  0
 23 34  1  0
 24 35  1  0
 24 36  1  0
 24 37  1  0
M  ISO  8  25  14  26  14  27  14  28  14  29  14  30  14  31  14  32  14
M  ISO  5  33   8  34   8  35   8  36   8  37   8
M  END
>  <minimizedAffinity>  (1) 
-5.47821331

>  <minimizedRMSD>  (1) 
0.960953653

$$$$
