
     RDKit          3D

 37 40  0  0  0  0  0  0  0  0999 V2000
   46.1630   31.0280   47.0450 C   0  0  0  0  0  0  0  0  0  0  0  0
   45.4530   31.1680   48.2650 C   0  0  0  0  0  0  0  0  0  0  0  0
   44.9070   29.9220   48.4940 C   0  0  0  0  0  0  0  0  0  0  0  0
   45.2540   29.0970   47.5020 N   0  0  0  0  0  0  0  0  0  0  0  0
   46.0110   29.7430   46.6170 N   0  0  0  0  0  0  0  0  0  0  0  0
   44.8280   27.7310   47.4740 C   0  0  0  0  0  0  0  0  0  0  0  0
   43.7930   27.2210   46.5260 C   0  0  0  0  0  0  0  0  0  0  0  0
   43.7580   25.4180   47.0520 S   0  0  0  0  0  0  0  0  0  0  0  0
   45.0790   25.7210   48.3720 C   0  0  0  0  0  0  0  0  0  0  0  0
   45.3330   26.8230   48.2990 N   0  0  0  0  0  0  0  0  0  0  0  0
   45.5360   24.5870   49.2150 C   0  0  0  0  0  0  0  0  0  0  0  0
   45.5630   24.5400   50.5760 C   0  0  0  0  0  0  0  0  0  0  0  0
   46.0570   23.3050   50.9770 C   0  0  0  0  0  0  0  0  0  0  0  0
   46.3170   22.6310   49.8200 N   0  0  0  0  0  0  0  0  0  0  0  0
   46.0030   23.4040   48.7780 N   0  0  0  0  0  0  0  0  0  0  0  0
   47.1390   32.0800   46.0200 S   0  0  0  0  0  0  0  0  0  0  0  0
   45.7230   34.9280   43.5450 C   0  0  0  0  0  0  0  0  0  0  0  0
   46.4710   33.8440   44.0180 C   0  0  0  0  0  0  0  0  0  0  0  0
   46.2630   33.4210   45.3230 C   0  0  0  0  0  0  0  0  0  0  0  0
   45.3420   34.0810   46.0780 N   0  0  0  0  0  0  0  0  0  0  0  0
   44.6380   35.1250   45.5850 C   0  0  0  0  0  0  0  0  0  0  0  0
   44.8290   35.5350   44.3410 N   0  0  0  0  0  0  0  0  0  0  0  0
   46.0480   35.2730   42.1310 C   0  0  0  0  0  0  0  0  0  0  0  0
   47.5200   35.0760   41.8630 C   0  0  0  0  0  0  0  0  0  0  0  0
   45.3588   32.0689   48.8891 H   0  0  0  0  0  0  0  0  0  0  0  0
   44.2833   29.6501   49.3584 H   0  0  0  0  0  0  0  0  0  0  0  0
   43.2196   27.7467   45.7482 H   0  0  0  0  0  0  0  0  0  0  0  0
   45.2449   25.3496   51.2493 H   0  0  0  0  0  0  0  0  0  0  0  0
   46.2064   22.9475   52.0065 H   0  0  0  0  0  0  0  0  0  0  0  0
   46.6962   21.6753   49.7598 H   0  0  0  0  0  0  0  0  0  0  0  0
   47.2050   33.3402   43.3719 H   0  0  0  0  0  0  0  0  0  0  0  0
   43.9017   35.6369   46.2220 H   0  0  0  0  0  0  0  0  0  0  0  0
   45.4677   34.6248   41.4578 H   0  0  0  0  0  0  0  0  0  0  0  0
   45.7928   36.3284   41.9550 H   0  0  0  0  0  0  0  0  0  0  0  0
   48.0602   35.0037   42.8185 H   0  0  0  0  0  0  0  0  0  0  0  0
   47.6672   34.1501   41.2876 H   0  0  0  0  0  0  0  0  0  0  0  0
   47.9055   35.9306   41.2876 H   0  0  0  0  0  0  0  0  0  0  0  0
  1  2  1  0
  2  3  2  0
  4  3  1  0
  5  1  2  0
  5  4  1  0
  6  4  1  0
  6 10  1  0
  7  8  1  0
  7  6  2  0
  8  9  1  0
  9 11  1  0
 10  9  2  0
 11 12  1  0
 12 13  2  0
 14 13  1  0
 15 11  2  0
 15 14  1  0
 16  1  1  0
 17 18  2  0
 17 22  1  0
 18 19  1  0
 19 16  1  0
 19 20  2  0
 21 20  1  0
 22 21  2  0
 23 17  1  0
 24 23  1  0
  2 25  1  0
  3 26  1  0
  7 27  1  0
 12 28  1  0
 13 29  1  0
 14 30  1  0
 18 31  1  0
 21 32  1  0
 23 33  1  0
 23 34  1  0
 24 35  1  0
 24 36  1  0
 24 37  1  0
M  ISO  8  25  14  26  14  27  14  28  14  29  14  30   9  31  14  32  14
M  ISO  5  33   8  34   8  35   8  36   8  37   8
M  END
>  <minimizedAffinity>  (1) 
-5.49886036

>  <minimizedRMSD>  (1) 
1.69076467

$$$$
