
     RDKit          3D

 41 44  0  0  0  0  0  0  0  0999 V2000
   46.4800   30.5400   45.7250 C   0  0  0  0  0  0  0  0  0  0  0  0
   45.7090   31.0750   46.7640 C   0  0  0  0  0  0  0  0  0  0  0  0
   45.1800   29.9810   47.4280 C   0  0  0  0  0  0  0  0  0  0  0  0
   45.6060   28.8680   46.8220 N   0  0  0  0  0  0  0  0  0  0  0  0
   46.3910   29.1800   45.7940 N   0  0  0  0  0  0  0  0  0  0  0  0
   45.2310   27.5630   47.2770 C   0  0  0  0  0  0  0  0  0  0  0  0
   43.9360   26.9170   46.9480 C   0  0  0  0  0  0  0  0  0  0  0  0
   44.1420   25.2930   47.8440 S   0  0  0  0  0  0  0  0  0  0  0  0
   45.8800   25.7980   48.4630 C   0  0  0  0  0  0  0  0  0  0  0  0
   46.0440   26.8310   48.0400 N   0  0  0  0  0  0  0  0  0  0  0  0
   46.6090   24.8710   49.2780 N   0  0  0  0  0  0  0  0  0  0  0  0
   45.9350   24.0110   50.0270 C   0  0  0  0  0  0  0  0  0  0  0  0
   46.6460   23.1220   50.8100 C   0  0  0  0  0  0  0  0  0  0  0  0
   48.0220   23.2070   50.7460 C   0  0  0  0  0  0  0  0  0  0  0  0
   48.8750   22.3530   51.5000 N   0  0  0  0  0  0  0  0  0  0  0  0
   48.6480   24.1060   49.9630 N   0  0  0  0  0  0  0  0  0  0  0  0
   47.9320   24.9790   49.1940 C   0  0  0  0  0  0  0  0  0  0  0  0
   48.5630   25.8000   48.4810 O   0  0  0  0  0  0  0  0  0  0  0  0
   47.4920   31.1820   44.4180 S   0  0  0  0  0  0  0  0  0  0  0  0
   47.2810   34.7730   42.5950 C   0  0  0  0  0  0  0  0  0  0  0  0
   47.7870   33.5330   43.0160 C   0  0  0  0  0  0  0  0  0  0  0  0
   46.9790   32.7460   43.8250 C   0  0  0  0  0  0  0  0  0  0  0  0
   45.7490   33.2160   44.1640 N   0  0  0  0  0  0  0  0  0  0  0  0
   45.3060   34.4190   43.7330 C   0  0  0  0  0  0  0  0  0  0  0  0
   46.0650   35.1730   42.9650 N   0  0  0  0  0  0  0  0  0  0  0  0
   48.2510   35.5100   41.7340 C   0  0  0  0  0  0  0  0  0  0  0  0
   49.6570   35.3040   42.2280 C   0  0  0  0  0  0  0  0  0  0  0  0
   45.5560   32.1380   47.0021 H   0  0  0  0  0  0  0  0  0  0  0  0
   44.5198   30.0210   48.3069 H   0  0  0  0  0  0  0  0  0  0  0  0
   43.0937   27.2897   46.3466 H   0  0  0  0  0  0  0  0  0  0  0  0
   44.8350   24.0048   50.0256 H   0  0  0  0  0  0  0  0  0  0  0  0
   46.1413   22.3845   51.4514 H   0  0  0  0  0  0  0  0  0  0  0  0
   49.8977   22.4489   51.4238 H   0  0  0  0  0  0  0  0  0  0  0  0
   48.4697   21.6390   52.1219 H   0  0  0  0  0  0  0  0  0  0  0  0
   48.7900   33.1964   42.7149 H   0  0  0  0  0  0  0  0  0  0  0  0
   44.3054   34.7699   44.0258 H   0  0  0  0  0  0  0  0  0  0  0  0
   48.0128   36.5836   41.7576 H   0  0  0  0  0  0  0  0  0  0  0  0
   48.1758   35.1272   40.7055 H   0  0  0  0  0  0  0  0  0  0  0  0
   49.6627   35.3032   43.3280 H   0  0  0  0  0  0  0  0  0  0  0  0
   50.0380   34.3405   41.8586 H   0  0  0  0  0  0  0  0  0  0  0  0
   50.2984   36.1178   41.8586 H   0  0  0  0  0  0  0  0  0  0  0  0
  1  5  2  0
  1  2  1  0
  2  3  2  0
  4  6  1  0
  4  3  1  0
  5  4  1  0
  6 10  1  0
  7  6  2  0
  7  8  1  0
  8  9  1  0
  9 11  1  0
 10  9  2  0
 11 12  1  0
 12 13  2  0
 14 13  1  0
 14 15  1  0
 16 14  2  0
 17 11  1  0
 17 16  1  0
 18 17  2  0
 19  1  1  0
 20 25  2  0
 20 21  1  0
 21 22  2  0
 22 23  1  0
 22 19  1  0
 24 23  2  0
 25 24  1  0
 26 27  1  0
 26 20  1  0
  2 28  1  0
  3 29  1  0
  7 30  1  0
 12 31  1  0
 13 32  1  0
 15 33  1  0
 15 34  1  0
 21 35  1  0
 24 36  1  0
 26 37  1  0
 26 38  1  0
 27 39  1  0
 27 40  1  0
 27 41  1  0
M  ISO  8  28  14  29  14  30  14  31  14  32  14  35  14  36  14  37   8
M  ISO  4  38   8  39   8  40   8  41   8
M  END
>  <minimizedAffinity>  (1) 
-5.82017517

>  <minimizedRMSD>  (1) 
1.97852051

$$$$
