
     RDKit          3D

 36 38  0  0  0  0  0  0  0  0999 V2000
   43.6680   33.8950   41.4890 C   0  0  0  0  0  0  0  0  0  0  0  0
   44.5950   33.3450   40.6870 C   0  0  0  0  0  0  0  0  0  0  0  0
   45.8690   32.8010   41.8750 S   0  0  0  0  0  0  0  0  0  0  0  0
   44.8440   33.4600   43.3250 C   0  0  0  0  0  0  0  0  0  0  0  0
   43.9130   33.8860   42.7620 N   0  0  0  0  0  0  0  0  0  0  0  0
   45.4120   33.2890   44.6290 N   0  0  0  0  0  0  0  0  0  0  0  0
   46.7900   33.2650   44.8860 C   0  0  0  0  0  0  0  0  0  0  0  0
   47.5560   33.8320   44.0020 N   0  0  0  0  0  0  0  0  0  0  0  0
   47.1790   32.6140   46.1000 N   0  0  0  0  0  0  0  0  0  0  0  0
   48.5710   33.8470   44.2250 H   0  0  0  0  0  0  0  0  0  0  0  0
   40.6310   36.1190   40.8400 C   0  0  0  0  0  0  0  0  0  0  0  0
   41.8060   35.6170   41.4330 C   0  0  0  0  0  0  0  0  0  0  0  0
   42.4210   34.4800   40.9110 C   0  0  0  0  0  0  0  0  0  0  0  0
   41.8080   33.9420   39.8340 N   0  0  0  0  0  0  0  0  0  0  0  0
   40.6960   34.4070   39.2630 C   0  0  0  0  0  0  0  0  0  0  0  0
   40.1180   35.4870   39.7670 N   0  0  0  0  0  0  0  0  0  0  0  0
   40.1470   33.6970   38.0820 C   0  0  0  0  0  0  0  0  0  0  0  0
   38.7730   34.2390   37.7190 C   0  0  0  0  0  0  0  0  0  0  0  0
   38.0320   33.0700   37.1060 C   0  0  0  0  0  0  0  0  0  0  0  0
   38.5480   31.8770   37.8810 C   0  0  0  0  0  0  0  0  0  0  0  0
   39.9540   32.2350   38.3090 C   0  0  0  0  0  0  0  0  0  0  0  0
   44.5879   33.2473   39.5914 H   0  0  0  0  0  0  0  0  0  0  0  0
   44.7691   33.1769   45.4259 H   0  0  0  0  0  0  0  0  0  0  0  0
   48.1747   32.5563   46.3572 H   0  0  0  0  0  0  0  0  0  0  0  0
   46.4632   32.2033   46.7163 H   0  0  0  0  0  0  0  0  0  0  0  0
   40.1393   37.0146   41.2476 H   0  0  0  0  0  0  0  0  0  0  0  0
   42.2387   36.1226   42.3088 H   0  0  0  0  0  0  0  0  0  0  0  0
   40.8895   33.8593   37.2868 H   0  0  0  0  0  0  0  0  0  0  0  0
   38.2505   34.5978   38.6180 H   0  0  0  0  0  0  0  0  0  0  0  0
   38.8380   35.0917   37.0272 H   0  0  0  0  0  0  0  0  0  0  0  0
   36.9454   33.1823   37.2351 H   0  0  0  0  0  0  0  0  0  0  0  0
   38.1968   32.9799   36.0222 H   0  0  0  0  0  0  0  0  0  0  0  0
   37.9159   31.6909   38.7618 H   0  0  0  0  0  0  0  0  0  0  0  0
   38.5331   30.9623   37.2701 H   0  0  0  0  0  0  0  0  0  0  0  0
   40.6821   31.6654   37.7129 H   0  0  0  0  0  0  0  0  0  0  0  0
   40.1042   31.9901   39.3708 H   0  0  0  0  0  0  0  0  0  0  0  0
  1  5  1  0
  2  1  2  0
  2  3  1  0
  3  4  1  0
  4  6  1  0
  5  4  2  0
  6  7  1  0
  7  9  1  0
  8 10  1  0
  8  7  2  0
 11 12  2  0
 13 12  1  0
 13  1  1  0
 14 13  2  0
 15 16  2  0
 15 14  1  0
 16 11  1  0
 17 21  1  0
 17 15  1  0
 18 17  1  0
 19 18  1  0
 19 20  1  0
 20 21  1  0
  2 22  1  0
  6 23  1  0
  9 24  1  0
  9 25  1  0
 11 26  1  0
 12 27  1  0
 17 28  1  0
 18 29  1  0
 18 30  1  0
 19 31  1  0
 19 32  1  0
 20 33  1  0
 20 34  1  0
 21 35  1  0
 21 36  1  0
M  ISO  8  22  14  26  14  27  14  28  13  29  13  30  13  31  13  32  13
M  ISO  4  33  13  34  13  35  13  36  13
M  END
>  <minimizedAffinity>  (1) 
-6.00183916

>  <minimizedRMSD>  (1) 
1.47250628

$$$$
