
     RDKit          3D

 39 42  0  0  0  0  0  0  0  0999 V2000
   46.4600   30.5470   45.7870 C   0  0  0  0  0  0  0  0  0  0  0  0
   45.7140   31.0750   46.8580 C   0  0  0  0  0  0  0  0  0  0  0  0
   45.1500   29.9760   47.4770 C   0  0  0  0  0  0  0  0  0  0  0  0
   45.5330   28.8540   46.8170 N   0  0  0  0  0  0  0  0  0  0  0  0
   46.3160   29.1890   45.8070 N   0  0  0  0  0  0  0  0  0  0  0  0
   45.1020   27.5600   47.2340 C   0  0  0  0  0  0  0  0  0  0  0  0
   43.8630   26.9200   46.7240 C   0  0  0  0  0  0  0  0  0  0  0  0
   43.9360   25.3040   47.6780 S   0  0  0  0  0  0  0  0  0  0  0  0
   45.5470   25.8160   48.5200 C   0  0  0  0  0  0  0  0  0  0  0  0
   45.7890   26.8410   48.1170 N   0  0  0  0  0  0  0  0  0  0  0  0
   46.1280   24.8130   49.4870 C   0  0  0  0  0  0  0  0  0  0  0  0
   45.4180   24.3390   50.5630 C   0  0  0  0  0  0  0  0  0  0  0  0
   46.1310   23.4190   51.3370 C   0  0  0  0  0  0  0  0  0  0  0  0
   47.4360   23.0580   50.9980 C   0  0  0  0  0  0  0  0  0  0  0  0
   48.0820   23.5690   49.9140 C   0  0  0  0  0  0  0  0  0  0  0  0
   47.3770   24.4520   49.1820 N   0  0  0  0  0  0  0  0  0  0  0  0
   47.4910   31.1910   44.4950 S   0  0  0  0  0  0  0  0  0  0  0  0
   47.2700   34.7460   42.6170 C   0  0  0  0  0  0  0  0  0  0  0  0
   47.7640   33.5210   43.0600 C   0  0  0  0  0  0  0  0  0  0  0  0
   46.9650   32.7430   43.8800 C   0  0  0  0  0  0  0  0  0  0  0  0
   45.7380   33.2090   44.2130 N   0  0  0  0  0  0  0  0  0  0  0  0
   45.2970   34.4070   43.7600 C   0  0  0  0  0  0  0  0  0  0  0  0
   46.0450   35.1520   42.9820 N   0  0  0  0  0  0  0  0  0  0  0  0
   48.2320   35.4790   41.7430 C   0  0  0  0  0  0  0  0  0  0  0  0
   49.6420   35.2950   42.2340 C   0  0  0  0  0  0  0  0  0  0  0  0
   45.6041   32.1324   47.1405 H   0  0  0  0  0  0  0  0  0  0  0  0
   44.4965   30.0058   48.3614 H   0  0  0  0  0  0  0  0  0  0  0  0
   43.1201   27.2853   45.9997 H   0  0  0  0  0  0  0  0  0  0  0  0
   44.3891   24.6527   50.7931 H   0  0  0  0  0  0  0  0  0  0  0  0
   45.6576   22.9738   52.2246 H   0  0  0  0  0  0  0  0  0  0  0  0
   47.9640   22.3310   51.6326 H   0  0  0  0  0  0  0  0  0  0  0  0
   49.1109   23.2798   49.6537 H   0  0  0  0  0  0  0  0  0  0  0  0
   48.7671   33.1795   42.7646 H   0  0  0  0  0  0  0  0  0  0  0  0
   44.2962   34.7603   44.0491 H   0  0  0  0  0  0  0  0  0  0  0  0
   47.9835   36.5505   41.7514 H   0  0  0  0  0  0  0  0  0  0  0  0
   48.1579   35.0784   40.7212 H   0  0  0  0  0  0  0  0  0  0  0  0
   49.6500   35.2940   43.3340 H   0  0  0  0  0  0  0  0  0  0  0  0
   50.0373   34.3377   41.8635 H   0  0  0  0  0  0  0  0  0  0  0  0
   50.2697   36.1188   41.8635 H   0  0  0  0  0  0  0  0  0  0  0  0
  1  5  2  0
  1  2  1  0
  2  3  2  0
  4  6  1  0
  4  3  1  0
  5  4  1  0
  6 10  1  0
  7  6  2  0
  7  8  1  0
  8  9  1  0
  9 11  1  0
 10  9  2  0
 11 12  2  0
 12 13  1  0
 14 13  2  0
 15 14  1  0
 16 11  1  0
 16 15  2  0
 17  1  1  0
 18 23  2  0
 18 19  1  0
 19 20  2  0
 20 21  1  0
 20 17  1  0
 22 21  2  0
 23 22  1  0
 24 25  1  0
 24 18  1  0
  2 26  1  0
  3 27  1  0
  7 28  1  0
 12 29  1  0
 13 30  1  0
 14 31  1  0
 15 32  1  0
 19 33  1  0
 22 34  1  0
 24 35  1  0
 24 36  1  0
 25 37  1  0
 25 38  1  0
 25 39  1  0
M  ISO  8  26  14  27  14  28  14  29  14  30  14  31  14  32  14  33  14
M  ISO  6  34  14  35   8  36   8  37   8  38   8  39   8
M  END
>  <minimizedAffinity>  (1) 
-5.22092152

>  <minimizedRMSD>  (1) 
1.38974619

$$$$
