
     RDKit          3D

 40 43  0  0  0  0  0  0  0  0999 V2000
   46.4110   30.7900   46.1310 C   0  0  0  0  0  0  0  0  0  0  0  0
   45.5230   31.2520   47.1280 C   0  0  0  0  0  0  0  0  0  0  0  0
   44.9530   30.1080   47.6360 C   0  0  0  0  0  0  0  0  0  0  0  0
   45.4420   29.0340   47.0110 N   0  0  0  0  0  0  0  0  0  0  0  0
   46.3260   29.4320   46.0970 N   0  0  0  0  0  0  0  0  0  0  0  0
   45.0390   27.7010   47.3300 C   0  0  0  0  0  0  0  0  0  0  0  0
   43.8580   27.0440   46.7320 C   0  0  0  0  0  0  0  0  0  0  0  0
   43.9580   25.3810   47.5680 S   0  0  0  0  0  0  0  0  0  0  0  0
   45.5120   25.8910   48.5170 C   0  0  0  0  0  0  0  0  0  0  0  0
   45.7210   26.9540   48.1900 N   0  0  0  0  0  0  0  0  0  0  0  0
   46.1020   24.8560   49.4390 C   0  0  0  0  0  0  0  0  0  0  0  0
   45.4140   24.3830   50.5270 C   0  0  0  0  0  0  0  0  0  0  0  0
   46.0670   23.4330   51.2930 C   0  0  0  0  0  0  0  0  0  0  0  0
   47.3510   22.9970   50.9600 C   0  0  0  0  0  0  0  0  0  0  0  0
   47.9920   23.5190   49.8430 C   0  0  0  0  0  0  0  0  0  0  0  0
   47.3430   24.4720   49.0690 C   0  0  0  0  0  0  0  0  0  0  0  0
   47.5400   31.5340   44.9920 S   0  0  0  0  0  0  0  0  0  0  0  0
   46.9650   34.6740   42.5360 C   0  0  0  0  0  0  0  0  0  0  0  0
   47.5220   33.5130   43.0810 C   0  0  0  0  0  0  0  0  0  0  0  0
   46.9350   32.9800   44.2200 C   0  0  0  0  0  0  0  0  0  0  0  0
   45.8530   33.6060   44.7500 N   0  0  0  0  0  0  0  0  0  0  0  0
   45.3490   34.7350   44.1820 C   0  0  0  0  0  0  0  0  0  0  0  0
   45.8950   35.2460   43.1060 N   0  0  0  0  0  0  0  0  0  0  0  0
   47.7020   35.1280   41.3150 C   0  0  0  0  0  0  0  0  0  0  0  0
   49.0260   35.7600   41.7060 C   0  0  0  0  0  0  0  0  0  0  0  0
   45.3308   32.2921   47.4299 H   0  0  0  0  0  0  0  0  0  0  0  0
   44.2031   30.0816   48.4404 H   0  0  0  0  0  0  0  0  0  0  0  0
   43.1289   27.4267   46.0026 H   0  0  0  0  0  0  0  0  0  0  0  0
   44.4030   24.7377   50.7761 H   0  0  0  0  0  0  0  0  0  0  0  0
   45.5663   23.0146   52.1786 H   0  0  0  0  0  0  0  0  0  0  0  0
   47.8544   22.2414   51.5810 H   0  0  0  0  0  0  0  0  0  0  0  0
   49.0036   23.1806   49.5745 H   0  0  0  0  0  0  0  0  0  0  0  0
   47.8261   24.9022   48.1793 H   0  0  0  0  0  0  0  0  0  0  0  0
   48.3997   33.0361   42.6204 H   0  0  0  0  0  0  0  0  0  0  0  0
   44.4726   35.2247   44.6315 H   0  0  0  0  0  0  0  0  0  0  0  0
   47.0915   35.8676   40.7762 H   0  0  0  0  0  0  0  0  0  0  0  0
   47.8961   34.2589   40.6692 H   0  0  0  0  0  0  0  0  0  0  0  0
   49.1047   35.7976   42.8025 H   0  0  0  0  0  0  0  0  0  0  0  0
   49.8532   35.1596   41.2994 H   0  0  0  0  0  0  0  0  0  0  0  0
   49.0794   36.7807   41.2994 H   0  0  0  0  0  0  0  0  0  0  0  0
  1  2  1  0
  2  3  2  0
  4  6  1  0
  4  3  1  0
  5  1  2  0
  5  4  1  0
  6 10  1  0
  7  6  2  0
  7  8  1  0
  8  9  1  0
  9 11  1  0
 10  9  2  0
 11 12  2  0
 12 13  1  0
 14 13  2  0
 15 14  1  0
 16 11  1  0
 16 15  2  0
 17  1  1  0
 18 19  2  0
 18 23  1  0
 19 20  1  0
 20 21  2  0
 20 17  1  0
 22 21  1  0
 23 22  2  0
 24 25  1  0
 24 18  1  0
  2 26  1  0
  3 27  1  0
  7 28  1  0
 12 29  1  0
 13 30  1  0
 14 31  1  0
 15 32  1  0
 16 33  1  0
 19 34  1  0
 22 35  1  0
 24 36  1  0
 24 37  1  0
 25 38  1  0
 25 39  1  0
 25 40  1  0
M  ISO  8  26  14  27  14  28  14  29  14  30  14  31  14  32  14  33  14
M  ISO  7  34  14  35  14  36   8  37   8  38   8  39   8  40   8
M  END
>  <minimizedAffinity>  (1) 
-5.26113939

>  <minimizedRMSD>  (1) 
1.48813903

$$$$
