
     RDKit          3D

 38 41  0  0  0  0  0  0  0  0999 V2000
   46.4290   30.6730   46.0980 C   0  0  0  0  0  0  0  0  0  0  0  0
   45.5770   31.1430   47.1080 C   0  0  0  0  0  0  0  0  0  0  0  0
   44.9840   30.0180   47.6390 C   0  0  0  0  0  0  0  0  0  0  0  0
   45.4450   28.9430   46.9940 N   0  0  0  0  0  0  0  0  0  0  0  0
   46.3180   29.3160   46.0610 N   0  0  0  0  0  0  0  0  0  0  0  0
   45.0140   27.6180   47.3210 C   0  0  0  0  0  0  0  0  0  0  0  0
   43.7920   26.9880   46.7480 C   0  0  0  0  0  0  0  0  0  0  0  0
   43.8630   25.3230   47.5950 S   0  0  0  0  0  0  0  0  0  0  0  0
   45.4510   25.7960   48.5050 C   0  0  0  0  0  0  0  0  0  0  0  0
   45.6860   26.8470   48.1700 N   0  0  0  0  0  0  0  0  0  0  0  0
   46.1180   24.8200   49.4500 C   0  0  0  0  0  0  0  0  0  0  0  0
   47.4200   24.4740   49.1540 C   0  0  0  0  0  0  0  0  0  0  0  0
   48.0030   23.5830   50.0300 C   0  0  0  0  0  0  0  0  0  0  0  0
   47.3190   23.1080   51.0840 N   0  0  0  0  0  0  0  0  0  0  0  0
   46.0480   23.4940   51.3060 C   0  0  0  0  0  0  0  0  0  0  0  0
   45.4080   24.3630   50.4930 N   0  0  0  0  0  0  0  0  0  0  0  0
   47.5610   31.3820   44.9280 S   0  0  0  0  0  0  0  0  0  0  0  0
   47.1710   34.7260   42.7120 C   0  0  0  0  0  0  0  0  0  0  0  0
   47.7400   33.5550   43.2550 C   0  0  0  0  0  0  0  0  0  0  0  0
   46.9700   32.8480   44.1790 C   0  0  0  0  0  0  0  0  0  0  0  0
   45.7380   33.3120   44.5000 N   0  0  0  0  0  0  0  0  0  0  0  0
   45.2380   34.4420   43.9500 C   0  0  0  0  0  0  0  0  0  0  0  0
   45.9480   35.1270   43.0730 N   0  0  0  0  0  0  0  0  0  0  0  0
   48.0760   35.3960   41.7420 C   0  0  0  0  0  0  0  0  0  0  0  0
   49.5110   35.2870   42.2220 C   0  0  0  0  0  0  0  0  0  0  0  0
   45.4162   32.1879   47.4119 H   0  0  0  0  0  0  0  0  0  0  0  0
   44.2513   30.0071   48.4594 H   0  0  0  0  0  0  0  0  0  0  0  0
   43.0586   27.3876   46.0322 H   0  0  0  0  0  0  0  0  0  0  0  0
   47.9545   24.8795   48.2823 H   0  0  0  0  0  0  0  0  0  0  0  0
   49.0404   23.2573   49.8638 H   0  0  0  0  0  0  0  0  0  0  0  0
   45.5134   23.0886   52.1777 H   0  0  0  0  0  0  0  0  0  0  0  0
   48.7446   33.2149   42.9633 H   0  0  0  0  0  0  0  0  0  0  0  0
   44.2348   34.7919   44.2349 H   0  0  0  0  0  0  0  0  0  0  0  0
   47.7988   36.4570   41.6560 H   0  0  0  0  0  0  0  0  0  0  0  0
   47.9824   34.9090   40.7601 H   0  0  0  0  0  0  0  0  0  0  0  0
   49.5306   35.2855   43.3218 H   0  0  0  0  0  0  0  0  0  0  0  0
   49.9534   34.3527   41.8461 H   0  0  0  0  0  0  0  0  0  0  0  0
   50.0895   36.1438   41.8461 H   0  0  0  0  0  0  0  0  0  0  0  0
  1  2  1  0
  2  3  2  0
  4  6  1  0
  4  3  1  0
  5  1  2  0
  5  4  1  0
  6 10  1  0
  7  6  2  0
  7  8  1  0
  8  9  1  0
  9 11  1  0
 10  9  2  0
 11 16  1  0
 12 11  2  0
 12 13  1  0
 13 14  2  0
 14 15  1  0
 16 15  2  0
 17  1  1  0
 18 23  2  0
 18 19  1  0
 19 20  2  0
 20 21  1  0
 20 17  1  0
 22 21  2  0
 23 22  1  0
 24 25  1  0
 24 18  1  0
  2 26  1  0
  3 27  1  0
  7 28  1  0
 12 29  1  0
 13 30  1  0
 15 31  1  0
 19 32  1  0
 22 33  1  0
 24 34  1  0
 24 35  1  0
 25 36  1  0
 25 37  1  0
 25 38  1  0
M  ISO  8  26  14  27  14  28  14  29  14  30  14  31  14  32  14  33  14
M  ISO  5  34   8  35   8  36   8  37   8  38   8
M  END
>  <minimizedAffinity>  (1) 
-5.24929142

>  <minimizedRMSD>  (1) 
1.36228275

$$$$
