
     RDKit          3D

 45 48  0  0  0  0  0  0  0  0999 V2000
   46.4390   31.6170   46.7490 C   0  0  0  0  0  0  0  0  0  0  0  0
   45.8530   32.7800   47.2630 C   0  0  0  0  0  0  0  0  0  0  0  0
   45.5440   33.5460   46.1620 C   0  0  0  0  0  0  0  0  0  0  0  0
   45.9180   32.8960   45.0550 N   0  0  0  0  0  0  0  0  0  0  0  0
   46.4610   31.7270   45.3870 N   0  0  0  0  0  0  0  0  0  0  0  0
   45.7250   33.4340   43.7430 C   0  0  0  0  0  0  0  0  0  0  0  0
   46.8050   34.0430   42.9370 C   0  0  0  0  0  0  0  0  0  0  0  0
   45.8530   34.4950   41.3980 S   0  0  0  0  0  0  0  0  0  0  0  0
   44.2440   33.7950   42.1310 C   0  0  0  0  0  0  0  0  0  0  0  0
   44.5340   33.4150   43.1520 N   0  0  0  0  0  0  0  0  0  0  0  0
   43.0530   33.8680   41.3310 N   0  0  0  0  0  0  0  0  0  0  0  0
   42.1140   32.7450   41.1750 C   0  0  0  0  0  0  0  0  0  0  0  0
   40.7450   33.3040   40.7920 C   0  0  0  0  0  0  0  0  0  0  0  0
   40.4860   34.5620   41.5840 C   0  0  0  0  0  0  0  0  0  0  0  0
   41.4760   35.6470   41.3380 C   0  0  0  0  0  0  0  0  0  0  0  0
   42.6580   35.0570   40.5990 C   0  0  0  0  0  0  0  0  0  0  0  0
   47.1190   30.1070   47.4030 S   0  0  0  0  0  0  0  0  0  0  0  0
   50.2840   29.6110   49.8460 C   0  0  0  0  0  0  0  0  0  0  0  0
   49.2190   29.3110   48.9890 C   0  0  0  0  0  0  0  0  0  0  0  0
   48.4730   30.3630   48.4820 C   0  0  0  0  0  0  0  0  0  0  0  0
   48.8120   31.6250   48.8420 N   0  0  0  0  0  0  0  0  0  0  0  0
   49.8510   31.8700   49.6750 C   0  0  0  0  0  0  0  0  0  0  0  0
   50.5650   30.8830   50.1610 N   0  0  0  0  0  0  0  0  0  0  0  0
   51.0010   28.3940   50.3180 C   0  0  0  0  0  0  0  0  0  0  0  0
   50.3210   27.1570   49.8220 C   0  0  0  0  0  0  0  0  0  0  0  0
   45.6772   33.0283   48.3201 H   0  0  0  0  0  0  0  0  0  0  0  0
   45.0653   34.5360   46.1886 H   0  0  0  0  0  0  0  0  0  0  0  0
   47.8686   34.1883   43.1771 H   0  0  0  0  0  0  0  0  0  0  0  0
   42.4726   32.0691   40.3847 H   0  0  0  0  0  0  0  0  0  0  0  0
   42.0401   32.1832   42.1178 H   0  0  0  0  0  0  0  0  0  0  0  0
   40.7295   33.5359   39.7168 H   0  0  0  0  0  0  0  0  0  0  0  0
   39.9658   32.5598   41.0133 H   0  0  0  0  0  0  0  0  0  0  0  0
   39.4871   34.9384   41.3185 H   0  0  0  0  0  0  0  0  0  0  0  0
   40.5678   34.2914   42.6471 H   0  0  0  0  0  0  0  0  0  0  0  0
   41.0154   36.4392   40.7296 H   0  0  0  0  0  0  0  0  0  0  0  0
   41.8060   36.0811   42.2933 H   0  0  0  0  0  0  0  0  0  0  0  0
   43.4874   35.7790   40.5718 H   0  0  0  0  0  0  0  0  0  0  0  0
   42.3944   34.8134   39.5592 H   0  0  0  0  0  0  0  0  0  0  0  0
   48.9809   28.2699   48.7254 H   0  0  0  0  0  0  0  0  0  0  0  0
   50.0986   32.9068   49.9467 H   0  0  0  0  0  0  0  0  0  0  0  0
   52.0343   28.4143   49.9414 H   0  0  0  0  0  0  0  0  0  0  0  0
   50.9971   28.3842   51.4179 H   0  0  0  0  0  0  0  0  0  0  0  0
   49.9887   26.5526   50.6789 H   0  0  0  0  0  0  0  0  0  0  0  0
   49.4501   27.4372   49.2112 H   0  0  0  0  0  0  0  0  0  0  0  0
   51.0242   26.5718   49.2112 H   0  0  0  0  0  0  0  0  0  0  0  0
  1  2  1  0
  1 17  1  0
  3  2  2  0
  4  5  1  0
  4  3  1  0
  5  1  2  0
  6  4  1  0
  7  6  2  0
  8  9  1  0
  8  7  1  0
  9 10  2  0
 10  6  1  0
 11  9  1  0
 12 11  1  0
 13 12  1  0
 13 14  1  0
 15 14  1  0
 16 11  1  0
 16 15  1  0
 17 20  1  0
 18 23  2  0
 18 24  1  0
 19 18  1  0
 20 21  1  0
 20 19  2  0
 21 22  2  0
 22 23  1  0
 25 24  1  0
  2 26  1  0
  3 27  1  0
  7 28  1  0
 12 29  1  0
 12 30  1  0
 13 31  1  0
 13 32  1  0
 14 33  1  0
 14 34  1  0
 15 35  1  0
 15 36  1  0
 16 37  1  0
 16 38  1  0
 19 39  1  0
 22 40  1  0
 24 41  1  0
 24 42  1  0
 25 43  1  0
 25 44  1  0
 25 45  1  0
M  ISO  8  26  14  27  14  28  14  29  13  30  13  31  13  32  13  33  13
M  ISO  8  34  13  35  13  36  13  37  13  38  13  39  14  40  14  41   8
M  ISO  4  42   8  43   8  44   8  45   8
M  END
>  <minimizedAffinity>  (1) 
-5.30271053

>  <minimizedRMSD>  (1) 
9.4192934

$$$$
