
     RDKit          3D

 31 33  0  0  0  0  0  0  0  0999 V2000
   47.4320   31.2740   44.9130 S   0  0  0  0  0  0  0  0  0  0  0  0
   47.2210   34.6740   42.7590 C   0  0  0  0  0  0  0  0  0  0  0  0
   47.7200   33.4780   43.2900 C   0  0  0  0  0  0  0  0  0  0  0  0
   46.9300   32.7800   44.1780 C   0  0  0  0  0  0  0  0  0  0  0  0
   45.7120   33.2830   44.4940 N   0  0  0  0  0  0  0  0  0  0  0  0
   45.2490   34.4440   43.9670 C   0  0  0  0  0  0  0  0  0  0  0  0
   46.0000   35.1200   43.1160 N   0  0  0  0  0  0  0  0  0  0  0  0
   48.1770   35.3200   41.8170 C   0  0  0  0  0  0  0  0  0  0  0  0
   49.5970   35.1640   42.3260 C   0  0  0  0  0  0  0  0  0  0  0  0
   46.3410   30.6630   46.1540 C   0  0  0  0  0  0  0  0  0  0  0  0
   45.7320   31.1810   47.3110 C   0  0  0  0  0  0  0  0  0  0  0  0
   44.9880   30.1330   47.8450 C   0  0  0  0  0  0  0  0  0  0  0  0
   45.1550   29.0580   47.0360 N   0  0  0  0  0  0  0  0  0  0  0  0
   45.9540   29.3630   46.0350 N   0  0  0  0  0  0  0  0  0  0  0  0
   44.5140   27.8160   47.3170 C   0  0  0  0  0  0  0  0  0  0  0  0
   43.6510   27.0980   46.3560 C   0  0  0  0  0  0  0  0  0  0  0  0
   43.1740   25.6030   47.3750 S   0  0  0  0  0  0  0  0  0  0  0  0
   44.2010   26.2230   48.8410 C   0  0  0  0  0  0  0  0  0  0  0  0
   44.6430   27.1950   48.4810 N   0  0  0  0  0  0  0  0  0  0  0  0
   44.3110   25.5070   50.0940 O   0  0  0  0  0  0  0  0  0  0  0  0
   48.7154   33.1058   43.0061 H   0  0  0  0  0  0  0  0  0  0  0  0
   44.2540   34.8204   44.2466 H   0  0  0  0  0  0  0  0  0  0  0  0
   47.9367   36.3900   41.7318 H   0  0  0  0  0  0  0  0  0  0  0  0
   48.0929   34.8376   40.8320 H   0  0  0  0  0  0  0  0  0  0  0  0
   49.5943   35.1643   43.4260 H   0  0  0  0  0  0  0  0  0  0  0  0
   50.0153   34.2145   41.9606 H   0  0  0  0  0  0  0  0  0  0  0  0
   50.2114   36.0000   41.9606 H   0  0  0  0  0  0  0  0  0  0  0  0
   45.8244   32.2017   47.7106 H   0  0  0  0  0  0  0  0  0  0  0  0
   44.3755   30.1702   48.7579 H   0  0  0  0  0  0  0  0  0  0  0  0
   43.3679   27.3675   45.3278 H   0  0  0  0  0  0  0  0  0  0  0  0
   44.8620   25.8767   50.8287 H   0  0  0  0  0  0  0  0  0  0  0  0
  1 10  1  0
  2  7  2  0
  2  3  1  0
  3  4  2  0
  4  5  1  0
  4  1  1  0
  6  5  2  0
  7  6  1  0
  8  9  1  0
  8  2  1  0
 10 11  1  0
 11 12  2  0
 13 15  1  0
 13 12  1  0
 14 10  2  0
 14 13  1  0
 15 19  1  0
 16 15  2  0
 16 17  1  0
 17 18  1  0
 18 20  1  0
 19 18  2  0
  3 21  1  0
  6 22  1  0
  8 23  1  0
  8 24  1  0
  9 25  1  0
  9 26  1  0
  9 27  1  0
 11 28  1  0
 12 29  1  0
 16 30  1  0
 20 31  1  0
M  ISO  8  21  14  22  14  23   8  24   8  25   8  26   8  27   8  28  14
M  ISO  3  29  14  30  14  31   3
M  END
>  <minimizedAffinity>  (1) 
-4.96921158

>  <minimizedRMSD>  (1) 
0.0515562594

$$$$
