
     RDKit          3D

 36 39  0  0  0  0  0  0  0  0999 V2000
   46.4330   30.6630   46.1670 C   0  0  0  0  0  0  0  0  0  0  0  0
   45.5640   31.1250   47.1910 C   0  0  0  0  0  0  0  0  0  0  0  0
   44.9820   29.9810   47.6810 C   0  0  0  0  0  0  0  0  0  0  0  0
   45.4440   28.9140   47.0270 N   0  0  0  0  0  0  0  0  0  0  0  0
   46.3240   29.3080   46.1060 N   0  0  0  0  0  0  0  0  0  0  0  0
   45.0210   27.5800   47.3290 C   0  0  0  0  0  0  0  0  0  0  0  0
   43.7970   26.9680   46.7750 C   0  0  0  0  0  0  0  0  0  0  0  0
   43.9040   25.2790   47.5570 S   0  0  0  0  0  0  0  0  0  0  0  0
   45.5140   25.7240   48.4370 C   0  0  0  0  0  0  0  0  0  0  0  0
   45.7240   26.7900   48.1270 N   0  0  0  0  0  0  0  0  0  0  0  0
   46.1350   24.6520   49.3000 C   0  0  0  0  0  0  0  0  0  0  0  0
   47.2490   24.0000   48.9360 C   0  0  0  0  0  0  0  0  0  0  0  0
   47.5220   22.8150   50.3890 S   0  0  0  0  0  0  0  0  0  0  0  0
   45.9610   23.5290   51.2010 C   0  0  0  0  0  0  0  0  0  0  0  0
   45.5870   24.3280   50.4500 N   0  0  0  0  0  0  0  0  0  0  0  0
   47.5680   31.3970   45.0170 S   0  0  0  0  0  0  0  0  0  0  0  0
   47.1230   34.7210   42.7750 C   0  0  0  0  0  0  0  0  0  0  0  0
   47.6710   33.5570   43.3110 C   0  0  0  0  0  0  0  0  0  0  0  0
   46.9710   32.8640   44.2790 C   0  0  0  0  0  0  0  0  0  0  0  0
   45.7680   33.3650   44.6580 N   0  0  0  0  0  0  0  0  0  0  0  0
   45.2600   34.5010   44.1170 C   0  0  0  0  0  0  0  0  0  0  0  0
   45.9320   35.1520   43.2000 N   0  0  0  0  0  0  0  0  0  0  0  0
   47.9950   35.3550   41.7480 C   0  0  0  0  0  0  0  0  0  0  0  0
   49.4480   35.2670   42.1780 C   0  0  0  0  0  0  0  0  0  0  0  0
   45.3954   32.1619   47.5172 H   0  0  0  0  0  0  0  0  0  0  0  0
   44.2423   29.9494   48.4946 H   0  0  0  0  0  0  0  0  0  0  0  0
   43.0399   27.3877   46.0963 H   0  0  0  0  0  0  0  0  0  0  0  0
   47.8520   24.1223   48.0241 H   0  0  0  0  0  0  0  0  0  0  0  0
   45.5134   23.2478   52.1656 H   0  0  0  0  0  0  0  0  0  0  0  0
   48.6507   33.1941   42.9667 H   0  0  0  0  0  0  0  0  0  0  0  0
   44.2809   34.8764   44.4494 H   0  0  0  0  0  0  0  0  0  0  0  0
   47.7125   36.4117   41.6317 H   0  0  0  0  0  0  0  0  0  0  0  0
   47.8683   34.8285   40.7905 H   0  0  0  0  0  0  0  0  0  0  0  0
   49.5057   35.2635   43.2765 H   0  0  0  0  0  0  0  0  0  0  0  0
   49.8913   34.3404   41.7846 H   0  0  0  0  0  0  0  0  0  0  0  0
   49.9999   36.1334   41.7846 H   0  0  0  0  0  0  0  0  0  0  0  0
  1  2  1  0
  2  3  2  0
  4  6  1  0
  4  3  1  0
  5  1  2  0
  5  4  1  0
  6 10  1  0
  7  6  2  0
  7  8  1  0
  8  9  1  0
  9 11  1  0
 10  9  2  0
 11 15  1  0
 12 11  2  0
 12 13  1  0
 13 14  1  0
 15 14  2  0
 16  1  1  0
 17 22  2  0
 17 18  1  0
 18 19  2  0
 19 20  1  0
 19 16  1  0
 21 20  2  0
 22 21  1  0
 23 24  1  0
 23 17  1  0
  2 25  1  0
  3 26  1  0
  7 27  1  0
 12 28  1  0
 14 29  1  0
 18 30  1  0
 21 31  1  0
 23 32  1  0
 23 33  1  0
 24 34  1  0
 24 35  1  0
 24 36  1  0
M  ISO  8  25  14  26  14  27  14  28  14  29  14  30  14  31  14  32   8
M  ISO  4  33   8  34   8  35   8  36   8
M  END
>  <minimizedAffinity>  (1) 
-5.09264565

>  <minimizedRMSD>  (1) 
1.29813981

$$$$
