
     RDKit          3D

 43 46  0  0  0  0  0  0  0  0999 V2000
   46.3710   30.6990   46.3030 C   0  0  0  0  0  0  0  0  0  0  0  0
   45.5510   31.0900   47.3670 C   0  0  0  0  0  0  0  0  0  0  0  0
   44.8900   29.9400   47.7540 C   0  0  0  0  0  0  0  0  0  0  0  0
   45.2820   28.9250   46.9780 N   0  0  0  0  0  0  0  0  0  0  0  0
   46.1760   29.3650   46.0950 N   0  0  0  0  0  0  0  0  0  0  0  0
   44.7750   27.5980   47.1360 C   0  0  0  0  0  0  0  0  0  0  0  0
   43.4800   27.1420   46.5740 C   0  0  0  0  0  0  0  0  0  0  0  0
   43.4980   25.3630   47.1570 S   0  0  0  0  0  0  0  0  0  0  0  0
   45.1840   25.5960   48.0070 C   0  0  0  0  0  0  0  0  0  0  0  0
   45.4520   26.6720   47.8070 N   0  0  0  0  0  0  0  0  0  0  0  0
   45.6230   24.3980   48.6360 N   0  0  0  0  0  0  0  0  0  0  0  0
   45.8960   24.2590   50.0550 C   0  0  0  0  0  0  0  0  0  0  0  0
   47.3710   23.8940   50.1640 C   0  0  0  0  0  0  0  0  0  0  0  0
   47.8710   23.4470   48.9620 O   0  0  0  0  0  0  0  0  0  0  0  0
   47.0550   22.5690   48.2730 C   0  0  0  0  0  0  0  0  0  0  0  0
   45.7930   23.2680   47.7450 C   0  0  0  0  0  0  0  0  0  0  0  0
   47.5490   31.4780   45.2200 S   0  0  0  0  0  0  0  0  0  0  0  0
   47.0620   34.7010   42.8520 C   0  0  0  0  0  0  0  0  0  0  0  0
   47.6350   33.5470   43.4140 C   0  0  0  0  0  0  0  0  0  0  0  0
   46.9320   32.9190   44.4390 C   0  0  0  0  0  0  0  0  0  0  0  0
   45.7480   33.4410   44.8410 N   0  0  0  0  0  0  0  0  0  0  0  0
   45.2420   34.5570   44.2640 C   0  0  0  0  0  0  0  0  0  0  0  0
   45.8830   35.1660   43.2970 N   0  0  0  0  0  0  0  0  0  0  0  0
   47.9060   35.2770   41.7690 C   0  0  0  0  0  0  0  0  0  0  0  0
   49.3540   35.2260   42.1510 C   0  0  0  0  0  0  0  0  0  0  0  0
   45.4535   32.0958   47.8016 H   0  0  0  0  0  0  0  0  0  0  0  0
   44.1571   29.8709   48.5714 H   0  0  0  0  0  0  0  0  0  0  0  0
   42.7285   27.6894   45.9862 H   0  0  0  0  0  0  0  0  0  0  0  0
   45.6969   25.2064   50.5773 H   0  0  0  0  0  0  0  0  0  0  0  0
   45.2557   23.4923   50.5157 H   0  0  0  0  0  0  0  0  0  0  0  0
   47.9369   24.7835   50.4777 H   0  0  0  0  0  0  0  0  0  0  0  0
   47.4722   23.0845   50.9019 H   0  0  0  0  0  0  0  0  0  0  0  0
   47.6153   22.1531   47.4226 H   0  0  0  0  0  0  0  0  0  0  0  0
   46.7439   21.7724   48.9649 H   0  0  0  0  0  0  0  0  0  0  0  0
   45.9371   23.6053   46.7080 H   0  0  0  0  0  0  0  0  0  0  0  0
   44.9157   22.6047   47.7284 H   0  0  0  0  0  0  0  0  0  0  0  0
   48.5997   33.1558   43.0585 H   0  0  0  0  0  0  0  0  0  0  0  0
   44.2787   34.9580   44.6123 H   0  0  0  0  0  0  0  0  0  0  0  0
   47.6128   36.3235   41.5990 H   0  0  0  0  0  0  0  0  0  0  0  0
   47.7586   34.6888   40.8512 H   0  0  0  0  0  0  0  0  0  0  0  0
   49.4441   35.2228   43.2473 H   0  0  0  0  0  0  0  0  0  0  0  0
   49.8088   34.3113   41.7431 H   0  0  0  0  0  0  0  0  0  0  0  0
   49.8721   36.1065   41.7431 H   0  0  0  0  0  0  0  0  0  0  0  0
  1  2  1  0
  2  3  2  0
  4  6  1  0
  4  3  1  0
  5  1  2  0
  5  4  1  0
  6 10  1  0
  7  6  2  0
  7  8  1  0
  8  9  1  0
  9 11  1  0
 10  9  2  0
 11 12  1  0
 12 13  1  0
 14 13  1  0
 15 14  1  0
 16 15  1  0
 16 11  1  0
 17  1  1  0
 18 23  2  0
 18 19  1  0
 19 20  2  0
 20 21  1  0
 20 17  1  0
 22 21  2  0
 23 22  1  0
 24 25  1  0
 24 18  1  0
  2 26  1  0
  3 27  1  0
  7 28  1  0
 12 29  1  0
 12 30  1  0
 13 31  1  0
 13 32  1  0
 15 33  1  0
 15 34  1  0
 16 35  1  0
 16 36  1  0
 19 37  1  0
 22 38  1  0
 24 39  1  0
 24 40  1  0
 25 41  1  0
 25 42  1  0
 25 43  1  0
M  ISO  8  26  14  27  14  28  14  29  13  30  13  31  13  32  13  33  13
M  ISO  8  34  13  35  13  36  13  37  14  38  14  39   8  40   8  41   8
M  ISO  2  42   8  43   8
M  END
>  <minimizedAffinity>  (1) 
-5.07737017

>  <minimizedRMSD>  (1) 
1.53302968

$$$$
