
     RDKit          3D

 42 44  0  0  0  0  0  0  0  0999 V2000
   46.4290   30.7100   46.1190 C   0  0  0  0  0  0  0  0  0  0  0  0
   45.5930   31.1630   47.1470 C   0  0  0  0  0  0  0  0  0  0  0  0
   44.9740   30.0300   47.6340 C   0  0  0  0  0  0  0  0  0  0  0  0
   45.4060   28.9680   46.9470 N   0  0  0  0  0  0  0  0  0  0  0  0
   46.2850   29.3550   46.0260 N   0  0  0  0  0  0  0  0  0  0  0  0
   44.9450   27.6410   47.2220 C   0  0  0  0  0  0  0  0  0  0  0  0
   43.6600   27.0970   46.7190 C   0  0  0  0  0  0  0  0  0  0  0  0
   43.7210   25.3800   47.4360 S   0  0  0  0  0  0  0  0  0  0  0  0
   45.4200   25.7280   48.2480 C   0  0  0  0  0  0  0  0  0  0  0  0
   45.6580   26.7920   47.9570 N   0  0  0  0  0  0  0  0  0  0  0  0
   46.0840   24.6430   49.0500 C   0  0  0  0  0  0  0  0  0  0  0  0
   45.4780   24.5860   50.4360 C   0  0  0  0  0  0  0  0  0  0  0  0
   45.8010   23.3510   48.3120 C   0  0  0  0  0  0  0  0  0  0  0  0
   47.5860   24.8830   49.1390 C   0  0  0  0  0  0  0  0  0  0  0  0
   47.5790   31.4330   44.9700 S   0  0  0  0  0  0  0  0  0  0  0  0
   47.1730   34.7370   42.7000 C   0  0  0  0  0  0  0  0  0  0  0  0
   47.7450   33.5760   43.2690 C   0  0  0  0  0  0  0  0  0  0  0  0
   46.9790   32.8820   44.1920 C   0  0  0  0  0  0  0  0  0  0  0  0
   45.7400   33.3370   44.5030 N   0  0  0  0  0  0  0  0  0  0  0  0
   45.2320   34.4540   43.9320 C   0  0  0  0  0  0  0  0  0  0  0  0
   45.9370   35.1330   43.0520 N   0  0  0  0  0  0  0  0  0  0  0  0
   48.0930   35.3940   41.7270 C   0  0  0  0  0  0  0  0  0  0  0  0
   49.5220   35.3000   42.2140 C   0  0  0  0  0  0  0  0  0  0  0  0
   45.4587   32.1988   47.4920 H   0  0  0  0  0  0  0  0  0  0  0  0
   44.2428   30.0049   48.4554 H   0  0  0  0  0  0  0  0  0  0  0  0
   42.8881   27.5740   46.0972 H   0  0  0  0  0  0  0  0  0  0  0  0
   46.2766   24.6611   51.1887 H   0  0  0  0  0  0  0  0  0  0  0  0
   44.7744   25.4219   50.5632 H   0  0  0  0  0  0  0  0  0  0  0  0
   44.9426   23.6335   50.5632 H   0  0  0  0  0  0  0  0  0  0  0  0
   45.6244   22.5446   49.0390 H   0  0  0  0  0  0  0  0  0  0  0  0
   44.9092   23.4772   47.6805 H   0  0  0  0  0  0  0  0  0  0  0  0
   46.6639   23.0929   47.6805 H   0  0  0  0  0  0  0  0  0  0  0  0
   47.8876   24.9312   50.1957 H   0  0  0  0  0  0  0  0  0  0  0  0
   48.1191   24.0586   48.6428 H   0  0  0  0  0  0  0  0  0  0  0  0
   47.8357   25.8324   48.6428 H   0  0  0  0  0  0  0  0  0  0  0  0
   48.7543   33.2382   42.9911 H   0  0  0  0  0  0  0  0  0  0  0  0
   44.2231   34.7967   44.2052 H   0  0  0  0  0  0  0  0  0  0  0  0
   47.8141   36.4528   41.6212 H   0  0  0  0  0  0  0  0  0  0  0  0
   48.0107   34.8851   40.7553 H   0  0  0  0  0  0  0  0  0  0  0  0
   49.5352   35.2991   43.3139 H   0  0  0  0  0  0  0  0  0  0  0  0
   49.9760   34.3700   41.8411 H   0  0  0  0  0  0  0  0  0  0  0  0
   50.0939   36.1625   41.8411 H   0  0  0  0  0  0  0  0  0  0  0  0
  1  2  1  0
  2  3  2  0
  4  6  1  0
  4  3  1  0
  5  1  2  0
  5  4  1  0
  6 10  1  0
  7  6  2  0
  7  8  1  0
  8  9  1  0
  9 11  1  0
 10  9  2  0
 11 14  1  0
 11 12  1  0
 13 11  1  0
 15  1  1  0
 16 21  2  0
 16 17  1  0
 17 18  2  0
 18 19  1  0
 18 15  1  0
 20 19  2  0
 21 20  1  0
 22 23  1  0
 22 16  1  0
  2 24  1  0
  3 25  1  0
  7 26  1  0
 12 27  1  0
 12 28  1  0
 12 29  1  0
 13 30  1  0
 13 31  1  0
 13 32  1  0
 14 33  1  0
 14 34  1  0
 14 35  1  0
 17 36  1  0
 20 37  1  0
 22 38  1  0
 22 39  1  0
 23 40  1  0
 23 41  1  0
 23 42  1  0
M  ISO  8  24  14  25  14  26  14  27   8  28   8  29   8  30   8  31   8
M  ISO  8  32   8  33   8  34   8  35   8  36  14  37  14  38   8  39   8
M  ISO  3  40   8  41   8  42   8
M  END
>  <minimizedAffinity>  (1) 
-4.7454052

>  <minimizedRMSD>  (1) 
1.11067641

$$$$
