
     RDKit          3D

 37 40  0  0  0  0  0  0  0  0999 V2000
   47.5140   31.3830   44.9270 S   0  0  0  0  0  0  0  0  0  0  0  0
   47.2070   34.7280   42.6990 C   0  0  0  0  0  0  0  0  0  0  0  0
   47.7260   33.5650   43.2660 C   0  0  0  0  0  0  0  0  0  0  0  0
   46.9510   32.8510   44.1630 C   0  0  0  0  0  0  0  0  0  0  0  0
   45.7030   33.3220   44.4520 N   0  0  0  0  0  0  0  0  0  0  0  0
   45.2380   34.4530   43.8810 C   0  0  0  0  0  0  0  0  0  0  0  0
   45.9760   35.1360   43.0240 N   0  0  0  0  0  0  0  0  0  0  0  0
   48.1360   35.3950   41.7590 C   0  0  0  0  0  0  0  0  0  0  0  0
   49.5610   35.2450   42.2390 C   0  0  0  0  0  0  0  0  0  0  0  0
   46.3840   30.7020   46.1040 C   0  0  0  0  0  0  0  0  0  0  0  0
   45.6340   31.1970   47.1970 C   0  0  0  0  0  0  0  0  0  0  0  0
   44.9530   30.1020   47.6890 C   0  0  0  0  0  0  0  0  0  0  0  0
   45.2670   29.0310   46.9520 N   0  0  0  0  0  0  0  0  0  0  0  0
   46.1260   29.3660   45.9930 N   0  0  0  0  0  0  0  0  0  0  0  0
   44.7180   27.7350   47.2220 C   0  0  0  0  0  0  0  0  0  0  0  0
   43.5410   27.1800   46.4930 C   0  0  0  0  0  0  0  0  0  0  0  0
   43.3940   25.5200   47.3240 S   0  0  0  0  0  0  0  0  0  0  0  0
   44.8940   25.8940   48.4510 C   0  0  0  0  0  0  0  0  0  0  0  0
   45.2280   26.9280   48.1480 N   0  0  0  0  0  0  0  0  0  0  0  0
   45.4470   24.9170   49.5130 C   0  0  0  0  0  0  0  0  0  0  0  0
   46.9080   24.6840   49.4570 C   0  0  0  0  0  0  0  0  0  0  0  0
   45.9170   23.5980   49.0370 C   0  0  0  0  0  0  0  0  0  0  0  0
   48.7371   33.2198   43.0041 H   0  0  0  0  0  0  0  0  0  0  0  0
   44.2291   34.8117   44.1330 H   0  0  0  0  0  0  0  0  0  0  0  0
   47.8843   36.4640   41.6965 H   0  0  0  0  0  0  0  0  0  0  0  0
   48.0402   34.9280   40.7677 H   0  0  0  0  0  0  0  0  0  0  0  0
   49.5791   35.2431   43.3388 H   0  0  0  0  0  0  0  0  0  0  0  0
   49.9766   34.2982   41.8638 H   0  0  0  0  0  0  0  0  0  0  0  0
   50.1646   36.0846   41.8638 H   0  0  0  0  0  0  0  0  0  0  0  0
   45.6009   32.2302   47.5730 H   0  0  0  0  0  0  0  0  0  0  0  0
   44.2646   30.1090   48.5469 H   0  0  0  0  0  0  0  0  0  0  0  0
   42.9325   27.6250   45.6919 H   0  0  0  0  0  0  0  0  0  0  0  0
   44.7394   25.2287   50.2954 H   0  0  0  0  0  0  0  0  0  0  0  0
   47.5212   25.1958   48.7007 H   0  0  0  0  0  0  0  0  0  0  0  0
   47.7413   24.7518   50.1719 H   0  0  0  0  0  0  0  0  0  0  0  0
   45.8137   23.3239   47.9767 H   0  0  0  0  0  0  0  0  0  0  0  0
   45.7341   22.5512   49.3212 H   0  0  0  0  0  0  0  0  0  0  0  0
  1 10  1  0
  2  7  2  0
  2  3  1  0
  3  4  2  0
  4  5  1  0
  4  1  1  0
  6  5  2  0
  7  6  1  0
  8  9  1  0
  8  2  1  0
 10 11  1  0
 11 12  2  0
 13 15  1  0
 13 12  1  0
 14 10  2  0
 14 13  1  0
 15 19  1  0
 16 15  2  0
 16 17  1  0
 17 18  1  0
 18 20  1  0
 19 18  2  0
 21 20  1  0
 22 21  1  0
 22 20  1  0
  3 23  1  0
  6 24  1  0
  8 25  1  0
  8 26  1  0
  9 27  1  0
  9 28  1  0
  9 29  1  0
 11 30  1  0
 12 31  1  0
 16 32  1  0
 20 33  1  0
 21 34  1  0
 21 35  1  0
 22 36  1  0
 22 37  1  0
M  ISO  8  23  14  24  14  25   8  26   8  27   8  28   8  29   8  30  14
M  ISO  7  31  14  32  14  33  13  34  13  35  13  36  13  37  13
M  END
>  <minimizedAffinity>  (1) 
-4.73626661

>  <minimizedRMSD>  (1) 
0.716081917

$$$$
