
     RDKit          3D

 46 49  0  0  0  0  0  0  0  0999 V2000
   46.3590   30.6860   46.0930 C   0  0  0  0  0  0  0  0  0  0  0  0
   45.6360   31.0910   47.2270 C   0  0  0  0  0  0  0  0  0  0  0  0
   44.8990   29.9830   47.5930 C   0  0  0  0  0  0  0  0  0  0  0  0
   45.1580   28.9860   46.7430 N   0  0  0  0  0  0  0  0  0  0  0  0
   46.0360   29.3860   45.8280 N   0  0  0  0  0  0  0  0  0  0  0  0
   44.5370   27.7040   46.8730 C   0  0  0  0  0  0  0  0  0  0  0  0
   43.2460   27.3480   46.2180 C   0  0  0  0  0  0  0  0  0  0  0  0
   43.0660   25.5820   46.8120 S   0  0  0  0  0  0  0  0  0  0  0  0
   44.7060   25.6830   47.7850 C   0  0  0  0  0  0  0  0  0  0  0  0
   45.0790   26.7300   47.5980 N   0  0  0  0  0  0  0  0  0  0  0  0
   45.2240   24.4950   48.5810 C   0  0  0  0  0  0  0  0  0  0  0  0
   45.5470   23.3570   47.6510 C   0  0  0  0  0  0  0  0  0  0  0  0
   47.0010   23.2290   47.3140 C   0  0  0  0  0  0  0  0  0  0  0  0
   47.9080   23.1940   48.5030 C   0  0  0  0  0  0  0  0  0  0  0  0
   47.4380   23.9760   49.6810 C   0  0  0  0  0  0  0  0  0  0  0  0
   46.3840   24.9870   49.3830 C   0  0  0  0  0  0  0  0  0  0  0  0
   47.5390   31.4170   44.9800 S   0  0  0  0  0  0  0  0  0  0  0  0
   47.1780   34.7280   42.7100 C   0  0  0  0  0  0  0  0  0  0  0  0
   47.7220   33.5710   43.2790 C   0  0  0  0  0  0  0  0  0  0  0  0
   46.9570   32.8740   44.2060 C   0  0  0  0  0  0  0  0  0  0  0  0
   45.7250   33.3480   44.5120 N   0  0  0  0  0  0  0  0  0  0  0  0
   45.2400   34.4740   43.9360 C   0  0  0  0  0  0  0  0  0  0  0  0
   45.9520   35.1400   43.0600 N   0  0  0  0  0  0  0  0  0  0  0  0
   48.1030   35.3700   41.7380 C   0  0  0  0  0  0  0  0  0  0  0  0
   49.5210   35.2790   42.2320 C   0  0  0  0  0  0  0  0  0  0  0  0
   45.6534   32.0760   47.7164 H   0  0  0  0  0  0  0  0  0  0  0  0
   44.2088   29.9296   48.4479 H   0  0  0  0  0  0  0  0  0  0  0  0
   42.5891   27.9493   45.5723 H   0  0  0  0  0  0  0  0  0  0  0  0
   44.4754   24.0875   49.2764 H   0  0  0  0  0  0  0  0  0  0  0  0
   45.2199   22.4204   48.1263 H   0  0  0  0  0  0  0  0  0  0  0  0
   45.0221   23.5637   46.7067 H   0  0  0  0  0  0  0  0  0  0  0  0
   47.1422   22.2979   46.7456 H   0  0  0  0  0  0  0  0  0  0  0  0
   47.2710   24.1266   46.7383 H   0  0  0  0  0  0  0  0  0  0  0  0
   48.0216   22.1450   48.8139 H   0  0  0  0  0  0  0  0  0  0  0  0
   48.8509   23.6610   48.1823 H   0  0  0  0  0  0  0  0  0  0  0  0
   47.0343   23.2695   50.4212 H   0  0  0  0  0  0  0  0  0  0  0  0
   48.3102   24.5380   50.0462 H   0  0  0  0  0  0  0  0  0  0  0  0
   46.8540   25.8116   48.8270 H   0  0  0  0  0  0  0  0  0  0  0  0
   45.9702   25.2854   50.3575 H   0  0  0  0  0  0  0  0  0  0  0  0
   48.7275   33.2230   43.0000 H   0  0  0  0  0  0  0  0  0  0  0  0
   44.2364   34.8338   44.2067 H   0  0  0  0  0  0  0  0  0  0  0  0
   47.8271   36.4281   41.6184 H   0  0  0  0  0  0  0  0  0  0  0  0
   48.0256   34.8500   40.7717 H   0  0  0  0  0  0  0  0  0  0  0  0
   49.5268   35.2786   43.3320 H   0  0  0  0  0  0  0  0  0  0  0  0
   49.9790   34.3496   41.8626 H   0  0  0  0  0  0  0  0  0  0  0  0
   50.0941   36.1422   41.8626 H   0  0  0  0  0  0  0  0  0  0  0  0
  1  2  1  0
  2  3  2  0
  4  6  1  0
  4  3  1  0
  5  1  2  0
  5  4  1  0
  6 10  1  0
  7  8  1  0
  7  6  2  0
  8  9  1  0
  9 11  1  0
 10  9  2  0
 11 16  1  0
 12 11  1  0
 13 12  1  0
 13 14  1  0
 14 15  1  0
 16 15  1  0
 17  1  1  0
 18 23  2  0
 18 19  1  0
 19 20  2  0
 20 21  1  0
 20 17  1  0
 22 21  2  0
 23 22  1  0
 24 25  1  0
 24 18  1  0
  2 26  1  0
  3 27  1  0
  7 28  1  0
 11 29  1  0
 12 30  1  0
 12 31  1  0
 13 32  1  0
 13 33  1  0
 14 34  1  0
 14 35  1  0
 15 36  1  0
 15 37  1  0
 16 38  1  0
 16 39  1  0
 19 40  1  0
 22 41  1  0
 24 42  1  0
 24 43  1  0
 25 44  1  0
 25 45  1  0
 25 46  1  0
M  ISO  8  26  14  27  14  28  14  29  13  30  13  31  13  32  13  33  13
M  ISO  8  34  13  35  13  36  13  37  13  38  13  39  13  40  14  41  14
M  ISO  5  42   8  43   8  44   8  45   8  46   8
M  END
>  <minimizedAffinity>  (1) 
-4.81215239

>  <minimizedRMSD>  (1) 
1.41401005

$$$$
