
     RDKit          3D

 37 40  0  0  1  0  0  0  0  0999 V2000
   44.4240   34.7300   41.8850 C   0  0  2  0  0  0  0  0  0  0  0  0
   42.9020   34.7250   41.5900 C   0  0  0  0  0  0  0  0  0  0  0  0
   43.0260   35.0350   40.0800 C   0  0  1  0  0  0  0  0  0  0  0  0
   44.0320   33.9630   39.6940 C   0  0  0  0  0  0  0  0  0  0  0  0
   44.8980   33.7290   40.9290 C   0  0  0  0  0  0  0  0  0  0  0  0
   41.7520   34.8880   39.3840 C   0  0  0  0  0  0  0  0  0  0  0  0
   41.6570   35.5350   38.1890 N   0  0  0  0  0  0  0  0  0  0  0  0
   40.5370   35.4840   37.4500 C   0  0  0  0  0  0  0  0  0  0  0  0
   39.4580   34.7800   37.8740 N   0  0  0  0  0  0  0  0  0  0  0  0
   39.5110   34.1190   39.0620 C   0  0  0  0  0  0  0  0  0  0  0  0
   38.4150   33.3840   39.5260 C   0  0  0  0  0  0  0  0  0  0  0  0
   38.5280   32.7310   40.7420 C   0  0  0  0  0  0  0  0  0  0  0  0
   39.6870   32.7960   41.4870 C   0  0  0  0  0  0  0  0  0  0  0  0
   40.7650   33.5220   41.0260 C   0  0  0  0  0  0  0  0  0  0  0  0
   40.6690   34.1720   39.8280 C   0  0  0  0  0  0  0  0  0  0  0  0
   44.3580   35.5390   44.1890 C   0  0  0  0  0  0  0  0  0  0  0  0
   44.7350   34.4980   43.2950 C   0  0  0  0  0  0  0  0  0  0  0  0
   45.3940   33.3390   43.7930 C   0  0  0  0  0  0  0  0  0  0  0  0
   45.6270   33.3000   45.1270 N   0  0  0  0  0  0  0  0  0  0  0  0
   45.2620   34.3020   45.9730 C   0  0  0  0  0  0  0  0  0  0  0  0
   44.6310   35.4170   45.5110 N   0  0  0  0  0  0  0  0  0  0  0  0
   44.9321   35.6959   41.7475 H   0  0  0  0  0  0  0  0  0  0  0  0
   42.4348   33.7486   41.7859 H   0  0  0  0  0  0  0  0  0  0  0  0
   42.2734   35.3997   42.1898 H   0  0  0  0  0  0  0  0  0  0  0  0
   43.3239   36.0637   39.8291 H   0  0  0  0  0  0  0  0  0  0  0  0
   43.5120   33.0358   39.4114 H   0  0  0  0  0  0  0  0  0  0  0  0
   44.6391   34.2744   38.8312 H   0  0  0  0  0  0  0  0  0  0  0  0
   44.7523   32.7121   41.3224 H   0  0  0  0  0  0  0  0  0  0  0  0
   45.9735   33.8204   40.7169 H   0  0  0  0  0  0  0  0  0  0  0  0
   40.4941   36.0192   36.4899 H   0  0  0  0  0  0  0  0  0  0  0  0
   37.4862   33.3261   38.9394 H   0  0  0  0  0  0  0  0  0  0  0  0
   37.6757   32.1484   41.1216 H   0  0  0  0  0  0  0  0  0  0  0  0
   39.7515   32.2681   42.4499 H   0  0  0  0  0  0  0  0  0  0  0  0
   41.6917   33.5772   41.6161 H   0  0  0  0  0  0  0  0  0  0  0  0
   43.8483   36.4369   43.8096 H   0  0  0  0  0  0  0  0  0  0  0  0
   45.6986   32.5169   43.1287 H   0  0  0  0  0  0  0  0  0  0  0  0
   45.4802   34.2096   47.0472 H   0  0  0  0  0  0  0  0  0  0  0  0
  1 17  1  0
  2  1  1  0
  3  2  1  0
  4  3  1  0
  4  5  1  0
  5  1  1  0
  6 15  1  0
  6  3  1  0
  7  6  2  0
  8  9  2  0
  8  7  1  0
  9 10  1  0
 10 11  1  0
 10 15  2  0
 11 12  2  0
 12 13  1  0
 14 13  2  0
 15 14  1  0
 16 21  2  0
 17 18  2  0
 17 16  1  0
 18 19  1  0
 19 20  2  0
 21 20  1  0
  1 22  1  6
  2 23  1  0
  2 24  1  0
  3 25  1  1
  4 26  1  0
  4 27  1  0
  5 28  1  0
  5 29  1  0
  8 30  1  0
 11 31  1  0
 12 32  1  0
 13 33  1  0
 14 34  1  0
 16 35  1  0
 18 36  1  0
 20 37  1  0
M  ISO  8  22  13  23  13  24  13  25  13  26  13  27  13  28  13  29  13
M  ISO  8  30  14  31  14  32  14  33  14  34  14  35  14  36  14  37  14
M  END
>  <minimizedAffinity>  (1) 
-6.25152159

>  <minimizedRMSD>  (1) 
0.669205606

$$$$
