
     RDKit          3D

 36 38  0  0  1  0  0  0  0  0999 V2000
   44.3430   34.7910   41.7960 C   0  0  2  0  0  0  0  0  0  0  0  0
   42.8430   34.5440   41.4870 C   0  0  0  0  0  0  0  0  0  0  0  0
   42.9360   34.8580   39.9780 C   0  0  1  0  0  0  0  0  0  0  0  0
   44.0950   34.0150   39.5840 C   0  0  0  0  0  0  0  0  0  0  0  0
   44.9640   33.8860   40.8260 C   0  0  0  0  0  0  0  0  0  0  0  0
   41.7070   34.6320   39.2960 N   0  0  0  0  0  0  0  0  0  0  0  0
   40.7500   33.7970   39.7620 C   0  0  0  0  0  0  0  0  0  0  0  0
   39.5710   33.5740   39.1170 C   0  0  0  0  0  0  0  0  0  0  0  0
   38.6100   32.6220   39.7550 C   0  0  0  0  0  0  0  0  0  0  0  0
   39.3640   34.2470   37.9260 C   0  0  0  0  0  0  0  0  0  0  0  0
   38.2690   34.0310   37.3380 O   0  0  0  0  0  0  0  0  0  0  0  0
   40.3230   35.0710   37.4760 N   0  0  0  0  0  0  0  0  0  0  0  0
   41.4800   35.2740   38.1350 C   0  0  0  0  0  0  0  0  0  0  0  0
   42.2610   36.0670   37.5860 O   0  0  0  0  0  0  0  0  0  0  0  0
   44.3280   35.6120   44.1010 C   0  0  0  0  0  0  0  0  0  0  0  0
   44.6650   34.5780   43.2110 C   0  0  0  0  0  0  0  0  0  0  0  0
   45.3140   33.4070   43.7020 C   0  0  0  0  0  0  0  0  0  0  0  0
   45.5780   33.3530   45.0350 N   0  0  0  0  0  0  0  0  0  0  0  0
   45.2420   34.3690   45.8780 C   0  0  0  0  0  0  0  0  0  0  0  0
   44.6210   35.4900   45.4190 N   0  0  0  0  0  0  0  0  0  0  0  0
   44.7050   35.8233   41.6804 H   0  0  0  0  0  0  0  0  0  0  0  0
   42.5328   33.5078   41.6872 H   0  0  0  0  0  0  0  0  0  0  0  0
   42.1088   35.1149   42.0743 H   0  0  0  0  0  0  0  0  0  0  0  0
   43.0992   35.9131   39.7133 H   0  0  0  0  0  0  0  0  0  0  0  0
   43.7513   33.0236   39.2538 H   0  0  0  0  0  0  0  0  0  0  0  0
   44.6523   34.4631   38.7482 H   0  0  0  0  0  0  0  0  0  0  0  0
   44.9593   32.8513   41.1995 H   0  0  0  0  0  0  0  0  0  0  0  0
   46.0171   34.1367   40.6307 H   0  0  0  0  0  0  0  0  0  0  0  0
   40.9333   33.2711   40.7106 H   0  0  0  0  0  0  0  0  0  0  0  0
   38.6887   32.7000   40.8494 H   0  0  0  0  0  0  0  0  0  0  0  0
   37.5852   32.8710   39.4424 H   0  0  0  0  0  0  0  0  0  0  0  0
   38.8493   31.5949   39.4424 H   0  0  0  0  0  0  0  0  0  0  0  0
   40.1675   35.5697   36.5883 H   0  0  0  0  0  0  0  0  0  0  0  0
   43.8276   36.5183   43.7291 H   0  0  0  0  0  0  0  0  0  0  0  0
   45.5899   32.5810   43.0299 H   0  0  0  0  0  0  0  0  0  0  0  0
   45.4768   34.2819   46.9491 H   0  0  0  0  0  0  0  0  0  0  0  0
  1 16  1  0
  2  1  1  0
  3  2  1  0
  4  3  1  0
  4  5  1  0
  5  1  1  0
  6  7  1  0
  6  3  1  0
  8  9  1  0
  8  7  2  0
 10  8  1  0
 11 10  2  0
 12 10  1  0
 12 13  1  0
 13  6  1  0
 14 13  2  0
 15 20  2  0
 16 17  2  0
 16 15  1  0
 17 18  1  0
 18 19  2  0
 20 19  1  0
  1 21  1  6
  2 22  1  0
  2 23  1  0
  3 24  1  1
  4 25  1  0
  4 26  1  0
  5 27  1  0
  5 28  1  0
  7 29  1  0
  9 30  1  0
  9 31  1  0
  9 32  1  0
 12 33  1  0
 15 34  1  0
 17 35  1  0
 19 36  1  0
M  ISO  8  21  13  22  13  23  13  24  13  25  13  26  13  27  13  28  13
M  ISO  8  29  14  30   8  31   8  32   8  33   9  34  14  35  14  36  14
M  END
>  <minimizedAffinity>  (1) 
-5.83189678

>  <minimizedRMSD>  (1) 
1.01339483

$$$$
