
     RDKit          3D

 39 42  0  0  1  0  0  0  0  0999 V2000
   44.3480   34.6970   41.6760 C   0  0  2  0  0  0  0  0  0  0  0  0
   42.8330   34.6400   41.3520 C   0  0  0  0  0  0  0  0  0  0  0  0
   42.9960   34.8400   39.8250 C   0  0  1  0  0  0  0  0  0  0  0  0
   43.9790   33.7450   39.5420 C   0  0  0  0  0  0  0  0  0  0  0  0
   44.8540   33.6430   40.7930 C   0  0  0  0  0  0  0  0  0  0  0  0
   41.6820   34.7150   39.2250 C   0  0  0  0  0  0  0  0  0  0  0  0
   41.2410   35.2970   38.0580 C   0  0  0  0  0  0  0  0  0  0  0  0
   39.9980   35.1770   37.5060 C   0  0  0  0  0  0  0  0  0  0  0  0
   39.0580   34.3970   38.1640 C   0  0  0  0  0  0  0  0  0  0  0  0
   39.4410   33.7880   39.3400 C   0  0  0  0  0  0  0  0  0  0  0  0
   38.4550   33.0260   39.9370 C   0  0  0  0  0  0  0  0  0  0  0  0
   38.7390   32.3710   41.1180 C   0  0  0  0  0  0  0  0  0  0  0  0
   39.9930   32.4870   41.6810 C   0  0  0  0  0  0  0  0  0  0  0  0
   40.9220   33.2650   41.0260 C   0  0  0  0  0  0  0  0  0  0  0  0
   40.7170   33.9490   39.8450 C   0  0  0  0  0  0  0  0  0  0  0  0
   44.3080   35.6730   43.9140 C   0  0  0  0  0  0  0  0  0  0  0  0
   44.6320   34.5720   43.1040 C   0  0  0  0  0  0  0  0  0  0  0  0
   45.2320   33.4210   43.6890 C   0  0  0  0  0  0  0  0  0  0  0  0
   45.4660   33.4510   45.0290 N   0  0  0  0  0  0  0  0  0  0  0  0
   45.1430   34.5320   45.7930 C   0  0  0  0  0  0  0  0  0  0  0  0
   44.5700   35.6350   45.2470 N   0  0  0  0  0  0  0  0  0  0  0  0
   44.8478   35.6585   41.4869 H   0  0  0  0  0  0  0  0  0  0  0  0
   42.3781   33.6720   41.6091 H   0  0  0  0  0  0  0  0  0  0  0  0
   42.1755   35.3418   41.8860 H   0  0  0  0  0  0  0  0  0  0  0  0
   43.3578   35.8028   39.4349 H   0  0  0  0  0  0  0  0  0  0  0  0
   43.4542   32.7951   39.3622 H   0  0  0  0  0  0  0  0  0  0  0  0
   44.5771   33.9576   38.6436 H   0  0  0  0  0  0  0  0  0  0  0  0
   44.7463   32.6549   41.2643 H   0  0  0  0  0  0  0  0  0  0  0  0
   45.9242   33.7613   40.5679 H   0  0  0  0  0  0  0  0  0  0  0  0
   41.9642   35.9229   37.5145 H   0  0  0  0  0  0  0  0  0  0  0  0
   39.7481   35.6859   36.5634 H   0  0  0  0  0  0  0  0  0  0  0  0
   38.0424   34.2690   37.7613 H   0  0  0  0  0  0  0  0  0  0  0  0
   37.4589   32.9427   39.4779 H   0  0  0  0  0  0  0  0  0  0  0  0
   37.9682   31.7586   41.6087 H   0  0  0  0  0  0  0  0  0  0  0  0
   40.2428   31.9751   42.6220 H   0  0  0  0  0  0  0  0  0  0  0  0
   41.9177   33.3487   41.4860 H   0  0  0  0  0  0  0  0  0  0  0  0
   43.8426   36.5652   43.4697 H   0  0  0  0  0  0  0  0  0  0  0  0
   45.4959   32.5425   43.0819 H   0  0  0  0  0  0  0  0  0  0  0  0
   45.3505   34.5106   46.8730 H   0  0  0  0  0  0  0  0  0  0  0  0
  1 17  1  0
  2  1  1  0
  3  2  1  0
  4  3  1  0
  4  5  1  0
  5  1  1  0
  6  3  1  0
  6 15  1  0
  7  6  2  0
  8  7  1  0
  8  9  2  0
  9 10  1  0
 10 15  2  0
 10 11  1  0
 11 12  2  0
 12 13  1  0
 14 13  2  0
 15 14  1  0
 16 21  2  0
 17 18  2  0
 17 16  1  0
 18 19  1  0
 19 20  2  0
 21 20  1  0
  1 22  1  6
  2 23  1  0
  2 24  1  0
  3 25  1  1
  4 26  1  0
  4 27  1  0
  5 28  1  0
  5 29  1  0
  7 30  1  0
  8 31  1  0
  9 32  1  0
 11 33  1  0
 12 34  1  0
 13 35  1  0
 14 36  1  0
 16 37  1  0
 18 38  1  0
 20 39  1  0
M  ISO  8  22  13  23  13  24  13  25  13  26  13  27  13  28  13  29  13
M  ISO  8  30  14  31  14  32  14  33  14  34  14  35  14  36  14  37  14
M  ISO  2  38  14  39  14
M  END
>  <minimizedAffinity>  (1) 
-6.75650692

>  <minimizedRMSD>  (1) 
0.834030688

$$$$
