
     RDKit          3D

 36 39  0  0  1  0  0  0  0  0999 V2000
   44.2710   34.7530   41.4970 C   0  0  2  0  0  0  0  0  0  0  0  0
   42.7670   34.5960   41.1780 C   0  0  0  0  0  0  0  0  0  0  0  0
   42.8990   34.8270   39.6540 C   0  0  1  0  0  0  0  0  0  0  0  0
   43.9660   33.8090   39.3560 C   0  0  0  0  0  0  0  0  0  0  0  0
   44.8690   33.7720   40.5870 C   0  0  0  0  0  0  0  0  0  0  0  0
   44.2960   35.7290   43.7390 C   0  0  0  0  0  0  0  0  0  0  0  0
   44.5690   34.6240   42.9090 C   0  0  0  0  0  0  0  0  0  0  0  0
   45.1470   33.4610   43.4940 C   0  0  0  0  0  0  0  0  0  0  0  0
   45.4040   33.4890   44.8260 N   0  0  0  0  0  0  0  0  0  0  0  0
   45.1310   34.5720   45.6090 C   0  0  0  0  0  0  0  0  0  0  0  0
   44.5800   35.6840   45.0680 N   0  0  0  0  0  0  0  0  0  0  0  0
   41.6730   34.5980   38.9740 N   0  0  0  0  0  0  0  0  0  0  0  0
   41.2670   35.4450   38.0340 C   0  0  0  0  0  0  0  0  0  0  0  0
   40.0910   35.0310   37.5340 N   0  0  0  0  0  0  0  0  0  0  0  0
   39.7540   33.9090   38.1670 C   0  0  0  0  0  0  0  0  0  0  0  0
   38.6700   33.0570   38.0710 C   0  0  0  0  0  0  0  0  0  0  0  0
   38.6450   31.9840   38.8850 N   0  0  0  0  0  0  0  0  0  0  0  0
   39.6350   31.7340   39.7710 C   0  0  0  0  0  0  0  0  0  0  0  0
   40.7050   32.5620   39.8760 N   0  0  0  0  0  0  0  0  0  0  0  0
   40.7450   33.6290   39.0770 C   0  0  0  0  0  0  0  0  0  0  0  0
   37.6550   33.3690   37.1200 N   0  0  0  0  0  0  0  0  0  0  0  0
   44.6901   35.7555   41.3253 H   0  0  0  0  0  0  0  0  0  0  0  0
   42.3827   33.5952   41.4243 H   0  0  0  0  0  0  0  0  0  0  0  0
   42.0679   35.2456   41.7250 H   0  0  0  0  0  0  0  0  0  0  0  0
   43.1469   35.8500   39.3345 H   0  0  0  0  0  0  0  0  0  0  0  0
   43.5141   32.8210   39.1838 H   0  0  0  0  0  0  0  0  0  0  0  0
   44.5313   34.0718   38.4497 H   0  0  0  0  0  0  0  0  0  0  0  0
   44.8713   32.7696   41.0399 H   0  0  0  0  0  0  0  0  0  0  0  0
   45.9182   34.0011   40.3487 H   0  0  0  0  0  0  0  0  0  0  0  0
   43.8488   36.6369   43.3079 H   0  0  0  0  0  0  0  0  0  0  0  0
   45.3767   32.5723   42.8878 H   0  0  0  0  0  0  0  0  0  0  0  0
   45.3595   34.5417   46.6846 H   0  0  0  0  0  0  0  0  0  0  0  0
   41.8104   36.3465   37.7145 H   0  0  0  0  0  0  0  0  0  0  0  0
   39.5722   30.8457   40.4168 H   0  0  0  0  0  0  0  0  0  0  0  0
   36.8338   32.7549   37.0230 H   0  0  0  0  0  0  0  0  0  0  0  0
   37.7428   34.2086   36.5298 H   0  0  0  0  0  0  0  0  0  0  0  0
  1  7  1  0
  2  1  1  0
  3  2  1  0
  4  3  1  0
  4  5  1  0
  5  1  1  0
  6 11  2  0
  7  8  2  0
  7  6  1  0
  8  9  1  0
  9 10  2  0
 11 10  1  0
 12 20  1  0
 12  3  1  0
 13 12  1  0
 14 13  2  0
 14 15  1  0
 15 20  2  0
 16 15  1  0
 16 17  2  0
 17 18  1  0
 18 19  2  0
 20 19  1  0
 21 16  1  0
  1 22  1  6
  2 23  1  0
  2 24  1  0
  3 25  1  1
  4 26  1  0
  4 27  1  0
  5 28  1  0
  5 29  1  0
  6 30  1  0
  8 31  1  0
 10 32  1  0
 13 33  1  0
 18 34  1  0
 21 35  1  0
 21 36  1  0
M  ISO  8  22  13  23  13  24  13  25  13  26  13  27  13  28  13  29  13
M  ISO  5  30  14  31  14  32  14  33  14  34  14
M  END
>  <minimizedAffinity>  (1) 
-5.63866043

>  <minimizedRMSD>  (1) 
1.28320038

$$$$
