
     RDKit          3D

 27 29  0  0  0  0  0  0  0  0999 V2000
   47.0410   32.8070   44.4140 C   0  0  0  0  0  0  0  0  0  0  0  0
   47.9500   32.5580   43.4480 N   0  0  0  0  0  0  0  0  0  0  0  0
   48.1200   33.3300   42.3780 C   0  0  0  0  0  0  0  0  0  0  0  0
   47.3860   34.4280   42.1850 N   0  0  0  0  0  0  0  0  0  0  0  0
   46.4420   34.7720   43.0950 C   0  0  0  0  0  0  0  0  0  0  0  0
   45.6790   35.9010   42.9070 C   0  0  0  0  0  0  0  0  0  0  0  0
   44.7200   36.2660   43.8160 C   0  0  0  0  0  0  0  0  0  0  0  0
   44.5500   35.4600   44.9210 C   0  0  0  0  0  0  0  0  0  0  0  0
   45.3370   34.3400   45.0680 C   0  0  0  0  0  0  0  0  0  0  0  0
   46.3010   33.9440   44.1880 C   0  0  0  0  0  0  0  0  0  0  0  0
   47.5040   29.7400   46.4350 C   0  0  0  0  0  0  0  0  0  0  0  0
   47.5120   30.7420   45.4590 C   0  0  0  0  0  0  0  0  0  0  0  0
   46.8660   31.9500   45.5830 C   0  0  0  0  0  0  0  0  0  0  0  0
   46.2270   32.0510   46.7520 N   0  0  0  0  0  0  0  0  0  0  0  0
   46.1830   31.1390   47.7120 C   0  0  0  0  0  0  0  0  0  0  0  0
   46.8170   29.9830   47.5650 N   0  0  0  0  0  0  0  0  0  0  0  0
   45.3910   31.5330   48.9050 C   0  0  0  0  0  0  0  0  0  0  0  0
   44.0840   31.6940   48.4840 F   0  0  0  0  0  0  0  0  0  0  0  0
   45.4750   30.5810   49.8960 F   0  0  0  0  0  0  0  0  0  0  0  0
   45.8600   32.7120   49.4670 F   0  0  0  0  0  0  0  0  0  0  0  0
   48.8835   33.0570   41.6347 H   0  0  0  0  0  0  0  0  0  0  0  0
   45.8410   36.5209   42.0129 H   0  0  0  0  0  0  0  0  0  0  0  0
   44.1088   37.1687   43.6689 H   0  0  0  0  0  0  0  0  0  0  0  0
   43.7924   35.7093   45.6786 H   0  0  0  0  0  0  0  0  0  0  0  0
   45.1765   33.7185   45.9613 H   0  0  0  0  0  0  0  0  0  0  0  0
   48.0387   28.7906   46.2840 H   0  0  0  0  0  0  0  0  0  0  0  0
   48.0717   30.5514   44.5314 H   0  0  0  0  0  0  0  0  0  0  0  0
  1 13  1  0
  2  1  2  0
  3  2  1  0
  4  3  2  0
  4  5  1  0
  5 10  2  0
  6  5  1  0
  6  7  2  0
  7  8  1  0
  8  9  2  0
 10  1  1  0
 10  9  1  0
 11 16  2  0
 12 13  2  0
 12 11  1  0
 13 14  1  0
 14 15  2  0
 15 17  1  0
 16 15  1  0
 17 20  1  0
 17 19  1  0
 18 17  1  0
  3 21  1  0
  6 22  1  0
  7 23  1  0
  8 24  1  0
  9 25  1  0
 11 26  1  0
 12 27  1  0
M  ISO  7  21  14  22  14  23  14  24  14  25  14  26  14  27  14
M  END
>  <minimizedAffinity>  (1) 
-5.97916746

>  <minimizedRMSD>  (1) 
1.60208237

$$$$
