
     RDKit          3D

 33 35  0  0  1  0  0  0  0  0999 V2000
   43.8300   34.9480   41.6600 C   0  0  2  0  0  0  0  0  0  0  0  0
   42.3440   34.5340   41.5000 C   0  0  0  0  0  0  0  0  0  0  0  0
   42.2180   34.9500   40.0260 C   0  0  1  0  0  0  0  0  0  0  0  0
   43.4060   34.2730   39.4470 C   0  0  0  0  0  0  0  0  0  0  0  0
   44.4520   34.2070   40.5620 C   0  0  0  0  0  0  0  0  0  0  0  0
   44.1790   35.7340   43.9560 C   0  0  0  0  0  0  0  0  0  0  0  0
   44.3440   34.7030   43.0120 C   0  0  0  0  0  0  0  0  0  0  0  0
   45.0070   33.5000   43.3920 C   0  0  0  0  0  0  0  0  0  0  0  0
   45.4520   33.4160   44.6700 N   0  0  0  0  0  0  0  0  0  0  0  0
   45.2810   34.4270   45.5680 C   0  0  0  0  0  0  0  0  0  0  0  0
   44.6490   35.5790   45.2120 N   0  0  0  0  0  0  0  0  0  0  0  0
   40.9260   34.6680   39.4490 C   0  0  0  0  0  0  0  0  0  0  0  0
   39.9130   34.3110   40.3480 C   0  0  0  0  0  0  0  0  0  0  0  0
   38.6480   34.0240   39.8880 C   0  0  0  0  0  0  0  0  0  0  0  0
   38.4090   34.0980   38.5180 C   0  0  0  0  0  0  0  0  0  0  0  0
   39.4320   34.4570   37.6340 C   0  0  0  0  0  0  0  0  0  0  0  0
   40.6960   34.7430   38.1020 C   0  0  0  0  0  0  0  0  0  0  0  0
   44.0393   36.0251   41.5820 H   0  0  0  0  0  0  0  0  0  0  0  0
   42.1845   33.4563   41.6524 H   0  0  0  0  0  0  0  0  0  0  0  0
   41.6231   34.9698   42.2074 H   0  0  0  0  0  0  0  0  0  0  0  0
   42.2337   36.0318   39.8273 H   0  0  0  0  0  0  0  0  0  0  0  0
   43.1410   33.2588   39.1135 H   0  0  0  0  0  0  0  0  0  0  0  0
   43.7894   34.8191   38.5725 H   0  0  0  0  0  0  0  0  0  0  0  0
   44.6502   33.1651   40.8537 H   0  0  0  0  0  0  0  0  0  0  0  0
   45.4247   34.6237   40.2615 H   0  0  0  0  0  0  0  0  0  0  0  0
   43.6676   36.6651   43.6706 H   0  0  0  0  0  0  0  0  0  0  0  0
   45.1515   32.6749   42.6790 H   0  0  0  0  0  0  0  0  0  0  0  0
   45.6589   34.3105   46.5945 H   0  0  0  0  0  0  0  0  0  0  0  0
   40.1292   34.2598   41.4253 H   0  0  0  0  0  0  0  0  0  0  0  0
   37.8452   33.7430   40.5855 H   0  0  0  0  0  0  0  0  0  0  0  0
   37.4059   33.8719   38.1272 H   0  0  0  0  0  0  0  0  0  0  0  0
   39.2254   34.5115   36.5550 H   0  0  0  0  0  0  0  0  0  0  0  0
   41.5020   35.0252   37.4086 H   0  0  0  0  0  0  0  0  0  0  0  0
  1  7  1  0
  2  1  1  0
  3  2  1  0
  4  3  1  0
  4  5  1  0
  5  1  1  0
  6 11  2  0
  7  8  2  0
  7  6  1  0
  8  9  1  0
  9 10  2  0
 11 10  1  0
 12  3  1  0
 12 13  2  0
 14 13  1  0
 15 14  2  0
 16 17  2  0
 16 15  1  0
 17 12  1  0
  1 18  1  6
  2 19  1  0
  2 20  1  0
  3 21  1  1
  4 22  1  0
  4 23  1  0
  5 24  1  0
  5 25  1  0
  6 26  1  0
  8 27  1  0
 10 28  1  0
 13 29  1  0
 14 30  1  0
 15 31  1  0
 16 32  1  0
 17 33  1  0
M  ISO  8  18  13  19  13  20  13  21  13  22  13  23  13  24  13  25  13
M  ISO  8  26  14  27  14  28  14  29  14  30  14  31  14  32  14  33  14
M  END
>  <minimizedAffinity>  (1) 
-5.7143507

>  <minimizedRMSD>  (1) 
1.06808054

$$$$
