
     RDKit          3D

 37 40  0  0  1  0  0  0  0  0999 V2000
   44.5140   34.7180   41.6940 C   0  0  2  0  0  0  0  0  0  0  0  0
   43.0110   34.7720   41.3220 C   0  0  0  0  0  0  0  0  0  0  0  0
   43.2260   34.9440   39.8030 C   0  0  1  0  0  0  0  0  0  0  0  0
   44.1770   33.7990   39.5540 C   0  0  0  0  0  0  0  0  0  0  0  0
   44.9740   33.6180   40.8450 C   0  0  0  0  0  0  0  0  0  0  0  0
   41.9480   34.8060   39.1780 N   0  0  0  0  0  0  0  0  0  0  0  0
   41.4250   35.4270   38.1210 C   0  0  0  0  0  0  0  0  0  0  0  0
   40.1830   34.9340   37.9380 N   0  0  0  0  0  0  0  0  0  0  0  0
   39.9270   34.0110   38.8690 C   0  0  0  0  0  0  0  0  0  0  0  0
   38.7890   33.2620   39.0540 C   0  0  0  0  0  0  0  0  0  0  0  0
   37.7910   33.3790   38.3000 O   0  0  0  0  0  0  0  0  0  0  0  0
   38.7430   32.3890   40.0560 N   0  0  0  0  0  0  0  0  0  0  0  0
   39.8300   32.2850   40.8480 C   0  0  0  0  0  0  0  0  0  0  0  0
   39.8510   31.3690   41.9440 N   0  0  0  0  0  0  0  0  0  0  0  0
   40.9540   33.0140   40.6810 N   0  0  0  0  0  0  0  0  0  0  0  0
   41.0640   33.9240   39.6750 C   0  0  0  0  0  0  0  0  0  0  0  0
   44.3710   35.6780   43.9440 C   0  0  0  0  0  0  0  0  0  0  0  0
   44.7240   34.5940   43.1240 C   0  0  0  0  0  0  0  0  0  0  0  0
   45.2930   33.4450   43.7480 C   0  0  0  0  0  0  0  0  0  0  0  0
   45.4670   33.4550   45.1000 N   0  0  0  0  0  0  0  0  0  0  0  0
   45.1080   34.5340   45.8570 C   0  0  0  0  0  0  0  0  0  0  0  0
   44.5620   35.6390   45.2760 N   0  0  0  0  0  0  0  0  0  0  0  0
   45.0963   35.6319   41.5053 H   0  0  0  0  0  0  0  0  0  0  0  0
   42.4776   33.8433   41.5731 H   0  0  0  0  0  0  0  0  0  0  0  0
   42.3954   35.5288   41.8303 H   0  0  0  0  0  0  0  0  0  0  0  0
   43.6239   35.8979   39.4264 H   0  0  0  0  0  0  0  0  0  0  0  0
   43.6165   32.8818   39.3202 H   0  0  0  0  0  0  0  0  0  0  0  0
   44.8389   34.0062   38.7002 H   0  0  0  0  0  0  0  0  0  0  0  0
   44.7532   32.6455   41.3092 H   0  0  0  0  0  0  0  0  0  0  0  0
   46.0615   33.6328   40.6802 H   0  0  0  0  0  0  0  0  0  0  0  0
   41.9158   36.1992   37.5105 H   0  0  0  0  0  0  0  0  0  0  0  0
   37.9061   31.8120   40.2217 H   0  0  0  0  0  0  0  0  0  0  0  0
   40.6874   31.2994   42.5411 H   0  0  0  0  0  0  0  0  0  0  0  0
   39.0297   30.7781   42.1372 H   0  0  0  0  0  0  0  0  0  0  0  0
   43.9296   36.5769   43.4888 H   0  0  0  0  0  0  0  0  0  0  0  0
   45.5855   32.5688   43.1508 H   0  0  0  0  0  0  0  0  0  0  0  0
   45.2612   34.5106   46.9460 H   0  0  0  0  0  0  0  0  0  0  0  0
  1 18  1  0
  2  1  1  0
  3  2  1  0
  4  3  1  0
  4  5  1  0
  5  1  1  0
  6 16  1  0
  6  3  1  0
  7  6  1  0
  8  7  2  0
  8  9  1  0
  9 10  1  0
  9 16  2  0
 10 12  1  0
 11 10  2  0
 12 13  1  0
 13 14  1  0
 15 13  2  0
 16 15  1  0
 17 22  2  0
 18 19  2  0
 18 17  1  0
 19 20  1  0
 20 21  2  0
 22 21  1  0
  1 23  1  6
  2 24  1  0
  2 25  1  0
  3 26  1  1
  4 27  1  0
  4 28  1  0
  5 29  1  0
  5 30  1  0
  7 31  1  0
 12 32  1  0
 14 33  1  0
 14 34  1  0
 17 35  1  0
 19 36  1  0
 21 37  1  0
M  ISO  8  23  13  24  13  25  13  26  13  27  13  28  13  29  13  30  13
M  ISO  5  31  14  32   9  35  14  36  14  37  14
M  END
>  <minimizedAffinity>  (1) 
-5.69104195

>  <minimizedRMSD>  (1) 
0.938474834

$$$$
