
     RDKit          3D

 38 40  0  0  1  0  0  0  0  0999 V2000
   43.7160   35.0380   41.4160 C   0  0  2  0  0  0  0  0  0  0  0  0
   42.1690   35.1210   41.4190 C   0  0  0  0  0  0  0  0  0  0  0  0
   42.0120   35.4520   39.9180 C   0  0  1  0  0  0  0  0  0  0  0  0
   42.8490   34.3570   39.3250 C   0  0  0  0  0  0  0  0  0  0  0  0
   43.9310   34.0490   40.3560 C   0  0  0  0  0  0  0  0  0  0  0  0
   44.2110   35.7770   43.6860 C   0  0  0  0  0  0  0  0  0  0  0  0
   44.2680   34.7530   42.7270 C   0  0  0  0  0  0  0  0  0  0  0  0
   44.8830   33.5130   43.0710 C   0  0  0  0  0  0  0  0  0  0  0  0
   45.3880   33.3930   44.3300 N   0  0  0  0  0  0  0  0  0  0  0  0
   45.3200   34.4030   45.2420 C   0  0  0  0  0  0  0  0  0  0  0  0
   44.7360   35.5910   44.9280 N   0  0  0  0  0  0  0  0  0  0  0  0
   40.6280   35.3450   39.5090 N   0  0  0  0  0  0  0  0  0  0  0  0
   40.5260   35.0960   38.0960 C   0  0  0  0  0  0  0  0  0  0  0  0
   39.7760   33.8520   37.7350 C   0  0  0  0  0  0  0  0  0  0  0  0
   38.5120   33.6470   38.5070 C   0  0  0  0  0  0  0  0  0  0  0  0
   38.6050   34.1510   39.9310 C   0  0  0  0  0  0  0  0  0  0  0  0
   40.0780   34.2330   40.2540 C   0  0  0  0  0  0  0  0  0  0  0  0
   44.2554   35.9737   41.2073 H   0  0  0  0  0  0  0  0  0  0  0  0
   41.6944   34.1676   41.6942 H   0  0  0  0  0  0  0  0  0  0  0  0
   41.7089   35.8190   42.1339 H   0  0  0  0  0  0  0  0  0  0  0  0
   42.3088   36.4697   39.6244 H   0  0  0  0  0  0  0  0  0  0  0  0
   42.2339   33.4644   39.1382 H   0  0  0  0  0  0  0  0  0  0  0  0
   43.2851   34.6601   38.3617 H   0  0  0  0  0  0  0  0  0  0  0  0
   43.8162   33.0275   40.7475 H   0  0  0  0  0  0  0  0  0  0  0  0
   44.9438   34.1039   39.9303 H   0  0  0  0  0  0  0  0  0  0  0  0
   43.7383   36.7371   43.4316 H   0  0  0  0  0  0  0  0  0  0  0  0
   44.9469   32.6864   42.3481 H   0  0  0  0  0  0  0  0  0  0  0  0
   45.7433   34.2558   46.2465 H   0  0  0  0  0  0  0  0  0  0  0  0
   40.0136   35.9521   37.6329 H   0  0  0  0  0  0  0  0  0  0  0  0
   41.5537   34.9580   37.7288 H   0  0  0  0  0  0  0  0  0  0  0  0
   39.5220   33.9014   36.6659 H   0  0  0  0  0  0  0  0  0  0  0  0
   40.4346   33.0059   37.9806 H   0  0  0  0  0  0  0  0  0  0  0  0
   37.6981   34.1832   37.9971 H   0  0  0  0  0  0  0  0  0  0  0  0
   38.3233   32.5642   38.5511 H   0  0  0  0  0  0  0  0  0  0  0  0
   38.1404   35.1445   40.0149 H   0  0  0  0  0  0  0  0  0  0  0  0
   38.0786   33.4822   40.6279 H   0  0  0  0  0  0  0  0  0  0  0  0
   40.5792   33.2993   39.9590 H   0  0  0  0  0  0  0  0  0  0  0  0
   40.2292   34.3788   41.3338 H   0  0  0  0  0  0  0  0  0  0  0  0
  1  2  1  0
  1  7  1  0
  3  2  1  0
  4  3  1  0
  4  5  1  0
  5  1  1  0
  6 11  2  0
  7  8  2  0
  7  6  1  0
  8  9  1  0
  9 10  2  0
 11 10  1  0
 12  3  1  0
 12 17  1  0
 13 12  1  0
 14 13  1  0
 14 15  1  0
 15 16  1  0
 16 17  1  0
  1 18  1  6
  2 19  1  0
  2 20  1  0
  3 21  1  1
  4 22  1  0
  4 23  1  0
  5 24  1  0
  5 25  1  0
  6 26  1  0
  8 27  1  0
 10 28  1  0
 13 29  1  0
 13 30  1  0
 14 31  1  0
 14 32  1  0
 15 33  1  0
 15 34  1  0
 16 35  1  0
 16 36  1  0
 17 37  1  0
 17 38  1  0
M  ISO  8  18  13  19  13  20  13  21  13  22  13  23  13  24  13  25  13
M  ISO  8  26  14  27  14  28  14  29  13  30  13  31  13  32  13  33  13
M  ISO  5  34  13  35  13  36  13  37  13  38  13
M  END
>  <minimizedAffinity>  (1) 
-5.4917655

>  <minimizedRMSD>  (1) 
1.13455653

$$$$
