
     RDKit          3D

 27 29  0  0  0  0  0  0  0  0999 V2000
   47.0870   32.8350   44.1660 C   0  0  0  0  0  0  0  0  0  0  0  0
   47.9180   32.7300   43.1020 N   0  0  0  0  0  0  0  0  0  0  0  0
   47.9820   33.6150   42.1090 C   0  0  0  0  0  0  0  0  0  0  0  0
   47.1920   34.7120   42.1070 N   0  0  0  0  0  0  0  0  0  0  0  0
   46.3340   34.9110   43.1140 C   0  0  0  0  0  0  0  0  0  0  0  0
   45.5360   36.0220   43.1080 C   0  0  0  0  0  0  0  0  0  0  0  0
   44.6390   36.2590   44.1330 C   0  0  0  0  0  0  0  0  0  0  0  0
   44.5800   35.3340   45.1590 C   0  0  0  0  0  0  0  0  0  0  0  0
   45.4060   34.2340   45.1150 C   0  0  0  0  0  0  0  0  0  0  0  0
   46.3100   33.9680   44.1080 C   0  0  0  0  0  0  0  0  0  0  0  0
   46.9470   29.4270   45.6030 C   0  0  0  0  0  0  0  0  0  0  0  0
   47.0030   30.5570   44.7710 C   0  0  0  0  0  0  0  0  0  0  0  0
   47.0310   31.8580   45.2360 C   0  0  0  0  0  0  0  0  0  0  0  0
   46.9990   31.9030   46.5790 N   0  0  0  0  0  0  0  0  0  0  0  0
   46.9470   30.8770   47.4020 C   0  0  0  0  0  0  0  0  0  0  0  0
   46.9210   29.6390   46.9300 N   0  0  0  0  0  0  0  0  0  0  0  0
   46.9210   31.1880   48.8280 C   0  0  0  0  0  0  0  0  0  0  0  0
   46.0250   31.9270   49.3040 O   0  0  0  0  0  0  0  0  0  0  0  0
   47.8240   30.7290   49.7530 O   0  0  0  0  0  0  0  0  0  0  0  0
   48.6864   33.4514   41.2801 H   0  0  0  0  0  0  0  0  0  0  0  0
   45.6090   36.7373   42.2755 H   0  0  0  0  0  0  0  0  0  0  0  0
   43.9955   37.1512   44.1323 H   0  0  0  0  0  0  0  0  0  0  0  0
   43.8830   35.4752   45.9982 H   0  0  0  0  0  0  0  0  0  0  0  0
   45.3403   33.5140   45.9440 H   0  0  0  0  0  0  0  0  0  0  0  0
   46.9253   28.4095   45.1855 H   0  0  0  0  0  0  0  0  0  0  0  0
   47.0260   30.3967   43.6830 H   0  0  0  0  0  0  0  0  0  0  0  0
   47.7338   30.9888   50.7040 H   0  0  0  0  0  0  0  0  0  0  0  0
  1 13  1  0
  2  1  2  0
  3  2  1  0
  4  3  2  0
  4  5  1  0
  5 10  2  0
  6  5  1  0
  6  7  2  0
  7  8  1  0
  9  8  2  0
 10  1  1  0
 10  9  1  0
 11 16  2  0
 12 13  2  0
 12 11  1  0
 13 14  1  0
 14 15  2  0
 15 17  1  0
 16 15  1  0
 17 18  2  0
 17 19  1  0
  3 20  1  0
  6 21  1  0
  7 22  1  0
  8 23  1  0
  9 24  1  0
 11 25  1  0
 12 26  1  0
 19 27  1  0
M  ISO  8  20  14  21  14  22  14  23  14  24  14  25  14  26  14  27   3
M  END
>  <minimizedAffinity>  (1) 
-5.65563154

>  <minimizedRMSD>  (1) 
1.46785223

$$$$
