
     RDKit          3D

 30 32  0  0  1  0  0  0  0  0999 V2000
   43.9850   34.9220   41.6200 C   0  0  2  0  0  0  0  0  0  0  0  0
   42.4620   34.7510   41.4450 C   0  0  0  0  0  0  0  0  0  0  0  0
   42.4210   35.0960   39.9390 C   0  0  1  0  0  0  0  0  0  0  0  0
   43.4950   34.1780   39.4420 C   0  0  0  0  0  0  0  0  0  0  0  0
   44.5110   34.0480   40.5770 C   0  0  0  0  0  0  0  0  0  0  0  0
   44.2270   35.7310   43.9190 C   0  0  0  0  0  0  0  0  0  0  0  0
   44.4410   34.6780   42.9910 C   0  0  0  0  0  0  0  0  0  0  0  0
   45.0870   33.4780   43.4100 C   0  0  0  0  0  0  0  0  0  0  0  0
   45.4710   33.4150   44.7110 N   0  0  0  0  0  0  0  0  0  0  0  0
   45.2580   34.4370   45.5900 C   0  0  0  0  0  0  0  0  0  0  0  0
   44.6450   35.5810   45.2050 N   0  0  0  0  0  0  0  0  0  0  0  0
   41.1000   34.8500   39.3500 C   0  0  0  0  0  0  0  0  0  0  0  0
   39.8600   34.7210   39.9710 C   0  0  0  0  0  0  0  0  0  0  0  0
   38.9700   34.5000   38.9400 C   0  0  0  0  0  0  0  0  0  0  0  0
   39.6790   34.5030   37.7580 C   0  0  0  0  0  0  0  0  0  0  0  0
   40.9370   34.7130   38.0340 O   0  0  0  0  0  0  0  0  0  0  0  0
   44.3552   35.9502   41.4942 H   0  0  0  0  0  0  0  0  0  0  0  0
   42.1246   33.7250   41.6534 H   0  0  0  0  0  0  0  0  0  0  0  0
   41.8151   35.3431   42.1091 H   0  0  0  0  0  0  0  0  0  0  0  0
   42.5862   36.1535   39.6850 H   0  0  0  0  0  0  0  0  0  0  0  0
   43.0704   33.1933   39.1968 H   0  0  0  0  0  0  0  0  0  0  0  0
   43.9653   34.5719   38.5290 H   0  0  0  0  0  0  0  0  0  0  0  0
   44.5714   33.0083   40.9311 H   0  0  0  0  0  0  0  0  0  0  0  0
   45.5303   34.3223   40.2676 H   0  0  0  0  0  0  0  0  0  0  0  0
   43.7283   36.6586   43.6015 H   0  0  0  0  0  0  0  0  0  0  0  0
   45.2654   32.6449   42.7142 H   0  0  0  0  0  0  0  0  0  0  0  0
   45.5912   34.3290   46.6327 H   0  0  0  0  0  0  0  0  0  0  0  0
   39.6388   34.7819   41.0468 H   0  0  0  0  0  0  0  0  0  0  0  0
   37.8854   34.3481   39.0432 H   0  0  0  0  0  0  0  0  0  0  0  0
   39.2565   34.3538   36.7534 H   0  0  0  0  0  0  0  0  0  0  0  0
  1  7  1  0
  2  1  1  0
  3  2  1  0
  4  3  1  0
  4  5  1  0
  5  1  1  0
  6 11  2  0
  7  8  2  0
  7  6  1  0
  8  9  1  0
  9 10  2  0
 11 10  1  0
 12  3  1  0
 12 13  2  0
 14 13  1  0
 15 16  1  0
 15 14  2  0
 16 12  1  0
  1 17  1  6
  2 18  1  0
  2 19  1  0
  3 20  1  1
  4 21  1  0
  4 22  1  0
  5 23  1  0
  5 24  1  0
  6 25  1  0
  8 26  1  0
 10 27  1  0
 13 28  1  0
 14 29  1  0
 15 30  1  0
M  ISO  8  17  13  18  13  19  13  20  13  21  13  22  13  23  13  24  13
M  ISO  6  25  14  26  14  27  14  28  14  29  14  30  14
M  END
>  <minimizedAffinity>  (1) 
-5.08148003

>  <minimizedRMSD>  (1) 
0.61917901

$$$$
