
     RDKit          3D

 35 37  0  0  1  0  0  0  0  0999 V2000
   43.8780   34.5800   41.3340 C   0  0  2  0  0  0  0  0  0  0  0  0
   42.6050   35.4570   41.2080 C   0  0  0  0  0  0  0  0  0  0  0  0
   42.3940   35.2790   39.7050 C   0  0  1  0  0  0  0  0  0  0  0  0
   42.5410   33.7910   39.5590 C   0  0  0  0  0  0  0  0  0  0  0  0
   43.4160   33.3360   40.7170 C   0  0  0  0  0  0  0  0  0  0  0  0
   44.2110   35.6400   43.5170 C   0  0  0  0  0  0  0  0  0  0  0  0
   44.3580   34.4970   42.7150 C   0  0  0  0  0  0  0  0  0  0  0  0
   44.9840   33.3410   43.2670 C   0  0  0  0  0  0  0  0  0  0  0  0
   45.4100   33.4140   44.5600 N   0  0  0  0  0  0  0  0  0  0  0  0
   45.2530   34.5400   45.3140 C   0  0  0  0  0  0  0  0  0  0  0  0
   44.6540   35.6450   44.7910 N   0  0  0  0  0  0  0  0  0  0  0  0
   41.0780   35.7230   39.2870 N   0  0  0  0  0  0  0  0  0  0  0  0
   40.1220   35.0250   40.1180 C   0  0  0  0  0  0  0  0  0  0  0  0
   39.0600   34.4690   39.1970 C   0  0  0  0  0  0  0  0  0  0  0  0
   39.8940   34.1180   37.9770 C   0  0  0  0  0  0  0  0  0  0  0  0
   40.8380   35.3010   37.9250 C   0  0  0  0  0  0  0  0  0  0  0  0
   44.7839   34.9623   40.8409 H   0  0  0  0  0  0  0  0  0  0  0  0
   41.7646   35.0640   41.7990 H   0  0  0  0  0  0  0  0  0  0  0  0
   42.6859   36.4920   41.5715 H   0  0  0  0  0  0  0  0  0  0  0  0
   43.0884   35.8663   39.0863 H   0  0  0  0  0  0  0  0  0  0  0  0
   41.5562   33.3036   39.6105 H   0  0  0  0  0  0  0  0  0  0  0  0
   42.9883   33.5253   38.5898 H   0  0  0  0  0  0  0  0  0  0  0  0
   42.8335   32.7387   41.4339 H   0  0  0  0  0  0  0  0  0  0  0  0
   44.2484   32.6966   40.3879 H   0  0  0  0  0  0  0  0  0  0  0  0
   43.7306   36.5388   43.1030 H   0  0  0  0  0  0  0  0  0  0  0  0
   45.1181   32.4253   42.6724 H   0  0  0  0  0  0  0  0  0  0  0  0
   45.6134   34.5552   46.3532 H   0  0  0  0  0  0  0  0  0  0  0  0
   40.6187   34.2065   40.6597 H   0  0  0  0  0  0  0  0  0  0  0  0
   39.6802   35.7030   40.8630 H   0  0  0  0  0  0  0  0  0  0  0  0
   38.5774   33.5789   39.6269 H   0  0  0  0  0  0  0  0  0  0  0  0
   38.2268   35.1583   38.9953 H   0  0  0  0  0  0  0  0  0  0  0  0
   40.4381   33.1724   38.1176 H   0  0  0  0  0  0  0  0  0  0  0  0
   39.3107   33.9615   37.0576 H   0  0  0  0  0  0  0  0  0  0  0  0
   41.7854   35.0054   37.4505 H   0  0  0  0  0  0  0  0  0  0  0  0
   40.4012   36.1207   37.3357 H   0  0  0  0  0  0  0  0  0  0  0  0
  1  7  1  0
  2  1  1  0
  3  2  1  0
  4  3  1  0
  4  5  1  0
  5  1  1  0
  6 11  2  0
  7  8  2  0
  7  6  1  0
  8  9  1  0
  9 10  2  0
 11 10  1  0
 12  3  1  0
 12 13  1  0
 14 13  1  0
 15 14  1  0
 16 15  1  0
 16 12  1  0
  1 17  1  6
  2 18  1  0
  2 19  1  0
  3 20  1  6
  4 21  1  0
  4 22  1  0
  5 23  1  0
  5 24  1  0
  6 25  1  0
  8 26  1  0
 10 27  1  0
 13 28  1  0
 13 29  1  0
 14 30  1  0
 14 31  1  0
 15 32  1  0
 15 33  1  0
 16 34  1  0
 16 35  1  0
M  ISO  8  17  13  18  13  19  13  20  13  21  13  22  13  23  13  24  13
M  ISO  8  25  14  26  14  27  14  28  13  29  13  30  13  31  13  32  13
M  ISO  3  33  13  34  13  35  13
M  END
>  <minimizedAffinity>  (1) 
-5.00656128

>  <minimizedRMSD>  (1) 
0.833193779

$$$$
