
     RDKit          3D

 37 39  0  0  1  0  0  0  0  0999 V2000
   43.7810   35.0070   41.2850 C   0  0  2  0  0  0  0  0  0  0  0  0
   42.2360   35.1070   41.2080 C   0  0  0  0  0  0  0  0  0  0  0  0
   42.1840   35.3740   39.6880 C   0  0  1  0  0  0  0  0  0  0  0  0
   42.9980   34.2130   39.2040 C   0  0  0  0  0  0  0  0  0  0  0  0
   44.0320   33.9520   40.2990 C   0  0  0  0  0  0  0  0  0  0  0  0
   44.1910   35.8730   43.5310 C   0  0  0  0  0  0  0  0  0  0  0  0
   44.2750   34.7930   42.6370 C   0  0  0  0  0  0  0  0  0  0  0  0
   44.8590   33.5740   43.0840 C   0  0  0  0  0  0  0  0  0  0  0  0
   45.3060   33.5230   44.3620 N   0  0  0  0  0  0  0  0  0  0  0  0
   45.2140   34.5870   45.2090 C   0  0  0  0  0  0  0  0  0  0  0  0
   44.6570   35.7600   44.7980 N   0  0  0  0  0  0  0  0  0  0  0  0
   40.8460   35.4010   39.1980 N   0  0  0  0  0  0  0  0  0  0  0  0
   39.9640   35.1220   40.3170 C   0  0  0  0  0  0  0  0  0  0  0  0
   39.2760   33.7790   40.1580 C   0  0  0  0  0  0  0  0  0  0  0  0
   38.4290   33.8810   38.9850 N   0  0  0  0  0  0  0  0  0  0  0  0
   39.1550   34.3300   37.8450 C   0  0  0  0  0  0  0  0  0  0  0  0
   40.6100   34.5950   38.0500 C   0  0  0  0  0  0  0  0  0  0  0  0
   44.3375   35.9258   41.0483 H   0  0  0  0  0  0  0  0  0  0  0  0
   41.7322   34.1723   41.4954 H   0  0  0  0  0  0  0  0  0  0  0  0
   41.7407   35.8340   41.8684 H   0  0  0  0  0  0  0  0  0  0  0  0
   42.5645   36.3506   39.3542 H   0  0  0  0  0  0  0  0  0  0  0  0
   42.3591   33.3292   39.0605 H   0  0  0  0  0  0  0  0  0  0  0  0
   43.4749   34.4253   38.2357 H   0  0  0  0  0  0  0  0  0  0  0  0
   43.8858   32.9573   40.7453 H   0  0  0  0  0  0  0  0  0  0  0  0
   45.0638   33.9664   39.9180 H   0  0  0  0  0  0  0  0  0  0  0  0
   43.7420   36.8207   43.1988 H   0  0  0  0  0  0  0  0  0  0  0  0
   44.9443   32.7045   42.4156 H   0  0  0  0  0  0  0  0  0  0  0  0
   45.5943   34.4972   46.2372 H   0  0  0  0  0  0  0  0  0  0  0  0
   40.5547   35.1139   41.2449 H   0  0  0  0  0  0  0  0  0  0  0  0
   39.1918   35.9046   40.3527 H   0  0  0  0  0  0  0  0  0  0  0  0
   40.0235   32.9843   40.0179 H   0  0  0  0  0  0  0  0  0  0  0  0
   38.6857   33.5285   41.0518 H   0  0  0  0  0  0  0  0  0  0  0  0
   38.0287   32.9541   38.7813 H   0  0  0  0  0  0  0  0  0  0  0  0
   38.6897   35.2644   37.4979 H   0  0  0  0  0  0  0  0  0  0  0  0
   39.1065   33.5027   37.1216 H   0  0  0  0  0  0  0  0  0  0  0  0
   41.1320   33.6350   38.1762 H   0  0  0  0  0  0  0  0  0  0  0  0
   40.9849   35.1377   37.1697 H   0  0  0  0  0  0  0  0  0  0  0  0
  1  7  1  0
  2  1  1  0
  3  2  1  0
  4  3  1  0
  4  5  1  0
  5  1  1  0
  6 11  2  0
  7  8  2  0
  7  6  1  0
  8  9  1  0
  9 10  2  0
 11 10  1  0
 12  3  1  0
 12 13  1  0
 14 13  1  0
 15 14  1  0
 16 17  1  0
 16 15  1  0
 17 12  1  0
  1 18  1  6
  2 19  1  0
  2 20  1  0
  3 21  1  1
  4 22  1  0
  4 23  1  0
  5 24  1  0
  5 25  1  0
  6 26  1  0
  8 27  1  0
 10 28  1  0
 13 29  1  0
 13 30  1  0
 14 31  1  0
 14 32  1  0
 15 33  1  0
 16 34  1  0
 16 35  1  0
 17 36  1  0
 17 37  1  0
M  ISO  8  18  13  19  13  20  13  21  13  22  13  23  13  24  13  25  13
M  ISO  8  26  14  27  14  28  14  29  13  30  13  31  13  32  13  33   5
M  ISO  4  34  13  35  13  36  13  37  13
M  END
>  <minimizedAffinity>  (1) 
-5.09271193

>  <minimizedRMSD>  (1) 
1.582919

$$$$
