
     RDKit          3D

 29 31  0  0  1  0  0  0  0  0999 V2000
   43.9750   35.0160   41.6410 C   0  0  2  0  0  0  0  0  0  0  0  0
   42.4450   34.8770   41.4890 C   0  0  0  0  0  0  0  0  0  0  0  0
   42.3710   35.1750   39.9830 C   0  0  1  0  0  0  0  0  0  0  0  0
   43.4460   34.2660   39.4730 C   0  0  0  0  0  0  0  0  0  0  0  0
   44.4700   34.1290   40.5950 C   0  0  0  0  0  0  0  0  0  0  0  0
   44.2160   35.7600   43.9670 C   0  0  0  0  0  0  0  0  0  0  0  0
   44.4190   34.7500   43.0120 C   0  0  0  0  0  0  0  0  0  0  0  0
   45.0590   33.5570   43.4140 C   0  0  0  0  0  0  0  0  0  0  0  0
   45.4510   33.4420   44.7160 N   0  0  0  0  0  0  0  0  0  0  0  0
   45.2400   34.4420   45.6200 C   0  0  0  0  0  0  0  0  0  0  0  0
   44.6230   35.5950   45.2370 N   0  0  0  0  0  0  0  0  0  0  0  0
   41.0130   34.8170   39.4790 C   0  0  0  0  0  0  0  0  0  0  0  0
   40.8710   34.5860   38.1250 C   0  0  0  0  0  0  0  0  0  0  0  0
   39.0370   34.1880   38.0130 S   0  0  0  0  0  0  0  0  0  0  0  0
   38.8470   34.4250   39.8690 C   0  0  0  0  0  0  0  0  0  0  0  0
   39.9040   34.6910   40.1850 N   0  0  0  0  0  0  0  0  0  0  0  0
   44.3769   36.0306   41.5030 H   0  0  0  0  0  0  0  0  0  0  0  0
   42.0890   33.8656   41.7346 H   0  0  0  0  0  0  0  0  0  0  0  0
   41.8284   35.5098   42.1442 H   0  0  0  0  0  0  0  0  0  0  0  0
   42.5159   36.2224   39.6797 H   0  0  0  0  0  0  0  0  0  0  0  0
   43.0235   33.2817   39.2226 H   0  0  0  0  0  0  0  0  0  0  0  0
   43.9087   34.6716   38.5612 H   0  0  0  0  0  0  0  0  0  0  0  0
   44.5182   33.0905   40.9546 H   0  0  0  0  0  0  0  0  0  0  0  0
   45.4885   34.3880   40.2700 H   0  0  0  0  0  0  0  0  0  0  0  0
   43.7187   36.6958   43.6721 H   0  0  0  0  0  0  0  0  0  0  0  0
   45.2368   32.7422   42.6967 H   0  0  0  0  0  0  0  0  0  0  0  0
   45.5693   34.3169   46.6621 H   0  0  0  0  0  0  0  0  0  0  0  0
   41.6271   34.6245   37.3270 H   0  0  0  0  0  0  0  0  0  0  0  0
   37.9434   34.3301   40.4890 H   0  0  0  0  0  0  0  0  0  0  0  0
  1  7  1  0
  2  1  1  0
  3  2  1  0
  4  3  1  0
  4  5  1  0
  5  1  1  0
  6 11  2  0
  7  8  2  0
  7  6  1  0
  8  9  1  0
  9 10  2  0
 11 10  1  0
 12  3  1  0
 12 16  1  0
 13 12  2  0
 14 13  1  0
 14 15  1  0
 15 16  2  0
  1 17  1  6
  2 18  1  0
  2 19  1  0
  3 20  1  1
  4 21  1  0
  4 22  1  0
  5 23  1  0
  5 24  1  0
  6 25  1  0
  8 26  1  0
 10 27  1  0
 13 28  1  0
 15 29  1  0
M  ISO  8  17  13  18  13  19  13  20  13  21  13  22  13  23  13  24  13
M  ISO  5  25  14  26  14  27  14  28  14  29  14
M  END
>  <minimizedAffinity>  (1) 
-4.8568387

>  <minimizedRMSD>  (1) 
0.509347498

$$$$
