
     RDKit          3D

 28 30  0  0  1  0  0  0  0  0999 V2000
   44.0200   34.9410   41.5490 C   0  0  2  0  0  0  0  0  0  0  0  0
   42.4870   34.8100   41.3840 C   0  0  0  0  0  0  0  0  0  0  0  0
   42.4430   35.0840   39.8670 C   0  0  1  0  0  0  0  0  0  0  0  0
   43.5110   34.1460   39.3940 C   0  0  0  0  0  0  0  0  0  0  0  0
   44.5030   33.9990   40.5420 C   0  0  0  0  0  0  0  0  0  0  0  0
   44.2450   35.7660   43.8530 C   0  0  0  0  0  0  0  0  0  0  0  0
   44.4560   34.7060   42.9320 C   0  0  0  0  0  0  0  0  0  0  0  0
   45.0800   33.5060   43.3770 C   0  0  0  0  0  0  0  0  0  0  0  0
   45.4460   33.4450   44.6860 N   0  0  0  0  0  0  0  0  0  0  0  0
   45.2300   34.4770   45.5490 C   0  0  0  0  0  0  0  0  0  0  0  0
   44.6330   35.6300   45.1330 N   0  0  0  0  0  0  0  0  0  0  0  0
   41.1170   34.8640   39.2940 C   0  0  0  0  0  0  0  0  0  0  0  0
   39.9610   35.0320   39.9740 N   0  0  0  0  0  0  0  0  0  0  0  0
   38.9880   34.7590   39.1890 O   0  0  0  0  0  0  0  0  0  0  0  0
   39.4230   34.4140   38.0080 C   0  0  0  0  0  0  0  0  0  0  0  0
   40.7640   34.4800   38.0720 N   0  0  0  0  0  0  0  0  0  0  0  0
   44.4313   35.9478   41.3842 H   0  0  0  0  0  0  0  0  0  0  0  0
   42.1194   33.8059   41.6420 H   0  0  0  0  0  0  0  0  0  0  0  0
   41.8643   35.4551   42.0212 H   0  0  0  0  0  0  0  0  0  0  0  0
   42.6243   36.1263   39.5658 H   0  0  0  0  0  0  0  0  0  0  0  0
   43.0734   33.1684   39.1433 H   0  0  0  0  0  0  0  0  0  0  0  0
   44.0053   34.5318   38.4902 H   0  0  0  0  0  0  0  0  0  0  0  0
   44.4981   32.9712   40.9338 H   0  0  0  0  0  0  0  0  0  0  0  0
   45.5395   34.2022   40.2347 H   0  0  0  0  0  0  0  0  0  0  0  0
   43.7645   36.6976   43.5195 H   0  0  0  0  0  0  0  0  0  0  0  0
   45.2585   32.6642   42.6918 H   0  0  0  0  0  0  0  0  0  0  0  0
   45.5425   34.3783   46.5990 H   0  0  0  0  0  0  0  0  0  0  0  0
   38.8155   34.1274   37.1369 H   0  0  0  0  0  0  0  0  0  0  0  0
  1  7  1  0
  2  1  1  0
  3  2  1  0
  4  3  1  0
  4  5  1  0
  5  1  1  0
  6 11  2  0
  7  8  2  0
  7  6  1  0
  8  9  1  0
  9 10  2  0
 11 10  1  0
 12  3  1  0
 12 13  2  0
 14 13  1  0
 15 16  2  0
 15 14  1  0
 16 12  1  0
  1 17  1  6
  2 18  1  0
  2 19  1  0
  3 20  1  1
  4 21  1  0
  4 22  1  0
  5 23  1  0
  5 24  1  0
  6 25  1  0
  8 26  1  0
 10 27  1  0
 15 28  1  0
M  ISO  8  17  13  18  13  19  13  20  13  21  13  22  13  23  13  24  13
M  ISO  4  25  14  26  14  27  14  28  14
M  END
>  <minimizedAffinity>  (1) 
-4.83708668

>  <minimizedRMSD>  (1) 
0.61789459

$$$$
