
     RDKit          3D

 30 32  0  0  1  0  0  0  0  0999 V2000
   43.7470   35.0120   41.5290 C   0  0  2  0  0  0  0  0  0  0  0  0
   42.2230   34.7530   41.4390 C   0  0  0  0  0  0  0  0  0  0  0  0
   42.0700   35.1250   39.9500 C   0  0  1  0  0  0  0  0  0  0  0  0
   43.1980   34.3740   39.3390 C   0  0  0  0  0  0  0  0  0  0  0  0
   44.2090   34.1330   40.4500 C   0  0  0  0  0  0  0  0  0  0  0  0
   44.1750   35.8160   43.7990 C   0  0  0  0  0  0  0  0  0  0  0  0
   44.2810   34.7850   42.8530 C   0  0  0  0  0  0  0  0  0  0  0  0
   44.9380   33.5860   43.2380 C   0  0  0  0  0  0  0  0  0  0  0  0
   45.4340   33.4990   44.5080 N   0  0  0  0  0  0  0  0  0  0  0  0
   45.3090   34.5260   45.3980 C   0  0  0  0  0  0  0  0  0  0  0  0
   44.6820   35.6800   45.0450 N   0  0  0  0  0  0  0  0  0  0  0  0
   40.7780   34.7870   39.4500 N   0  0  0  0  0  0  0  0  0  0  0  0
   39.7580   34.5700   40.2620 N   0  0  0  0  0  0  0  0  0  0  0  0
   38.6770   34.2740   39.5280 C   0  0  0  0  0  0  0  0  0  0  0  0
   38.9990   34.2990   38.2030 C   0  0  0  0  0  0  0  0  0  0  0  0
   40.3520   34.6300   38.1800 C   0  0  0  0  0  0  0  0  0  0  0  0
   44.0839   36.0501   41.3919 H   0  0  0  0  0  0  0  0  0  0  0  0
   41.9596   33.7045   41.6421 H   0  0  0  0  0  0  0  0  0  0  0  0
   41.5842   35.2921   42.1541 H   0  0  0  0  0  0  0  0  0  0  0  0
   42.1225   36.2009   39.7271 H   0  0  0  0  0  0  0  0  0  0  0  0
   42.8414   33.4150   38.9351 H   0  0  0  0  0  0  0  0  0  0  0  0
   43.6472   34.9376   38.5080 H   0  0  0  0  0  0  0  0  0  0  0  0
   44.1994   33.0803   40.7690 H   0  0  0  0  0  0  0  0  0  0  0  0
   45.2438   34.3415   40.1406 H   0  0  0  0  0  0  0  0  0  0  0  0
   43.6697   36.7528   43.5215 H   0  0  0  0  0  0  0  0  0  0  0  0
   45.0447   32.7493   42.5320 H   0  0  0  0  0  0  0  0  0  0  0  0
   45.7202   34.4191   46.4127 H   0  0  0  0  0  0  0  0  0  0  0  0
   37.6801   34.0453   39.9330 H   0  0  0  0  0  0  0  0  0  0  0  0
   38.3389   34.1021   37.3454 H   0  0  0  0  0  0  0  0  0  0  0  0
   40.9697   34.7442   37.2770 H   0  0  0  0  0  0  0  0  0  0  0  0
  1  7  1  0
  2  1  1  0
  3  2  1  0
  4  3  1  0
  4  5  1  0
  5  1  1  0
  6 11  2  0
  7  8  2  0
  7  6  1  0
  8  9  1  0
  9 10  2  0
 11 10  1  0
 12  3  1  0
 12 13  1  0
 14 13  2  0
 15 14  1  0
 16 15  2  0
 16 12  1  0
  1 17  1  6
  2 18  1  0
  2 19  1  0
  3 20  1  1
  4 21  1  0
  4 22  1  0
  5 23  1  0
  5 24  1  0
  6 25  1  0
  8 26  1  0
 10 27  1  0
 14 28  1  0
 15 29  1  0
 16 30  1  0
M  ISO  8  17  13  18  13  19  13  20  13  21  13  22  13  23  13  24  13
M  ISO  6  25  14  26  14  27  14  28  14  29  14  30  14
M  END
>  <minimizedAffinity>  (1) 
-4.88731527

>  <minimizedRMSD>  (1) 
0.590954781

$$$$
