
     RDKit          3D

 25 27  0  0  0  0  0  0  0  0999 V2000
   46.9000   32.5820   44.9140 C   0  0  0  0  0  0  0  0  0  0  0  0
   47.7220   32.2230   43.9060 N   0  0  0  0  0  0  0  0  0  0  0  0
   47.8550   32.8960   42.7660 C   0  0  0  0  0  0  0  0  0  0  0  0
   47.1530   34.0100   42.5450 N   0  0  0  0  0  0  0  0  0  0  0  0
   46.2990   34.4650   43.4790 C   0  0  0  0  0  0  0  0  0  0  0  0
   45.5690   35.6170   43.2620 C   0  0  0  0  0  0  0  0  0  0  0  0
   44.6970   36.0940   44.2030 C   0  0  0  0  0  0  0  0  0  0  0  0
   44.5720   35.3830   45.3830 C   0  0  0  0  0  0  0  0  0  0  0  0
   45.3240   34.2360   45.5560 C   0  0  0  0  0  0  0  0  0  0  0  0
   46.2020   33.7270   44.6440 C   0  0  0  0  0  0  0  0  0  0  0  0
   45.5600   29.9070   47.0940 C   0  0  0  0  0  0  0  0  0  0  0  0
   45.8610   30.7790   46.0450 C   0  0  0  0  0  0  0  0  0  0  0  0
   46.7740   31.8260   46.1530 C   0  0  0  0  0  0  0  0  0  0  0  0
   47.3060   31.8770   47.3640 N   0  0  0  0  0  0  0  0  0  0  0  0
   47.0600   31.0800   48.3940 C   0  0  0  0  0  0  0  0  0  0  0  0
   46.1890   30.0940   48.2610 N   0  0  0  0  0  0  0  0  0  0  0  0
   47.7510   31.3470   49.5500 O   0  0  0  0  0  0  0  0  0  0  0  0
   48.5512   32.5305   41.9968 H   0  0  0  0  0  0  0  0  0  0  0  0
   45.6907   36.1620   42.3143 H   0  0  0  0  0  0  0  0  0  0  0  0
   44.1157   37.0111   44.0270 H   0  0  0  0  0  0  0  0  0  0  0  0
   43.8851   35.7249   46.1712 H   0  0  0  0  0  0  0  0  0  0  0  0
   45.2051   33.6906   46.5038 H   0  0  0  0  0  0  0  0  0  0  0  0
   44.8305   29.0938   46.9655 H   0  0  0  0  0  0  0  0  0  0  0  0
   45.3499   30.6312   45.0822 H   0  0  0  0  0  0  0  0  0  0  0  0
   47.6087   30.7853   50.3527 H   0  0  0  0  0  0  0  0  0  0  0  0
  1 13  1  0
  2  1  2  0
  3  2  1  0
  4  3  2  0
  4  5  1  0
  5 10  2  0
  6  5  1  0
  6  7  2  0
  7  8  1  0
  8  9  2  0
 10  1  1  0
 10  9  1  0
 11 16  2  0
 12 13  2  0
 12 11  1  0
 13 14  1  0
 14 15  2  0
 15 17  1  0
 16 15  1  0
  3 18  1  0
  6 19  1  0
  7 20  1  0
  8 21  1  0
  9 22  1  0
 11 23  1  0
 12 24  1  0
 17 25  1  0
M  ISO  8  18  14  19  14  20  14  21  14  22  14  23  14  24  14  25   3
M  END
>  <minimizedAffinity>  (1) 
-5.46867275

>  <minimizedRMSD>  (1) 
0.529516101

$$$$
