
     RDKit          3D

 26 27  0  0  1  0  0  0  0  0999 V2000
   43.9520   34.9360   41.1640 C   0  0  2  0  0  0  0  0  0  0  0  0
   42.4350   35.1870   41.0280 C   0  0  0  0  0  0  0  0  0  0  0  0
   42.3900   35.2830   39.4940 C   0  0  1  0  0  0  0  0  0  0  0  0
   43.2010   34.0730   39.1070 C   0  0  0  0  0  0  0  0  0  0  0  0
   44.1660   33.8160   40.2560 C   0  0  0  0  0  0  0  0  0  0  0  0
   44.2270   35.8600   43.4200 C   0  0  0  0  0  0  0  0  0  0  0  0
   44.3630   34.7660   42.5520 C   0  0  0  0  0  0  0  0  0  0  0  0
   44.9130   33.5840   43.0710 C   0  0  0  0  0  0  0  0  0  0  0  0
   45.2910   33.5370   44.3800 N   0  0  0  0  0  0  0  0  0  0  0  0
   45.1410   34.6250   45.1920 C   0  0  0  0  0  0  0  0  0  0  0  0
   44.6090   35.7830   44.7040 N   0  0  0  0  0  0  0  0  0  0  0  0
   41.0120   35.2030   38.9780 C   0  0  0  0  0  0  0  0  0  0  0  0
   40.0060   35.4120   39.6920 O   0  0  0  0  0  0  0  0  0  0  0  0
   40.8550   34.8810   37.6370 O   0  0  0  0  0  0  0  0  0  0  0  0
   44.5990   35.7798   40.8822 H   0  0  0  0  0  0  0  0  0  0  0  0
   41.8349   34.3498   41.4138 H   0  0  0  0  0  0  0  0  0  0  0  0
   42.0288   36.0446   41.5844 H   0  0  0  0  0  0  0  0  0  0  0  0
   42.7700   36.2331   39.0903 H   0  0  0  0  0  0  0  0  0  0  0  0
   42.5422   33.2041   38.9621 H   0  0  0  0  0  0  0  0  0  0  0  0
   43.7407   34.2403   38.1632 H   0  0  0  0  0  0  0  0  0  0  0  0
   43.9351   32.8621   40.7528 H   0  0  0  0  0  0  0  0  0  0  0  0
   45.2105   33.7422   39.9189 H   0  0  0  0  0  0  0  0  0  0  0  0
   43.7987   36.7994   43.0404 H   0  0  0  0  0  0  0  0  0  0  0  0
   45.0383   32.7016   42.4263 H   0  0  0  0  0  0  0  0  0  0  0  0
   45.4510   34.5674   46.2459 H   0  0  0  0  0  0  0  0  0  0  0  0
   39.9476   34.8159   37.2465 H   0  0  0  0  0  0  0  0  0  0  0  0
  1  7  1  0
  2  1  1  0
  3  2  1  0
  4  3  1  0
  4  5  1  0
  5  1  1  0
  6 11  2  0
  7  8  2  0
  7  6  1  0
  8  9  1  0
  9 10  2  0
 11 10  1  0
 12  3  1  0
 12 13  2  0
 14 12  1  0
  1 15  1  6
  2 16  1  0
  2 17  1  0
  3 18  1  1
  4 19  1  0
  4 20  1  0
  5 21  1  0
  5 22  1  0
  6 23  1  0
  8 24  1  0
 10 25  1  0
 14 26  1  0
M  ISO  8  15  13  16  13  17  13  18  13  19  13  20  13  21  13  22  13
M  ISO  4  23  14  24  14  25  14  26   3
M  END
>  <minimizedAffinity>  (1) 
-4.3978138

>  <minimizedRMSD>  (1) 
0.592839003

$$$$
