
     RDKit          3D

 29 30  0  0  1  0  0  0  0  0999 V2000
   43.1800   35.3710   41.4860 C   0  0  2  0  0  0  0  0  0  0  0  0
   41.6570   35.2400   41.7270 C   0  0  0  0  0  0  0  0  0  0  0  0
   41.1940   35.8380   40.3950 C   0  0  1  0  0  0  0  0  0  0  0  0
   42.0850   35.1040   39.4220 C   0  0  0  0  0  0  0  0  0  0  0  0
   43.3240   34.6770   40.2040 C   0  0  0  0  0  0  0  0  0  0  0  0
   44.2030   35.7530   43.6750 C   0  0  0  0  0  0  0  0  0  0  0  0
   43.9640   34.8840   42.5990 C   0  0  0  0  0  0  0  0  0  0  0  0
   44.5350   33.5960   42.6570 C   0  0  0  0  0  0  0  0  0  0  0  0
   45.2900   33.2460   43.7450 N   0  0  0  0  0  0  0  0  0  0  0  0
   45.4960   34.1260   44.7680 C   0  0  0  0  0  0  0  0  0  0  0  0
   44.9520   35.3750   44.7320 N   0  0  0  0  0  0  0  0  0  0  0  0
   39.7310   35.5560   40.1710 C   0  0  0  0  0  0  0  0  0  0  0  0
   39.5810   34.5490   39.0790 C   0  0  0  0  0  0  0  0  0  0  0  0
   43.5737   36.3965   41.4283 H   0  0  0  0  0  0  0  0  0  0  0  0
   41.3405   34.1936   41.8492 H   0  0  0  0  0  0  0  0  0  0  0  0
   41.2641   35.7146   42.6383 H   0  0  0  0  0  0  0  0  0  0  0  0
   41.2748   36.9322   40.3164 H   0  0  0  0  0  0  0  0  0  0  0  0
   42.3696   35.7680   38.5925 H   0  0  0  0  0  0  0  0  0  0  0  0
   41.5690   34.2341   38.9894 H   0  0  0  0  0  0  0  0  0  0  0  0
   43.3409   33.5866   40.3477 H   0  0  0  0  0  0  0  0  0  0  0  0
   44.2622   34.9263   39.6867 H   0  0  0  0  0  0  0  0  0  0  0  0
   43.7704   36.7642   43.6563 H   0  0  0  0  0  0  0  0  0  0  0  0
   44.3758   32.8800   41.8373 H   0  0  0  0  0  0  0  0  0  0  0  0
   46.1077   33.8237   45.6308 H   0  0  0  0  0  0  0  0  0  0  0  0
   39.2874   35.1617   41.0971 H   0  0  0  0  0  0  0  0  0  0  0  0
   39.2172   36.4860   39.8860 H   0  0  0  0  0  0  0  0  0  0  0  0
   39.4324   33.5514   39.5180 H   0  0  0  0  0  0  0  0  0  0  0  0
   38.7117   34.8091   38.4572 H   0  0  0  0  0  0  0  0  0  0  0  0
   40.4884   34.5445   38.4572 H   0  0  0  0  0  0  0  0  0  0  0  0
  1  2  1  0
  1  7  1  0
  3  2  1  0
  4  5  1  0
  4  3  1  0
  5  1  1  0
  6 11  2  0
  7  8  2  0
  7  6  1  0
  8  9  1  0
  9 10  2  0
 11 10  1  0
 12  3  1  0
 13 12  1  0
  1 14  1  6
  2 15  1  0
  2 16  1  0
  3 17  1  1
  4 18  1  0
  4 19  1  0
  5 20  1  0
  5 21  1  0
  6 22  1  0
  8 23  1  0
 10 24  1  0
 12 25  1  0
 12 26  1  0
 13 27  1  0
 13 28  1  0
 13 29  1  0
M  ISO  8  14  13  15  13  16  13  17  13  18  13  19  13  20  13  21  13
M  ISO  8  22  14  23  14  24  14  25   8  26   8  27   8  28   8  29   8
M  END
>  <minimizedAffinity>  (1) 
-4.30812454

>  <minimizedRMSD>  (1) 
1.12697494

$$$$
