
     RDKit          3D

 24 25  0  0  1  0  0  0  0  0999 V2000
   44.0180   34.8810   41.6020 C   0  0  2  0  0  0  0  0  0  0  0  0
   42.4930   35.1150   41.4780 C   0  0  0  0  0  0  0  0  0  0  0  0
   42.4610   35.3140   39.9480 C   0  0  1  0  0  0  0  0  0  0  0  0
   43.2920   34.1470   39.4810 C   0  0  0  0  0  0  0  0  0  0  0  0
   44.2050   33.7840   40.6460 C   0  0  0  0  0  0  0  0  0  0  0  0
   44.2410   35.6900   43.8900 C   0  0  0  0  0  0  0  0  0  0  0  0
   44.4460   34.6520   42.9650 C   0  0  0  0  0  0  0  0  0  0  0  0
   45.0800   33.4810   43.4040 C   0  0  0  0  0  0  0  0  0  0  0  0
   45.4750   33.3890   44.7120 N   0  0  0  0  0  0  0  0  0  0  0  0
   45.2620   34.4160   45.5850 C   0  0  0  0  0  0  0  0  0  0  0  0
   44.6480   35.5610   45.1820 N   0  0  0  0  0  0  0  0  0  0  0  0
   40.7870   35.2710   39.3160 S   0  0  0  0  0  0  0  0  0  0  0  0
   44.6591   35.7421   41.3621 H   0  0  0  0  0  0  0  0  0  0  0  0
   41.9052   34.2435   41.8020 H   0  0  0  0  0  0  0  0  0  0  0  0
   42.0662   35.9232   42.0900 H   0  0  0  0  0  0  0  0  0  0  0  0
   42.8418   36.2868   39.6035 H   0  0  0  0  0  0  0  0  0  0  0  0
   42.6443   33.2958   39.2242 H   0  0  0  0  0  0  0  0  0  0  0  0
   43.8712   34.4012   38.5811 H   0  0  0  0  0  0  0  0  0  0  0  0
   43.9071   32.8231   41.0910 H   0  0  0  0  0  0  0  0  0  0  0  0
   45.2546   33.6657   40.3390 H   0  0  0  0  0  0  0  0  0  0  0  0
   43.7459   36.6173   43.5659 H   0  0  0  0  0  0  0  0  0  0  0  0
   45.2576   32.6481   42.7077 H   0  0  0  0  0  0  0  0  0  0  0  0
   45.5916   34.3165   46.6297 H   0  0  0  0  0  0  0  0  0  0  0  0
   39.9040   35.2483   40.3632 H   0  0  0  0  0  0  0  0  0  0  0  0
  1  7  1  0
  2  1  1  0
  3  2  1  0
  4  3  1  0
  4  5  1  0
  5  1  1  0
  6 11  2  0
  7  8  2  0
  7  6  1  0
  8  9  1  0
  9 10  2  0
 11 10  1  0
 12  3  1  0
  1 13  1  6
  2 14  1  0
  2 15  1  0
  3 16  1  1
  4 17  1  0
  4 18  1  0
  5 19  1  0
  5 20  1  0
  6 21  1  0
  8 22  1  0
 10 23  1  0
 12 24  1  0
M  ISO  8  13  13  14  13  15  13  16  13  17  13  18  13  19  13  20  13
M  ISO  4  21  14  22  14  23  14  24  11
M  END
>  <minimizedAffinity>  (1) 
-3.74371386

>  <minimizedRMSD>  (1) 
0.0438829735

$$$$
