
     RDKit          3D

 24 25  0  0  1  0  0  0  0  0999 V2000
   44.0440   34.8630   41.5950 C   0  0  2  0  0  0  0  0  0  0  0  0
   42.5150   35.0860   41.4650 C   0  0  0  0  0  0  0  0  0  0  0  0
   42.5190   35.3050   39.9340 C   0  0  1  0  0  0  0  0  0  0  0  0
   43.3130   34.1040   39.4890 C   0  0  0  0  0  0  0  0  0  0  0  0
   44.2090   33.7440   40.6600 C   0  0  0  0  0  0  0  0  0  0  0  0
   44.2480   35.6950   43.8810 C   0  0  0  0  0  0  0  0  0  0  0  0
   44.4690   34.6430   42.9770 C   0  0  0  0  0  0  0  0  0  0  0  0
   45.1070   33.4500   43.4250 C   0  0  0  0  0  0  0  0  0  0  0  0
   45.4750   33.3940   44.7330 N   0  0  0  0  0  0  0  0  0  0  0  0
   45.2500   34.4260   45.5920 C   0  0  0  0  0  0  0  0  0  0  0  0
   44.6430   35.5690   45.1770 N   0  0  0  0  0  0  0  0  0  0  0  0
   41.2460   35.3570   39.4310 O   0  0  0  0  0  0  0  0  0  0  0  0
   44.6913   35.7169   41.3463 H   0  0  0  0  0  0  0  0  0  0  0  0
   41.9290   34.2057   41.7677 H   0  0  0  0  0  0  0  0  0  0  0  0
   42.0664   35.8756   42.0857 H   0  0  0  0  0  0  0  0  0  0  0  0
   42.9473   36.2572   39.5878 H   0  0  0  0  0  0  0  0  0  0  0  0
   42.6403   33.2672   39.2499 H   0  0  0  0  0  0  0  0  0  0  0  0
   43.8979   34.3185   38.5824 H   0  0  0  0  0  0  0  0  0  0  0  0
   43.8872   32.7988   41.1217 H   0  0  0  0  0  0  0  0  0  0  0  0
   45.2568   33.5961   40.3597 H   0  0  0  0  0  0  0  0  0  0  0  0
   43.7566   36.6189   43.5420 H   0  0  0  0  0  0  0  0  0  0  0  0
   45.2941   32.6091   42.7410 H   0  0  0  0  0  0  0  0  0  0  0  0
   45.5654   34.3330   46.6417 H   0  0  0  0  0  0  0  0  0  0  0  0
   40.5968   35.3835   40.1780 H   0  0  0  0  0  0  0  0  0  0  0  0
  1  7  1  0
  2  1  1  0
  3  2  1  0
  4  3  1  0
  4  5  1  0
  5  1  1  0
  6 11  2  0
  7  8  2  0
  7  6  1  0
  8  9  1  0
  9 10  2  0
 11 10  1  0
 12  3  1  0
  1 13  1  6
  2 14  1  0
  2 15  1  0
  3 16  1  1
  4 17  1  0
  4 18  1  0
  5 19  1  0
  5 20  1  0
  6 21  1  0
  8 22  1  0
 10 23  1  0
 12 24  1  0
M  ISO  8  13  13  14  13  15  13  16  13  17  13  18  13  19  13  20  13
M  ISO  4  21  14  22  14  23  14  24   3
M  END
>  <minimizedAffinity>  (1) 
-3.70722032

>  <minimizedRMSD>  (1) 
0.0272419732

$$$$
