
     RDKit          3D

 25 26  0  0  1  0  0  0  0  0999 V2000
   44.0550   34.8660   41.5990 C   0  0  2  0  0  0  0  0  0  0  0  0
   42.5360   35.1160   41.4680 C   0  0  0  0  0  0  0  0  0  0  0  0
   42.5010   35.2980   39.9370 C   0  0  1  0  0  0  0  0  0  0  0  0
   43.3180   34.1100   39.4880 C   0  0  0  0  0  0  0  0  0  0  0  0
   44.2280   33.7540   40.6590 C   0  0  0  0  0  0  0  0  0  0  0  0
   44.2530   35.6870   43.8850 C   0  0  0  0  0  0  0  0  0  0  0  0
   44.4700   34.6420   42.9700 C   0  0  0  0  0  0  0  0  0  0  0  0
   45.1090   33.4550   43.4310 C   0  0  0  0  0  0  0  0  0  0  0  0
   45.4700   33.4040   44.7340 N   0  0  0  0  0  0  0  0  0  0  0  0
   45.2520   34.4230   45.6030 C   0  0  0  0  0  0  0  0  0  0  0  0
   44.6430   35.5670   45.1830 N   0  0  0  0  0  0  0  0  0  0  0  0
   41.1630   35.3240   39.4300 N   0  0  0  0  0  0  0  0  0  0  0  0
   44.7092   35.7147   41.3507 H   0  0  0  0  0  0  0  0  0  0  0  0
   41.9384   34.2551   41.8023 H   0  0  0  0  0  0  0  0  0  0  0  0
   42.1208   35.9384   42.0691 H   0  0  0  0  0  0  0  0  0  0  0  0
   42.9014   36.2542   39.5691 H   0  0  0  0  0  0  0  0  0  0  0  0
   42.6589   33.2633   39.2458 H   0  0  0  0  0  0  0  0  0  0  0  0
   43.8997   34.3417   38.5836 H   0  0  0  0  0  0  0  0  0  0  0  0
   43.9193   32.8033   41.1181 H   0  0  0  0  0  0  0  0  0  0  0  0
   45.2760   33.6198   40.3529 H   0  0  0  0  0  0  0  0  0  0  0  0
   43.7624   36.6120   43.5478 H   0  0  0  0  0  0  0  0  0  0  0  0
   45.3018   32.6109   42.7525 H   0  0  0  0  0  0  0  0  0  0  0  0
   45.5686   34.3249   46.6519 H   0  0  0  0  0  0  0  0  0  0  0  0
   40.4980   35.3369   40.2165 H   0  0  0  0  0  0  0  0  0  0  0  0
   41.0303   36.1677   38.8543 H   0  0  0  0  0  0  0  0  0  0  0  0
  1  7  1  0
  2  1  1  0
  3  2  1  0
  4  3  1  0
  4  5  1  0
  5  1  1  0
  6 11  2  0
  7  8  2  0
  7  6  1  0
  8  9  1  0
  9 10  2  0
 11 10  1  0
 12  3  1  0
  1 13  1  6
  2 14  1  0
  2 15  1  0
  3 16  1  1
  4 17  1  0
  4 18  1  0
  5 19  1  0
  5 20  1  0
  6 21  1  0
  8 22  1  0
 10 23  1  0
 12 24  1  0
 12 25  1  0
M  ISO  8  13  13  14  13  15  13  16  13  17  13  18  13  19  13  20  13
M  ISO  5  21  14  22  14  23  14  24   5  25   5
M  END
>  <minimizedAffinity>  (1) 
-3.71503258

>  <minimizedRMSD>  (1) 
0.0246241037

$$$$
