
     RDKit          3D

 26 28  0  0  0  0  0  0  0  0999 V2000
   46.8920   32.5160   44.8700 C   0  0  0  0  0  0  0  0  0  0  0  0
   47.7380   32.1920   43.8720 N   0  0  0  0  0  0  0  0  0  0  0  0
   47.8980   32.9240   42.7660 C   0  0  0  0  0  0  0  0  0  0  0  0
   47.2070   34.0590   42.5810 N   0  0  0  0  0  0  0  0  0  0  0  0
   46.3430   34.4660   43.5150 C   0  0  0  0  0  0  0  0  0  0  0  0
   45.6380   35.6320   43.3230 C   0  0  0  0  0  0  0  0  0  0  0  0
   44.7420   36.0840   44.2650 C   0  0  0  0  0  0  0  0  0  0  0  0
   44.5750   35.3270   45.4080 C   0  0  0  0  0  0  0  0  0  0  0  0
   45.3080   34.1650   45.5490 C   0  0  0  0  0  0  0  0  0  0  0  0
   46.2120   33.6830   44.6310 C   0  0  0  0  0  0  0  0  0  0  0  0
   45.4550   29.7510   46.8660 C   0  0  0  0  0  0  0  0  0  0  0  0
   45.8010   30.6730   45.8740 C   0  0  0  0  0  0  0  0  0  0  0  0
   46.7210   31.7070   46.0700 C   0  0  0  0  0  0  0  0  0  0  0  0
   47.2100   31.6940   47.3000 N   0  0  0  0  0  0  0  0  0  0  0  0
   46.9150   30.8450   48.2740 C   0  0  0  0  0  0  0  0  0  0  0  0
   46.0400   29.8730   48.0660 N   0  0  0  0  0  0  0  0  0  0  0  0
   47.5760   31.0520   49.4930 N   0  0  0  0  0  0  0  0  0  0  0  0
   48.6078   32.5908   41.9945 H   0  0  0  0  0  0  0  0  0  0  0  0
   45.7930   36.2124   42.4015 H   0  0  0  0  0  0  0  0  0  0  0  0
   44.1783   37.0162   44.1127 H   0  0  0  0  0  0  0  0  0  0  0  0
   43.8711   35.6438   46.1917 H   0  0  0  0  0  0  0  0  0  0  0  0
   45.1571   33.5789   46.4675 H   0  0  0  0  0  0  0  0  0  0  0  0
   44.7262   28.9511   46.6684 H   0  0  0  0  0  0  0  0  0  0  0  0
   45.3242   30.5800   44.8871 H   0  0  0  0  0  0  0  0  0  0  0  0
   47.3920   30.4275   50.2911 H   0  0  0  0  0  0  0  0  0  0  0  0
   48.2456   31.8286   49.5904 H   0  0  0  0  0  0  0  0  0  0  0  0
  1 13  1  0
  2  1  2  0
  3  2  1  0
  4  3  2  0
  4  5  1  0
  5 10  2  0
  6  5  1  0
  6  7  2  0
  7  8  1  0
  8  9  2  0
 10  1  1  0
 10  9  1  0
 11 16  2  0
 12 13  2  0
 12 11  1  0
 13 14  1  0
 14 15  2  0
 15 17  1  0
 16 15  1  0
  3 18  1  0
  6 19  1  0
  7 20  1  0
  8 21  1  0
  9 22  1  0
 11 23  1  0
 12 24  1  0
 17 25  1  0
 17 26  1  0
M  ISO  7  18  14  19  14  20  14  21  14  22  14  23  14  24  14
M  END
>  <minimizedAffinity>  (1) 
-5.45331192

>  <minimizedRMSD>  (1) 
0.657093942

$$$$
