
     RDKit          3D

 30 32  0  0  0  0  0  0  0  0999 V2000
   46.8330   32.5840   45.0090 C   0  0  0  0  0  0  0  0  0  0  0  0
   47.7170   32.1640   44.0800 N   0  0  0  0  0  0  0  0  0  0  0  0
   47.9390   32.8010   42.9260 C   0  0  0  0  0  0  0  0  0  0  0  0
   47.2810   33.9240   42.6120 N   0  0  0  0  0  0  0  0  0  0  0  0
   46.3740   34.4290   43.4730 C   0  0  0  0  0  0  0  0  0  0  0  0
   45.7010   35.5760   43.1580 C   0  0  0  0  0  0  0  0  0  0  0  0
   44.7670   36.1180   44.0190 C   0  0  0  0  0  0  0  0  0  0  0  0
   44.5460   35.4560   45.2060 C   0  0  0  0  0  0  0  0  0  0  0  0
   45.2510   34.3020   45.4790 C   0  0  0  0  0  0  0  0  0  0  0  0
   46.1850   33.7360   44.6440 C   0  0  0  0  0  0  0  0  0  0  0  0
   47.2080   31.9890   48.6410 C   0  0  0  0  0  0  0  0  0  0  0  0
   47.2670   32.4720   47.3310 C   0  0  0  0  0  0  0  0  0  0  0  0
   46.5990   31.8800   46.2650 C   0  0  0  0  0  0  0  0  0  0  0  0
   45.9100   30.8160   46.6590 N   0  0  0  0  0  0  0  0  0  0  0  0
   45.8140   30.3140   47.8780 C   0  0  0  0  0  0  0  0  0  0  0  0
   46.4610   30.8950   48.8780 N   0  0  0  0  0  0  0  0  0  0  0  0
   44.9600   29.1040   48.0040 C   0  0  0  0  0  0  0  0  0  0  0  0
   44.4730   28.5800   46.6770 C   0  0  0  0  0  0  0  0  0  0  0  0
   48.6776   32.3941   42.2197 H   0  0  0  0  0  0  0  0  0  0  0  0
   45.9071   36.0770   42.2006 H   0  0  0  0  0  0  0  0  0  0  0  0
   44.2224   37.0399   43.7671 H   0  0  0  0  0  0  0  0  0  0  0  0
   43.8141   35.8437   45.9299 H   0  0  0  0  0  0  0  0  0  0  0  0
   45.0510   33.7973   46.4357 H   0  0  0  0  0  0  0  0  0  0  0  0
   47.7557   32.4880   49.4540 H   0  0  0  0  0  0  0  0  0  0  0  0
   47.8739   33.3677   47.1328 H   0  0  0  0  0  0  0  0  0  0  0  0
   45.5439   28.3140   48.4988 H   0  0  0  0  0  0  0  0  0  0  0  0
   44.0728   29.3895   48.5882 H   0  0  0  0  0  0  0  0  0  0  0  0
   43.7331   27.7839   46.8464 H   0  0  0  0  0  0  0  0  0  0  0  0
   44.0074   29.3983   46.1082 H   0  0  0  0  0  0  0  0  0  0  0  0
   45.3232   28.1755   46.1082 H   0  0  0  0  0  0  0  0  0  0  0  0
  1 13  1  0
  2  1  2  0
  3  2  1  0
  4  3  2  0
  4  5  1  0
  5 10  2  0
  6  5  1  0
  6  7  2  0
  7  8  1  0
  8  9  2  0
 10  1  1  0
 10  9  1  0
 11 16  2  0
 12 11  1  0
 13 14  1  0
 13 12  2  0
 14 15  2  0
 15 17  1  0
 15 16  1  0
 18 17  1  0
  3 19  1  0
  6 20  1  0
  7 21  1  0
  8 22  1  0
  9 23  1  0
 11 24  1  0
 12 25  1  0
 17 26  1  0
 17 27  1  0
 18 28  1  0
 18 29  1  0
 18 30  1  0
M  ISO  8  19  14  20  14  21  14  22  14  23  14  24  14  25  14  26   8
M  ISO  4  27   8  28   8  29   8  30   8
M  END
>  <minimizedAffinity>  (1) 
-5.42154694

>  <minimizedRMSD>  (1) 
2.21179509

$$$$
