
     RDKit          3D

 37 38  0  0  1  0  0  0  0  0999 V2000
   44.1780   34.7750   41.6000 C   0  0  2  0  0  0  0  0  0  0  0  0
   42.6340   34.6590   41.3820 C   0  0  0  0  0  0  0  0  0  0  0  0
   42.6750   34.9880   39.8710 C   0  0  1  0  0  0  0  0  0  0  0  0
   43.6910   33.9770   39.4350 C   0  0  0  0  0  0  0  0  0  0  0  0
   44.6720   33.8450   40.6050 C   0  0  0  0  0  0  0  0  0  0  0  0
   44.3060   35.6520   43.8670 C   0  0  0  0  0  0  0  0  0  0  0  0
   44.5560   34.5930   42.9930 C   0  0  0  0  0  0  0  0  0  0  0  0
   45.1840   33.3940   43.4700 C   0  0  0  0  0  0  0  0  0  0  0  0
   45.5120   33.3420   44.7860 N   0  0  0  0  0  0  0  0  0  0  0  0
   45.2570   34.3950   45.6300 C   0  0  0  0  0  0  0  0  0  0  0  0
   44.6650   35.5300   45.1810 N   0  0  0  0  0  0  0  0  0  0  0  0
   41.3470   34.9170   39.2500 C   0  0  0  0  0  0  0  0  0  0  0  0
   41.2020   35.8560   38.1110 C   0  0  0  0  0  0  0  0  0  0  0  0
   41.2240   33.4930   38.6890 C   0  0  0  0  0  0  0  0  0  0  0  0
   40.2600   35.0460   40.2760 C   0  0  0  0  0  0  0  0  0  0  0  0
   40.0800   36.4750   40.5260 N   0  0  0  0  0  0  0  0  0  0  0  0
   44.6328   35.7646   41.4455 H   0  0  0  0  0  0  0  0  0  0  0  0
   42.2477   33.6502   41.5894 H   0  0  0  0  0  0  0  0  0  0  0  0
   41.9839   35.2773   42.0184 H   0  0  0  0  0  0  0  0  0  0  0  0
   42.9522   36.0129   39.5834 H   0  0  0  0  0  0  0  0  0  0  0  0
   43.2070   33.0109   39.2292 H   0  0  0  0  0  0  0  0  0  0  0  0
   44.2006   34.2857   38.5103 H   0  0  0  0  0  0  0  0  0  0  0  0
   44.6714   32.8179   40.9987 H   0  0  0  0  0  0  0  0  0  0  0  0
   45.7086   34.0622   40.3079 H   0  0  0  0  0  0  0  0  0  0  0  0
   43.8264   36.5729   43.5037 H   0  0  0  0  0  0  0  0  0  0  0  0
   45.3914   32.5502   42.7955 H   0  0  0  0  0  0  0  0  0  0  0  0
   45.5382   34.3165   46.6905 H   0  0  0  0  0  0  0  0  0  0  0  0
   41.0446   36.8752   38.4938 H   0  0  0  0  0  0  0  0  0  0  0  0
   42.1145   35.8317   37.4973 H   0  0  0  0  0  0  0  0  0  0  0  0
   40.3393   35.5575   37.4973 H   0  0  0  0  0  0  0  0  0  0  0  0
   41.1620   32.7754   39.5204 H   0  0  0  0  0  0  0  0  0  0  0  0
   40.3161   33.4190   38.0723 H   0  0  0  0  0  0  0  0  0  0  0  0
   42.1057   33.2644   38.0723 H   0  0  0  0  0  0  0  0  0  0  0  0
   39.3258   34.6080   39.8946 H   0  0  0  0  0  0  0  0  0  0  0  0
   40.5269   34.5148   41.2015 H   0  0  0  0  0  0  0  0  0  0  0  0
   40.0585   36.6458   41.5415 H   0  0  0  0  0  0  0  0  0  0  0  0
   40.8617   36.9981   40.1063 H   0  0  0  0  0  0  0  0  0  0  0  0
  1  7  1  0
  2  1  1  0
  3  2  1  0
  4  3  1  0
  4  5  1  0
  5  1  1  0
  6 11  2  0
  7  8  2  0
  7  6  1  0
  8  9  1  0
  9 10  2  0
 11 10  1  0
 12  3  1  0
 12 15  1  0
 13 12  1  0
 14 12  1  0
 15 16  1  0
  1 17  1  6
  2 18  1  0
  2 19  1  0
  3 20  1  1
  4 21  1  0
  4 22  1  0
  5 23  1  0
  5 24  1  0
  6 25  1  0
  8 26  1  0
 10 27  1  0
 13 28  1  0
 13 29  1  0
 13 30  1  0
 14 31  1  0
 14 32  1  0
 14 33  1  0
 15 34  1  0
 15 35  1  0
 16 36  1  0
 16 37  1  0
M  ISO  8  17  13  18  13  19  13  20  13  21  13  22  13  23  13  24  13
M  ISO  8  25  14  26  14  27  14  28   8  29   8  30   8  31   8  32   8
M  ISO  5  33   8  34   8  35   8  36   5  37   5
M  END
>  <minimizedAffinity>  (1) 
-4.78543186

>  <minimizedRMSD>  (1) 
0.520487666

$$$$
