
     RDKit          3D

 27 29  0  0  0  0  0  0  0  0999 V2000
   46.9710   32.6890   44.5570 C   0  0  0  0  0  0  0  0  0  0  0  0
   47.7910   32.4370   43.5120 N   0  0  0  0  0  0  0  0  0  0  0  0
   47.8990   33.1990   42.4310 C   0  0  0  0  0  0  0  0  0  0  0  0
   47.1690   34.3110   42.3030 N   0  0  0  0  0  0  0  0  0  0  0  0
   46.3150   34.6720   43.2750 C   0  0  0  0  0  0  0  0  0  0  0  0
   45.5550   35.8200   43.1540 C   0  0  0  0  0  0  0  0  0  0  0  0
   44.6770   36.2010   44.1390 C   0  0  0  0  0  0  0  0  0  0  0  0
   44.5860   35.3960   45.2440 C   0  0  0  0  0  0  0  0  0  0  0  0
   45.3600   34.2580   45.3300 C   0  0  0  0  0  0  0  0  0  0  0  0
   46.2510   33.8400   44.3680 C   0  0  0  0  0  0  0  0  0  0  0  0
   45.7110   29.8280   46.5320 C   0  0  0  0  0  0  0  0  0  0  0  0
   45.9940   30.7970   45.5560 C   0  0  0  0  0  0  0  0  0  0  0  0
   46.8710   31.8420   45.7290 C   0  0  0  0  0  0  0  0  0  0  0  0
   47.4250   31.8260   46.9450 N   0  0  0  0  0  0  0  0  0  0  0  0
   47.1970   30.9380   47.9050 C   0  0  0  0  0  0  0  0  0  0  0  0
   46.3460   29.9400   47.7100 N   0  0  0  0  0  0  0  0  0  0  0  0
   47.9440   31.1470   49.1690 C   0  0  0  0  0  0  0  0  0  0  0  0
   48.5974   32.9120   41.6311 H   0  0  0  0  0  0  0  0  0  0  0  0
   45.6553   36.4406   42.2513 H   0  0  0  0  0  0  0  0  0  0  0  0
   44.0718   37.1147   44.0447 H   0  0  0  0  0  0  0  0  0  0  0  0
   43.8970   35.6570   46.0608 H   0  0  0  0  0  0  0  0  0  0  0  0
   45.2578   33.6390   46.2336 H   0  0  0  0  0  0  0  0  0  0  0  0
   44.9992   29.0116   46.3398 H   0  0  0  0  0  0  0  0  0  0  0  0
   45.4793   30.7146   44.5873 H   0  0  0  0  0  0  0  0  0  0  0  0
   47.2775   30.9605   50.0240 H   0  0  0  0  0  0  0  0  0  0  0  0
   48.7963   30.4528   49.2103 H   0  0  0  0  0  0  0  0  0  0  0  0
   48.3123   32.1827   49.2103 H   0  0  0  0  0  0  0  0  0  0  0  0
  1 13  1  0
  2  1  2  0
  3  2  1  0
  4  3  2  0
  4  5  1  0
  5 10  2  0
  6  5  1  0
  6  7  2  0
  7  8  1  0
  8  9  2  0
 10  1  1  0
 10  9  1  0
 11 16  2  0
 12 13  2  0
 12 11  1  0
 13 14  1  0
 14 15  2  0
 15 17  1  0
 16 15  1  0
  3 18  1  0
  6 19  1  0
  7 20  1  0
  8 21  1  0
  9 22  1  0
 11 23  1  0
 12 24  1  0
 17 25  1  0
 17 26  1  0
 17 27  1  0
M  ISO  8  18  14  19  14  20  14  21  14  22  14  23  14  24  14  25   8
M  ISO  2  26   8  27   8
M  END
>  <minimizedAffinity>  (1) 
-5.13216448

>  <minimizedRMSD>  (1) 
0.86899972

$$$$
