
     RDKit          3D

 55 58  0  0  1  0  0  0  0  0999 V2000
   41.7610   34.6420   39.1250 C   0  0  0  0  0  0  0  0  0  0  0  0
   44.4200   34.7000   41.6950 C   0  0  2  0  0  0  0  0  0  0  0  0
   42.8890   34.5390   41.3570 C   0  0  0  0  0  0  0  0  0  0  0  0
   43.0460   34.8010   39.8530 C   0  0  1  0  0  0  0  0  0  0  0  0
   44.1250   33.8290   39.5260 C   0  0  0  0  0  0  0  0  0  0  0  0
   45.0240   33.7940   40.7680 C   0  0  0  0  0  0  0  0  0  0  0  0
   44.3310   35.6760   43.9210 C   0  0  0  0  0  0  0  0  0  0  0  0
   44.6700   34.5990   43.1210 C   0  0  0  0  0  0  0  0  0  0  0  0
   45.2760   33.4230   43.6890 C   0  0  0  0  0  0  0  0  0  0  0  0
   45.5040   33.4130   45.0320 N   0  0  0  0  0  0  0  0  0  0  0  0
   45.1580   34.5020   45.8150 C   0  0  0  0  0  0  0  0  0  0  0  0
   44.5830   35.6150   45.2700 N   0  0  0  0  0  0  0  0  0  0  0  0
   41.5020   35.8080   38.2310 C   0  0  0  0  0  0  0  0  0  0  0  0
   41.9370   33.4320   38.2380 C   0  0  0  0  0  0  0  0  0  0  0  0
   40.6420   34.3420   40.0500 C   0  0  0  0  0  0  0  0  0  0  0  0
   39.4230   33.9490   39.2590 C   0  0  2  0  0  0  0  0  0  0  0  0
   38.1020   33.7250   39.8770 C   0  0  0  0  0  0  0  0  0  0  0  0
   38.8560   32.5130   39.5230 C   0  0  2  0  0  0  0  0  0  0  0  0
   40.1360   30.0430   42.8070 C   0  0  0  0  0  0  0  0  0  0  0  0
   38.9390   29.8690   42.1510 C   0  0  0  0  0  0  0  0  0  0  0  0
   38.6000   30.7140   41.0880 C   0  0  0  0  0  0  0  0  0  0  0  0
   39.4380   31.7480   40.6530 C   0  0  0  0  0  0  0  0  0  0  0  0
   40.6230   31.8950   41.3290 C   0  0  0  0  0  0  0  0  0  0  0  0
   40.9520   31.0720   42.3620 C   0  0  0  0  0  0  0  0  0  0  0  0
   40.6760   29.0600   44.1430 S   0  0  0  0  0  0  0  0  0  0  0  0
   40.2150   29.6200   45.4510 O   0  0  0  0  0  0  0  0  0  0  0  0
   42.1750   28.9560   44.1880 O   0  0  0  0  0  0  0  0  0  0  0  0
   44.8819   35.6874   41.5480 H   0  0  0  0  0  0  0  0  0  0  0  0
   42.5060   33.5318   41.5779 H   0  0  0  0  0  0  0  0  0  0  0  0
   42.1776   35.1693   41.9108 H   0  0  0  0  0  0  0  0  0  0  0  0
   43.3130   35.8258   39.5555 H   0  0  0  0  0  0  0  0  0  0  0  0
   43.7007   32.8335   39.3287 H   0  0  0  0  0  0  0  0  0  0  0  0
   44.6818   34.1209   38.6233 H   0  0  0  0  0  0  0  0  0  0  0  0
   45.0602   32.7785   41.1893 H   0  0  0  0  0  0  0  0  0  0  0  0
   46.0605   34.0774   40.5328 H   0  0  0  0  0  0  0  0  0  0  0  0
   43.8652   36.5705   43.4818 H   0  0  0  0  0  0  0  0  0  0  0  0
   45.5457   32.5619   43.0599 H   0  0  0  0  0  0  0  0  0  0  0  0
   45.3501   34.4700   46.8976 H   0  0  0  0  0  0  0  0  0  0  0  0
   41.3036   36.7012   38.8416 H   0  0  0  0  0  0  0  0  0  0  0  0
   42.3825   35.9860   37.5961 H   0  0  0  0  0  0  0  0  0  0  0  0
   40.6289   35.5965   37.5961 H   0  0  0  0  0  0  0  0  0  0  0  0
   42.0674   32.5357   38.8622 H   0  0  0  0  0  0  0  0  0  0  0  0
   41.0471   33.3103   37.6030 H   0  0  0  0  0  0  0  0  0  0  0  0
   42.8247   33.5689   37.6030 H   0  0  0  0  0  0  0  0  0  0  0  0
   40.9290   33.5143   40.7152 H   0  0  0  0  0  0  0  0  0  0  0  0
   40.4151   35.2356   40.6500 H   0  0  0  0  0  0  0  0  0  0  0  0
   39.7634   34.5633   38.4124 H   0  0  0  0  0  0  0  0  0  0  0  0
   37.9548   33.9763   40.9377 H   0  0  0  0  0  0  0  0  0  0  0  0
   37.0887   34.0780   39.6346 H   0  0  0  0  0  0  0  0  0  0  0  0
   38.6790   31.6155   38.9122 H   0  0  0  0  0  0  0  0  0  0  0  0
   38.2510   29.0686   42.4609 H   0  0  0  0  0  0  0  0  0  0  0  0
   37.6392   30.5600   40.5750 H   0  0  0  0  0  0  0  0  0  0  0  0
   41.3196   32.6923   41.0307 H   0  0  0  0  0  0  0  0  0  0  0  0
   41.9146   31.2314   42.8699 H   0  0  0  0  0  0  0  0  0  0  0  0
   40.1335   27.8177   43.9448 H   0  0  0  0  0  0  0  0  0  0  0  0
  1  4  1  0
  1 15  1  0
  2  8  1  0
  3  2  1  0
  4  3  1  0
  5  4  1  0
  5  6  1  0
  6  2  1  0
  7 12  2  0
  8  9  2  0
  8  7  1  0
  9 10  1  0
 10 11  2  0
 12 11  1  0
 13  1  1  0
 14  1  1  0
 16 18  1  0
 16 17  1  0
 16 15  1  0
 18 17  1  0
 18 22  1  0
 19 25  1  0
 20 19  2  0
 21 20  1  0
 22 21  2  0
 22 23  1  0
 23 24  2  0
 24 19  1  0
 25 27  2  0
 25 26  2  0
  2 28  1  6
  3 29  1  0
  3 30  1  0
  4 31  1  1
  5 32  1  0
  5 33  1  0
  6 34  1  0
  6 35  1  0
  7 36  1  0
  9 37  1  0
 11 38  1  0
 13 39  1  0
 13 40  1  0
 13 41  1  0
 14 42  1  0
 14 43  1  0
 14 44  1  0
 15 45  1  0
 15 46  1  0
 16 47  1  6
 17 48  1  0
 17 49  1  0
 18 50  1  6
 20 51  1  0
 21 52  1  0
 23 53  1  0
 24 54  1  0
 25 55  1  0
M  ISO  8  28  13  29  13  30  13  31  13  32  13  33  13  34  13  35  13
M  ISO  8  36  14  37  14  38  14  39   8  40   8  41   8  42   8  43   8
M  ISO  8  44   8  45   8  46   8  47  13  48  13  49  13  50  13  51  14
M  ISO  4  52  14  53  14  54  14  55  11
M  END
>  <minimizedAffinity>  (1) 
-6.22620058

>  <minimizedRMSD>  (1) 
1.32364941

$$$$
