
     RDKit          3D

 53 57  0  0  1  0  0  0  0  0999 V2000
   41.5050   34.9690   38.9170 C   0  0  0  0  0  0  0  0  0  0  0  0
   44.2470   34.8030   41.3780 C   0  0  2  0  0  0  0  0  0  0  0  0
   42.6950   34.8120   41.1000 C   0  0  0  0  0  0  0  0  0  0  0  0
   42.8220   35.0070   39.5830 C   0  0  1  0  0  0  0  0  0  0  0  0
   43.7930   33.9160   39.2530 C   0  0  0  0  0  0  0  0  0  0  0  0
   44.7110   33.7960   40.4770 C   0  0  0  0  0  0  0  0  0  0  0  0
   44.2830   35.8560   43.5730 C   0  0  0  0  0  0  0  0  0  0  0  0
   44.5380   34.7390   42.7970 C   0  0  0  0  0  0  0  0  0  0  0  0
   45.1040   33.5460   43.3840 C   0  0  0  0  0  0  0  0  0  0  0  0
   45.3740   33.5610   44.7180 N   0  0  0  0  0  0  0  0  0  0  0  0
   45.1090   34.6930   45.4720 C   0  0  0  0  0  0  0  0  0  0  0  0
   44.5740   35.8220   44.9160 N   0  0  0  0  0  0  0  0  0  0  0  0
   41.3990   36.0350   37.8740 C   0  0  0  0  0  0  0  0  0  0  0  0
   41.4610   33.6400   38.1650 C   0  0  0  0  0  0  0  0  0  0  0  0
   40.3930   34.9620   39.8810 C   0  0  0  0  0  0  0  0  0  0  0  0
   39.7930   33.5660   39.9540 C   0  0  2  0  0  0  0  0  0  0  0  0
   38.3630   33.3500   40.2650 C   0  0  0  0  0  0  0  0  0  0  0  0
   39.3120   33.1320   41.3710 C   0  0  1  0  0  0  0  0  0  0  0  0
   39.6140   31.7920   41.7840 N   0  0  0  0  0  0  0  0  0  0  0  0
   40.6740   31.2570   42.4540 C   0  0  0  0  0  0  0  0  0  0  0  0
   40.4630   29.9170   42.5910 N   0  0  0  0  0  0  0  0  0  0  0  0
   39.2800   29.6180   42.0100 C   0  0  0  0  0  0  0  0  0  0  0  0
   38.6110   28.3990   41.8760 C   0  0  0  0  0  0  0  0  0  0  0  0
   37.4150   28.3880   41.2340 N   0  0  0  0  0  0  0  0  0  0  0  0
   36.8850   29.5380   40.7350 C   0  0  0  0  0  0  0  0  0  0  0  0
   37.5550   30.6950   40.8790 N   0  0  0  0  0  0  0  0  0  0  0  0
   38.7560   30.7940   41.5080 C   0  0  0  0  0  0  0  0  0  0  0  0
   44.8140   35.7214   41.1658 H   0  0  0  0  0  0  0  0  0  0  0  0
   42.2068   33.8639   41.3698 H   0  0  0  0  0  0  0  0  0  0  0  0
   42.0838   35.5382   41.6559 H   0  0  0  0  0  0  0  0  0  0  0  0
   43.1839   35.9845   39.2315 H   0  0  0  0  0  0  0  0  0  0  0  0
   43.2614   32.9691   39.0775 H   0  0  0  0  0  0  0  0  0  0  0  0
   44.3615   34.1402   38.3384 H   0  0  0  0  0  0  0  0  0  0  0  0
   44.6230   32.7982   40.9316 H   0  0  0  0  0  0  0  0  0  0  0  0
   45.7716   33.9272   40.2164 H   0  0  0  0  0  0  0  0  0  0  0  0
   43.8522   36.7611   43.1201 H   0  0  0  0  0  0  0  0  0  0  0  0
   45.3099   32.6549   42.7728 H   0  0  0  0  0  0  0  0  0  0  0  0
   45.3354   34.6832   46.5484 H   0  0  0  0  0  0  0  0  0  0  0  0
   41.3014   37.0163   38.3613 H   0  0  0  0  0  0  0  0  0  0  0  0
   42.3025   36.0253   37.2467 H   0  0  0  0  0  0  0  0  0  0  0  0
   40.5151   35.8476   37.2467 H   0  0  0  0  0  0  0  0  0  0  0  0
   41.4335   32.8108   38.8872 H   0  0  0  0  0  0  0  0  0  0  0  0
   40.5612   33.6058   37.5331 H   0  0  0  0  0  0  0  0  0  0  0  0
   42.3565   33.5464   37.5331 H   0  0  0  0  0  0  0  0  0  0  0  0
   40.7668   35.2527   40.8739 H   0  0  0  0  0  0  0  0  0  0  0  0
   39.6217   35.6757   39.5558 H   0  0  0  0  0  0  0  0  0  0  0  0
   40.4512   33.1976   39.1533 H   0  0  0  0  0  0  0  0  0  0  0  0
   37.6822   34.2133   40.3005 H   0  0  0  0  0  0  0  0  0  0  0  0
   37.5766   32.7292   39.8110 H   0  0  0  0  0  0  0  0  0  0  0  0
   39.4055   33.5124   42.3989 H   0  0  0  0  0  0  0  0  0  0  0  0
   41.5500   31.8118   42.8213 H   0  0  0  0  0  0  0  0  0  0  0  0
   39.0425   27.4715   42.2805 H   0  0  0  0  0  0  0  0  0  0  0  0
   35.9147   29.5211   40.2172 H   0  0  0  0  0  0  0  0  0  0  0  0
  1  4  1  0
  1 15  1  0
  2  8  1  0
  3  2  1  0
  4  3  1  0
  5  4  1  0
  5  6  1  0
  6  2  1  0
  7 12  2  0
  8  9  2  0
  8  7  1  0
  9 10  1  0
 10 11  2  0
 12 11  1  0
 13  1  1  0
 14  1  1  0
 15 16  1  0
 16 17  1  0
 16 18  1  0
 17 18  1  0
 18 19  1  0
 19 20  1  0
 20 21  2  0
 22 21  1  0
 23 22  2  0
 24 23  1  0
 25 26  1  0
 25 24  2  0
 26 27  2  0
 27 19  1  0
 27 22  1  0
  2 28  1  6
  3 29  1  0
  3 30  1  0
  4 31  1  1
  5 32  1  0
  5 33  1  0
  6 34  1  0
  6 35  1  0
  7 36  1  0
  9 37  1  0
 11 38  1  0
 13 39  1  0
 13 40  1  0
 13 41  1  0
 14 42  1  0
 14 43  1  0
 14 44  1  0
 15 45  1  0
 15 46  1  0
 16 47  1  6
 17 48  1  0
 17 49  1  0
 18 50  1  1
 20 51  1  0
 23 52  1  0
 25 53  1  0
M  ISO  8  28  13  29  13  30  13  31  13  32  13  33  13  34  13  35  13
M  ISO  8  36  14  37  14  38  14  39   8  40   8  41   8  42   8  43   8
M  ISO  8  44   8  45   8  46   8  47  13  48  13  49  13  50  13  51  14
M  ISO  2  52  14  53  14
M  END
>  <minimizedAffinity>  (1) 
-6.62180281

>  <minimizedRMSD>  (1) 
3.696244

$$$$
