
     RDKit          3D

 25 27  0  0  0  0  0  0  0  0999 V2000
   46.9620   32.6360   44.5310 C   0  0  0  0  0  0  0  0  0  0  0  0
   47.7310   32.3910   43.4460 N   0  0  0  0  0  0  0  0  0  0  0  0
   47.7780   33.1740   42.3700 C   0  0  0  0  0  0  0  0  0  0  0  0
   47.0430   34.2870   42.2930 N   0  0  0  0  0  0  0  0  0  0  0  0
   46.2420   34.6260   43.3190 C   0  0  0  0  0  0  0  0  0  0  0  0
   45.4840   35.7710   43.2440 C   0  0  0  0  0  0  0  0  0  0  0  0
   44.6530   36.1480   44.2740 C   0  0  0  0  0  0  0  0  0  0  0  0
   44.6120   35.3330   45.3840 C   0  0  0  0  0  0  0  0  0  0  0  0
   45.3890   34.1930   45.4170 C   0  0  0  0  0  0  0  0  0  0  0  0
   46.2220   33.7910   44.4120 C   0  0  0  0  0  0  0  0  0  0  0  0
   45.7090   29.7940   46.5520 C   0  0  0  0  0  0  0  0  0  0  0  0
   45.9590   30.7670   45.5690 C   0  0  0  0  0  0  0  0  0  0  0  0
   46.9150   31.7680   45.6970 C   0  0  0  0  0  0  0  0  0  0  0  0
   47.5490   31.6770   46.8570 N   0  0  0  0  0  0  0  0  0  0  0  0
   47.3600   30.7880   47.8190 C   0  0  0  0  0  0  0  0  0  0  0  0
   46.4390   29.8450   47.6680 N   0  0  0  0  0  0  0  0  0  0  0  0
   48.4060   30.9710   49.2590 S   0  0  0  0  0  0  0  0  0  0  0  0
   48.4332   32.8997   41.5301 H   0  0  0  0  0  0  0  0  0  0  0  0
   45.5432   36.3983   42.3423 H   0  0  0  0  0  0  0  0  0  0  0  0
   44.0459   37.0633   44.2135 H   0  0  0  0  0  0  0  0  0  0  0  0
   43.9656   35.5887   46.2365 H   0  0  0  0  0  0  0  0  0  0  0  0
   45.3335   33.5630   46.3170 H   0  0  0  0  0  0  0  0  0  0  0  0
   44.9409   29.0200   46.4070 H   0  0  0  0  0  0  0  0  0  0  0  0
   45.3635   30.7345   44.6447 H   0  0  0  0  0  0  0  0  0  0  0  0
   47.6490   30.8386   50.3931 H   0  0  0  0  0  0  0  0  0  0  0  0
  1 13  1  0
  2  1  2  0
  3  2  1  0
  4  3  2  0
  4  5  1  0
  5 10  2  0
  6  5  1  0
  6  7  2  0
  7  8  1  0
  8  9  2  0
 10  1  1  0
 10  9  1  0
 11 16  2  0
 12 13  2  0
 12 11  1  0
 13 14  1  0
 14 15  2  0
 15 17  1  0
 16 15  1  0
  3 18  1  0
  6 19  1  0
  7 20  1  0
  8 21  1  0
  9 22  1  0
 11 23  1  0
 12 24  1  0
 17 25  1  0
M  ISO  8  18  14  19  14  20  14  21  14  22  14  23  14  24  14  25  11
M  END
>  <minimizedAffinity>  (1) 
-4.97731924

>  <minimizedRMSD>  (1) 
0.978862762

$$$$
