
     RDKit          3D

 49 51  0  0  1  0  0  0  0  0999 V2000
   41.6960   34.7370   39.0990 C   0  0  0  0  0  0  0  0  0  0  0  0
   44.3910   34.7100   41.6170 C   0  0  2  0  0  0  0  0  0  0  0  0
   42.8500   34.5830   41.2990 C   0  0  0  0  0  0  0  0  0  0  0  0
   42.9880   34.8680   39.7980 C   0  0  1  0  0  0  0  0  0  0  0  0
   44.0630   33.8890   39.4410 C   0  0  0  0  0  0  0  0  0  0  0  0
   44.9700   33.7970   40.6810 C   0  0  0  0  0  0  0  0  0  0  0  0
   44.3460   35.6790   43.8500 C   0  0  0  0  0  0  0  0  0  0  0  0
   44.6590   34.6010   43.0390 C   0  0  0  0  0  0  0  0  0  0  0  0
   45.2560   33.4080   43.5910 C   0  0  0  0  0  0  0  0  0  0  0  0
   45.4960   33.3850   44.9310 N   0  0  0  0  0  0  0  0  0  0  0  0
   45.1750   34.4730   45.7200 C   0  0  0  0  0  0  0  0  0  0  0  0
   44.6100   35.6060   45.1980 N   0  0  0  0  0  0  0  0  0  0  0  0
   41.5490   35.7830   38.0380 C   0  0  0  0  0  0  0  0  0  0  0  0
   41.7610   33.4020   38.3610 C   0  0  0  0  0  0  0  0  0  0  0  0
   40.5600   34.6640   40.0320 C   0  0  0  0  0  0  0  0  0  0  0  0
   39.3940   33.9650   39.3510 C   0  0  2  0  0  0  0  0  0  0  0  0
   38.0130   34.0720   39.8710 C   0  0  0  0  0  0  0  0  0  0  0  0
   38.7310   32.8230   40.1880 C   0  0  2  0  0  0  0  0  0  0  0  0
   39.2060   32.6970   41.5530 N   0  0  0  0  0  0  0  0  0  0  0  0
   39.7860   31.4370   41.9500 C   0  0  0  0  0  0  0  0  0  0  0  0
   39.4180   30.3340   41.3920 N   0  0  0  0  0  0  0  0  0  0  0  0
   40.7890   31.4180   42.9850 N   0  0  0  0  0  0  0  0  0  0  0  0
   38.6900   30.3980   40.6480 H   0  0  0  0  0  0  0  0  0  0  0  0
   44.8679   35.6894   41.4641 H   0  0  0  0  0  0  0  0  0  0  0  0
   42.4517   33.5793   41.5086 H   0  0  0  0  0  0  0  0  0  0  0  0
   42.1593   35.2170   41.8744 H   0  0  0  0  0  0  0  0  0  0  0  0
   43.2616   35.8922   39.5045 H   0  0  0  0  0  0  0  0  0  0  0  0
   43.6259   32.9060   39.2116 H   0  0  0  0  0  0  0  0  0  0  0  0
   44.6238   34.2083   38.5502 H   0  0  0  0  0  0  0  0  0  0  0  0
   44.9722   32.7743   41.0860 H   0  0  0  0  0  0  0  0  0  0  0  0
   46.0177   34.0415   40.4518 H   0  0  0  0  0  0  0  0  0  0  0  0
   43.8911   36.5839   43.4208 H   0  0  0  0  0  0  0  0  0  0  0  0
   45.5078   32.5487   42.9521 H   0  0  0  0  0  0  0  0  0  0  0  0
   45.3794   34.4277   46.7999 H   0  0  0  0  0  0  0  0  0  0  0  0
   41.4107   36.7670   38.5099 H   0  0  0  0  0  0  0  0  0  0  0  0
   42.4535   35.8003   37.4123 H   0  0  0  0  0  0  0  0  0  0  0  0
   40.6747   35.5503   37.4123 H   0  0  0  0  0  0  0  0  0  0  0  0
   41.8010   32.5807   39.0917 H   0  0  0  0  0  0  0  0  0  0  0  0
   40.8673   33.2881   37.7298 H   0  0  0  0  0  0  0  0  0  0  0  0
   42.6615   33.3754   37.7298 H   0  0  0  0  0  0  0  0  0  0  0  0
   40.8558   34.0975   40.9273 H   0  0  0  0  0  0  0  0  0  0  0  0
   40.2592   35.6803   40.3263 H   0  0  0  0  0  0  0  0  0  0  0  0
   39.8351   34.1132   38.3543 H   0  0  0  0  0  0  0  0  0  0  0  0
   37.7947   34.7876   40.6774 H   0  0  0  0  0  0  0  0  0  0  0  0
   37.0432   34.2851   39.3975 H   0  0  0  0  0  0  0  0  0  0  0  0
   38.5401   31.7484   40.0506 H   0  0  0  0  0  0  0  0  0  0  0  0
   39.1316   33.4811   42.2167 H   0  0  0  0  0  0  0  0  0  0  0  0
   41.2106   30.5248   43.2772 H   0  0  0  0  0  0  0  0  0  0  0  0
   41.0841   32.2976   43.4324 H   0  0  0  0  0  0  0  0  0  0  0  0
  1  4  1  0
  1 15  1  0
  2  8  1  0
  3  2  1  0
  4  3  1  0
  5  4  1  0
  5  6  1  0
  6  2  1  0
  7 12  2  0
  8  9  2  0
  8  7  1  0
  9 10  1  0
 10 11  2  0
 12 11  1  0
 13  1  1  0
 14  1  1  0
 16 17  1  0
 16 15  1  0
 16 18  1  0
 17 18  1  0
 18 19  1  0
 19 20  1  0
 20 22  1  0
 21 20  2  0
 23 21  1  0
  2 24  1  6
  3 25  1  0
  3 26  1  0
  4 27  1  1
  5 28  1  0
  5 29  1  0
  6 30  1  0
  6 31  1  0
  7 32  1  0
  9 33  1  0
 11 34  1  0
 13 35  1  0
 13 36  1  0
 13 37  1  0
 14 38  1  0
 14 39  1  0
 14 40  1  0
 15 41  1  0
 15 42  1  0
 16 43  1  6
 17 44  1  0
 17 45  1  0
 18 46  1  6
 19 47  1  0
 22 48  1  0
 22 49  1  0
M  ISO  8  24  13  25  13  26  13  27  13  28  13  29  13  30  13  31  13
M  ISO  8  32  14  33  14  34  14  35   8  36   8  37   8  38   8  39   8
M  ISO  7  40   8  41   8  42   8  43  13  44  13  45  13  46  13
M  END
>  <minimizedAffinity>  (1) 
-5.90403557

>  <minimizedRMSD>  (1) 
1.30210447

$$$$
