
     RDKit          3D

 51 54  0  0  1  0  0  0  0  0999 V2000
   43.5650   34.3540   41.5280 C   0  0  0  0  0  0  0  0  0  0  0  0
   46.0710   33.7930   44.1720 C   0  0  2  0  0  0  0  0  0  0  0  0
   44.8920   33.2140   43.3020 C   0  0  0  0  0  0  0  0  0  0  0  0
   44.6100   34.5210   42.5560 C   0  0  1  0  0  0  0  0  0  0  0  0
   45.9920   34.8410   42.0780 C   0  0  0  0  0  0  0  0  0  0  0  0
   46.9350   34.3600   43.1850 C   0  0  0  0  0  0  0  0  0  0  0  0
   46.4710   33.1030   46.4740 C   0  0  0  0  0  0  0  0  0  0  0  0
   46.5670   32.8050   45.1260 C   0  0  0  0  0  0  0  0  0  0  0  0
   47.1590   31.5670   44.6730 C   0  0  0  0  0  0  0  0  0  0  0  0
   47.6190   30.7060   45.6240 N   0  0  0  0  0  0  0  0  0  0  0  0
   47.5110   31.0240   46.9680 C   0  0  0  0  0  0  0  0  0  0  0  0
   46.9490   32.2010   47.3930 N   0  0  0  0  0  0  0  0  0  0  0  0
   44.1450   34.4410   40.1500 C   0  0  0  0  0  0  0  0  0  0  0  0
   43.0580   32.9230   41.6850 C   0  0  0  0  0  0  0  0  0  0  0  0
   42.4170   35.2460   41.7530 C   0  0  0  0  0  0  0  0  0  0  0  0
   41.5330   35.2490   40.5150 C   0  0  2  0  0  0  0  0  0  0  0  0
   40.3790   36.1570   40.3820 C   0  0  0  0  0  0  0  0  0  0  0  0
   40.0680   34.7640   40.7500 C   0  0  1  0  0  0  0  0  0  0  0  0
   39.4450   33.9600   39.6660 C   0  0  0  0  0  0  0  0  0  0  0  0
   38.9950   34.4410   38.4540 C   0  0  0  0  0  0  0  0  0  0  0  0
   38.4320   33.6090   37.5130 C   0  0  0  0  0  0  0  0  0  0  0  0
   38.2930   32.2490   37.7470 C   0  0  0  0  0  0  0  0  0  0  0  0
   38.7540   31.8050   38.9680 C   0  0  0  0  0  0  0  0  0  0  0  0
   39.3040   32.6230   39.8830 N   0  0  0  0  0  0  0  0  0  0  0  0
   45.8308   34.5866   44.8948 H   0  0  0  0  0  0  0  0  0  0  0  0
   45.2127   32.4010   42.6341 H   0  0  0  0  0  0  0  0  0  0  0  0
   44.0530   32.7414   43.8337 H   0  0  0  0  0  0  0  0  0  0  0  0
   44.1723   35.3469   43.1360 H   0  0  0  0  0  0  0  0  0  0  0  0
   46.2043   34.3126   41.1369 H   0  0  0  0  0  0  0  0  0  0  0  0
   46.1142   35.9160   41.8792 H   0  0  0  0  0  0  0  0  0  0  0  0
   47.6332   33.6029   42.7988 H   0  0  0  0  0  0  0  0  0  0  0  0
   47.5535   35.1746   43.5898 H   0  0  0  0  0  0  0  0  0  0  0  0
   46.0181   34.0492   46.8050 H   0  0  0  0  0  0  0  0  0  0  0  0
   47.2354   31.3288   43.6018 H   0  0  0  0  0  0  0  0  0  0  0  0
   47.8871   30.3114   47.7168 H   0  0  0  0  0  0  0  0  0  0  0  0
   45.2307   34.6039   40.2188 H   0  0  0  0  0  0  0  0  0  0  0  0
   43.9484   33.5033   39.6095 H   0  0  0  0  0  0  0  0  0  0  0  0
   43.6819   35.2797   39.6095 H   0  0  0  0  0  0  0  0  0  0  0  0
   42.9718   32.6798   42.7543 H   0  0  0  0  0  0  0  0  0  0  0  0
   42.0718   32.8289   41.2069 H   0  0  0  0  0  0  0  0  0  0  0  0
   43.7650   32.2290   41.2069 H   0  0  0  0  0  0  0  0  0  0  0  0
   41.8379   34.8888   42.6173 H   0  0  0  0  0  0  0  0  0  0  0  0
   42.7764   36.2664   41.9518 H   0  0  0  0  0  0  0  0  0  0  0  0
   42.3871   35.0219   39.8601 H   0  0  0  0  0  0  0  0  0  0  0  0
   40.2335   36.9557   41.1243 H   0  0  0  0  0  0  0  0  0  0  0  0
   40.0301   36.8198   39.5764 H   0  0  0  0  0  0  0  0  0  0  0  0
   39.5405   34.2477   41.5656 H   0  0  0  0  0  0  0  0  0  0  0  0
   39.0883   35.5148   38.2343 H   0  0  0  0  0  0  0  0  0  0  0  0
   38.0859   34.0305   36.5577 H   0  0  0  0  0  0  0  0  0  0  0  0
   37.8446   31.5696   37.0072 H   0  0  0  0  0  0  0  0  0  0  0  0
   38.6682   30.7341   39.2044 H   0  0  0  0  0  0  0  0  0  0  0  0
  1 14  1  0
  1 15  1  0
  1  4  1  0
  2  8  1  0
  3  2  1  0
  4  3  1  0
  5  4  1  0
  5  6  1  0
  6  2  1  0
  7 12  2  0
  8  7  1  0
  9  8  2  0
  9 10  1  0
 10 11  2  0
 11 12  1  0
 13  1  1  0
 16 18  1  0
 16 15  1  0
 17 16  1  0
 17 18  1  0
 19 24  1  0
 19 18  1  0
 20 19  2  0
 21 22  2  0
 21 20  1  0
 22 23  1  0
 23 24  2  0
  2 25  1  1
  3 26  1  0
  3 27  1  0
  4 28  1  1
  5 29  1  0
  5 30  1  0
  6 31  1  0
  6 32  1  0
  7 33  1  0
  9 34  1  0
 11 35  1  0
 13 36  1  0
 13 37  1  0
 13 38  1  0
 14 39  1  0
 14 40  1  0
 14 41  1  0
 15 42  1  0
 15 43  1  0
 16 44  1  6
 17 45  1  0
 17 46  1  0
 18 47  1  1
 20 48  1  0
 21 49  1  0
 22 50  1  0
 23 51  1  0
M  ISO  8  25  13  26  13  27  13  28  13  29  13  30  13  31  13  32  13
M  ISO  8  33  14  34  14  35  14  36   8  37   8  38   8  39   8  40   8
M  ISO  8  41   8  42   8  43   8  44  13  45  13  46  13  47  13  48  14
M  ISO  3  49  14  50  14  51  14
M  END
>  <minimizedAffinity>  (1) 
-6.10317087

>  <minimizedRMSD>  (1) 
2.93190956

$$$$
