
     RDKit          3D

 47 50  0  0  1  0  0  0  0  0999 V2000
   41.7300   34.7150   39.0010 C   0  0  0  0  0  0  0  0  0  0  0  0
   44.4010   34.7020   41.5480 C   0  0  2  0  0  0  0  0  0  0  0  0
   42.8630   34.6040   41.2180 C   0  0  0  0  0  0  0  0  0  0  0  0
   43.0170   34.8520   39.7120 C   0  0  1  0  0  0  0  0  0  0  0  0
   44.0920   33.8680   39.3780 C   0  0  0  0  0  0  0  0  0  0  0  0
   44.9690   33.7580   40.6350 C   0  0  0  0  0  0  0  0  0  0  0  0
   44.3440   35.7120   43.7610 C   0  0  0  0  0  0  0  0  0  0  0  0
   44.6540   34.6150   42.9760 C   0  0  0  0  0  0  0  0  0  0  0  0
   45.2340   33.4220   43.5500 C   0  0  0  0  0  0  0  0  0  0  0  0
   45.4660   33.4150   44.8920 N   0  0  0  0  0  0  0  0  0  0  0  0
   45.1470   34.5260   45.6570 C   0  0  0  0  0  0  0  0  0  0  0  0
   44.5960   35.6580   45.1100 N   0  0  0  0  0  0  0  0  0  0  0  0
   41.5500   35.8130   38.0050 C   0  0  0  0  0  0  0  0  0  0  0  0
   41.8310   33.4210   38.1970 C   0  0  0  0  0  0  0  0  0  0  0  0
   40.5980   34.5610   39.9310 C   0  0  0  0  0  0  0  0  0  0  0  0
   39.4130   33.9570   39.1960 C   0  0  2  0  0  0  0  0  0  0  0  0
   38.1080   33.7500   39.8560 C   0  0  0  0  0  0  0  0  0  0  0  0
   38.9560   32.5570   39.6830 C   0  0  2  0  0  0  0  0  0  0  0  0
   39.6850   31.9620   40.8340 C   0  0  0  0  0  0  0  0  0  0  0  0
   39.6820   32.1840   42.1770 N   0  0  0  0  0  0  0  0  0  0  0  0
   40.5210   31.3760   42.7490 O   0  0  0  0  0  0  0  0  0  0  0  0
   41.0980   30.6100   41.8530 C   0  0  0  0  0  0  0  0  0  0  0  0
   40.5960   30.9570   40.6770 N   0  0  0  0  0  0  0  0  0  0  0  0
   44.9008   35.6675   41.3807 H   0  0  0  0  0  0  0  0  0  0  0  0
   42.4399   33.6146   41.4464 H   0  0  0  0  0  0  0  0  0  0  0  0
   42.1836   35.2677   41.7728 H   0  0  0  0  0  0  0  0  0  0  0  0
   43.2990   35.8694   39.4033 H   0  0  0  0  0  0  0  0  0  0  0  0
   43.6524   32.8902   39.1316 H   0  0  0  0  0  0  0  0  0  0  0  0
   44.6775   34.1910   38.5046 H   0  0  0  0  0  0  0  0  0  0  0  0
   44.9275   32.7405   41.0509 H   0  0  0  0  0  0  0  0  0  0  0  0
   46.0295   33.9622   40.4260 H   0  0  0  0  0  0  0  0  0  0  0  0
   43.9024   36.6135   43.3112 H   0  0  0  0  0  0  0  0  0  0  0  0
   45.4793   32.5506   42.9251 H   0  0  0  0  0  0  0  0  0  0  0  0
   45.3420   34.4996   46.7393 H   0  0  0  0  0  0  0  0  0  0  0  0
   41.3939   36.7652   38.5332 H   0  0  0  0  0  0  0  0  0  0  0  0
   42.4481   35.8866   37.3741 H   0  0  0  0  0  0  0  0  0  0  0  0
   40.6754   35.5960   37.3741 H   0  0  0  0  0  0  0  0  0  0  0  0
   41.8978   32.5658   38.8856 H   0  0  0  0  0  0  0  0  0  0  0  0
   40.9386   33.3126   37.5631 H   0  0  0  0  0  0  0  0  0  0  0  0
   42.7294   33.4524   37.5631 H   0  0  0  0  0  0  0  0  0  0  0  0
   40.8917   33.8987   40.7587 H   0  0  0  0  0  0  0  0  0  0  0  0
   40.3165   35.5466   40.3302 H   0  0  0  0  0  0  0  0  0  0  0  0
   39.7137   34.4440   38.2567 H   0  0  0  0  0  0  0  0  0  0  0  0
   37.9432   34.1539   40.8658 H   0  0  0  0  0  0  0  0  0  0  0  0
   37.0715   33.9892   39.5759 H   0  0  0  0  0  0  0  0  0  0  0  0
   38.7968   31.5609   39.2444 H   0  0  0  0  0  0  0  0  0  0  0  0
   41.8517   29.8314   42.0417 H   0  0  0  0  0  0  0  0  0  0  0  0
  1  4  1  0
  1 15  1  0
  2  8  1  0
  3  2  1  0
  4  3  1  0
  5  4  1  0
  5  6  1  0
  6  2  1  0
  7 12  2  0
  8  9  2  0
  8  7  1  0
  9 10  1  0
 10 11  2  0
 12 11  1  0
 13  1  1  0
 14  1  1  0
 16 18  1  0
 16 17  1  0
 16 15  1  0
 18 17  1  0
 18 19  1  0
 19 20  2  0
 20 21  1  0
 22 21  1  0
 23 19  1  0
 23 22  2  0
  2 24  1  6
  3 25  1  0
  3 26  1  0
  4 27  1  1
  5 28  1  0
  5 29  1  0
  6 30  1  0
  6 31  1  0
  7 32  1  0
  9 33  1  0
 11 34  1  0
 13 35  1  0
 13 36  1  0
 13 37  1  0
 14 38  1  0
 14 39  1  0
 14 40  1  0
 15 41  1  0
 15 42  1  0
 16 43  1  6
 17 44  1  0
 17 45  1  0
 18 46  1  6
 22 47  1  0
M  ISO  8  24  13  25  13  26  13  27  13  28  13  29  13  30  13  31  13
M  ISO  8  32  14  33  14  34  14  35   8  36   8  37   8  38   8  39   8
M  ISO  8  40   8  41   8  42   8  43  13  44  13  45  13  46  13  47  14
M  END
>  <minimizedAffinity>  (1) 
-5.6368289

>  <minimizedRMSD>  (1) 
1.30897379

$$$$
