
     RDKit          3D

 55 59  0  0  1  0  0  0  0  0999 V2000
   42.1810   34.5280   39.2710 C   0  0  0  0  0  0  0  0  0  0  0  0
   44.6700   34.6670   41.9920 C   0  0  2  0  0  0  0  0  0  0  0  0
   43.1810   34.3910   41.5500 C   0  0  0  0  0  0  0  0  0  0  0  0
   43.3970   34.7610   40.0750 C   0  0  1  0  0  0  0  0  0  0  0  0
   44.5880   33.9040   39.7680 C   0  0  0  0  0  0  0  0  0  0  0  0
   45.4150   33.8740   41.0650 C   0  0  0  0  0  0  0  0  0  0  0  0
   44.4150   35.5450   44.2480 C   0  0  0  0  0  0  0  0  0  0  0  0
   44.8430   34.5180   43.4260 C   0  0  0  0  0  0  0  0  0  0  0  0
   45.4660   33.3350   43.9740 C   0  0  0  0  0  0  0  0  0  0  0  0
   45.6200   33.2640   45.3250 N   0  0  0  0  0  0  0  0  0  0  0  0
   45.1830   34.3070   46.1240 C   0  0  0  0  0  0  0  0  0  0  0  0
   44.5900   35.4330   45.6100 N   0  0  0  0  0  0  0  0  0  0  0  0
   42.0040   35.6010   38.2480 C   0  0  0  0  0  0  0  0  0  0  0  0
   42.4340   33.2340   38.5020 C   0  0  0  0  0  0  0  0  0  0  0  0
   40.9910   34.3040   40.1120 C   0  0  0  0  0  0  0  0  0  0  0  0
   39.7540   34.2460   39.2250 C   0  0  2  0  0  0  0  0  0  0  0  0
   38.4090   34.0610   39.8140 C   0  0  0  0  0  0  0  0  0  0  0  0
   39.0250   32.8670   39.2080 C   0  0  1  0  0  0  0  0  0  0  0  0
   38.5140   32.5130   37.8880 N   0  0  0  0  0  0  0  0  0  0  0  0
   37.7660   33.2060   37.0260 C   0  0  0  0  0  0  0  0  0  0  0  0
   37.5360   32.4610   35.9160 N   0  0  0  0  0  0  0  0  0  0  0  0
   38.1370   31.2680   36.0500 C   0  0  0  0  0  0  0  0  0  0  0  0
   38.2920   30.0950   35.3250 C   0  0  0  0  0  0  0  0  0  0  0  0
   38.9910   29.0400   35.7740 N   0  0  0  0  0  0  0  0  0  0  0  0
   39.5650   29.1270   36.9830 C   0  0  0  0  0  0  0  0  0  0  0  0
   39.4270   30.2430   37.6920 N   0  0  0  0  0  0  0  0  0  0  0  0
   38.7330   31.3260   37.2760 C   0  0  0  0  0  0  0  0  0  0  0  0
   37.6730   30.0380   34.0530 N   0  0  0  0  0  0  0  0  0  0  0  0
   45.0460   35.6982   41.9191 H   0  0  0  0  0  0  0  0  0  0  0  0
   42.8817   33.3415   41.6880 H   0  0  0  0  0  0  0  0  0  0  0  0
   42.3840   34.9190   42.0941 H   0  0  0  0  0  0  0  0  0  0  0  0
   43.5824   35.8205   39.8447 H   0  0  0  0  0  0  0  0  0  0  0  0
   44.2700   32.8881   39.4908 H   0  0  0  0  0  0  0  0  0  0  0  0
   45.1689   34.2990   38.9215 H   0  0  0  0  0  0  0  0  0  0  0  0
   45.5199   32.8430   41.4339 H   0  0  0  0  0  0  0  0  0  0  0  0
   46.4349   34.2583   40.9159 H   0  0  0  0  0  0  0  0  0  0  0  0
   43.9407   36.4402   43.8194 H   0  0  0  0  0  0  0  0  0  0  0  0
   45.8051   32.5177   43.3205 H   0  0  0  0  0  0  0  0  0  0  0  0
   45.3163   34.2301   47.2132 H   0  0  0  0  0  0  0  0  0  0  0  0
   41.8449   36.5656   38.7522 H   0  0  0  0  0  0  0  0  0  0  0  0
   42.9045   35.6601   37.6191 H   0  0  0  0  0  0  0  0  0  0  0  0
   41.1322   35.3678   37.6191 H   0  0  0  0  0  0  0  0  0  0  0  0
   42.5950   32.4104   39.2131 H   0  0  0  0  0  0  0  0  0  0  0  0
   41.5632   33.0072   37.8693 H   0  0  0  0  0  0  0  0  0  0  0  0
   43.3261   33.3519   37.8693 H   0  0  0  0  0  0  0  0  0  0  0  0
   41.0985   33.3539   40.6559 H   0  0  0  0  0  0  0  0  0  0  0  0
   40.8891   35.1271   40.8346 H   0  0  0  0  0  0  0  0  0  0  0  0
   40.1723   34.9660   38.5062 H   0  0  0  0  0  0  0  0  0  0  0  0
   38.2872   34.1096   40.9062 H   0  0  0  0  0  0  0  0  0  0  0  0
   37.4445   34.5694   39.6683 H   0  0  0  0  0  0  0  0  0  0  0  0
   39.2373   31.8428   39.5486 H   0  0  0  0  0  0  0  0  0  0  0  0
   37.3925   34.2274   37.1911 H   0  0  0  0  0  0  0  0  0  0  0  0
   40.1447   28.2826   37.3843 H   0  0  0  0  0  0  0  0  0  0  0  0
   37.1360   30.8451   33.7050 H   0  0  0  0  0  0  0  0  0  0  0  0
   37.7597   29.1895   33.4756 H   0  0  0  0  0  0  0  0  0  0  0  0
  1  4  1  0
  1 15  1  0
  2  8  1  0
  3  2  1  0
  4  3  1  0
  5  4  1  0
  5  6  1  0
  6  2  1  0
  7 12  2  0
  8  9  2  0
  8  7  1  0
  9 10  1  0
 10 11  2  0
 12 11  1  0
 13  1  1  0
 14  1  1  0
 16 17  1  0
 16 15  1  0
 18 16  1  0
 18 17  1  0
 19 18  1  0
 20 19  1  0
 21 22  1  0
 21 20  2  0
 22 27  2  0
 23 24  2  0
 23 22  1  0
 24 25  1  0
 25 26  2  0
 27 26  1  0
 27 19  1  0
 28 23  1  0
  2 29  1  6
  3 30  1  0
  3 31  1  0
  4 32  1  1
  5 33  1  0
  5 34  1  0
  6 35  1  0
  6 36  1  0
  7 37  1  0
  9 38  1  0
 11 39  1  0
 13 40  1  0
 13 41  1  0
 13 42  1  0
 14 43  1  0
 14 44  1  0
 14 45  1  0
 15 46  1  0
 15 47  1  0
 16 48  1  6
 17 49  1  0
 17 50  1  0
 18 51  1  1
 20 52  1  0
 25 53  1  0
 28 54  1  0
 28 55  1  0
M  ISO  8  29  13  30  13  31  13  32  13  33  13  34  13  35  13  36  13
M  ISO  8  37  14  38  14  39  14  40   8  41   8  42   8  43   8  44   8
M  ISO  8  45   8  46   8  47   8  48  13  49  13  50  13  51  13  52  14
M  ISO  1  53  14
M  END
>  <minimizedAffinity>  (1) 
-5.53944302

>  <minimizedRMSD>  (1) 
1.63419318

$$$$
