
     RDKit          3D

 48 51  0  0  1  0  0  0  0  0999 V2000
   42.2490   34.3360   39.1460 C   0  0  0  0  0  0  0  0  0  0  0  0
   44.6860   34.5840   41.9040 C   0  0  2  0  0  0  0  0  0  0  0  0
   43.2060   34.2940   41.4460 C   0  0  0  0  0  0  0  0  0  0  0  0
   43.4520   34.5960   39.9640 C   0  0  1  0  0  0  0  0  0  0  0  0
   44.6540   33.7820   39.6980 C   0  0  0  0  0  0  0  0  0  0  0  0
   45.4340   33.7440   41.0220 C   0  0  0  0  0  0  0  0  0  0  0  0
   44.4180   35.5650   44.1150 C   0  0  0  0  0  0  0  0  0  0  0  0
   44.8340   34.4930   43.3440 C   0  0  0  0  0  0  0  0  0  0  0  0
   45.4230   33.3250   43.9540 C   0  0  0  0  0  0  0  0  0  0  0  0
   45.5550   33.3110   45.3080 N   0  0  0  0  0  0  0  0  0  0  0  0
   45.1320   34.3960   46.0580 C   0  0  0  0  0  0  0  0  0  0  0  0
   44.5720   35.5080   45.4780 N   0  0  0  0  0  0  0  0  0  0  0  0
   41.9890   35.4710   38.1920 C   0  0  0  0  0  0  0  0  0  0  0  0
   42.5790   33.1340   38.2890 C   0  0  0  0  0  0  0  0  0  0  0  0
   41.0780   33.9770   39.9720 C   0  0  0  0  0  0  0  0  0  0  0  0
   39.8690   34.7560   39.5030 C   0  0  2  0  0  0  0  0  0  0  0  0
   38.6300   34.8650   40.2840 C   0  0  0  0  0  0  0  0  0  0  0  0
   38.5970   33.9160   39.1630 C   0  0  2  0  0  0  0  0  0  0  0  0
   38.6150   32.4720   39.5390 C   0  0  0  0  0  0  0  0  0  0  0  0
   38.9730   31.4080   38.6560 C   0  0  0  0  0  0  0  0  0  0  0  0
   38.7680   29.9280   39.7240 S   0  0  0  0  0  0  0  0  0  0  0  0
   38.2310   31.0050   41.1950 C   0  0  0  0  0  0  0  0  0  0  0  0
   38.2760   32.0920   40.7520 N   0  0  0  0  0  0  0  0  0  0  0  0
   45.0713   35.6090   41.7994 H   0  0  0  0  0  0  0  0  0  0  0  0
   42.8994   33.2528   41.6249 H   0  0  0  0  0  0  0  0  0  0  0  0
   42.4008   34.8486   41.9501 H   0  0  0  0  0  0  0  0  0  0  0  0
   43.6342   35.6478   39.6985 H   0  0  0  0  0  0  0  0  0  0  0  0
   44.3680   32.7648   39.3923 H   0  0  0  0  0  0  0  0  0  0  0  0
   45.2589   34.2066   38.8832 H   0  0  0  0  0  0  0  0  0  0  0  0
   45.4851   32.7173   41.4135 H   0  0  0  0  0  0  0  0  0  0  0  0
   46.4738   34.0831   40.9041 H   0  0  0  0  0  0  0  0  0  0  0  0
   43.9698   36.4510   43.6416 H   0  0  0  0  0  0  0  0  0  0  0  0
   45.7549   32.4726   43.3431 H   0  0  0  0  0  0  0  0  0  0  0  0
   45.2481   34.3662   47.1514 H   0  0  0  0  0  0  0  0  0  0  0  0
   41.7789   36.3881   38.7618 H   0  0  0  0  0  0  0  0  0  0  0  0
   42.8745   35.6277   37.5585 H   0  0  0  0  0  0  0  0  0  0  0  0
   41.1236   35.2266   37.5585 H   0  0  0  0  0  0  0  0  0  0  0  0
   42.8145   32.2760   38.9359 H   0  0  0  0  0  0  0  0  0  0  0  0
   41.7151   32.8882   37.6540 H   0  0  0  0  0  0  0  0  0  0  0  0
   43.4473   33.3637   37.6540 H   0  0  0  0  0  0  0  0  0  0  0  0
   40.8790   32.8994   39.8764 H   0  0  0  0  0  0  0  0  0  0  0  0
   41.2844   34.2211   41.0245 H   0  0  0  0  0  0  0  0  0  0  0  0
   40.5233   35.5015   39.0275 H   0  0  0  0  0  0  0  0  0  0  0  0
   38.6082   34.4811   41.3146 H   0  0  0  0  0  0  0  0  0  0  0  0
   37.9927   35.7152   40.5686 H   0  0  0  0  0  0  0  0  0  0  0  0
   37.9795   33.7588   38.2664 H   0  0  0  0  0  0  0  0  0  0  0  0
   39.2906   31.4614   37.6042 H   0  0  0  0  0  0  0  0  0  0  0  0
   37.9481   30.6888   42.2099 H   0  0  0  0  0  0  0  0  0  0  0  0
  1  4  1  0
  1 15  1  0
  2  8  1  0
  3  2  1  0
  4  3  1  0
  5  4  1  0
  5  6  1  0
  6  2  1  0
  7 12  2  0
  8  9  2  0
  8  7  1  0
  9 10  1  0
 10 11  2  0
 12 11  1  0
 13  1  1  0
 14  1  1  0
 16 15  1  0
 16 17  1  0
 18 16  1  0
 18 19  1  0
 18 17  1  0
 19 23  1  0
 20 19  2  0
 20 21  1  0
 21 22  1  0
 23 22  2  0
  2 24  1  6
  3 25  1  0
  3 26  1  0
  4 27  1  1
  5 28  1  0
  5 29  1  0
  6 30  1  0
  6 31  1  0
  7 32  1  0
  9 33  1  0
 11 34  1  0
 13 35  1  0
 13 36  1  0
 13 37  1  0
 14 38  1  0
 14 39  1  0
 14 40  1  0
 15 41  1  0
 15 42  1  0
 16 43  1  6
 17 44  1  0
 17 45  1  0
 18 46  1  6
 20 47  1  0
 22 48  1  0
M  ISO  8  24  13  25  13  26  13  27  13  28  13  29  13  30  13  31  13
M  ISO  8  32  14  33  14  34  14  35   8  36   8  37   8  38   8  39   8
M  ISO  8  40   8  41   8  42   8  43  13  44  13  45  13  46  13  47  14
M  ISO  1  48  14
M  END
>  <minimizedAffinity>  (1) 
-5.46490192

>  <minimizedRMSD>  (1) 
1.33396602

$$$$
