
     RDKit          3D

 55 58  0  0  1  0  0  0  0  0999 V2000
   42.0530   34.2980   39.0370 C   0  0  0  0  0  0  0  0  0  0  0  0
   44.5640   34.5970   41.7230 C   0  0  2  0  0  0  0  0  0  0  0  0
   43.0660   34.3090   41.3150 C   0  0  0  0  0  0  0  0  0  0  0  0
   43.2680   34.5730   39.8220 C   0  0  1  0  0  0  0  0  0  0  0  0
   44.4570   33.7080   39.5530 C   0  0  0  0  0  0  0  0  0  0  0  0
   45.2830   33.7250   40.8480 C   0  0  0  0  0  0  0  0  0  0  0  0
   44.3750   35.6460   43.9120 C   0  0  0  0  0  0  0  0  0  0  0  0
   44.7460   34.5450   43.1590 C   0  0  0  0  0  0  0  0  0  0  0  0
   45.3240   33.3830   43.7930 C   0  0  0  0  0  0  0  0  0  0  0  0
   45.4870   33.4060   45.1440 N   0  0  0  0  0  0  0  0  0  0  0  0
   45.1060   34.5210   45.8710 C   0  0  0  0  0  0  0  0  0  0  0  0
   44.5570   35.6280   45.2730 N   0  0  0  0  0  0  0  0  0  0  0  0
   41.7350   35.4280   38.1030 C   0  0  0  0  0  0  0  0  0  0  0  0
   42.3720   33.0940   38.1720 C   0  0  0  0  0  0  0  0  0  0  0  0
   40.9140   33.9270   39.8990 C   0  0  0  0  0  0  0  0  0  0  0  0
   39.6080   34.4180   39.3130 C   0  0  2  0  0  0  0  0  0  0  0  0
   38.4220   34.6630   40.1640 C   0  0  0  0  0  0  0  0  0  0  0  0
   38.4120   33.4570   39.3200 C   0  0  2  0  0  0  0  0  0  0  0  0
   38.4900   32.1320   39.7310 N   0  0  0  0  0  0  0  0  0  0  0  0
   38.2300   31.7150   41.0280 C   0  0  0  0  0  0  0  0  0  0  0  0
   37.4870   30.4180   41.2000 C   0  0  0  0  0  0  0  0  0  0  0  0
   37.2930   29.6970   40.0300 O   0  0  0  0  0  0  0  0  0  0  0  0
   38.3620   29.7450   39.1690 C   0  0  0  0  0  0  0  0  0  0  0  0
   38.4490   31.1740   38.6840 C   0  0  0  0  0  0  0  0  0  0  0  0
   44.9567   35.6137   41.5747 H   0  0  0  0  0  0  0  0  0  0  0  0
   42.7566   33.2751   41.5279 H   0  0  0  0  0  0  0  0  0  0  0  0
   42.2813   34.8831   41.8295 H   0  0  0  0  0  0  0  0  0  0  0  0
   43.4482   35.6178   39.5290 H   0  0  0  0  0  0  0  0  0  0  0  0
   44.1393   32.6824   39.3139 H   0  0  0  0  0  0  0  0  0  0  0  0
   45.0395   34.0732   38.6943 H   0  0  0  0  0  0  0  0  0  0  0  0
   45.3524   32.7147   41.2776 H   0  0  0  0  0  0  0  0  0  0  0  0
   46.3162   34.0626   40.6793 H   0  0  0  0  0  0  0  0  0  0  0  0
   43.9375   36.5291   43.4234 H   0  0  0  0  0  0  0  0  0  0  0  0
   45.6236   32.5054   43.2014 H   0  0  0  0  0  0  0  0  0  0  0  0
   45.2476   34.5198   46.9618 H   0  0  0  0  0  0  0  0  0  0  0  0
   41.4824   36.3258   38.6863 H   0  0  0  0  0  0  0  0  0  0  0  0
   42.6093   35.6367   37.4689 H   0  0  0  0  0  0  0  0  0  0  0  0
   40.8802   35.1501   37.4689 H   0  0  0  0  0  0  0  0  0  0  0  0
   42.6006   32.2310   38.8147 H   0  0  0  0  0  0  0  0  0  0  0  0
   41.5052   32.8588   37.5369 H   0  0  0  0  0  0  0  0  0  0  0  0
   43.2416   33.3188   37.5369 H   0  0  0  0  0  0  0  0  0  0  0  0
   40.8765   32.8317   39.9939 H   0  0  0  0  0  0  0  0  0  0  0  0
   41.0536   34.3947   40.8848 H   0  0  0  0  0  0  0  0  0  0  0  0
   40.1573   35.0189   38.5732 H   0  0  0  0  0  0  0  0  0  0  0  0
   38.5071   34.5604   41.2559 H   0  0  0  0  0  0  0  0  0  0  0  0
   37.7346   35.5130   40.2867 H   0  0  0  0  0  0  0  0  0  0  0  0
   37.7011   33.0418   38.5904 H   0  0  0  0  0  0  0  0  0  0  0  0
   39.1970   31.6126   41.5422 H   0  0  0  0  0  0  0  0  0  0  0  0
   37.5589   32.4819   41.4420 H   0  0  0  0  0  0  0  0  0  0  0  0
   38.0563   29.7880   41.8994 H   0  0  0  0  0  0  0  0  0  0  0  0
   36.4853   30.6825   41.5695 H   0  0  0  0  0  0  0  0  0  0  0  0
   39.2870   29.4633   39.6935 H   0  0  0  0  0  0  0  0  0  0  0  0
   38.2334   29.0443   38.3308 H   0  0  0  0  0  0  0  0  0  0  0  0
   39.3623   31.2805   38.0802 H   0  0  0  0  0  0  0  0  0  0  0  0
   37.5358   31.3720   38.1036 H   0  0  0  0  0  0  0  0  0  0  0  0
  1  4  1  0
  1 15  1  0
  2  8  1  0
  3  2  1  0
  4  3  1  0
  5  4  1  0
  5  6  1  0
  6  2  1  0
  7 12  2  0
  8  9  2  0
  8  7  1  0
  9 10  1  0
 10 11  2  0
 12 11  1  0
 13  1  1  0
 14  1  1  0
 16 18  1  0
 16 15  1  0
 16 17  1  0
 18 19  1  0
 18 17  1  0
 19 20  1  0
 20 21  1  0
 22 21  1  0
 23 22  1  0
 24 23  1  0
 24 19  1  0
  2 25  1  6
  3 26  1  0
  3 27  1  0
  4 28  1  1
  5 29  1  0
  5 30  1  0
  6 31  1  0
  6 32  1  0
  7 33  1  0
  9 34  1  0
 11 35  1  0
 13 36  1  0
 13 37  1  0
 13 38  1  0
 14 39  1  0
 14 40  1  0
 14 41  1  0
 15 42  1  0
 15 43  1  0
 16 44  1  6
 17 45  1  0
 17 46  1  0
 18 47  1  6
 20 48  1  0
 20 49  1  0
 21 50  1  0
 21 51  1  0
 23 52  1  0
 23 53  1  0
 24 54  1  0
 24 55  1  0
M  ISO  8  25  13  26  13  27  13  28  13  29  13  30  13  31  13  32  13
M  ISO  8  33  14  34  14  35  14  36   8  37   8  38   8  39   8  40   8
M  ISO  8  41   8  42   8  43   8  44  13  45  13  46  13  47  13  48  13
M  ISO  7  49  13  50  13  51  13  52  13  53  13  54  13  55  13
M  END
>  <minimizedAffinity>  (1) 
-5.5933938

>  <minimizedRMSD>  (1) 
0.901777983

$$$$
