
     RDKit          3D

 49 52  0  0  1  0  0  0  0  0999 V2000
   42.2650   34.3590   39.1290 C   0  0  0  0  0  0  0  0  0  0  0  0
   44.6970   34.5660   41.9050 C   0  0  2  0  0  0  0  0  0  0  0  0
   43.2130   34.2880   41.4450 C   0  0  0  0  0  0  0  0  0  0  0  0
   43.4650   34.6070   39.9630 C   0  0  1  0  0  0  0  0  0  0  0  0
   44.6680   33.7840   39.6960 C   0  0  0  0  0  0  0  0  0  0  0  0
   45.4380   33.7230   41.0200 C   0  0  0  0  0  0  0  0  0  0  0  0
   44.4230   35.5520   44.1120 C   0  0  0  0  0  0  0  0  0  0  0  0
   44.8430   34.4790   43.3440 C   0  0  0  0  0  0  0  0  0  0  0  0
   45.4310   33.3200   43.9550 C   0  0  0  0  0  0  0  0  0  0  0  0
   45.5620   33.3170   45.3100 N   0  0  0  0  0  0  0  0  0  0  0  0
   45.1370   34.3990   46.0630 C   0  0  0  0  0  0  0  0  0  0  0  0
   44.5740   35.5020   45.4720 N   0  0  0  0  0  0  0  0  0  0  0  0
   41.9990   35.4980   38.2030 C   0  0  0  0  0  0  0  0  0  0  0  0
   42.5990   33.1620   38.2670 C   0  0  0  0  0  0  0  0  0  0  0  0
   41.0970   33.9870   39.9560 C   0  0  0  0  0  0  0  0  0  0  0  0
   39.9030   34.8290   39.5640 C   0  0  2  0  0  0  0  0  0  0  0  0
   38.6090   34.7490   40.2530 C   0  0  0  0  0  0  0  0  0  0  0  0
   38.6850   34.0370   38.9670 C   0  0  2  0  0  0  0  0  0  0  0  0
   38.7310   32.5600   39.0690 C   0  0  0  0  0  0  0  0  0  0  0  0
   39.0780   31.4530   38.1150 C   0  0  0  0  0  0  0  0  0  0  0  0
   38.9510   30.2380   38.6960 C   0  0  0  0  0  0  0  0  0  0  0  0
   38.5480   30.0420   40.0200 C   0  0  0  0  0  0  0  0  0  0  0  0
   38.2950   31.7400   40.5910 S   0  0  0  0  0  0  0  0  0  0  0  0
   45.0938   35.5869   41.8031 H   0  0  0  0  0  0  0  0  0  0  0  0
   42.9008   33.2465   41.6119 H   0  0  0  0  0  0  0  0  0  0  0  0
   42.4096   34.8394   41.9554 H   0  0  0  0  0  0  0  0  0  0  0  0
   43.6484   35.6621   39.7117 H   0  0  0  0  0  0  0  0  0  0  0  0
   44.3764   32.7727   39.3761 H   0  0  0  0  0  0  0  0  0  0  0  0
   45.2818   34.2153   38.8915 H   0  0  0  0  0  0  0  0  0  0  0  0
   45.4721   32.6923   41.4027 H   0  0  0  0  0  0  0  0  0  0  0  0
   46.4833   34.0477   40.9109 H   0  0  0  0  0  0  0  0  0  0  0  0
   43.9729   36.4350   43.6347 H   0  0  0  0  0  0  0  0  0  0  0  0
   45.7640   32.4644   43.3492 H   0  0  0  0  0  0  0  0  0  0  0  0
   45.2531   34.3736   47.1566 H   0  0  0  0  0  0  0  0  0  0  0  0
   41.7872   36.4048   38.7885 H   0  0  0  0  0  0  0  0  0  0  0  0
   42.8814   35.6688   37.5688 H   0  0  0  0  0  0  0  0  0  0  0  0
   41.1322   35.2603   37.5688 H   0  0  0  0  0  0  0  0  0  0  0  0
   42.8388   32.3025   38.9102 H   0  0  0  0  0  0  0  0  0  0  0  0
   41.7354   32.9151   37.6319 H   0  0  0  0  0  0  0  0  0  0  0  0
   43.4656   33.3979   37.6319 H   0  0  0  0  0  0  0  0  0  0  0  0
   40.8618   32.9240   39.7987 H   0  0  0  0  0  0  0  0  0  0  0  0
   41.3322   34.1614   41.0163 H   0  0  0  0  0  0  0  0  0  0  0  0
   40.5587   35.6720   39.3007 H   0  0  0  0  0  0  0  0  0  0  0  0
   38.5316   34.1686   41.1842 H   0  0  0  0  0  0  0  0  0  0  0  0
   37.9217   35.5114   40.6485 H   0  0  0  0  0  0  0  0  0  0  0  0
   38.1398   34.0436   38.0117 H   0  0  0  0  0  0  0  0  0  0  0  0
   39.3958   31.6106   37.0738 H   0  0  0  0  0  0  0  0  0  0  0  0
   39.1789   29.3494   38.0890 H   0  0  0  0  0  0  0  0  0  0  0  0
   38.4183   29.0994   40.5719 H   0  0  0  0  0  0  0  0  0  0  0  0
  1 15  1  0
  1  4  1  0
  2  8  1  0
  3  2  1  0
  4  3  1  0
  5  4  1  0
  5  6  1  0
  6  2  1  0
  7 12  2  0
  8  9  2  0
  8  7  1  0
  9 10  1  0
 10 11  2  0
 12 11  1  0
 13  1  1  0
 14  1  1  0
 16 15  1  0
 16 17  1  0
 18 19  1  0
 18 16  1  0
 18 17  1  0
 19 23  1  0
 20 21  1  0
 20 19  2  0
 21 22  2  0
 22 23  1  0
  2 24  1  6
  3 25  1  0
  3 26  1  0
  4 27  1  1
  5 28  1  0
  5 29  1  0
  6 30  1  0
  6 31  1  0
  7 32  1  0
  9 33  1  0
 11 34  1  0
 13 35  1  0
 13 36  1  0
 13 37  1  0
 14 38  1  0
 14 39  1  0
 14 40  1  0
 15 41  1  0
 15 42  1  0
 16 43  1  6
 17 44  1  0
 17 45  1  0
 18 46  1  6
 20 47  1  0
 21 48  1  0
 22 49  1  0
M  ISO  8  24  13  25  13  26  13  27  13  28  13  29  13  30  13  31  13
M  ISO  8  32  14  33  14  34  14  35   8  36   8  37   8  38   8  39   8
M  ISO  8  40   8  41   8  42   8  43  13  44  13  45  13  46  13  47  14
M  ISO  2  48  14  49  14
M  END
>  <minimizedAffinity>  (1) 
-5.46191359

>  <minimizedRMSD>  (1) 
1.62590384

$$$$
