
     RDKit          3D

 45 47  0  0  1  0  0  0  0  0999 V2000
   44.7720   34.6490   42.0130 C   0  0  2  0  0  0  0  0  0  0  0  0
   43.3310   34.2530   41.5090 C   0  0  0  0  0  0  0  0  0  0  0  0
   43.5830   34.6310   40.0450 C   0  0  1  0  0  0  0  0  0  0  0  0
   44.8460   33.8580   39.8030 C   0  0  0  0  0  0  0  0  0  0  0  0
   45.6200   33.9250   41.1210 C   0  0  0  0  0  0  0  0  0  0  0  0
   44.4390   35.5410   44.2550 C   0  0  0  0  0  0  0  0  0  0  0  0
   44.8940   34.5080   43.4540 C   0  0  0  0  0  0  0  0  0  0  0  0
   45.4920   33.3290   44.0360 C   0  0  0  0  0  0  0  0  0  0  0  0
   45.5920   33.2730   45.3940 N   0  0  0  0  0  0  0  0  0  0  0  0
   45.1310   34.3210   46.1720 C   0  0  0  0  0  0  0  0  0  0  0  0
   44.5620   35.4410   45.6220 N   0  0  0  0  0  0  0  0  0  0  0  0
   42.4240   34.3060   39.1910 C   0  0  0  0  0  0  0  0  0  0  0  0
   42.1240   35.4270   38.2440 C   0  0  0  0  0  0  0  0  0  0  0  0
   42.8700   33.1340   38.3230 C   0  0  0  0  0  0  0  0  0  0  0  0
   41.2610   33.8580   39.9730 C   0  0  0  0  0  0  0  0  0  0  0  0
   40.0110   34.5580   39.4620 C   0  0  2  0  0  0  0  0  0  0  0  0
   39.0560   35.2140   40.3700 C   0  0  0  0  0  0  0  0  0  0  0  0
   38.6650   33.8810   39.8780 C   0  0  2  0  0  0  0  0  0  0  0  0
   38.8040   32.7400   40.8610 C   0  0  0  0  0  0  0  0  0  0  0  0
   45.0640   35.7079   41.9542 H   0  0  0  0  0  0  0  0  0  0  0  0
   43.1100   33.1837   41.6427 H   0  0  0  0  0  0  0  0  0  0  0  0
   42.4709   34.7181   42.0129 H   0  0  0  0  0  0  0  0  0  0  0  0
   43.7004   35.6994   39.8109 H   0  0  0  0  0  0  0  0  0  0  0  0
   44.6151   32.8140   39.5446 H   0  0  0  0  0  0  0  0  0  0  0  0
   45.4262   34.2727   38.9655 H   0  0  0  0  0  0  0  0  0  0  0  0
   45.8133   32.9134   41.5074 H   0  0  0  0  0  0  0  0  0  0  0  0
   46.6002   34.4091   40.9996 H   0  0  0  0  0  0  0  0  0  0  0  0
   43.9830   36.4341   43.8029 H   0  0  0  0  0  0  0  0  0  0  0  0
   45.8544   32.5044   43.4046 H   0  0  0  0  0  0  0  0  0  0  0  0
   45.2240   34.2533   47.2660 H   0  0  0  0  0  0  0  0  0  0  0  0
   41.8810   36.3348   38.8157 H   0  0  0  0  0  0  0  0  0  0  0  0
   43.0029   35.6169   37.6104 H   0  0  0  0  0  0  0  0  0  0  0  0
   41.2677   35.1525   37.6104 H   0  0  0  0  0  0  0  0  0  0  0  0
   43.1872   32.3006   38.9671 H   0  0  0  0  0  0  0  0  0  0  0  0
   42.0328   32.8086   37.6879 H   0  0  0  0  0  0  0  0  0  0  0  0
   43.7117   33.4475   37.6879 H   0  0  0  0  0  0  0  0  0  0  0  0
   41.1428   32.7697   39.8649 H   0  0  0  0  0  0  0  0  0  0  0  0
   41.4135   34.1048   41.0340 H   0  0  0  0  0  0  0  0  0  0  0  0
   40.5261   34.8931   38.5496 H   0  0  0  0  0  0  0  0  0  0  0  0
   39.3209   35.3401   41.4302 H   0  0  0  0  0  0  0  0  0  0  0  0
   38.5599   36.1957   40.3596 H   0  0  0  0  0  0  0  0  0  0  0  0
   37.7888   33.4616   39.3619 H   0  0  0  0  0  0  0  0  0  0  0  0
   38.7562   33.1325   41.8875 H   0  0  0  0  0  0  0  0  0  0  0  0
   37.9869   32.0202   40.7052 H   0  0  0  0  0  0  0  0  0  0  0  0
   39.7700   32.2374   40.7052 H   0  0  0  0  0  0  0  0  0  0  0  0
  1  7  1  0
  2  1  1  0
  3  2  1  0
  4  3  1  0
  4  5  1  0
  5  1  1  0
  6 11  2  0
  7  8  2  0
  7  6  1  0
  8  9  1  0
  9 10  2  0
 11 10  1  0
 12 15  1  0
 12  3  1  0
 13 12  1  0
 14 12  1  0
 16 18  1  0
 16 15  1  0
 16 17  1  0
 18 17  1  0
 18 19  1  0
  1 20  1  1
  2 21  1  0
  2 22  1  0
  3 23  1  1
  4 24  1  0
  4 25  1  0
  5 26  1  0
  5 27  1  0
  6 28  1  0
  8 29  1  0
 10 30  1  0
 13 31  1  0
 13 32  1  0
 13 33  1  0
 14 34  1  0
 14 35  1  0
 14 36  1  0
 15 37  1  0
 15 38  1  0
 16 39  1  6
 17 40  1  0
 17 41  1  0
 18 42  1  6
 19 43  1  0
 19 44  1  0
 19 45  1  0
M  ISO  8  20  13  21  13  22  13  23  13  24  13  25  13  26  13  27  13
M  ISO  8  28  14  29  14  30  14  31   8  32   8  33   8  34   8  35   8
M  ISO  8  36   8  37   8  38   8  39  13  40  13  41  13  42  13  43   8
M  ISO  2  44   8  45   8
M  END
>  <minimizedAffinity>  (1) 
-5.04346657

>  <minimizedRMSD>  (1) 
0.124547139

$$$$
