
     RDKit          3D

 48 51  0  0  1  0  0  0  0  0999 V2000
   41.9560   34.5400   39.1290 C   0  0  0  0  0  0  0  0  0  0  0  0
   44.5180   34.7360   41.7700 C   0  0  2  0  0  0  0  0  0  0  0  0
   43.0210   34.4400   41.3770 C   0  0  0  0  0  0  0  0  0  0  0  0
   43.1900   34.7960   39.8970 C   0  0  1  0  0  0  0  0  0  0  0  0
   44.3800   33.9440   39.5680 C   0  0  0  0  0  0  0  0  0  0  0  0
   45.2480   33.9430   40.8300 C   0  0  0  0  0  0  0  0  0  0  0  0
   44.3790   35.6550   44.0230 C   0  0  0  0  0  0  0  0  0  0  0  0
   44.7350   34.6000   43.2010 C   0  0  0  0  0  0  0  0  0  0  0  0
   45.3310   33.4030   43.7500 C   0  0  0  0  0  0  0  0  0  0  0  0
   45.5270   33.3520   45.0970 N   0  0  0  0  0  0  0  0  0  0  0  0
   45.1610   34.4210   45.8960 C   0  0  0  0  0  0  0  0  0  0  0  0
   44.5940   35.5570   45.3750 N   0  0  0  0  0  0  0  0  0  0  0  0
   41.6890   35.6390   38.1490 C   0  0  0  0  0  0  0  0  0  0  0  0
   42.2410   33.2910   38.2960 C   0  0  0  0  0  0  0  0  0  0  0  0
   40.8120   34.2290   40.0030 C   0  0  0  0  0  0  0  0  0  0  0  0
   39.5570   34.0750   39.1590 C   0  0  2  0  0  0  0  0  0  0  0  0
   38.2260   33.9000   39.7710 C   0  0  0  0  0  0  0  0  0  0  0  0
   38.8660   32.6840   39.2350 C   0  0  2  0  0  0  0  0  0  0  0  0
   39.3740   31.7400   40.2070 N   0  0  0  0  0  0  0  0  0  0  0  0
   40.1850   30.6960   39.9560 C   0  0  0  0  0  0  0  0  0  0  0  0
   40.4420   30.0460   41.1220 N   0  0  0  0  0  0  0  0  0  0  0  0
   39.7860   30.6900   42.1070 C   0  0  0  0  0  0  0  0  0  0  0  0
   39.1340   31.7320   41.5230 N   0  0  0  0  0  0  0  0  0  0  0  0
   44.8775   35.7711   41.6738 H   0  0  0  0  0  0  0  0  0  0  0  0
   42.7372   33.3890   41.5345 H   0  0  0  0  0  0  0  0  0  0  0  0
   42.2346   34.9646   41.9394 H   0  0  0  0  0  0  0  0  0  0  0  0
   43.3566   35.8550   39.6506 H   0  0  0  0  0  0  0  0  0  0  0  0
   44.0625   32.9205   39.3196 H   0  0  0  0  0  0  0  0  0  0  0  0
   44.9290   34.3309   38.6969 H   0  0  0  0  0  0  0  0  0  0  0  0
   45.3829   32.9188   41.2078 H   0  0  0  0  0  0  0  0  0  0  0  0
   46.2566   34.3403   40.6431 H   0  0  0  0  0  0  0  0  0  0  0  0
   43.9281   36.5633   43.5968 H   0  0  0  0  0  0  0  0  0  0  0  0
   45.6167   32.5615   43.1017 H   0  0  0  0  0  0  0  0  0  0  0  0
   45.3296   34.3583   46.9812 H   0  0  0  0  0  0  0  0  0  0  0  0
   41.4632   36.5682   38.6927 H   0  0  0  0  0  0  0  0  0  0  0  0
   42.5765   35.7903   37.5170 H   0  0  0  0  0  0  0  0  0  0  0  0
   40.8310   35.3663   37.5170 H   0  0  0  0  0  0  0  0  0  0  0  0
   42.4352   32.4401   38.9656 H   0  0  0  0  0  0  0  0  0  0  0  0
   41.3709   33.0671   37.6614 H   0  0  0  0  0  0  0  0  0  0  0  0
   43.1221   33.4667   37.6614 H   0  0  0  0  0  0  0  0  0  0  0  0
   41.0078   33.2912   40.5435 H   0  0  0  0  0  0  0  0  0  0  0  0
   40.6699   35.0459   40.7258 H   0  0  0  0  0  0  0  0  0  0  0  0
   39.9487   34.7605   38.3930 H   0  0  0  0  0  0  0  0  0  0  0  0
   38.1129   34.0155   40.8591 H   0  0  0  0  0  0  0  0  0  0  0  0
   37.2486   34.3762   39.6038 H   0  0  0  0  0  0  0  0  0  0  0  0
   38.6004   31.9003   38.5103 H   0  0  0  0  0  0  0  0  0  0  0  0
   40.5766   30.4142   38.9675 H   0  0  0  0  0  0  0  0  0  0  0  0
   39.7788   30.4252   43.1746 H   0  0  0  0  0  0  0  0  0  0  0  0
  1  4  1  0
  1 15  1  0
  2  8  1  0
  3  2  1  0
  4  3  1  0
  5  4  1  0
  5  6  1  0
  6  2  1  0
  7 12  2  0
  8  9  2  0
  8  7  1  0
  9 10  1  0
 10 11  2  0
 12 11  1  0
 13  1  1  0
 14  1  1  0
 16 18  1  0
 16 17  1  0
 16 15  1  0
 18 17  1  0
 18 19  1  0
 19 23  1  0
 20 19  1  0
 20 21  2  0
 21 22  1  0
 23 22  2  0
  2 24  1  6
  3 25  1  0
  3 26  1  0
  4 27  1  1
  5 28  1  0
  5 29  1  0
  6 30  1  0
  6 31  1  0
  7 32  1  0
  9 33  1  0
 11 34  1  0
 13 35  1  0
 13 36  1  0
 13 37  1  0
 14 38  1  0
 14 39  1  0
 14 40  1  0
 15 41  1  0
 15 42  1  0
 16 43  1  6
 17 44  1  0
 17 45  1  0
 18 46  1  6
 20 47  1  0
 22 48  1  0
M  ISO  8  24  13  25  13  26  13  27  13  28  13  29  13  30  13  31  13
M  ISO  8  32  14  33  14  34  14  35   8  36   8  37   8  38   8  39   8
M  ISO  8  40   8  41   8  42   8  43  13  44  13  45  13  46  13  47  14
M  ISO  1  48  14
M  END
>  <minimizedAffinity>  (1) 
-5.41767216

>  <minimizedRMSD>  (1) 
1.05661166

$$$$
