
     RDKit          3D

 44 46  0  0  1  0  0  0  0  0999 V2000
   44.8250   34.5660   42.1090 C   0  0  2  0  0  0  0  0  0  0  0  0
   43.3910   34.1570   41.5940 C   0  0  0  0  0  0  0  0  0  0  0  0
   43.6410   34.5540   40.1320 C   0  0  1  0  0  0  0  0  0  0  0  0
   44.9270   33.8340   39.8820 C   0  0  0  0  0  0  0  0  0  0  0  0
   45.6860   33.8480   41.2230 C   0  0  0  0  0  0  0  0  0  0  0  0
   44.4620   35.4570   44.3460 C   0  0  0  0  0  0  0  0  0  0  0  0
   44.9390   34.4330   43.5460 C   0  0  0  0  0  0  0  0  0  0  0  0
   45.5560   33.2670   44.1360 C   0  0  0  0  0  0  0  0  0  0  0  0
   45.6500   33.2150   45.4920 N   0  0  0  0  0  0  0  0  0  0  0  0
   45.1660   34.2550   46.2700 C   0  0  0  0  0  0  0  0  0  0  0  0
   44.5810   35.3610   45.7110 N   0  0  0  0  0  0  0  0  0  0  0  0
   42.4960   34.2050   39.2720 C   0  0  0  0  0  0  0  0  0  0  0  0
   42.1480   35.3310   38.3520 C   0  0  0  0  0  0  0  0  0  0  0  0
   42.9840   33.0640   38.3790 C   0  0  0  0  0  0  0  0  0  0  0  0
   41.3520   33.6900   40.0460 C   0  0  0  0  0  0  0  0  0  0  0  0
   40.0560   34.2310   39.4660 C   0  0  2  0  0  0  0  0  0  0  0  0
   39.2020   35.1810   40.1990 C   0  0  0  0  0  0  0  0  0  0  0  0
   38.7540   33.7770   40.1670 C   0  0  2  0  0  0  0  0  0  0  0  0
   38.8230   32.9370   41.3130 N   0  0  0  0  0  0  0  0  0  0  0  0
   45.1081   35.6274   42.0516 H   0  0  0  0  0  0  0  0  0  0  0  0
   43.1837   33.0836   41.7155 H   0  0  0  0  0  0  0  0  0  0  0  0
   42.5238   34.6066   42.0998 H   0  0  0  0  0  0  0  0  0  0  0  0
   43.7283   35.6279   39.9105 H   0  0  0  0  0  0  0  0  0  0  0  0
   44.7308   32.7994   39.5641 H   0  0  0  0  0  0  0  0  0  0  0  0
   45.5102   34.3144   39.0826 H   0  0  0  0  0  0  0  0  0  0  0  0
   45.8528   32.8235   41.5870 H   0  0  0  0  0  0  0  0  0  0  0  0
   46.6807   34.3098   41.1379 H   0  0  0  0  0  0  0  0  0  0  0  0
   43.9910   36.3413   43.8918 H   0  0  0  0  0  0  0  0  0  0  0  0
   45.9374   32.4478   43.5087 H   0  0  0  0  0  0  0  0  0  0  0  0
   45.2537   34.1909   47.3646 H   0  0  0  0  0  0  0  0  0  0  0  0
   41.8742   36.2168   38.9439 H   0  0  0  0  0  0  0  0  0  0  0  0
   43.0150   35.5675   37.7176 H   0  0  0  0  0  0  0  0  0  0  0  0
   41.2988   35.0371   37.7176 H   0  0  0  0  0  0  0  0  0  0  0  0
   43.3392   32.2334   39.0066 H   0  0  0  0  0  0  0  0  0  0  0  0
   42.1561   32.7156   37.7439 H   0  0  0  0  0  0  0  0  0  0  0  0
   43.8077   33.4220   37.7439 H   0  0  0  0  0  0  0  0  0  0  0  0
   41.3433   32.5911   39.9983 H   0  0  0  0  0  0  0  0  0  0  0  0
   41.4455   34.0136   41.0932 H   0  0  0  0  0  0  0  0  0  0  0  0
   40.4877   34.2344   38.4543 H   0  0  0  0  0  0  0  0  0  0  0  0
   39.5614   35.6123   41.1449 H   0  0  0  0  0  0  0  0  0  0  0  0
   38.7251   36.1349   39.9295 H   0  0  0  0  0  0  0  0  0  0  0  0
   37.8241   33.2666   39.8757 H   0  0  0  0  0  0  0  0  0  0  0  0
   38.7756   33.5139   42.1649 H   0  0  0  0  0  0  0  0  0  0  0  0
   38.0335   32.2756   41.3019 H   0  0  0  0  0  0  0  0  0  0  0  0
  1  7  1  0
  2  1  1  0
  3  2  1  0
  4  3  1  0
  4  5  1  0
  5  1  1  0
  6 11  2  0
  7  8  2  0
  7  6  1  0
  8  9  1  0
  9 10  2  0
 11 10  1  0
 12 15  1  0
 12  3  1  0
 13 12  1  0
 14 12  1  0
 16 15  1  0
 16 18  1  0
 16 17  1  0
 18 17  1  0
 18 19  1  0
  1 20  1  1
  2 21  1  0
  2 22  1  0
  3 23  1  1
  4 24  1  0
  4 25  1  0
  5 26  1  0
  5 27  1  0
  6 28  1  0
  8 29  1  0
 10 30  1  0
 13 31  1  0
 13 32  1  0
 13 33  1  0
 14 34  1  0
 14 35  1  0
 14 36  1  0
 15 37  1  0
 15 38  1  0
 16 39  1  6
 17 40  1  0
 17 41  1  0
 18 42  1  6
 19 43  1  0
 19 44  1  0
M  ISO  8  20  13  21  13  22  13  23  13  24  13  25  13  26  13  27  13
M  ISO  8  28  14  29  14  30  14  31   8  32   8  33   8  34   8  35   8
M  ISO  8  36   8  37   8  38   8  39  13  40  13  41  13  42  13  43   5
M  ISO  1  44   5
M  END
>  <minimizedAffinity>  (1) 
-5.07379961

>  <minimizedRMSD>  (1) 
0.141713575

$$$$
