
     RDKit          3D

 19 20  0  0  0  0  0  0  0  0999 V2000
   44.5670   35.4780   45.2180 C   0  0  0  0  0  0  0  0  0  0  0  0
   44.7890   36.0530   43.9630 C   0  0  0  0  0  0  0  0  0  0  0  0
   45.7050   35.4250   43.1000 C   0  0  0  0  0  0  0  0  0  0  0  0
   46.3290   34.2890   43.5300 N   0  0  0  0  0  0  0  0  0  0  0  0
   46.0760   33.7770   44.7510 C   0  0  0  0  0  0  0  0  0  0  0  0
   45.2110   34.3630   45.5780 N   0  0  0  0  0  0  0  0  0  0  0  0
   46.9230   32.2820   45.2670 S   0  0  0  0  0  0  0  0  0  0  0  0
   46.2550   31.6280   46.7760 C   0  0  0  0  0  0  0  0  0  0  0  0
   46.5760   32.3130   47.9320 C   0  0  0  0  0  0  0  0  0  0  0  0
   46.0870   31.8590   49.1560 C   0  0  0  0  0  0  0  0  0  0  0  0
   45.3030   30.7570   49.2350 N   0  0  0  0  0  0  0  0  0  0  0  0
   45.0120   30.1160   48.0900 C   0  0  0  0  0  0  0  0  0  0  0  0
   45.4630   30.5190   46.8720 N   0  0  0  0  0  0  0  0  0  0  0  0
   43.8567   35.9468   45.9149 H   0  0  0  0  0  0  0  0  0  0  0  0
   44.2626   36.9699   43.6594 H   0  0  0  0  0  0  0  0  0  0  0  0
   45.9138   35.8390   42.1025 H   0  0  0  0  0  0  0  0  0  0  0  0
   47.2122   33.2092   47.8870 H   0  0  0  0  0  0  0  0  0  0  0  0
   46.3427   32.4061   50.0754 H   0  0  0  0  0  0  0  0  0  0  0  0
   44.3765   29.2196   48.1408 H   0  0  0  0  0  0  0  0  0  0  0  0
  1  6  2  0
  2  1  1  0
  3  4  1  0
  3  2  2  0
  4  5  2  0
  5  7  1  0
  5  6  1  0
  7  8  1  0
  8 13  1  0
  8  9  2  0
  9 10  1  0
 10 11  2  0
 12 11  1  0
 13 12  2  0
  1 14  1  0
  2 15  1  0
  3 16  1  0
  9 17  1  0
 10 18  1  0
 12 19  1  0
M  ISO  6  14  14  15  14  16  14  17  14  18  14  19  14
M  END
>  <minimizedAffinity>  (1) 
-4.29465055

>  <minimizedRMSD>  (1) 
2.86796784

$$$$
