
     RDKit          3D

 18 19  0  0  0  0  0  0  0  0999 V2000
   44.5380   35.5240   45.0360 C   0  0  0  0  0  0  0  0  0  0  0  0
   45.0450   35.6680   43.7410 C   0  0  0  0  0  0  0  0  0  0  0  0
   46.0700   34.7950   43.3410 C   0  0  0  0  0  0  0  0  0  0  0  0
   46.5190   33.8480   44.2440 N   0  0  0  0  0  0  0  0  0  0  0  0
   45.9860   33.7680   45.4680 C   0  0  0  0  0  0  0  0  0  0  0  0
   45.0090   34.5820   45.8820 N   0  0  0  0  0  0  0  0  0  0  0  0
   46.6040   32.5260   46.5890 S   0  0  0  0  0  0  0  0  0  0  0  0
   45.6190   32.1070   47.9340 C   0  0  0  0  0  0  0  0  0  0  0  0
   46.6050   31.4550   48.7180 C   0  0  0  0  0  0  0  0  0  0  0  0
   45.3710   31.6660   49.2720 C   0  0  0  0  0  0  0  0  0  0  0  0
   43.7349   36.1950   45.3747 H   0  0  0  0  0  0  0  0  0  0  0  0
   44.6548   36.4381   43.0593 H   0  0  0  0  0  0  0  0  0  0  0  0
   46.5056   34.8627   42.3332 H   0  0  0  0  0  0  0  0  0  0  0  0
   44.7613   32.5177   47.3812 H   0  0  0  0  0  0  0  0  0  0  0  0
   46.9190   30.4330   48.4595 H   0  0  0  0  0  0  0  0  0  0  0  0
   47.6338   31.7024   49.0186 H   0  0  0  0  0  0  0  0  0  0  0  0
   45.2518   32.4042   50.0787 H   0  0  0  0  0  0  0  0  0  0  0  0
   44.6161   31.0213   49.7459 H   0  0  0  0  0  0  0  0  0  0  0  0
  1  6  2  0
  2  1  1  0
  3  2  2  0
  3  4  1  0
  4  5  2  0
  5  6  1  0
  5  7  1  0
  7  8  1  0
  8  9  1  0
  8 10  1  0
  9 10  1  0
  1 11  1  0
  2 12  1  0
  3 13  1  0
  8 14  1  0
  9 15  1  0
  9 16  1  0
 10 17  1  0
 10 18  1  0
M  ISO  8  11  14  12  14  13  14  14  13  15  13  16  13  17  13  18  13
M  END
>  <minimizedAffinity>  (1) 
-3.77306724

>  <minimizedRMSD>  (1) 
1.95788515

$$$$
