
     RDKit          3D

 18 19  0  0  0  0  0  0  0  0999 V2000
   44.5400   35.5300   44.8370 C   0  0  0  0  0  0  0  0  0  0  0  0
   45.0820   35.5820   43.5430 C   0  0  0  0  0  0  0  0  0  0  0  0
   46.1390   34.6900   43.2570 C   0  0  0  0  0  0  0  0  0  0  0  0
   46.5700   33.8380   44.2450 N   0  0  0  0  0  0  0  0  0  0  0  0
   46.0080   33.8390   45.4620 C   0  0  0  0  0  0  0  0  0  0  0  0
   45.0090   34.6640   45.7710 N   0  0  0  0  0  0  0  0  0  0  0  0
   46.6040   32.7060   46.7210 S   0  0  0  0  0  0  0  0  0  0  0  0
   45.7490   31.1330   46.5890 C   0  0  0  0  0  0  0  0  0  0  0  0
   46.0790   30.3720   45.4680 C   0  0  0  0  0  0  0  0  0  0  0  0
   45.3390   29.2340   45.5430 N   0  0  0  0  0  0  0  0  0  0  0  0
   44.5790   29.2890   46.6710 C   0  0  0  0  0  0  0  0  0  0  0  0
   44.8280   30.4470   47.3110 N   0  0  0  0  0  0  0  0  0  0  0  0
   43.7148   36.2079   45.1005 H   0  0  0  0  0  0  0  0  0  0  0  0
   44.7012   36.2847   42.7872 H   0  0  0  0  0  0  0  0  0  0  0  0
   46.6083   34.6776   42.2622 H   0  0  0  0  0  0  0  0  0  0  0  0
   46.7967   30.6398   44.6786 H   0  0  0  0  0  0  0  0  0  0  0  0
   43.8751   28.5127   47.0056 H   0  0  0  0  0  0  0  0  0  0  0  0
   44.3956   30.7572   48.1929 H   0  0  0  0  0  0  0  0  0  0  0  0
  1  6  2  0
  2  1  1  0
  3  2  2  0
  3  4  1  0
  4  5  2  0
  5  6  1  0
  5  7  1  0
  8  7  1  0
  8 12  1  0
  9 10  1  0
  9  8  2  0
 10 11  2  0
 11 12  1  0
  1 13  1  0
  2 14  1  0
  3 15  1  0
  9 16  1  0
 11 17  1  0
 12 18  1  0
M  ISO  6  13  14  14  14  15  14  16  14  17  14  18   9
M  END
>  <minimizedAffinity>  (1) 
-3.71132421

>  <minimizedRMSD>  (1) 
2.2961483

$$$$
