
     RDKit          3D

 35 38  0  0  0  0  0  0  0  0999 V2000
   45.0470   35.2360   44.2040 C   0  0  0  0  0  0  0  0  0  0  0  0
   46.0770   34.8850   43.3500 C   0  0  0  0  0  0  0  0  0  0  0  0
   46.9650   33.8710   43.7880 C   0  0  0  0  0  0  0  0  0  0  0  0
   46.7520   33.2990   45.0270 N   0  0  0  0  0  0  0  0  0  0  0  0
   45.7270   33.7000   45.7940 C   0  0  0  0  0  0  0  0  0  0  0  0
   44.8720   34.6610   45.3960 N   0  0  0  0  0  0  0  0  0  0  0  0
   48.0450   33.4670   42.9540 N   0  0  0  0  0  0  0  0  0  0  0  0
   48.4150   32.1780   43.0240 C   0  0  0  0  0  0  0  0  0  0  0  0
   49.4450   31.6020   42.2880 C   0  0  0  0  0  0  0  0  0  0  0  0
   49.7910   30.1750   42.4220 C   0  0  0  0  0  0  0  0  0  0  0  0
   50.1370   32.4450   41.4120 C   0  0  0  0  0  0  0  0  0  0  0  0
   51.0630   31.9850   40.7320 O   0  0  0  0  0  0  0  0  0  0  0  0
   49.7450   33.7320   41.3620 N   0  0  0  0  0  0  0  0  0  0  0  0
   48.7360   34.2440   42.1000 C   0  0  0  0  0  0  0  0  0  0  0  0
   48.3830   35.4500   42.0400 O   0  0  0  0  0  0  0  0  0  0  0  0
   45.4930   32.9290   47.3900 S   0  0  0  0  0  0  0  0  0  0  0  0
   48.6820   29.5280   48.8250 N   0  0  0  0  0  0  0  0  0  0  0  0
   48.8230   30.7320   49.4050 C   0  0  0  0  0  0  0  0  0  0  0  0
   47.8900   31.5660   48.9240 N   0  0  0  0  0  0  0  0  0  0  0  0
   47.1300   30.9270   48.0290 C   0  0  0  0  0  0  0  0  0  0  0  0
   46.0410   31.2360   47.2130 C   0  0  0  0  0  0  0  0  0  0  0  0
   45.5200   30.2960   46.4100 N   0  0  0  0  0  0  0  0  0  0  0  0
   46.0820   29.0500   46.4150 C   0  0  0  0  0  0  0  0  0  0  0  0
   47.1400   28.6880   47.1840 N   0  0  0  0  0  0  0  0  0  0  0  0
   47.6410   29.6480   47.9790 C   0  0  0  0  0  0  0  0  0  0  0  0
   44.3437   36.0206   43.8882 H   0  0  0  0  0  0  0  0  0  0  0  0
   46.2016   35.3725   42.3718 H   0  0  0  0  0  0  0  0  0  0  0  0
   47.8608   31.5276   43.7168 H   0  0  0  0  0  0  0  0  0  0  0  0
   49.8548   29.9117   43.4881 H   0  0  0  0  0  0  0  0  0  0  0  0
   49.0153   29.5627   41.9389 H   0  0  0  0  0  0  0  0  0  0  0  0
   50.7610   29.9860   41.9389 H   0  0  0  0  0  0  0  0  0  0  0  0
   50.2451   34.3651   40.7217 H   0  0  0  0  0  0  0  0  0  0  0  0
   49.2524   28.6869   48.9928 H   0  0  0  0  0  0  0  0  0  0  0  0
   49.5837   30.9921   50.1558 H   0  0  0  0  0  0  0  0  0  0  0  0
   45.6471   28.2889   45.7505 H   0  0  0  0  0  0  0  0  0  0  0  0
  1  6  2  0
  2  3  2  0
  2  1  1  0
  3  4  1  0
  4  5  2  0
  5 16  1  0
  6  5  1  0
  7  8  1  0
  7  3  1  0
  9 10  1  0
  9  8  2  0
 11  9  1  0
 12 11  2  0
 13 11  1  0
 13 14  1  0
 14  7  1  0
 15 14  2  0
 17 18  1  0
 19 18  2  0
 20 19  1  0
 21 16  1  0
 21 20  2  0
 22 23  2  0
 22 21  1  0
 23 24  1  0
 24 25  2  0
 25 20  1  0
 25 17  1  0
  1 26  1  0
  2 27  1  0
  8 28  1  0
 10 29  1  0
 10 30  1  0
 10 31  1  0
 13 32  1  0
 17 33  1  0
 18 34  1  0
 23 35  1  0
M  ISO  8  26  14  27  14  28  14  29   8  30   8  31   8  32   9  33   9
M  ISO  2  34  14  35  14
M  END
>  <minimizedAffinity>  (1) 
-6.10950184

>  <minimizedRMSD>  (1) 
0.461302787

$$$$
