
     RDKit          3D

 33 36  0  0  0  0  0  0  0  0999 V2000
   44.5220   35.8770   44.6940 C   0  0  0  0  0  0  0  0  0  0  0  0
   45.2400   35.5280   43.5560 C   0  0  0  0  0  0  0  0  0  0  0  0
   46.0560   34.3720   43.6190 C   0  0  0  0  0  0  0  0  0  0  0  0
   46.0890   33.6620   44.7980 N   0  0  0  0  0  0  0  0  0  0  0  0
   45.3660   34.0590   45.8600 C   0  0  0  0  0  0  0  0  0  0  0  0
   44.5790   35.1590   45.8300 N   0  0  0  0  0  0  0  0  0  0  0  0
   46.8110   33.9730   42.4820 N   0  0  0  0  0  0  0  0  0  0  0  0
   47.5590   34.9920   41.9890 C   0  0  0  0  0  0  0  0  0  0  0  0
   48.3740   34.8100   40.8740 C   0  0  0  0  0  0  0  0  0  0  0  0
   48.3510   33.5400   40.3340 C   0  0  0  0  0  0  0  0  0  0  0  0
   49.1600   33.2790   39.1910 N   0  0  0  0  0  0  0  0  0  0  0  0
   47.6170   32.5430   40.8190 N   0  0  0  0  0  0  0  0  0  0  0  0
   46.8420   32.7610   41.9010 C   0  0  0  0  0  0  0  0  0  0  0  0
   46.1000   31.8880   42.4510 O   0  0  0  0  0  0  0  0  0  0  0  0
   45.4450   33.1010   47.3660 S   0  0  0  0  0  0  0  0  0  0  0  0
   48.5970   29.5650   48.5230 N   0  0  0  0  0  0  0  0  0  0  0  0
   48.5790   30.6020   49.3680 C   0  0  0  0  0  0  0  0  0  0  0  0
   47.6740   31.4990   48.9350 N   0  0  0  0  0  0  0  0  0  0  0  0
   47.0970   31.0520   47.8070 C   0  0  0  0  0  0  0  0  0  0  0  0
   46.1190   31.5100   46.9120 C   0  0  0  0  0  0  0  0  0  0  0  0
   45.7870   30.7620   45.8490 N   0  0  0  0  0  0  0  0  0  0  0  0
   46.4230   29.5700   45.6830 C   0  0  0  0  0  0  0  0  0  0  0  0
   47.3770   29.0740   46.5150 N   0  0  0  0  0  0  0  0  0  0  0  0
   47.6990   29.8280   47.5680 C   0  0  0  0  0  0  0  0  0  0  0  0
   43.8842   36.7727   44.6644 H   0  0  0  0  0  0  0  0  0  0  0  0
   45.1766   36.1295   42.6372 H   0  0  0  0  0  0  0  0  0  0  0  0
   47.5213   35.9770   42.4773 H   0  0  0  0  0  0  0  0  0  0  0  0
   48.9905   35.6188   40.4548 H   0  0  0  0  0  0  0  0  0  0  0  0
   49.7411   34.0286   38.7893 H   0  0  0  0  0  0  0  0  0  0  0  0
   49.1639   32.3407   38.7662 H   0  0  0  0  0  0  0  0  0  0  0  0
   49.1890   28.7252   48.5944 H   0  0  0  0  0  0  0  0  0  0  0  0
   49.2018   30.7046   50.2689 H   0  0  0  0  0  0  0  0  0  0  0  0
   46.1440   28.9621   44.8097 H   0  0  0  0  0  0  0  0  0  0  0  0
  1  6  2  0
  2  3  2  0
  2  1  1  0
  3  4  1  0
  4  5  2  0
  5 15  1  0
  6  5  1  0
  7  3  1  0
  8  7  1  0
  9  8  2  0
 10 12  2  0
 10  9  1  0
 11 10  1  0
 12 13  1  0
 13 14  2  0
 13  7  1  0
 16 17  1  0
 18 17  2  0
 19 18  1  0
 20 15  1  0
 20 19  2  0
 21 20  1  0
 22 21  2  0
 22 23  1  0
 23 24  2  0
 24 19  1  0
 24 16  1  0
  1 25  1  0
  2 26  1  0
  8 27  1  0
  9 28  1  0
 11 29  1  0
 11 30  1  0
 16 31  1  0
 17 32  1  0
 22 33  1  0
M  ISO  7  25  14  26  14  27  14  28  14  31   9  32  14  33  14
M  END
>  <minimizedAffinity>  (1) 
-6.09193468

>  <minimizedRMSD>  (1) 
0.992464066

$$$$
