
     RDKit          3D

 30 32  0  0  0  0  0  0  0  0999 V2000
   44.7170   34.1770   42.2600 C   0  0  0  0  0  0  0  0  0  0  0  0
   44.2320   35.3310   42.7740 C   0  0  0  0  0  0  0  0  0  0  0  0
   44.8860   35.3100   44.4730 S   0  0  0  0  0  0  0  0  0  0  0  0
   45.7390   33.6580   44.1580 C   0  0  0  0  0  0  0  0  0  0  0  0
   45.4410   33.4510   43.0480 N   0  0  0  0  0  0  0  0  0  0  0  0
   46.4920   33.0840   45.2570 N   0  0  0  0  0  0  0  0  0  0  0  0
   46.1750   33.3080   46.6040 C   0  0  0  0  0  0  0  0  0  0  0  0
   44.9340   33.6280   46.8560 N   0  0  0  0  0  0  0  0  0  0  0  0
   47.2590   33.1550   47.5260 N   0  0  0  0  0  0  0  0  0  0  0  0
   44.6970   33.7790   47.8650 H   0  0  0  0  0  0  0  0  0  0  0  0
   45.0550   33.0570   38.6290 C   0  0  0  0  0  0  0  0  0  0  0  0
   45.3940   33.3990   39.9500 C   0  0  0  0  0  0  0  0  0  0  0  0
   44.4070   33.8050   40.8570 C   0  0  0  0  0  0  0  0  0  0  0  0
   43.1630   33.8300   40.3510 N   0  0  0  0  0  0  0  0  0  0  0  0
   42.8250   33.5090   39.1020 C   0  0  0  0  0  0  0  0  0  0  0  0
   43.7780   33.1230   38.2480 N   0  0  0  0  0  0  0  0  0  0  0  0
   41.4910   33.5630   38.6530 C   0  0  0  0  0  0  0  0  0  0  0  0
   40.4890   32.6620   38.4790 C   0  0  0  0  0  0  0  0  0  0  0  0
   39.2600   33.0220   38.0100 C   0  0  0  0  0  0  0  0  0  0  0  0
   39.0830   34.3940   37.7130 C   0  0  0  0  0  0  0  0  0  0  0  0
   40.7560   35.1460   38.1330 S   0  0  0  0  0  0  0  0  0  0  0  0
   43.6016   36.0902   42.2880 H   0  0  0  0  0  0  0  0  0  0  0  0
   47.2988   32.4827   45.0369 H   0  0  0  0  0  0  0  0  0  0  0  0
   47.1032   33.3034   48.5333 H   0  0  0  0  0  0  0  0  0  0  0  0
   48.1949   32.8965   47.1822 H   0  0  0  0  0  0  0  0  0  0  0  0
   45.8325   32.7391   37.9188 H   0  0  0  0  0  0  0  0  0  0  0  0
   46.4439   33.3472   40.2741 H   0  0  0  0  0  0  0  0  0  0  0  0
   40.6754   31.6061   38.7248 H   0  0  0  0  0  0  0  0  0  0  0  0
   38.4527   32.2879   37.8706 H   0  0  0  0  0  0  0  0  0  0  0  0
   38.1843   34.8991   37.3292 H   0  0  0  0  0  0  0  0  0  0  0  0
  1  2  2  0
  1  5  1  0
  2  3  1  0
  4  3  1  0
  4  6  1  0
  5  4  2  0
  6  7  1  0
  7  8  2  0
  7  9  1  0
  8 10  1  0
 11 12  2  0
 12 13  1  0
 13  1  1  0
 14 13  2  0
 15 14  1  0
 16 11  1  0
 16 15  2  0
 17 15  1  0
 18 17  2  0
 19 18  1  0
 20 19  2  0
 20 21  1  0
 21 17  1  0
  2 22  1  0
  6 23  1  0
  9 24  1  0
  9 25  1  0
 11 26  1  0
 12 27  1  0
 18 28  1  0
 19 29  1  0
 20 30  1  0
M  ISO  6  22  14  26  14  27  14  28  14  29  14  30  14
M  END
>  <minimizedAffinity>  (1) 
-5.68863058

>  <minimizedRMSD>  (1) 
3.11349916

$$$$
