
     RDKit          3D

 34 37  0  0  0  0  0  0  0  0999 V2000
   44.4700   35.8180   44.5160 C   0  0  0  0  0  0  0  0  0  0  0  0
   45.3760   35.6580   43.4830 C   0  0  0  0  0  0  0  0  0  0  0  0
   46.3630   34.6550   43.6310 C   0  0  0  0  0  0  0  0  0  0  0  0
   46.3680   33.9030   44.7790 N   0  0  0  0  0  0  0  0  0  0  0  0
   45.4470   34.1210   45.7450 C   0  0  0  0  0  0  0  0  0  0  0  0
   44.4920   35.0730   45.6330 N   0  0  0  0  0  0  0  0  0  0  0  0
   47.3630   34.3620   42.6680 N   0  0  0  0  0  0  0  0  0  0  0  0
   47.4180   34.5640   41.2300 C   0  0  0  0  0  0  0  0  0  0  0  0
   48.7400   35.3350   41.1180 C   0  0  0  0  0  0  0  0  0  0  0  0
   49.5740   34.7730   42.2650 C   0  0  0  0  0  0  0  0  0  0  0  0
   48.6510   33.7470   42.9360 C   0  0  0  0  0  0  0  0  0  0  0  0
   45.4900   33.1200   47.2230 S   0  0  0  0  0  0  0  0  0  0  0  0
   48.6230   29.5920   48.4580 N   0  0  0  0  0  0  0  0  0  0  0  0
   48.5180   30.5960   49.3540 C   0  0  0  0  0  0  0  0  0  0  0  0
   47.6280   31.4900   48.8890 N   0  0  0  0  0  0  0  0  0  0  0  0
   47.1460   31.0880   47.6980 C   0  0  0  0  0  0  0  0  0  0  0  0
   46.2360   31.5510   46.7450 C   0  0  0  0  0  0  0  0  0  0  0  0
   45.9980   30.8600   45.6370 N   0  0  0  0  0  0  0  0  0  0  0  0
   46.6710   29.6800   45.4570 C   0  0  0  0  0  0  0  0  0  0  0  0
   47.5740   29.1660   46.3440 N   0  0  0  0  0  0  0  0  0  0  0  0
   47.7900   29.8850   47.4460 C   0  0  0  0  0  0  0  0  0  0  0  0
   43.6948   36.5922   44.4178 H   0  0  0  0  0  0  0  0  0  0  0  0
   45.3309   36.2863   42.5812 H   0  0  0  0  0  0  0  0  0  0  0  0
   47.4551   33.6092   40.6850 H   0  0  0  0  0  0  0  0  0  0  0  0
   46.5450   35.0777   40.8012 H   0  0  0  0  0  0  0  0  0  0  0  0
   49.2251   35.1462   40.1490 H   0  0  0  0  0  0  0  0  0  0  0  0
   48.6080   36.4255   41.1766 H   0  0  0  0  0  0  0  0  0  0  0  0
   50.4845   34.2876   41.8837 H   0  0  0  0  0  0  0  0  0  0  0  0
   49.9117   35.5543   42.9618 H   0  0  0  0  0  0  0  0  0  0  0  0
   48.8480   33.6634   44.0150 H   0  0  0  0  0  0  0  0  0  0  0  0
   48.7590   32.7149   42.5712 H   0  0  0  0  0  0  0  0  0  0  0  0
   49.2262   28.7607   48.5355 H   0  0  0  0  0  0  0  0  0  0  0  0
   49.0676   30.6702   50.3040 H   0  0  0  0  0  0  0  0  0  0  0  0
   46.4711   29.1093   44.5382 H   0  0  0  0  0  0  0  0  0  0  0  0
  1  6  2  0
  2  3  2  0
  2  1  1  0
  3  4  1  0
  4  5  2  0
  5 12  1  0
  6  5  1  0
  7 11  1  0
  7  3  1  0
  8  7  1  0
  9  8  1  0
  9 10  1  0
 10 11  1  0
 13 14  1  0
 15 14  2  0
 16 15  1  0
 17 12  1  0
 17 16  2  0
 18 17  1  0
 19 18  2  0
 19 20  1  0
 20 21  2  0
 21 16  1  0
 21 13  1  0
  1 22  1  0
  2 23  1  0
  8 24  1  0
  8 25  1  0
  9 26  1  0
  9 27  1  0
 10 28  1  0
 10 29  1  0
 11 30  1  0
 11 31  1  0
 13 32  1  0
 14 33  1  0
 19 34  1  0
M  ISO  8  22  14  23  14  24  13  25  13  26  13  27  13  28  13  29  13
M  ISO  5  30  13  31  13  32   9  33  14  34  14
M  END
>  <minimizedAffinity>  (1) 
-5.74486494

>  <minimizedRMSD>  (1) 
0.949959338

$$$$
