
     RDKit          3D

 30 33  0  0  0  0  0  0  0  0999 V2000
   44.6080   35.6830   44.6630 C   0  0  0  0  0  0  0  0  0  0  0  0
   45.4790   35.3850   43.6110 C   0  0  0  0  0  0  0  0  0  0  0  0
   46.3640   34.3010   43.8050 C   0  0  0  0  0  0  0  0  0  0  0  0
   46.3290   33.6060   44.9860 N   0  0  0  0  0  0  0  0  0  0  0  0
   45.4560   33.9530   45.9600 C   0  0  0  0  0  0  0  0  0  0  0  0
   44.5960   34.9890   45.8000 N   0  0  0  0  0  0  0  0  0  0  0  0
   47.2830   33.9600   42.7420 C   0  0  0  0  0  0  0  0  0  0  0  0
   47.1790   34.5970   41.5240 C   0  0  0  0  0  0  0  0  0  0  0  0
   48.1100   34.1940   40.5770 C   0  0  0  0  0  0  0  0  0  0  0  0
   49.0320   33.2520   40.8460 N   0  0  0  0  0  0  0  0  0  0  0  0
   49.0990   32.6480   42.0640 C   0  0  0  0  0  0  0  0  0  0  0  0
   48.2050   33.0180   43.0110 N   0  0  0  0  0  0  0  0  0  0  0  0
   45.4310   33.0330   47.4850 S   0  0  0  0  0  0  0  0  0  0  0  0
   48.6230   29.5160   48.6120 N   0  0  0  0  0  0  0  0  0  0  0  0
   48.6800   30.6160   49.3930 C   0  0  0  0  0  0  0  0  0  0  0  0
   47.7560   31.4950   48.9750 N   0  0  0  0  0  0  0  0  0  0  0  0
   47.0850   30.9810   47.9190 C   0  0  0  0  0  0  0  0  0  0  0  0
   46.0510   31.3890   47.0760 C   0  0  0  0  0  0  0  0  0  0  0  0
   45.6290   30.5910   46.1020 N   0  0  0  0  0  0  0  0  0  0  0  0
   46.2270   29.3750   45.9490 C   0  0  0  0  0  0  0  0  0  0  0  0
   47.2450   28.9150   46.7410 N   0  0  0  0  0  0  0  0  0  0  0  0
   47.6560   29.7340   47.7170 C   0  0  0  0  0  0  0  0  0  0  0  0
   43.9062   36.5221   44.5476 H   0  0  0  0  0  0  0  0  0  0  0  0
   45.4755   35.9664   42.6772 H   0  0  0  0  0  0  0  0  0  0  0  0
   46.4180   35.3643   41.3188 H   0  0  0  0  0  0  0  0  0  0  0  0
   48.0936   34.6573   39.5795 H   0  0  0  0  0  0  0  0  0  0  0  0
   49.8586   31.8804   42.2731 H   0  0  0  0  0  0  0  0  0  0  0  0
   49.2104   28.6736   48.6910 H   0  0  0  0  0  0  0  0  0  0  0  0
   49.3714   30.7671   50.2351 H   0  0  0  0  0  0  0  0  0  0  0  0
   45.8692   28.7228   45.1387 H   0  0  0  0  0  0  0  0  0  0  0  0
  1  6  2  0
  2  3  2  0
  2  1  1  0
  3  4  1  0
  4  5  2  0
  5 13  1  0
  6  5  1  0
  7 12  1  0
  7  3  1  0
  8  7  2  0
  9 10  2  0
  9  8  1  0
 10 11  1  0
 11 12  2  0
 14 15  1  0
 16 15  2  0
 17 16  1  0
 18 13  1  0
 18 17  2  0
 19 18  1  0
 20 19  2  0
 20 21  1  0
 21 22  2  0
 22 17  1  0
 22 14  1  0
  1 23  1  0
  2 24  1  0
  8 25  1  0
  9 26  1  0
 11 27  1  0
 14 28  1  0
 15 29  1  0
 20 30  1  0
M  ISO  8  23  14  24  14  25  14  26  14  27  14  28   9  29  14  30  14
M  END
>  <minimizedAffinity>  (1) 
-5.56858778

>  <minimizedRMSD>  (1) 
0.463644296

$$$$
