
     RDKit          3D

 28 31  0  0  0  0  0  0  0  0999 V2000
   45.4610   33.0180   47.4020 S   0  0  0  0  0  0  0  0  0  0  0  0
   48.6640   29.5190   48.5850 N   0  0  0  0  0  0  0  0  0  0  0  0
   48.6420   30.5940   49.3870 C   0  0  0  0  0  0  0  0  0  0  0  0
   47.7330   31.4760   48.9650 N   0  0  0  0  0  0  0  0  0  0  0  0
   47.1300   30.9820   47.8540 C   0  0  0  0  0  0  0  0  0  0  0  0
   46.1320   31.4030   46.9700 C   0  0  0  0  0  0  0  0  0  0  0  0
   45.7750   30.6320   45.9430 N   0  0  0  0  0  0  0  0  0  0  0  0
   46.4090   29.4330   45.7870 C   0  0  0  0  0  0  0  0  0  0  0  0
   47.3960   28.9600   46.6170 N   0  0  0  0  0  0  0  0  0  0  0  0
   47.7340   29.7640   47.6470 C   0  0  0  0  0  0  0  0  0  0  0  0
   44.5970   35.7100   44.6260 C   0  0  0  0  0  0  0  0  0  0  0  0
   45.4790   35.4380   43.5720 C   0  0  0  0  0  0  0  0  0  0  0  0
   46.3880   34.3590   43.7400 C   0  0  0  0  0  0  0  0  0  0  0  0
   46.3520   33.6490   44.9140 N   0  0  0  0  0  0  0  0  0  0  0  0
   45.4680   33.9780   45.8830 C   0  0  0  0  0  0  0  0  0  0  0  0
   44.5900   34.9900   45.7680 N   0  0  0  0  0  0  0  0  0  0  0  0
   47.2840   34.0570   42.7100 N   0  0  0  0  0  0  0  0  0  0  0  0
   48.4520   33.4250   42.8550 C   0  0  0  0  0  0  0  0  0  0  0  0
   49.0420   33.3110   41.6500 N   0  0  0  0  0  0  0  0  0  0  0  0
   48.2390   33.8750   40.7520 C   0  0  0  0  0  0  0  0  0  0  0  0
   47.1470   34.3360   41.4250 N   0  0  0  0  0  0  0  0  0  0  0  0
   49.2640   28.6861   48.6699 H   0  0  0  0  0  0  0  0  0  0  0  0
   49.2839   30.7300   50.2699 H   0  0  0  0  0  0  0  0  0  0  0  0
   46.1086   28.8019   44.9376 H   0  0  0  0  0  0  0  0  0  0  0  0
   43.8840   36.5408   44.5191 H   0  0  0  0  0  0  0  0  0  0  0  0
   45.4682   36.0370   42.6495 H   0  0  0  0  0  0  0  0  0  0  0  0
   48.8652   33.0570   43.8057 H   0  0  0  0  0  0  0  0  0  0  0  0
   48.4217   33.9544   39.6702 H   0  0  0  0  0  0  0  0  0  0  0  0
  2  3  1  0
  4  3  2  0
  5  4  1  0
  6  1  1  0
  6  5  2  0
  7  6  1  0
  8  7  2  0
  8  9  1  0
  9 10  2  0
 10  5  1  0
 10  2  1  0
 11 16  2  0
 12 13  2  0
 12 11  1  0
 13 14  1  0
 14 15  2  0
 15  1  1  0
 16 15  1  0
 17 18  1  0
 17 13  1  0
 19 18  2  0
 20 21  2  0
 20 19  1  0
 21 17  1  0
  2 22  1  0
  3 23  1  0
  8 24  1  0
 11 25  1  0
 12 26  1  0
 18 27  1  0
 20 28  1  0
M  ISO  7  22   9  23  14  24  14  25  14  26  14  27  14  28  14
M  END
>  <minimizedAffinity>  (1) 
-5.20294571

>  <minimizedRMSD>  (1) 
0.52903384

$$$$
