
     RDKit          3D

 23 25  0  0  0  0  0  0  0  0999 V2000
   48.6690   29.5020   48.7600 N   0  0  0  0  0  0  0  0  0  0  0  0
   48.8000   30.6840   49.3900 C   0  0  0  0  0  0  0  0  0  0  0  0
   47.8570   31.5330   48.9620 N   0  0  0  0  0  0  0  0  0  0  0  0
   47.0900   30.9120   48.0420 C   0  0  0  0  0  0  0  0  0  0  0  0
   45.9870   31.2330   47.2500 C   0  0  0  0  0  0  0  0  0  0  0  0
   45.4670   30.3370   46.4160 N   0  0  0  0  0  0  0  0  0  0  0  0
   46.0430   29.1010   46.3630 C   0  0  0  0  0  0  0  0  0  0  0  0
   47.1170   28.7190   47.1050 N   0  0  0  0  0  0  0  0  0  0  0  0
   47.6250   29.6450   47.9410 C   0  0  0  0  0  0  0  0  0  0  0  0
   45.4170   32.9220   47.5050 S   0  0  0  0  0  0  0  0  0  0  0  0
   44.8880   35.4180   44.4770 C   0  0  0  0  0  0  0  0  0  0  0  0
   45.8220   35.0260   43.5330 C   0  0  0  0  0  0  0  0  0  0  0  0
   46.6680   33.9280   43.8390 C   0  0  0  0  0  0  0  0  0  0  0  0
   46.4950   33.3260   45.0730 N   0  0  0  0  0  0  0  0  0  0  0  0
   45.5770   33.7530   45.9370 C   0  0  0  0  0  0  0  0  0  0  0  0
   44.7740   34.7880   45.6520 N   0  0  0  0  0  0  0  0  0  0  0  0
   47.6230   33.4940   42.9280 O   0  0  0  0  0  0  0  0  0  0  0  0
   49.2526   28.6624   48.8840 H   0  0  0  0  0  0  0  0  0  0  0  0
   49.5666   30.9177   50.1434 H   0  0  0  0  0  0  0  0  0  0  0  0
   45.6088   28.3628   45.6727 H   0  0  0  0  0  0  0  0  0  0  0  0
   44.2244   36.2669   44.2559 H   0  0  0  0  0  0  0  0  0  0  0  0
   45.9063   35.5520   42.5706 H   0  0  0  0  0  0  0  0  0  0  0  0
   48.2079   32.7272   43.1516 H   0  0  0  0  0  0  0  0  0  0  0  0
  1  2  1  0
  3  2  2  0
  4  3  1  0
  5 10  1  0
  5  4  2  0
  6  5  1  0
  7  6  2  0
  7  8  1  0
  8  9  2  0
  9  4  1  0
  9  1  1  0
 11 16  2  0
 12 13  2  0
 12 11  1  0
 13 14  1  0
 14 15  2  0
 15 10  1  0
 16 15  1  0
 17 13  1  0
  1 18  1  0
  2 19  1  0
  7 20  1  0
 11 21  1  0
 12 22  1  0
 17 23  1  0
M  ISO  6  18   9  19  14  20  14  21  14  22  14  23   3
M  END
>  <minimizedAffinity>  (1) 
-4.58167696

>  <minimizedRMSD>  (1) 
0.0213096589

$$$$
