
     RDKit          3D

 25 27  0  0  0  0  0  0  0  0999 V2000
   45.4490   32.9960   47.4430 S   0  0  0  0  0  0  0  0  0  0  0  0
   48.6640   29.5210   48.6010 N   0  0  0  0  0  0  0  0  0  0  0  0
   48.6840   30.6040   49.4010 C   0  0  0  0  0  0  0  0  0  0  0  0
   47.7510   31.4780   48.9690 N   0  0  0  0  0  0  0  0  0  0  0  0
   47.1230   30.9600   47.8840 C   0  0  0  0  0  0  0  0  0  0  0  0
   46.1030   31.3820   47.0280 C   0  0  0  0  0  0  0  0  0  0  0  0
   45.7220   30.5850   46.0220 N   0  0  0  0  0  0  0  0  0  0  0  0
   46.3520   29.3770   45.8720 C   0  0  0  0  0  0  0  0  0  0  0  0
   47.3530   28.9170   46.6790 N   0  0  0  0  0  0  0  0  0  0  0  0
   47.7160   29.7350   47.6800 C   0  0  0  0  0  0  0  0  0  0  0  0
   44.6150   35.6640   44.6310 C   0  0  0  0  0  0  0  0  0  0  0  0
   45.5160   35.3940   43.6000 C   0  0  0  0  0  0  0  0  0  0  0  0
   46.4360   34.3250   43.7820 C   0  0  0  0  0  0  0  0  0  0  0  0
   46.3840   33.6240   44.9590 N   0  0  0  0  0  0  0  0  0  0  0  0
   45.4840   33.9410   45.9140 C   0  0  0  0  0  0  0  0  0  0  0  0
   44.6030   34.9510   45.7620 N   0  0  0  0  0  0  0  0  0  0  0  0
   47.4080   33.9920   42.7350 C   0  0  0  0  0  0  0  0  0  0  0  0
   47.4800   35.0820   41.8820 F   0  0  0  0  0  0  0  0  0  0  0  0
   48.6590   33.8320   43.2860 F   0  0  0  0  0  0  0  0  0  0  0  0
   46.9610   32.8870   42.0500 F   0  0  0  0  0  0  0  0  0  0  0  0
   49.2634   28.6873   48.6821 H   0  0  0  0  0  0  0  0  0  0  0  0
   49.3504   30.7517   50.2636 H   0  0  0  0  0  0  0  0  0  0  0  0
   46.0281   28.7318   45.0421 H   0  0  0  0  0  0  0  0  0  0  0  0
   43.8946   36.4864   44.5098 H   0  0  0  0  0  0  0  0  0  0  0  0
   45.5146   35.9896   42.6752 H   0  0  0  0  0  0  0  0  0  0  0  0
  2  3  1  0
  4  3  2  0
  5  4  1  0
  6  1  1  0
  6  5  2  0
  7  6  1  0
  8  7  2  0
  8  9  1  0
  9 10  2  0
 10  5  1  0
 10  2  1  0
 11 16  2  0
 12 13  2  0
 12 11  1  0
 13 14  1  0
 14 15  2  0
 15  1  1  0
 16 15  1  0
 17 19  1  0
 17 13  1  0
 18 17  1  0
 20 17  1  0
  2 21  1  0
  3 22  1  0
  8 23  1  0
 11 24  1  0
 12 25  1  0
M  ISO  5  21   9  22  14  23  14  24  14  25  14
M  END
>  <minimizedAffinity>  (1) 
-5.1344285

>  <minimizedRMSD>  (1) 
0.471289307

$$$$
