
     RDKit          3D

 23 25  0  0  0  0  0  0  0  0999 V2000
   48.6680   29.5070   48.7670 N   0  0  0  0  0  0  0  0  0  0  0  0
   48.7950   30.6870   49.4000 C   0  0  0  0  0  0  0  0  0  0  0  0
   47.8460   31.5260   48.9640 N   0  0  0  0  0  0  0  0  0  0  0  0
   47.0830   30.9040   48.0370 C   0  0  0  0  0  0  0  0  0  0  0  0
   45.9850   31.2280   47.2470 C   0  0  0  0  0  0  0  0  0  0  0  0
   45.4680   30.3200   46.4010 N   0  0  0  0  0  0  0  0  0  0  0  0
   46.0570   29.0900   46.3560 C   0  0  0  0  0  0  0  0  0  0  0  0
   47.1330   28.7110   47.1040 N   0  0  0  0  0  0  0  0  0  0  0  0
   47.6300   29.6380   47.9400 C   0  0  0  0  0  0  0  0  0  0  0  0
   45.4180   32.9180   47.5140 S   0  0  0  0  0  0  0  0  0  0  0  0
   44.8800   35.4050   44.4890 C   0  0  0  0  0  0  0  0  0  0  0  0
   45.8400   35.0180   43.5390 C   0  0  0  0  0  0  0  0  0  0  0  0
   46.6960   33.9310   43.8540 C   0  0  0  0  0  0  0  0  0  0  0  0
   46.5170   33.3280   45.0910 N   0  0  0  0  0  0  0  0  0  0  0  0
   45.5820   33.7520   45.9430 C   0  0  0  0  0  0  0  0  0  0  0  0
   44.7610   34.7830   45.6600 N   0  0  0  0  0  0  0  0  0  0  0  0
   47.9580   33.3180   42.7700 S   0  0  0  0  0  0  0  0  0  0  0  0
   49.2547   28.6702   48.8953 H   0  0  0  0  0  0  0  0  0  0  0  0
   49.5575   30.9254   50.1561 H   0  0  0  0  0  0  0  0  0  0  0  0
   45.6320   28.3478   45.6642 H   0  0  0  0  0  0  0  0  0  0  0  0
   44.2082   36.2451   44.2589 H   0  0  0  0  0  0  0  0  0  0  0  0
   45.9258   35.5437   42.5766 H   0  0  0  0  0  0  0  0  0  0  0  0
   48.9934   32.8151   43.5129 H   0  0  0  0  0  0  0  0  0  0  0  0
  1  2  1  0
  3  2  2  0
  4  3  1  0
  5 10  1  0
  5  4  2  0
  6  5  1  0
  7  6  2  0
  7  8  1  0
  8  9  2  0
  9  4  1  0
  9  1  1  0
 11 16  2  0
 12 13  2  0
 12 11  1  0
 13 14  1  0
 14 15  2  0
 15 10  1  0
 16 15  1  0
 17 13  1  0
  1 18  1  0
  2 19  1  0
  7 20  1  0
 11 21  1  0
 12 22  1  0
 17 23  1  0
M  ISO  6  18   9  19  14  20  14  21  14  22  14  23  11
M  END
>  <minimizedAffinity>  (1) 
-4.59858513

>  <minimizedRMSD>  (1) 
0.0406888686

$$$$
