
     RDKit          3D

 25 27  0  0  0  0  0  0  0  0999 V2000
   48.6690   29.5100   48.7590 N   0  0  0  0  0  0  0  0  0  0  0  0
   48.8000   30.6800   49.3980 C   0  0  0  0  0  0  0  0  0  0  0  0
   47.8460   31.5290   48.9660 N   0  0  0  0  0  0  0  0  0  0  0  0
   47.0810   30.9170   48.0390 C   0  0  0  0  0  0  0  0  0  0  0  0
   45.9820   31.2440   47.2490 C   0  0  0  0  0  0  0  0  0  0  0  0
   45.4700   30.3330   46.4020 N   0  0  0  0  0  0  0  0  0  0  0  0
   46.0560   29.1020   46.3470 C   0  0  0  0  0  0  0  0  0  0  0  0
   47.1260   28.7320   47.0930 N   0  0  0  0  0  0  0  0  0  0  0  0
   47.6270   29.6510   47.9340 C   0  0  0  0  0  0  0  0  0  0  0  0
   45.4120   32.9200   47.5190 S   0  0  0  0  0  0  0  0  0  0  0  0
   44.8690   35.4170   44.4930 C   0  0  0  0  0  0  0  0  0  0  0  0
   45.8180   35.0450   43.5570 C   0  0  0  0  0  0  0  0  0  0  0  0
   46.6910   33.9570   43.8580 C   0  0  0  0  0  0  0  0  0  0  0  0
   46.5240   33.3400   45.0840 N   0  0  0  0  0  0  0  0  0  0  0  0
   45.5780   33.7630   45.9390 C   0  0  0  0  0  0  0  0  0  0  0  0
   44.7490   34.7850   45.6710 N   0  0  0  0  0  0  0  0  0  0  0  0
   47.7190   33.5200   42.8960 C   0  0  0  0  0  0  0  0  0  0  0  0
   49.2537   28.6706   48.8793 H   0  0  0  0  0  0  0  0  0  0  0  0
   49.5642   30.9112   50.1547 H   0  0  0  0  0  0  0  0  0  0  0  0
   45.6328   28.3616   45.6522 H   0  0  0  0  0  0  0  0  0  0  0  0
   44.1936   36.2548   44.2650 H   0  0  0  0  0  0  0  0  0  0  0  0
   45.8980   35.5783   42.5983 H   0  0  0  0  0  0  0  0  0  0  0  0
   48.5975   33.1465   43.4426 H   0  0  0  0  0  0  0  0  0  0  0  0
   47.3119   32.7171   42.2638 H   0  0  0  0  0  0  0  0  0  0  0  0
   48.0146   34.3702   42.2638 H   0  0  0  0  0  0  0  0  0  0  0  0
  1  2  1  0
  3  2  2  0
  4  3  1  0
  5 10  1  0
  5  4  2  0
  6  5  1  0
  7  6  2  0
  7  8  1  0
  8  9  2  0
  9  4  1  0
  9  1  1  0
 11 16  2  0
 12 13  2  0
 12 11  1  0
 13 14  1  0
 14 15  2  0
 15 10  1  0
 16 15  1  0
 17 13  1  0
  1 18  1  0
  2 19  1  0
  7 20  1  0
 11 21  1  0
 12 22  1  0
 17 23  1  0
 17 24  1  0
 17 25  1  0
M  ISO  8  18   9  19  14  20  14  21  14  22  14  23   8  24   8  25   8
M  END
>  <minimizedAffinity>  (1) 
-4.66346741

>  <minimizedRMSD>  (1) 
0.0411085002

$$$$
