
     RDKit          3D

 39 43  0  0  1  0  0  0  0  0999 V2000
   44.7460   35.7080   44.2790 C   0  0  0  0  0  0  0  0  0  0  0  0
   45.6380   35.3780   43.2700 C   0  0  0  0  0  0  0  0  0  0  0  0
   46.5400   34.2860   43.4850 C   0  0  0  0  0  0  0  0  0  0  0  0
   46.4600   33.6350   44.6820 N   0  0  0  0  0  0  0  0  0  0  0  0
   45.5630   34.0170   45.6200 C   0  0  0  0  0  0  0  0  0  0  0  0
   44.7050   35.0440   45.4320 N   0  0  0  0  0  0  0  0  0  0  0  0
   47.5400   33.8770   42.4530 C   0  0  2  0  0  0  0  0  0  0  0  0
   48.6290   34.9740   42.1810 C   0  0  0  0  0  0  0  0  0  0  0  0
   47.6090   34.5510   41.1560 C   0  0  1  0  0  0  0  0  0  0  0  0
   48.1850   33.8640   39.9750 C   0  0  0  0  0  0  0  0  0  0  0  0
   48.8650   32.6710   40.2420 C   0  0  0  0  0  0  0  0  0  0  0  0
   49.4130   32.0120   39.1370 C   0  0  0  0  0  0  0  0  0  0  0  0
   49.3260   32.4490   37.8390 C   0  0  0  0  0  0  0  0  0  0  0  0
   48.6450   33.6230   37.6590 C   0  0  0  0  0  0  0  0  0  0  0  0
   48.0730   34.3410   38.6890 C   0  0  0  0  0  0  0  0  0  0  0  0
   45.5080   33.1370   47.1860 S   0  0  0  0  0  0  0  0  0  0  0  0
   48.5330   29.5840   48.6060 N   0  0  0  0  0  0  0  0  0  0  0  0
   48.5560   30.6960   49.3800 C   0  0  0  0  0  0  0  0  0  0  0  0
   47.6930   31.5790   48.8860 N   0  0  0  0  0  0  0  0  0  0  0  0
   47.0910   31.0740   47.7920 C   0  0  0  0  0  0  0  0  0  0  0  0
   46.1270   31.4890   46.8580 C   0  0  0  0  0  0  0  0  0  0  0  0
   45.7570   30.7040   45.8640 N   0  0  0  0  0  0  0  0  0  0  0  0
   46.3490   29.4630   45.7790 C   0  0  0  0  0  0  0  0  0  0  0  0
   47.2930   28.9920   46.6500 N   0  0  0  0  0  0  0  0  0  0  0  0
   47.6480   29.8080   47.6460 C   0  0  0  0  0  0  0  0  0  0  0  0
   44.0500   36.5452   44.1217 H   0  0  0  0  0  0  0  0  0  0  0  0
   45.6527   35.9420   42.3257 H   0  0  0  0  0  0  0  0  0  0  0  0
   47.4868   32.8130   42.7269 H   0  0  0  0  0  0  0  0  0  0  0  0
   48.5609   35.9605   42.6629 H   0  0  0  0  0  0  0  0  0  0  0  0
   49.7259   35.0375   42.2338 H   0  0  0  0  0  0  0  0  0  0  0  0
   46.8255   35.0459   40.5634 H   0  0  0  0  0  0  0  0  0  0  0  0
   48.9631   32.2738   41.2631 H   0  0  0  0  0  0  0  0  0  0  0  0
   49.9546   31.0726   39.3222 H   0  0  0  0  0  0  0  0  0  0  0  0
   49.7727   31.8941   37.0008 H   0  0  0  0  0  0  0  0  0  0  0  0
   48.5485   34.0158   36.6360 H   0  0  0  0  0  0  0  0  0  0  0  0
   47.5362   35.2794   38.4856 H   0  0  0  0  0  0  0  0  0  0  0  0
   49.0944   28.7306   48.7383 H   0  0  0  0  0  0  0  0  0  0  0  0
   49.1849   30.8439   50.2703 H   0  0  0  0  0  0  0  0  0  0  0  0
   46.0412   28.8048   44.9531 H   0  0  0  0  0  0  0  0  0  0  0  0
  1  6  2  0
  2  3  2  0
  2  1  1  0
  3  4  1  0
  4  5  2  0
  5 16  1  0
  6  5  1  0
  7  3  1  0
  8  7  1  0
  9  8  1  0
  9  7  1  0
 10 11  2  0
 10  9  1  0
 12 11  1  0
 13 12  2  0
 14 13  1  0
 14 15  2  0
 15 10  1  0
 17 18  1  0
 19 18  2  0
 20 19  1  0
 21 16  1  0
 21 20  2  0
 22 21  1  0
 23 22  2  0
 23 24  1  0
 24 25  2  0
 25 20  1  0
 25 17  1  0
  1 26  1  0
  2 27  1  0
  7 28  1  6
  8 29  1  0
  8 30  1  0
  9 31  1  6
 11 32  1  0
 12 33  1  0
 13 34  1  0
 14 35  1  0
 15 36  1  0
 17 37  1  0
 18 38  1  0
 23 39  1  0
M  ISO  8  26  14  27  14  28  13  29  13  30  13  31  13  32  14  33  14
M  ISO  6  34  14  35  14  36  14  37   9  38  14  39  14
M  END
>  <minimizedAffinity>  (1) 
-6.23165226

>  <minimizedRMSD>  (1) 
0.560771167

$$$$
