
     RDKit          3D

 45 49  0  0  1  0  0  0  0  0999 V2000
   44.5920   35.8110   44.4890 C   0  0  0  0  0  0  0  0  0  0  0  0
   45.3860   35.4730   43.4020 C   0  0  0  0  0  0  0  0  0  0  0  0
   46.2600   34.3440   43.5240 C   0  0  0  0  0  0  0  0  0  0  0  0
   46.2570   33.6670   44.7070 N   0  0  0  0  0  0  0  0  0  0  0  0
   45.4540   34.0590   45.7210 C   0  0  0  0  0  0  0  0  0  0  0  0
   44.6220   35.1220   45.6250 N   0  0  0  0  0  0  0  0  0  0  0  0
   47.1560   33.9270   42.4010 C   0  0  2  0  0  0  0  0  0  0  0  0
   47.9870   35.1100   41.7970 C   0  0  0  0  0  0  0  0  0  0  0  0
   46.9160   34.3860   41.0320 C   0  0  1  0  0  0  0  0  0  0  0  0
   47.3010   33.5020   39.8670 C   0  0  0  0  0  0  0  0  0  0  0  0
   46.1120   33.2140   38.9500 C   0  0  0  0  0  0  0  0  0  0  0  0
   46.6800   32.2920   37.8630 C   0  0  0  0  0  0  0  0  0  0  0  0
   47.4290   33.2100   36.9320 C   0  0  0  0  0  0  0  0  0  0  0  0
   48.0510   34.3860   37.6400 C   0  0  0  0  0  0  0  0  0  0  0  0
   48.4310   34.0900   39.0620 C   0  0  0  0  0  0  0  0  0  0  0  0
   45.4950   33.1460   47.2710 S   0  0  0  0  0  0  0  0  0  0  0  0
   48.5540   29.5600   48.5540 N   0  0  0  0  0  0  0  0  0  0  0  0
   48.5590   30.6470   49.3730 C   0  0  0  0  0  0  0  0  0  0  0  0
   47.6840   31.5390   48.9030 N   0  0  0  0  0  0  0  0  0  0  0  0
   47.0960   31.0650   47.7890 C   0  0  0  0  0  0  0  0  0  0  0  0
   46.1330   31.5220   46.8820 C   0  0  0  0  0  0  0  0  0  0  0  0
   45.7700   30.7710   45.8500 N   0  0  0  0  0  0  0  0  0  0  0  0
   46.3690   29.5420   45.7110 C   0  0  0  0  0  0  0  0  0  0  0  0
   47.3160   29.0410   46.5630 N   0  0  0  0  0  0  0  0  0  0  0  0
   47.6610   29.8240   47.5950 C   0  0  0  0  0  0  0  0  0  0  0  0
   43.9171   36.6758   44.4077 H   0  0  0  0  0  0  0  0  0  0  0  0
   45.3454   36.0569   42.4706 H   0  0  0  0  0  0  0  0  0  0  0  0
   47.3287   32.9265   42.8243 H   0  0  0  0  0  0  0  0  0  0  0  0
   47.8248   36.1409   42.1447 H   0  0  0  0  0  0  0  0  0  0  0  0
   49.0526   35.3397   41.6496 H   0  0  0  0  0  0  0  0  0  0  0  0
   46.0149   34.7174   40.4951 H   0  0  0  0  0  0  0  0  0  0  0  0
   47.6419   32.5527   40.3059 H   0  0  0  0  0  0  0  0  0  0  0  0
   45.3062   32.7109   39.5045 H   0  0  0  0  0  0  0  0  0  0  0  0
   45.6736   34.1324   38.5325 H   0  0  0  0  0  0  0  0  0  0  0  0
   47.3598   31.5475   38.3029 H   0  0  0  0  0  0  0  0  0  0  0  0
   45.8915   31.7275   37.3438 H   0  0  0  0  0  0  0  0  0  0  0  0
   46.7280   33.5882   36.1734 H   0  0  0  0  0  0  0  0  0  0  0  0
   48.2459   32.6271   36.4815 H   0  0  0  0  0  0  0  0  0  0  0  0
   48.9566   34.6846   37.0916 H   0  0  0  0  0  0  0  0  0  0  0  0
   47.2978   35.1873   37.6641 H   0  0  0  0  0  0  0  0  0  0  0  0
   49.2673   33.3754   39.0591 H   0  0  0  0  0  0  0  0  0  0  0  0
   48.7061   35.0452   39.5330 H   0  0  0  0  0  0  0  0  0  0  0  0
   49.1229   28.7071   48.6530 H   0  0  0  0  0  0  0  0  0  0  0  0
   49.1804   30.7700   50.2723 H   0  0  0  0  0  0  0  0  0  0  0  0
   46.0668   28.9183   44.8568 H   0  0  0  0  0  0  0  0  0  0  0  0
  1  6  2  0
  2  3  2  0
  2  1  1  0
  3  4  1  0
  4  5  2  0
  5 16  1  0
  6  5  1  0
  7  3  1  0
  8  7  1  0
  9  8  1  0
  9  7  1  0
 10  9  1  0
 11 10  1  0
 12 11  1  0
 13 14  1  0
 13 12  1  0
 14 15  1  0
 15 10  1  0
 17 18  1  0
 19 18  2  0
 20 19  1  0
 21 16  1  0
 21 20  2  0
 22 21  1  0
 23 22  2  0
 23 24  1  0
 24 25  2  0
 25 20  1  0
 25 17  1  0
  1 26  1  0
  2 27  1  0
  7 28  1  6
  8 29  1  0
  8 30  1  0
  9 31  1  1
 10 32  1  0
 11 33  1  0
 11 34  1  0
 12 35  1  0
 12 36  1  0
 13 37  1  0
 13 38  1  0
 14 39  1  0
 14 40  1  0
 15 41  1  0
 15 42  1  0
 17 43  1  0
 18 44  1  0
 23 45  1  0
M  ISO  8  26  14  27  14  28  13  29  13  30  13  31  13  32  13  33  13
M  ISO  8  34  13  35  13  36  13  37  13  38  13  39  13  40  13  41  13
M  ISO  4  42  13  43   9  44  14  45  14
M  END
>  <minimizedAffinity>  (1) 
-6.26324224

>  <minimizedRMSD>  (1) 
1.02495253

$$$$
