
     RDKit          3D

 35 39  0  0  1  0  0  0  0  0999 V2000
   44.5660   35.8230   44.7320 C   0  0  0  0  0  0  0  0  0  0  0  0
   45.2920   35.4780   43.5920 C   0  0  0  0  0  0  0  0  0  0  0  0
   46.1090   34.3030   43.6420 C   0  0  0  0  0  0  0  0  0  0  0  0
   46.1190   33.5970   44.8150 N   0  0  0  0  0  0  0  0  0  0  0  0
   45.3840   33.9990   45.8820 C   0  0  0  0  0  0  0  0  0  0  0  0
   44.6120   35.1030   45.8460 N   0  0  0  0  0  0  0  0  0  0  0  0
   46.9210   33.8720   42.4730 C   0  0  2  0  0  0  0  0  0  0  0  0
   48.3510   34.5200   42.4360 C   0  0  0  0  0  0  0  0  0  0  0  0
   47.2900   34.8050   41.4090 C   0  0  1  0  0  0  0  0  0  0  0  0
   47.4140   34.2160   40.0880 N   0  0  0  0  0  0  0  0  0  0  0  0
   46.7840   33.2050   39.4630 C   0  0  0  0  0  0  0  0  0  0  0  0
   47.3510   33.1300   38.2230 N   0  0  0  0  0  0  0  0  0  0  0  0
   48.2960   34.0640   38.0940 C   0  0  0  0  0  0  0  0  0  0  0  0
   48.3160   34.7220   39.2580 N   0  0  0  0  0  0  0  0  0  0  0  0
   45.4490   33.0400   47.3950 S   0  0  0  0  0  0  0  0  0  0  0  0
   48.6560   29.5380   48.5460 N   0  0  0  0  0  0  0  0  0  0  0  0
   48.6350   30.5970   49.3830 C   0  0  0  0  0  0  0  0  0  0  0  0
   47.7270   31.4730   48.9590 N   0  0  0  0  0  0  0  0  0  0  0  0
   47.1320   31.0020   47.8310 C   0  0  0  0  0  0  0  0  0  0  0  0
   46.1380   31.4450   46.9490 C   0  0  0  0  0  0  0  0  0  0  0  0
   45.7860   30.7110   45.9080 N   0  0  0  0  0  0  0  0  0  0  0  0
   46.4340   29.5090   45.7390 C   0  0  0  0  0  0  0  0  0  0  0  0
   47.4070   29.0230   46.5620 N   0  0  0  0  0  0  0  0  0  0  0  0
   47.7410   29.7920   47.6070 C   0  0  0  0  0  0  0  0  0  0  0  0
   43.9336   36.7227   44.7069 H   0  0  0  0  0  0  0  0  0  0  0  0
   45.2384   36.0912   42.6803 H   0  0  0  0  0  0  0  0  0  0  0  0
   46.4612   32.8730   42.4470 H   0  0  0  0  0  0  0  0  0  0  0  0
   48.6365   35.2861   43.1719 H   0  0  0  0  0  0  0  0  0  0  0  0
   49.3896   34.1576   42.4286 H   0  0  0  0  0  0  0  0  0  0  0  0
   46.8773   35.7498   41.0256 H   0  0  0  0  0  0  0  0  0  0  0  0
   45.9804   32.5714   39.8664 H   0  0  0  0  0  0  0  0  0  0  0  0
   48.9272   34.2531   37.2132 H   0  0  0  0  0  0  0  0  0  0  0  0
   49.2558   28.7037   48.6172 H   0  0  0  0  0  0  0  0  0  0  0  0
   49.2682   30.7170   50.2745 H   0  0  0  0  0  0  0  0  0  0  0  0
   46.1454   28.8932   44.8744 H   0  0  0  0  0  0  0  0  0  0  0  0
  1  6  2  0
  2  3  2  0
  2  1  1  0
  3  4  1  0
  4  5  2  0
  5 15  1  0
  6  5  1  0
  7  3  1  0
  8  7  1  0
  9  8  1  0
  9  7  1  0
 10  9  1  0
 11 10  1  0
 12 11  2  0
 13 12  1  0
 13 14  2  0
 14 10  1  0
 16 17  1  0
 18 17  2  0
 19 18  1  0
 20 15  1  0
 20 19  2  0
 21 20  1  0
 22 21  2  0
 22 23  1  0
 23 24  2  0
 24 19  1  0
 24 16  1  0
  1 25  1  0
  2 26  1  0
  7 27  1  6
  8 28  1  0
  8 29  1  0
  9 30  1  6
 11 31  1  0
 13 32  1  0
 16 33  1  0
 17 34  1  0
 22 35  1  0
M  ISO  8  25  14  26  14  27  13  28  13  29  13  30  13  31  14  32  14
M  ISO  3  33   9  34  14  35  14
M  END
>  <minimizedAffinity>  (1) 
-5.80614519

>  <minimizedRMSD>  (1) 
0.552592039

$$$$
