
     RDKit          3D

 32 33  0  0  0  0  0  0  0  0999 V2000
   47.7830   34.1980   41.2810 C   0  0  0  0  0  0  0  0  0  0  0  0
   48.7600   35.3490   41.4430 C   0  0  0  0  0  0  0  0  0  0  0  0
   49.7820   35.0920   42.4980 C   0  0  0  0  0  0  0  0  0  0  0  0
   50.5340   33.8060   42.3270 C   0  0  0  0  0  0  0  0  0  0  0  0
   49.7390   32.8020   41.5340 C   0  0  0  0  0  0  0  0  0  0  0  0
   48.2910   32.9520   41.9430 C   0  0  0  0  0  0  0  0  0  0  0  0
   44.8240   35.4510   43.2480 C   0  0  0  0  0  0  0  0  0  0  0  0
   46.1490   35.1090   42.9730 C   0  0  0  0  0  0  0  0  0  0  0  0
   46.4070   34.5760   41.6940 C   0  0  0  0  0  0  0  0  0  0  0  0
   45.3950   34.4250   40.8230 N   0  0  0  0  0  0  0  0  0  0  0  0
   44.0990   34.7740   41.1270 C   0  0  0  0  0  0  0  0  0  0  0  0
   43.8430   35.2840   42.3450 N   0  0  0  0  0  0  0  0  0  0  0  0
   44.4820   36.0250   44.5950 C   0  0  0  0  0  0  0  0  0  0  0  0
   44.7490   34.9830   45.6580 C   0  0  0  0  0  0  0  0  0  0  0  0
   47.7104   33.9624   40.2090 H   0  0  0  0  0  0  0  0  0  0  0  0
   49.2760   35.5101   40.4850 H   0  0  0  0  0  0  0  0  0  0  0  0
   48.1829   36.2343   41.7481 H   0  0  0  0  0  0  0  0  0  0  0  0
   50.5067   35.9194   42.4848 H   0  0  0  0  0  0  0  0  0  0  0  0
   49.2388   35.0154   43.4514 H   0  0  0  0  0  0  0  0  0  0  0  0
   51.4775   34.0112   41.8000 H   0  0  0  0  0  0  0  0  0  0  0  0
   50.7259   33.3836   43.3244 H   0  0  0  0  0  0  0  0  0  0  0  0
   50.0896   31.7835   41.7568 H   0  0  0  0  0  0  0  0  0  0  0  0
   49.8590   32.9751   40.4543 H   0  0  0  0  0  0  0  0  0  0  0  0
   48.2136   33.0451   43.0363 H   0  0  0  0  0  0  0  0  0  0  0  0
   47.7013   32.0743   41.6398 H   0  0  0  0  0  0  0  0  0  0  0  0
   46.9492   35.2480   43.7149 H   0  0  0  0  0  0  0  0  0  0  0  0
   43.2920   34.6392   40.3917 H   0  0  0  0  0  0  0  0  0  0  0  0
   45.1024   36.9131   44.7854 H   0  0  0  0  0  0  0  0  0  0  0  0
   43.4208   36.3137   44.6167 H   0  0  0  0  0  0  0  0  0  0  0  0
   44.6328   35.4365   46.6534 H   0  0  0  0  0  0  0  0  0  0  0  0
   44.0342   34.1543   45.5469 H   0  0  0  0  0  0  0  0  0  0  0  0
   45.7742   34.6002   45.5469 H   0  0  0  0  0  0  0  0  0  0  0  0
  1  2  1  0
  1  9  1  0
  1  6  1  0
  2  3  1  0
  4  3  1  0
  5  6  1  0
  5  4  1  0
  7 13  1  0
  8  7  2  0
  9  8  1  0
 10 11  1  0
 10  9  2  0
 11 12  2  0
 12  7  1  0
 13 14  1  0
  1 15  1  0
  2 16  1  0
  2 17  1  0
  3 18  1  0
  3 19  1  0
  4 20  1  0
  4 21  1  0
  5 22  1  0
  5 23  1  0
  6 24  1  0
  6 25  1  0
  8 26  1  0
 11 27  1  0
 13 28  1  0
 13 29  1  0
 14 30  1  0
 14 31  1  0
 14 32  1  0
M  ISO  8  15  13  16  13  17  13  18  13  19  13  20  13  21  13  22  13
M  ISO  8  23  13  24  13  25  13  26  14  27  14  28   8  29   8  30   8
M  ISO  2  31   8  32   8
M  END
>  <minimizedAffinity>  (1) 
-5.1994586

>  <minimizedRMSD>  (1) 
2.18855596

$$$$
