
     RDKit          3D

 30 33  0  0  1  0  0  0  0  0999 V2000
   44.8230   35.5740   44.4410 C   0  0  0  0  0  0  0  0  0  0  0  0
   45.6490   35.1370   43.4050 C   0  0  0  0  0  0  0  0  0  0  0  0
   46.4500   33.9900   43.6410 C   0  0  0  0  0  0  0  0  0  0  0  0
   46.3750   33.3710   44.8610 N   0  0  0  0  0  0  0  0  0  0  0  0
   45.5390   33.8670   45.8160 C   0  0  0  0  0  0  0  0  0  0  0  0
   44.7670   34.9600   45.6110 N   0  0  0  0  0  0  0  0  0  0  0  0
   47.3630   33.4770   42.5900 C   0  0  2  0  0  0  0  0  0  0  0  0
   48.8870   33.6730   42.9020 C   0  0  0  0  0  0  0  0  0  0  0  0
   48.1830   34.3500   41.7540 C   0  0  2  0  0  0  0  0  0  0  0  0
   48.2450   35.7320   41.8610 O   0  0  0  0  0  0  0  0  0  0  0  0
   45.4700   33.0420   47.4000 S   0  0  0  0  0  0  0  0  0  0  0  0
   48.6230   29.5490   48.7180 N   0  0  0  0  0  0  0  0  0  0  0  0
   48.7380   30.7110   49.3850 C   0  0  0  0  0  0  0  0  0  0  0  0
   47.8260   31.5730   48.9290 N   0  0  0  0  0  0  0  0  0  0  0  0
   47.1000   30.9890   47.9580 C   0  0  0  0  0  0  0  0  0  0  0  0
   46.0390   31.3660   47.1270 C   0  0  0  0  0  0  0  0  0  0  0  0
   45.5390   30.5100   46.2400 N   0  0  0  0  0  0  0  0  0  0  0  0
   46.1010   29.2600   46.1750 C   0  0  0  0  0  0  0  0  0  0  0  0
   47.1330   28.8370   46.9560 N   0  0  0  0  0  0  0  0  0  0  0  0
   47.6170   29.7200   47.8420 C   0  0  0  0  0  0  0  0  0  0  0  0
   44.1949   36.4623   44.2786 H   0  0  0  0  0  0  0  0  0  0  0  0
   45.6782   35.6631   42.4394 H   0  0  0  0  0  0  0  0  0  0  0  0
   46.6656   32.6653   42.3355 H   0  0  0  0  0  0  0  0  0  0  0  0
   49.2078   34.2519   43.7806 H   0  0  0  0  0  0  0  0  0  0  0  0
   49.7651   33.0222   43.0259 H   0  0  0  0  0  0  0  0  0  0  0  0
   48.2217   34.3896   40.6554 H   0  0  0  0  0  0  0  0  0  0  0  0
   48.2565   35.9888   42.8171 H   0  0  0  0  0  0  0  0  0  0  0  0
   49.1905   28.6998   48.8511 H   0  0  0  0  0  0  0  0  0  0  0  0
   49.4684   30.9186   50.1809 H   0  0  0  0  0  0  0  0  0  0  0  0
   45.6896   28.5509   45.4416 H   0  0  0  0  0  0  0  0  0  0  0  0
  1  6  2  0
  2  3  2  0
  2  1  1  0
  3  4  1  0
  4  5  2  0
  5 11  1  0
  6  5  1  0
  7  8  1  0
  7  3  1  0
  9 10  1  0
  9  7  1  0
  9  8  1  0
 12 13  1  0
 14 13  2  0
 15 14  1  0
 16 11  1  0
 16 15  2  0
 17 16  1  0
 18 17  2  0
 18 19  1  0
 19 20  2  0
 20 15  1  0
 20 12  1  0
  1 21  1  0
  2 22  1  0
  7 23  1  6
  8 24  1  0
  8 25  1  0
  9 26  1  6
 10 27  1  0
 12 28  1  0
 13 29  1  0
 18 30  1  0
M  ISO  8  21  14  22  14  23  13  24  13  25  13  26  13  27   3  28   9
M  ISO  2  29  14  30  14
M  END
>  <minimizedAffinity>  (1) 
-5.17165899

>  <minimizedRMSD>  (1) 
0.45280239

$$$$
