
     RDKit          3D

 27 28  0  0  0  0  0  0  0  0999 V2000
   47.7050   33.6960   42.6070 C   0  0  0  0  0  0  0  0  0  0  0  0
   48.5310   34.9140   42.2280 C   0  0  0  0  0  0  0  0  0  0  0  0
   49.9640   34.8170   42.6320 C   0  0  0  0  0  0  0  0  0  0  0  0
   50.6550   33.5540   42.2090 C   0  0  0  0  0  0  0  0  0  0  0  0
   49.6560   32.4700   41.8780 C   0  0  0  0  0  0  0  0  0  0  0  0
   48.5940   32.5450   42.9620 C   0  0  0  0  0  0  0  0  0  0  0  0
   44.7600   35.1440   44.4610 C   0  0  0  0  0  0  0  0  0  0  0  0
   45.6590   34.9180   43.4120 C   0  0  0  0  0  0  0  0  0  0  0  0
   46.7030   34.0240   43.6630 C   0  0  0  0  0  0  0  0  0  0  0  0
   46.7910   33.4280   44.8870 N   0  0  0  0  0  0  0  0  0  0  0  0
   45.8950   33.6720   45.8880 C   0  0  0  0  0  0  0  0  0  0  0  0
   44.8820   34.5330   45.6650 N   0  0  0  0  0  0  0  0  0  0  0  0
   43.6920   36.0200   44.3020 O   0  0  0  0  0  0  0  0  0  0  0  0
   47.1188   33.3784   41.7321 H   0  0  0  0  0  0  0  0  0  0  0  0
   48.4858   35.0380   41.1359 H   0  0  0  0  0  0  0  0  0  0  0  0
   48.1030   35.7725   42.7663 H   0  0  0  0  0  0  0  0  0  0  0  0
   50.5027   35.6667   42.1874 H   0  0  0  0  0  0  0  0  0  0  0  0
   49.9757   34.8218   43.7319 H   0  0  0  0  0  0  0  0  0  0  0  0
   51.2681   33.7609   41.3194 H   0  0  0  0  0  0  0  0  0  0  0  0
   51.2846   33.2056   43.0410 H   0  0  0  0  0  0  0  0  0  0  0  0
   49.2084   32.6498   40.8894 H   0  0  0  0  0  0  0  0  0  0  0  0
   50.1301   31.4781   41.8420 H   0  0  0  0  0  0  0  0  0  0  0  0
   49.0630   32.7153   43.9423 H   0  0  0  0  0  0  0  0  0  0  0  0
   48.0236   31.6066   43.0257 H   0  0  0  0  0  0  0  0  0  0  0  0
   45.5490   35.4191   42.4390 H   0  0  0  0  0  0  0  0  0  0  0  0
   45.9983   33.1729   46.8628 H   0  0  0  0  0  0  0  0  0  0  0  0
   43.5613   36.4900   43.4405 H   0  0  0  0  0  0  0  0  0  0  0  0
  1  6  1  0
  1  9  1  0
  2  1  1  0
  2  3  1  0
  4  3  1  0
  5  4  1  0
  5  6  1  0
  7 12  2  0
  8  9  2  0
  8  7  1  0
  9 10  1  0
 10 11  2  0
 12 11  1  0
 13  7  1  0
  1 14  1  0
  2 15  1  0
  2 16  1  0
  3 17  1  0
  3 18  1  0
  4 19  1  0
  4 20  1  0
  5 21  1  0
  5 22  1  0
  6 23  1  0
  6 24  1  0
  8 25  1  0
 11 26  1  0
 13 27  1  0
M  ISO  8  14  13  15  13  16  13  17  13  18  13  19  13  20  13  21  13
M  ISO  6  22  13  23  13  24  13  25  14  26  14  27   3
M  END
>  <minimizedAffinity>  (1) 
-5.03957415

>  <minimizedRMSD>  (1) 
0.737170517

$$$$
