
     RDKit          3D

 29 30  0  0  0  0  0  0  0  0999 V2000
   48.0850   33.2210   42.4740 C   0  0  0  0  0  0  0  0  0  0  0  0
   49.0360   34.3740   42.1920 C   0  0  0  0  0  0  0  0  0  0  0  0
   50.4580   34.0980   42.5480 C   0  0  0  0  0  0  0  0  0  0  0  0
   50.9870   32.8380   41.9100 C   0  0  0  0  0  0  0  0  0  0  0  0
   49.8710   31.8530   41.6010 C   0  0  0  0  0  0  0  0  0  0  0  0
   48.8790   31.9760   42.7360 C   0  0  0  0  0  0  0  0  0  0  0  0
   45.3690   34.8340   44.5330 C   0  0  0  0  0  0  0  0  0  0  0  0
   46.2120   34.6140   43.4430 C   0  0  0  0  0  0  0  0  0  0  0  0
   47.1390   33.5590   43.5790 C   0  0  0  0  0  0  0  0  0  0  0  0
   47.1650   32.8360   44.7220 N   0  0  0  0  0  0  0  0  0  0  0  0
   46.3170   33.0890   45.7680 C   0  0  0  0  0  0  0  0  0  0  0  0
   45.4240   34.0900   45.6620 N   0  0  0  0  0  0  0  0  0  0  0  0
   44.3660   35.9330   44.4580 C   0  0  0  0  0  0  0  0  0  0  0  0
   47.4546   33.0345   41.5921 H   0  0  0  0  0  0  0  0  0  0  0  0
   48.9884   34.6049   41.1176 H   0  0  0  0  0  0  0  0  0  0  0  0
   48.7101   35.2130   42.8244 H   0  0  0  0  0  0  0  0  0  0  0  0
   51.0745   34.9460   42.2149 H   0  0  0  0  0  0  0  0  0  0  0  0
   50.5056   33.9618   43.6385 H   0  0  0  0  0  0  0  0  0  0  0  0
   51.4999   33.1010   40.9731 H   0  0  0  0  0  0  0  0  0  0  0  0
   51.6800   32.3600   42.6180 H   0  0  0  0  0  0  0  0  0  0  0  0
   49.3908   32.1075   40.6446 H   0  0  0  0  0  0  0  0  0  0  0  0
   50.2542   30.8259   41.5109 H   0  0  0  0  0  0  0  0  0  0  0  0
   49.4087   32.0581   43.6965 H   0  0  0  0  0  0  0  0  0  0  0  0
   48.2265   31.0922   42.7917 H   0  0  0  0  0  0  0  0  0  0  0  0
   46.1571   35.2270   42.5313 H   0  0  0  0  0  0  0  0  0  0  0  0
   46.3656   32.4811   46.6835 H   0  0  0  0  0  0  0  0  0  0  0  0
   44.0839   36.2420   45.4753 H   0  0  0  0  0  0  0  0  0  0  0  0
   44.8001   36.7897   43.9217 H   0  0  0  0  0  0  0  0  0  0  0  0
   43.4733   35.5788   43.9217 H   0  0  0  0  0  0  0  0  0  0  0  0
  1  6  1  0
  1  9  1  0
  2  1  1  0
  2  3  1  0
  4  3  1  0
  5  4  1  0
  5  6  1  0
  7 12  2  0
  8  9  2  0
  8  7  1  0
  9 10  1  0
 10 11  2  0
 12 11  1  0
 13  7  1  0
  1 14  1  0
  2 15  1  0
  2 16  1  0
  3 17  1  0
  3 18  1  0
  4 19  1  0
  4 20  1  0
  5 21  1  0
  5 22  1  0
  6 23  1  0
  6 24  1  0
  8 25  1  0
 11 26  1  0
 13 27  1  0
 13 28  1  0
 13 29  1  0
M  ISO  8  14  13  15  13  16  13  17  13  18  13  19  13  20  13  21  13
M  ISO  8  22  13  23  13  24  13  25  14  26  14  27   8  28   8  29   8
M  END
>  <minimizedAffinity>  (1) 
-4.33610868

>  <minimizedRMSD>  (1) 
1.3097899

$$$$
