
     RDKit          3D

 28 29  0  0  0  0  0  0  0  0999 V2000
   47.4870   33.9800   42.5380 C   0  0  0  0  0  0  0  0  0  0  0  0
   48.3680   35.1190   42.0460 C   0  0  0  0  0  0  0  0  0  0  0  0
   49.7780   35.0530   42.5260 C   0  0  0  0  0  0  0  0  0  0  0  0
   50.4400   33.7340   42.2250 C   0  0  0  0  0  0  0  0  0  0  0  0
   49.4210   32.6180   42.0580 C   0  0  0  0  0  0  0  0  0  0  0  0
   48.3490   32.8840   43.0940 C   0  0  0  0  0  0  0  0  0  0  0  0
   45.2680   34.3890   45.5630 C   0  0  0  0  0  0  0  0  0  0  0  0
   46.2580   33.8370   44.7480 C   0  0  0  0  0  0  0  0  0  0  0  0
   46.4520   34.4670   43.4970 C   0  0  0  0  0  0  0  0  0  0  0  0
   45.6880   35.5470   43.1580 N   0  0  0  0  0  0  0  0  0  0  0  0
   44.7320   36.0400   44.0050 C   0  0  0  0  0  0  0  0  0  0  0  0
   44.5400   35.4520   45.1900 N   0  0  0  0  0  0  0  0  0  0  0  0
   45.0200   33.7830   46.8660 C   0  0  0  0  0  0  0  0  0  0  0  0
   45.5890   32.7170   47.2050 O   0  0  0  0  0  0  0  0  0  0  0  0
   46.9235   33.5576   41.6930 H   0  0  0  0  0  0  0  0  0  0  0  0
   47.9303   36.0673   42.3911 H   0  0  0  0  0  0  0  0  0  0  0  0
   48.4036   35.0397   40.9494 H   0  0  0  0  0  0  0  0  0  0  0  0
   50.3527   35.8535   42.0372 H   0  0  0  0  0  0  0  0  0  0  0  0
   49.7596   35.1704   43.6196 H   0  0  0  0  0  0  0  0  0  0  0  0
   51.0191   33.8300   41.2947 H   0  0  0  0  0  0  0  0  0  0  0  0
   51.0936   33.4774   43.0718 H   0  0  0  0  0  0  0  0  0  0  0  0
   48.9904   32.6400   41.0460 H   0  0  0  0  0  0  0  0  0  0  0  0
   49.8786   31.6268   42.1923 H   0  0  0  0  0  0  0  0  0  0  0  0
   48.8066   33.2034   44.0420 H   0  0  0  0  0  0  0  0  0  0  0  0
   47.7598   31.9784   43.3006 H   0  0  0  0  0  0  0  0  0  0  0  0
   46.8512   32.9648   45.0601 H   0  0  0  0  0  0  0  0  0  0  0  0
   44.1277   36.9116   43.7132 H   0  0  0  0  0  0  0  0  0  0  0  0
   44.3221   34.2687   47.5639 H   0  0  0  0  0  0  0  0  0  0  0  0
  1  6  1  0
  1  9  1  0
  2  3  1  0
  2  1  1  0
  4  3  1  0
  5  4  1  0
  5  6  1  0
  7 13  1  0
  8  7  2  0
  9  8  1  0
 10  9  2  0
 10 11  1  0
 11 12  2  0
 12  7  1  0
 13 14  2  0
  1 15  1  0
  2 16  1  0
  2 17  1  0
  3 18  1  0
  3 19  1  0
  4 20  1  0
  4 21  1  0
  5 22  1  0
  5 23  1  0
  6 24  1  0
  6 25  1  0
  8 26  1  0
 11 27  1  0
 13 28  1  0
M  ISO  8  15  13  16  13  17  13  18  13  19  13  20  13  21  13  22  13
M  ISO  6  23  13  24  13  25  13  26  14  27  14  28   6
M  END
>  <minimizedAffinity>  (1) 
-4.72171879

>  <minimizedRMSD>  (1) 
2.54231238

$$$$
