
     RDKit          3D

 33 35  0  0  0  0  0  0  0  0999 V2000
   47.5930   33.7010   42.6530 C   0  0  0  0  0  0  0  0  0  0  0  0
   48.4360   34.9070   42.2630 C   0  0  0  0  0  0  0  0  0  0  0  0
   49.8760   34.7690   42.6240 C   0  0  0  0  0  0  0  0  0  0  0  0
   50.5080   33.5100   42.0920 C   0  0  0  0  0  0  0  0  0  0  0  0
   49.4880   32.4200   41.8750 C   0  0  0  0  0  0  0  0  0  0  0  0
   48.4710   32.5320   42.9900 C   0  0  0  0  0  0  0  0  0  0  0  0
   45.6460   33.7190   45.8820 C   0  0  0  0  0  0  0  0  0  0  0  0
   46.5850   33.3050   44.9360 C   0  0  0  0  0  0  0  0  0  0  0  0
   46.6220   34.0430   43.7330 C   0  0  0  0  0  0  0  0  0  0  0  0
   45.7690   35.0920   43.5540 N   0  0  0  0  0  0  0  0  0  0  0  0
   44.8670   35.4560   44.5170 C   0  0  0  0  0  0  0  0  0  0  0  0
   44.8170   34.7600   45.6750 N   0  0  0  0  0  0  0  0  0  0  0  0
   45.5410   32.9940   47.1780 C   0  0  0  0  0  0  0  0  0  0  0  0
   46.8190   32.4290   47.6810 C   0  0  0  0  0  0  0  0  0  0  0  0
   45.7150   31.5170   47.2030 C   0  0  0  0  0  0  0  0  0  0  0  0
   46.9835   33.3985   41.7887 H   0  0  0  0  0  0  0  0  0  0  0  0
   48.0325   35.7936   42.7741 H   0  0  0  0  0  0  0  0  0  0  0  0
   48.3846   34.9967   41.1679 H   0  0  0  0  0  0  0  0  0  0  0  0
   50.4220   35.6324   42.2161 H   0  0  0  0  0  0  0  0  0  0  0  0
   49.9325   34.7219   43.7215 H   0  0  0  0  0  0  0  0  0  0  0  0
   50.9980   33.7352   41.1333 H   0  0  0  0  0  0  0  0  0  0  0  0
   51.2372   33.1533   42.8343 H   0  0  0  0  0  0  0  0  0  0  0  0
   48.9954   32.5531   40.9005 H   0  0  0  0  0  0  0  0  0  0  0  0
   49.9669   31.4297   41.8806 H   0  0  0  0  0  0  0  0  0  0  0  0
   48.9784   32.7029   43.9509 H   0  0  0  0  0  0  0  0  0  0  0  0
   47.8822   31.6077   43.0844 H   0  0  0  0  0  0  0  0  0  0  0  0
   47.2571   32.4533   45.1172 H   0  0  0  0  0  0  0  0  0  0  0  0
   44.1895   36.3064   44.3504 H   0  0  0  0  0  0  0  0  0  0  0  0
   44.7547   33.6591   47.5644 H   0  0  0  0  0  0  0  0  0  0  0  0
   47.7400   32.5367   47.0893 H   0  0  0  0  0  0  0  0  0  0  0  0
   47.4046   32.5266   48.6070 H   0  0  0  0  0  0  0  0  0  0  0  0
   45.1518   30.9073   47.9248 H   0  0  0  0  0  0  0  0  0  0  0  0
   45.6357   30.7083   46.4616 H   0  0  0  0  0  0  0  0  0  0  0  0
  1  6  1  0
  1  9  1  0
  2  3  1  0
  2  1  1  0
  4  3  1  0
  5  4  1  0
  5  6  1  0
  7 13  1  0
  8  7  2  0
  9  8  1  0
 10  9  2  0
 10 11  1  0
 11 12  2  0
 12  7  1  0
 13 15  1  0
 13 14  1  0
 15 14  1  0
  1 16  1  0
  2 17  1  0
  2 18  1  0
  3 19  1  0
  3 20  1  0
  4 21  1  0
  4 22  1  0
  5 23  1  0
  5 24  1  0
  6 25  1  0
  6 26  1  0
  8 27  1  0
 11 28  1  0
 13 29  1  0
 14 30  1  0
 14 31  1  0
 15 32  1  0
 15 33  1  0
M  ISO  8  16  13  17  13  18  13  19  13  20  13  21  13  22  13  23  13
M  ISO  8  24  13  25  13  26  13  27  14  28  14  29  13  30  13  31  13
M  ISO  2  32  13  33  13
M  END
>  <minimizedAffinity>  (1) 
-5.04327726

>  <minimizedRMSD>  (1) 
3.49978185

$$$$
