
     RDKit          3D

 28 29  0  0  0  0  0  0  0  0999 V2000
   47.8800   33.5770   42.5000 C   0  0  0  0  0  0  0  0  0  0  0  0
   48.7780   34.7570   42.1680 C   0  0  0  0  0  0  0  0  0  0  0  0
   50.1830   34.5980   42.6390 C   0  0  0  0  0  0  0  0  0  0  0  0
   50.8270   33.3180   42.1760 C   0  0  0  0  0  0  0  0  0  0  0  0
   49.7980   32.2490   41.8700 C   0  0  0  0  0  0  0  0  0  0  0  0
   48.7050   32.3920   42.9090 C   0  0  0  0  0  0  0  0  0  0  0  0
   44.9030   35.1400   44.2060 C   0  0  0  0  0  0  0  0  0  0  0  0
   45.8230   34.8770   43.1860 C   0  0  0  0  0  0  0  0  0  0  0  0
   46.8430   33.9550   43.5030 C   0  0  0  0  0  0  0  0  0  0  0  0
   46.8800   33.3900   44.7380 N   0  0  0  0  0  0  0  0  0  0  0  0
   45.9550   33.6810   45.7050 C   0  0  0  0  0  0  0  0  0  0  0  0
   44.9680   34.5590   45.4280 N   0  0  0  0  0  0  0  0  0  0  0  0
   43.8480   36.0670   43.9390 N   0  0  0  0  0  0  0  0  0  0  0  0
   47.3267   33.2784   41.5974 H   0  0  0  0  0  0  0  0  0  0  0  0
   48.7914   34.8855   41.0756 H   0  0  0  0  0  0  0  0  0  0  0  0
   48.3629   35.6312   42.6910 H   0  0  0  0  0  0  0  0  0  0  0  0
   50.7757   35.4436   42.2601 H   0  0  0  0  0  0  0  0  0  0  0  0
   50.1560   34.5691   43.7383 H   0  0  0  0  0  0  0  0  0  0  0  0
   51.4102   33.5218   41.2658 H   0  0  0  0  0  0  0  0  0  0  0  0
   51.4736   32.9484   42.9855 H   0  0  0  0  0  0  0  0  0  0  0  0
   49.3849   32.3972   40.8614 H   0  0  0  0  0  0  0  0  0  0  0  0
   50.2468   31.2452   41.9012 H   0  0  0  0  0  0  0  0  0  0  0  0
   49.1453   32.5604   43.9029 H   0  0  0  0  0  0  0  0  0  0  0  0
   48.0909   31.4813   42.9679 H   0  0  0  0  0  0  0  0  0  0  0  0
   45.7557   35.3584   42.1992 H   0  0  0  0  0  0  0  0  0  0  0  0
   46.0156   33.2052   46.6949 H   0  0  0  0  0  0  0  0  0  0  0  0
   43.7812   36.5194   43.0161 H   0  0  0  0  0  0  0  0  0  0  0  0
   43.1546   36.2825   44.6695 H   0  0  0  0  0  0  0  0  0  0  0  0
  1  6  1  0
  1  9  1  0
  2  1  1  0
  2  3  1  0
  4  3  1  0
  5  4  1  0
  5  6  1  0
  7 12  2  0
  8  9  2  0
  8  7  1  0
  9 10  1  0
 10 11  2  0
 12 11  1  0
 13  7  1  0
  1 14  1  0
  2 15  1  0
  2 16  1  0
  3 17  1  0
  3 18  1  0
  4 19  1  0
  4 20  1  0
  5 21  1  0
  5 22  1  0
  6 23  1  0
  6 24  1  0
  8 25  1  0
 11 26  1  0
 13 27  1  0
 13 28  1  0
M  ISO  8  14  13  15  13  16  13  17  13  18  13  19  13  20  13  21  13
M  ISO  5  22  13  23  13  24  13  25  14  26  14
M  END
>  <minimizedAffinity>  (1) 
-4.90111113

>  <minimizedRMSD>  (1) 
0.799484491

$$$$
