
     RDKit          3D

 39 41  0  0  0  0  0  0  0  0999 V2000
   47.4040   34.1140   41.8680 C   0  0  0  0  0  0  0  0  0  0  0  0
   48.2820   35.1910   41.2410 C   0  0  0  0  0  0  0  0  0  0  0  0
   49.4550   35.5730   42.0800 C   0  0  0  0  0  0  0  0  0  0  0  0
   50.3030   34.3970   42.4740 C   0  0  0  0  0  0  0  0  0  0  0  0
   49.5010   33.1060   42.5150 C   0  0  0  0  0  0  0  0  0  0  0  0
   48.1220   33.4700   43.0160 C   0  0  0  0  0  0  0  0  0  0  0  0
   43.8240   35.2910   41.7420 C   0  0  0  0  0  0  0  0  0  0  0  0
   45.0330   34.7710   41.2770 C   0  0  0  0  0  0  0  0  0  0  0  0
   46.0680   34.6640   42.2390 C   0  0  0  0  0  0  0  0  0  0  0  0
   45.8410   35.0610   43.5260 N   0  0  0  0  0  0  0  0  0  0  0  0
   44.6270   35.5640   43.9190 C   0  0  0  0  0  0  0  0  0  0  0  0
   43.6380   35.6680   43.0100 N   0  0  0  0  0  0  0  0  0  0  0  0
   42.6810   35.4380   40.8020 C   0  0  0  0  0  0  0  0  0  0  0  0
   42.6470   34.3900   39.7280 C   0  0  0  0  0  0  0  0  0  0  0  0
   41.2750   33.7280   39.8190 C   0  0  0  0  0  0  0  0  0  0  0  0
   40.9590   33.8900   41.2830 C   0  0  0  0  0  0  0  0  0  0  0  0
   41.3610   35.3030   41.5680 C   0  0  0  0  0  0  0  0  0  0  0  0
   47.2090   33.3228   41.1291 H   0  0  0  0  0  0  0  0  0  0  0  0
   48.6529   34.8176   40.2751 H   0  0  0  0  0  0  0  0  0  0  0  0
   47.6584   36.0906   41.1322 H   0  0  0  0  0  0  0  0  0  0  0  0
   50.0777   36.2792   41.5112 H   0  0  0  0  0  0  0  0  0  0  0  0
   49.0652   36.0223   43.0053 H   0  0  0  0  0  0  0  0  0  0  0  0
   51.1179   34.2860   41.7436 H   0  0  0  0  0  0  0  0  0  0  0  0
   50.6971   34.5849   43.4836 H   0  0  0  0  0  0  0  0  0  0  0  0
   49.4356   32.6677   41.5082 H   0  0  0  0  0  0  0  0  0  0  0  0
   49.9782   32.3632   43.1712 H   0  0  0  0  0  0  0  0  0  0  0  0
   48.1979   34.1732   43.8585 H   0  0  0  0  0  0  0  0  0  0  0  0
   47.5821   32.5801   43.3719 H   0  0  0  0  0  0  0  0  0  0  0  0
   45.1735   34.4637   40.2302 H   0  0  0  0  0  0  0  0  0  0  0  0
   44.4633   35.8777   44.9605 H   0  0  0  0  0  0  0  0  0  0  0  0
   42.8101   36.4264   40.3369 H   0  0  0  0  0  0  0  0  0  0  0  0
   43.4404   33.6468   39.8958 H   0  0  0  0  0  0  0  0  0  0  0  0
   42.8132   34.8307   38.7339 H   0  0  0  0  0  0  0  0  0  0  0  0
   40.5366   34.2456   39.1890 H   0  0  0  0  0  0  0  0  0  0  0  0
   41.2564   32.6853   39.4692 H   0  0  0  0  0  0  0  0  0  0  0  0
   39.8861   33.7396   41.4735 H   0  0  0  0  0  0  0  0  0  0  0  0
   41.4786   33.1582   41.9189 H   0  0  0  0  0  0  0  0  0  0  0  0
   41.5097   35.4635   42.6460 H   0  0  0  0  0  0  0  0  0  0  0  0
   40.6037   36.0418   41.2668 H   0  0  0  0  0  0  0  0  0  0  0  0
  1  9  1  0
  1  6  1  0
  2  1  1  0
  2  3  1  0
  3  4  1  0
  4  5  1  0
  5  6  1  0
  7 12  1  0
  8  7  2  0
  8  9  1  0
  9 10  2  0
 10 11  1  0
 12 11  2  0
 13 17  1  0
 13  7  1  0
 14 15  1  0
 14 13  1  0
 15 16  1  0
 16 17  1  0
  1 18  1  0
  2 19  1  0
  2 20  1  0
  3 21  1  0
  3 22  1  0
  4 23  1  0
  4 24  1  0
  5 25  1  0
  5 26  1  0
  6 27  1  0
  6 28  1  0
  8 29  1  0
 11 30  1  0
 13 31  1  0
 14 32  1  0
 14 33  1  0
 15 34  1  0
 15 35  1  0
 16 36  1  0
 16 37  1  0
 17 38  1  0
 17 39  1  0
M  ISO  8  18  13  19  13  20  13  21  13  22  13  23  13  24  13  25  13
M  ISO  8  26  13  27  13  28  13  29  14  30  14  31  13  32  13  33  13
M  ISO  6  34  13  35  13  36  13  37  13  38  13  39  13
M  END
>  <minimizedAffinity>  (1) 
-5.55149508

>  <minimizedRMSD>  (1) 
2.78129649

$$$$
