
     RDKit          3D

 26 27  0  0  0  0  0  0  0  0999 V2000
   43.7000   34.1610   41.2950 C   0  0  0  0  0  0  0  0  0  0  0  0
   44.6920   33.7740   40.4800 C   0  0  0  0  0  0  0  0  0  0  0  0
   45.9650   33.1840   41.6480 S   0  0  0  0  0  0  0  0  0  0  0  0
   44.8450   33.5980   43.1190 C   0  0  0  0  0  0  0  0  0  0  0  0
   43.9080   34.0190   42.5700 N   0  0  0  0  0  0  0  0  0  0  0  0
   45.3810   33.3150   44.4210 N   0  0  0  0  0  0  0  0  0  0  0  0
   46.7360   33.3160   44.7390 C   0  0  0  0  0  0  0  0  0  0  0  0
   47.4850   34.0220   43.9770 N   0  0  0  0  0  0  0  0  0  0  0  0
   47.1570   32.5450   45.8640 N   0  0  0  0  0  0  0  0  0  0  0  0
   48.5070   34.0880   44.2160 H   0  0  0  0  0  0  0  0  0  0  0  0
   40.0940   35.3230   40.9140 C   0  0  0  0  0  0  0  0  0  0  0  0
   41.2350   34.7820   41.4950 C   0  0  0  0  0  0  0  0  0  0  0  0
   42.4310   34.7250   40.7500 C   0  0  0  0  0  0  0  0  0  0  0  0
   42.3580   35.2210   39.4830 N   0  0  0  0  0  0  0  0  0  0  0  0
   41.2460   35.7390   38.9380 C   0  0  0  0  0  0  0  0  0  0  0  0
   40.1320   35.7800   39.6660 N   0  0  0  0  0  0  0  0  0  0  0  0
   41.3280   36.2400   37.5400 C   0  0  0  0  0  0  0  0  0  0  0  0
   42.6240   36.0430   37.0470 F   0  0  0  0  0  0  0  0  0  0  0  0
   41.0300   37.5710   37.4490 F   0  0  0  0  0  0  0  0  0  0  0  0
   40.3870   35.5670   36.7680 F   0  0  0  0  0  0  0  0  0  0  0  0
   44.7294   33.8045   39.3811 H   0  0  0  0  0  0  0  0  0  0  0  0
   44.7140   33.0953   45.1744 H   0  0  0  0  0  0  0  0  0  0  0  0
   48.1520   32.5219   46.1292 H   0  0  0  0  0  0  0  0  0  0  0  0
   46.4658   32.0117   46.4106 H   0  0  0  0  0  0  0  0  0  0  0  0
   39.1571   35.3732   41.4882 H   0  0  0  0  0  0  0  0  0  0  0  0
   41.2053   34.4017   42.5267 H   0  0  0  0  0  0  0  0  0  0  0  0
  1  5  1  0
  2  1  2  0
  2  3  1  0
  3  4  1  0
  4  6  1  0
  5  4  2  0
  6  7  1  0
  7  9  1  0
  8 10  1  0
  8  7  2  0
 11 12  2  0
 13  1  1  0
 13 12  1  0
 14 13  2  0
 15 14  1  0
 15 16  2  0
 16 11  1  0
 17 15  1  0
 18 17  1  0
 19 17  1  0
 20 17  1  0
  2 21  1  0
  6 22  1  0
  9 23  1  0
  9 24  1  0
 11 25  1  0
 12 26  1  0
M  ISO  3  21  14  25  14  26  14
M  END
>  <minimizedAffinity>  (1) 
-5.40574598

>  <minimizedRMSD>  (1) 
0.652591884

$$$$
