
     RDKit          3D

 50 53  0  0  1  0  0  0  0  0999 V2000
   45.3250   33.5680   40.4350 C   0  0  0  0  0  0  0  0  0  0  0  0
   44.1120   34.2200   40.5860 C   0  0  0  0  0  0  0  0  0  0  0  0
   43.3510   34.3920   39.4170 C   0  0  0  0  0  0  0  0  0  0  0  0
   43.8220   33.9240   38.2120 N   0  0  0  0  0  0  0  0  0  0  0  0
   45.0340   33.2850   38.1240 C   0  0  0  0  0  0  0  0  0  0  0  0
   45.7670   33.1170   39.2470 N   0  0  0  0  0  0  0  0  0  0  0  0
   42.0140   35.0660   39.4500 C   0  0  0  0  0  0  0  0  0  0  0  0
   41.3030   34.8810   38.1000 C   0  0  0  0  0  0  0  0  0  0  0  0
   40.0760   34.0510   38.1990 C   0  0  0  0  0  0  0  0  0  0  0  0
   39.1040   34.5040   39.2470 C   0  0  0  0  0  0  0  0  0  0  0  0
   39.7930   35.2770   40.3530 C   0  0  0  0  0  0  0  0  0  0  0  0
   41.1400   34.6250   40.5670 C   0  0  0  0  0  0  0  0  0  0  0  0
   46.2090   33.3500   41.6100 C   0  0  1  0  0  0  0  0  0  0  0  0
   47.6740   33.2700   41.2370 C   0  0  0  0  0  0  0  0  0  0  0  0
   48.3670   34.3010   42.1030 C   0  0  0  0  0  0  0  0  0  0  0  0
   47.2710   35.3310   42.2870 C   0  0  0  0  0  0  0  0  0  0  0  0
   46.0700   34.5000   42.5920 C   0  0  2  0  0  0  0  0  0  0  0  0
   45.9490   34.0780   43.9450 N   0  0  0  0  0  0  0  0  0  0  0  0
   46.5760   33.0330   44.5220 C   0  0  0  0  0  0  0  0  0  0  0  0
   46.4350   32.6530   45.8350 C   0  0  0  0  0  0  0  0  0  0  0  0
   45.5810   33.4120   46.6060 C   0  0  0  0  0  0  0  0  0  0  0  0
   45.4120   33.0430   47.9810 N   0  0  0  0  0  0  0  0  0  0  0  0
   44.9510   34.4540   46.0500 N   0  0  0  0  0  0  0  0  0  0  0  0
   45.1280   34.7870   44.7400 C   0  0  0  0  0  0  0  0  0  0  0  0
   44.4470   35.7900   44.4180 O   0  0  0  0  0  0  0  0  0  0  0  0
   43.7644   34.5823   41.5647 H   0  0  0  0  0  0  0  0  0  0  0  0
   45.4024   32.9159   37.1555 H   0  0  0  0  0  0  0  0  0  0  0  0
   42.2088   36.1331   39.6325 H   0  0  0  0  0  0  0  0  0  0  0  0
   41.9994   34.3950   37.4009 H   0  0  0  0  0  0  0  0  0  0  0  0
   40.9981   35.8781   37.7496 H   0  0  0  0  0  0  0  0  0  0  0  0
   39.5662   34.0732   37.2245 H   0  0  0  0  0  0  0  0  0  0  0  0
   40.4027   33.0416   38.4895 H   0  0  0  0  0  0  0  0  0  0  0  0
   38.3487   35.1509   38.7770 H   0  0  0  0  0  0  0  0  0  0  0  0
   38.6376   33.6121   39.6909 H   0  0  0  0  0  0  0  0  0  0  0  0
   39.9238   36.3280   40.0559 H   0  0  0  0  0  0  0  0  0  0  0  0
   39.1957   35.2620   41.2766 H   0  0  0  0  0  0  0  0  0  0  0  0
   41.0363   33.5299   40.5568 H   0  0  0  0  0  0  0  0  0  0  0  0
   41.5672   34.9127   41.5390 H   0  0  0  0  0  0  0  0  0  0  0  0
   45.8923   32.3924   42.0490 H   0  0  0  0  0  0  0  0  0  0  0  0
   48.0695   32.2648   41.4445 H   0  0  0  0  0  0  0  0  0  0  0  0
   47.8342   33.4617   40.1657 H   0  0  0  0  0  0  0  0  0  0  0  0
   48.6798   33.8713   43.0661 H   0  0  0  0  0  0  0  0  0  0  0  0
   49.2915   34.7049   41.6647 H   0  0  0  0  0  0  0  0  0  0  0  0
   47.5033   36.0095   43.1210 H   0  0  0  0  0  0  0  0  0  0  0  0
   47.1356   35.9786   41.4082 H   0  0  0  0  0  0  0  0  0  0  0  0
   45.1371   35.0714   42.4769 H   0  0  0  0  0  0  0  0  0  0  0  0
   47.2536   32.4379   43.8922 H   0  0  0  0  0  0  0  0  0  0  0  0
   46.9751   31.7887   46.2489 H   0  0  0  0  0  0  0  0  0  0  0  0
   44.7816   33.5877   48.5867 H   0  0  0  0  0  0  0  0  0  0  0  0
   45.9209   32.2332   48.3632 H   0  0  0  0  0  0  0  0  0  0  0  0
  1  2  2  0
  1 13  1  0
  3  7  1  0
  3  2  1  0
  4  3  2  0
  5  4  1  0
  5  6  2  0
  6  1  1  0
  7 12  1  0
  8  9  1  0
  8  7  1  0
  9 10  1  0
 10 11  1  0
 11 12  1  0
 13 17  1  0
 14 13  1  0
 14 15  1  0
 15 16  1  0
 16 17  1  0
 17 18  1  0
 18 19  1  0
 18 24  1  0
 19 20  2  0
 20 21  1  0
 21 22  1  0
 23 21  2  0
 24 23  1  0
 25 24  2  0
  2 26  1  0
  5 27  1  0
  7 28  1  0
  8 29  1  0
  8 30  1  0
  9 31  1  0
  9 32  1  0
 10 33  1  0
 10 34  1  0
 11 35  1  0
 11 36  1  0
 12 37  1  0
 12 38  1  0
 13 39  1  1
 14 40  1  0
 14 41  1  0
 15 42  1  0
 15 43  1  0
 16 44  1  0
 16 45  1  0
 17 46  1  6
 19 47  1  0
 20 48  1  0
 22 49  1  0
 22 50  1  0
M  ISO  8  26  14  27  14  28  13  29  13  30  13  31  13  32  13  33  13
M  ISO  8  34  13  35  13  36  13  37  13  38  13  39  13  40  13  41  13
M  ISO  7  42  13  43  13  44  13  45  13  46  13  47  14  48  14
M  END
>  <minimizedAffinity>  (1) 
-6.88862848

>  <minimizedRMSD>  (1) 
7.58988047

$$$$
