
     RDKit          3D

 54 57  0  0  1  0  0  0  0  0999 V2000
   43.8340   34.4240   40.5050 C   0  0  0  0  0  0  0  0  0  0  0  0
   45.1560   34.0340   40.4530 C   0  0  0  0  0  0  0  0  0  0  0  0
   45.9950   34.4520   41.4990 C   0  0  0  0  0  0  0  0  0  0  0  0
   45.4650   35.2210   42.5110 N   0  0  0  0  0  0  0  0  0  0  0  0
   44.1410   35.5830   42.5180 C   0  0  0  0  0  0  0  0  0  0  0  0
   43.3480   35.1710   41.5040 N   0  0  0  0  0  0  0  0  0  0  0  0
   47.4310   34.0810   41.5700 C   0  0  0  0  0  0  0  0  0  0  0  0
   48.2760   35.0800   40.7680 C   0  0  0  0  0  0  0  0  0  0  0  0
   49.1880   35.8880   41.6110 C   0  0  0  0  0  0  0  0  0  0  0  0
   50.0490   35.0910   42.5490 C   0  0  0  0  0  0  0  0  0  0  0  0
   49.4620   33.7250   42.8210 C   0  0  0  0  0  0  0  0  0  0  0  0
   47.9700   33.9280   42.9430 C   0  0  0  0  0  0  0  0  0  0  0  0
   42.8900   34.0330   39.4320 C   0  0  1  0  0  0  0  0  0  0  0  0
   43.5550   33.3030   38.2860 C   0  0  0  0  0  0  0  0  0  0  0  0
   42.7940   32.0000   38.1400 C   0  0  0  0  0  0  0  0  0  0  0  0
   42.3020   31.7660   39.5490 C   0  0  0  0  0  0  0  0  0  0  0  0
   41.8160   33.1290   39.9690 C   0  0  2  0  0  0  0  0  0  0  0  0
   40.4930   33.4550   39.6590 N   0  0  0  0  0  0  0  0  0  0  0  0
   40.3240   34.6130   38.8460 C   0  0  0  0  0  0  0  0  0  0  0  0
   39.2990   34.4250   37.7490 C   0  0  0  0  0  0  0  0  0  0  0  0
   38.1920   33.4860   38.1900 C   0  0  0  0  0  0  0  0  0  0  0  0
   38.1440   33.5860   39.7180 C   0  0  0  0  0  0  0  0  0  0  0  0
   39.3910   32.8950   40.2820 C   0  0  0  0  0  0  0  0  0  0  0  0
   45.5383   33.4195   39.6246 H   0  0  0  0  0  0  0  0  0  0  0  0
   43.7327   36.1973   43.3341 H   0  0  0  0  0  0  0  0  0  0  0  0
   47.4977   33.0781   41.1231 H   0  0  0  0  0  0  0  0  0  0  0  0
   48.8796   34.5198   40.0387 H   0  0  0  0  0  0  0  0  0  0  0  0
   47.5791   35.7782   40.2813 H   0  0  0  0  0  0  0  0  0  0  0  0
   49.8483   36.4641   40.9461 H   0  0  0  0  0  0  0  0  0  0  0  0
   48.5473   36.5221   42.2414 H   0  0  0  0  0  0  0  0  0  0  0  0
   51.0459   34.9679   42.1005 H   0  0  0  0  0  0  0  0  0  0  0  0
   50.1110   35.6343   43.5035 H   0  0  0  0  0  0  0  0  0  0  0  0
   49.6876   33.0400   41.9904 H   0  0  0  0  0  0  0  0  0  0  0  0
   49.8836   33.2807   43.7347 H   0  0  0  0  0  0  0  0  0  0  0  0
   47.7603   34.8327   43.5325 H   0  0  0  0  0  0  0  0  0  0  0  0
   47.5014   33.0727   43.4518 H   0  0  0  0  0  0  0  0  0  0  0  0
   42.4721   34.9794   39.0582 H   0  0  0  0  0  0  0  0  0  0  0  0
   43.4854   33.8946   37.3612 H   0  0  0  0  0  0  0  0  0  0  0  0
   44.6247   33.1318   38.4770 H   0  0  0  0  0  0  0  0  0  0  0  0
   41.9555   32.1033   37.4356 H   0  0  0  0  0  0  0  0  0  0  0  0
   43.3998   31.1744   37.7382 H   0  0  0  0  0  0  0  0  0  0  0  0
   41.4829   31.0320   39.5650 H   0  0  0  0  0  0  0  0  0  0  0  0
   43.0753   31.3570   40.2159 H   0  0  0  0  0  0  0  0  0  0  0  0
   41.7012   33.2178   41.0594 H   0  0  0  0  0  0  0  0  0  0  0  0
   40.0014   35.4466   39.4872 H   0  0  0  0  0  0  0  0  0  0  0  0
   41.2899   34.8160   38.3604 H   0  0  0  0  0  0  0  0  0  0  0  0
   39.7952   34.0038   36.8622 H   0  0  0  0  0  0  0  0  0  0  0  0
   38.8543   35.4036   37.5154 H   0  0  0  0  0  0  0  0  0  0  0  0
   37.2304   33.7966   37.7554 H   0  0  0  0  0  0  0  0  0  0  0  0
   38.3797   32.4544   37.8574 H   0  0  0  0  0  0  0  0  0  0  0  0
   38.1343   34.6431   40.0220 H   0  0  0  0  0  0  0  0  0  0  0  0
   37.2342   33.1016   40.1024 H   0  0  0  0  0  0  0  0  0  0  0  0
   39.3494   31.8158   40.0734 H   0  0  0  0  0  0  0  0  0  0  0  0
   39.4506   33.0311   41.3719 H   0  0  0  0  0  0  0  0  0  0  0  0
  1  6  1  0
  2  1  2  0
  2  3  1  0
  3  7  1  0
  3  4  2  0
  4  5  1  0
  6  5  2  0
  7 12  1  0
  8  7  1  0
  8  9  1  0
  9 10  1  0
 10 11  1  0
 11 12  1  0
 13 17  1  0
 13  1  1  0
 14 13  1  0
 15 14  1  0
 15 16  1  0
 16 17  1  0
 18 17  1  0
 18 23  1  0
 19 18  1  0
 20 21  1  0
 20 19  1  0
 21 22  1  0
 22 23  1  0
  2 24  1  0
  5 25  1  0
  7 26  1  0
  8 27  1  0
  8 28  1  0
  9 29  1  0
  9 30  1  0
 10 31  1  0
 10 32  1  0
 11 33  1  0
 11 34  1  0
 12 35  1  0
 12 36  1  0
 13 37  1  6
 14 38  1  0
 14 39  1  0
 15 40  1  0
 15 41  1  0
 16 42  1  0
 16 43  1  0
 17 44  1  1
 19 45  1  0
 19 46  1  0
 20 47  1  0
 20 48  1  0
 21 49  1  0
 21 50  1  0
 22 51  1  0
 22 52  1  0
 23 53  1  0
 23 54  1  0
M  ISO  8  24  14  25  14  26  13  27  13  28  13  29  13  30  13  31  13
M  ISO  8  32  13  33  13  34  13  35  13  36  13  37  13  38  13  39  13
M  ISO  8  40  13  41  13  42  13  43  13  44  13  45  13  46  13  47  13
M  ISO  7  48  13  49  13  50  13  51  13  52  13  53  13  54  13
M  END
>  <minimizedAffinity>  (1) 
-6.89403391

>  <minimizedRMSD>  (1) 
2.50450683

$$$$
