
     RDKit          3D

 44 47  0  0  1  0  0  0  0  0999 V2000
   46.3270   34.9490   41.7340 C   0  0  0  0  0  0  0  0  0  0  0  0
   45.2350   34.5090   40.9850 C   0  0  0  0  0  0  0  0  0  0  0  0
   43.9680   34.7450   41.5500 C   0  0  0  0  0  0  0  0  0  0  0  0
   43.8700   35.3760   42.7680 N   0  0  0  0  0  0  0  0  0  0  0  0
   44.9940   35.7830   43.4470 C   0  0  0  0  0  0  0  0  0  0  0  0
   46.1990   35.5550   42.9070 N   0  0  0  0  0  0  0  0  0  0  0  0
   42.7050   34.3380   40.8460 C   0  0  0  0  0  0  0  0  0  0  0  0
   41.4880   34.9370   41.5780 C   0  0  0  0  0  0  0  0  0  0  0  0
   40.7710   35.9590   40.7730 C   0  0  0  0  0  0  0  0  0  0  0  0
   40.3520   35.4550   39.4240 C   0  0  0  0  0  0  0  0  0  0  0  0
   41.2760   34.3790   38.9120 C   0  0  0  0  0  0  0  0  0  0  0  0
   42.6740   34.6910   39.4070 C   0  0  0  0  0  0  0  0  0  0  0  0
   47.7010   34.7280   41.2100 C   0  0  1  0  0  0  0  0  0  0  0  0
   48.7170   35.6880   41.7170 C   0  0  0  0  0  0  0  0  0  0  0  0
   49.8250   34.8450   42.3470 C   0  0  0  0  0  0  0  0  0  0  0  0
   49.0610   33.6040   42.7700 C   0  0  0  0  0  0  0  0  0  0  0  0
   48.1810   33.3200   41.6080 C   0  0  2  0  0  0  0  0  0  0  0  0
   48.9070   32.7020   40.4690 C   0  0  0  0  0  0  0  0  0  0  0  0
   49.9840   31.8930   40.4120 N   0  0  0  0  0  0  0  0  0  0  0  0
   50.2560   31.6070   39.1910 O   0  0  0  0  0  0  0  0  0  0  0  0
   49.3960   32.1940   38.3730 C   0  0  0  0  0  0  0  0  0  0  0  0
   48.5600   32.8730   39.1820 N   0  0  0  0  0  0  0  0  0  0  0  0
   45.3570   34.0086   40.0130 H   0  0  0  0  0  0  0  0  0  0  0  0
   44.9054   36.2887   44.4198 H   0  0  0  0  0  0  0  0  0  0  0  0
   42.6679   33.2391   40.8796 H   0  0  0  0  0  0  0  0  0  0  0  0
   40.7870   34.1234   41.8161 H   0  0  0  0  0  0  0  0  0  0  0  0
   41.8621   35.4355   42.4844 H   0  0  0  0  0  0  0  0  0  0  0  0
   39.8724   36.2724   41.3246 H   0  0  0  0  0  0  0  0  0  0  0  0
   41.4659   36.7960   40.6100 H   0  0  0  0  0  0  0  0  0  0  0  0
   39.3345   35.0437   39.4987 H   0  0  0  0  0  0  0  0  0  0  0  0
   40.3888   36.2987   38.7192 H   0  0  0  0  0  0  0  0  0  0  0  0
   41.2629   34.3674   37.8121 H   0  0  0  0  0  0  0  0  0  0  0  0
   40.9527   33.3920   39.2744 H   0  0  0  0  0  0  0  0  0  0  0  0
   43.4140   34.0937   38.8541 H   0  0  0  0  0  0  0  0  0  0  0  0
   42.9200   35.7522   39.2546 H   0  0  0  0  0  0  0  0  0  0  0  0
   47.6198   34.8653   40.1216 H   0  0  0  0  0  0  0  0  0  0  0  0
   49.1199   36.2893   40.8887 H   0  0  0  0  0  0  0  0  0  0  0  0
   48.2799   36.3849   42.4472 H   0  0  0  0  0  0  0  0  0  0  0  0
   50.6104   34.6031   41.6158 H   0  0  0  0  0  0  0  0  0  0  0  0
   50.3555   35.3461   43.1700 H   0  0  0  0  0  0  0  0  0  0  0  0
   49.7476   32.7651   42.9565 H   0  0  0  0  0  0  0  0  0  0  0  0
   48.4998   33.7467   43.7052 H   0  0  0  0  0  0  0  0  0  0  0  0
   47.3834   32.6054   41.8596 H   0  0  0  0  0  0  0  0  0  0  0  0
   49.3700   32.1392   37.2747 H   0  0  0  0  0  0  0  0  0  0  0  0
  1  6  2  0
  2  3  2  0
  2  1  1  0
  3  4  1  0
  4  5  2  0
  6  5  1  0
  7  3  1  0
  7  8  1  0
  9  8  1  0
 10  9  1  0
 11 12  1  0
 11 10  1  0
 12  7  1  0
 13 17  1  0
 13 14  1  0
 13  1  1  0
 14 15  1  0
 15 16  1  0
 17 16  1  0
 18 17  1  0
 19 18  2  0
 20 19  1  0
 21 22  2  0
 21 20  1  0
 22 18  1  0
  2 23  1  0
  5 24  1  0
  7 25  1  0
  8 26  1  0
  8 27  1  0
  9 28  1  0
  9 29  1  0
 10 30  1  0
 10 31  1  0
 11 32  1  0
 11 33  1  0
 12 34  1  0
 12 35  1  0
 13 36  1  6
 14 37  1  0
 14 38  1  0
 15 39  1  0
 15 40  1  0
 16 41  1  0
 16 42  1  0
 17 43  1  1
 21 44  1  0
M  ISO  8  23  14  24  14  25  13  26  13  27  13  28  13  29  13  30  13
M  ISO  8  31  13  32  13  33  13  34  13  35  13  36  13  37  13  38  13
M  ISO  6  39  13  40  13  41  13  42  13  43  13  44  14
M  END
>  <minimizedAffinity>  (1) 
-6.412292

>  <minimizedRMSD>  (1) 
7.67142582

$$$$
