
     RDKit          3D

 49 52  0  0  1  0  0  0  0  0999 V2000
   43.9680   34.6260   41.4390 C   0  0  0  0  0  0  0  0  0  0  0  0
   45.2030   34.1800   40.9510 C   0  0  0  0  0  0  0  0  0  0  0  0
   46.3350   34.6540   41.6350 C   0  0  0  0  0  0  0  0  0  0  0  0
   46.1830   35.5000   42.7100 N   0  0  0  0  0  0  0  0  0  0  0  0
   44.9370   35.8940   43.1320 C   0  0  0  0  0  0  0  0  0  0  0  0
   43.8480   35.4400   42.4770 N   0  0  0  0  0  0  0  0  0  0  0  0
   47.7220   34.2460   41.2280 C   0  0  0  0  0  0  0  0  0  0  0  0
   48.6960   35.4160   41.4670 C   0  0  0  0  0  0  0  0  0  0  0  0
   49.6970   35.1380   42.5300 C   0  0  0  0  0  0  0  0  0  0  0  0
   50.4520   33.8470   42.3190 C   0  0  0  0  0  0  0  0  0  0  0  0
   49.6600   32.8490   41.5070 C   0  0  0  0  0  0  0  0  0  0  0  0
   48.2090   33.0140   41.8960 C   0  0  0  0  0  0  0  0  0  0  0  0
   42.7190   34.1820   40.7710 C   0  0  1  0  0  0  0  0  0  0  0  0
   41.5010   34.9400   41.1660 C   0  0  0  0  0  0  0  0  0  0  0  0
   40.8930   35.4760   39.8710 C   0  0  0  0  0  0  0  0  0  0  0  0
   42.1180   35.5950   38.9860 C   0  0  0  0  0  0  0  0  0  0  0  0
   42.8670   34.3400   39.2450 C   0  0  2  0  0  0  0  0  0  0  0  0
   42.4160   33.1800   38.5480 N   0  0  0  0  0  0  0  0  0  0  0  0
   41.1730   32.6750   38.6410 C   0  0  0  0  0  0  0  0  0  0  0  0
   40.8160   31.5320   37.9210 C   0  0  0  0  0  0  0  0  0  0  0  0
   41.8300   31.0060   37.1450 C   0  0  0  0  0  0  0  0  0  0  0  0
   41.5580   29.9600   36.4670 O   0  0  0  0  0  0  0  0  0  0  0  0
   43.0870   31.4740   37.0200 N   0  0  0  0  0  0  0  0  0  0  0  0
   43.3500   32.5850   37.7500 C   0  0  0  0  0  0  0  0  0  0  0  0
   44.5320   33.0410   37.6440 O   0  0  0  0  0  0  0  0  0  0  0  0
   45.2814   33.5024   40.0880 H   0  0  0  0  0  0  0  0  0  0  0  0
   44.8281   36.5706   43.9924 H   0  0  0  0  0  0  0  0  0  0  0  0
   47.6770   34.0009   40.1566 H   0  0  0  0  0  0  0  0  0  0  0  0
   49.2312   35.6224   40.5284 H   0  0  0  0  0  0  0  0  0  0  0  0
   48.0971   36.2766   41.7996 H   0  0  0  0  0  0  0  0  0  0  0  0
   50.4210   35.9658   42.5525 H   0  0  0  0  0  0  0  0  0  0  0  0
   49.1467   35.0416   43.4776 H   0  0  0  0  0  0  0  0  0  0  0  0
   51.3911   34.0681   41.7905 H   0  0  0  0  0  0  0  0  0  0  0  0
   50.6437   33.4025   43.3068 H   0  0  0  0  0  0  0  0  0  0  0  0
   49.9974   31.8265   41.7320 H   0  0  0  0  0  0  0  0  0  0  0  0
   49.7993   33.0213   40.4295 H   0  0  0  0  0  0  0  0  0  0  0  0
   48.1190   33.1146   42.9877 H   0  0  0  0  0  0  0  0  0  0  0  0
   47.6169   32.1391   41.5894 H   0  0  0  0  0  0  0  0  0  0  0  0
   42.5826   33.1369   41.0860 H   0  0  0  0  0  0  0  0  0  0  0  0
   40.7875   34.2760   41.6759 H   0  0  0  0  0  0  0  0  0  0  0  0
   41.7453   35.7563   41.8617 H   0  0  0  0  0  0  0  0  0  0  0  0
   40.1604   34.7718   39.4499 H   0  0  0  0  0  0  0  0  0  0  0  0
   40.3363   36.4167   39.9937 H   0  0  0  0  0  0  0  0  0  0  0  0
   42.7182   36.4738   39.2642 H   0  0  0  0  0  0  0  0  0  0  0  0
   41.8636   35.7264   37.9239 H   0  0  0  0  0  0  0  0  0  0  0  0
   43.9004   34.4191   38.8764 H   0  0  0  0  0  0  0  0  0  0  0  0
   40.4317   33.1656   39.2889 H   0  0  0  0  0  0  0  0  0  0  0  0
   39.8107   31.0880   37.9684 H   0  0  0  0  0  0  0  0  0  0  0  0
   43.7913   31.0238   36.4182 H   0  0  0  0  0  0  0  0  0  0  0  0
  1  6  1  0
  2  1  2  0
  2  3  1  0
  3  4  2  0
  4  5  1  0
  6  5  2  0
  7  8  1  0
  7  3  1  0
  7 12  1  0
  8  9  1  0
 10  9  1  0
 11 12  1  0
 11 10  1  0
 13 14  1  0
 13  1  1  0
 15 14  1  0
 16 17  1  0
 16 15  1  0
 17 13  1  0
 18 19  1  0
 18 17  1  0
 20 19  2  0
 21 20  1  0
 22 21  2  0
 23 21  1  0
 23 24  1  0
 24 18  1  0
 25 24  2  0
  2 26  1  0
  5 27  1  0
  7 28  1  0
  8 29  1  0
  8 30  1  0
  9 31  1  0
  9 32  1  0
 10 33  1  0
 10 34  1  0
 11 35  1  0
 11 36  1  0
 12 37  1  0
 12 38  1  0
 13 39  1  6
 14 40  1  0
 14 41  1  0
 15 42  1  0
 15 43  1  0
 16 44  1  0
 16 45  1  0
 17 46  1  1
 19 47  1  0
 20 48  1  0
 23 49  1  0
M  ISO  8  26  14  27  14  28  13  29  13  30  13  31  13  32  13  33  13
M  ISO  8  34  13  35  13  36  13  37  13  38  13  39  13  40  13  41  13
M  ISO  8  42  13  43  13  44  13  45  13  46  13  47  14  48  14  49   9
M  END
>  <minimizedAffinity>  (1) 
-6.58454418

>  <minimizedRMSD>  (1) 
4.47059155

$$$$
