
     RDKit          3D

 46 49  0  0  1  0  0  0  0  0999 V2000
   44.7110   34.6290   41.1890 C   0  0  0  0  0  0  0  0  0  0  0  0
   43.3960   35.0610   41.1450 C   0  0  0  0  0  0  0  0  0  0  0  0
   42.6120   34.5660   40.0890 C   0  0  0  0  0  0  0  0  0  0  0  0
   43.1620   33.7020   39.1700 N   0  0  0  0  0  0  0  0  0  0  0  0
   44.4740   33.3070   39.2640 C   0  0  0  0  0  0  0  0  0  0  0  0
   45.2180   33.7820   40.2750 N   0  0  0  0  0  0  0  0  0  0  0  0
   41.1690   34.9430   39.9410 C   0  0  0  0  0  0  0  0  0  0  0  0
   40.9110   35.4550   38.5120 C   0  0  0  0  0  0  0  0  0  0  0  0
   40.0110   34.5720   37.7330 C   0  0  0  0  0  0  0  0  0  0  0  0
   38.7150   34.2450   38.4210 C   0  0  0  0  0  0  0  0  0  0  0  0
   38.8370   34.3530   39.9230 C   0  0  0  0  0  0  0  0  0  0  0  0
   40.2180   33.8640   40.2930 C   0  0  0  0  0  0  0  0  0  0  0  0
   45.6230   35.1050   42.2580 C   0  0  1  0  0  0  0  0  0  0  0  0
   45.1220   34.7830   43.6480 C   0  0  0  0  0  0  0  0  0  0  0  0
   46.2500   34.0360   44.3240 C   0  0  0  0  0  0  0  0  0  0  0  0
   46.9180   33.3540   43.1460 C   0  0  0  0  0  0  0  0  0  0  0  0
   46.9880   34.4530   42.1250 C   0  0  2  0  0  0  0  0  0  0  0  0
   48.0820   35.4400   42.3350 C   0  0  0  0  0  0  0  0  0  0  0  0
   49.4960   35.0660   42.2920 C   0  0  0  0  0  0  0  0  0  0  0  0
   48.9630   35.7000   41.0750 C   0  0  0  0  0  0  0  0  0  0  0  0
   42.9875   35.7537   41.8956 H   0  0  0  0  0  0  0  0  0  0  0  0
   44.9062   32.6155   38.5258 H   0  0  0  0  0  0  0  0  0  0  0  0
   40.9800   35.7431   40.6718 H   0  0  0  0  0  0  0  0  0  0  0  0
   40.4538   36.4535   38.5748 H   0  0  0  0  0  0  0  0  0  0  0  0
   41.8797   35.4783   37.9914 H   0  0  0  0  0  0  0  0  0  0  0  0
   40.5419   33.6296   37.5331 H   0  0  0  0  0  0  0  0  0  0  0  0
   39.7502   35.1198   36.8154 H   0  0  0  0  0  0  0  0  0  0  0  0
   37.9409   34.9458   38.0749 H   0  0  0  0  0  0  0  0  0  0  0  0
   38.4470   33.2075   38.1724 H   0  0  0  0  0  0  0  0  0  0  0  0
   38.7104   35.3994   40.2376 H   0  0  0  0  0  0  0  0  0  0  0  0
   38.0623   33.7530   40.4228 H   0  0  0  0  0  0  0  0  0  0  0  0
   40.4585   32.9502   39.7299 H   0  0  0  0  0  0  0  0  0  0  0  0
   40.2753   33.6251   41.3652 H   0  0  0  0  0  0  0  0  0  0  0  0
   45.6764   36.1965   42.1321 H   0  0  0  0  0  0  0  0  0  0  0  0
   44.8909   35.7079   44.1967 H   0  0  0  0  0  0  0  0  0  0  0  0
   44.1982   34.1865   43.6197 H   0  0  0  0  0  0  0  0  0  0  0  0
   46.9400   34.7260   44.8317 H   0  0  0  0  0  0  0  0  0  0  0  0
   45.9176   33.3430   45.1109 H   0  0  0  0  0  0  0  0  0  0  0  0
   47.9232   32.9957   43.4128 H   0  0  0  0  0  0  0  0  0  0  0  0
   46.3772   32.4636   42.7928 H   0  0  0  0  0  0  0  0  0  0  0  0
   47.2195   34.0562   41.1255 H   0  0  0  0  0  0  0  0  0  0  0  0
   47.4856   36.0032   43.0679 H   0  0  0  0  0  0  0  0  0  0  0  0
   50.2173   35.6165   42.9138 H   0  0  0  0  0  0  0  0  0  0  0  0
   50.0307   34.1226   42.4765 H   0  0  0  0  0  0  0  0  0  0  0  0
   49.2600   36.7243   40.8054 H   0  0  0  0  0  0  0  0  0  0  0  0
   48.9114   35.4434   40.0066 H   0  0  0  0  0  0  0  0  0  0  0  0
  1 13  1  0
  2  1  2  0
  3  2  1  0
  4  5  1  0
  4  3  2  0
  5  6  2  0
  6  1  1  0
  7  3  1  0
  7 12  1  0
  8  7  1  0
  9 10  1  0
  9  8  1  0
 10 11  1  0
 11 12  1  0
 13 14  1  0
 14 15  1  0
 16 15  1  0
 17 13  1  0
 17 18  1  0
 17 16  1  0
 19 18  1  0
 20 19  1  0
 20 18  1  0
  2 21  1  0
  5 22  1  0
  7 23  1  0
  8 24  1  0
  8 25  1  0
  9 26  1  0
  9 27  1  0
 10 28  1  0
 10 29  1  0
 11 30  1  0
 11 31  1  0
 12 32  1  0
 12 33  1  0
 13 34  1  1
 14 35  1  0
 14 36  1  0
 15 37  1  0
 15 38  1  0
 16 39  1  0
 16 40  1  0
 17 41  1  6
 18 42  1  0
 19 43  1  0
 19 44  1  0
 20 45  1  0
 20 46  1  0
M  ISO  8  21  14  22  14  23  13  24  13  25  13  26  13  27  13  28  13
M  ISO  8  29  13  30  13  31  13  32  13  33  13  34  13  35  13  36  13
M  ISO  8  37  13  38  13  39  13  40  13  41  13  42  13  43  13  44  13
M  ISO  2  45  13  46  13
M  END
>  <minimizedAffinity>  (1) 
-6.48937511

>  <minimizedRMSD>  (1) 
7.17903423

$$$$
