
     RDKit          3D

 46 49  0  0  1  0  0  0  0  0999 V2000
   44.2160   34.4780   40.6300 C   0  0  0  0  0  0  0  0  0  0  0  0
   42.8820   34.8510   40.6420 C   0  0  0  0  0  0  0  0  0  0  0  0
   42.0620   34.2970   39.6450 C   0  0  0  0  0  0  0  0  0  0  0  0
   42.6030   33.4290   38.7230 N   0  0  0  0  0  0  0  0  0  0  0  0
   43.9320   33.0920   38.7590 C   0  0  0  0  0  0  0  0  0  0  0  0
   44.7160   33.6280   39.7170 N   0  0  0  0  0  0  0  0  0  0  0  0
   40.5960   34.6150   39.5640 C   0  0  0  0  0  0  0  0  0  0  0  0
   40.2080   34.8760   38.0970 C   0  0  0  0  0  0  0  0  0  0  0  0
   39.2730   33.8610   37.5500 C   0  0  0  0  0  0  0  0  0  0  0  0
   38.0520   33.6380   38.3920 C   0  0  0  0  0  0  0  0  0  0  0  0
   38.2960   33.9730   39.8430 C   0  0  0  0  0  0  0  0  0  0  0  0
   39.7210   33.5710   40.1530 C   0  0  0  0  0  0  0  0  0  0  0  0
   45.1570   35.0190   41.6350 C   0  0  1  0  0  0  0  0  0  0  0  0
   44.4760   35.6110   42.8400 C   0  0  0  0  0  0  0  0  0  0  0  0
   45.0690   34.8910   44.0460 C   0  0  0  0  0  0  0  0  0  0  0  0
   45.4560   33.5600   43.4540 C   0  0  0  0  0  0  0  0  0  0  0  0
   46.0710   33.9110   42.1390 C   0  0  2  0  0  0  0  0  0  0  0  0
   47.4500   34.2940   42.1900 C   0  0  0  0  0  0  0  0  0  0  0  0
   48.1140   35.4490   41.7760 C   0  0  0  0  0  0  0  0  0  0  0  0
   49.4540   35.5750   41.9370 C   0  0  0  0  0  0  0  0  0  0  0  0
   50.1140   34.4520   42.5550 C   0  0  0  0  0  0  0  0  0  0  0  0
   48.6710   33.2670   42.8560 S   0  0  0  0  0  0  0  0  0  0  0  0
   42.4843   35.5469   41.3953 H   0  0  0  0  0  0  0  0  0  0  0  0
   44.3520   32.3956   38.0183 H   0  0  0  0  0  0  0  0  0  0  0  0
   40.4335   35.5175   40.1716 H   0  0  0  0  0  0  0  0  0  0  0  0
   39.7284   35.8638   38.0327 H   0  0  0  0  0  0  0  0  0  0  0  0
   41.1310   34.8252   37.5007 H   0  0  0  0  0  0  0  0  0  0  0  0
   38.9491   34.1916   36.5521 H   0  0  0  0  0  0  0  0  0  0  0  0
   39.8196   32.9068   37.5241 H   0  0  0  0  0  0  0  0  0  0  0  0
   37.2384   34.2738   38.0129 H   0  0  0  0  0  0  0  0  0  0  0  0
   37.7868   32.5723   38.3297 H   0  0  0  0  0  0  0  0  0  0  0  0
   38.1626   35.0521   40.0097 H   0  0  0  0  0  0  0  0  0  0  0  0
   37.5864   33.4419   40.4945 H   0  0  0  0  0  0  0  0  0  0  0  0
   39.9447   32.5917   39.7048 H   0  0  0  0  0  0  0  0  0  0  0  0
   39.8812   33.4862   41.2380 H   0  0  0  0  0  0  0  0  0  0  0  0
   45.7128   35.8165   41.1201 H   0  0  0  0  0  0  0  0  0  0  0  0
   44.6764   36.6908   42.9016 H   0  0  0  0  0  0  0  0  0  0  0  0
   43.3841   35.4871   42.7903 H   0  0  0  0  0  0  0  0  0  0  0  0
   45.9470   35.4247   44.4387 H   0  0  0  0  0  0  0  0  0  0  0  0
   44.3806   34.8141   44.9005 H   0  0  0  0  0  0  0  0  0  0  0  0
   46.1815   33.0421   44.0985 H   0  0  0  0  0  0  0  0  0  0  0  0
   44.5986   32.8787   43.3506 H   0  0  0  0  0  0  0  0  0  0  0  0
   46.1275   33.0403   41.4691 H   0  0  0  0  0  0  0  0  0  0  0  0
   47.5431   36.2675   41.3132 H   0  0  0  0  0  0  0  0  0  0  0  0
   50.0013   36.4741   41.6175 H   0  0  0  0  0  0  0  0  0  0  0  0
   51.1802   34.3189   42.7904 H   0  0  0  0  0  0  0  0  0  0  0  0
  1  2  2  0
  1 13  1  0
  3  2  1  0
  4  5  1  0
  4  3  2  0
  5  6  2  0
  6  1  1  0
  7  3  1  0
  7 12  1  0
  8  7  1  0
  9  8  1  0
  9 10  1  0
 10 11  1  0
 11 12  1  0
 13 17  1  0
 13 14  1  0
 14 15  1  0
 16 15  1  0
 17 18  1  0
 17 16  1  0
 18 22  1  0
 19 20  1  0
 19 18  2  0
 20 21  2  0
 21 22  1  0
  2 23  1  0
  5 24  1  0
  7 25  1  0
  8 26  1  0
  8 27  1  0
  9 28  1  0
  9 29  1  0
 10 30  1  0
 10 31  1  0
 11 32  1  0
 11 33  1  0
 12 34  1  0
 12 35  1  0
 13 36  1  6
 14 37  1  0
 14 38  1  0
 15 39  1  0
 15 40  1  0
 16 41  1  0
 16 42  1  0
 17 43  1  6
 19 44  1  0
 20 45  1  0
 21 46  1  0
M  ISO  8  23  14  24  14  25  13  26  13  27  13  28  13  29  13  30  13
M  ISO  8  31  13  32  13  33  13  34  13  35  13  36  13  37  13  38  13
M  ISO  8  39  13  40  13  41  13  42  13  43  13  44  14  45  14  46  14
M  END
>  <minimizedAffinity>  (1) 
-6.60445452

>  <minimizedRMSD>  (1) 
7.82093716

$$$$
