
     RDKit          3D

 46 49  0  0  1  0  0  0  0  0999 V2000
   43.9020   34.7260   40.9120 C   0  0  0  0  0  0  0  0  0  0  0  0
   45.1820   34.2260   40.6720 C   0  0  0  0  0  0  0  0  0  0  0  0
   46.1770   34.5680   41.6020 C   0  0  0  0  0  0  0  0  0  0  0  0
   45.8420   35.3590   42.6770 N   0  0  0  0  0  0  0  0  0  0  0  0
   44.5610   35.8190   42.8570 C   0  0  0  0  0  0  0  0  0  0  0  0
   43.6140   35.4890   41.9640 N   0  0  0  0  0  0  0  0  0  0  0  0
   47.5820   34.0820   41.4690 C   0  0  0  0  0  0  0  0  0  0  0  0
   48.4890   35.2400   41.0120 C   0  0  0  0  0  0  0  0  0  0  0  0
   49.4810   35.6390   42.0410 C   0  0  0  0  0  0  0  0  0  0  0  0
   50.3260   34.4990   42.5200 C   0  0  0  0  0  0  0  0  0  0  0  0
   49.5830   33.1810   42.4560 C   0  0  0  0  0  0  0  0  0  0  0  0
   48.1300   33.4670   42.7040 C   0  0  0  0  0  0  0  0  0  0  0  0
   42.8100   34.3990   39.9540 C   0  0  1  0  0  0  0  0  0  0  0  0
   43.2660   33.9270   38.6170 C   0  0  0  0  0  0  0  0  0  0  0  0
   42.6460   32.5360   38.3990 C   0  0  0  0  0  0  0  0  0  0  0  0
   42.4300   32.0840   39.8020 C   0  0  0  0  0  0  0  0  0  0  0  0
   41.9520   33.2780   40.5440 C   0  0  2  0  0  0  0  0  0  0  0  0
   40.5330   33.5970   40.2590 C   0  0  0  0  0  0  0  0  0  0  0  0
   39.8530   34.7270   39.8580 C   0  0  0  0  0  0  0  0  0  0  0  0
   38.5040   34.4740   39.7370 C   0  0  0  0  0  0  0  0  0  0  0  0
   38.4100   33.1420   40.0820 C   0  0  0  0  0  0  0  0  0  0  0  0
   39.5900   32.6620   40.3790 O   0  0  0  0  0  0  0  0  0  0  0  0
   45.4010   33.5953   39.7978 H   0  0  0  0  0  0  0  0  0  0  0  0
   44.3133   36.4506   43.7228 H   0  0  0  0  0  0  0  0  0  0  0  0
   47.5618   33.2812   40.7151 H   0  0  0  0  0  0  0  0  0  0  0  0
   49.0295   34.9259   40.1069 H   0  0  0  0  0  0  0  0  0  0  0  0
   47.8427   36.1097   40.8226 H   0  0  0  0  0  0  0  0  0  0  0  0
   50.1411   36.4068   41.6110 H   0  0  0  0  0  0  0  0  0  0  0  0
   48.9187   36.0157   42.9081 H   0  0  0  0  0  0  0  0  0  0  0  0
   51.2243   34.4321   41.8887 H   0  0  0  0  0  0  0  0  0  0  0  0
   50.5932   34.6897   43.5699 H   0  0  0  0  0  0  0  0  0  0  0  0
   49.7116   32.7257   41.4630 H   0  0  0  0  0  0  0  0  0  0  0  0
   49.9731   32.4804   43.2090 H   0  0  0  0  0  0  0  0  0  0  0  0
   48.0226   34.1620   43.5498 H   0  0  0  0  0  0  0  0  0  0  0  0
   47.5885   32.5419   42.9507 H   0  0  0  0  0  0  0  0  0  0  0  0
   42.2655   35.3430   39.8046 H   0  0  0  0  0  0  0  0  0  0  0  0
   42.9244   34.6203   37.8343 H   0  0  0  0  0  0  0  0  0  0  0  0
   44.3640   33.8807   38.5691 H   0  0  0  0  0  0  0  0  0  0  0  0
   41.6967   32.6012   37.8472 H   0  0  0  0  0  0  0  0  0  0  0  0
   43.2693   31.8561   37.7996 H   0  0  0  0  0  0  0  0  0  0  0  0
   41.6745   31.2851   39.8348 H   0  0  0  0  0  0  0  0  0  0  0  0
   43.3522   31.6769   40.2421 H   0  0  0  0  0  0  0  0  0  0  0  0
   42.0274   33.1329   41.6318 H   0  0  0  0  0  0  0  0  0  0  0  0
   40.3246   35.7010   39.6608 H   0  0  0  0  0  0  0  0  0  0  0  0
   37.7007   35.1638   39.4389 H   0  0  0  0  0  0  0  0  0  0  0  0
   37.4741   32.5644   40.1043 H   0  0  0  0  0  0  0  0  0  0  0  0
  1  6  1  0
  2  1  2  0
  2  3  1  0
  3  4  2  0
  4  5  1  0
  6  5  2  0
  7  3  1  0
  7 12  1  0
  8  7  1  0
  8  9  1  0
  9 10  1  0
 11 10  1  0
 11 12  1  0
 13 17  1  0
 13  1  1  0
 14 13  1  0
 15 14  1  0
 15 16  1  0
 16 17  1  0
 18 22  1  0
 18 17  1  0
 19 18  2  0
 20 19  1  0
 20 21  2  0
 21 22  1  0
  2 23  1  0
  5 24  1  0
  7 25  1  0
  8 26  1  0
  8 27  1  0
  9 28  1  0
  9 29  1  0
 10 30  1  0
 10 31  1  0
 11 32  1  0
 11 33  1  0
 12 34  1  0
 12 35  1  0
 13 36  1  6
 14 37  1  0
 14 38  1  0
 15 39  1  0
 15 40  1  0
 16 41  1  0
 16 42  1  0
 17 43  1  1
 19 44  1  0
 20 45  1  0
 21 46  1  0
M  ISO  8  23  14  24  14  25  13  26  13  27  13  28  13  29  13  30  13
M  ISO  8  31  13  32  13  33  13  34  13  35  13  36  13  37  13  38  13
M  ISO  8  39  13  40  13  41  13  42  13  43  13  44  14  45  14  46  14
M  END
>  <minimizedAffinity>  (1) 
-6.45255613

>  <minimizedRMSD>  (1) 
2.00003529

$$$$
