
     RDKit          3D

 47 50  0  0  1  0  0  0  0  0999 V2000
   43.9450   34.6010   40.8630 C   0  0  0  0  0  0  0  0  0  0  0  0
   45.2370   34.1440   40.6570 C   0  0  0  0  0  0  0  0  0  0  0  0
   46.2170   34.5320   41.5880 C   0  0  0  0  0  0  0  0  0  0  0  0
   45.8460   35.3340   42.6390 N   0  0  0  0  0  0  0  0  0  0  0  0
   44.5500   35.7580   42.7960 C   0  0  0  0  0  0  0  0  0  0  0  0
   43.6210   35.3740   41.8890 N   0  0  0  0  0  0  0  0  0  0  0  0
   47.6300   34.0920   41.4900 C   0  0  0  0  0  0  0  0  0  0  0  0
   48.5150   35.2550   41.0130 C   0  0  0  0  0  0  0  0  0  0  0  0
   49.4890   35.6970   42.0470 C   0  0  0  0  0  0  0  0  0  0  0  0
   50.3410   34.5850   42.5790 C   0  0  0  0  0  0  0  0  0  0  0  0
   49.6520   33.2450   42.4900 C   0  0  0  0  0  0  0  0  0  0  0  0
   48.1790   33.4960   42.7320 C   0  0  0  0  0  0  0  0  0  0  0  0
   42.8780   34.2170   39.8980 C   0  0  1  0  0  0  0  0  0  0  0  0
   43.3660   33.8010   38.5550 C   0  0  0  0  0  0  0  0  0  0  0  0
   42.8140   32.3980   38.3170 C   0  0  0  0  0  0  0  0  0  0  0  0
   42.6580   31.8770   39.7220 C   0  0  0  0  0  0  0  0  0  0  0  0
   42.1010   33.0160   40.4730 C   0  0  2  0  0  0  0  0  0  0  0  0
   40.6730   33.2610   40.2850 C   0  0  0  0  0  0  0  0  0  0  0  0
   40.2700   34.5660   39.9950 C   0  0  0  0  0  0  0  0  0  0  0  0
   38.8970   34.7340   39.8280 C   0  0  0  0  0  0  0  0  0  0  0  0
   38.0210   33.7300   39.9320 N   0  0  0  0  0  0  0  0  0  0  0  0
   38.4460   32.4790   40.2130 C   0  0  0  0  0  0  0  0  0  0  0  0
   39.7660   32.2680   40.3840 N   0  0  0  0  0  0  0  0  0  0  0  0
   45.4863   33.5028   39.7987 H   0  0  0  0  0  0  0  0  0  0  0  0
   44.2707   36.3994   43.6449 H   0  0  0  0  0  0  0  0  0  0  0  0
   47.6385   33.2789   40.7492 H   0  0  0  0  0  0  0  0  0  0  0  0
   49.0714   34.9309   40.1211 H   0  0  0  0  0  0  0  0  0  0  0  0
   47.8544   36.1067   40.7933 H   0  0  0  0  0  0  0  0  0  0  0  0
   50.1473   36.4581   41.6027 H   0  0  0  0  0  0  0  0  0  0  0  0
   48.9067   36.0917   42.8926 H   0  0  0  0  0  0  0  0  0  0  0  0
   51.2731   34.5433   41.9964 H   0  0  0  0  0  0  0  0  0  0  0  0
   50.5409   34.7916   43.6408 H   0  0  0  0  0  0  0  0  0  0  0  0
   49.8029   32.8067   41.4925 H   0  0  0  0  0  0  0  0  0  0  0  0
   50.0600   32.5406   43.2298 H   0  0  0  0  0  0  0  0  0  0  0  0
   48.0478   34.1911   43.5744 H   0  0  0  0  0  0  0  0  0  0  0  0
   47.6576   32.5602   42.9817 H   0  0  0  0  0  0  0  0  0  0  0  0
   42.2671   35.1219   39.7639 H   0  0  0  0  0  0  0  0  0  0  0  0
   42.9957   34.4924   37.7837 H   0  0  0  0  0  0  0  0  0  0  0  0
   44.4649   33.8129   38.5065 H   0  0  0  0  0  0  0  0  0  0  0  0
   41.8466   32.4330   37.7945 H   0  0  0  0  0  0  0  0  0  0  0  0
   43.4573   31.7714   37.6818 H   0  0  0  0  0  0  0  0  0  0  0  0
   41.9686   31.0202   39.7456 H   0  0  0  0  0  0  0  0  0  0  0  0
   43.6080   31.5188   40.1453 H   0  0  0  0  0  0  0  0  0  0  0  0
   42.2029   32.8305   41.5524 H   0  0  0  0  0  0  0  0  0  0  0  0
   40.9829   35.3989   39.9051 H   0  0  0  0  0  0  0  0  0  0  0  0
   38.5161   35.7404   39.5998 H   0  0  0  0  0  0  0  0  0  0  0  0
   37.7292   31.6492   40.3005 H   0  0  0  0  0  0  0  0  0  0  0  0
  1  6  1  0
  2  1  2  0
  2  3  1  0
  3  4  2  0
  4  5  1  0
  6  5  2  0
  7  3  1  0
  7 12  1  0
  8  7  1  0
  8  9  1  0
  9 10  1  0
 11 10  1  0
 11 12  1  0
 13 17  1  0
 13  1  1  0
 14 13  1  0
 15 14  1  0
 15 16  1  0
 16 17  1  0
 18 23  1  0
 18 17  1  0
 19 18  2  0
 20 21  2  0
 20 19  1  0
 21 22  1  0
 22 23  2  0
  2 24  1  0
  5 25  1  0
  7 26  1  0
  8 27  1  0
  8 28  1  0
  9 29  1  0
  9 30  1  0
 10 31  1  0
 10 32  1  0
 11 33  1  0
 11 34  1  0
 12 35  1  0
 12 36  1  0
 13 37  1  6
 14 38  1  0
 14 39  1  0
 15 40  1  0
 15 41  1  0
 16 42  1  0
 16 43  1  0
 17 44  1  1
 19 45  1  0
 20 46  1  0
 22 47  1  0
M  ISO  8  24  14  25  14  26  13  27  13  28  13  29  13  30  13  31  13
M  ISO  8  32  13  33  13  34  13  35  13  36  13  37  13  38  13  39  13
M  ISO  8  40  13  41  13  42  13  43  13  44  13  45  14  46  14  47  14
M  END
>  <minimizedAffinity>  (1) 
-6.37501335

>  <minimizedRMSD>  (1) 
2.35981059

$$$$
