
     RDKit          3D

 46 49  0  0  1  0  0  0  0  0999 V2000
   43.8890   34.6520   40.8520 C   0  0  0  0  0  0  0  0  0  0  0  0
   45.1820   34.1740   40.6260 C   0  0  0  0  0  0  0  0  0  0  0  0
   46.1470   34.5390   41.5810 C   0  0  0  0  0  0  0  0  0  0  0  0
   45.7830   35.3220   42.6520 N   0  0  0  0  0  0  0  0  0  0  0  0
   44.4900   35.7560   42.8100 C   0  0  0  0  0  0  0  0  0  0  0  0
   43.5660   35.4060   41.8940 N   0  0  0  0  0  0  0  0  0  0  0  0
   47.5740   34.0830   41.4720 C   0  0  0  0  0  0  0  0  0  0  0  0
   48.4510   35.2440   40.9700 C   0  0  0  0  0  0  0  0  0  0  0  0
   49.4350   35.7100   41.9760 C   0  0  0  0  0  0  0  0  0  0  0  0
   50.2880   34.6170   42.5550 C   0  0  0  0  0  0  0  0  0  0  0  0
   49.5990   33.2750   42.4910 C   0  0  0  0  0  0  0  0  0  0  0  0
   48.1210   33.5170   42.7290 C   0  0  0  0  0  0  0  0  0  0  0  0
   42.8130   34.3170   39.8850 C   0  0  1  0  0  0  0  0  0  0  0  0
   43.2980   33.8180   38.5690 C   0  0  0  0  0  0  0  0  0  0  0  0
   42.6120   32.4690   38.3530 C   0  0  0  0  0  0  0  0  0  0  0  0
   42.3970   32.0070   39.7800 C   0  0  0  0  0  0  0  0  0  0  0  0
   41.9130   33.2190   40.4800 C   0  0  2  0  0  0  0  0  0  0  0  0
   40.5250   33.5390   40.2800 N   0  0  0  0  0  0  0  0  0  0  0  0
   39.5490   32.6560   40.3940 N   0  0  0  0  0  0  0  0  0  0  0  0
   38.3540   33.2530   40.1480 C   0  0  0  0  0  0  0  0  0  0  0  0
   38.6400   34.5860   39.8660 C   0  0  0  0  0  0  0  0  0  0  0  0
   40.0250   34.7570   39.9520 C   0  0  0  0  0  0  0  0  0  0  0  0
   45.4299   33.5504   39.7544 H   0  0  0  0  0  0  0  0  0  0  0  0
   44.2125   36.3804   43.6720 H   0  0  0  0  0  0  0  0  0  0  0  0
   47.5880   33.2566   40.7462 H   0  0  0  0  0  0  0  0  0  0  0  0
   48.9972   34.9084   40.0761 H   0  0  0  0  0  0  0  0  0  0  0  0
   47.7813   36.0890   40.7521 H   0  0  0  0  0  0  0  0  0  0  0  0
   50.0965   36.4464   41.4963 H   0  0  0  0  0  0  0  0  0  0  0  0
   48.8574   36.1356   42.8098 H   0  0  0  0  0  0  0  0  0  0  0  0
   51.2290   34.5616   41.9881 H   0  0  0  0  0  0  0  0  0  0  0  0
   50.4770   34.8544   43.6123 H   0  0  0  0  0  0  0  0  0  0  0  0
   49.7516   32.8200   41.5012 H   0  0  0  0  0  0  0  0  0  0  0  0
   50.0089   32.5896   43.2474 H   0  0  0  0  0  0  0  0  0  0  0  0
   47.9817   34.2277   43.5569 H   0  0  0  0  0  0  0  0  0  0  0  0
   47.6058   32.5836   42.9997 H   0  0  0  0  0  0  0  0  0  0  0  0
   42.2782   35.2619   39.7085 H   0  0  0  0  0  0  0  0  0  0  0  0
   43.0220   34.5200   37.7684 H   0  0  0  0  0  0  0  0  0  0  0  0
   44.3936   33.7208   38.5531 H   0  0  0  0  0  0  0  0  0  0  0  0
   41.6568   32.5848   37.8200 H   0  0  0  0  0  0  0  0  0  0  0  0
   43.1906   31.7655   37.7364 H   0  0  0  0  0  0  0  0  0  0  0  0
   41.6456   31.2048   39.8222 H   0  0  0  0  0  0  0  0  0  0  0  0
   43.3098   31.5927   40.2329 H   0  0  0  0  0  0  0  0  0  0  0  0
   41.9715   33.0907   41.5709 H   0  0  0  0  0  0  0  0  0  0  0  0
   37.3614   32.7793   40.1676 H   0  0  0  0  0  0  0  0  0  0  0  0
   37.9058   35.3670   39.6191 H   0  0  0  0  0  0  0  0  0  0  0  0
   40.5914   35.6856   39.7879 H   0  0  0  0  0  0  0  0  0  0  0  0
  1  6  1  0
  2  1  2  0
  2  3  1  0
  3  4  2  0
  4  5  1  0
  6  5  2  0
  7  3  1  0
  7 12  1  0
  8  7  1  0
  8  9  1  0
  9 10  1  0
 11 10  1  0
 11 12  1  0
 13 17  1  0
 13  1  1  0
 14 13  1  0
 15 14  1  0
 15 16  1  0
 16 17  1  0
 18 19  1  0
 18 17  1  0
 20 19  2  0
 21 22  2  0
 21 20  1  0
 22 18  1  0
  2 23  1  0
  5 24  1  0
  7 25  1  0
  8 26  1  0
  8 27  1  0
  9 28  1  0
  9 29  1  0
 10 30  1  0
 10 31  1  0
 11 32  1  0
 11 33  1  0
 12 34  1  0
 12 35  1  0
 13 36  1  6
 14 37  1  0
 14 38  1  0
 15 39  1  0
 15 40  1  0
 16 41  1  0
 16 42  1  0
 17 43  1  1
 20 44  1  0
 21 45  1  0
 22 46  1  0
M  ISO  8  23  14  24  14  25  13  26  13  27  13  28  13  29  13  30  13
M  ISO  8  31  13  32  13  33  13  34  13  35  13  36  13  37  13  38  13
M  ISO  8  39  13  40  13  41  13  42  13  43  13  44  14  45  14  46  14
M  END
>  <minimizedAffinity>  (1) 
-6.32040405

>  <minimizedRMSD>  (1) 
2.05968404

$$$$
