
     RDKit          3D

 46 48  0  0  1  0  0  0  0  0999 V2000
   43.7290   34.3760   40.5810 C   0  0  0  0  0  0  0  0  0  0  0  0
   45.0530   33.9820   40.5020 C   0  0  0  0  0  0  0  0  0  0  0  0
   45.9000   34.4120   41.5390 C   0  0  0  0  0  0  0  0  0  0  0  0
   45.3860   35.1810   42.5500 N   0  0  0  0  0  0  0  0  0  0  0  0
   44.0600   35.5440   42.5800 C   0  0  0  0  0  0  0  0  0  0  0  0
   43.2690   35.1200   41.5770 N   0  0  0  0  0  0  0  0  0  0  0  0
   47.3450   34.0320   41.5780 C   0  0  0  0  0  0  0  0  0  0  0  0
   48.1740   35.0350   40.7560 C   0  0  0  0  0  0  0  0  0  0  0  0
   49.1000   35.8460   41.5870 C   0  0  0  0  0  0  0  0  0  0  0  0
   49.9990   35.0260   42.4610 C   0  0  0  0  0  0  0  0  0  0  0  0
   49.3910   33.6850   42.8010 C   0  0  0  0  0  0  0  0  0  0  0  0
   47.9060   33.9100   42.9480 C   0  0  0  0  0  0  0  0  0  0  0  0
   42.7600   33.9940   39.5370 C   0  0  1  0  0  0  0  0  0  0  0  0
   43.4320   33.5450   38.2480 C   0  0  0  0  0  0  0  0  0  0  0  0
   42.8820   32.1540   37.9510 C   0  0  0  0  0  0  0  0  0  0  0  0
   42.5690   31.6450   39.3590 C   0  0  0  0  0  0  0  0  0  0  0  0
   41.8830   32.8480   39.9360 C   0  0  1  0  0  0  0  0  0  0  0  0
   41.3370   32.7860   41.2120 N   0  0  0  0  0  0  0  0  0  0  0  0
   40.0240   33.3330   41.5090 C   0  0  0  0  0  0  0  0  0  0  0  0
   39.0860   33.2830   40.6200 N   0  0  0  0  0  0  0  0  0  0  0  0
   39.7250   33.9440   42.7890 N   0  0  0  0  0  0  0  0  0  0  0  0
   38.1630   33.6830   40.8690 H   0  0  0  0  0  0  0  0  0  0  0  0
   45.4240   33.3642   39.6709 H   0  0  0  0  0  0  0  0  0  0  0  0
   43.6587   36.1610   43.3974 H   0  0  0  0  0  0  0  0  0  0  0  0
   47.4066   33.0266   41.1360 H   0  0  0  0  0  0  0  0  0  0  0  0
   48.7660   34.4763   40.0162 H   0  0  0  0  0  0  0  0  0  0  0  0
   47.4678   35.7304   40.2788 H   0  0  0  0  0  0  0  0  0  0  0  0
   49.7264   36.4533   40.9171 H   0  0  0  0  0  0  0  0  0  0  0  0
   48.4784   36.4622   42.2532 H   0  0  0  0  0  0  0  0  0  0  0  0
   50.9510   34.8610   41.9352 H   0  0  0  0  0  0  0  0  0  0  0  0
   50.1529   35.5767   43.4007 H   0  0  0  0  0  0  0  0  0  0  0  0
   49.5876   32.9636   41.9942 H   0  0  0  0  0  0  0  0  0  0  0  0
   49.8239   33.2761   43.7259 H   0  0  0  0  0  0  0  0  0  0  0  0
   47.7187   34.8332   43.5160 H   0  0  0  0  0  0  0  0  0  0  0  0
   47.4356   33.0769   43.4909 H   0  0  0  0  0  0  0  0  0  0  0  0
   42.1722   34.9123   39.3913 H   0  0  0  0  0  0  0  0  0  0  0  0
   43.1869   34.2362   37.4281 H   0  0  0  0  0  0  0  0  0  0  0  0
   44.5274   33.5329   38.3472 H   0  0  0  0  0  0  0  0  0  0  0  0
   41.9750   32.2042   37.3307 H   0  0  0  0  0  0  0  0  0  0  0  0
   43.5703   31.5105   37.3834 H   0  0  0  0  0  0  0  0  0  0  0  0
   41.9034   30.7695   39.3361 H   0  0  0  0  0  0  0  0  0  0  0  0
   43.4449   31.2991   39.9275 H   0  0  0  0  0  0  0  0  0  0  0  0
   40.8724   32.9741   39.5203 H   0  0  0  0  0  0  0  0  0  0  0  0
   41.8772   32.3405   41.9674 H   0  0  0  0  0  0  0  0  0  0  0  0
   38.7850   34.3235   42.9715 H   0  0  0  0  0  0  0  0  0  0  0  0
   40.4525   33.9987   43.5161 H   0  0  0  0  0  0  0  0  0  0  0  0
  1  6  1  0
  2  1  2  0
  2  3  1  0
  3  7  1  0
  3  4  2  0
  4  5  1  0
  6  5  2  0
  7 12  1  0
  8  7  1  0
  8  9  1  0
  9 10  1  0
 10 11  1  0
 11 12  1  0
 13 17  1  0
 13  1  1  0
 14 13  1  0
 15 14  1  0
 15 16  1  0
 16 17  1  0
 17 18  1  0
 18 19  1  0
 19 21  1  0
 20 22  1  0
 20 19  2  0
  2 23  1  0
  5 24  1  0
  7 25  1  0
  8 26  1  0
  8 27  1  0
  9 28  1  0
  9 29  1  0
 10 30  1  0
 10 31  1  0
 11 32  1  0
 11 33  1  0
 12 34  1  0
 12 35  1  0
 13 36  1  6
 14 37  1  0
 14 38  1  0
 15 39  1  0
 15 40  1  0
 16 41  1  0
 16 42  1  0
 17 43  1  6
 18 44  1  0
 21 45  1  0
 21 46  1  0
M  ISO  8  23  14  24  14  25  13  26  13  27  13  28  13  29  13  30  13
M  ISO  8  31  13  32  13  33  13  34  13  35  13  36  13  37  13  38  13
M  ISO  5  39  13  40  13  41  13  42  13  43  13
M  END
>  <minimizedAffinity>  (1) 
-6.22629929

>  <minimizedRMSD>  (1) 
2.26023245

$$$$
