
     RDKit          3D

 41 43  0  0  1  0  0  0  0  0999 V2000
   43.7880   35.2700   41.6390 C   0  0  0  0  0  0  0  0  0  0  0  0
   45.0120   34.7350   41.2130 C   0  0  0  0  0  0  0  0  0  0  0  0
   46.0280   34.6860   42.1840 C   0  0  0  0  0  0  0  0  0  0  0  0
   45.7840   35.1460   43.4570 N   0  0  0  0  0  0  0  0  0  0  0  0
   44.5550   35.6560   43.8010 C   0  0  0  0  0  0  0  0  0  0  0  0
   43.5770   35.7060   42.8730 N   0  0  0  0  0  0  0  0  0  0  0  0
   47.3830   34.1260   41.8730 C   0  0  0  0  0  0  0  0  0  0  0  0
   48.2510   35.2040   41.2000 C   0  0  0  0  0  0  0  0  0  0  0  0
   49.4100   35.6180   42.0290 C   0  0  0  0  0  0  0  0  0  0  0  0
   50.2680   34.4640   42.4660 C   0  0  0  0  0  0  0  0  0  0  0  0
   49.4770   33.1840   42.5890 C   0  0  0  0  0  0  0  0  0  0  0  0
   48.0880   33.5590   43.0500 C   0  0  0  0  0  0  0  0  0  0  0  0
   42.6650   35.3650   40.6740 C   0  0  1  0  0  0  0  0  0  0  0  0
   42.5820   34.2380   39.7070 C   0  0  0  0  0  0  0  0  0  0  0  0
   41.1700   33.6700   39.8410 C   0  0  0  0  0  0  0  0  0  0  0  0
   40.8520   33.9950   41.2880 C   0  0  0  0  0  0  0  0  0  0  0  0
   41.3310   35.3910   41.4480 C   0  0  2  0  0  0  0  0  0  0  0  0
   40.4400   36.3470   40.8340 N   0  0  0  0  0  0  0  0  0  0  0  0
   45.1676   34.3765   40.1848 H   0  0  0  0  0  0  0  0  0  0  0  0
   44.3706   36.0197   44.8226 H   0  0  0  0  0  0  0  0  0  0  0  0
   47.2186   33.2822   41.1867 H   0  0  0  0  0  0  0  0  0  0  0  0
   48.6271   34.8057   40.2461 H   0  0  0  0  0  0  0  0  0  0  0  0
   47.6178   36.0916   41.0541 H   0  0  0  0  0  0  0  0  0  0  0  0
   50.0297   36.3117   41.4418 H   0  0  0  0  0  0  0  0  0  0  0  0
   49.0094   36.0900   42.9382 H   0  0  0  0  0  0  0  0  0  0  0  0
   51.0685   34.3168   41.7260 H   0  0  0  0  0  0  0  0  0  0  0  0
   50.6805   34.7043   43.4570 H   0  0  0  0  0  0  0  0  0  0  0  0
   49.4264   32.6772   41.6140 H   0  0  0  0  0  0  0  0  0  0  0  0
   49.9537   32.4979   43.3046 H   0  0  0  0  0  0  0  0  0  0  0  0
   48.1452   34.3077   43.8538 H   0  0  0  0  0  0  0  0  0  0  0  0
   47.5536   32.6825   43.4452 H   0  0  0  0  0  0  0  0  0  0  0  0
   42.8521   36.2847   40.1004 H   0  0  0  0  0  0  0  0  0  0  0  0
   43.3284   33.4682   39.9525 H   0  0  0  0  0  0  0  0  0  0  0  0
   42.7850   34.5736   38.6793 H   0  0  0  0  0  0  0  0  0  0  0  0
   40.4696   34.1671   39.1538 H   0  0  0  0  0  0  0  0  0  0  0  0
   41.0899   32.6015   39.5923 H   0  0  0  0  0  0  0  0  0  0  0  0
   39.7704   33.9272   41.4768 H   0  0  0  0  0  0  0  0  0  0  0  0
   41.3249   33.2981   41.9955 H   0  0  0  0  0  0  0  0  0  0  0  0
   41.4074   35.6920   42.5033 H   0  0  0  0  0  0  0  0  0  0  0  0
   39.9466   36.8764   41.5669 H   0  0  0  0  0  0  0  0  0  0  0  0
   40.9841   36.9967   40.2485 H   0  0  0  0  0  0  0  0  0  0  0  0
  1  6  1  0
  2  1  2  0
  2  3  1  0
  3  4  2  0
  4  5  1  0
  6  5  2  0
  7  3  1  0
  7 12  1  0
  8  7  1  0
  8  9  1  0
  9 10  1  0
 10 11  1  0
 11 12  1  0
 13 17  1  0
 13  1  1  0
 14 15  1  0
 14 13  1  0
 15 16  1  0
 16 17  1  0
 18 17  1  0
  2 19  1  0
  5 20  1  0
  7 21  1  0
  8 22  1  0
  8 23  1  0
  9 24  1  0
  9 25  1  0
 10 26  1  0
 10 27  1  0
 11 28  1  0
 11 29  1  0
 12 30  1  0
 12 31  1  0
 13 32  1  6
 14 33  1  0
 14 34  1  0
 15 35  1  0
 15 36  1  0
 16 37  1  0
 16 38  1  0
 17 39  1  1
 18 40  1  0
 18 41  1  0
M  ISO  8  19  14  20  14  21  13  22  13  23  13  24  13  25  13  26  13
M  ISO  8  27  13  28  13  29  13  30  13  31  13  32  13  33  13  34  13
M  ISO  7  35  13  36  13  37  13  38  13  39  13  40   5  41   5
M  END
>  <minimizedAffinity>  (1) 
-5.95619869

>  <minimizedRMSD>  (1) 
0.14144145

$$$$
