
     RDKit          3D

 46 49  0  0  1  0  0  0  0  0999 V2000
   43.5020   34.5540   40.9740 C   0  0  0  0  0  0  0  0  0  0  0  0
   44.8080   34.1430   40.7840 C   0  0  0  0  0  0  0  0  0  0  0  0
   45.7210   34.4130   41.8180 C   0  0  0  0  0  0  0  0  0  0  0  0
   45.2840   35.0580   42.9400 N   0  0  0  0  0  0  0  0  0  0  0  0
   43.9730   35.4460   43.0790 C   0  0  0  0  0  0  0  0  0  0  0  0
   43.1170   35.1750   42.0760 N   0  0  0  0  0  0  0  0  0  0  0  0
   47.1530   33.9940   41.7310 C   0  0  0  0  0  0  0  0  0  0  0  0
   47.9310   34.9600   40.8240 C   0  0  0  0  0  0  0  0  0  0  0  0
   48.9420   35.7670   41.5570 C   0  0  0  0  0  0  0  0  0  0  0  0
   49.9060   34.9200   42.3290 C   0  0  0  0  0  0  0  0  0  0  0  0
   49.2890   33.6210   42.7820 C   0  0  0  0  0  0  0  0  0  0  0  0
   47.8250   33.8580   43.0480 C   0  0  0  0  0  0  0  0  0  0  0  0
   42.4690   34.3200   39.9540 C   0  0  1  0  0  0  0  0  0  0  0  0
   42.9300   34.6380   38.5470 C   0  0  0  0  0  0  0  0  0  0  0  0
   42.6400   33.3930   37.7310 C   0  0  0  0  0  0  0  0  0  0  0  0
   42.7830   32.3160   38.7750 C   0  0  0  0  0  0  0  0  0  0  0  0
   41.9860   32.9050   39.9100 C   0  0  1  0  0  0  0  0  0  0  0  0
   41.9420   32.1050   41.0980 C   0  0  0  0  0  0  0  0  0  0  0  0
   42.9270   31.1500   41.3630 C   0  0  0  0  0  0  0  0  0  0  0  0
   42.6990   30.5100   42.5840 C   0  0  0  0  0  0  0  0  0  0  0  0
   41.5930   31.0930   43.0220 N   0  0  0  0  0  0  0  0  0  0  0  0
   41.1450   31.9950   42.2030 N   0  0  0  0  0  0  0  0  0  0  0  0
   45.1192   33.6271   39.8637 H   0  0  0  0  0  0  0  0  0  0  0  0
   43.6317   35.9649   43.9869 H   0  0  0  0  0  0  0  0  0  0  0  0
   47.1520   32.9850   41.2929 H   0  0  0  0  0  0  0  0  0  0  0  0
   47.2147   35.6459   40.3480 H   0  0  0  0  0  0  0  0  0  0  0  0
   48.4727   34.3502   40.0860 H   0  0  0  0  0  0  0  0  0  0  0  0
   49.5064   36.3693   40.8299 H   0  0  0  0  0  0  0  0  0  0  0  0
   48.4038   36.4001   42.2778 H   0  0  0  0  0  0  0  0  0  0  0  0
   50.7720   34.6962   41.6887 H   0  0  0  0  0  0  0  0  0  0  0  0
   50.2050   35.4820   43.2261 H   0  0  0  0  0  0  0  0  0  0  0  0
   49.4055   32.8602   41.9961 H   0  0  0  0  0  0  0  0  0  0  0  0
   49.7866   33.2643   43.6959 H   0  0  0  0  0  0  0  0  0  0  0  0
   47.6934   34.7792   43.6346 H   0  0  0  0  0  0  0  0  0  0  0  0
   47.3934   33.0241   43.6210 H   0  0  0  0  0  0  0  0  0  0  0  0
   41.6627   35.0000   40.2662 H   0  0  0  0  0  0  0  0  0  0  0  0
   42.3737   35.4980   38.1459 H   0  0  0  0  0  0  0  0  0  0  0  0
   43.9971   34.9034   38.5188 H   0  0  0  0  0  0  0  0  0  0  0  0
   41.6235   33.4144   37.3111 H   0  0  0  0  0  0  0  0  0  0  0  0
   43.2961   33.2638   36.8576 H   0  0  0  0  0  0  0  0  0  0  0  0
   42.3541   31.3626   38.4327 H   0  0  0  0  0  0  0  0  0  0  0  0
   43.8239   32.0706   39.0325 H   0  0  0  0  0  0  0  0  0  0  0  0
   40.8949   32.9093   39.7702 H   0  0  0  0  0  0  0  0  0  0  0  0
   43.7735   30.9302   40.6958 H   0  0  0  0  0  0  0  0  0  0  0  0
   43.2919   29.7172   43.0635 H   0  0  0  0  0  0  0  0  0  0  0  0
   41.1380   30.8563   43.9152 H   0  0  0  0  0  0  0  0  0  0  0  0
  1  6  1  0
  2  1  2  0
  2  3  1  0
  3  4  2  0
  4  5  1  0
  6  5  2  0
  7  3  1  0
  7 12  1  0
  8  9  1  0
  8  7  1  0
  9 10  1  0
 10 11  1  0
 11 12  1  0
 13  1  1  0
 14 13  1  0
 15 14  1  0
 15 16  1  0
 16 17  1  0
 17 13  1  0
 17 18  1  0
 18 19  1  0
 18 22  2  0
 19 20  2  0
 20 21  1  0
 22 21  1  0
  2 23  1  0
  5 24  1  0
  7 25  1  0
  8 26  1  0
  8 27  1  0
  9 28  1  0
  9 29  1  0
 10 30  1  0
 10 31  1  0
 11 32  1  0
 11 33  1  0
 12 34  1  0
 12 35  1  0
 13 36  1  1
 14 37  1  0
 14 38  1  0
 15 39  1  0
 15 40  1  0
 16 41  1  0
 16 42  1  0
 17 43  1  6
 19 44  1  0
 20 45  1  0
 21 46  1  0
M  ISO  8  23  14  24  14  25  13  26  13  27  13  28  13  29  13  30  13
M  ISO  8  31  13  32  13  33  13  34  13  35  13  36  13  37  13  38  13
M  ISO  8  39  13  40  13  41  13  42  13  43  13  44  14  45  14  46   9
M  END
>  <minimizedAffinity>  (1) 
-5.20167494

>  <minimizedRMSD>  (1) 
2.81716871

$$$$
