
     RDKit          3D

 15 15  0  0  0  0  0  0  0  0999 V2000
   44.6440   35.7380   44.7950 C   0  0  0  0  0  0  0  0  0  0  0  0
   45.4110   35.2080   43.7620 C   0  0  0  0  0  0  0  0  0  0  0  0
   46.0750   34.0080   44.0030 C   0  0  0  0  0  0  0  0  0  0  0  0
   45.9240   33.4380   45.2350 N   0  0  0  0  0  0  0  0  0  0  0  0
   45.1800   33.9690   46.2100 C   0  0  0  0  0  0  0  0  0  0  0  0
   44.5270   35.1330   45.9950 N   0  0  0  0  0  0  0  0  0  0  0  0
   45.4890   35.8890   42.5400 O   0  0  0  0  0  0  0  0  0  0  0  0
   45.0250   33.3960   47.4520 O   0  0  0  0  0  0  0  0  0  0  0  0
   45.8800   32.4340   47.9950 C   0  0  0  0  0  0  0  0  0  0  0  0
   47.2120   32.7430   47.8340 F   0  0  0  0  0  0  0  0  0  0  0  0
   45.5640   31.1790   47.4940 F   0  0  0  0  0  0  0  0  0  0  0  0
   45.6840   32.4010   49.3830 F   0  0  0  0  0  0  0  0  0  0  0  0
   44.1128   36.6864   44.6267 H   0  0  0  0  0  0  0  0  0  0  0  0
   46.6985   33.5362   43.2293 H   0  0  0  0  0  0  0  0  0  0  0  0
   44.9987   36.7400   42.4154 H   0  0  0  0  0  0  0  0  0  0  0  0
  1  6  2  0
  2  3  2  0
  2  1  1  0
  3  4  1  0
  4  5  2  0
  5  8  1  0
  6  5  1  0
  7  2  1  0
  8  9  1  0
  9 12  1  0
 10  9  1  0
 11  9  1  0
  1 13  1  0
  3 14  1  0
  7 15  1  0
M  ISO  3  13  14  14  14  15   3
M  END
>  <minimizedAffinity>  (1) 
-3.9678452

>  <minimizedRMSD>  (1) 
0.575226307

$$$$
