
     RDKit          3D

 30 32  0  0  0  0  0  0  0  0999 V2000
   45.1590   34.7200   44.9150 C   0  0  0  0  0  0  0  0  0  0  0  0
   46.0390   34.5960   43.8530 C   0  0  0  0  0  0  0  0  0  0  0  0
   46.9890   33.6070   43.9480 C   0  0  0  0  0  0  0  0  0  0  0  0
   47.0120   32.8160   45.0620 N   0  0  0  0  0  0  0  0  0  0  0  0
   46.1490   32.9620   46.0710 C   0  0  0  0  0  0  0  0  0  0  0  0
   45.2170   33.9260   45.9870 N   0  0  0  0  0  0  0  0  0  0  0  0
   47.9410   33.3960   42.9110 N   0  0  0  0  0  0  0  0  0  0  0  0
   49.2020   33.8740   42.8920 C   0  0  0  0  0  0  0  0  0  0  0  0
   49.8650   33.5000   41.7620 N   0  0  0  0  0  0  0  0  0  0  0  0
   49.0100   32.7620   41.0330 C   0  0  0  0  0  0  0  0  0  0  0  0
   49.0180   32.0920   39.8280 C   0  0  0  0  0  0  0  0  0  0  0  0
   47.9450   31.4180   39.3650 N   0  0  0  0  0  0  0  0  0  0  0  0
   46.8010   31.3740   40.0800 C   0  0  0  0  0  0  0  0  0  0  0  0
   46.8070   32.0230   41.2370 N   0  0  0  0  0  0  0  0  0  0  0  0
   47.8300   32.7090   41.7580 C   0  0  0  0  0  0  0  0  0  0  0  0
   50.2410   32.1600   39.1000 N   0  0  0  0  0  0  0  0  0  0  0  0
   45.9540   35.4830   42.6870 C   0  0  0  0  0  0  0  0  0  0  0  0
   45.0980   36.5390   43.0200 F   0  0  0  0  0  0  0  0  0  0  0  0
   45.3570   34.8560   41.6100 F   0  0  0  0  0  0  0  0  0  0  0  0
   47.1700   35.9700   42.2960 F   0  0  0  0  0  0  0  0  0  0  0  0
   46.1400   32.1810   47.2160 O   0  0  0  0  0  0  0  0  0  0  0  0
   47.2810   31.8760   47.9550 C   0  0  0  0  0  0  0  0  0  0  0  0
   48.0500   32.9940   48.2130 F   0  0  0  0  0  0  0  0  0  0  0  0
   48.0110   30.8640   47.3660 F   0  0  0  0  0  0  0  0  0  0  0  0
   46.8350   31.4410   49.2140 F   0  0  0  0  0  0  0  0  0  0  0  0
   44.3847   35.5003   44.8740 H   0  0  0  0  0  0  0  0  0  0  0  0
   49.6412   34.4900   43.6905 H   0  0  0  0  0  0  0  0  0  0  0  0
   45.9136   30.8305   39.7234 H   0  0  0  0  0  0  0  0  0  0  0  0
   50.3259   31.6847   38.1902 H   0  0  0  0  0  0  0  0  0  0  0  0
   51.0402   32.6844   39.4836 H   0  0  0  0  0  0  0  0  0  0  0  0
  1  6  2  0
  2  3  2  0
  2  1  1  0
  3  4  1  0
  4  5  2  0
  5 21  1  0
  6  5  1  0
  7  3  1  0
  8  7  1  0
  9  8  2  0
 10 15  2  0
 10  9  1  0
 11 10  1  0
 12 11  2  0
 12 13  1  0
 13 14  2  0
 14 15  1  0
 15  7  1  0
 16 11  1  0
 17 18  1  0
 17  2  1  0
 19 17  1  0
 20 17  1  0
 21 22  1  0
 22 23  1  0
 22 25  1  0
 24 22  1  0
  1 26  1  0
  8 27  1  0
 13 28  1  0
 16 29  1  0
 16 30  1  0
M  ISO  3  26  14  27  14  28  14
M  END
>  <minimizedAffinity>  (1) 
-5.94295883

>  <minimizedRMSD>  (1) 
1.95667648

$$$$
