
     RDKit          3D

 28 30  0  0  0  0  0  0  0  0999 V2000
   44.7530   35.4590   44.8940 C   0  0  0  0  0  0  0  0  0  0  0  0
   45.3750   34.8230   43.8380 C   0  0  0  0  0  0  0  0  0  0  0  0
   45.9050   33.5890   44.1010 C   0  0  0  0  0  0  0  0  0  0  0  0
   45.8020   33.0560   45.3470 N   0  0  0  0  0  0  0  0  0  0  0  0
   45.1870   33.7040   46.3550 C   0  0  0  0  0  0  0  0  0  0  0  0
   44.6650   34.9110   46.1170 N   0  0  0  0  0  0  0  0  0  0  0  0
   46.5690   32.8440   43.0850 N   0  0  0  0  0  0  0  0  0  0  0  0
   46.0790   31.8390   42.3020 C   0  0  0  0  0  0  0  0  0  0  0  0
   47.0380   31.4000   41.4650 N   0  0  0  0  0  0  0  0  0  0  0  0
   48.1710   32.0930   41.6690 C   0  0  0  0  0  0  0  0  0  0  0  0
   49.4690   32.1230   41.1490 C   0  0  0  0  0  0  0  0  0  0  0  0
   50.3790   33.0000   41.6290 N   0  0  0  0  0  0  0  0  0  0  0  0
   50.0610   33.8580   42.6090 C   0  0  0  0  0  0  0  0  0  0  0  0
   48.7990   33.8460   43.1310 N   0  0  0  0  0  0  0  0  0  0  0  0
   47.8640   32.9880   42.6810 C   0  0  0  0  0  0  0  0  0  0  0  0
   45.4570   35.4480   42.5050 C   0  0  0  0  0  0  0  0  0  0  0  0
   44.6010   36.5570   42.5120 F   0  0  0  0  0  0  0  0  0  0  0  0
   44.9560   34.6270   41.5240 F   0  0  0  0  0  0  0  0  0  0  0  0
   46.7380   35.8240   42.1840 F   0  0  0  0  0  0  0  0  0  0  0  0
   45.0600   33.2010   47.6340 O   0  0  0  0  0  0  0  0  0  0  0  0
   45.9460   32.2680   48.1970 C   0  0  0  0  0  0  0  0  0  0  0  0
   47.2510   32.6700   48.0900 F   0  0  0  0  0  0  0  0  0  0  0  0
   45.7310   31.0040   47.7120 F   0  0  0  0  0  0  0  0  0  0  0  0
   45.6670   32.2710   49.5850 F   0  0  0  0  0  0  0  0  0  0  0  0
   44.3125   36.4530   44.7271 H   0  0  0  0  0  0  0  0  0  0  0  0
   45.0526   31.4460   42.3480 H   0  0  0  0  0  0  0  0  0  0  0  0
   49.7513   31.4284   40.3441 H   0  0  0  0  0  0  0  0  0  0  0  0
   50.8112   34.5666   42.9899 H   0  0  0  0  0  0  0  0  0  0  0  0
  1  6  2  0
  2  3  2  0
  2  1  1  0
  3  4  1  0
  4  5  2  0
  5 20  1  0
  6  5  1  0
  7  3  1  0
  8  7  1  0
  9 10  1  0
  9  8  2  0
 10 15  2  0
 11 12  2  0
 11 10  1  0
 12 13  1  0
 13 14  2  0
 15  7  1  0
 15 14  1  0
 16 17  1  0
 16  2  1  0
 18 16  1  0
 19 16  1  0
 20 21  1  0
 21 24  1  0
 22 21  1  0
 23 21  1  0
  1 25  1  0
  8 26  1  0
 11 27  1  0
 13 28  1  0
M  ISO  4  25  14  26  14  27  14  28  14
M  END
>  <minimizedAffinity>  (1) 
-5.73564291

>  <minimizedRMSD>  (1) 
0.898089886

$$$$
