
     RDKit          3D

 49 52  0  0  0  0  0  0  0  0999 V2000
   47.3660   34.2180   40.1170 C   0  0  0  0  0  0  0  0  0  0  0  0
   46.6880   34.5140   41.3020 C   0  0  0  0  0  0  0  0  0  0  0  0
   47.0570   34.0560   42.5650 C   0  0  0  0  0  0  0  0  0  0  0  0
   48.1450   33.3020   42.4500 N   0  0  0  0  0  0  0  0  0  0  0  0
   48.8350   32.9750   41.4010 C   0  0  0  0  0  0  0  0  0  0  0  0
   48.4360   33.4470   40.1950 N   0  0  0  0  0  0  0  0  0  0  0  0
   46.1790   34.5150   43.6210 C   0  0  0  0  0  0  0  0  0  0  0  0
   45.3980   35.5990   43.5070 N   0  0  0  0  0  0  0  0  0  0  0  0
   44.5840   36.0380   44.4760 C   0  0  0  0  0  0  0  0  0  0  0  0
   44.5070   35.3800   45.6620 N   0  0  0  0  0  0  0  0  0  0  0  0
   45.2460   34.2900   45.8680 C   0  0  0  0  0  0  0  0  0  0  0  0
   45.1620   33.6380   47.0610 C   0  0  0  0  0  0  0  0  0  0  0  0
   45.9240   32.4950   47.3000 C   0  0  0  0  0  0  0  0  0  0  0  0
   46.7670   32.0480   46.2860 C   0  0  0  0  0  0  0  0  0  0  0  0
   46.7970   32.7620   45.1070 C   0  0  0  0  0  0  0  0  0  0  0  0
   46.0730   33.8800   44.8300 C   0  0  0  0  0  0  0  0  0  0  0  0
   50.0200   32.0760   41.6470 C   0  0  0  0  0  0  0  0  0  0  0  0
   50.5930   31.6780   40.3060 C   0  0  0  0  0  0  0  0  0  0  0  0
   51.0980   32.9750   42.2770 C   0  0  0  0  0  0  0  0  0  0  0  0
   49.6800   30.9020   42.4830 C   0  0  0  0  0  0  0  0  0  0  0  0
   50.6950   29.8400   42.6730 C   0  0  0  0  0  0  0  0  0  0  0  0
   52.1080   30.1490   42.3670 C   0  0  0  0  0  0  0  0  0  0  0  0
   52.9490   29.3950   43.4220 C   0  0  0  0  0  0  0  0  0  0  0  0
   52.0700   29.4050   44.6260 C   0  0  0  0  0  0  0  0  0  0  0  0
   50.6540   29.4840   44.1690 C   0  0  0  0  0  0  0  0  0  0  0  0
   47.0203   34.6139   39.1507 H   0  0  0  0  0  0  0  0  0  0  0  0
   45.7974   35.1558   41.2328 H   0  0  0  0  0  0  0  0  0  0  0  0
   43.9734   36.9379   44.3102 H   0  0  0  0  0  0  0  0  0  0  0  0
   44.4871   34.0165   47.8428 H   0  0  0  0  0  0  0  0  0  0  0  0
   45.8611   31.9626   48.2605 H   0  0  0  0  0  0  0  0  0  0  0  0
   47.3904   31.1519   46.4216 H   0  0  0  0  0  0  0  0  0  0  0  0
   47.4684   32.3937   44.3173 H   0  0  0  0  0  0  0  0  0  0  0  0
   51.4876   31.0566   40.4594 H   0  0  0  0  0  0  0  0  0  0  0  0
   49.8418   31.1062   39.7414 H   0  0  0  0  0  0  0  0  0  0  0  0
   50.8665   32.5815   39.7414 H   0  0  0  0  0  0  0  0  0  0  0  0
   51.0288   32.9173   43.3733 H   0  0  0  0  0  0  0  0  0  0  0  0
   52.0932   32.6355   41.9541 H   0  0  0  0  0  0  0  0  0  0  0  0
   50.9427   34.0150   41.9541 H   0  0  0  0  0  0  0  0  0  0  0  0
   49.4193   31.2817   43.4819 H   0  0  0  0  0  0  0  0  0  0  0  0
   48.8757   30.4024   41.9232 H   0  0  0  0  0  0  0  0  0  0  0  0
   50.4195   29.0553   41.9530 H   0  0  0  0  0  0  0  0  0  0  0  0
   52.3643   29.8020   41.3551 H   0  0  0  0  0  0  0  0  0  0  0  0
   52.2990   31.2318   42.3994 H   0  0  0  0  0  0  0  0  0  0  0  0
   53.1606   28.3659   43.0962 H   0  0  0  0  0  0  0  0  0  0  0  0
   53.9319   29.8554   43.6007 H   0  0  0  0  0  0  0  0  0  0  0  0
   52.2230   28.4831   45.2062 H   0  0  0  0  0  0  0  0  0  0  0  0
   52.3113   30.2672   45.2651 H   0  0  0  0  0  0  0  0  0  0  0  0
   50.1169   30.2629   44.7300 H   0  0  0  0  0  0  0  0  0  0  0  0
   50.1292   28.5319   44.3363 H   0  0  0  0  0  0  0  0  0  0  0  0
  1  6  2  0
  1  2  1  0
  2  3  2  0
  3  7  1  0
  4  3  1  0
  5 17  1  0
  5  4  2  0
  6  5  1  0
  7 16  1  0
  8  7  2  0
  8  9  1  0
  9 10  2  0
 10 11  1  0
 11 12  2  0
 12 13  1  0
 14 13  2  0
 15 14  1  0
 16 15  2  0
 16 11  1  0
 17 19  1  0
 17 20  1  0
 18 17  1  0
 20 21  1  0
 21 25  1  0
 22 21  1  0
 22 23  1  0
 23 24  1  0
 25 24  1  0
  1 26  1  0
  2 27  1  0
  9 28  1  0
 12 29  1  0
 13 30  1  0
 14 31  1  0
 15 32  1  0
 18 33  1  0
 18 34  1  0
 18 35  1  0
 19 36  1  0
 19 37  1  0
 19 38  1  0
 20 39  1  0
 20 40  1  0
 21 41  1  0
 22 42  1  0
 22 43  1  0
 23 44  1  0
 23 45  1  0
 24 46  1  0
 24 47  1  0
 25 48  1  0
 25 49  1  0
M  ISO  8  26  14  27  14  28  14  29  14  30  14  31  14  32  14  33   8
M  ISO  8  34   8  35   8  36   8  37   8  38   8  39   8  40   8  41  13
M  ISO  8  42  13  43  13  44  13  45  13  46  13  47  13  48  13  49  13
M  END
>  <minimizedAffinity>  (1) 
-5.61663151

>  <minimizedRMSD>  (1) 
0.412745118

$$$$
