
     RDKit          3D

 32 33  0  0  0  0  0  0  0  0999 V2000
   44.7800   35.3710   44.9120 C   0  0  0  0  0  0  0  0  0  0  0  0
   45.6310   34.8990   43.9270 C   0  0  0  0  0  0  0  0  0  0  0  0
   46.3430   33.7660   44.2120 C   0  0  0  0  0  0  0  0  0  0  0  0
   46.1940   33.1580   45.4260 N   0  0  0  0  0  0  0  0  0  0  0  0
   45.3570   33.6440   46.3640 C   0  0  0  0  0  0  0  0  0  0  0  0
   44.6600   34.7480   46.0900 N   0  0  0  0  0  0  0  0  0  0  0  0
   47.2480   33.1830   43.2820 N   0  0  0  0  0  0  0  0  0  0  0  0
   48.6390   33.4160   42.9410 C   0  0  0  0  0  0  0  0  0  0  0  0
   48.7070   33.8040   41.4580 C   0  0  0  0  0  0  0  0  0  0  0  0
   47.8830   32.8780   40.6240 C   0  0  0  0  0  0  0  0  0  0  0  0
   47.4590   31.6750   41.4410 C   0  0  0  0  0  0  0  0  0  0  0  0
   46.5460   32.1390   42.5610 C   0  0  0  0  0  0  0  0  0  0  0  0
   45.7620   35.5820   42.6340 C   0  0  0  0  0  0  0  0  0  0  0  0
   44.8720   36.6630   42.6340 F   0  0  0  0  0  0  0  0  0  0  0  0
   45.3220   34.7920   41.5850 F   0  0  0  0  0  0  0  0  0  0  0  0
   47.0320   36.0210   42.3820 F   0  0  0  0  0  0  0  0  0  0  0  0
   45.1700   33.0690   47.6040 O   0  0  0  0  0  0  0  0  0  0  0  0
   46.1150   32.2260   48.2240 C   0  0  0  0  0  0  0  0  0  0  0  0
   47.3710   32.7720   48.2140 F   0  0  0  0  0  0  0  0  0  0  0  0
   46.0680   30.9570   47.7150 F   0  0  0  0  0  0  0  0  0  0  0  0
   45.7610   32.1710   49.5830 F   0  0  0  0  0  0  0  0  0  0  0  0
   44.1890   36.2790   44.7217 H   0  0  0  0  0  0  0  0  0  0  0  0
   49.0429   34.2316   43.5588 H   0  0  0  0  0  0  0  0  0  0  0  0
   49.2340   32.5094   43.1257 H   0  0  0  0  0  0  0  0  0  0  0  0
   48.3289   34.8299   41.3369 H   0  0  0  0  0  0  0  0  0  0  0  0
   49.7535   33.7372   41.1259 H   0  0  0  0  0  0  0  0  0  0  0  0
   48.4765   32.5405   39.7615 H   0  0  0  0  0  0  0  0  0  0  0  0
   46.9852   33.4105   40.2770 H   0  0  0  0  0  0  0  0  0  0  0  0
   46.9218   30.9625   40.7978 H   0  0  0  0  0  0  0  0  0  0  0  0
   48.3458   31.1800   41.8637 H   0  0  0  0  0  0  0  0  0  0  0  0
   45.6083   32.5345   42.1434 H   0  0  0  0  0  0  0  0  0  0  0  0
   46.2941   31.3036   43.2308 H   0  0  0  0  0  0  0  0  0  0  0  0
  1  6  2  0
  2  3  2  0
  2  1  1  0
  3  4  1  0
  4  5  2  0
  5 17  1  0
  6  5  1  0
  7  3  1  0
  8  7  1  0
  9  8  1  0
 10 11  1  0
 10  9  1  0
 11 12  1  0
 12  7  1  0
 13  2  1  0
 14 13  1  0
 15 13  1  0
 16 13  1  0
 17 18  1  0
 18 21  1  0
 19 18  1  0
 20 18  1  0
  1 22  1  0
  8 23  1  0
  8 24  1  0
  9 25  1  0
  9 26  1  0
 10 27  1  0
 10 28  1  0
 11 29  1  0
 11 30  1  0
 12 31  1  0
 12 32  1  0
M  ISO  8  22  14  23  13  24  13  25  13  26  13  27  13  28  13  29  13
M  ISO  3  30  13  31  13  32  13
M  END
>  <minimizedAffinity>  (1) 
-5.39826775

>  <minimizedRMSD>  (1) 
0.648905098

$$$$
