
     RDKit          3D

 31 32  0  0  0  0  0  0  0  0999 V2000
   44.6990   35.4740   45.0360 C   0  0  0  0  0  0  0  0  0  0  0  0
   45.5080   35.0250   44.0090 C   0  0  0  0  0  0  0  0  0  0  0  0
   46.2090   33.8670   44.2100 C   0  0  0  0  0  0  0  0  0  0  0  0
   46.0890   33.2080   45.3940 N   0  0  0  0  0  0  0  0  0  0  0  0
   45.2920   33.6660   46.3840 C   0  0  0  0  0  0  0  0  0  0  0  0
   44.6070   34.7940   46.1920 N   0  0  0  0  0  0  0  0  0  0  0  0
   47.0730   33.2560   43.2920 N   0  0  0  0  0  0  0  0  0  0  0  0
   48.5000   33.3070   43.0260 C   0  0  0  0  0  0  0  0  0  0  0  0
   48.8870   31.9590   42.4560 C   0  0  0  0  0  0  0  0  0  0  0  0
   48.3840   31.8930   41.0970 N   0  0  0  0  0  0  0  0  0  0  0  0
   47.0730   32.5040   41.0320 C   0  0  0  0  0  0  0  0  0  0  0  0
   46.3620   32.3560   42.3860 C   0  0  0  0  0  0  0  0  0  0  0  0
   45.6100   35.7790   42.7460 C   0  0  0  0  0  0  0  0  0  0  0  0
   45.0420   37.0440   42.9750 F   0  0  0  0  0  0  0  0  0  0  0  0
   44.8440   35.2420   41.7470 F   0  0  0  0  0  0  0  0  0  0  0  0
   46.9050   35.9330   42.3230 F   0  0  0  0  0  0  0  0  0  0  0  0
   45.1290   33.0400   47.6140 O   0  0  0  0  0  0  0  0  0  0  0  0
   46.0890   32.2090   48.1870 C   0  0  0  0  0  0  0  0  0  0  0  0
   47.3430   32.8010   48.1560 F   0  0  0  0  0  0  0  0  0  0  0  0
   46.0820   30.9450   47.6630 F   0  0  0  0  0  0  0  0  0  0  0  0
   45.7920   32.1220   49.5560 F   0  0  0  0  0  0  0  0  0  0  0  0
   44.1220   36.4014   44.9054 H   0  0  0  0  0  0  0  0  0  0  0  0
   48.7217   34.1030   42.2999 H   0  0  0  0  0  0  0  0  0  0  0  0
   49.0652   33.5243   43.9443 H   0  0  0  0  0  0  0  0  0  0  0  0
   49.9819   31.8529   42.4556 H   0  0  0  0  0  0  0  0  0  0  0  0
   48.4609   31.1473   43.0640 H   0  0  0  0  0  0  0  0  0  0  0  0
   49.0275   32.3954   40.4689 H   0  0  0  0  0  0  0  0  0  0  0  0
   47.1794   33.5718   40.7902 H   0  0  0  0  0  0  0  0  0  0  0  0
   46.4780   32.0050   40.2529 H   0  0  0  0  0  0  0  0  0  0  0  0
   45.3053   32.6497   42.3011 H   0  0  0  0  0  0  0  0  0  0  0  0
   46.3741   31.3165   42.7455 H   0  0  0  0  0  0  0  0  0  0  0  0
  1  6  2  0
  2  3  2  0
  2  1  1  0
  3  4  1  0
  4  5  2  0
  5 17  1  0
  6  5  1  0
  7  3  1  0
  8  7  1  0
  9  8  1  0
 10  9  1  0
 11 10  1  0
 11 12  1  0
 12  7  1  0
 13 14  1  0
 13  2  1  0
 15 13  1  0
 16 13  1  0
 17 18  1  0
 18 21  1  0
 19 18  1  0
 20 18  1  0
  1 22  1  0
  8 23  1  0
  8 24  1  0
  9 25  1  0
  9 26  1  0
 10 27  1  0
 11 28  1  0
 11 29  1  0
 12 30  1  0
 12 31  1  0
M  ISO  8  22  14  23  13  24  13  25  13  26  13  27   5  28  13  29  13
M  ISO  2  30  13  31  13
M  END
>  <minimizedAffinity>  (1) 
-5.4006896

>  <minimizedRMSD>  (1) 
0.274331808

$$$$
