
     RDKit          3D

 30 31  0  0  0  0  0  0  0  0999 V2000
   44.8670   35.2230   44.8930 C   0  0  0  0  0  0  0  0  0  0  0  0
   45.7400   34.8170   43.9040 C   0  0  0  0  0  0  0  0  0  0  0  0
   46.5120   33.7160   44.1650 C   0  0  0  0  0  0  0  0  0  0  0  0
   46.3850   33.0910   45.3620 N   0  0  0  0  0  0  0  0  0  0  0  0
   45.5330   33.4980   46.3130 C   0  0  0  0  0  0  0  0  0  0  0  0
   44.7800   34.5690   46.0590 N   0  0  0  0  0  0  0  0  0  0  0  0
   47.4510   33.2080   43.2100 N   0  0  0  0  0  0  0  0  0  0  0  0
   48.8300   33.5510   42.8750 C   0  0  0  0  0  0  0  0  0  0  0  0
   48.7890   34.0300   41.4180 C   0  0  0  0  0  0  0  0  0  0  0  0
   48.4970   32.9100   40.6430 O   0  0  0  0  0  0  0  0  0  0  0  0
   47.1730   32.5220   40.8930 C   0  0  0  0  0  0  0  0  0  0  0  0
   47.0230   32.1160   42.3500 C   0  0  0  0  0  0  0  0  0  0  0  0
   45.8300   35.5480   42.6180 C   0  0  0  0  0  0  0  0  0  0  0  0
   44.9360   36.6230   42.6880 F   0  0  0  0  0  0  0  0  0  0  0  0
   45.3970   34.7970   41.5620 F   0  0  0  0  0  0  0  0  0  0  0  0
   47.1030   36.0140   42.3760 F   0  0  0  0  0  0  0  0  0  0  0  0
   45.3760   32.8880   47.5390 O   0  0  0  0  0  0  0  0  0  0  0  0
   46.3710   32.1390   48.1690 C   0  0  0  0  0  0  0  0  0  0  0  0
   47.5840   32.8180   48.1780 F   0  0  0  0  0  0  0  0  0  0  0  0
   46.4880   30.8750   47.6590 F   0  0  0  0  0  0  0  0  0  0  0  0
   46.0050   32.0480   49.5230 F   0  0  0  0  0  0  0  0  0  0  0  0
   44.2291   36.1023   44.7201 H   0  0  0  0  0  0  0  0  0  0  0  0
   49.1980   34.3519   43.5331 H   0  0  0  0  0  0  0  0  0  0  0  0
   49.5074   32.6941   43.0047 H   0  0  0  0  0  0  0  0  0  0  0  0
   48.0083   34.7945   41.2908 H   0  0  0  0  0  0  0  0  0  0  0  0
   49.7466   34.4820   41.1201 H   0  0  0  0  0  0  0  0  0  0  0  0
   46.4986   33.3637   40.6770 H   0  0  0  0  0  0  0  0  0  0  0  0
   46.9167   31.6677   40.2492 H   0  0  0  0  0  0  0  0  0  0  0  0
   45.9689   31.8793   42.5569 H   0  0  0  0  0  0  0  0  0  0  0  0
   47.6461   31.2312   42.5475 H   0  0  0  0  0  0  0  0  0  0  0  0
  1  6  2  0
  2  3  2  0
  2  1  1  0
  3  4  1  0
  4  5  2  0
  5 17  1  0
  6  5  1  0
  7  3  1  0
  8  7  1  0
  9  8  1  0
 10 11  1  0
 10  9  1  0
 11 12  1  0
 12  7  1  0
 13 14  1  0
 13  2  1  0
 15 13  1  0
 16 13  1  0
 17 18  1  0
 18 19  1  0
 18 21  1  0
 20 18  1  0
  1 22  1  0
  8 23  1  0
  8 24  1  0
  9 25  1  0
  9 26  1  0
 11 27  1  0
 11 28  1  0
 12 29  1  0
 12 30  1  0
M  ISO  8  22  14  23  13  24  13  25  13  26  13  27  13  28  13  29  13
M  ISO  1  30  13
M  END
>  <minimizedAffinity>  (1) 
-5.40047216

>  <minimizedRMSD>  (1) 
0.979475319

$$$$
