
     RDKit          3D

 23 24  0  0  0  0  0  0  0  0999 V2000
   44.7180   35.4530   45.0410 C   0  0  0  0  0  0  0  0  0  0  0  0
   45.5080   34.9860   44.0100 C   0  0  0  0  0  0  0  0  0  0  0  0
   46.1840   33.8150   44.2200 C   0  0  0  0  0  0  0  0  0  0  0  0
   46.0530   33.1680   45.4190 N   0  0  0  0  0  0  0  0  0  0  0  0
   45.2720   33.6510   46.4080 C   0  0  0  0  0  0  0  0  0  0  0  0
   44.6070   34.8020   46.2000 N   0  0  0  0  0  0  0  0  0  0  0  0
   47.0610   33.2070   43.1940 C   0  0  0  0  0  0  0  0  0  0  0  0
   46.5080   32.3560   42.1090 C   0  0  0  0  0  0  0  0  0  0  0  0
   48.0560   31.9520   41.2240 S   0  0  0  0  0  0  0  0  0  0  0  0
   49.1420   32.9590   42.4190 C   0  0  0  0  0  0  0  0  0  0  0  0
   48.3590   33.4420   43.2590 N   0  0  0  0  0  0  0  0  0  0  0  0
   45.6160   35.7220   42.7420 C   0  0  0  0  0  0  0  0  0  0  0  0
   45.0560   36.9910   42.9390 F   0  0  0  0  0  0  0  0  0  0  0  0
   44.8600   35.1610   41.7460 F   0  0  0  0  0  0  0  0  0  0  0  0
   46.9200   35.8660   42.3190 F   0  0  0  0  0  0  0  0  0  0  0  0
   45.1040   33.0390   47.6340 O   0  0  0  0  0  0  0  0  0  0  0  0
   46.0680   32.2300   48.2400 C   0  0  0  0  0  0  0  0  0  0  0  0
   47.3310   32.7810   48.1850 F   0  0  0  0  0  0  0  0  0  0  0  0
   46.0390   30.9490   47.7290 F   0  0  0  0  0  0  0  0  0  0  0  0
   45.7570   32.1590   49.6050 F   0  0  0  0  0  0  0  0  0  0  0  0
   44.1622   36.3921   44.9025 H   0  0  0  0  0  0  0  0  0  0  0  0
   45.4705   32.0565   41.8994 H   0  0  0  0  0  0  0  0  0  0  0  0
   50.2336   33.0878   42.3768 H   0  0  0  0  0  0  0  0  0  0  0  0
  1  6  2  0
  2  3  2  0
  2  1  1  0
  3  4  1  0
  4  5  2  0
  5 16  1  0
  6  5  1  0
  7 11  1  0
  7  3  1  0
  8  7  2  0
  9  8  1  0
  9 10  1  0
 10 11  2  0
 12 13  1  0
 12  2  1  0
 14 12  1  0
 15 12  1  0
 16 17  1  0
 17 20  1  0
 18 17  1  0
 19 17  1  0
  1 21  1  0
  8 22  1  0
 10 23  1  0
M  ISO  3  21  14  22  14  23  14
M  END
>  <minimizedAffinity>  (1) 
-5.33489656

>  <minimizedRMSD>  (1) 
0.290186226

$$$$
