
     RDKit          3D

 25 26  0  0  0  0  0  0  0  0999 V2000
   44.6980   35.4330   45.0240 C   0  0  0  0  0  0  0  0  0  0  0  0
   45.5500   34.9730   44.0270 C   0  0  0  0  0  0  0  0  0  0  0  0
   46.2670   33.8340   44.2950 C   0  0  0  0  0  0  0  0  0  0  0  0
   46.1210   33.2140   45.4970 N   0  0  0  0  0  0  0  0  0  0  0  0
   45.2870   33.6820   46.4500 C   0  0  0  0  0  0  0  0  0  0  0  0
   44.5850   34.7910   46.1970 N   0  0  0  0  0  0  0  0  0  0  0  0
   47.1890   33.2660   43.3160 C   0  0  0  0  0  0  0  0  0  0  0  0
   46.5960   32.3160   42.4760 C   0  0  0  0  0  0  0  0  0  0  0  0
   47.3790   31.7140   41.5100 C   0  0  0  0  0  0  0  0  0  0  0  0
   48.6930   32.0090   41.3490 N   0  0  0  0  0  0  0  0  0  0  0  0
   49.1980   32.9290   42.1870 C   0  0  0  0  0  0  0  0  0  0  0  0
   48.5080   33.5650   43.1560 N   0  0  0  0  0  0  0  0  0  0  0  0
   45.6690   35.6820   42.7450 C   0  0  0  0  0  0  0  0  0  0  0  0
   45.0090   36.9070   42.8740 F   0  0  0  0  0  0  0  0  0  0  0  0
   44.9980   35.0340   41.7300 F   0  0  0  0  0  0  0  0  0  0  0  0
   46.9730   35.8860   42.3800 F   0  0  0  0  0  0  0  0  0  0  0  0
   45.1030   33.0920   47.6810 O   0  0  0  0  0  0  0  0  0  0  0  0
   46.0280   32.2190   48.2730 C   0  0  0  0  0  0  0  0  0  0  0  0
   47.2990   32.7400   48.2550 F   0  0  0  0  0  0  0  0  0  0  0  0
   45.9450   30.9540   47.7390 F   0  0  0  0  0  0  0  0  0  0  0  0
   45.6960   32.1400   49.6350 F   0  0  0  0  0  0  0  0  0  0  0  0
   44.1041   36.3420   44.8480 H   0  0  0  0  0  0  0  0  0  0  0  0
   45.5327   32.0552   42.5825 H   0  0  0  0  0  0  0  0  0  0  0  0
   46.9193   30.9670   40.8462 H   0  0  0  0  0  0  0  0  0  0  0  0
   50.2618   33.1849   42.0739 H   0  0  0  0  0  0  0  0  0  0  0  0
  1  6  2  0
  2  3  2  0
  2  1  1  0
  3  4  1  0
  4  5  2  0
  5 17  1  0
  6  5  1  0
  7  3  1  0
  8  7  2  0
  9  8  1  0
 10  9  2  0
 10 11  1  0
 11 12  2  0
 12  7  1  0
 13 14  1  0
 13  2  1  0
 15 13  1  0
 16 13  1  0
 17 18  1  0
 18 21  1  0
 19 18  1  0
 20 18  1  0
  1 22  1  0
  8 23  1  0
  9 24  1  0
 11 25  1  0
M  ISO  4  22  14  23  14  24  14  25  14
M  END
>  <minimizedAffinity>  (1) 
-5.45169783

>  <minimizedRMSD>  (1) 
0.443079621

$$$$
