
     RDKit          3D

 27 28  0  0  0  0  0  0  0  0999 V2000
   45.0180   34.9280   44.8090 C   0  0  0  0  0  0  0  0  0  0  0  0
   45.9550   34.6980   43.7940 C   0  0  0  0  0  0  0  0  0  0  0  0
   46.8800   33.7110   44.0050 C   0  0  0  0  0  0  0  0  0  0  0  0
   46.8240   33.0190   45.1950 N   0  0  0  0  0  0  0  0  0  0  0  0
   45.9240   33.2520   46.1460 C   0  0  0  0  0  0  0  0  0  0  0  0
   45.0270   34.2130   45.9370 N   0  0  0  0  0  0  0  0  0  0  0  0
   47.9520   33.3240   43.1050 C   0  0  0  0  0  0  0  0  0  0  0  0
   49.2150   33.8170   42.8860 C   0  0  0  0  0  0  0  0  0  0  0  0
   50.0680   33.2520   41.9680 C   0  0  0  0  0  0  0  0  0  0  0  0
   49.7330   32.1730   41.2100 C   0  0  0  0  0  0  0  0  0  0  0  0
   48.4780   31.6410   41.3900 C   0  0  0  0  0  0  0  0  0  0  0  0
   47.6290   32.2110   42.3120 C   0  0  0  0  0  0  0  0  0  0  0  0
   45.9430   35.4930   42.5570 C   0  0  0  0  0  0  0  0  0  0  0  0
   44.9850   36.5080   42.7200 F   0  0  0  0  0  0  0  0  0  0  0  0
   45.4840   34.7730   41.4830 F   0  0  0  0  0  0  0  0  0  0  0  0
   47.1590   36.0530   42.2800 F   0  0  0  0  0  0  0  0  0  0  0  0
   45.8630   32.5660   47.3340 O   0  0  0  0  0  0  0  0  0  0  0  0
   46.9710   32.0160   47.9850 C   0  0  0  0  0  0  0  0  0  0  0  0
   47.9750   32.9470   48.1630 F   0  0  0  0  0  0  0  0  0  0  0  0
   47.4040   30.8600   47.3620 F   0  0  0  0  0  0  0  0  0  0  0  0
   46.5550   31.6990   49.2900 F   0  0  0  0  0  0  0  0  0  0  0  0
   44.2595   35.7132   44.6745 H   0  0  0  0  0  0  0  0  0  0  0  0
   49.5542   34.6902   43.4625 H   0  0  0  0  0  0  0  0  0  0  0  0
   51.0678   33.6927   41.8403 H   0  0  0  0  0  0  0  0  0  0  0  0
   50.4377   31.7436   40.4826 H   0  0  0  0  0  0  0  0  0  0  0  0
   48.1553   30.7684   40.8031 H   0  0  0  0  0  0  0  0  0  0  0  0
   46.6312   31.7648   42.4357 H   0  0  0  0  0  0  0  0  0  0  0  0
  1  6  2  0
  2  3  2  0
  2  1  1  0
  3  4  1  0
  4  5  2  0
  5 17  1  0
  6  5  1  0
  7  3  1  0
  8  7  2  0
  9  8  1  0
 10 11  1  0
 10  9  2  0
 11 12  2  0
 12  7  1  0
 13 14  1  0
 13  2  1  0
 15 13  1  0
 16 13  1  0
 17 18  1  0
 18 19  1  0
 18 21  1  0
 20 18  1  0
  1 22  1  0
  8 23  1  0
  9 24  1  0
 10 25  1  0
 11 26  1  0
 12 27  1  0
M  ISO  6  22  14  23  14  24  14  25  14  26  14  27  14
M  END
>  <minimizedAffinity>  (1) 
-5.55695295

>  <minimizedRMSD>  (1) 
1.14964449

$$$$
