
     RDKit          3D

 24 25  0  0  0  0  0  0  0  0999 V2000
   44.7040   35.3960   45.0040 C   0  0  0  0  0  0  0  0  0  0  0  0
   45.5740   34.9250   44.0110 C   0  0  0  0  0  0  0  0  0  0  0  0
   46.3070   33.8060   44.2830 C   0  0  0  0  0  0  0  0  0  0  0  0
   46.1240   33.2380   45.5280 N   0  0  0  0  0  0  0  0  0  0  0  0
   45.3000   33.6900   46.4560 C   0  0  0  0  0  0  0  0  0  0  0  0
   44.5850   34.7810   46.1860 N   0  0  0  0  0  0  0  0  0  0  0  0
   47.1780   33.0620   43.3910 C   0  0  0  0  0  0  0  0  0  0  0  0
   47.0260   32.0440   42.4840 C   0  0  0  0  0  0  0  0  0  0  0  0
   48.2020   31.6830   41.8840 C   0  0  0  0  0  0  0  0  0  0  0  0
   49.0970   32.5390   42.4740 C   0  0  0  0  0  0  0  0  0  0  0  0
   48.4640   33.2890   43.3110 O   0  0  0  0  0  0  0  0  0  0  0  0
   45.7020   35.6510   42.7310 C   0  0  0  0  0  0  0  0  0  0  0  0
   45.0580   36.9010   42.8850 F   0  0  0  0  0  0  0  0  0  0  0  0
   45.0040   35.0420   41.7380 F   0  0  0  0  0  0  0  0  0  0  0  0
   47.0060   35.8820   42.3920 F   0  0  0  0  0  0  0  0  0  0  0  0
   45.1330   33.1040   47.6910 O   0  0  0  0  0  0  0  0  0  0  0  0
   46.0470   32.2120   48.2770 C   0  0  0  0  0  0  0  0  0  0  0  0
   47.3210   32.7250   48.2690 F   0  0  0  0  0  0  0  0  0  0  0  0
   45.9650   30.9610   47.7360 F   0  0  0  0  0  0  0  0  0  0  0  0
   45.7020   32.1320   49.6390 F   0  0  0  0  0  0  0  0  0  0  0  0
   44.1029   36.2957   44.8060 H   0  0  0  0  0  0  0  0  0  0  0  0
   46.0597   31.5675   42.2621 H   0  0  0  0  0  0  0  0  0  0  0  0
   48.3827   30.9074   41.1252 H   0  0  0  0  0  0  0  0  0  0  0  0
   50.1767   32.5792   42.2673 H   0  0  0  0  0  0  0  0  0  0  0  0
  1  6  2  0
  2  3  2  0
  2  1  1  0
  3  4  1  0
  4  5  2  0
  5 16  1  0
  6  5  1  0
  7  3  1  0
  8  7  2  0
  9 10  2  0
  9  8  1  0
 10 11  1  0
 11  7  1  0
 12 13  1  0
 12  2  1  0
 14 12  1  0
 15 12  1  0
 16 17  1  0
 17 20  1  0
 18 17  1  0
 19 17  1  0
  1 21  1  0
  8 22  1  0
  9 23  1  0
 10 24  1  0
M  ISO  4  21  14  22  14  23  14  24  14
M  END
>  <minimizedAffinity>  (1) 
-5.33768082

>  <minimizedRMSD>  (1) 
0.202074081

$$$$
