
     RDKit          3D

 24 25  0  0  0  0  0  0  0  0999 V2000
   44.7110   35.4710   45.0420 C   0  0  0  0  0  0  0  0  0  0  0  0
   45.4950   34.9980   44.0080 C   0  0  0  0  0  0  0  0  0  0  0  0
   46.1690   33.8160   44.2180 C   0  0  0  0  0  0  0  0  0  0  0  0
   46.0400   33.1730   45.4130 N   0  0  0  0  0  0  0  0  0  0  0  0
   45.2690   33.6560   46.4040 C   0  0  0  0  0  0  0  0  0  0  0  0
   44.6030   34.8150   46.2090 N   0  0  0  0  0  0  0  0  0  0  0  0
   47.0050   33.2410   43.2170 N   0  0  0  0  0  0  0  0  0  0  0  0
   48.3160   33.4520   43.3400 N   0  0  0  0  0  0  0  0  0  0  0  0
   48.9910   32.8580   42.3360 C   0  0  0  0  0  0  0  0  0  0  0  0
   48.0280   32.2500   41.5540 C   0  0  0  0  0  0  0  0  0  0  0  0
   46.7950   32.4860   42.0980 C   0  0  0  0  0  0  0  0  0  0  0  0
   45.6030   35.7270   42.7360 C   0  0  0  0  0  0  0  0  0  0  0  0
   45.0080   36.9790   42.9130 F   0  0  0  0  0  0  0  0  0  0  0  0
   44.8510   35.1300   41.7410 F   0  0  0  0  0  0  0  0  0  0  0  0
   46.8930   35.8750   42.3070 F   0  0  0  0  0  0  0  0  0  0  0  0
   45.1060   33.0420   47.6330 O   0  0  0  0  0  0  0  0  0  0  0  0
   46.0630   32.2100   48.2160 C   0  0  0  0  0  0  0  0  0  0  0  0
   47.3280   32.7830   48.1750 F   0  0  0  0  0  0  0  0  0  0  0  0
   46.0290   30.9420   47.7130 F   0  0  0  0  0  0  0  0  0  0  0  0
   45.7680   32.1540   49.5880 F   0  0  0  0  0  0  0  0  0  0  0  0
   44.1589   36.4126   44.9057 H   0  0  0  0  0  0  0  0  0  0  0  0
   50.0789   32.8574   42.1735 H   0  0  0  0  0  0  0  0  0  0  0  0
   48.2216   31.6691   40.6402 H   0  0  0  0  0  0  0  0  0  0  0  0
   45.8263   32.1369   41.7110 H   0  0  0  0  0  0  0  0  0  0  0  0
  1  6  2  0
  2  3  2  0
  2  1  1  0
  3  4  1  0
  4  5  2  0
  5 16  1  0
  6  5  1  0
  7  8  1  0
  7  3  1  0
  9  8  2  0
 10 11  2  0
 10  9  1  0
 11  7  1  0
 12 13  1  0
 12  2  1  0
 14 12  1  0
 15 12  1  0
 16 17  1  0
 17 20  1  0
 18 17  1  0
 19 17  1  0
  1 21  1  0
  9 22  1  0
 10 23  1  0
 11 24  1  0
M  ISO  4  21  14  22  14  23  14  24  14
M  END
>  <minimizedAffinity>  (1) 
-5.30977964

>  <minimizedRMSD>  (1) 
0.257336766

$$$$
