
     RDKit          3D

 29 29  0  0  0  0  0  0  0  0999 V2000
   44.7010   35.4480   45.0450 C   0  0  0  0  0  0  0  0  0  0  0  0
   45.5150   34.8880   44.0530 C   0  0  0  0  0  0  0  0  0  0  0  0
   46.1900   33.7050   44.3110 C   0  0  0  0  0  0  0  0  0  0  0  0
   45.9720   33.1930   45.5760 N   0  0  0  0  0  0  0  0  0  0  0  0
   45.2040   33.7240   46.5100 C   0  0  0  0  0  0  0  0  0  0  0  0
   44.5670   34.8530   46.2410 N   0  0  0  0  0  0  0  0  0  0  0  0
   45.6630   35.5450   42.7520 C   0  0  0  0  0  0  0  0  0  0  0  0
   45.0130   36.7990   42.8480 F   0  0  0  0  0  0  0  0  0  0  0  0
   44.9500   34.9470   41.7550 F   0  0  0  0  0  0  0  0  0  0  0  0
   46.9340   35.8130   42.4050 F   0  0  0  0  0  0  0  0  0  0  0  0
   47.0840   33.0000   43.3550 C   0  0  0  0  0  0  0  0  0  0  0  0
   46.4010   32.3980   42.1790 C   0  0  0  0  0  0  0  0  0  0  0  0
   47.5000   31.6920   44.1040 C   0  0  0  0  0  0  0  0  0  0  0  0
   48.3990   33.6540   43.1090 C   0  0  0  0  0  0  0  0  0  0  0  0
   45.0200   33.1660   47.7600 O   0  0  0  0  0  0  0  0  0  0  0  0
   45.8380   32.1860   48.3190 C   0  0  0  0  0  0  0  0  0  0  0  0
   47.1680   32.5790   48.3200 F   0  0  0  0  0  0  0  0  0  0  0  0
   45.6600   30.9580   47.7420 F   0  0  0  0  0  0  0  0  0  0  0  0
   45.5170   32.1030   49.6810 F   0  0  0  0  0  0  0  0  0  0  0  0
   44.1648   36.3868   44.8420 H   0  0  0  0  0  0  0  0  0  0  0  0
   45.6174   31.7073   42.5239 H   0  0  0  0  0  0  0  0  0  0  0  0
   45.9463   33.1945   41.5716 H   0  0  0  0  0  0  0  0  0  0  0  0
   47.1341   31.8469   41.5716 H   0  0  0  0  0  0  0  0  0  0  0  0
   47.4470   31.8587   45.1900 H   0  0  0  0  0  0  0  0  0  0  0  0
   46.8169   30.8764   43.8245 H   0  0  0  0  0  0  0  0  0  0  0  0
   48.5287   31.4208   43.8245 H   0  0  0  0  0  0  0  0  0  0  0  0
   48.8762   33.8913   44.0713 H   0  0  0  0  0  0  0  0  0  0  0  0
   49.0460   32.9727   42.5370 H   0  0  0  0  0  0  0  0  0  0  0  0
   48.2461   34.5811   42.5370 H   0  0  0  0  0  0  0  0  0  0  0  0
  1  6  2  0
  2  3  2  0
  2  1  1  0
  3  4  1  0
  4  5  2  0
  5 15  1  0
  6  5  1  0
  7  8  1  0
  7  2  1  0
  9  7  1  0
 10  7  1  0
 11 13  1  0
 11  3  1  0
 12 11  1  0
 14 11  1  0
 15 16  1  0
 16 17  1  0
 16 19  1  0
 18 16  1  0
  1 20  1  0
 12 21  1  0
 12 22  1  0
 12 23  1  0
 13 24  1  0
 13 25  1  0
 13 26  1  0
 14 27  1  0
 14 28  1  0
 14 29  1  0
M  ISO  8  20  14  21   8  22   8  23   8  24   8  25   8  26   8  27   8
M  ISO  2  28   8  29   8
M  END
>  <minimizedAffinity>  (1) 
-5.31303358

>  <minimizedRMSD>  (1) 
0.26265496

$$$$
