
     RDKit          3D

 23 24  0  0  0  0  0  0  0  0999 V2000
   44.7140   35.4510   45.0250 C   0  0  0  0  0  0  0  0  0  0  0  0
   45.5260   34.9590   44.0060 C   0  0  0  0  0  0  0  0  0  0  0  0
   46.2040   33.7910   44.2510 C   0  0  0  0  0  0  0  0  0  0  0  0
   46.0590   33.1710   45.4530 N   0  0  0  0  0  0  0  0  0  0  0  0
   45.2670   33.6660   46.4250 C   0  0  0  0  0  0  0  0  0  0  0  0
   44.5990   34.8100   46.1950 N   0  0  0  0  0  0  0  0  0  0  0  0
   47.0580   33.2120   43.2680 N   0  0  0  0  0  0  0  0  0  0  0  0
   46.8890   32.4180   42.1940 C   0  0  0  0  0  0  0  0  0  0  0  0
   48.0880   32.1820   41.6180 N   0  0  0  0  0  0  0  0  0  0  0  0
   49.0100   32.8360   42.3410 C   0  0  0  0  0  0  0  0  0  0  0  0
   48.3720   33.4460   43.3230 N   0  0  0  0  0  0  0  0  0  0  0  0
   45.6480   35.6700   42.7210 C   0  0  0  0  0  0  0  0  0  0  0  0
   44.9940   36.8990   42.8580 F   0  0  0  0  0  0  0  0  0  0  0  0
   44.9560   35.0260   41.7130 F   0  0  0  0  0  0  0  0  0  0  0  0
   46.9460   35.8600   42.3390 F   0  0  0  0  0  0  0  0  0  0  0  0
   45.0910   33.0700   47.6580 O   0  0  0  0  0  0  0  0  0  0  0  0
   46.0190   32.2250   48.2570 C   0  0  0  0  0  0  0  0  0  0  0  0
   47.3020   32.7510   48.2190 F   0  0  0  0  0  0  0  0  0  0  0  0
   45.9580   30.9570   47.7450 F   0  0  0  0  0  0  0  0  0  0  0  0
   45.7110   32.1710   49.6220 F   0  0  0  0  0  0  0  0  0  0  0  0
   44.1557   36.3853   44.8654 H   0  0  0  0  0  0  0  0  0  0  0  0
   45.9251   32.0231   41.8406 H   0  0  0  0  0  0  0  0  0  0  0  0
   50.0933   32.8595   42.1513 H   0  0  0  0  0  0  0  0  0  0  0  0
  1  6  2  0
  2  3  2  0
  2  1  1  0
  3  4  1  0
  4  5  2  0
  5 16  1  0
  6  5  1  0
  7 11  1  0
  7  3  1  0
  8  7  1  0
  9  8  2  0
  9 10  1  0
 10 11  2  0
 12 13  1  0
 12  2  1  0
 14 12  1  0
 15 12  1  0
 16 17  1  0
 17 20  1  0
 18 17  1  0
 19 17  1  0
  1 21  1  0
  8 22  1  0
 10 23  1  0
M  ISO  3  21  14  22  14  23  14
M  END
>  <minimizedAffinity>  (1) 
-5.31702614

>  <minimizedRMSD>  (1) 
0.53236717

$$$$
