
     RDKit          3D

 19 19  0  0  0  0  0  0  0  0999 V2000
   44.7340   35.3620   44.9880 C   0  0  0  0  0  0  0  0  0  0  0  0
   45.5830   34.8540   44.0280 C   0  0  0  0  0  0  0  0  0  0  0  0
   46.2690   33.7300   44.3820 C   0  0  0  0  0  0  0  0  0  0  0  0
   46.0980   33.1760   45.6120 N   0  0  0  0  0  0  0  0  0  0  0  0
   45.2730   33.6860   46.5190 C   0  0  0  0  0  0  0  0  0  0  0  0
   44.5970   34.7850   46.1840 N   0  0  0  0  0  0  0  0  0  0  0  0
   45.7470   35.4820   42.7100 C   0  0  0  0  0  0  0  0  0  0  0  0
   44.9910   36.6660   42.7250 F   0  0  0  0  0  0  0  0  0  0  0  0
   45.1770   34.7300   41.7100 F   0  0  0  0  0  0  0  0  0  0  0  0
   47.0480   35.7700   42.4070 F   0  0  0  0  0  0  0  0  0  0  0  0
   47.1980   33.0330   43.5320 C   0  0  0  0  0  0  0  0  0  0  0  0
   48.3840   32.9880   43.1660 O   0  0  0  0  0  0  0  0  0  0  0  0
   45.0600   33.1680   47.7780 O   0  0  0  0  0  0  0  0  0  0  0  0
   45.8730   32.1700   48.3420 C   0  0  0  0  0  0  0  0  0  0  0  0
   47.2100   32.5380   48.3890 F   0  0  0  0  0  0  0  0  0  0  0  0
   45.6740   30.9560   47.7290 F   0  0  0  0  0  0  0  0  0  0  0  0
   45.4860   32.0690   49.6960 F   0  0  0  0  0  0  0  0  0  0  0  0
   44.1531   36.2684   44.7621 H   0  0  0  0  0  0  0  0  0  0  0  0
   46.6488   32.2377   43.0068 H   0  0  0  0  0  0  0  0  0  0  0  0
  1  6  2  0
  2  3  2  0
  2  1  1  0
  3  4  1  0
  4  5  2  0
  5 13  1  0
  6  5  1  0
  7  8  1  0
  7  2  1  0
  9  7  1  0
 10  7  1  0
 11  3  1  0
 12 11  2  0
 13 14  1  0
 14 15  1  0
 14 17  1  0
 16 14  1  0
  1 18  1  0
 11 19  1  0
M  ISO  2  18  14  19   6
M  END
>  <minimizedAffinity>  (1) 
-4.90308905

>  <minimizedRMSD>  (1) 
0.300729752

$$$$
