
     RDKit          3D

 30 31  0  0  0  0  0  0  0  0999 V2000
   44.6610   35.6020   45.1180 C   0  0  0  0  0  0  0  0  0  0  0  0
   45.3690   35.0510   44.0670 C   0  0  0  0  0  0  0  0  0  0  0  0
   45.9410   33.8220   44.2670 C   0  0  0  0  0  0  0  0  0  0  0  0
   45.7900   33.2050   45.4750 N   0  0  0  0  0  0  0  0  0  0  0  0
   45.0950   33.7650   46.4830 C   0  0  0  0  0  0  0  0  0  0  0  0
   44.5340   34.9610   46.2970 N   0  0  0  0  0  0  0  0  0  0  0  0
   46.7240   33.1100   43.2380 C   0  0  0  0  0  0  0  0  0  0  0  0
   47.7470   32.2450   43.9530 C   0  0  0  0  0  0  0  0  0  0  0  0
   47.2320   30.8360   43.9060 C   0  0  0  0  0  0  0  0  0  0  0  0
   46.2340   30.7610   42.7940 C   0  0  0  0  0  0  0  0  0  0  0  0
   45.8760   32.1740   42.4080 C   0  0  0  0  0  0  0  0  0  0  0  0
   45.5050   35.7510   42.7850 C   0  0  0  0  0  0  0  0  0  0  0  0
   45.0440   37.0640   42.9780 F   0  0  0  0  0  0  0  0  0  0  0  0
   44.6420   35.2560   41.8280 F   0  0  0  0  0  0  0  0  0  0  0  0
   46.7770   35.7960   42.3110 F   0  0  0  0  0  0  0  0  0  0  0  0
   44.9220   33.1700   47.7200 O   0  0  0  0  0  0  0  0  0  0  0  0
   45.8030   32.2100   48.2540 C   0  0  0  0  0  0  0  0  0  0  0  0
   47.1160   32.6050   48.1980 F   0  0  0  0  0  0  0  0  0  0  0  0
   45.5740   30.9840   47.6920 F   0  0  0  0  0  0  0  0  0  0  0  0
   45.5040   32.1270   49.6270 F   0  0  0  0  0  0  0  0  0  0  0  0
   44.1896   36.5875   44.9894 H   0  0  0  0  0  0  0  0  0  0  0  0
   47.1711   33.8661   42.5759 H   0  0  0  0  0  0  0  0  0  0  0  0
   48.7199   32.3098   43.4438 H   0  0  0  0  0  0  0  0  0  0  0  0
   47.8894   32.5788   44.9914 H   0  0  0  0  0  0  0  0  0  0  0  0
   48.0611   30.1389   43.7147 H   0  0  0  0  0  0  0  0  0  0  0  0
   46.7672   30.5603   44.8641 H   0  0  0  0  0  0  0  0  0  0  0  0
   46.6713   30.2359   41.9320 H   0  0  0  0  0  0  0  0  0  0  0  0
   45.3383   30.2090   43.1148 H   0  0  0  0  0  0  0  0  0  0  0  0
   46.0806   32.3329   41.3389 H   0  0  0  0  0  0  0  0  0  0  0  0
   44.8074   32.3621   42.5890 H   0  0  0  0  0  0  0  0  0  0  0  0
  1  6  2  0
  2  3  2  0
  2  1  1  0
  3  4  1  0
  4  5  2  0
  5 16  1  0
  6  5  1  0
  7  8  1  0
  7  3  1  0
  9  8  1  0
 10  9  1  0
 11 10  1  0
 11  7  1  0
 12 13  1  0
 12  2  1  0
 14 12  1  0
 15 12  1  0
 16 17  1  0
 17 20  1  0
 18 17  1  0
 19 17  1  0
  1 21  1  0
  7 22  1  0
  8 23  1  0
  8 24  1  0
  9 25  1  0
  9 26  1  0
 10 27  1  0
 10 28  1  0
 11 29  1  0
 11 30  1  0
M  ISO  8  21  14  22  13  23  13  24  13  25  13  26  13  27  13  28  13
M  ISO  2  29  13  30  13
M  END
>  <minimizedAffinity>  (1) 
-5.11413479

>  <minimizedRMSD>  (1) 
0.317899644

$$$$
