
     RDKit          3D

 18 18  0  0  0  0  0  0  0  0999 V2000
   44.7410   35.3940   45.0000 C   0  0  0  0  0  0  0  0  0  0  0  0
   45.5590   34.8460   44.0300 C   0  0  0  0  0  0  0  0  0  0  0  0
   46.2280   33.6790   44.3310 C   0  0  0  0  0  0  0  0  0  0  0  0
   46.0330   33.1440   45.5780 N   0  0  0  0  0  0  0  0  0  0  0  0
   45.2400   33.6860   46.5010 C   0  0  0  0  0  0  0  0  0  0  0  0
   44.5890   34.8230   46.2060 N   0  0  0  0  0  0  0  0  0  0  0  0
   45.6940   35.5090   42.7160 C   0  0  0  0  0  0  0  0  0  0  0  0
   44.9860   36.7010   42.7620 F   0  0  0  0  0  0  0  0  0  0  0  0
   45.1150   34.7640   41.7080 F   0  0  0  0  0  0  0  0  0  0  0  0
   47.0110   35.7450   42.3930 F   0  0  0  0  0  0  0  0  0  0  0  0
   47.0610   33.0910   43.3890 O   0  0  0  0  0  0  0  0  0  0  0  0
   45.0430   33.1480   47.7570 O   0  0  0  0  0  0  0  0  0  0  0  0
   45.8730   32.1880   48.3500 C   0  0  0  0  0  0  0  0  0  0  0  0
   47.1880   32.5840   48.3670 F   0  0  0  0  0  0  0  0  0  0  0  0
   45.6930   30.9540   47.7670 F   0  0  0  0  0  0  0  0  0  0  0  0
   45.5050   32.0990   49.7000 F   0  0  0  0  0  0  0  0  0  0  0  0
   44.1987   36.3249   44.7777 H   0  0  0  0  0  0  0  0  0  0  0  0
   47.5407   32.2528   43.6069 H   0  0  0  0  0  0  0  0  0  0  0  0
  1  6  2  0
  2  3  2  0
  2  1  1  0
  3  4  1  0
  4  5  2  0
  5 12  1  0
  6  5  1  0
  7  8  1  0
  7  2  1  0
  9  7  1  0
 10  7  1  0
 11  3  1  0
 12 13  1  0
 13 14  1  0
 13 16  1  0
 15 13  1  0
  1 17  1  0
 11 18  1  0
M  ISO  2  17  14  18   3
M  END
>  <minimizedAffinity>  (1) 
-4.919631

>  <minimizedRMSD>  (1) 
0.196931407

$$$$
