
     RDKit          3D

 33 34  0  0  0  0  0  0  0  0999 V2000
   44.7080   35.4740   45.0440 C   0  0  0  0  0  0  0  0  0  0  0  0
   45.4920   35.0400   44.0000 C   0  0  0  0  0  0  0  0  0  0  0  0
   46.1890   33.8750   44.1790 C   0  0  0  0  0  0  0  0  0  0  0  0
   46.0720   33.2060   45.3750 N   0  0  0  0  0  0  0  0  0  0  0  0
   45.3090   33.6420   46.3640 C   0  0  0  0  0  0  0  0  0  0  0  0
   44.6430   34.7680   46.1760 N   0  0  0  0  0  0  0  0  0  0  0  0
   45.6030   35.7730   42.7290 C   0  0  0  0  0  0  0  0  0  0  0  0
   44.7890   36.9110   42.8420 F   0  0  0  0  0  0  0  0  0  0  0  0
   45.0180   35.0660   41.6770 F   0  0  0  0  0  0  0  0  0  0  0  0
   46.8670   36.1290   42.3960 F   0  0  0  0  0  0  0  0  0  0  0  0
   47.0610   33.2300   43.2480 C   0  0  0  0  0  0  0  0  0  0  0  0
   46.9220   32.0740   42.7840 O   0  0  0  0  0  0  0  0  0  0  0  0
   48.2180   33.4450   42.5330 O   0  0  0  0  0  0  0  0  0  0  0  0
   48.6650   33.0180   38.4020 C   0  0  0  0  0  0  0  0  0  0  0  0
   47.9980   34.0940   38.9480 C   0  0  0  0  0  0  0  0  0  0  0  0
   47.8370   34.2570   40.3260 C   0  0  0  0  0  0  0  0  0  0  0  0
   48.3700   33.2940   41.1900 C   0  0  0  0  0  0  0  0  0  0  0  0
   49.0170   32.2530   40.5980 C   0  0  0  0  0  0  0  0  0  0  0  0
   49.1940   32.0620   39.2420 C   0  0  0  0  0  0  0  0  0  0  0  0
   48.8360   32.8660   36.6580 S   0  0  0  0  0  0  0  0  0  0  0  0
   47.4880   32.7160   36.0030 O   0  0  0  0  0  0  0  0  0  0  0  0
   49.7330   31.7020   36.3620 O   0  0  0  0  0  0  0  0  0  0  0  0
   45.1530   33.0170   47.5810 O   0  0  0  0  0  0  0  0  0  0  0  0
   46.1460   32.2100   48.1650 C   0  0  0  0  0  0  0  0  0  0  0  0
   47.3840   32.8070   48.1140 F   0  0  0  0  0  0  0  0  0  0  0  0
   46.1370   30.9330   47.6550 F   0  0  0  0  0  0  0  0  0  0  0  0
   45.8590   32.1650   49.5450 F   0  0  0  0  0  0  0  0  0  0  0  0
   44.1324   36.4062   44.9460 H   0  0  0  0  0  0  0  0  0  0  0  0
   47.5765   34.8532   38.2727 H   0  0  0  0  0  0  0  0  0  0  0  0
   47.2993   35.1293   40.7259 H   0  0  0  0  0  0  0  0  0  0  0  0
   49.4407   31.4884   41.2658 H   0  0  0  0  0  0  0  0  0  0  0  0
   49.7327   31.1867   38.8500 H   0  0  0  0  0  0  0  0  0  0  0  0
   49.4023   34.0015   36.1415 H   0  0  0  0  0  0  0  0  0  0  0  0
  1  6  2  0
  2  3  2  0
  2  1  1  0
  3  4  1  0
  4  5  2  0
  5 23  1  0
  6  5  1  0
  7  8  1  0
  7  2  1  0
  9  7  1  0
 10  7  1  0
 11  3  1  0
 12 11  2  0
 13 11  1  0
 14 15  2  0
 14 19  1  0
 15 16  1  0
 16 17  2  0
 17 13  1  0
 18 17  1  0
 19 18  2  0
 20 14  1  0
 21 20  2  0
 22 20  2  0
 23 24  1  0
 24 27  1  0
 25 24  1  0
 26 24  1  0
  1 28  1  0
 15 29  1  0
 16 30  1  0
 18 31  1  0
 19 32  1  0
 20 33  1  0
M  ISO  6  28  14  29  14  30  14  31  14  32  14  33  11
M  END
>  <minimizedAffinity>  (1) 
-5.84709311

>  <minimizedRMSD>  (1) 
2.24936676

$$$$
