
     RDKit          3D

 51 54  0  0  0  0  0  0  0  0999 V2000
   47.3190   34.1990   40.1440 C   0  0  0  0  0  0  0  0  0  0  0  0
   46.6590   34.4380   41.3530 C   0  0  0  0  0  0  0  0  0  0  0  0
   47.0730   33.9570   42.5870 C   0  0  0  0  0  0  0  0  0  0  0  0
   48.1810   33.2450   42.4350 N   0  0  0  0  0  0  0  0  0  0  0  0
   48.8580   32.9690   41.3620 C   0  0  0  0  0  0  0  0  0  0  0  0
   48.4130   33.4630   40.1790 N   0  0  0  0  0  0  0  0  0  0  0  0
   46.2090   34.3600   43.6810 C   0  0  0  0  0  0  0  0  0  0  0  0
   45.4030   35.4370   43.6380 N   0  0  0  0  0  0  0  0  0  0  0  0
   44.6260   35.8240   44.6370 C   0  0  0  0  0  0  0  0  0  0  0  0
   44.5980   35.1290   45.8010 N   0  0  0  0  0  0  0  0  0  0  0  0
   45.3590   34.0340   45.9610 C   0  0  0  0  0  0  0  0  0  0  0  0
   45.3200   33.3460   47.1300 C   0  0  0  0  0  0  0  0  0  0  0  0
   46.1050   32.2080   47.3040 C   0  0  0  0  0  0  0  0  0  0  0  0
   46.9150   31.8110   46.2500 C   0  0  0  0  0  0  0  0  0  0  0  0
   46.8990   32.5600   45.0970 C   0  0  0  0  0  0  0  0  0  0  0  0
   46.1510   33.6790   44.8790 C   0  0  0  0  0  0  0  0  0  0  0  0
   50.0820   32.1110   41.5620 C   0  0  0  0  0  0  0  0  0  0  0  0
   50.6700   31.8350   40.1690 C   0  0  0  0  0  0  0  0  0  0  0  0
   51.1060   32.9820   42.2720 C   0  0  0  0  0  0  0  0  0  0  0  0
   49.7630   30.8320   42.2530 C   0  0  0  0  0  0  0  0  0  0  0  0
   50.7550   29.8870   42.4990 N   0  0  0  0  0  0  0  0  0  0  0  0
   51.8860   29.8870   41.6760 C   0  0  0  0  0  0  0  0  0  0  0  0
   52.9430   28.8850   42.1680 C   0  0  0  0  0  0  0  0  0  0  0  0
   53.4800   29.3320   43.4840 C   0  0  0  0  0  0  0  0  0  0  0  0
   52.4250   30.0460   44.2780 C   0  0  0  0  0  0  0  0  0  0  0  0
   51.0260   29.6970   43.8900 C   0  0  0  0  0  0  0  0  0  0  0  0
   46.9394   34.6102   39.1970 H   0  0  0  0  0  0  0  0  0  0  0  0
   45.7462   35.0512   41.3240 H   0  0  0  0  0  0  0  0  0  0  0  0
   43.9964   36.7186   44.5219 H   0  0  0  0  0  0  0  0  0  0  0  0
   44.6651   33.6886   47.9447 H   0  0  0  0  0  0  0  0  0  0  0  0
   46.0832   31.6423   48.2472 H   0  0  0  0  0  0  0  0  0  0  0  0
   47.5539   30.9196   46.3345 H   0  0  0  0  0  0  0  0  0  0  0  0
   47.5493   32.2258   44.2751 H   0  0  0  0  0  0  0  0  0  0  0  0
   51.6611   31.3698   40.2750 H   0  0  0  0  0  0  0  0  0  0  0  0
   50.0032   31.1558   39.6175 H   0  0  0  0  0  0  0  0  0  0  0  0
   50.7665   32.7819   39.6175 H   0  0  0  0  0  0  0  0  0  0  0  0
   50.9840   32.8783   43.3603 H   0  0  0  0  0  0  0  0  0  0  0  0
   52.1193   32.6648   41.9847 H   0  0  0  0  0  0  0  0  0  0  0  0
   50.9555   34.0331   41.9847 H   0  0  0  0  0  0  0  0  0  0  0  0
   49.3375   31.1017   43.2309 H   0  0  0  0  0  0  0  0  0  0  0  0
   49.1126   30.3195   41.5289 H   0  0  0  0  0  0  0  0  0  0  0  0
   52.3247   30.8957   41.6720 H   0  0  0  0  0  0  0  0  0  0  0  0
   51.5751   29.5902   40.6635 H   0  0  0  0  0  0  0  0  0  0  0  0
   52.4829   27.8920   42.2784 H   0  0  0  0  0  0  0  0  0  0  0  0
   53.7636   28.8310   41.4375 H   0  0  0  0  0  0  0  0  0  0  0  0
   53.8239   28.4536   44.0498 H   0  0  0  0  0  0  0  0  0  0  0  0
   54.3153   30.0252   43.3058 H   0  0  0  0  0  0  0  0  0  0  0  0
   52.5619   29.7929   45.3397 H   0  0  0  0  0  0  0  0  0  0  0  0
   52.5504   31.1201   44.0764 H   0  0  0  0  0  0  0  0  0  0  0  0
   50.3364   30.3293   44.4685 H   0  0  0  0  0  0  0  0  0  0  0  0
   50.8890   28.6265   44.1028 H   0  0  0  0  0  0  0  0  0  0  0  0
  1  6  2  0
  1  2  1  0
  2  3  2  0
  3  7  1  0
  4  3  1  0
  5 17  1  0
  5  4  2  0
  6  5  1  0
  7 16  1  0
  8  7  2  0
  8  9  1  0
  9 10  2  0
 10 11  1  0
 11 12  2  0
 12 13  1  0
 14 13  2  0
 15 14  1  0
 16 15  2  0
 16 11  1  0
 17 20  1  0
 17 19  1  0
 18 17  1  0
 20 21  1  0
 21 26  1  0
 22 23  1  0
 22 21  1  0
 23 24  1  0
 24 25  1  0
 26 25  1  0
  1 27  1  0
  2 28  1  0
  9 29  1  0
 12 30  1  0
 13 31  1  0
 14 32  1  0
 15 33  1  0
 18 34  1  0
 18 35  1  0
 18 36  1  0
 19 37  1  0
 19 38  1  0
 19 39  1  0
 20 40  1  0
 20 41  1  0
 22 42  1  0
 22 43  1  0
 23 44  1  0
 23 45  1  0
 24 46  1  0
 24 47  1  0
 25 48  1  0
 25 49  1  0
 26 50  1  0
 26 51  1  0
M  ISO  8  27  14  28  14  29  14  30  14  31  14  32  14  33  14  34   8
M  ISO  8  35   8  36   8  37   8  38   8  39   8  40   8  41   8  42  13
M  ISO  8  43  13  44  13  45  13  46  13  47  13  48  13  49  13  50  13
M  ISO  1  51  13
M  END
>  <minimizedAffinity>  (1) 
-5.59184694

>  <minimizedRMSD>  (1) 
0.198702782

$$$$
