
     RDKit          3D

 35 36  0  0  0  0  0  0  0  0999 V2000
   43.3910   34.0310   41.2530 C   0  0  0  0  0  0  0  0  0  0  0  0
   44.3580   33.7090   40.3860 C   0  0  0  0  0  0  0  0  0  0  0  0
   45.7330   33.2090   41.4570 S   0  0  0  0  0  0  0  0  0  0  0  0
   44.6840   33.5490   42.9970 C   0  0  0  0  0  0  0  0  0  0  0  0
   43.6910   33.9040   42.5030 N   0  0  0  0  0  0  0  0  0  0  0  0
   45.3030   33.3110   44.2820 N   0  0  0  0  0  0  0  0  0  0  0  0
   46.6800   33.3990   44.5020 C   0  0  0  0  0  0  0  0  0  0  0  0
   47.3310   34.1930   43.6950 N   0  0  0  0  0  0  0  0  0  0  0  0
   47.1970   32.6110   45.5790 N   0  0  0  0  0  0  0  0  0  0  0  0
   48.3560   34.2760   43.8780 H   0  0  0  0  0  0  0  0  0  0  0  0
   40.2760   36.1320   40.6220 C   0  0  0  0  0  0  0  0  0  0  0  0
   41.5360   35.7580   41.1110 C   0  0  0  0  0  0  0  0  0  0  0  0
   42.0720   34.4980   40.7720 C   0  0  0  0  0  0  0  0  0  0  0  0
   41.2810   33.7460   39.9730 N   0  0  0  0  0  0  0  0  0  0  0  0
   40.0760   34.1030   39.5050 C   0  0  0  0  0  0  0  0  0  0  0  0
   39.5900   35.2990   39.8400 N   0  0  0  0  0  0  0  0  0  0  0  0
   39.4400   33.0670   38.6480 C   0  0  0  0  0  0  0  0  0  0  0  0
   38.5410   33.6580   37.6140 C   0  0  0  0  0  0  0  0  0  0  0  0
   40.5140   32.2000   38.0630 C   0  0  0  0  0  0  0  0  0  0  0  0
   38.5590   32.2200   39.5630 C   0  0  0  0  0  0  0  0  0  0  0  0
   44.3264   33.7402   39.2869 H   0  0  0  0  0  0  0  0  0  0  0  0
   44.6968   33.0635   45.0771 H   0  0  0  0  0  0  0  0  0  0  0  0
   48.2041   32.6305   45.7942 H   0  0  0  0  0  0  0  0  0  0  0  0
   46.5620   32.0243   46.1389 H   0  0  0  0  0  0  0  0  0  0  0  0
   39.8537   37.1133   40.8840 H   0  0  0  0  0  0  0  0  0  0  0  0
   42.1040   36.4443   41.7562 H   0  0  0  0  0  0  0  0  0  0  0  0
   37.7196   34.1980   38.1077 H   0  0  0  0  0  0  0  0  0  0  0  0
   39.1137   34.3563   36.9861 H   0  0  0  0  0  0  0  0  0  0  0  0
   38.1270   32.8553   36.9861 H   0  0  0  0  0  0  0  0  0  0  0  0
   41.0916   31.7337   38.8748 H   0  0  0  0  0  0  0  0  0  0  0  0
   40.0551   31.4162   37.4425 H   0  0  0  0  0  0  0  0  0  0  0  0
   41.1834   32.8139   37.4425 H   0  0  0  0  0  0  0  0  0  0  0  0
   38.7955   32.4474   40.6129 H   0  0  0  0  0  0  0  0  0  0  0  0
   37.5009   32.4486   39.3677 H   0  0  0  0  0  0  0  0  0  0  0  0
   38.7458   31.1537   39.3677 H   0  0  0  0  0  0  0  0  0  0  0  0
  1  5  1  0
  2  1  2  0
  2  3  1  0
  3  4  1  0
  4  6  1  0
  5  4  2  0
  6  7  1  0
  7  9  1  0
  8 10  1  0
  8  7  2  0
 11 12  2  0
 13 12  1  0
 13  1  1  0
 14 13  2  0
 15 16  2  0
 15 14  1  0
 16 11  1  0
 17 15  1  0
 17 20  1  0
 18 17  1  0
 19 17  1  0
  2 21  1  0
  6 22  1  0
  9 23  1  0
  9 24  1  0
 11 25  1  0
 12 26  1  0
 18 27  1  0
 18 28  1  0
 18 29  1  0
 19 30  1  0
 19 31  1  0
 19 32  1  0
 20 33  1  0
 20 34  1  0
 20 35  1  0
M  ISO  8  21  14  25  14  26  14  27   8  28   8  29   8  30   8  31   8
M  ISO  4  32   8  33   8  34   8  35   8
M  END
>  <minimizedAffinity>  (1) 
-5.37284756

>  <minimizedRMSD>  (1) 
1.84316075

$$$$
