
     RDKit          3D

 27 28  0  0  0  0  0  0  0  0999 V2000
   44.9790   34.8910   44.7400 C   0  0  0  0  0  0  0  0  0  0  0  0
   45.9680   34.6320   43.8160 C   0  0  0  0  0  0  0  0  0  0  0  0
   46.9010   33.6930   44.1390 C   0  0  0  0  0  0  0  0  0  0  0  0
   46.8220   33.0570   45.3510 N   0  0  0  0  0  0  0  0  0  0  0  0
   45.8600   33.3210   46.2310 C   0  0  0  0  0  0  0  0  0  0  0  0
   44.9600   34.2330   45.9060 N   0  0  0  0  0  0  0  0  0  0  0  0
   46.0340   35.3270   42.5220 C   0  0  0  0  0  0  0  0  0  0  0  0
   44.9430   36.2140   42.4810 F   0  0  0  0  0  0  0  0  0  0  0  0
   45.7790   34.4660   41.4640 F   0  0  0  0  0  0  0  0  0  0  0  0
   47.2010   35.9910   42.3060 F   0  0  0  0  0  0  0  0  0  0  0  0
   48.0080   33.2590   43.3480 C   0  0  0  0  0  0  0  0  0  0  0  0
   48.2390   32.0740   42.9870 O   0  0  0  0  0  0  0  0  0  0  0  0
   49.1320   33.7300   42.7080 O   0  0  0  0  0  0  0  0  0  0  0  0
   51.8280   32.2700   41.1320 N   0  0  0  0  0  0  0  0  0  0  0  0
   51.2310   33.0170   42.0600 N   0  0  0  0  0  0  0  0  0  0  0  0
   49.8900   32.9930   41.8180 C   0  0  0  0  0  0  0  0  0  0  0  0
   49.6950   32.2000   40.7040 C   0  0  0  0  0  0  0  0  0  0  0  0
   50.9170   31.7470   40.2750 C   0  0  0  0  0  0  0  0  0  0  0  0
   45.7280   32.7150   47.4640 O   0  0  0  0  0  0  0  0  0  0  0  0
   46.7750   32.0360   48.1040 C   0  0  0  0  0  0  0  0  0  0  0  0
   47.9020   32.8040   48.2260 F   0  0  0  0  0  0  0  0  0  0  0  0
   47.0160   30.8150   47.5170 F   0  0  0  0  0  0  0  0  0  0  0  0
   46.3620   31.8330   49.4350 F   0  0  0  0  0  0  0  0  0  0  0  0
   44.2038   35.6396   44.5193 H   0  0  0  0  0  0  0  0  0  0  0  0
   52.8440   32.1114   41.0737 H   0  0  0  0  0  0  0  0  0  0  0  0
   48.7246   31.9706   40.2396 H   0  0  0  0  0  0  0  0  0  0  0  0
   51.1165   31.0937   39.4128 H   0  0  0  0  0  0  0  0  0  0  0  0
  1  6  2  0
  2  3  2  0
  2  1  1  0
  3  4  1  0
  4  5  2  0
  5 19  1  0
  6  5  1  0
  7  2  1  0
  8  7  1  0
  9  7  1  0
 10  7  1  0
 11  3  1  0
 12 11  2  0
 13 11  1  0
 14 15  1  0
 16 15  2  0
 16 13  1  0
 17 16  1  0
 18 17  2  0
 18 14  1  0
 19 20  1  0
 20 21  1  0
 20 23  1  0
 22 20  1  0
  1 24  1  0
 14 25  1  0
 17 26  1  0
 18 27  1  0
M  ISO  4  24  14  25   9  26  14  27  14
M  END
>  <minimizedAffinity>  (1) 
-5.62499952

>  <minimizedRMSD>  (1) 
0.996835887

$$$$
