
     RDKit          3D

 27 28  0  0  0  0  0  0  0  0999 V2000
   44.9120   35.0420   44.6940 C   0  0  0  0  0  0  0  0  0  0  0  0
   45.9260   34.6970   43.8200 C   0  0  0  0  0  0  0  0  0  0  0  0
   46.7990   33.7340   44.2210 C   0  0  0  0  0  0  0  0  0  0  0  0
   46.6380   33.1600   45.4540 N   0  0  0  0  0  0  0  0  0  0  0  0
   45.6650   33.4950   46.2860 C   0  0  0  0  0  0  0  0  0  0  0  0
   44.8180   34.4340   45.8880 N   0  0  0  0  0  0  0  0  0  0  0  0
   46.0720   35.3360   42.4960 C   0  0  0  0  0  0  0  0  0  0  0  0
   45.0340   36.2760   42.3810 F   0  0  0  0  0  0  0  0  0  0  0  0
   45.7990   34.4280   41.4760 F   0  0  0  0  0  0  0  0  0  0  0  0
   47.2720   35.9320   42.3030 F   0  0  0  0  0  0  0  0  0  0  0  0
   47.9140   33.2170   43.4930 C   0  0  0  0  0  0  0  0  0  0  0  0
   48.0950   32.0230   43.1580 O   0  0  0  0  0  0  0  0  0  0  0  0
   49.0950   33.6040   42.9060 O   0  0  0  0  0  0  0  0  0  0  0  0
   49.7860   32.9530   41.9400 C   0  0  0  0  0  0  0  0  0  0  0  0
   49.5270   32.2280   40.7950 C   0  0  0  0  0  0  0  0  0  0  0  0
   50.7380   31.8570   40.2970 C   0  0  0  0  0  0  0  0  0  0  0  0
   51.7230   32.3240   41.0870 N   0  0  0  0  0  0  0  0  0  0  0  0
   51.1340   32.9940   42.0900 N   0  0  0  0  0  0  0  0  0  0  0  0
   45.4530   32.9540   47.5330 O   0  0  0  0  0  0  0  0  0  0  0  0
   46.3950   32.1420   48.1870 C   0  0  0  0  0  0  0  0  0  0  0  0
   47.6250   32.7600   48.2780 F   0  0  0  0  0  0  0  0  0  0  0  0
   46.4620   30.8850   47.6420 F   0  0  0  0  0  0  0  0  0  0  0  0
   45.9750   32.0450   49.5280 F   0  0  0  0  0  0  0  0  0  0  0  0
   44.1819   35.8147   44.4115 H   0  0  0  0  0  0  0  0  0  0  0  0
   48.5393   31.9962   40.3698 H   0  0  0  0  0  0  0  0  0  0  0  0
   50.8896   31.2631   39.3836 H   0  0  0  0  0  0  0  0  0  0  0  0
   52.7351   32.1924   40.9483 H   0  0  0  0  0  0  0  0  0  0  0  0
  1  6  2  0
  2  3  2  0
  2  1  1  0
  3  4  1  0
  4  5  2  0
  5 19  1  0
  6  5  1  0
  7  2  1  0
  8  7  1  0
  9  7  1  0
 10  7  1  0
 11  3  1  0
 12 11  2  0
 13 11  1  0
 14 18  2  0
 14 13  1  0
 15 14  1  0
 16 15  2  0
 16 17  1  0
 17 18  1  0
 19 20  1  0
 20 21  1  0
 20 23  1  0
 22 20  1  0
  1 24  1  0
 15 25  1  0
 16 26  1  0
 17 27  1  0
M  ISO  4  24  14  25  14  26  14  27   9
M  END
>  <minimizedAffinity>  (1) 
-5.64582729

>  <minimizedRMSD>  (1) 
0.804765403

$$$$
