
     RDKit          3D

 44 47  0  0  0  0  0  0  0  0999 V2000
   47.3100   34.1880   40.1590 C   0  0  0  0  0  0  0  0  0  0  0  0
   46.6550   34.4370   41.3700 C   0  0  0  0  0  0  0  0  0  0  0  0
   47.0880   33.9770   42.6140 C   0  0  0  0  0  0  0  0  0  0  0  0
   48.2030   33.2790   42.4420 N   0  0  0  0  0  0  0  0  0  0  0  0
   48.8770   32.9960   41.3680 C   0  0  0  0  0  0  0  0  0  0  0  0
   48.4240   33.4590   40.1970 N   0  0  0  0  0  0  0  0  0  0  0  0
   46.2200   34.3870   43.6970 C   0  0  0  0  0  0  0  0  0  0  0  0
   45.4130   35.4600   43.6330 N   0  0  0  0  0  0  0  0  0  0  0  0
   44.6120   35.8460   44.6290 C   0  0  0  0  0  0  0  0  0  0  0  0
   44.5670   35.1570   45.7940 N   0  0  0  0  0  0  0  0  0  0  0  0
   45.3310   34.0790   45.9510 C   0  0  0  0  0  0  0  0  0  0  0  0
   45.2820   33.3890   47.1260 C   0  0  0  0  0  0  0  0  0  0  0  0
   46.0730   32.2540   47.3160 C   0  0  0  0  0  0  0  0  0  0  0  0
   46.9040   31.8560   46.2780 C   0  0  0  0  0  0  0  0  0  0  0  0
   46.9010   32.6040   45.1150 C   0  0  0  0  0  0  0  0  0  0  0  0
   46.1480   33.7140   44.8890 C   0  0  0  0  0  0  0  0  0  0  0  0
   50.0900   32.1710   41.5640 C   0  0  0  0  0  0  0  0  0  0  0  0
   50.6830   31.8150   40.2200 C   0  0  0  0  0  0  0  0  0  0  0  0
   51.1570   33.0720   42.2200 C   0  0  0  0  0  0  0  0  0  0  0  0
   49.8540   30.9550   42.4160 C   0  0  0  0  0  0  0  0  0  0  0  0
   51.0910   30.1370   42.5170 C   0  0  0  0  0  0  0  0  0  0  0  0
   51.8730   30.2230   43.6590 C   0  0  0  0  0  0  0  0  0  0  0  0
   53.0300   29.4460   43.7310 C   0  0  0  0  0  0  0  0  0  0  0  0
   53.3870   28.6360   42.7330 N   0  0  0  0  0  0  0  0  0  0  0  0
   52.6160   28.5650   41.6360 C   0  0  0  0  0  0  0  0  0  0  0  0
   51.4840   29.3070   41.5320 N   0  0  0  0  0  0  0  0  0  0  0  0
   46.9186   34.5805   39.2089 H   0  0  0  0  0  0  0  0  0  0  0  0
   45.7340   35.0376   41.3391 H   0  0  0  0  0  0  0  0  0  0  0  0
   43.9793   36.7368   44.5014 H   0  0  0  0  0  0  0  0  0  0  0  0
   44.6139   33.7292   47.9309 H   0  0  0  0  0  0  0  0  0  0  0  0
   46.0385   31.6917   48.2608 H   0  0  0  0  0  0  0  0  0  0  0  0
   47.5476   30.9695   46.3778 H   0  0  0  0  0  0  0  0  0  0  0  0
   47.5647   32.2729   44.3027 H   0  0  0  0  0  0  0  0  0  0  0  0
   51.6175   31.2540   40.3685 H   0  0  0  0  0  0  0  0  0  0  0  0
   49.9693   31.1959   39.6567 H   0  0  0  0  0  0  0  0  0  0  0  0
   50.8938   32.7360   39.6567 H   0  0  0  0  0  0  0  0  0  0  0  0
   51.0737   33.0016   43.3146 H   0  0  0  0  0  0  0  0  0  0  0  0
   52.1585   32.7421   41.9066 H   0  0  0  0  0  0  0  0  0  0  0  0
   50.9996   34.1146   41.9066 H   0  0  0  0  0  0  0  0  0  0  0  0
   49.5484   31.2736   43.4235 H   0  0  0  0  0  0  0  0  0  0  0  0
   49.0638   30.3460   41.9526 H   0  0  0  0  0  0  0  0  0  0  0  0
   51.5882   30.8876   44.4880 H   0  0  0  0  0  0  0  0  0  0  0  0
   53.6612   29.5027   44.6301 H   0  0  0  0  0  0  0  0  0  0  0  0
   52.9053   27.8972   40.8112 H   0  0  0  0  0  0  0  0  0  0  0  0
  1  6  2  0
  1  2  1  0
  2  3  2  0
  3  7  1  0
  4  3  1  0
  5 17  1  0
  5  4  2  0
  6  5  1  0
  7 16  1  0
  8  7  2  0
  8  9  1  0
  9 10  2  0
 10 11  1  0
 11 12  2  0
 12 13  1  0
 14 13  2  0
 15 14  1  0
 16 15  2  0
 16 11  1  0
 17 19  1  0
 17 20  1  0
 18 17  1  0
 20 21  1  0
 21 22  2  0
 22 23  1  0
 24 23  2  0
 25 24  1  0
 26 25  2  0
 26 21  1  0
  1 27  1  0
  2 28  1  0
  9 29  1  0
 12 30  1  0
 13 31  1  0
 14 32  1  0
 15 33  1  0
 18 34  1  0
 18 35  1  0
 18 36  1  0
 19 37  1  0
 19 38  1  0
 19 39  1  0
 20 40  1  0
 20 41  1  0
 22 42  1  0
 23 43  1  0
 25 44  1  0
M  ISO  8  27  14  28  14  29  14  30  14  31  14  32  14  33  14  34   8
M  ISO  8  35   8  36   8  37   8  38   8  39   8  40   8  41   8  42  14
M  ISO  2  43  14  44  14
M  END
>  <minimizedAffinity>  (1) 
-5.57337999

>  <minimizedRMSD>  (1) 
0.283692241

$$$$
