
     RDKit          3D

 27 28  0  0  0  0  0  0  0  0999 V2000
   44.7080   35.4190   45.0220 C   0  0  0  0  0  0  0  0  0  0  0  0
   45.5480   34.9000   44.0530 C   0  0  0  0  0  0  0  0  0  0  0  0
   46.2300   33.7620   44.3660 C   0  0  0  0  0  0  0  0  0  0  0  0
   46.0650   33.1790   45.6010 N   0  0  0  0  0  0  0  0  0  0  0  0
   45.2530   33.6900   46.5190 C   0  0  0  0  0  0  0  0  0  0  0  0
   44.5900   34.8020   46.2120 N   0  0  0  0  0  0  0  0  0  0  0  0
   45.7130   35.5360   42.7360 C   0  0  0  0  0  0  0  0  0  0  0  0
   44.8640   36.6560   42.7200 F   0  0  0  0  0  0  0  0  0  0  0  0
   45.2070   34.7390   41.7200 F   0  0  0  0  0  0  0  0  0  0  0  0
   46.9870   35.8980   42.4600 F   0  0  0  0  0  0  0  0  0  0  0  0
   47.1450   33.0510   43.5310 C   0  0  0  0  0  0  0  0  0  0  0  0
   47.0230   31.8690   43.1330 O   0  0  0  0  0  0  0  0  0  0  0  0
   48.3430   33.2020   42.8690 O   0  0  0  0  0  0  0  0  0  0  0  0
   48.5420   33.0080   41.5340 C   0  0  0  0  0  0  0  0  0  0  0  0
   47.9760   33.5950   40.4530 C   0  0  0  0  0  0  0  0  0  0  0  0
   48.5790   32.9870   39.3480 C   0  0  0  0  0  0  0  0  0  0  0  0
   49.4860   32.0550   39.8420 C   0  0  0  0  0  0  0  0  0  0  0  0
   49.4340   32.0980   41.1500 O   0  0  0  0  0  0  0  0  0  0  0  0
   45.0340   33.1720   47.7710 O   0  0  0  0  0  0  0  0  0  0  0  0
   45.8420   32.1690   48.3350 C   0  0  0  0  0  0  0  0  0  0  0  0
   47.1670   32.5520   48.3850 F   0  0  0  0  0  0  0  0  0  0  0  0
   45.6750   30.9530   47.7340 F   0  0  0  0  0  0  0  0  0  0  0  0
   45.4800   32.0730   49.6910 F   0  0  0  0  0  0  0  0  0  0  0  0
   44.1362   36.3366   44.8196 H   0  0  0  0  0  0  0  0  0  0  0  0
   47.2069   34.3814   40.4458 H   0  0  0  0  0  0  0  0  0  0  0  0
   48.3751   33.2042   38.2891 H   0  0  0  0  0  0  0  0  0  0  0  0
   50.1322   31.3985   39.2408 H   0  0  0  0  0  0  0  0  0  0  0  0
  1  6  2  0
  2  3  2  0
  2  1  1  0
  3  4  1  0
  4  5  2  0
  5 19  1  0
  6  5  1  0
  7  2  1  0
  8  7  1  0
  9  7  1  0
 10  7  1  0
 11  3  1  0
 12 11  2  0
 13 11  1  0
 14 13  1  0
 15 14  2  0
 16 17  2  0
 16 15  1  0
 17 18  1  0
 18 14  1  0
 19 20  1  0
 20 21  1  0
 20 23  1  0
 22 20  1  0
  1 24  1  0
 15 25  1  0
 16 26  1  0
 17 27  1  0
M  ISO  4  24  14  25  14  26  14  27  14
M  END
>  <minimizedAffinity>  (1) 
-5.33317327

>  <minimizedRMSD>  (1) 
1.03512502

$$$$
