
     RDKit          3D

 22 22  0  0  0  0  0  0  0  0999 V2000
   45.0080   34.9590   44.7790 C   0  0  0  0  0  0  0  0  0  0  0  0
   45.9510   34.6850   43.8100 C   0  0  0  0  0  0  0  0  0  0  0  0
   46.8690   33.6860   44.0720 C   0  0  0  0  0  0  0  0  0  0  0  0
   46.7820   33.0330   45.2780 N   0  0  0  0  0  0  0  0  0  0  0  0
   45.8720   33.3140   46.1880 C   0  0  0  0  0  0  0  0  0  0  0  0
   45.0010   34.2730   45.9200 N   0  0  0  0  0  0  0  0  0  0  0  0
   46.0000   35.4140   42.5230 C   0  0  0  0  0  0  0  0  0  0  0  0
   45.0850   36.4650   42.6230 F   0  0  0  0  0  0  0  0  0  0  0  0
   45.4840   34.6330   41.4880 F   0  0  0  0  0  0  0  0  0  0  0  0
   47.2270   35.8900   42.2130 F   0  0  0  0  0  0  0  0  0  0  0  0
   47.9320   33.2410   43.2170 C   0  0  0  0  0  0  0  0  0  0  0  0
   47.8480   32.2440   42.4440 O   0  0  0  0  0  0  0  0  0  0  0  0
   49.1340   33.4190   42.8040 O   0  0  0  0  0  0  0  0  0  0  0  0
   50.3270   33.5960   42.3930 C   0  0  0  0  0  0  0  0  0  0  0  0
   50.0350   34.7850   42.6880 O   0  0  0  0  0  0  0  0  0  0  0  0
   45.7570   32.6770   47.4090 O   0  0  0  0  0  0  0  0  0  0  0  0
   46.8240   32.0380   48.0480 C   0  0  0  0  0  0  0  0  0  0  0  0
   47.9030   32.8840   48.1730 F   0  0  0  0  0  0  0  0  0  0  0  0
   47.1440   30.8260   47.4730 F   0  0  0  0  0  0  0  0  0  0  0  0
   46.4220   31.8240   49.3790 F   0  0  0  0  0  0  0  0  0  0  0  0
   44.2595   35.7468   44.6084 H   0  0  0  0  0  0  0  0  0  0  0  0
   51.1701   33.0149   41.9911 H   0  0  0  0  0  0  0  0  0  0  0  0
  1  6  2  0
  2  3  2  0
  2  1  1  0
  3  4  1  0
  4  5  2  0
  5 16  1  0
  6  5  1  0
  7  8  1  0
  7  2  1  0
  9  7  1  0
 10  7  1  0
 11  3  1  0
 12 11  2  0
 13 11  1  0
 14 15  2  0
 14 13  1  0
 16 17  1  0
 17 18  1  0
 17 20  1  0
 19 17  1  0
  1 21  1  0
 14 22  1  0
M  ISO  2  21  14  22   6
M  END
>  <minimizedAffinity>  (1) 
-5.09246826

>  <minimizedRMSD>  (1) 
0.845917225

$$$$
