
     RDKit          3D

 25 26  0  0  0  0  0  0  0  0999 V2000
   44.7390   35.3290   44.9440 C   0  0  0  0  0  0  0  0  0  0  0  0
   45.6500   34.8400   44.0360 C   0  0  0  0  0  0  0  0  0  0  0  0
   46.3960   33.7610   44.4060 C   0  0  0  0  0  0  0  0  0  0  0  0
   46.2110   33.2120   45.6520 N   0  0  0  0  0  0  0  0  0  0  0  0
   45.3290   33.6950   46.5150 C   0  0  0  0  0  0  0  0  0  0  0  0
   44.6110   34.7410   46.1470 N   0  0  0  0  0  0  0  0  0  0  0  0
   45.8230   35.4510   42.7110 C   0  0  0  0  0  0  0  0  0  0  0  0
   44.9300   36.5290   42.6290 F   0  0  0  0  0  0  0  0  0  0  0  0
   45.3830   34.5970   41.7000 F   0  0  0  0  0  0  0  0  0  0  0  0
   47.0980   35.8670   42.4530 F   0  0  0  0  0  0  0  0  0  0  0  0
   47.3920   33.0910   43.6320 C   0  0  0  0  0  0  0  0  0  0  0  0
   47.3800   31.8780   43.3050 O   0  0  0  0  0  0  0  0  0  0  0  0
   48.5850   33.3050   42.9840 O   0  0  0  0  0  0  0  0  0  0  0  0
   48.8930   32.9310   41.7150 C   0  0  0  0  0  0  0  0  0  0  0  0
   49.8050   32.1420   41.1160 N   0  0  0  0  0  0  0  0  0  0  0  0
   49.6690   32.1220   39.8350 O   0  0  0  0  0  0  0  0  0  0  0  0
   48.6600   32.9020   39.5410 C   0  0  0  0  0  0  0  0  0  0  0  0
   48.1470   33.4270   40.6890 N   0  0  0  0  0  0  0  0  0  0  0  0
   45.1030   33.1830   47.7770 O   0  0  0  0  0  0  0  0  0  0  0  0
   45.8790   32.1680   48.3500 C   0  0  0  0  0  0  0  0  0  0  0  0
   47.2070   32.5030   48.4310 F   0  0  0  0  0  0  0  0  0  0  0  0
   45.6810   30.9580   47.7310 F   0  0  0  0  0  0  0  0  0  0  0  0
   45.4570   32.0560   49.6890 F   0  0  0  0  0  0  0  0  0  0  0  0
   44.1168   36.1988   44.6866 H   0  0  0  0  0  0  0  0  0  0  0  0
   48.2850   33.1023   38.5265 H   0  0  0  0  0  0  0  0  0  0  0  0
  1  6  2  0
  2  3  2  0
  2  1  1  0
  3  4  1  0
  4  5  2  0
  5 19  1  0
  6  5  1  0
  7  2  1  0
  8  7  1  0
  9  7  1  0
 10  7  1  0
 11  3  1  0
 12 11  2  0
 13 11  1  0
 14 13  1  0
 15 14  2  0
 16 15  1  0
 17 16  1  0
 17 18  2  0
 18 14  1  0
 19 20  1  0
 20 21  1  0
 20 23  1  0
 22 20  1  0
  1 24  1  0
 17 25  1  0
M  ISO  2  24  14  25  14
M  END
>  <minimizedAffinity>  (1) 
-5.35496855

>  <minimizedRMSD>  (1) 
0.801813841

$$$$
