
     RDKit          3D

 28 29  0  0  0  0  0  0  0  0999 V2000
   44.7000   35.4640   45.0290 C   0  0  0  0  0  0  0  0  0  0  0  0
   45.5150   35.0220   44.0040 C   0  0  0  0  0  0  0  0  0  0  0  0
   46.2230   33.8740   44.2130 C   0  0  0  0  0  0  0  0  0  0  0  0
   46.0920   33.2210   45.4170 N   0  0  0  0  0  0  0  0  0  0  0  0
   45.3110   33.6550   46.3870 C   0  0  0  0  0  0  0  0  0  0  0  0
   44.6300   34.7680   46.1730 N   0  0  0  0  0  0  0  0  0  0  0  0
   45.6270   35.7500   42.7300 C   0  0  0  0  0  0  0  0  0  0  0  0
   44.8210   36.8940   42.8430 F   0  0  0  0  0  0  0  0  0  0  0  0
   45.0830   35.0390   41.6840 F   0  0  0  0  0  0  0  0  0  0  0  0
   46.9040   36.1320   42.4310 F   0  0  0  0  0  0  0  0  0  0  0  0
   47.1190   33.2320   43.3040 C   0  0  0  0  0  0  0  0  0  0  0  0
   46.9850   32.0790   42.8270 O   0  0  0  0  0  0  0  0  0  0  0  0
   48.2960   33.4430   42.6230 O   0  0  0  0  0  0  0  0  0  0  0  0
   48.5210   33.1870   41.3060 C   0  0  0  0  0  0  0  0  0  0  0  0
   47.9590   34.1110   40.4530 C   0  0  0  0  0  0  0  0  0  0  0  0
   48.0840   34.0120   39.0770 C   0  0  0  0  0  0  0  0  0  0  0  0
   48.7840   32.9660   38.5940 N   0  0  0  0  0  0  0  0  0  0  0  0
   49.3430   32.0500   39.4050 C   0  0  0  0  0  0  0  0  0  0  0  0
   49.2000   32.1800   40.7180 N   0  0  0  0  0  0  0  0  0  0  0  0
   45.1440   33.0400   47.6090 O   0  0  0  0  0  0  0  0  0  0  0  0
   46.1100   32.2060   48.1880 C   0  0  0  0  0  0  0  0  0  0  0  0
   47.3480   32.7950   48.1650 F   0  0  0  0  0  0  0  0  0  0  0  0
   46.1070   30.9400   47.6610 F   0  0  0  0  0  0  0  0  0  0  0  0
   45.7920   32.1340   49.5590 F   0  0  0  0  0  0  0  0  0  0  0  0
   44.1102   36.3844   44.9066 H   0  0  0  0  0  0  0  0  0  0  0  0
   47.3935   34.9535   40.8776 H   0  0  0  0  0  0  0  0  0  0  0  0
   47.6307   34.7564   38.4059 H   0  0  0  0  0  0  0  0  0  0  0  0
   49.9102   31.2057   38.9862 H   0  0  0  0  0  0  0  0  0  0  0  0
  1  6  2  0
  2  3  2  0
  2  1  1  0
  3  4  1  0
  4  5  2  0
  5 20  1  0
  6  5  1  0
  7  8  1  0
  7  2  1  0
  9  7  1  0
 10  7  1  0
 11  3  1  0
 12 11  2  0
 13 11  1  0
 14 13  1  0
 15 14  2  0
 16 15  1  0
 17 16  2  0
 17 18  1  0
 18 19  2  0
 19 14  1  0
 20 21  1  0
 21 24  1  0
 22 21  1  0
 23 21  1  0
  1 25  1  0
 15 26  1  0
 16 27  1  0
 18 28  1  0
M  ISO  4  25  14  26  14  27  14  28  14
M  END
>  <minimizedAffinity>  (1) 
-5.53180075

>  <minimizedRMSD>  (1) 
1.30705225

$$$$
