
     RDKit          3D

 26 27  0  0  0  0  0  0  0  0999 V2000
   44.7380   35.3340   44.9480 C   0  0  0  0  0  0  0  0  0  0  0  0
   45.6400   34.8320   44.0200 C   0  0  0  0  0  0  0  0  0  0  0  0
   46.3790   33.7370   44.3940 C   0  0  0  0  0  0  0  0  0  0  0  0
   46.1940   33.2010   45.6430 N   0  0  0  0  0  0  0  0  0  0  0  0
   45.3320   33.6890   46.5170 C   0  0  0  0  0  0  0  0  0  0  0  0
   44.6240   34.7440   46.1500 N   0  0  0  0  0  0  0  0  0  0  0  0
   45.8130   35.4270   42.6940 C   0  0  0  0  0  0  0  0  0  0  0  0
   44.9680   36.5460   42.6350 F   0  0  0  0  0  0  0  0  0  0  0  0
   45.3170   34.5910   41.6940 F   0  0  0  0  0  0  0  0  0  0  0  0
   47.0850   35.7870   42.4030 F   0  0  0  0  0  0  0  0  0  0  0  0
   47.3590   33.0520   43.6130 C   0  0  0  0  0  0  0  0  0  0  0  0
   47.3200   31.8480   43.2740 O   0  0  0  0  0  0  0  0  0  0  0  0
   48.5590   33.2570   42.9700 O   0  0  0  0  0  0  0  0  0  0  0  0
   48.8240   32.8830   41.6670 C   0  0  0  0  0  0  0  0  0  0  0  0
   47.9810   33.2040   40.4400 C   0  0  0  0  0  0  0  0  0  0  0  0
   48.9650   32.3870   39.1430 S   0  0  0  0  0  0  0  0  0  0  0  0
   50.2760   31.7790   40.3800 C   0  0  0  0  0  0  0  0  0  0  0  0
   49.9390   32.1640   41.4780 N   0  0  0  0  0  0  0  0  0  0  0  0
   45.1020   33.2000   47.7790 O   0  0  0  0  0  0  0  0  0  0  0  0
   45.8550   32.1500   48.3420 C   0  0  0  0  0  0  0  0  0  0  0  0
   47.1960   32.4890   48.4360 F   0  0  0  0  0  0  0  0  0  0  0  0
   45.6580   30.9590   47.7120 F   0  0  0  0  0  0  0  0  0  0  0  0
   45.4380   32.0420   49.6830 F   0  0  0  0  0  0  0  0  0  0  0  0
   44.1200   36.2098   44.7009 H   0  0  0  0  0  0  0  0  0  0  0  0
   47.0414   33.7704   40.3595 H   0  0  0  0  0  0  0  0  0  0  0  0
   51.1729   31.1880   40.1425 H   0  0  0  0  0  0  0  0  0  0  0  0
  1  6  2  0
  2  3  2  0
  2  1  1  0
  3  4  1  0
  4  5  2  0
  5 19  1  0
  6  5  1  0
  7  2  1  0
  8  7  1  0
  9  7  1  0
 10  7  1  0
 11  3  1  0
 12 11  2  0
 13 11  1  0
 14 13  1  0
 15 14  2  0
 16 17  1  0
 16 15  1  0
 17 18  2  0
 18 14  1  0
 19 20  1  0
 20 21  1  0
 20 23  1  0
 22 20  1  0
  1 24  1  0
 15 25  1  0
 17 26  1  0
M  ISO  3  24  14  25  14  26  14
M  END
>  <minimizedAffinity>  (1) 
-5.33338785

>  <minimizedRMSD>  (1) 
0.862544417

$$$$
