
     RDKit          3D

 40 42  0  0  0  0  0  0  0  0999 V2000
   44.6760   35.4110   45.0300 C   0  0  0  0  0  0  0  0  0  0  0  0
   45.5510   34.9160   44.0750 C   0  0  0  0  0  0  0  0  0  0  0  0
   46.2780   33.7930   44.4150 C   0  0  0  0  0  0  0  0  0  0  0  0
   46.1130   33.2260   45.6450 N   0  0  0  0  0  0  0  0  0  0  0  0
   45.2670   33.7170   46.5480 C   0  0  0  0  0  0  0  0  0  0  0  0
   44.5710   34.7930   46.2230 N   0  0  0  0  0  0  0  0  0  0  0  0
   45.7060   35.5360   42.7560 C   0  0  0  0  0  0  0  0  0  0  0  0
   44.8790   36.6680   42.7390 F   0  0  0  0  0  0  0  0  0  0  0  0
   45.1490   34.7250   41.7550 F   0  0  0  0  0  0  0  0  0  0  0  0
   46.9770   35.8570   42.4420 F   0  0  0  0  0  0  0  0  0  0  0  0
   47.2270   33.1160   43.5940 C   0  0  0  0  0  0  0  0  0  0  0  0
   47.2210   31.9090   43.2840 O   0  0  0  0  0  0  0  0  0  0  0  0
   48.3770   33.3450   42.8710 O   0  0  0  0  0  0  0  0  0  0  0  0
   48.6130   32.9860   41.5820 C   0  0  0  0  0  0  0  0  0  0  0  0
   47.6960   33.2680   40.4290 C   0  0  0  0  0  0  0  0  0  0  0  0
   48.6260   32.5210   39.0500 S   0  0  0  0  0  0  0  0  0  0  0  0
   50.0490   31.9710   40.2020 C   0  0  0  0  0  0  0  0  0  0  0  0
   49.7250   32.3410   41.2940 N   0  0  0  0  0  0  0  0  0  0  0  0
   51.2620   31.2490   39.7820 N   0  0  0  0  0  0  0  0  0  0  0  0
   51.4160   30.7870   38.4050 C   0  0  0  0  0  0  0  0  0  0  0  0
   52.4130   31.7850   37.8020 C   0  0  0  0  0  0  0  0  0  0  0  0
   53.6020   31.7340   38.5810 N   0  0  0  0  0  0  0  0  0  0  0  0
   53.6190   30.7970   39.6580 C   0  0  0  0  0  0  0  0  0  0  0  0
   52.4170   30.9120   40.5960 C   0  0  0  0  0  0  0  0  0  0  0  0
   45.0540   33.1920   47.8090 O   0  0  0  0  0  0  0  0  0  0  0  0
   45.8410   32.1460   48.3440 C   0  0  0  0  0  0  0  0  0  0  0  0
   47.1680   32.5120   48.4200 F   0  0  0  0  0  0  0  0  0  0  0  0
   45.6570   30.9630   47.7130 F   0  0  0  0  0  0  0  0  0  0  0  0
   45.4370   32.0400   49.6960 F   0  0  0  0  0  0  0  0  0  0  0  0
   44.0705   36.3038   44.8149 H   0  0  0  0  0  0  0  0  0  0  0  0
   46.7253   33.7854   40.4183 H   0  0  0  0  0  0  0  0  0  0  0  0
   51.8181   29.7635   38.3763 H   0  0  0  0  0  0  0  0  0  0  0  0
   50.4632   30.7489   37.8567 H   0  0  0  0  0  0  0  0  0  0  0  0
   52.6355   31.5092   36.7606 H   0  0  0  0  0  0  0  0  0  0  0  0
   51.9919   32.8012   37.8085 H   0  0  0  0  0  0  0  0  0  0  0  0
   54.3802   31.4981   37.9489 H   0  0  0  0  0  0  0  0  0  0  0  0
   53.6322   29.7820   39.2343 H   0  0  0  0  0  0  0  0  0  0  0  0
   54.5150   31.0150   40.2577 H   0  0  0  0  0  0  0  0  0  0  0  0
   52.5954   31.7016   41.3408 H   0  0  0  0  0  0  0  0  0  0  0  0
   52.2513   29.9664   41.1330 H   0  0  0  0  0  0  0  0  0  0  0  0
  1  6  2  0
  2  3  2  0
  2  1  1  0
  3  4  1  0
  4  5  2  0
  5 25  1  0
  6  5  1  0
  7  2  1  0
  8  7  1  0
  9  7  1  0
 10  7  1  0
 11  3  1  0
 12 11  2  0
 13 11  1  0
 14 13  1  0
 15 14  2  0
 16 17  1  0
 16 15  1  0
 17 18  2  0
 18 14  1  0
 19 17  1  0
 19 24  1  0
 20 19  1  0
 21 20  1  0
 21 22  1  0
 22 23  1  0
 23 24  1  0
 25 26  1  0
 26 27  1  0
 26 29  1  0
 28 26  1  0
  1 30  1  0
 15 31  1  0
 20 32  1  0
 20 33  1  0
 21 34  1  0
 21 35  1  0
 22 36  1  0
 23 37  1  0
 23 38  1  0
 24 39  1  0
 24 40  1  0
M  ISO  8  30  14  31  14  32  13  33  13  34  13  35  13  36   5  37  13
M  ISO  3  38  13  39  13  40  13
M  END
>  <minimizedAffinity>  (1) 
-6.46171618

>  <minimizedRMSD>  (1) 
0.315651089

$$$$
