
     RDKit          3D

 41 43  0  0  0  0  0  0  0  0999 V2000
   44.7060   35.3960   45.0070 C   0  0  0  0  0  0  0  0  0  0  0  0
   45.5560   34.8800   44.0290 C   0  0  0  0  0  0  0  0  0  0  0  0
   46.2560   33.7350   44.3640 C   0  0  0  0  0  0  0  0  0  0  0  0
   46.0850   33.1810   45.6060 N   0  0  0  0  0  0  0  0  0  0  0  0
   45.2740   33.6860   46.5200 C   0  0  0  0  0  0  0  0  0  0  0  0
   44.6050   34.7800   46.2000 N   0  0  0  0  0  0  0  0  0  0  0  0
   45.7100   35.5020   42.7200 C   0  0  0  0  0  0  0  0  0  0  0  0
   44.9190   36.6610   42.7220 F   0  0  0  0  0  0  0  0  0  0  0  0
   45.1410   34.7250   41.7250 F   0  0  0  0  0  0  0  0  0  0  0  0
   47.0000   35.8150   42.4140 F   0  0  0  0  0  0  0  0  0  0  0  0
   47.1700   33.0400   43.5250 C   0  0  0  0  0  0  0  0  0  0  0  0
   47.0590   31.8410   43.1550 O   0  0  0  0  0  0  0  0  0  0  0  0
   48.3580   33.2360   42.8410 O   0  0  0  0  0  0  0  0  0  0  0  0
   48.5660   32.9380   41.5270 C   0  0  0  0  0  0  0  0  0  0  0  0
   47.5970   33.2170   40.4110 C   0  0  0  0  0  0  0  0  0  0  0  0
   48.5290   32.5620   38.9850 S   0  0  0  0  0  0  0  0  0  0  0  0
   49.9960   32.0460   40.0570 C   0  0  0  0  0  0  0  0  0  0  0  0
   49.6950   32.3570   41.1650 N   0  0  0  0  0  0  0  0  0  0  0  0
   51.1000   31.4230   39.3600 N   0  0  0  0  0  0  0  0  0  0  0  0
   52.1360   30.6990   40.0260 C   0  0  0  0  0  0  0  0  0  0  0  0
   53.4910   31.0200   39.4580 C   0  0  0  0  0  0  0  0  0  0  0  0
   53.4430   31.6060   38.0630 C   0  0  0  0  0  0  0  0  0  0  0  0
   52.2740   31.0710   37.2970 C   0  0  0  0  0  0  0  0  0  0  0  0
   51.0170   31.6240   37.9380 C   0  0  0  0  0  0  0  0  0  0  0  0
   45.0590   33.1830   47.7720 O   0  0  0  0  0  0  0  0  0  0  0  0
   45.8530   32.1590   48.3250 C   0  0  0  0  0  0  0  0  0  0  0  0
   47.1850   32.5240   48.3810 F   0  0  0  0  0  0  0  0  0  0  0  0
   45.6700   30.9550   47.7100 F   0  0  0  0  0  0  0  0  0  0  0  0
   45.4740   32.0590   49.6780 F   0  0  0  0  0  0  0  0  0  0  0  0
   44.1194   36.3042   44.8041 H   0  0  0  0  0  0  0  0  0  0  0  0
   46.6025   33.6858   40.4449 H   0  0  0  0  0  0  0  0  0  0  0  0
   52.1254   30.9624   41.0940 H   0  0  0  0  0  0  0  0  0  0  0  0
   51.9499   29.6242   39.8838 H   0  0  0  0  0  0  0  0  0  0  0  0
   53.9832   31.7453   40.1226 H   0  0  0  0  0  0  0  0  0  0  0  0
   54.0436   30.0714   39.3893 H   0  0  0  0  0  0  0  0  0  0  0  0
   53.3556   32.7001   38.1352 H   0  0  0  0  0  0  0  0  0  0  0  0
   54.3662   31.3275   37.5337 H   0  0  0  0  0  0  0  0  0  0  0  0
   52.2664   29.9720   37.3426 H   0  0  0  0  0  0  0  0  0  0  0  0
   52.3337   31.3705   36.2403 H   0  0  0  0  0  0  0  0  0  0  0  0
   50.9320   32.6988   37.7201 H   0  0  0  0  0  0  0  0  0  0  0  0
   50.1324   31.1079   37.5367 H   0  0  0  0  0  0  0  0  0  0  0  0
  1  6  2  0
  2  3  2  0
  2  1  1  0
  3  4  1  0
  4  5  2  0
  5 25  1  0
  6  5  1  0
  7  8  1  0
  7  2  1  0
  9  7  1  0
 10  7  1  0
 11  3  1  0
 12 11  2  0
 13 11  1  0
 14 13  1  0
 15 14  2  0
 16 17  1  0
 16 15  1  0
 17 18  2  0
 18 14  1  0
 19 20  1  0
 19 17  1  0
 21 20  1  0
 22 21  1  0
 23 24  1  0
 23 22  1  0
 24 19  1  0
 25 26  1  0
 26 27  1  0
 26 29  1  0
 28 26  1  0
  1 30  1  0
 15 31  1  0
 20 32  1  0
 20 33  1  0
 21 34  1  0
 21 35  1  0
 22 36  1  0
 22 37  1  0
 23 38  1  0
 23 39  1  0
 24 40  1  0
 24 41  1  0
M  ISO  8  30  14  31  14  32  13  33  13  34  13  35  13  36  13  37  13
M  ISO  4  38  13  39  13  40  13  41  13
M  END
>  <minimizedAffinity>  (1) 
-6.33477926

>  <minimizedRMSD>  (1) 
0.497727036

$$$$
