
     RDKit          3D

 44 47  0  0  0  0  0  0  0  0999 V2000
   47.3870   34.1560   40.0480 C   0  0  0  0  0  0  0  0  0  0  0  0
   46.7100   34.4570   41.2390 C   0  0  0  0  0  0  0  0  0  0  0  0
   47.1120   34.0390   42.5100 C   0  0  0  0  0  0  0  0  0  0  0  0
   48.2240   33.3220   42.3890 N   0  0  0  0  0  0  0  0  0  0  0  0
   48.9130   32.9950   41.3350 C   0  0  0  0  0  0  0  0  0  0  0  0
   48.4930   33.4160   40.1370 N   0  0  0  0  0  0  0  0  0  0  0  0
   46.2210   34.5000   43.5570 C   0  0  0  0  0  0  0  0  0  0  0  0
   45.4330   35.5810   43.4390 N   0  0  0  0  0  0  0  0  0  0  0  0
   44.6140   36.0040   44.4040 C   0  0  0  0  0  0  0  0  0  0  0  0
   44.5320   35.3460   45.5830 N   0  0  0  0  0  0  0  0  0  0  0  0
   45.2740   34.2640   45.7920 C   0  0  0  0  0  0  0  0  0  0  0  0
   45.1790   33.6160   46.9890 C   0  0  0  0  0  0  0  0  0  0  0  0
   45.9530   32.4740   47.2320 C   0  0  0  0  0  0  0  0  0  0  0  0
   46.8090   32.0320   46.2250 C   0  0  0  0  0  0  0  0  0  0  0  0
   46.8440   32.7460   45.0450 C   0  0  0  0  0  0  0  0  0  0  0  0
   46.1120   33.8590   44.7630 C   0  0  0  0  0  0  0  0  0  0  0  0
   50.1120   32.1620   41.5960 C   0  0  0  0  0  0  0  0  0  0  0  0
   50.7110   31.7220   40.2750 C   0  0  0  0  0  0  0  0  0  0  0  0
   51.1800   33.0570   42.2390 C   0  0  0  0  0  0  0  0  0  0  0  0
   49.8300   30.9710   42.4750 C   0  0  0  0  0  0  0  0  0  0  0  0
   50.9980   30.0560   42.5770 C   0  0  0  0  0  0  0  0  0  0  0  0
   51.9740   30.1870   43.5690 C   0  0  0  0  0  0  0  0  0  0  0  0
   53.0540   29.3170   43.6380 C   0  0  0  0  0  0  0  0  0  0  0  0
   53.1760   28.3160   42.7290 N   0  0  0  0  0  0  0  0  0  0  0  0
   52.2310   28.1870   41.7680 C   0  0  0  0  0  0  0  0  0  0  0  0
   51.1730   29.0450   41.7030 N   0  0  0  0  0  0  0  0  0  0  0  0
   47.0192   34.5170   39.0762 H   0  0  0  0  0  0  0  0  0  0  0  0
   45.7968   35.0660   41.1671 H   0  0  0  0  0  0  0  0  0  0  0  0
   43.9974   36.8997   44.2384 H   0  0  0  0  0  0  0  0  0  0  0  0
   44.4940   33.9907   47.7639 H   0  0  0  0  0  0  0  0  0  0  0  0
   45.8869   31.9405   48.1917 H   0  0  0  0  0  0  0  0  0  0  0  0
   47.4378   31.1407   46.3667 H   0  0  0  0  0  0  0  0  0  0  0  0
   47.5249   32.3833   44.2609 H   0  0  0  0  0  0  0  0  0  0  0  0
   51.5843   31.0805   40.4640 H   0  0  0  0  0  0  0  0  0  0  0  0
   49.9600   31.1593   39.7012 H   0  0  0  0  0  0  0  0  0  0  0  0
   51.0234   32.6069   39.7012 H   0  0  0  0  0  0  0  0  0  0  0  0
   51.1021   32.9917   43.3343 H   0  0  0  0  0  0  0  0  0  0  0  0
   52.1786   32.7220   41.9218 H   0  0  0  0  0  0  0  0  0  0  0  0
   51.0248   34.0988   41.9218 H   0  0  0  0  0  0  0  0  0  0  0  0
   49.5714   31.3283   43.4827 H   0  0  0  0  0  0  0  0  0  0  0  0
   48.9999   30.4082   42.0232 H   0  0  0  0  0  0  0  0  0  0  0  0
   51.8847   30.9953   44.3097 H   0  0  0  0  0  0  0  0  0  0  0  0
   53.8097   29.4387   44.4281 H   0  0  0  0  0  0  0  0  0  0  0  0
   52.3180   27.3776   41.0282 H   0  0  0  0  0  0  0  0  0  0  0  0
  1  6  2  0
  1  2  1  0
  2  3  2  0
  3  7  1  0
  4  3  1  0
  5 17  1  0
  5  4  2  0
  6  5  1  0
  7 16  1  0
  8  7  2  0
  8  9  1  0
  9 10  2  0
 10 11  1  0
 11 12  2  0
 12 13  1  0
 14 13  2  0
 15 14  1  0
 16 15  2  0
 16 11  1  0
 17 19  1  0
 17 20  1  0
 18 17  1  0
 20 21  1  0
 21 22  2  0
 22 23  1  0
 24 23  2  0
 25 24  1  0
 26 25  2  0
 26 21  1  0
  1 27  1  0
  2 28  1  0
  9 29  1  0
 12 30  1  0
 13 31  1  0
 14 32  1  0
 15 33  1  0
 18 34  1  0
 18 35  1  0
 18 36  1  0
 19 37  1  0
 19 38  1  0
 19 39  1  0
 20 40  1  0
 20 41  1  0
 22 42  1  0
 23 43  1  0
 25 44  1  0
M  ISO  8  27  14  28  14  29  14  30  14  31  14  32  14  33  14  34   8
M  ISO  8  35   8  36   8  37   8  38   8  39   8  40   8  41   8  42  14
M  ISO  2  43  14  44  14
M  END
>  <minimizedAffinity>  (1) 
-5.56293535

>  <minimizedRMSD>  (1) 
0.602203012

$$$$
