
     RDKit          3D

 35 37  0  0  0  0  0  0  0  0999 V2000
   44.7950   35.2640   44.9090 C   0  0  0  0  0  0  0  0  0  0  0  0
   45.7230   34.7670   43.9980 C   0  0  0  0  0  0  0  0  0  0  0  0
   46.4690   33.6820   44.4150 C   0  0  0  0  0  0  0  0  0  0  0  0
   46.2640   33.1680   45.6600 N   0  0  0  0  0  0  0  0  0  0  0  0
   45.3780   33.6570   46.5070 C   0  0  0  0  0  0  0  0  0  0  0  0
   44.6660   34.6920   46.1130 N   0  0  0  0  0  0  0  0  0  0  0  0
   45.9120   35.3470   42.6640 C   0  0  0  0  0  0  0  0  0  0  0  0
   45.0500   36.4460   42.5720 F   0  0  0  0  0  0  0  0  0  0  0  0
   45.4350   34.4900   41.6820 F   0  0  0  0  0  0  0  0  0  0  0  0
   47.1900   35.7140   42.4010 F   0  0  0  0  0  0  0  0  0  0  0  0
   47.4680   33.0120   43.6590 C   0  0  0  0  0  0  0  0  0  0  0  0
   47.5230   31.7780   43.4150 O   0  0  0  0  0  0  0  0  0  0  0  0
   48.6320   33.2680   42.9540 O   0  0  0  0  0  0  0  0  0  0  0  0
   48.8980   32.8710   41.6810 C   0  0  0  0  0  0  0  0  0  0  0  0
   47.9350   32.8990   40.5360 C   0  0  0  0  0  0  0  0  0  0  0  0
   48.9540   32.2370   39.1990 S   0  0  0  0  0  0  0  0  0  0  0  0
   50.4610   32.0290   40.3160 C   0  0  0  0  0  0  0  0  0  0  0  0
   50.0980   32.4130   41.3930 N   0  0  0  0  0  0  0  0  0  0  0  0
   51.7500   31.4850   39.7950 C   0  0  0  0  0  0  0  0  0  0  0  0
   52.5810   30.8440   40.6910 C   0  0  0  0  0  0  0  0  0  0  0  0
   53.7590   30.3590   40.1620 C   0  0  0  0  0  0  0  0  0  0  0  0
   54.0410   30.5300   38.8210 C   0  0  0  0  0  0  0  0  0  0  0  0
   53.1870   31.1770   37.9480 C   0  0  0  0  0  0  0  0  0  0  0  0
   52.0460   31.6400   38.4920 N   0  0  0  0  0  0  0  0  0  0  0  0
   45.1330   33.1760   47.7710 O   0  0  0  0  0  0  0  0  0  0  0  0
   45.8730   32.1350   48.3570 C   0  0  0  0  0  0  0  0  0  0  0  0
   47.2150   32.4830   48.4530 F   0  0  0  0  0  0  0  0  0  0  0  0
   45.6820   30.9240   47.7490 F   0  0  0  0  0  0  0  0  0  0  0  0
   45.4480   32.0550   49.6970 F   0  0  0  0  0  0  0  0  0  0  0  0
   44.1677   36.1266   44.6399 H   0  0  0  0  0  0  0  0  0  0  0  0
   46.8872   33.2332   40.5142 H   0  0  0  0  0  0  0  0  0  0  0  0
   52.3219   30.7278   41.7537 H   0  0  0  0  0  0  0  0  0  0  0  0
   54.4761   29.8343   40.8104 H   0  0  0  0  0  0  0  0  0  0  0  0
   54.9892   30.1329   38.4296 H   0  0  0  0  0  0  0  0  0  0  0  0
   53.4235   31.3049   36.8814 H   0  0  0  0  0  0  0  0  0  0  0  0
  1  6  2  0
  2  3  2  0
  2  1  1  0
  3  4  1  0
  4  5  2  0
  5 25  1  0
  6  5  1  0
  7  2  1  0
  8  7  1  0
  9  7  1  0
 10  7  1  0
 11  3  1  0
 12 11  2  0
 13 11  1  0
 14 13  1  0
 15 14  2  0
 16 17  1  0
 16 15  1  0
 17 18  2  0
 18 14  1  0
 19 17  1  0
 19 20  2  0
 21 20  1  0
 22 21  2  0
 23 24  2  0
 23 22  1  0
 24 19  1  0
 25 26  1  0
 26 27  1  0
 26 29  1  0
 28 26  1  0
  1 30  1  0
 15 31  1  0
 20 32  1  0
 21 33  1  0
 22 34  1  0
 23 35  1  0
M  ISO  6  30  14  31  14  32  14  33  14  34  14  35  14
M  END
>  <minimizedAffinity>  (1) 
-6.00201511

>  <minimizedRMSD>  (1) 
0.458167642

$$$$
