
     RDKit          3D

 33 35  0  0  0  0  0  0  0  0999 V2000
   44.7710   35.2250   44.8680 C   0  0  0  0  0  0  0  0  0  0  0  0
   45.7340   34.7370   43.9940 C   0  0  0  0  0  0  0  0  0  0  0  0
   46.5180   33.6940   44.4410 C   0  0  0  0  0  0  0  0  0  0  0  0
   46.3210   33.1930   45.6940 N   0  0  0  0  0  0  0  0  0  0  0  0
   45.4030   33.6630   46.5180 C   0  0  0  0  0  0  0  0  0  0  0  0
   44.6520   34.6640   46.0910 N   0  0  0  0  0  0  0  0  0  0  0  0
   45.9210   35.2980   42.6500 C   0  0  0  0  0  0  0  0  0  0  0  0
   44.9800   36.3250   42.4990 F   0  0  0  0  0  0  0  0  0  0  0  0
   45.5500   34.3870   41.6770 F   0  0  0  0  0  0  0  0  0  0  0  0
   47.1790   35.7660   42.4200 F   0  0  0  0  0  0  0  0  0  0  0  0
   47.5530   33.0480   43.7120 C   0  0  0  0  0  0  0  0  0  0  0  0
   47.6370   31.8170   43.4590 O   0  0  0  0  0  0  0  0  0  0  0  0
   48.7340   33.3300   43.0490 O   0  0  0  0  0  0  0  0  0  0  0  0
   49.0970   32.8590   41.8250 C   0  0  0  0  0  0  0  0  0  0  0  0
   48.2320   32.8420   40.6030 C   0  0  0  0  0  0  0  0  0  0  0  0
   49.3420   32.0930   39.3950 S   0  0  0  0  0  0  0  0  0  0  0  0
   50.7500   31.9220   40.6440 C   0  0  0  0  0  0  0  0  0  0  0  0
   50.3050   32.3680   41.6610 N   0  0  0  0  0  0  0  0  0  0  0  0
   52.0160   31.3330   40.2070 C   0  0  0  0  0  0  0  0  0  0  0  0
   52.5530   31.4270   38.9640 C   0  0  0  0  0  0  0  0  0  0  0  0
   53.7600   30.7500   38.9040 C   0  0  0  0  0  0  0  0  0  0  0  0
   53.8900   30.2590   40.1910 C   0  0  0  0  0  0  0  0  0  0  0  0
   52.8580   30.6180   40.9150 O   0  0  0  0  0  0  0  0  0  0  0  0
   45.1530   33.2070   47.7880 O   0  0  0  0  0  0  0  0  0  0  0  0
   45.8590   32.1350   48.3680 C   0  0  0  0  0  0  0  0  0  0  0  0
   47.2110   32.4590   48.4810 F   0  0  0  0  0  0  0  0  0  0  0  0
   45.6460   30.9410   47.7500 F   0  0  0  0  0  0  0  0  0  0  0  0
   45.4220   32.0560   49.7040 F   0  0  0  0  0  0  0  0  0  0  0  0
   44.1151   36.0558   44.5687 H   0  0  0  0  0  0  0  0  0  0  0  0
   47.1970   33.1924   40.4761 H   0  0  0  0  0  0  0  0  0  0  0  0
   52.0938   31.9656   38.1219 H   0  0  0  0  0  0  0  0  0  0  0  0
   54.4425   30.6325   38.0494 H   0  0  0  0  0  0  0  0  0  0  0  0
   54.7354   29.6558   40.5535 H   0  0  0  0  0  0  0  0  0  0  0  0
  1  6  2  0
  2  3  2  0
  2  1  1  0
  3  4  1  0
  4  5  2  0
  5 24  1  0
  6  5  1  0
  7  2  1  0
  8  7  1  0
  9  7  1  0
 10  7  1  0
 11  3  1  0
 12 11  2  0
 13 11  1  0
 14 13  1  0
 15 14  2  0
 16 15  1  0
 16 17  1  0
 17 18  2  0
 18 14  1  0
 19 17  1  0
 19 23  1  0
 20 19  2  0
 21 20  1  0
 21 22  2  0
 22 23  1  0
 24 25  1  0
 25 26  1  0
 25 28  1  0
 27 25  1  0
  1 29  1  0
 15 30  1  0
 20 31  1  0
 21 32  1  0
 22 33  1  0
M  ISO  5  29  14  30  14  31  14  32  14  33  14
M  END
>  <minimizedAffinity>  (1) 
-5.8749404

>  <minimizedRMSD>  (1) 
0.479873747

$$$$
