
     RDKit          3D

 32 34  0  0  0  0  0  0  0  0999 V2000
   44.8010   35.2410   44.8820 C   0  0  0  0  0  0  0  0  0  0  0  0
   45.7440   34.7510   43.9890 C   0  0  0  0  0  0  0  0  0  0  0  0
   46.5030   33.6830   44.4200 C   0  0  0  0  0  0  0  0  0  0  0  0
   46.2960   33.1740   45.6670 N   0  0  0  0  0  0  0  0  0  0  0  0
   45.3940   33.6550   46.5030 C   0  0  0  0  0  0  0  0  0  0  0  0
   44.6670   34.6730   46.0970 N   0  0  0  0  0  0  0  0  0  0  0  0
   45.9360   35.3260   42.6550 C   0  0  0  0  0  0  0  0  0  0  0  0
   45.0580   36.4120   42.5470 F   0  0  0  0  0  0  0  0  0  0  0  0
   45.4930   34.4580   41.6730 F   0  0  0  0  0  0  0  0  0  0  0  0
   47.2120   35.7220   42.4080 F   0  0  0  0  0  0  0  0  0  0  0  0
   47.5210   33.0220   43.6780 C   0  0  0  0  0  0  0  0  0  0  0  0
   47.5800   31.7880   43.4280 O   0  0  0  0  0  0  0  0  0  0  0  0
   48.6950   33.2900   42.9980 O   0  0  0  0  0  0  0  0  0  0  0  0
   48.9990   32.8740   41.7390 C   0  0  0  0  0  0  0  0  0  0  0  0
   48.0710   32.8960   40.5610 C   0  0  0  0  0  0  0  0  0  0  0  0
   49.1320   32.2100   39.2750 S   0  0  0  0  0  0  0  0  0  0  0  0
   50.5910   32.0030   40.4260 C   0  0  0  0  0  0  0  0  0  0  0  0
   50.2000   32.4030   41.4920 N   0  0  0  0  0  0  0  0  0  0  0  0
   51.8470   31.4410   39.8770 C   0  0  0  0  0  0  0  0  0  0  0  0
   52.2100   31.4470   38.5110 C   0  0  0  0  0  0  0  0  0  0  0  0
   53.8850   30.5890   38.5550 S   0  0  0  0  0  0  0  0  0  0  0  0
   53.7140   30.4120   40.4310 C   0  0  0  0  0  0  0  0  0  0  0  0
   52.7270   30.8820   40.6610 N   0  0  0  0  0  0  0  0  0  0  0  0
   45.1410   33.1840   47.7670 O   0  0  0  0  0  0  0  0  0  0  0  0
   45.8730   32.1360   48.3570 C   0  0  0  0  0  0  0  0  0  0  0  0
   47.2190   32.4670   48.4640 F   0  0  0  0  0  0  0  0  0  0  0  0
   45.6740   30.9270   47.7410 F   0  0  0  0  0  0  0  0  0  0  0  0
   45.4420   32.0600   49.6950 F   0  0  0  0  0  0  0  0  0  0  0  0
   44.1639   36.0917   44.5985 H   0  0  0  0  0  0  0  0  0  0  0  0
   47.0273   33.2377   40.4987 H   0  0  0  0  0  0  0  0  0  0  0  0
   51.6582   31.8481   37.6481 H   0  0  0  0  0  0  0  0  0  0  0  0
   54.4238   29.9518   41.1341 H   0  0  0  0  0  0  0  0  0  0  0  0
  1  6  2  0
  2  3  2  0
  2  1  1  0
  3  4  1  0
  4  5  2  0
  5 24  1  0
  6  5  1  0
  7  2  1  0
  8  7  1  0
  9  7  1  0
 10  7  1  0
 11  3  1  0
 12 11  2  0
 13 11  1  0
 14 13  1  0
 15 14  2  0
 16 17  1  0
 16 15  1  0
 17 18  2  0
 18 14  1  0
 19 17  1  0
 19 23  1  0
 20 21  1  0
 20 19  2  0
 21 22  1  0
 22 23  2  0
 24 25  1  0
 25 26  1  0
 25 28  1  0
 27 25  1  0
  1 29  1  0
 15 30  1  0
 20 31  1  0
 22 32  1  0
M  ISO  4  29  14  30  14  31  14  32  14
M  END
>  <minimizedAffinity>  (1) 
-5.8467164

>  <minimizedRMSD>  (1) 
0.386092782

$$$$
