
     RDKit          3D

 39 41  0  0  0  0  0  0  0  0999 V2000
   44.7380   35.3980   44.9640 C   0  0  0  0  0  0  0  0  0  0  0  0
   45.5870   34.8770   43.9970 C   0  0  0  0  0  0  0  0  0  0  0  0
   46.2840   33.7340   44.3270 C   0  0  0  0  0  0  0  0  0  0  0  0
   46.1110   33.1780   45.5590 N   0  0  0  0  0  0  0  0  0  0  0  0
   45.2980   33.6850   46.4700 C   0  0  0  0  0  0  0  0  0  0  0  0
   44.6280   34.7830   46.1560 N   0  0  0  0  0  0  0  0  0  0  0  0
   45.7460   35.5050   42.6800 C   0  0  0  0  0  0  0  0  0  0  0  0
   44.9030   36.6240   42.6550 F   0  0  0  0  0  0  0  0  0  0  0  0
   45.2380   34.6990   41.6800 F   0  0  0  0  0  0  0  0  0  0  0  0
   47.0270   35.8710   42.3980 F   0  0  0  0  0  0  0  0  0  0  0  0
   47.1990   33.0390   43.4910 C   0  0  0  0  0  0  0  0  0  0  0  0
   47.0880   31.8470   43.0940 O   0  0  0  0  0  0  0  0  0  0  0  0
   48.3980   33.2230   42.8240 O   0  0  0  0  0  0  0  0  0  0  0  0
   48.6380   32.9150   41.5220 C   0  0  0  0  0  0  0  0  0  0  0  0
   47.9790   33.5520   40.3360 C   0  0  0  0  0  0  0  0  0  0  0  0
   48.7550   32.6690   38.9750 S   0  0  0  0  0  0  0  0  0  0  0  0
   49.8160   31.6140   40.1280 C   0  0  0  0  0  0  0  0  0  0  0  0
   49.5150   31.9820   41.2290 N   0  0  0  0  0  0  0  0  0  0  0  0
   50.7980   30.5620   39.6130 C   0  0  0  0  0  0  0  0  0  0  0  0
   51.0040   30.8700   38.1500 C   0  0  0  0  0  0  0  0  0  0  0  0
   52.2340   31.7220   38.0920 C   0  0  0  0  0  0  0  0  0  0  0  0
   53.0740   31.3160   39.2660 C   0  0  0  0  0  0  0  0  0  0  0  0
   52.1340   30.7370   40.2950 C   0  0  0  0  0  0  0  0  0  0  0  0
   45.0850   33.1690   47.7240 O   0  0  0  0  0  0  0  0  0  0  0  0
   45.8830   32.1450   48.2840 C   0  0  0  0  0  0  0  0  0  0  0  0
   47.2180   32.5460   48.3420 F   0  0  0  0  0  0  0  0  0  0  0  0
   45.7200   30.9390   47.6760 F   0  0  0  0  0  0  0  0  0  0  0  0
   45.5020   32.0410   49.6350 F   0  0  0  0  0  0  0  0  0  0  0  0
   44.1579   36.3093   44.7569 H   0  0  0  0  0  0  0  0  0  0  0  0
   47.2212   34.3488   40.3060 H   0  0  0  0  0  0  0  0  0  0  0  0
   50.4166   29.5465   39.7952 H   0  0  0  0  0  0  0  0  0  0  0  0
   51.1515   29.9418   37.5784 H   0  0  0  0  0  0  0  0  0  0  0  0
   50.1327   31.3795   37.7127 H   0  0  0  0  0  0  0  0  0  0  0  0
   52.7783   31.5440   37.1528 H   0  0  0  0  0  0  0  0  0  0  0  0
   51.9843   32.7927   38.1264 H   0  0  0  0  0  0  0  0  0  0  0  0
   53.8125   30.5604   38.9600 H   0  0  0  0  0  0  0  0  0  0  0  0
   53.6245   32.1765   39.6740 H   0  0  0  0  0  0  0  0  0  0  0  0
   52.0367   31.4239   41.1486 H   0  0  0  0  0  0  0  0  0  0  0  0
   52.5106   29.7776   40.6793 H   0  0  0  0  0  0  0  0  0  0  0  0
  1  6  2  0
  2  3  2  0
  2  1  1  0
  3  4  1  0
  4  5  2  0
  5 24  1  0
  6  5  1  0
  7  2  1  0
  8  7  1  0
  9  7  1  0
 10  7  1  0
 11  3  1  0
 12 11  2  0
 13 11  1  0
 14 13  1  0
 15 14  2  0
 16 17  1  0
 16 15  1  0
 17 18  2  0
 18 14  1  0
 19 17  1  0
 19 23  1  0
 20 19  1  0
 21 20  1  0
 21 22  1  0
 22 23  1  0
 24 25  1  0
 25 26  1  0
 25 28  1  0
 27 25  1  0
  1 29  1  0
 15 30  1  0
 19 31  1  0
 20 32  1  0
 20 33  1  0
 21 34  1  0
 21 35  1  0
 22 36  1  0
 22 37  1  0
 23 38  1  0
 23 39  1  0
M  ISO  8  29  14  30  14  31  13  32  13  33  13  34  13  35  13  36  13
M  ISO  3  37  13  38  13  39  13
M  END
>  <minimizedAffinity>  (1) 
-5.73978519

>  <minimizedRMSD>  (1) 
0.414277971

$$$$
