
     RDKit          3D

 43 46  0  0  0  0  0  0  0  0999 V2000
   47.3420   34.2230   40.1610 C   0  0  0  0  0  0  0  0  0  0  0  0
   46.6700   34.4860   41.3570 C   0  0  0  0  0  0  0  0  0  0  0  0
   47.0670   33.9930   42.5990 C   0  0  0  0  0  0  0  0  0  0  0  0
   48.1590   33.2550   42.4550 N   0  0  0  0  0  0  0  0  0  0  0  0
   48.8390   32.9640   41.3820 C   0  0  0  0  0  0  0  0  0  0  0  0
   48.4260   33.4570   40.2050 N   0  0  0  0  0  0  0  0  0  0  0  0
   46.1910   34.4230   43.6790 C   0  0  0  0  0  0  0  0  0  0  0  0
   45.3970   35.4960   43.6100 N   0  0  0  0  0  0  0  0  0  0  0  0
   44.5950   35.9050   44.5960 C   0  0  0  0  0  0  0  0  0  0  0  0
   44.5480   35.2170   45.7660 N   0  0  0  0  0  0  0  0  0  0  0  0
   45.3050   34.1270   45.9340 C   0  0  0  0  0  0  0  0  0  0  0  0
   45.2390   33.4470   47.1100 C   0  0  0  0  0  0  0  0  0  0  0  0
   46.0170   32.3000   47.3010 C   0  0  0  0  0  0  0  0  0  0  0  0
   46.8320   31.8980   46.2740 C   0  0  0  0  0  0  0  0  0  0  0  0
   46.8490   32.6320   45.1170 C   0  0  0  0  0  0  0  0  0  0  0  0
   46.1210   33.7490   44.8730 C   0  0  0  0  0  0  0  0  0  0  0  0
   50.0270   32.0950   41.5820 C   0  0  0  0  0  0  0  0  0  0  0  0
   50.6000   31.7030   40.2400 C   0  0  0  0  0  0  0  0  0  0  0  0
   51.1200   32.9480   42.2610 C   0  0  0  0  0  0  0  0  0  0  0  0
   49.7450   30.8790   42.4190 C   0  0  0  0  0  0  0  0  0  0  0  0
   51.0130   30.1810   42.6580 C   0  0  0  0  0  0  0  0  0  0  0  0
   52.0470   30.2310   43.6510 C   0  0  0  0  0  0  0  0  0  0  0  0
   53.0970   29.3980   43.5300 C   0  0  0  0  0  0  0  0  0  0  0  0
   53.2140   28.4850   42.4730 C   0  0  0  0  0  0  0  0  0  0  0  0
   51.6370   28.8270   41.4930 S   0  0  0  0  0  0  0  0  0  0  0  0
   46.9829   34.6392   39.2082 H   0  0  0  0  0  0  0  0  0  0  0  0
   45.7727   35.1210   41.3163 H   0  0  0  0  0  0  0  0  0  0  0  0
   43.9712   36.8008   44.4604 H   0  0  0  0  0  0  0  0  0  0  0  0
   44.5733   33.7992   47.9117 H   0  0  0  0  0  0  0  0  0  0  0  0
   45.9762   31.7380   48.2457 H   0  0  0  0  0  0  0  0  0  0  0  0
   47.4613   31.0017   46.3772 H   0  0  0  0  0  0  0  0  0  0  0  0
   47.5139   32.2830   44.3132 H   0  0  0  0  0  0  0  0  0  0  0  0
   51.4993   31.0878   40.3909 H   0  0  0  0  0  0  0  0  0  0  0  0
   49.8518   31.1266   39.6761 H   0  0  0  0  0  0  0  0  0  0  0  0
   50.8661   32.6092   39.6761 H   0  0  0  0  0  0  0  0  0  0  0  0
   51.0200   32.8700   43.3537 H   0  0  0  0  0  0  0  0  0  0  0  0
   52.1120   32.5829   41.9566 H   0  0  0  0  0  0  0  0  0  0  0  0
   51.0068   33.9990   41.9566 H   0  0  0  0  0  0  0  0  0  0  0  0
   49.3008   31.1826   43.3784 H   0  0  0  0  0  0  0  0  0  0  0  0
   49.0391   30.2154   41.8981 H   0  0  0  0  0  0  0  0  0  0  0  0
   51.9830   30.9353   44.4935 H   0  0  0  0  0  0  0  0  0  0  0  0
   53.8927   29.4350   44.2886 H   0  0  0  0  0  0  0  0  0  0  0  0
   54.0149   27.7593   42.2681 H   0  0  0  0  0  0  0  0  0  0  0  0
  1  6  2  0
  1  2  1  0
  2  3  2  0
  3  7  1  0
  4  3  1  0
  5 17  1  0
  5  4  2  0
  6  5  1  0
  7 16  1  0
  8  7  2  0
  8  9  1  0
  9 10  2  0
 10 11  1  0
 11 12  2  0
 12 13  1  0
 14 13  2  0
 15 14  1  0
 16 15  2  0
 16 11  1  0
 17 19  1  0
 17 20  1  0
 18 17  1  0
 20 21  1  0
 21 22  2  0
 23 22  1  0
 24 23  2  0
 25 24  1  0
 25 21  1  0
  1 26  1  0
  2 27  1  0
  9 28  1  0
 12 29  1  0
 13 30  1  0
 14 31  1  0
 15 32  1  0
 18 33  1  0
 18 34  1  0
 18 35  1  0
 19 36  1  0
 19 37  1  0
 19 38  1  0
 20 39  1  0
 20 40  1  0
 22 41  1  0
 23 42  1  0
 24 43  1  0
M  ISO  8  26  14  27  14  28  14  29  14  30  14  31  14  32  14  33   8
M  ISO  8  34   8  35   8  36   8  37   8  38   8  39   8  40   8  41  14
M  ISO  2  42  14  43  14
M  END
>  <minimizedAffinity>  (1) 
-5.51402712

>  <minimizedRMSD>  (1) 
0.101949088

$$$$
