
     RDKit          3D

 38 39  0  0  0  0  0  0  0  0999 V2000
   44.7080   35.4130   45.0170 C   0  0  0  0  0  0  0  0  0  0  0  0
   45.5440   34.8990   44.0350 C   0  0  0  0  0  0  0  0  0  0  0  0
   46.2310   33.7440   44.3600 C   0  0  0  0  0  0  0  0  0  0  0  0
   46.0590   33.1830   45.5890 N   0  0  0  0  0  0  0  0  0  0  0  0
   45.2590   33.6870   46.5090 C   0  0  0  0  0  0  0  0  0  0  0  0
   44.5990   34.7920   46.2070 N   0  0  0  0  0  0  0  0  0  0  0  0
   45.7030   35.5310   42.7260 C   0  0  0  0  0  0  0  0  0  0  0  0
   44.8980   36.6790   42.7300 F   0  0  0  0  0  0  0  0  0  0  0  0
   45.1440   34.7520   41.7290 F   0  0  0  0  0  0  0  0  0  0  0  0
   46.9910   35.8540   42.4350 F   0  0  0  0  0  0  0  0  0  0  0  0
   47.1400   33.0430   43.5090 C   0  0  0  0  0  0  0  0  0  0  0  0
   47.0110   31.8770   43.1050 O   0  0  0  0  0  0  0  0  0  0  0  0
   48.3340   33.2160   42.8460 O   0  0  0  0  0  0  0  0  0  0  0  0
   48.5740   32.9510   41.5340 C   0  0  0  0  0  0  0  0  0  0  0  0
   47.7060   33.4040   40.3960 C   0  0  0  0  0  0  0  0  0  0  0  0
   48.6140   32.7020   38.9760 S   0  0  0  0  0  0  0  0  0  0  0  0
   49.9480   31.9500   40.0750 C   0  0  0  0  0  0  0  0  0  0  0  0
   49.6360   32.2450   41.1920 N   0  0  0  0  0  0  0  0  0  0  0  0
   51.1490   31.1400   39.5510 C   0  0  0  0  0  0  0  0  0  0  0  0
   52.3580   31.4650   40.3940 C   0  0  0  0  0  0  0  0  0  0  0  0
   50.7070   29.7280   39.6680 C   0  0  0  0  0  0  0  0  0  0  0  0
   51.3570   31.5270   38.1030 C   0  0  0  0  0  0  0  0  0  0  0  0
   45.0480   33.1640   47.7640 O   0  0  0  0  0  0  0  0  0  0  0  0
   45.8740   32.1740   48.3280 C   0  0  0  0  0  0  0  0  0  0  0  0
   47.2040   32.5790   48.3580 F   0  0  0  0  0  0  0  0  0  0  0  0
   45.7170   30.9460   47.7430 F   0  0  0  0  0  0  0  0  0  0  0  0
   45.5030   32.0820   49.6810 F   0  0  0  0  0  0  0  0  0  0  0  0
   44.1329   36.3303   44.8225 H   0  0  0  0  0  0  0  0  0  0  0  0
   46.7788   33.9956   40.4130 H   0  0  0  0  0  0  0  0  0  0  0  0
   52.0923   31.3936   41.4590 H   0  0  0  0  0  0  0  0  0  0  0  0
   53.1646   30.7518   40.1687 H   0  0  0  0  0  0  0  0  0  0  0  0
   52.6983   32.4865   40.1687 H   0  0  0  0  0  0  0  0  0  0  0  0
   50.6222   29.4572   40.7308 H   0  0  0  0  0  0  0  0  0  0  0  0
   49.7285   29.6085   39.1800 H   0  0  0  0  0  0  0  0  0  0  0  0
   51.4427   29.0718   39.1800 H   0  0  0  0  0  0  0  0  0  0  0  0
   51.8772   32.4949   38.0533 H   0  0  0  0  0  0  0  0  0  0  0  0
   51.9636   30.7585   37.6016 H   0  0  0  0  0  0  0  0  0  0  0  0
   50.3814   31.6089   37.6016 H   0  0  0  0  0  0  0  0  0  0  0  0
  1  6  2  0
  2  3  2  0
  2  1  1  0
  3  4  1  0
  4  5  2  0
  5 23  1  0
  6  5  1  0
  7  8  1  0
  7  2  1  0
  9  7  1  0
 10  7  1  0
 11  3  1  0
 12 11  2  0
 13 11  1  0
 14 13  1  0
 15 14  2  0
 16 17  1  0
 16 15  1  0
 17 18  2  0
 18 14  1  0
 19 21  1  0
 19 17  1  0
 19 20  1  0
 22 19  1  0
 23 24  1  0
 24 25  1  0
 24 27  1  0
 26 24  1  0
  1 28  1  0
 15 29  1  0
 20 30  1  0
 20 31  1  0
 20 32  1  0
 21 33  1  0
 21 34  1  0
 21 35  1  0
 22 36  1  0
 22 37  1  0
 22 38  1  0
M  ISO  8  28  14  29  14  30   8  31   8  32   8  33   8  34   8  35   8
M  ISO  3  36   8  37   8  38   8
M  END
>  <minimizedAffinity>  (1) 
-5.6311202

>  <minimizedRMSD>  (1) 
0.468748897

$$$$
