
     RDKit          3D

 35 36  0  0  0  0  0  0  0  0999 V2000
   44.7080   35.4010   45.0010 C   0  0  0  0  0  0  0  0  0  0  0  0
   45.5560   34.8740   44.0350 C   0  0  0  0  0  0  0  0  0  0  0  0
   46.2530   33.7290   44.3740 C   0  0  0  0  0  0  0  0  0  0  0  0
   46.0820   33.1810   45.6090 N   0  0  0  0  0  0  0  0  0  0  0  0
   45.2750   33.6860   46.5200 C   0  0  0  0  0  0  0  0  0  0  0  0
   44.6060   34.7820   46.2000 N   0  0  0  0  0  0  0  0  0  0  0  0
   45.7160   35.4900   42.7160 C   0  0  0  0  0  0  0  0  0  0  0  0
   44.9110   36.6370   42.7030 F   0  0  0  0  0  0  0  0  0  0  0  0
   45.1630   34.6990   41.7260 F   0  0  0  0  0  0  0  0  0  0  0  0
   47.0040   35.8130   42.4140 F   0  0  0  0  0  0  0  0  0  0  0  0
   47.1670   33.0270   43.5430 C   0  0  0  0  0  0  0  0  0  0  0  0
   47.0560   31.8370   43.1430 O   0  0  0  0  0  0  0  0  0  0  0  0
   48.3700   33.2080   42.8820 O   0  0  0  0  0  0  0  0  0  0  0  0
   48.6150   32.9160   41.5780 C   0  0  0  0  0  0  0  0  0  0  0  0
   47.7290   33.2610   40.4220 C   0  0  0  0  0  0  0  0  0  0  0  0
   48.6570   32.5770   39.0360 S   0  0  0  0  0  0  0  0  0  0  0  0
   50.0500   31.9490   40.1480 C   0  0  0  0  0  0  0  0  0  0  0  0
   49.7150   32.2710   41.2540 N   0  0  0  0  0  0  0  0  0  0  0  0
   51.2320   31.2280   39.5630 C   0  0  0  0  0  0  0  0  0  0  0  0
   52.4770   31.4350   40.3570 C   0  0  0  0  0  0  0  0  0  0  0  0
   51.3890   31.5460   38.0930 C   0  0  0  0  0  0  0  0  0  0  0  0
   45.0590   33.1840   47.7770 O   0  0  0  0  0  0  0  0  0  0  0  0
   45.8350   32.1410   48.3270 C   0  0  0  0  0  0  0  0  0  0  0  0
   47.1760   32.5220   48.3930 F   0  0  0  0  0  0  0  0  0  0  0  0
   45.6540   30.9430   47.7070 F   0  0  0  0  0  0  0  0  0  0  0  0
   45.4500   32.0360   49.6770 F   0  0  0  0  0  0  0  0  0  0  0  0
   44.1261   36.3111   44.7936 H   0  0  0  0  0  0  0  0  0  0  0  0
   46.7656   33.7919   40.4189 H   0  0  0  0  0  0  0  0  0  0  0  0
   51.0334   30.1481   39.6287 H   0  0  0  0  0  0  0  0  0  0  0  0
   52.2384   31.3953   41.4301 H   0  0  0  0  0  0  0  0  0  0  0  0
   53.2029   30.6452   40.1133 H   0  0  0  0  0  0  0  0  0  0  0  0
   52.9082   32.4172   40.1133 H   0  0  0  0  0  0  0  0  0  0  0  0
   51.8734   32.5271   37.9798 H   0  0  0  0  0  0  0  0  0  0  0  0
   52.0093   30.7735   37.6149 H   0  0  0  0  0  0  0  0  0  0  0  0
   50.3986   31.5687   37.6149 H   0  0  0  0  0  0  0  0  0  0  0  0
  1  6  2  0
  2  3  2  0
  2  1  1  0
  3  4  1  0
  4  5  2  0
  5 22  1  0
  6  5  1  0
  7  2  1  0
  8  7  1  0
  9  7  1  0
 10  7  1  0
 11  3  1  0
 12 11  2  0
 13 11  1  0
 14 13  1  0
 15 14  2  0
 16 17  1  0
 16 15  1  0
 17 18  2  0
 18 14  1  0
 19 17  1  0
 19 20  1  0
 21 19  1  0
 22 23  1  0
 23 24  1  0
 23 26  1  0
 25 23  1  0
  1 27  1  0
 15 28  1  0
 19 29  1  0
 20 30  1  0
 20 31  1  0
 20 32  1  0
 21 33  1  0
 21 34  1  0
 21 35  1  0
M  ISO  8  27  14  28  14  29   8  30   8  31   8  32   8  33   8  34   8
M  ISO  1  35   8
M  END
>  <minimizedAffinity>  (1) 
-5.58372879

>  <minimizedRMSD>  (1) 
0.345048398

$$$$
