
     RDKit          3D

 29 30  0  0  0  0  0  0  0  0999 V2000
   44.7380   35.3360   44.9440 C   0  0  0  0  0  0  0  0  0  0  0  0
   45.6360   34.8230   44.0170 C   0  0  0  0  0  0  0  0  0  0  0  0
   46.3690   33.7250   44.3980 C   0  0  0  0  0  0  0  0  0  0  0  0
   46.1870   33.1960   45.6400 N   0  0  0  0  0  0  0  0  0  0  0  0
   45.3310   33.6870   46.5180 C   0  0  0  0  0  0  0  0  0  0  0  0
   44.6270   34.7430   46.1550 N   0  0  0  0  0  0  0  0  0  0  0  0
   45.8050   35.4220   42.6840 C   0  0  0  0  0  0  0  0  0  0  0  0
   44.9570   36.5350   42.6230 F   0  0  0  0  0  0  0  0  0  0  0  0
   45.3130   34.5830   41.7010 F   0  0  0  0  0  0  0  0  0  0  0  0
   47.0860   35.7930   42.4190 F   0  0  0  0  0  0  0  0  0  0  0  0
   47.3420   33.0400   43.6060 C   0  0  0  0  0  0  0  0  0  0  0  0
   47.3040   31.8490   43.2640 O   0  0  0  0  0  0  0  0  0  0  0  0
   48.5410   33.2670   42.9590 O   0  0  0  0  0  0  0  0  0  0  0  0
   48.8410   32.9110   41.6810 C   0  0  0  0  0  0  0  0  0  0  0  0
   47.9820   33.1960   40.4870 C   0  0  0  0  0  0  0  0  0  0  0  0
   48.9700   32.4560   39.1450 S   0  0  0  0  0  0  0  0  0  0  0  0
   50.3370   31.8970   40.3550 C   0  0  0  0  0  0  0  0  0  0  0  0
   49.9670   32.2620   41.4330 N   0  0  0  0  0  0  0  0  0  0  0  0
   51.5600   31.1590   39.8670 C   0  0  0  0  0  0  0  0  0  0  0  0
   45.1050   33.1990   47.7820 O   0  0  0  0  0  0  0  0  0  0  0  0
   45.8520   32.1470   48.3420 C   0  0  0  0  0  0  0  0  0  0  0  0
   47.1940   32.4900   48.4370 F   0  0  0  0  0  0  0  0  0  0  0  0
   45.6530   30.9510   47.7080 F   0  0  0  0  0  0  0  0  0  0  0  0
   45.4400   32.0410   49.6860 F   0  0  0  0  0  0  0  0  0  0  0  0
   44.1240   36.2145   44.6964 H   0  0  0  0  0  0  0  0  0  0  0  0
   47.0130   33.7139   40.4341 H   0  0  0  0  0  0  0  0  0  0  0  0
   52.1441   30.8065   40.7299 H   0  0  0  0  0  0  0  0  0  0  0  0
   51.2495   30.2974   39.2578 H   0  0  0  0  0  0  0  0  0  0  0  0
   52.1776   31.8353   39.2578 H   0  0  0  0  0  0  0  0  0  0  0  0
  1  6  2  0
  2  3  2  0
  2  1  1  0
  3  4  1  0
  4  5  2  0
  5 20  1  0
  6  5  1  0
  7  2  1  0
  8  7  1  0
  9  7  1  0
 10  7  1  0
 11  3  1  0
 12 11  2  0
 13 11  1  0
 14 13  1  0
 15 14  2  0
 16 17  1  0
 16 15  1  0
 17 18  2  0
 18 14  1  0
 19 17  1  0
 20 21  1  0
 21 22  1  0
 21 24  1  0
 23 21  1  0
  1 25  1  0
 15 26  1  0
 19 27  1  0
 19 28  1  0
 19 29  1  0
M  ISO  5  25  14  26  14  27   8  28   8  29   8
M  END
>  <minimizedAffinity>  (1) 
-5.46322203

>  <minimizedRMSD>  (1) 
0.0790012479

$$$$
