
     RDKit          3D

 36 38  0  0  0  0  0  0  0  0999 V2000
   47.8400   32.9900   43.5210 C   0  0  0  0  0  0  0  0  0  0  0  0
   48.1390   31.7720   43.5160 O   0  0  0  0  0  0  0  0  0  0  0  0
   44.9640   35.0800   44.5890 C   0  0  0  0  0  0  0  0  0  0  0  0
   45.9570   34.6180   43.7380 C   0  0  0  0  0  0  0  0  0  0  0  0
   46.7720   33.6030   44.2230 C   0  0  0  0  0  0  0  0  0  0  0  0
   46.5660   33.1190   45.4770 N   0  0  0  0  0  0  0  0  0  0  0  0
   45.6160   33.5700   46.2750 C   0  0  0  0  0  0  0  0  0  0  0  0
   44.8360   34.5350   45.8240 N   0  0  0  0  0  0  0  0  0  0  0  0
   46.1500   35.1660   42.3880 C   0  0  0  0  0  0  0  0  0  0  0  0
   45.1010   36.0620   42.1580 F   0  0  0  0  0  0  0  0  0  0  0  0
   45.9580   34.2080   41.4240 F   0  0  0  0  0  0  0  0  0  0  0  0
   47.3450   35.7870   42.2200 F   0  0  0  0  0  0  0  0  0  0  0  0
   45.3620   33.1200   47.5460 O   0  0  0  0  0  0  0  0  0  0  0  0
   46.2000   32.2080   48.2200 C   0  0  0  0  0  0  0  0  0  0  0  0
   47.4970   32.6980   48.3000 F   0  0  0  0  0  0  0  0  0  0  0  0
   46.1360   30.9300   47.7040 F   0  0  0  0  0  0  0  0  0  0  0  0
   45.7640   32.1930   49.5570 F   0  0  0  0  0  0  0  0  0  0  0  0
   48.8780   33.2960   42.6740 O   0  0  0  0  0  0  0  0  0  0  0  0
   49.2830   32.6300   41.5820 C   0  0  0  0  0  0  0  0  0  0  0  0
   48.4280   32.3410   40.4110 C   0  0  0  0  0  0  0  0  0  0  0  0
   49.5550   31.4430   39.3340 S   0  0  0  0  0  0  0  0  0  0  0  0
   50.9780   31.5760   40.5610 C   0  0  0  0  0  0  0  0  0  0  0  0
   50.4950   32.1740   41.4620 N   0  0  0  0  0  0  0  0  0  0  0  0
   52.3210   30.9730   40.2200 C   0  0  0  0  0  0  0  0  0  0  0  0
   53.1150   30.2320   41.0170 C   0  0  0  0  0  0  0  0  0  0  0  0
   54.1530   29.9860   40.1880 N   0  0  0  0  0  0  0  0  0  0  0  0
   53.9500   30.5600   38.9880 C   0  0  0  0  0  0  0  0  0  0  0  0
   52.7570   31.2060   39.0000 N   0  0  0  0  0  0  0  0  0  0  0  0
   52.2260   31.9340   37.8660 C   0  0  0  0  0  0  0  0  0  0  0  0
   44.2853   35.8826   44.2645 H   0  0  0  0  0  0  0  0  0  0  0  0
   47.3741   32.6067   40.2418 H   0  0  0  0  0  0  0  0  0  0  0  0
   52.9604   29.9140   42.0586 H   0  0  0  0  0  0  0  0  0  0  0  0
   54.6411   30.5130   38.1335 H   0  0  0  0  0  0  0  0  0  0  0  0
   51.6131   32.7743   38.2241 H   0  0  0  0  0  0  0  0  0  0  0  0
   53.0564   32.3196   37.2563 H   0  0  0  0  0  0  0  0  0  0  0  0
   51.6052   31.2610   37.2563 H   0  0  0  0  0  0  0  0  0  0  0  0
  1  5  1  0
  2  1  2  0
  3  8  2  0
  4  5  2  0
  4  3  1  0
  5  6  1  0
  6  7  2  0
  7 13  1  0
  8  7  1  0
  9  4  1  0
 10  9  1  0
 11  9  1  0
 12  9  1  0
 13 14  1  0
 14 15  1  0
 14 17  1  0
 16 14  1  0
 18  1  1  0
 19 18  1  0
 20 19  2  0
 21 20  1  0
 21 22  1  0
 22 23  2  0
 23 19  1  0
 24 22  1  0
 24 25  2  0
 26 25  1  0
 27 28  1  0
 27 26  2  0
 28 24  1  0
 29 28  1  0
  3 30  1  0
 20 31  1  0
 25 32  1  0
 27 33  1  0
 29 34  1  0
 29 35  1  0
 29 36  1  0
M  ISO  7  30  14  31  14  32  14  33  14  34   8  35   8  36   8
M  END
>  <minimizedAffinity>  (1) 
-5.7992382

>  <minimizedRMSD>  (1) 
0.519044101

$$$$
