
     RDKit          3D

 36 38  0  0  0  0  0  0  0  0999 V2000
   47.4210   33.4080   43.1810 C   0  0  0  0  0  0  0  0  0  0  0  0
   48.6680   33.4830   43.2620 O   0  0  0  0  0  0  0  0  0  0  0  0
   44.7830   35.2800   44.9980 C   0  0  0  0  0  0  0  0  0  0  0  0
   45.6410   34.9820   43.9480 C   0  0  0  0  0  0  0  0  0  0  0  0
   46.4750   33.8830   44.1230 C   0  0  0  0  0  0  0  0  0  0  0  0
   46.4200   33.1710   45.2770 N   0  0  0  0  0  0  0  0  0  0  0  0
   45.5990   33.4660   46.2670 C   0  0  0  0  0  0  0  0  0  0  0  0
   44.7970   34.5120   46.1120 N   0  0  0  0  0  0  0  0  0  0  0  0
   45.6760   35.7740   42.7140 C   0  0  0  0  0  0  0  0  0  0  0  0
   45.0430   36.9910   42.9910 F   0  0  0  0  0  0  0  0  0  0  0  0
   44.8810   35.2250   41.7410 F   0  0  0  0  0  0  0  0  0  0  0  0
   46.9320   35.9800   42.2520 F   0  0  0  0  0  0  0  0  0  0  0  0
   45.4950   32.7870   47.4530 O   0  0  0  0  0  0  0  0  0  0  0  0
   46.5660   32.0750   48.0260 C   0  0  0  0  0  0  0  0  0  0  0  0
   47.7080   32.8630   48.0780 F   0  0  0  0  0  0  0  0  0  0  0  0
   46.7800   30.8540   47.4270 F   0  0  0  0  0  0  0  0  0  0  0  0
   46.2360   31.8900   49.3800 F   0  0  0  0  0  0  0  0  0  0  0  0
   47.5010   32.7670   41.9700 O   0  0  0  0  0  0  0  0  0  0  0  0
   48.3640   31.8160   41.5830 C   0  0  0  0  0  0  0  0  0  0  0  0
   48.2660   30.3920   41.9640 C   0  0  0  0  0  0  0  0  0  0  0  0
   49.6990   29.6800   41.1300 S   0  0  0  0  0  0  0  0  0  0  0  0
   50.2130   31.3500   40.4080 C   0  0  0  0  0  0  0  0  0  0  0  0
   49.3830   32.0820   40.8200 N   0  0  0  0  0  0  0  0  0  0  0  0
   51.4520   31.4090   39.5430 C   0  0  0  0  0  0  0  0  0  0  0  0
   52.7290   31.3110   39.9580 C   0  0  0  0  0  0  0  0  0  0  0  0
   53.3930   31.4120   38.7920 N   0  0  0  0  0  0  0  0  0  0  0  0
   52.5100   31.5630   37.7600 C   0  0  0  0  0  0  0  0  0  0  0  0
   51.2550   31.5600   38.2600 N   0  0  0  0  0  0  0  0  0  0  0  0
   50.0700   31.7000   37.4390 C   0  0  0  0  0  0  0  0  0  0  0  0
   49.5000   32.9650   37.5500 F   0  0  0  0  0  0  0  0  0  0  0  0
   49.1560   30.7170   37.7020 F   0  0  0  0  0  0  0  0  0  0  0  0
   50.3820   31.5840   36.0810 F   0  0  0  0  0  0  0  0  0  0  0  0
   44.0956   36.1357   44.9248 H   0  0  0  0  0  0  0  0  0  0  0  0
   47.5137   29.8943   42.5935 H   0  0  0  0  0  0  0  0  0  0  0  0
   53.1236   31.1828   40.9767 H   0  0  0  0  0  0  0  0  0  0  0  0
   52.7769   31.6694   36.6982 H   0  0  0  0  0  0  0  0  0  0  0  0
  1  2  2  0
  1  5  1  0
  3  8  2  0
  4  5  2  0
  4  3  1  0
  5  6  1  0
  6  7  2  0
  7 13  1  0
  8  7  1  0
  9 10  1  0
  9  4  1  0
 11  9  1  0
 12  9  1  0
 13 14  1  0
 14 15  1  0
 14 17  1  0
 16 14  1  0
 18  1  1  0
 19 20  2  0
 19 18  1  0
 21 20  1  0
 22 23  2  0
 22 21  1  0
 23 19  1  0
 24 25  2  0
 24 22  1  0
 26 25  1  0
 27 28  1  0
 27 26  2  0
 28 24  1  0
 29 30  1  0
 29 31  1  0
 29 28  1  0
 32 29  1  0
  3 33  1  0
 20 34  1  0
 25 35  1  0
 27 36  1  0
M  ISO  4  33  14  34  14  35  14  36  14
M  END
>  <minimizedAffinity>  (1) 
-5.93570137

>  <minimizedRMSD>  (1) 
1.37964892

$$$$
