
     RDKit          3D

 42 45  0  0  0  0  0  0  0  0999 V2000
   47.3690   34.2510   40.1490 C   0  0  0  0  0  0  0  0  0  0  0  0
   46.6970   34.4990   41.3540 C   0  0  0  0  0  0  0  0  0  0  0  0
   47.0780   33.9870   42.5930 C   0  0  0  0  0  0  0  0  0  0  0  0
   48.1680   33.2420   42.4370 N   0  0  0  0  0  0  0  0  0  0  0  0
   48.8540   32.9590   41.3640 C   0  0  0  0  0  0  0  0  0  0  0  0
   48.4470   33.4740   40.1960 N   0  0  0  0  0  0  0  0  0  0  0  0
   46.2070   34.4070   43.6730 C   0  0  0  0  0  0  0  0  0  0  0  0
   45.4080   35.4850   43.5960 N   0  0  0  0  0  0  0  0  0  0  0  0
   44.6060   35.8810   44.5960 C   0  0  0  0  0  0  0  0  0  0  0  0
   44.5600   35.1950   45.7640 N   0  0  0  0  0  0  0  0  0  0  0  0
   45.3210   34.1100   45.9270 C   0  0  0  0  0  0  0  0  0  0  0  0
   45.2700   33.4230   47.1070 C   0  0  0  0  0  0  0  0  0  0  0  0
   46.0580   32.2850   47.2970 C   0  0  0  0  0  0  0  0  0  0  0  0
   46.8790   31.8840   46.2640 C   0  0  0  0  0  0  0  0  0  0  0  0
   46.8750   32.6270   45.1050 C   0  0  0  0  0  0  0  0  0  0  0  0
   46.1300   33.7420   44.8690 C   0  0  0  0  0  0  0  0  0  0  0  0
   50.0300   32.0810   41.5560 C   0  0  0  0  0  0  0  0  0  0  0  0
   50.5980   31.6940   40.2080 C   0  0  0  0  0  0  0  0  0  0  0  0
   51.1200   32.9210   42.2430 C   0  0  0  0  0  0  0  0  0  0  0  0
   49.7240   30.8570   42.3850 C   0  0  0  0  0  0  0  0  0  0  0  0
   51.0240   30.1300   42.6350 C   0  0  0  0  0  0  0  0  0  0  0  0
   51.4380   29.1440   41.7020 C   0  0  0  0  0  0  0  0  0  0  0  0
   52.9840   28.5630   42.3800 S   0  0  0  0  0  0  0  0  0  0  0  0
   52.8380   29.7610   43.8520 C   0  0  0  0  0  0  0  0  0  0  0  0
   51.8650   30.2770   43.6260 N   0  0  0  0  0  0  0  0  0  0  0  0
   47.0177   34.6829   39.2003 H   0  0  0  0  0  0  0  0  0  0  0  0
   45.8061   35.1432   41.3192 H   0  0  0  0  0  0  0  0  0  0  0  0
   43.9774   36.7743   44.4662 H   0  0  0  0  0  0  0  0  0  0  0  0
   44.6046   33.7679   47.9121 H   0  0  0  0  0  0  0  0  0  0  0  0
   46.0245   31.7251   48.2432 H   0  0  0  0  0  0  0  0  0  0  0  0
   47.5193   30.9951   46.3634 H   0  0  0  0  0  0  0  0  0  0  0  0
   47.5357   32.2881   44.2934 H   0  0  0  0  0  0  0  0  0  0  0  0
   51.4992   31.0800   40.3524 H   0  0  0  0  0  0  0  0  0  0  0  0
   49.8482   31.1181   39.6458 H   0  0  0  0  0  0  0  0  0  0  0  0
   50.8596   32.6026   39.6458 H   0  0  0  0  0  0  0  0  0  0  0  0
   51.0129   32.8385   43.3347 H   0  0  0  0  0  0  0  0  0  0  0  0
   52.1115   32.5512   41.9428 H   0  0  0  0  0  0  0  0  0  0  0  0
   51.0151   33.9740   41.9428 H   0  0  0  0  0  0  0  0  0  0  0  0
   49.2732   31.1570   43.3425 H   0  0  0  0  0  0  0  0  0  0  0  0
   49.0145   30.2034   41.8565 H   0  0  0  0  0  0  0  0  0  0  0  0
   50.9293   28.8168   40.7832 H   0  0  0  0  0  0  0  0  0  0  0  0
   53.5238   29.9092   44.6992 H   0  0  0  0  0  0  0  0  0  0  0  0
  1  6  2  0
  1  2  1  0
  2  3  2  0
  3  7  1  0
  4  3  1  0
  5 17  1  0
  5  4  2  0
  6  5  1  0
  7 16  1  0
  8  7  2  0
  8  9  1  0
  9 10  2  0
 10 11  1  0
 11 12  2  0
 12 13  1  0
 14 13  2  0
 15 14  1  0
 16 15  2  0
 16 11  1  0
 17 19  1  0
 17 20  1  0
 18 17  1  0
 20 21  1  0
 21 25  1  0
 22 23  1  0
 22 21  2  0
 23 24  1  0
 25 24  2  0
  1 26  1  0
  2 27  1  0
  9 28  1  0
 12 29  1  0
 13 30  1  0
 14 31  1  0
 15 32  1  0
 18 33  1  0
 18 34  1  0
 18 35  1  0
 19 36  1  0
 19 37  1  0
 19 38  1  0
 20 39  1  0
 20 40  1  0
 22 41  1  0
 24 42  1  0
M  ISO  8  26  14  27  14  28  14  29  14  30  14  31  14  32  14  33   8
M  ISO  8  34   8  35   8  36   8  37   8  38   8  39   8  40   8  41  14
M  ISO  1  42  14
M  END
>  <minimizedAffinity>  (1) 
-5.49974823

>  <minimizedRMSD>  (1) 
0.396627307

$$$$
