
     RDKit          3D

 19 19  0  0  0  0  0  0  0  0999 V2000
   44.5340   35.6940   44.8300 C   0  0  0  0  0  0  0  0  0  0  0  0
   45.1540   35.7030   43.5580 C   0  0  0  0  0  0  0  0  0  0  0  0
   46.1360   34.7310   43.3050 C   0  0  0  0  0  0  0  0  0  0  0  0
   46.4250   33.8450   44.2920 N   0  0  0  0  0  0  0  0  0  0  0  0
   45.8070   33.8670   45.5030 C   0  0  0  0  0  0  0  0  0  0  0  0
   44.8720   34.7890   45.7560 N   0  0  0  0  0  0  0  0  0  0  0  0
   46.2160   32.8410   46.4980 C   0  0  0  0  0  0  0  0  0  0  0  0
   46.4230   31.5070   45.8500 C   0  0  0  0  0  0  0  0  0  0  0  0
   45.2620   32.7700   47.6670 C   0  0  0  0  0  0  0  0  0  0  0  0
   43.7620   36.4427   45.0612 H   0  0  0  0  0  0  0  0  0  0  0  0
   44.8768   36.4448   42.7945 H   0  0  0  0  0  0  0  0  0  0  0  0
   46.6552   34.6890   42.3362 H   0  0  0  0  0  0  0  0  0  0  0  0
   47.1859   33.1536   46.9122 H   0  0  0  0  0  0  0  0  0  0  0  0
   46.5425   30.7369   46.6263 H   0  0  0  0  0  0  0  0  0  0  0  0
   45.5518   31.2644   45.2238 H   0  0  0  0  0  0  0  0  0  0  0  0
   47.3268   31.5398   45.2238 H   0  0  0  0  0  0  0  0  0  0  0  0
   45.8308   32.8123   48.6076 H   0  0  0  0  0  0  0  0  0  0  0  0
   44.5636   33.6186   47.6224 H   0  0  0  0  0  0  0  0  0  0  0  0
   44.6969   31.8273   47.6224 H   0  0  0  0  0  0  0  0  0  0  0  0
  1  6  2  0
  2  1  1  0
  3  2  2  0
  3  4  1  0
  4  5  2  0
  5  6  1  0
  5  7  1  0
  7  9  1  0
  8  7  1  0
  1 10  1  0
  2 11  1  0
  3 12  1  0
  7 13  1  0
  8 14  1  0
  8 15  1  0
  8 16  1  0
  9 17  1  0
  9 18  1  0
  9 19  1  0
M  ISO  8  10  14  11  14  12  14  13   8  14   8  15   8  16   8  17   8
M  ISO  2  18   8  19   8
M  END
>  <minimizedAffinity>  (1) 
-3.44633389

>  <minimizedRMSD>  (1) 
0.620862901

$$$$
