
     RDKit          3D

 26 26  0  0  1  0  0  0  0  0999 V2000
   46.7260   32.5440   45.5520 C   0  0  2  0  0  0  0  0  0  0  0  0
   44.5660   35.5130   45.1800 C   0  0  0  0  0  0  0  0  0  0  0  0
   44.8840   35.9530   43.8710 C   0  0  0  0  0  0  0  0  0  0  0  0
   45.8380   35.1990   43.1450 C   0  0  0  0  0  0  0  0  0  0  0  0
   46.3940   34.0960   43.7460 N   0  0  0  0  0  0  0  0  0  0  0  0
   46.0460   33.7300   45.0010 C   0  0  0  0  0  0  0  0  0  0  0  0
   45.1530   34.4240   45.6990 N   0  0  0  0  0  0  0  0  0  0  0  0
   47.4950   31.8030   44.4840 C   0  0  0  0  0  0  0  0  0  0  0  0
   45.8170   31.6170   46.3030 C   0  0  0  0  0  0  0  0  0  0  0  0
   45.3670   32.1760   47.5550 N   0  0  0  0  0  0  0  0  0  0  0  0
   45.8010   31.4300   48.6880 C   0  0  0  0  0  0  0  0  0  0  0  0
   46.5960   30.4340   48.7950 N   0  0  0  0  0  0  0  0  0  0  0  0
   45.2940   31.8300   49.9700 N   0  0  0  0  0  0  0  0  0  0  0  0
   47.0980   29.9600   48.0230 H   0  0  0  0  0  0  0  0  0  0  0  0
   47.4395   32.9326   46.2936 H   0  0  0  0  0  0  0  0  0  0  0  0
   43.8296   36.0706   45.7773 H   0  0  0  0  0  0  0  0  0  0  0  0
   44.4088   36.8447   43.4361 H   0  0  0  0  0  0  0  0  0  0  0  0
   46.1269   35.4897   42.1242 H   0  0  0  0  0  0  0  0  0  0  0  0
   48.2098   31.1142   44.9580 H   0  0  0  0  0  0  0  0  0  0  0  0
   46.7944   31.2308   43.8581 H   0  0  0  0  0  0  0  0  0  0  0  0
   48.0408   32.5243   43.8581 H   0  0  0  0  0  0  0  0  0  0  0  0
   44.9384   31.4013   45.6773 H   0  0  0  0  0  0  0  0  0  0  0  0
   46.3863   30.7038   46.5309 H   0  0  0  0  0  0  0  0  0  0  0  0
   44.7910   33.0272   47.6224 H   0  0  0  0  0  0  0  0  0  0  0  0
   45.5795   31.3206   50.8185 H   0  0  0  0  0  0  0  0  0  0  0  0
   44.6447   32.6264   50.0414 H   0  0  0  0  0  0  0  0  0  0  0  0
  1  9  1  0
  2  7  2  0
  3  2  1  0
  4  5  1  0
  4  3  2  0
  5  6  2  0
  6  1  1  0
  6  7  1  0
  8  1  1  0
  9 10  1  0
 10 11  1  0
 11 12  2  0
 11 13  1  0
 14 12  1  0
  1 15  1  1
  2 16  1  0
  3 17  1  0
  4 18  1  0
  8 19  1  0
  8 20  1  0
  8 21  1  0
  9 22  1  0
  9 23  1  0
 10 24  1  0
 13 25  1  0
 13 26  1  0
M  ISO  8  15   8  16  14  17  14  18  14  19   8  20   8  21   8  22   8
M  ISO  1  23   8
M  END
>  <minimizedAffinity>  (1) 
-4.51680183

>  <minimizedRMSD>  (1) 
1.79893243

$$$$
