
     RDKit          3D

 31 32  0  0  1  0  0  0  0  0999 V2000
   46.6320   32.6030   44.9480 C   0  0  2  0  0  0  0  0  0  0  0  0
   44.5570   35.6360   44.9850 C   0  0  0  0  0  0  0  0  0  0  0  0
   44.8480   36.2390   43.7490 C   0  0  0  0  0  0  0  0  0  0  0  0
   45.7540   35.5780   42.9070 C   0  0  0  0  0  0  0  0  0  0  0  0
   46.3000   34.4000   43.3260 N   0  0  0  0  0  0  0  0  0  0  0  0
   45.9990   33.8520   44.5210 C   0  0  0  0  0  0  0  0  0  0  0  0
   45.1440   34.4860   45.3000 N   0  0  0  0  0  0  0  0  0  0  0  0
   45.8390   31.4230   44.4120 C   0  0  0  0  0  0  0  0  0  0  0  0
   46.9100   32.4630   46.3960 C   0  0  0  0  0  0  0  0  0  0  0  0
   46.0690   31.8170   47.2650 N   0  0  0  0  0  0  0  0  0  0  0  0
   45.4360   32.4230   48.3330 C   0  0  0  0  0  0  0  0  0  0  0  0
   45.0250   31.3060   49.3060 C   0  0  0  0  0  0  0  0  0  0  0  0
   45.4330   30.0650   48.5810 C   0  0  0  0  0  0  0  0  0  0  0  0
   46.5990   30.5490   47.7130 C   0  0  0  0  0  0  0  0  0  0  0  0
   47.6406   32.6266   44.5096 H   0  0  0  0  0  0  0  0  0  0  0  0
   43.8517   36.1104   45.6833 H   0  0  0  0  0  0  0  0  0  0  0  0
   44.3835   37.1915   43.4540 H   0  0  0  0  0  0  0  0  0  0  0  0
   46.0195   36.0014   41.9271 H   0  0  0  0  0  0  0  0  0  0  0  0
   45.4436   30.8346   45.2531 H   0  0  0  0  0  0  0  0  0  0  0  0
   45.0042   31.7910   43.7974 H   0  0  0  0  0  0  0  0  0  0  0  0
   46.4951   30.7891   43.7974 H   0  0  0  0  0  0  0  0  0  0  0  0
   47.8764   31.9426   46.4686 H   0  0  0  0  0  0  0  0  0  0  0  0
   46.8151   33.5046   46.7366 H   0  0  0  0  0  0  0  0  0  0  0  0
   46.1225   33.1236   48.8308 H   0  0  0  0  0  0  0  0  0  0  0  0
   44.5573   32.9926   47.9962 H   0  0  0  0  0  0  0  0  0  0  0  0
   45.5589   31.3987   50.2633 H   0  0  0  0  0  0  0  0  0  0  0  0
   43.9560   31.3266   49.5644 H   0  0  0  0  0  0  0  0  0  0  0  0
   45.7593   29.2843   49.2839 H   0  0  0  0  0  0  0  0  0  0  0  0
   44.6165   29.6105   48.0007 H   0  0  0  0  0  0  0  0  0  0  0  0
   46.7922   29.8671   46.8717 H   0  0  0  0  0  0  0  0  0  0  0  0
   47.5680   30.6086   48.2302 H   0  0  0  0  0  0  0  0  0  0  0  0
  1  9  1  0
  2  7  2  0
  3  2  1  0
  4  5  1  0
  4  3  2  0
  5  6  2  0
  6  1  1  0
  6  7  1  0
  8  1  1  0
  9 10  1  0
 10 14  1  0
 10 11  1  0
 11 12  1  0
 13 12  1  0
 14 13  1  0
  1 15  1  6
  2 16  1  0
  3 17  1  0
  4 18  1  0
  8 19  1  0
  8 20  1  0
  8 21  1  0
  9 22  1  0
  9 23  1  0
 11 24  1  0
 11 25  1  0
 12 26  1  0
 12 27  1  0
 13 28  1  0
 13 29  1  0
 14 30  1  0
 14 31  1  0
M  ISO  8  15   8  16  14  17  14  18  14  19   8  20   8  21   8  22   8
M  ISO  8  23   8  24  13  25  13  26  13  27  13  28  13  29  13  30  13
M  ISO  1  31  13
M  END
>  <minimizedAffinity>  (1) 
-4.40006685

>  <minimizedRMSD>  (1) 
2.02336693

$$$$
