
     RDKit          3D

 35 37  0  0  1  0  0  0  0  0999 V2000
   47.3630   32.8600   44.0470 C   0  0  2  0  0  0  0  0  0  0  0  0
   44.7360   35.3650   44.8310 C   0  0  0  0  0  0  0  0  0  0  0  0
   44.7740   36.2110   43.7070 C   0  0  0  0  0  0  0  0  0  0  0  0
   45.6910   35.9010   42.6860 C   0  0  0  0  0  0  0  0  0  0  0  0
   46.4980   34.8090   42.8240 N   0  0  0  0  0  0  0  0  0  0  0  0
   46.4230   34.0230   43.9310 C   0  0  0  0  0  0  0  0  0  0  0  0
   45.5460   34.3100   44.9170 N   0  0  0  0  0  0  0  0  0  0  0  0
   47.9610   32.6090   42.6620 C   0  0  0  0  0  0  0  0  0  0  0  0
   46.6660   31.6200   44.5140 C   0  0  0  0  0  0  0  0  0  0  0  0
   47.2780   30.8770   45.6030 C   0  0  0  0  0  0  0  0  0  0  0  0
   48.3290   29.9950   45.5790 C   0  0  0  0  0  0  0  0  0  0  0  0
   48.8080   29.3540   46.7200 C   0  0  0  0  0  0  0  0  0  0  0  0
   48.2020   29.6200   47.9110 C   0  0  0  0  0  0  0  0  0  0  0  0
   47.1540   30.4910   47.9950 C   0  0  0  0  0  0  0  0  0  0  0  0
   46.6350   30.6740   49.2580 C   0  0  0  0  0  0  0  0  0  0  0  0
   45.5700   31.5560   49.3920 C   0  0  0  0  0  0  0  0  0  0  0  0
   45.0740   32.2040   48.2900 C   0  0  0  0  0  0  0  0  0  0  0  0
   45.6130   32.0020   47.0280 C   0  0  0  0  0  0  0  0  0  0  0  0
   46.6880   31.1250   46.8360 C   0  0  0  0  0  0  0  0  0  0  0  0
   48.1386   33.1000   44.7892 H   0  0  0  0  0  0  0  0  0  0  0  0
   44.0300   35.5768   45.6476 H   0  0  0  0  0  0  0  0  0  0  0  0
   44.1098   37.0844   43.6294 H   0  0  0  0  0  0  0  0  0  0  0  0
   45.7568   36.5314   41.7870 H   0  0  0  0  0  0  0  0  0  0  0  0
   48.9704   32.1853   42.7697 H   0  0  0  0  0  0  0  0  0  0  0  0
   47.3238   31.9024   42.1100 H   0  0  0  0  0  0  0  0  0  0  0  0
   48.0190   33.5587   42.1100 H   0  0  0  0  0  0  0  0  0  0  0  0
   45.6569   31.9121   44.8403 H   0  0  0  0  0  0  0  0  0  0  0  0
   46.7020   30.9365   43.6528 H   0  0  0  0  0  0  0  0  0  0  0  0
   48.8156   29.7843   44.6152 H   0  0  0  0  0  0  0  0  0  0  0  0
   49.6528   28.6520   46.6607 H   0  0  0  0  0  0  0  0  0  0  0  0
   48.5643   29.1231   48.8230 H   0  0  0  0  0  0  0  0  0  0  0  0
   47.0483   30.1419   50.1275 H   0  0  0  0  0  0  0  0  0  0  0  0
   45.1247   31.7345   50.3819 H   0  0  0  0  0  0  0  0  0  0  0  0
   44.2301   32.8993   48.4094 H   0  0  0  0  0  0  0  0  0  0  0  0
   45.1901   32.5382   46.1657 H   0  0  0  0  0  0  0  0  0  0  0  0
  1  9  1  0
  2  7  2  0
  3  2  1  0
  4  5  1  0
  4  3  2  0
  5  6  2  0
  6  1  1  0
  6  7  1  0
  8  1  1  0
  9 10  1  0
 10 19  1  0
 11 10  2  0
 11 12  1  0
 12 13  2  0
 13 14  1  0
 14 15  2  0
 15 16  1  0
 17 16  2  0
 18 17  1  0
 19 18  2  0
 19 14  1  0
  1 20  1  1
  2 21  1  0
  3 22  1  0
  4 23  1  0
  8 24  1  0
  8 25  1  0
  8 26  1  0
  9 27  1  0
  9 28  1  0
 11 29  1  0
 12 30  1  0
 13 31  1  0
 15 32  1  0
 16 33  1  0
 17 34  1  0
 18 35  1  0
M  ISO  8  20   8  21  14  22  14  23  14  24   8  25   8  26   8  27   8
M  ISO  8  28   8  29  14  30  14  31  14  32  14  33  14  34  14  35  14
M  END
>  <minimizedAffinity>  (1) 
-4.94560337

>  <minimizedRMSD>  (1) 
3.09487009

$$$$
