
     RDKit          3D

 30 32  0  0  1  0  0  0  0  0999 V2000
   46.8070   32.6870   45.4410 C   0  0  2  0  0  0  0  0  0  0  0  0
   44.5200   35.5840   45.0710 C   0  0  0  0  0  0  0  0  0  0  0  0
   44.8560   36.0370   43.7600 C   0  0  0  0  0  0  0  0  0  0  0  0
   45.8510   35.3260   43.0430 C   0  0  0  0  0  0  0  0  0  0  0  0
   46.4270   34.2520   43.6490 N   0  0  0  0  0  0  0  0  0  0  0  0
   46.0800   33.8590   44.8920 C   0  0  0  0  0  0  0  0  0  0  0  0
   45.1360   34.5180   45.5960 N   0  0  0  0  0  0  0  0  0  0  0  0
   47.3020   31.7980   44.3180 C   0  0  0  0  0  0  0  0  0  0  0  0
   46.0240   31.9320   46.4640 C   0  0  0  0  0  0  0  0  0  0  0  0
   46.7960   30.8010   46.9700 N   0  0  0  0  0  0  0  0  0  0  0  0
   46.7050   29.4850   46.6850 C   0  0  0  0  0  0  0  0  0  0  0  0
   47.6180   28.7950   47.3840 N   0  0  0  0  0  0  0  0  0  0  0  0
   48.3300   29.6490   48.1450 C   0  0  0  0  0  0  0  0  0  0  0  0
   49.3680   29.4420   49.0290 C   0  0  0  0  0  0  0  0  0  0  0  0
   49.8770   30.5430   49.6490 N   0  0  0  0  0  0  0  0  0  0  0  0
   49.3780   31.7600   49.3970 C   0  0  0  0  0  0  0  0  0  0  0  0
   48.3790   31.9180   48.5400 N   0  0  0  0  0  0  0  0  0  0  0  0
   47.8020   30.8820   47.8700 C   0  0  0  0  0  0  0  0  0  0  0  0
   47.6828   33.0727   45.9834 H   0  0  0  0  0  0  0  0  0  0  0  0
   43.7511   36.1135   45.6528 H   0  0  0  0  0  0  0  0  0  0  0  0
   44.3573   36.9125   43.3187 H   0  0  0  0  0  0  0  0  0  0  0  0
   46.1481   35.6325   42.0292 H   0  0  0  0  0  0  0  0  0  0  0  0
   47.7956   30.9114   44.7426 H   0  0  0  0  0  0  0  0  0  0  0  0
   46.4501   31.4817   43.6981 H   0  0  0  0  0  0  0  0  0  0  0  0
   48.0195   32.3556   43.6981 H   0  0  0  0  0  0  0  0  0  0  0  0
   45.7776   32.6041   47.2992 H   0  0  0  0  0  0  0  0  0  0  0  0
   45.1033   31.5524   45.9968 H   0  0  0  0  0  0  0  0  0  0  0  0
   45.9854   29.0421   45.9807 H   0  0  0  0  0  0  0  0  0  0  0  0
   49.7662   28.4354   49.2243 H   0  0  0  0  0  0  0  0  0  0  0  0
   49.8016   32.6380   49.9066 H   0  0  0  0  0  0  0  0  0  0  0  0
  1  9  1  0
  2  7  2  0
  3  2  1  0
  4  5  1  0
  4  3  2  0
  5  6  2  0
  6  1  1  0
  6  7  1  0
  8  1  1  0
  9 10  1  0
 10 18  1  0
 11 10  1  0
 11 12  2  0
 12 13  1  0
 13 14  2  0
 14 15  1  0
 16 15  2  0
 17 16  1  0
 18 13  1  0
 18 17  2  0
  1 19  1  1
  2 20  1  0
  3 21  1  0
  4 22  1  0
  8 23  1  0
  8 24  1  0
  8 25  1  0
  9 26  1  0
  9 27  1  0
 11 28  1  0
 14 29  1  0
 16 30  1  0
M  ISO  8  19   8  20  14  21  14  22  14  23   8  24   8  25   8  26   8
M  ISO  4  27   8  28  14  29  14  30  14
M  END
>  <minimizedAffinity>  (1) 
-4.53888226

>  <minimizedRMSD>  (1) 
1.64768362

$$$$
