
     RDKit          3D

 20 20  0  0  1  0  0  0  0  0999 V2000
   46.1560   32.8420   46.6020 C   0  0  2  0  0  0  0  0  0  0  0  0
   44.5600   35.6790   44.8100 C   0  0  0  0  0  0  0  0  0  0  0  0
   45.2280   35.6350   43.5510 C   0  0  0  0  0  0  0  0  0  0  0  0
   46.1980   34.6190   43.3710 C   0  0  0  0  0  0  0  0  0  0  0  0
   46.4500   33.7350   44.3950 N   0  0  0  0  0  0  0  0  0  0  0  0
   45.7750   33.8370   45.5690 C   0  0  0  0  0  0  0  0  0  0  0  0
   44.8440   34.7930   45.7720 N   0  0  0  0  0  0  0  0  0  0  0  0
   46.4210   31.4920   45.9730 C   0  0  0  0  0  0  0  0  0  0  0  0
   45.1870   32.7810   47.7340 C   0  0  0  0  0  0  0  0  0  0  0  0
   45.8970   31.6620   48.9930 S   0  0  0  0  0  0  0  0  0  0  0  0
   47.0986   33.1808   47.0568 H   0  0  0  0  0  0  0  0  0  0  0  0
   43.7999   36.4527   44.9933 H   0  0  0  0  0  0  0  0  0  0  0  0
   44.9999   36.3585   42.7545 H   0  0  0  0  0  0  0  0  0  0  0  0
   46.7455   34.5372   42.4204 H   0  0  0  0  0  0  0  0  0  0  0  0
   46.5683   30.7416   46.7637 H   0  0  0  0  0  0  0  0  0  0  0  0
   45.5624   31.2034   45.3489 H   0  0  0  0  0  0  0  0  0  0  0  0
   47.3250   31.5494   45.3489 H   0  0  0  0  0  0  0  0  0  0  0  0
   45.0419   33.7845   48.1605 H   0  0  0  0  0  0  0  0  0  0  0  0
   44.2087   32.4129   47.3914 H   0  0  0  0  0  0  0  0  0  0  0  0
   45.5978   32.1336   50.2440 H   0  0  0  0  0  0  0  0  0  0  0  0
  1  9  1  0
  2  7  2  0
  3  2  1  0
  4  3  2  0
  4  5  1  0
  5  6  2  0
  6  7  1  0
  6  1  1  0
  8  1  1  0
  9 10  1  0
  1 11  1  1
  2 12  1  0
  3 13  1  0
  4 14  1  0
  8 15  1  0
  8 16  1  0
  8 17  1  0
  9 18  1  0
  9 19  1  0
 10 20  1  0
M  ISO  8  11   8  12  14  13  14  14  14  15   8  16   8  17   8  18   8
M  ISO  2  19   8  20  11
M  END
>  <minimizedAffinity>  (1) 
-3.57483816

>  <minimizedRMSD>  (1) 
0.955192924

$$$$
