
     RDKit          3D

 25 26  0  0  1  0  0  0  0  0999 V2000
   46.3420   33.3910   45.1290 C   0  0  2  0  0  0  0  0  0  0  0  0
   45.8220   30.1200   46.7330 C   0  0  0  0  0  0  0  0  0  0  0  0
   45.3210   30.5020   48.0110 C   0  0  0  0  0  0  0  0  0  0  0  0
   45.1720   31.8890   48.2630 C   0  0  0  0  0  0  0  0  0  0  0  0
   45.5140   32.7840   47.2770 N   0  0  0  0  0  0  0  0  0  0  0  0
   45.9810   32.3500   46.0920 C   0  0  0  0  0  0  0  0  0  0  0  0
   46.1300   31.0420   45.8330 N   0  0  0  0  0  0  0  0  0  0  0  0
   45.2830   34.4560   45.0200 C   0  0  0  0  0  0  0  0  0  0  0  0
   46.6960   32.8690   43.7710 C   0  0  0  0  0  0  0  0  0  0  0  0
   47.9370   33.3170   43.2270 N   0  0  0  0  0  0  0  0  0  0  0  0
   48.9220   32.4850   42.7930 C   0  0  0  0  0  0  0  0  0  0  0  0
   49.9870   33.1720   42.3330 N   0  0  0  0  0  0  0  0  0  0  0  0
   49.6510   34.4570   42.4870 C   0  0  0  0  0  0  0  0  0  0  0  0
   48.4250   34.5310   43.0220 N   0  0  0  0  0  0  0  0  0  0  0  0
   47.2564   33.8431   45.5407 H   0  0  0  0  0  0  0  0  0  0  0  0
   45.9536   29.0547   46.4926 H   0  0  0  0  0  0  0  0  0  0  0  0
   45.0604   29.7510   48.7713 H   0  0  0  0  0  0  0  0  0  0  0  0
   44.7891   32.2433   49.2314 H   0  0  0  0  0  0  0  0  0  0  0  0
   44.9722   34.7686   46.0278 H   0  0  0  0  0  0  0  0  0  0  0  0
   45.6885   35.3220   44.4763 H   0  0  0  0  0  0  0  0  0  0  0  0
   44.4147   34.0554   44.4763 H   0  0  0  0  0  0  0  0  0  0  0  0
   46.7335   31.7714   43.8328 H   0  0  0  0  0  0  0  0  0  0  0  0
   45.9207   33.2586   43.0949 H   0  0  0  0  0  0  0  0  0  0  0  0
   48.8575   31.3871   42.8147 H   0  0  0  0  0  0  0  0  0  0  0  0
   50.2814   35.3171   42.2172 H   0  0  0  0  0  0  0  0  0  0  0  0
  1  6  1  0
  2  3  2  0
  3  4  1  0
  5  4  2  0
  6  5  1  0
  7  6  2  0
  7  2  1  0
  8  1  1  0
  9  1  1  0
 10  9  1  0
 11 10  1  0
 12 13  1  0
 12 11  2  0
 13 14  2  0
 14 10  1  0
  1 15  1  1
  2 16  1  0
  3 17  1  0
  4 18  1  0
  8 19  1  0
  8 20  1  0
  8 21  1  0
  9 22  1  0
  9 23  1  0
 11 24  1  0
 13 25  1  0
M  ISO  8  15   8  16  14  17  14  18  14  19   8  20   8  21   8  22   8
M  ISO  3  23   8  24  14  25  14
M  END
>  <minimizedAffinity>  (1) 
-3.61358929

>  <minimizedRMSD>  (1) 
5.82815027

$$$$
