
     RDKit          3D

 20 20  0  0  1  0  0  0  0  0999 V2000
   46.3080   32.6600   46.5610 C   0  0  2  0  0  0  0  0  0  0  0  0
   44.5470   35.5330   45.0590 C   0  0  0  0  0  0  0  0  0  0  0  0
   45.1530   35.5930   43.7710 C   0  0  0  0  0  0  0  0  0  0  0  0
   46.1440   34.6280   43.4490 C   0  0  0  0  0  0  0  0  0  0  0  0
   46.4690   33.6820   44.3990 N   0  0  0  0  0  0  0  0  0  0  0  0
   45.8590   33.6780   45.6020 C   0  0  0  0  0  0  0  0  0  0  0  0
   44.9170   34.5880   45.9200 N   0  0  0  0  0  0  0  0  0  0  0  0
   46.1120   31.2650   45.9960 C   0  0  0  0  0  0  0  0  0  0  0  0
   45.7090   32.8070   47.9270 C   0  0  0  0  0  0  0  0  0  0  0  0
   44.4180   32.3350   47.9670 O   0  0  0  0  0  0  0  0  0  0  0  0
   47.3856   32.8253   46.7079 H   0  0  0  0  0  0  0  0  0  0  0  0
   43.7760   36.2652   45.3408 H   0  0  0  0  0  0  0  0  0  0  0  0
   44.8611   36.3663   43.0452 H   0  0  0  0  0  0  0  0  0  0  0  0
   46.6398   34.6347   42.4671 H   0  0  0  0  0  0  0  0  0  0  0  0
   46.0109   30.5457   46.8221 H   0  0  0  0  0  0  0  0  0  0  0  0
   45.2021   31.2441   45.3782 H   0  0  0  0  0  0  0  0  0  0  0  0
   46.9809   30.9942   45.3782 H   0  0  0  0  0  0  0  0  0  0  0  0
   46.3185   32.2410   48.6469 H   0  0  0  0  0  0  0  0  0  0  0  0
   45.6923   33.8769   48.1821 H   0  0  0  0  0  0  0  0  0  0  0  0
   44.1337   32.2311   48.9096 H   0  0  0  0  0  0  0  0  0  0  0  0
  1  9  1  0
  2  7  2  0
  3  2  1  0
  4  3  2  0
  4  5  1  0
  5  6  2  0
  6  7  1  0
  6  1  1  0
  8  1  1  0
  9 10  1  0
  1 11  1  1
  2 12  1  0
  3 13  1  0
  4 14  1  0
  8 15  1  0
  8 16  1  0
  8 17  1  0
  9 18  1  0
  9 19  1  0
 10 20  1  0
M  ISO  8  11   8  12  14  13  14  14  14  15   8  16   8  17   8  18   8
M  ISO  2  19   8  20   3
M  END
>  <minimizedAffinity>  (1) 
-3.68705678

>  <minimizedRMSD>  (1) 
0.359766841

$$$$
