
     RDKit          3D

 42 45  0  0  0  0  0  0  0  0999 V2000
   47.3100   34.1820   40.1550 C   0  0  0  0  0  0  0  0  0  0  0  0
   46.6550   34.4450   41.3630 C   0  0  0  0  0  0  0  0  0  0  0  0
   47.0850   33.9920   42.6130 C   0  0  0  0  0  0  0  0  0  0  0  0
   48.1990   33.2870   42.4530 N   0  0  0  0  0  0  0  0  0  0  0  0
   48.8680   32.9960   41.3770 C   0  0  0  0  0  0  0  0  0  0  0  0
   48.4250   33.4460   40.2030 N   0  0  0  0  0  0  0  0  0  0  0  0
   46.2110   34.4170   43.6900 C   0  0  0  0  0  0  0  0  0  0  0  0
   45.4110   35.4900   43.6190 N   0  0  0  0  0  0  0  0  0  0  0  0
   44.6040   35.8830   44.6090 C   0  0  0  0  0  0  0  0  0  0  0  0
   44.5540   35.1930   45.7700 N   0  0  0  0  0  0  0  0  0  0  0  0
   45.3080   34.1160   45.9380 C   0  0  0  0  0  0  0  0  0  0  0  0
   45.2410   33.4380   47.1170 C   0  0  0  0  0  0  0  0  0  0  0  0
   46.0260   32.3010   47.3170 C   0  0  0  0  0  0  0  0  0  0  0  0
   46.8650   31.8920   46.2870 C   0  0  0  0  0  0  0  0  0  0  0  0
   46.8800   32.6320   45.1150 C   0  0  0  0  0  0  0  0  0  0  0  0
   46.1320   33.7460   44.8810 C   0  0  0  0  0  0  0  0  0  0  0  0
   50.0780   32.1650   41.5860 C   0  0  0  0  0  0  0  0  0  0  0  0
   50.6430   31.7570   40.2420 C   0  0  0  0  0  0  0  0  0  0  0  0
   51.1570   33.0580   42.2310 C   0  0  0  0  0  0  0  0  0  0  0  0
   49.8340   30.9570   42.4560 C   0  0  0  0  0  0  0  0  0  0  0  0
   51.0560   30.1640   42.6050 N   0  0  0  0  0  0  0  0  0  0  0  0
   51.5560   29.2030   41.8220 C   0  0  0  0  0  0  0  0  0  0  0  0
   52.7110   28.7240   42.3210 N   0  0  0  0  0  0  0  0  0  0  0  0
   52.9100   29.4350   43.4600 C   0  0  0  0  0  0  0  0  0  0  0  0
   51.9020   30.3110   43.6320 N   0  0  0  0  0  0  0  0  0  0  0  0
   46.9217   34.5668   39.2005 H   0  0  0  0  0  0  0  0  0  0  0  0
   45.7375   35.0507   41.3262 H   0  0  0  0  0  0  0  0  0  0  0  0
   43.9750   36.7758   44.4778 H   0  0  0  0  0  0  0  0  0  0  0  0
   44.5671   33.7868   47.9133 H   0  0  0  0  0  0  0  0  0  0  0  0
   45.9818   31.7437   48.2643 H   0  0  0  0  0  0  0  0  0  0  0  0
   47.5019   31.0022   46.3993 H   0  0  0  0  0  0  0  0  0  0  0  0
   47.5489   32.2928   44.3103 H   0  0  0  0  0  0  0  0  0  0  0  0
   51.5262   31.1192   40.3939 H   0  0  0  0  0  0  0  0  0  0  0  0
   49.8808   31.1995   39.6778 H   0  0  0  0  0  0  0  0  0  0  0  0
   50.9324   32.6558   39.6778 H   0  0  0  0  0  0  0  0  0  0  0  0
   51.0794   32.9938   43.3264 H   0  0  0  0  0  0  0  0  0  0  0  0
   52.1533   32.7167   41.9134 H   0  0  0  0  0  0  0  0  0  0  0  0
   51.0080   34.1006   41.9134 H   0  0  0  0  0  0  0  0  0  0  0  0
   49.4979   31.2904   43.4489 H   0  0  0  0  0  0  0  0  0  0  0  0
   49.0650   30.3309   41.9798 H   0  0  0  0  0  0  0  0  0  0  0  0
   51.0857   28.8500   40.8924 H   0  0  0  0  0  0  0  0  0  0  0  0
   53.7660   29.3138   44.1402 H   0  0  0  0  0  0  0  0  0  0  0  0
  1  6  2  0
  1  2  1  0
  2  3  2  0
  3  7  1  0
  4  3  1  0
  5 17  1  0
  5  4  2  0
  6  5  1  0
  7 16  1  0
  8  7  2  0
  8  9  1  0
  9 10  2  0
 10 11  1  0
 11 12  2  0
 12 13  1  0
 14 13  2  0
 15 14  1  0
 16 15  2  0
 16 11  1  0
 17 19  1  0
 17 20  1  0
 18 17  1  0
 20 21  1  0
 21 25  1  0
 22 23  2  0
 22 21  1  0
 23 24  1  0
 24 25  2  0
  1 26  1  0
  2 27  1  0
  9 28  1  0
 12 29  1  0
 13 30  1  0
 14 31  1  0
 15 32  1  0
 18 33  1  0
 18 34  1  0
 18 35  1  0
 19 36  1  0
 19 37  1  0
 19 38  1  0
 20 39  1  0
 20 40  1  0
 22 41  1  0
 24 42  1  0
M  ISO  8  26  14  27  14  28  14  29  14  30  14  31  14  32  14  33   8
M  ISO  8  34   8  35   8  36   8  37   8  38   8  39   8  40   8  41  14
M  ISO  1  42  14
M  END
>  <minimizedAffinity>  (1) 
-5.46183634

>  <minimizedRMSD>  (1) 
0.0542994775

$$$$
