
     RDKit          3D

 38 40  0  0  1  0  0  0  0  0999 V2000
   46.7270   33.2120   45.0660 C   0  0  0  0  0  0  0  0  0  0  0  0
   45.7580   34.0790   44.3340 C   0  0  0  0  0  0  0  0  0  0  0  0
   45.0260   34.9920   45.0480 C   0  0  0  0  0  0  0  0  0  0  0  0
   44.2110   35.6680   44.1760 C   0  0  0  0  0  0  0  0  0  0  0  0
   44.5030   35.1120   42.9600 N   0  0  0  0  0  0  0  0  0  0  0  0
   45.4170   34.1680   43.0310 N   0  0  0  0  0  0  0  0  0  0  0  0
   44.4040   34.7110   40.5860 N   0  0  0  0  0  0  0  0  0  0  0  0
   43.2670   34.2810   39.8030 C   0  0  0  0  0  0  0  0  0  0  0  0
   42.2230   34.0370   40.8920 C   0  0  0  0  0  0  0  0  0  0  0  0
   42.3940   35.2950   41.7240 C   0  0  0  0  0  0  0  0  0  0  0  0
   43.8870   35.4940   41.6810 C   0  0  1  0  0  0  0  0  0  0  0  0
   46.0770   31.9030   45.3140 C   0  0  2  0  0  0  0  0  0  0  0  0
   45.8420   32.2580   48.9830 C   0  0  0  0  0  0  0  0  0  0  0  0
   45.3840   30.9470   49.3590 C   0  0  0  0  0  0  0  0  0  0  0  0
   45.1770   29.9810   48.3320 C   0  0  0  0  0  0  0  0  0  0  0  0
   45.4290   30.3610   47.0430 N   0  0  0  0  0  0  0  0  0  0  0  0
   45.8540   31.5930   46.7370 C   0  0  0  0  0  0  0  0  0  0  0  0
   46.0580   32.5280   47.7000 N   0  0  0  0  0  0  0  0  0  0  0  0
   46.8270   30.7440   44.6450 C   0  0  0  0  0  0  0  0  0  0  0  0
   46.9979   33.6812   46.0233 H   0  0  0  0  0  0  0  0  0  0  0  0
   47.6423   33.0766   44.4711 H   0  0  0  0  0  0  0  0  0  0  0  0
   45.0825   35.1547   46.1344 H   0  0  0  0  0  0  0  0  0  0  0  0
   43.4915   36.4690   44.4012 H   0  0  0  0  0  0  0  0  0  0  0  0
   45.0356   35.2839   40.0082 H   0  0  0  0  0  0  0  0  0  0  0  0
   42.9418   35.0645   39.1027 H   0  0  0  0  0  0  0  0  0  0  0  0
   43.4652   33.4056   39.1671 H   0  0  0  0  0  0  0  0  0  0  0  0
   41.2087   33.9617   40.4730 H   0  0  0  0  0  0  0  0  0  0  0  0
   42.3520   33.0973   41.4491 H   0  0  0  0  0  0  0  0  0  0  0  0
   41.8634   36.1474   41.2746 H   0  0  0  0  0  0  0  0  0  0  0  0
   41.9850   35.2142   42.7419 H   0  0  0  0  0  0  0  0  0  0  0  0
   44.1291   36.5553   41.5230 H   0  0  0  0  0  0  0  0  0  0  0  0
   45.0850   32.0090   44.8507 H   0  0  0  0  0  0  0  0  0  0  0  0
   46.0116   33.0286   49.7494 H   0  0  0  0  0  0  0  0  0  0  0  0
   45.1981   30.6963   50.4138 H   0  0  0  0  0  0  0  0  0  0  0  0
   44.8268   28.9653   48.5680 H   0  0  0  0  0  0  0  0  0  0  0  0
   47.2520   30.0873   45.4184 H   0  0  0  0  0  0  0  0  0  0  0  0
   46.1294   30.1689   44.0185 H   0  0  0  0  0  0  0  0  0  0  0  0
   47.6374   31.1448   44.0185 H   0  0  0  0  0  0  0  0  0  0  0  0
  1 12  1  0
  2  3  1  0
  2  1  1  0
  4  3  2  0
  5  6  1  0
  5  4  1  0
  6  2  2  0
  7 11  1  0
  8  7  1  0
  8  9  1  0
  9 10  1  0
 11 10  1  0
 11  5  1  0
 12 17  1  0
 13 14  2  0
 15 14  1  0
 16 15  2  0
 17 16  1  0
 17 18  2  0
 18 13  1  0
 19 12  1  0
  1 20  1  0
  1 21  1  0
  3 22  1  0
  4 23  1  0
  7 24  1  0
  8 25  1  0
  8 26  1  0
  9 27  1  0
  9 28  1  0
 10 29  1  0
 10 30  1  0
 11 31  1  6
 12 32  1  6
 13 33  1  0
 14 34  1  0
 15 35  1  0
 19 36  1  0
 19 37  1  0
 19 38  1  0
M  ISO  8  20   8  21   8  22  14  23  14  24   5  25  13  26  13  27  13
M  ISO  8  28  13  29  13  30  13  31  13  32   8  33  14  34  14  35  14
M  ISO  3  36   8  37   8  38   8
M  END
>  <minimizedAffinity>  (1) 
-5.1542511

>  <minimizedRMSD>  (1) 
8.0749979

$$$$
