
     RDKit          3D

 51 54  0  0  1  0  0  0  0  0999 V2000
   46.0800   32.0600   45.2260 C   0  0  1  0  0  0  0  0  0  0  0  0
   45.7840   32.1430   48.9170 C   0  0  0  0  0  0  0  0  0  0  0  0
   45.4060   30.7940   49.2000 C   0  0  0  0  0  0  0  0  0  0  0  0
   45.2660   29.8790   48.1040 C   0  0  0  0  0  0  0  0  0  0  0  0
   45.5040   30.3560   46.8430 N   0  0  0  0  0  0  0  0  0  0  0  0
   45.8550   31.6240   46.6300 C   0  0  0  0  0  0  0  0  0  0  0  0
   45.9950   32.5180   47.6560 N   0  0  0  0  0  0  0  0  0  0  0  0
   46.6260   33.4140   45.0900 C   0  0  0  0  0  0  0  0  0  0  0  0
   45.6590   34.2500   44.3260 C   0  0  0  0  0  0  0  0  0  0  0  0
   44.9230   35.1940   44.9930 C   0  0  0  0  0  0  0  0  0  0  0  0
   44.1180   35.8250   44.0850 C   0  0  0  0  0  0  0  0  0  0  0  0
   44.4250   35.2060   42.8940 N   0  0  0  0  0  0  0  0  0  0  0  0
   45.3350   34.2740   43.0270 N   0  0  0  0  0  0  0  0  0  0  0  0
   44.3500   34.7150   40.5460 N   0  0  0  0  0  0  0  0  0  0  0  0
   43.2330   34.2330   39.7720 C   0  0  0  0  0  0  0  0  0  0  0  0
   42.1760   34.0100   40.8680 C   0  0  0  0  0  0  0  0  0  0  0  0
   42.3170   35.3010   41.6480 C   0  0  0  0  0  0  0  0  0  0  0  0
   43.8140   35.5360   41.6050 C   0  0  1  0  0  0  0  0  0  0  0  0
   46.9010   30.9870   44.5210 C   0  0  0  0  0  0  0  0  0  0  0  0
   47.6120   31.4180   43.3710 N   0  0  0  0  0  0  0  0  0  0  0  0
   48.8240   31.9710   43.2530 C   0  0  0  0  0  0  0  0  0  0  0  0
   49.3940   32.3260   42.0610 C   0  0  0  0  0  0  0  0  0  0  0  0
   50.7490   32.9370   42.0290 C   0  0  0  0  0  0  0  0  0  0  0  0
   48.6570   32.0900   40.9160 C   0  0  0  0  0  0  0  0  0  0  0  0
   49.1430   32.4030   39.7760 O   0  0  0  0  0  0  0  0  0  0  0  0
   47.4340   31.5340   41.0030 N   0  0  0  0  0  0  0  0  0  0  0  0
   46.9280   31.2070   42.2070 C   0  0  0  0  0  0  0  0  0  0  0  0
   45.7660   30.6900   42.1490 O   0  0  0  0  0  0  0  0  0  0  0  0
   45.1043   32.1548   44.7269 H   0  0  0  0  0  0  0  0  0  0  0  0
   45.9001   32.8680   49.7361 H   0  0  0  0  0  0  0  0  0  0  0  0
   45.2266   30.4650   50.2342 H   0  0  0  0  0  0  0  0  0  0  0  0
   44.9775   28.8307   48.2710 H   0  0  0  0  0  0  0  0  0  0  0  0
   46.7838   33.8503   46.0874 H   0  0  0  0  0  0  0  0  0  0  0  0
   47.5877   33.3761   44.5574 H   0  0  0  0  0  0  0  0  0  0  0  0
   44.9712   35.4072   46.0711 H   0  0  0  0  0  0  0  0  0  0  0  0
   43.3960   36.6354   44.2639 H   0  0  0  0  0  0  0  0  0  0  0  0
   44.9774   35.2735   39.9499 H   0  0  0  0  0  0  0  0  0  0  0  0
   42.8995   34.9814   39.0381 H   0  0  0  0  0  0  0  0  0  0  0  0
   43.4547   33.3375   39.1730 H   0  0  0  0  0  0  0  0  0  0  0  0
   41.1672   33.8991   40.4438 H   0  0  0  0  0  0  0  0  0  0  0  0
   42.3160   33.0954   41.4629 H   0  0  0  0  0  0  0  0  0  0  0  0
   41.7697   36.1226   41.1627 H   0  0  0  0  0  0  0  0  0  0  0  0
   41.9061   35.2496   42.6671 H   0  0  0  0  0  0  0  0  0  0  0  0
   44.0359   36.5955   41.4097 H   0  0  0  0  0  0  0  0  0  0  0  0
   47.6312   30.5909   45.2420 H   0  0  0  0  0  0  0  0  0  0  0  0
   46.1775   30.2386   44.1654 H   0  0  0  0  0  0  0  0  0  0  0  0
   49.3992   32.1519   44.1730 H   0  0  0  0  0  0  0  0  0  0  0  0
   51.1035   33.0969   43.0580 H   0  0  0  0  0  0  0  0  0  0  0  0
   51.4422   32.2643   41.5027 H   0  0  0  0  0  0  0  0  0  0  0  0
   50.7038   33.9019   41.5027 H   0  0  0  0  0  0  0  0  0  0  0  0
   46.8857   31.3589   40.1488 H   0  0  0  0  0  0  0  0  0  0  0  0
  1  6  1  0
  2  3  2  0
  4  3  1  0
  5  4  2  0
  6  5  1  0
  6  7  2  0
  7  2  1  0
  8  1  1  0
  9 10  1  0
  9  8  1  0
 11 10  2  0
 12 13  1  0
 12 11  1  0
 13  9  2  0
 14 18  1  0
 15 14  1  0
 15 16  1  0
 16 17  1  0
 18 17  1  0
 18 12  1  0
 19  1  1  0
 20 19  1  0
 21 20  1  0
 22 21  2  0
 23 22  1  0
 24 26  1  0
 24 22  1  0
 25 24  2  0
 26 27  1  0
 27 20  1  0
 28 27  2  0
  1 29  1  6
  2 30  1  0
  3 31  1  0
  4 32  1  0
  8 33  1  0
  8 34  1  0
 10 35  1  0
 11 36  1  0
 14 37  1  0
 15 38  1  0
 15 39  1  0
 16 40  1  0
 16 41  1  0
 17 42  1  0
 17 43  1  0
 18 44  1  6
 19 45  1  0
 19 46  1  0
 21 47  1  0
 23 48  1  0
 23 49  1  0
 23 50  1  0
 26 51  1  0
M  ISO  8  29   8  30  14  31  14  32  14  33   8  34   8  35  14  36  14
M  ISO  8  37   5  38  13  39  13  40  13  41  13  42  13  43  13  44  13
M  ISO  7  45   8  46   8  47  14  48   8  49   8  50   8  51   9
M  END
>  <minimizedAffinity>  (1) 
-5.72559547

>  <minimizedRMSD>  (1) 
1.24988472

$$$$
