
     RDKit          3D

 47 50  0  0  1  0  0  0  0  0999 V2000
   46.7610   33.3300   45.0980 C   0  0  0  0  0  0  0  0  0  0  0  0
   45.7730   34.1580   44.3640 C   0  0  0  0  0  0  0  0  0  0  0  0
   44.9930   35.0230   45.0650 C   0  0  0  0  0  0  0  0  0  0  0  0
   44.1610   35.6710   44.1820 C   0  0  0  0  0  0  0  0  0  0  0  0
   44.5080   35.1330   42.9650 N   0  0  0  0  0  0  0  0  0  0  0  0
   45.4590   34.2390   43.0640 N   0  0  0  0  0  0  0  0  0  0  0  0
   44.4250   34.7020   40.6030 N   0  0  0  0  0  0  0  0  0  0  0  0
   43.2940   34.2350   39.8260 C   0  0  0  0  0  0  0  0  0  0  0  0
   42.2530   33.9940   40.9090 C   0  0  0  0  0  0  0  0  0  0  0  0
   42.4000   35.2750   41.7290 C   0  0  0  0  0  0  0  0  0  0  0  0
   43.9000   35.4960   41.6820 C   0  0  1  0  0  0  0  0  0  0  0  0
   46.1990   31.9550   45.2830 C   0  0  2  0  0  0  0  0  0  0  0  0
   45.8280   32.2460   48.9490 C   0  0  0  0  0  0  0  0  0  0  0  0
   45.3230   30.9280   49.2680 C   0  0  0  0  0  0  0  0  0  0  0  0
   45.1390   29.9860   48.2010 C   0  0  0  0  0  0  0  0  0  0  0  0
   45.4590   30.4200   46.9550 N   0  0  0  0  0  0  0  0  0  0  0  0
   45.9210   31.6330   46.6830 C   0  0  0  0  0  0  0  0  0  0  0  0
   46.1030   32.5440   47.6860 N   0  0  0  0  0  0  0  0  0  0  0  0
   47.1190   30.9080   44.6690 C   0  0  0  0  0  0  0  0  0  0  0  0
   47.4350   31.0950   43.2440 C   0  0  0  0  0  0  0  0  0  0  0  0
   48.7960   31.2940   42.9710 C   0  0  0  0  0  0  0  0  0  0  0  0
   49.3510   31.4950   41.7260 C   0  0  0  0  0  0  0  0  0  0  0  0
   48.5150   31.5060   40.6300 C   0  0  0  0  0  0  0  0  0  0  0  0
   47.1860   31.3080   40.9300 C   0  0  0  0  0  0  0  0  0  0  0  0
   46.6600   31.1140   42.1470 N   0  0  0  0  0  0  0  0  0  0  0  0
   46.9638   33.7813   46.0804 H   0  0  0  0  0  0  0  0  0  0  0  0
   47.6994   33.2754   44.5266 H   0  0  0  0  0  0  0  0  0  0  0  0
   45.0223   35.1783   46.1536 H   0  0  0  0  0  0  0  0  0  0  0  0
   43.4005   36.4360   44.3976 H   0  0  0  0  0  0  0  0  0  0  0  0
   45.0462   35.2742   40.0134 H   0  0  0  0  0  0  0  0  0  0  0  0
   42.9574   34.9986   39.1093 H   0  0  0  0  0  0  0  0  0  0  0  0
   43.5107   33.3495   39.2105 H   0  0  0  0  0  0  0  0  0  0  0  0
   41.2423   33.8967   40.4859 H   0  0  0  0  0  0  0  0  0  0  0  0
   42.3945   33.0654   41.4814 H   0  0  0  0  0  0  0  0  0  0  0  0
   41.8562   36.1121   41.2670 H   0  0  0  0  0  0  0  0  0  0  0  0
   41.9895   35.2045   42.7471 H   0  0  0  0  0  0  0  0  0  0  0  0
   44.1345   36.5563   41.5064 H   0  0  0  0  0  0  0  0  0  0  0  0
   45.2331   31.9415   44.7568 H   0  0  0  0  0  0  0  0  0  0  0  0
   45.9818   32.9911   49.7435 H   0  0  0  0  0  0  0  0  0  0  0  0
   45.0852   30.6539   50.3064 H   0  0  0  0  0  0  0  0  0  0  0  0
   44.7600   28.9694   48.3825 H   0  0  0  0  0  0  0  0  0  0  0  0
   48.0654   30.9189   45.2296 H   0  0  0  0  0  0  0  0  0  0  0  0
   46.5742   29.9545   44.7333 H   0  0  0  0  0  0  0  0  0  0  0  0
   49.4836   31.2892   43.8296 H   0  0  0  0  0  0  0  0  0  0  0  0
   50.4347   31.6431   41.6095 H   0  0  0  0  0  0  0  0  0  0  0  0
   48.8787   31.6598   39.6033 H   0  0  0  0  0  0  0  0  0  0  0  0
   46.4836   31.3092   40.0834 H   0  0  0  0  0  0  0  0  0  0  0  0
  1 12  1  0
  2  3  1  0
  2  1  1  0
  4  3  2  0
  5  6  1  0
  5  4  1  0
  6  2  2  0
  7 11  1  0
  8  7  1  0
  8  9  1  0
  9 10  1  0
 11 10  1  0
 11  5  1  0
 12 17  1  0
 13 14  2  0
 15 14  1  0
 16 15  2  0
 17 16  1  0
 17 18  2  0
 18 13  1  0
 19 12  1  0
 20 19  1  0
 21 20  2  0
 22 21  1  0
 23 24  1  0
 23 22  2  0
 24 25  2  0
 25 20  1  0
  1 26  1  0
  1 27  1  0
  3 28  1  0
  4 29  1  0
  7 30  1  0
  8 31  1  0
  8 32  1  0
  9 33  1  0
  9 34  1  0
 10 35  1  0
 10 36  1  0
 11 37  1  6
 12 38  1  6
 13 39  1  0
 14 40  1  0
 15 41  1  0
 19 42  1  0
 19 43  1  0
 21 44  1  0
 22 45  1  0
 23 46  1  0
 24 47  1  0
M  ISO  8  26   8  27   8  28  14  29  14  30   5  31  13  32  13  33  13
M  ISO  8  34  13  35  13  36  13  37  13  38   8  39  14  40  14  41  14
M  ISO  6  42   8  43   8  44  14  45  14  46  14  47  14
M  END
>  <minimizedAffinity>  (1) 
-5.29165745

>  <minimizedRMSD>  (1) 
2.5469203

$$$$
