
     RDKit          3D

 51 54  0  0  1  0  0  0  0  0999 V2000
   46.1710   31.9260   45.2780 C   0  0  1  0  0  0  0  0  0  0  0  0
   45.8300   32.2700   48.9490 C   0  0  0  0  0  0  0  0  0  0  0  0
   45.3340   30.9690   49.3060 C   0  0  0  0  0  0  0  0  0  0  0  0
   45.1380   30.0090   48.2710 C   0  0  0  0  0  0  0  0  0  0  0  0
   45.4340   30.3780   46.9850 N   0  0  0  0  0  0  0  0  0  0  0  0
   45.8920   31.5970   46.6990 C   0  0  0  0  0  0  0  0  0  0  0  0
   46.0900   32.5380   47.6730 N   0  0  0  0  0  0  0  0  0  0  0  0
   46.7590   33.2500   45.0580 C   0  0  0  0  0  0  0  0  0  0  0  0
   45.7700   34.1030   44.3450 C   0  0  0  0  0  0  0  0  0  0  0  0
   45.0050   34.9810   45.0670 C   0  0  0  0  0  0  0  0  0  0  0  0
   44.1850   35.6430   44.1990 C   0  0  0  0  0  0  0  0  0  0  0  0
   44.5080   35.1170   42.9760 N   0  0  0  0  0  0  0  0  0  0  0  0
   45.4460   34.2020   43.0460 N   0  0  0  0  0  0  0  0  0  0  0  0
   44.4090   34.7190   40.6030 N   0  0  0  0  0  0  0  0  0  0  0  0
   43.2770   34.2910   39.8210 C   0  0  0  0  0  0  0  0  0  0  0  0
   42.2270   34.0390   40.9150 C   0  0  0  0  0  0  0  0  0  0  0  0
   42.3950   35.2930   41.7500 C   0  0  0  0  0  0  0  0  0  0  0  0
   43.8960   35.5020   41.6970 C   0  0  1  0  0  0  0  0  0  0  0  0
   46.9890   30.7830   44.6780 C   0  0  0  0  0  0  0  0  0  0  0  0
   48.7500   31.5390   40.8530 C   0  0  0  0  0  0  0  0  0  0  0  0
   49.5100   31.4580   42.0020 C   0  0  0  0  0  0  0  0  0  0  0  0
   48.8780   31.2060   43.2040 C   0  0  0  0  0  0  0  0  0  0  0  0
   47.4950   31.0250   43.3360 C   0  0  0  0  0  0  0  0  0  0  0  0
   46.7940   31.1180   42.1560 C   0  0  0  0  0  0  0  0  0  0  0  0
   47.3830   31.3680   40.9330 C   0  0  0  0  0  0  0  0  0  0  0  0
   49.4330   31.8510   39.2720 S   0  0  0  0  0  0  0  0  0  0  0  0
   50.9110   31.5830   39.3100 O   0  0  0  0  0  0  0  0  0  0  0  0
   48.7170   31.0530   38.2310 O   0  0  0  0  0  0  0  0  0  0  0  0
   45.2113   32.0105   44.7471 H   0  0  0  0  0  0  0  0  0  0  0  0
   45.9926   33.0350   49.7225 H   0  0  0  0  0  0  0  0  0  0  0  0
   45.1108   30.7200   50.3540 H   0  0  0  0  0  0  0  0  0  0  0  0
   44.7601   29.0012   48.4979 H   0  0  0  0  0  0  0  0  0  0  0  0
   47.0116   33.7075   46.0259 H   0  0  0  0  0  0  0  0  0  0  0  0
   47.6743   33.1563   44.4551 H   0  0  0  0  0  0  0  0  0  0  0  0
   45.0446   35.1271   46.1565 H   0  0  0  0  0  0  0  0  0  0  0  0
   43.4389   36.4181   44.4283 H   0  0  0  0  0  0  0  0  0  0  0  0
   45.0416   35.2909   40.0253 H   0  0  0  0  0  0  0  0  0  0  0  0
   42.9502   35.0764   39.1236 H   0  0  0  0  0  0  0  0  0  0  0  0
   43.4773   33.4184   39.1819 H   0  0  0  0  0  0  0  0  0  0  0  0
   41.2130   33.9629   40.4954 H   0  0  0  0  0  0  0  0  0  0  0  0
   42.3576   33.0976   41.4688 H   0  0  0  0  0  0  0  0  0  0  0  0
   41.8562   36.1439   41.3077 H   0  0  0  0  0  0  0  0  0  0  0  0
   41.9930   35.2061   42.7702 H   0  0  0  0  0  0  0  0  0  0  0  0
   44.1398   36.5621   41.5334 H   0  0  0  0  0  0  0  0  0  0  0  0
   47.8490   30.5963   45.3380 H   0  0  0  0  0  0  0  0  0  0  0  0
   46.3045   29.9257   44.5975 H   0  0  0  0  0  0  0  0  0  0  0  0
   50.6011   31.5919   41.9613 H   0  0  0  0  0  0  0  0  0  0  0  0
   49.4970   31.1437   44.1112 H   0  0  0  0  0  0  0  0  0  0  0  0
   45.7025   30.9857   42.1890 H   0  0  0  0  0  0  0  0  0  0  0  0
   46.7649   31.4307   40.0253 H   0  0  0  0  0  0  0  0  0  0  0  0
   49.2642   33.1667   38.9293 H   0  0  0  0  0  0  0  0  0  0  0  0
  1  6  1  0
  2  3  2  0
  4  3  1  0
  5  4  2  0
  6  5  1  0
  6  7  2  0
  7  2  1  0
  8  1  1  0
  9  8  1  0
  9 10  1  0
 11 10  2  0
 12 13  1  0
 12 11  1  0
 13  9  2  0
 14 18  1  0
 15 14  1  0
 15 16  1  0
 16 17  1  0
 18 17  1  0
 18 12  1  0
 19  1  1  0
 20 25  2  0
 20 21  1  0
 21 22  2  0
 22 23  1  0
 23 19  1  0
 24 23  2  0
 25 24  1  0
 26 27  2  0
 26 20  1  0
 28 26  2  0
  1 29  1  6
  2 30  1  0
  3 31  1  0
  4 32  1  0
  8 33  1  0
  8 34  1  0
 10 35  1  0
 11 36  1  0
 14 37  1  0
 15 38  1  0
 15 39  1  0
 16 40  1  0
 16 41  1  0
 17 42  1  0
 17 43  1  0
 18 44  1  6
 19 45  1  0
 19 46  1  0
 21 47  1  0
 22 48  1  0
 24 49  1  0
 25 50  1  0
 26 51  1  0
M  ISO  8  29   8  30  14  31  14  32  14  33   8  34   8  35  14  36  14
M  ISO  8  37   5  38  13  39  13  40  13  41  13  42  13  43  13  44  13
M  ISO  7  45   8  46   8  47  14  48  14  49  14  50  14  51  11
M  END
>  <minimizedAffinity>  (1) 
-5.45873499

>  <minimizedRMSD>  (1) 
1.01713085

$$$$
