
     RDKit          3D

 48 51  0  0  1  0  0  0  0  0999 V2000
   46.6750   33.3020   45.1050 C   0  0  0  0  0  0  0  0  0  0  0  0
   45.7100   34.1600   44.3640 C   0  0  0  0  0  0  0  0  0  0  0  0
   44.9780   35.0880   45.0490 C   0  0  0  0  0  0  0  0  0  0  0  0
   44.1740   35.7480   44.1580 C   0  0  0  0  0  0  0  0  0  0  0  0
   44.4810   35.1590   42.9530 N   0  0  0  0  0  0  0  0  0  0  0  0
   45.3890   34.2180   43.0640 N   0  0  0  0  0  0  0  0  0  0  0  0
   44.4010   34.7050   40.5900 N   0  0  0  0  0  0  0  0  0  0  0  0
   43.2690   34.2630   39.8150 C   0  0  0  0  0  0  0  0  0  0  0  0
   42.2110   34.0320   40.9070 C   0  0  0  0  0  0  0  0  0  0  0  0
   42.3760   35.3060   41.7100 C   0  0  0  0  0  0  0  0  0  0  0  0
   43.8780   35.5180   41.6650 C   0  0  1  0  0  0  0  0  0  0  0  0
   46.0820   31.9780   45.2980 C   0  0  2  0  0  0  0  0  0  0  0  0
   45.8200   32.2020   48.9820 C   0  0  0  0  0  0  0  0  0  0  0  0
   45.3960   30.8700   49.3170 C   0  0  0  0  0  0  0  0  0  0  0  0
   45.2170   29.9240   48.2550 C   0  0  0  0  0  0  0  0  0  0  0  0
   45.4620   30.3500   46.9750 N   0  0  0  0  0  0  0  0  0  0  0  0
   45.8540   31.5970   46.7170 C   0  0  0  0  0  0  0  0  0  0  0  0
   46.0320   32.5180   47.7090 N   0  0  0  0  0  0  0  0  0  0  0  0
   46.8360   30.8380   44.6150 C   0  0  0  0  0  0  0  0  0  0  0  0
   47.4150   31.1480   43.3610 N   0  0  0  0  0  0  0  0  0  0  0  0
   48.6420   31.5880   43.0520 C   0  0  0  0  0  0  0  0  0  0  0  0
   49.0570   31.8330   41.7600 C   0  0  0  0  0  0  0  0  0  0  0  0
   48.1930   31.6230   40.7040 C   0  0  0  0  0  0  0  0  0  0  0  0
   48.6100   31.8570   39.5380 O   0  0  0  0  0  0  0  0  0  0  0  0
   46.9620   31.1790   41.0200 N   0  0  0  0  0  0  0  0  0  0  0  0
   46.5880   30.9520   42.2920 C   0  0  0  0  0  0  0  0  0  0  0  0
   45.3920   30.5350   42.4200 O   0  0  0  0  0  0  0  0  0  0  0  0
   46.8951   33.7540   46.0834 H   0  0  0  0  0  0  0  0  0  0  0  0
   47.6094   33.2116   44.5316 H   0  0  0  0  0  0  0  0  0  0  0  0
   45.0261   35.2736   46.1322 H   0  0  0  0  0  0  0  0  0  0  0  0
   43.4547   36.5559   44.3580 H   0  0  0  0  0  0  0  0  0  0  0  0
   45.0380   35.2613   40.0021 H   0  0  0  0  0  0  0  0  0  0  0  0
   42.9460   35.0353   39.1014 H   0  0  0  0  0  0  0  0  0  0  0  0
   43.4716   33.3763   39.1963 H   0  0  0  0  0  0  0  0  0  0  0  0
   41.1997   33.9451   40.4832 H   0  0  0  0  0  0  0  0  0  0  0  0
   42.3358   33.1030   41.4827 H   0  0  0  0  0  0  0  0  0  0  0  0
   41.8402   36.1450   41.2422 H   0  0  0  0  0  0  0  0  0  0  0  0
   41.9684   35.2423   42.7297 H   0  0  0  0  0  0  0  0  0  0  0  0
   44.1202   36.5752   41.4817 H   0  0  0  0  0  0  0  0  0  0  0  0
   45.1063   32.1059   44.8064 H   0  0  0  0  0  0  0  0  0  0  0  0
   45.9676   32.9528   49.7723 H   0  0  0  0  0  0  0  0  0  0  0  0
   45.2133   30.5835   50.3632 H   0  0  0  0  0  0  0  0  0  0  0  0
   44.8944   28.8925   48.4598 H   0  0  0  0  0  0  0  0  0  0  0  0
   47.6431   30.5153   45.2891 H   0  0  0  0  0  0  0  0  0  0  0  0
   46.0844   30.0605   44.4136 H   0  0  0  0  0  0  0  0  0  0  0  0
   49.3552   31.7629   43.8710 H   0  0  0  0  0  0  0  0  0  0  0  0
   50.0779   32.1963   41.5706 H   0  0  0  0  0  0  0  0  0  0  0  0
   46.2846   31.0076   40.2633 H   0  0  0  0  0  0  0  0  0  0  0  0
  1 12  1  0
  2  3  1  0
  2  1  1  0
  4  3  2  0
  5  6  1  0
  5  4  1  0
  6  2  2  0
  7 11  1  0
  8  7  1  0
  8  9  1  0
  9 10  1  0
 11 10  1  0
 11  5  1  0
 12 17  1  0
 13 14  2  0
 15 14  1  0
 16 15  2  0
 17 16  1  0
 17 18  2  0
 18 13  1  0
 19 12  1  0
 20 19  1  0
 21 20  1  0
 22 21  2  0
 23 25  1  0
 23 22  1  0
 24 23  2  0
 25 26  1  0
 26 27  2  0
 26 20  1  0
  1 28  1  0
  1 29  1  0
  3 30  1  0
  4 31  1  0
  7 32  1  0
  8 33  1  0
  8 34  1  0
  9 35  1  0
  9 36  1  0
 10 37  1  0
 10 38  1  0
 11 39  1  6
 12 40  1  6
 13 41  1  0
 14 42  1  0
 15 43  1  0
 19 44  1  0
 19 45  1  0
 21 46  1  0
 22 47  1  0
 25 48  1  0
M  ISO  8  28   8  29   8  30  14  31  14  32   5  33  13  34  13  35  13
M  ISO  8  36  13  37  13  38  13  39  13  40   8  41  14  42  14  43  14
M  ISO  5  44   8  45   8  46  14  47  14  48   9
M  END
>  <minimizedAffinity>  (1) 
-5.40922737

>  <minimizedRMSD>  (1) 
0.931430221

$$$$
