
     RDKit          3D

 50 53  0  0  1  0  0  0  0  0999 V2000
   46.7140   33.2540   45.0660 C   0  0  0  0  0  0  0  0  0  0  0  0
   45.7430   34.1260   44.3600 C   0  0  0  0  0  0  0  0  0  0  0  0
   45.0100   35.0270   45.0630 C   0  0  0  0  0  0  0  0  0  0  0  0
   44.1950   35.6920   44.1840 C   0  0  0  0  0  0  0  0  0  0  0  0
   44.4930   35.1350   42.9620 N   0  0  0  0  0  0  0  0  0  0  0  0
   45.4070   34.2050   43.0460 N   0  0  0  0  0  0  0  0  0  0  0  0
   44.4090   34.7110   40.5920 N   0  0  0  0  0  0  0  0  0  0  0  0
   43.2780   34.2560   39.8090 C   0  0  0  0  0  0  0  0  0  0  0  0
   42.2260   34.0170   40.9070 C   0  0  0  0  0  0  0  0  0  0  0  0
   42.3880   35.2890   41.7190 C   0  0  0  0  0  0  0  0  0  0  0  0
   43.8820   35.4960   41.6770 C   0  0  1  0  0  0  0  0  0  0  0  0
   46.0970   31.9470   45.3190 C   0  0  2  0  0  0  0  0  0  0  0  0
   45.8420   32.2440   48.9770 C   0  0  0  0  0  0  0  0  0  0  0  0
   45.3820   30.9230   49.3340 C   0  0  0  0  0  0  0  0  0  0  0  0
   45.1860   29.9680   48.2870 C   0  0  0  0  0  0  0  0  0  0  0  0
   45.4410   30.3600   47.0070 N   0  0  0  0  0  0  0  0  0  0  0  0
   45.8690   31.6080   46.7300 C   0  0  0  0  0  0  0  0  0  0  0  0
   46.0680   32.5400   47.6940 N   0  0  0  0  0  0  0  0  0  0  0  0
   46.8980   30.8180   44.6420 C   0  0  0  0  0  0  0  0  0  0  0  0
   47.5910   31.2570   43.4670 N   0  0  0  0  0  0  0  0  0  0  0  0
   46.9520   30.8860   42.2330 C   0  0  0  0  0  0  0  0  0  0  0  0
   47.3590   29.4080   42.0710 C   0  0  0  0  0  0  0  0  0  0  0  0
   48.8300   29.5100   42.4050 C   0  0  0  0  0  0  0  0  0  0  0  0
   48.8750   30.5760   43.4550 C   0  0  0  0  0  0  0  0  0  0  0  0
   46.9970   33.7181   46.0223 H   0  0  0  0  0  0  0  0  0  0  0  0
   47.6121   33.1235   44.4443 H   0  0  0  0  0  0  0  0  0  0  0  0
   45.0612   35.1943   46.1490 H   0  0  0  0  0  0  0  0  0  0  0  0
   43.4692   36.4884   44.4051 H   0  0  0  0  0  0  0  0  0  0  0  0
   45.0335   35.2870   40.0096 H   0  0  0  0  0  0  0  0  0  0  0  0
   42.9472   35.0248   39.0952 H   0  0  0  0  0  0  0  0  0  0  0  0
   43.4874   33.3735   39.1867 H   0  0  0  0  0  0  0  0  0  0  0  0
   41.2130   33.9281   40.4876 H   0  0  0  0  0  0  0  0  0  0  0  0
   42.3594   33.0862   41.4778 H   0  0  0  0  0  0  0  0  0  0  0  0
   41.8541   36.1311   41.2544 H   0  0  0  0  0  0  0  0  0  0  0  0
   41.9767   35.2222   42.7370 H   0  0  0  0  0  0  0  0  0  0  0  0
   44.1193   36.5565   41.5065 H   0  0  0  0  0  0  0  0  0  0  0  0
   45.0953   32.0397   44.8740 H   0  0  0  0  0  0  0  0  0  0  0  0
   46.0055   33.0024   49.7568 H   0  0  0  0  0  0  0  0  0  0  0  0
   45.1873   30.6577   50.3836 H   0  0  0  0  0  0  0  0  0  0  0  0
   44.8398   28.9477   48.5086 H   0  0  0  0  0  0  0  0  0  0  0  0
   47.6351   30.4302   45.3606 H   0  0  0  0  0  0  0  0  0  0  0  0
   46.1817   30.0422   44.3339 H   0  0  0  0  0  0  0  0  0  0  0  0
   45.8594   30.9908   42.3050 H   0  0  0  0  0  0  0  0  0  0  0  0
   47.2485   31.5161   41.3815 H   0  0  0  0  0  0  0  0  0  0  0  0
   46.8232   28.7561   42.7767 H   0  0  0  0  0  0  0  0  0  0  0  0
   47.1337   28.9677   41.0885 H   0  0  0  0  0  0  0  0  0  0  0  0
   49.2117   28.5556   42.7966 H   0  0  0  0  0  0  0  0  0  0  0  0
   49.4537   29.7434   41.5295 H   0  0  0  0  0  0  0  0  0  0  0  0
   49.0647   30.1218   44.4387 H   0  0  0  0  0  0  0  0  0  0  0  0
   49.6819   31.2908   43.2360 H   0  0  0  0  0  0  0  0  0  0  0  0
  1 12  1  0
  2  3  1  0
  2  1  1  0
  4  3  2  0
  5  6  1  0
  5  4  1  0
  6  2  2  0
  7 11  1  0
  8  7  1  0
  8  9  1  0
  9 10  1  0
 11 10  1  0
 11  5  1  0
 12 17  1  0
 13 14  2  0
 15 14  1  0
 16 15  2  0
 17 16  1  0
 17 18  2  0
 18 13  1  0
 19 12  1  0
 20 19  1  0
 21 20  1  0
 22 21  1  0
 22 23  1  0
 23 24  1  0
 24 20  1  0
  1 25  1  0
  1 26  1  0
  3 27  1  0
  4 28  1  0
  7 29  1  0
  8 30  1  0
  8 31  1  0
  9 32  1  0
  9 33  1  0
 10 34  1  0
 10 35  1  0
 11 36  1  6
 12 37  1  6
 13 38  1  0
 14 39  1  0
 15 40  1  0
 19 41  1  0
 19 42  1  0
 21 43  1  0
 21 44  1  0
 22 45  1  0
 22 46  1  0
 23 47  1  0
 23 48  1  0
 24 49  1  0
 24 50  1  0
M  ISO  8  25   8  26   8  27  14  28  14  29   5  30  13  31  13  32  13
M  ISO  8  33  13  34  13  35  13  36  13  37   8  38  14  39  14  40  14
M  ISO  8  41   8  42   8  43  13  44  13  45  13  46  13  47  13  48  13
M  ISO  2  49  13  50  13
M  END
>  <minimizedAffinity>  (1) 
-5.0250535

>  <minimizedRMSD>  (1) 
0.748504758

$$$$
