
     RDKit          3D

 37 39  0  0  0  0  0  0  0  0999 V2000
   47.3170   34.1780   40.1580 C   0  0  0  0  0  0  0  0  0  0  0  0
   46.6550   34.4420   41.3600 C   0  0  0  0  0  0  0  0  0  0  0  0
   47.0780   33.9930   42.6100 C   0  0  0  0  0  0  0  0  0  0  0  0
   48.1910   33.2860   42.4720 N   0  0  0  0  0  0  0  0  0  0  0  0
   48.8690   32.9940   41.3970 C   0  0  0  0  0  0  0  0  0  0  0  0
   48.4300   33.4440   40.2180 N   0  0  0  0  0  0  0  0  0  0  0  0
   46.1940   34.4240   43.6900 C   0  0  0  0  0  0  0  0  0  0  0  0
   45.3990   35.4990   43.6220 N   0  0  0  0  0  0  0  0  0  0  0  0
   44.5940   35.9040   44.6060 C   0  0  0  0  0  0  0  0  0  0  0  0
   44.5480   35.2130   45.7660 N   0  0  0  0  0  0  0  0  0  0  0  0
   45.3070   34.1170   45.9390 C   0  0  0  0  0  0  0  0  0  0  0  0
   45.2380   33.4360   47.1150 C   0  0  0  0  0  0  0  0  0  0  0  0
   46.0100   32.2990   47.3110 C   0  0  0  0  0  0  0  0  0  0  0  0
   46.8310   31.8960   46.2880 C   0  0  0  0  0  0  0  0  0  0  0  0
   46.8510   32.6300   45.1260 C   0  0  0  0  0  0  0  0  0  0  0  0
   46.1190   33.7500   44.8800 C   0  0  0  0  0  0  0  0  0  0  0  0
   50.0830   32.1720   41.6120 C   0  0  0  0  0  0  0  0  0  0  0  0
   50.6440   31.7490   40.2720 C   0  0  0  0  0  0  0  0  0  0  0  0
   51.1640   33.0780   42.2410 C   0  0  0  0  0  0  0  0  0  0  0  0
   49.8480   30.9760   42.5020 C   0  0  0  0  0  0  0  0  0  0  0  0
   48.9530   29.7320   41.5370 S   0  0  0  0  0  0  0  0  0  0  0  0
   46.9356   34.5603   39.1997 H   0  0  0  0  0  0  0  0  0  0  0  0
   45.7366   35.0459   41.3168 H   0  0  0  0  0  0  0  0  0  0  0  0
   43.9687   36.7992   44.4729 H   0  0  0  0  0  0  0  0  0  0  0  0
   44.5680   33.7877   47.9134 H   0  0  0  0  0  0  0  0  0  0  0  0
   45.9650   31.7388   48.2566 H   0  0  0  0  0  0  0  0  0  0  0  0
   47.4619   31.0014   46.3959 H   0  0  0  0  0  0  0  0  0  0  0  0
   47.5180   32.2809   44.3240 H   0  0  0  0  0  0  0  0  0  0  0  0
   51.5133   31.0935   40.4289 H   0  0  0  0  0  0  0  0  0  0  0  0
   49.8725   31.2058   39.7065 H   0  0  0  0  0  0  0  0  0  0  0  0
   50.9540   32.6401   39.7065 H   0  0  0  0  0  0  0  0  0  0  0  0
   51.0969   33.0218   43.3375 H   0  0  0  0  0  0  0  0  0  0  0  0
   52.1594   32.7404   41.9168 H   0  0  0  0  0  0  0  0  0  0  0  0
   51.0056   34.1171   41.9168 H   0  0  0  0  0  0  0  0  0  0  0  0
   50.8114   30.5657   42.8389 H   0  0  0  0  0  0  0  0  0  0  0  0
   49.2646   31.2663   43.3882 H   0  0  0  0  0  0  0  0  0  0  0  0
   48.3254   28.8596   42.3867 H   0  0  0  0  0  0  0  0  0  0  0  0
  1  6  2  0
  1  2  1  0
  2  3  2  0
  3  7  1  0
  4  3  1  0
  5 17  1  0
  5  4  2  0
  6  5  1  0
  7 16  1  0
  8  7  2  0
  8  9  1  0
  9 10  2  0
 10 11  1  0
 11 12  2  0
 12 13  1  0
 14 13  2  0
 15 14  1  0
 16 15  2  0
 16 11  1  0
 17 19  1  0
 17 20  1  0
 18 17  1  0
 21 20  1  0
  1 22  1  0
  2 23  1  0
  9 24  1  0
 12 25  1  0
 13 26  1  0
 14 27  1  0
 15 28  1  0
 18 29  1  0
 18 30  1  0
 18 31  1  0
 19 32  1  0
 19 33  1  0
 19 34  1  0
 20 35  1  0
 20 36  1  0
 21 37  1  0
M  ISO  8  22  14  23  14  24  14  25  14  26  14  27  14  28  14  29   8
M  ISO  8  30   8  31   8  32   8  33   8  34   8  35   8  36   8  37  11
M  END
>  <minimizedAffinity>  (1) 
-5.34719849

>  <minimizedRMSD>  (1) 
0.106834367

$$$$
