
     RDKit          3D

 37 40  0  0  1  0  0  0  0  0999 V2000
   44.4590   36.1060   44.8210 C   0  0  0  0  0  0  0  0  0  0  0  0
   44.9200   36.2390   43.4920 C   0  0  0  0  0  0  0  0  0  0  0  0
   45.7780   35.2550   42.9830 C   0  0  0  0  0  0  0  0  0  0  0  0
   46.1310   34.2040   43.8020 N   0  0  0  0  0  0  0  0  0  0  0  0
   45.6660   34.1190   45.0620 C   0  0  0  0  0  0  0  0  0  0  0  0
   44.8400   35.0500   45.5790 N   0  0  0  0  0  0  0  0  0  0  0  0
   46.0730   33.0060   45.8490 N   0  0  0  0  0  0  0  0  0  0  0  0
   45.3180   32.7840   47.0760 C   0  0  0  0  0  0  0  0  0  0  0  0
   45.9150   31.7430   47.9710 C   0  0  0  0  0  0  0  0  0  0  0  0
   47.2020   31.3780   47.6040 O   0  0  0  0  0  0  0  0  0  0  0  0
   47.1440   30.9070   46.3030 C   0  0  0  0  0  0  0  0  0  0  0  0
   47.1730   32.1590   45.4350 C   0  0  1  0  0  0  0  0  0  0  0  0
   47.2360   31.8850   44.0450 N   0  0  0  0  0  0  0  0  0  0  0  0
   46.3070   31.2040   43.3180 C   0  0  0  0  0  0  0  0  0  0  0  0
   46.6580   31.1090   42.0080 N   0  0  0  0  0  0  0  0  0  0  0  0
   47.8360   31.7460   41.9140 C   0  0  0  0  0  0  0  0  0  0  0  0
   48.6100   31.9280   40.7850 C   0  0  0  0  0  0  0  0  0  0  0  0
   48.2570   31.4810   39.6640 O   0  0  0  0  0  0  0  0  0  0  0  0
   49.7780   32.6070   40.9060 N   0  0  0  0  0  0  0  0  0  0  0  0
   50.1040   33.0630   42.1330 C   0  0  0  0  0  0  0  0  0  0  0  0
   51.3350   33.7660   42.2040 N   0  0  0  0  0  0  0  0  0  0  0  0
   49.3290   32.8750   43.2360 N   0  0  0  0  0  0  0  0  0  0  0  0
   48.1750   32.2150   43.1720 C   0  0  0  0  0  0  0  0  0  0  0  0
   43.7853   36.8661   45.2435 H   0  0  0  0  0  0  0  0  0  0  0  0
   44.6128   37.0942   42.8720 H   0  0  0  0  0  0  0  0  0  0  0  0
   46.1609   35.3198   41.9538 H   0  0  0  0  0  0  0  0  0  0  0  0
   45.2703   33.7327   47.6307 H   0  0  0  0  0  0  0  0  0  0  0  0
   44.3232   32.4202   46.7794 H   0  0  0  0  0  0  0  0  0  0  0  0
   45.9433   32.1388   48.9969 H   0  0  0  0  0  0  0  0  0  0  0  0
   45.2857   30.8443   47.8913 H   0  0  0  0  0  0  0  0  0  0  0  0
   48.0092   30.2638   46.0847 H   0  0  0  0  0  0  0  0  0  0  0  0
   46.2472   30.2964   46.1217 H   0  0  0  0  0  0  0  0  0  0  0  0
   48.1119   32.7094   45.5946 H   0  0  0  0  0  0  0  0  0  0  0  0
   45.3833   30.7815   43.7403 H   0  0  0  0  0  0  0  0  0  0  0  0
   50.3910   32.7679   40.0941 H   0  0  0  0  0  0  0  0  0  0  0  0
   51.6588   34.1478   43.1041 H   0  0  0  0  0  0  0  0  0  0  0  0
   51.9045   33.8943   41.3554 H   0  0  0  0  0  0  0  0  0  0  0  0
  1  6  2  0
  2  1  1  0
  3  2  2  0
  3  4  1  0
  4  5  2  0
  5  6  1  0
  5  7  1  0
  7  8  1  0
  8  9  1  0
 10  9  1  0
 11 10  1  0
 12  7  1  0
 12 11  1  0
 13 12  1  0
 14 13  1  0
 15 14  2  0
 16 15  1  0
 16 23  2  0
 17 19  1  0
 17 16  1  0
 18 17  2  0
 19 20  1  0
 20 21  1  0
 20 22  2  0
 23 22  1  0
 23 13  1  0
  1 24  1  0
  2 25  1  0
  3 26  1  0
  8 27  1  0
  8 28  1  0
  9 29  1  0
  9 30  1  0
 11 31  1  0
 11 32  1  0
 12 33  1  1
 14 34  1  0
 19 35  1  0
 21 36  1  0
 21 37  1  0
M  ISO  8  24  14  25  14  26  14  27  13  28  13  29  13  30  13  31  13
M  ISO  4  32  13  33  13  34  14  35   9
M  END
>  <minimizedAffinity>  (1) 
-5.80255318

>  <minimizedRMSD>  (1) 
1.20115983

$$$$
