
     RDKit          3D

 36 38  0  0  1  0  0  0  0  0999 V2000
   44.4370   36.0940   44.7900 C   0  0  0  0  0  0  0  0  0  0  0  0
   44.8560   36.0840   43.4240 C   0  0  0  0  0  0  0  0  0  0  0  0
   45.6630   35.0430   42.9910 C   0  0  0  0  0  0  0  0  0  0  0  0
   46.0090   34.0870   43.8960 N   0  0  0  0  0  0  0  0  0  0  0  0
   45.6110   34.1070   45.1710 C   0  0  0  0  0  0  0  0  0  0  0  0
   44.8270   35.1020   45.6280 N   0  0  0  0  0  0  0  0  0  0  0  0
   46.0230   33.0660   46.0430 N   0  0  0  0  0  0  0  0  0  0  0  0
   45.2530   32.9170   47.2740 C   0  0  0  0  0  0  0  0  0  0  0  0
   45.8600   31.9680   48.2510 C   0  0  0  0  0  0  0  0  0  0  0  0
   47.1340   31.5740   47.9220 O   0  0  0  0  0  0  0  0  0  0  0  0
   47.1060   31.0080   46.6450 C   0  0  0  0  0  0  0  0  0  0  0  0
   47.1450   32.2160   45.7040 C   0  0  1  0  0  0  0  0  0  0  0  0
   47.2290   31.8530   44.3250 N   0  0  0  0  0  0  0  0  0  0  0  0
   48.2610   32.3460   43.6160 C   0  0  0  0  0  0  0  0  0  0  0  0
   48.3590   32.0050   42.2790 C   0  0  0  0  0  0  0  0  0  0  0  0
   49.5060   32.5460   41.4720 C   0  0  0  0  0  0  0  0  0  0  0  0
   47.3860   31.1670   41.7280 C   0  0  0  0  0  0  0  0  0  0  0  0
   47.4780   30.8580   40.5080 O   0  0  0  0  0  0  0  0  0  0  0  0
   46.3710   30.6970   42.4730 N   0  0  0  0  0  0  0  0  0  0  0  0
   46.2870   31.0370   43.7720 C   0  0  0  0  0  0  0  0  0  0  0  0
   45.3200   30.5840   44.4650 O   0  0  0  0  0  0  0  0  0  0  0  0
   43.7971   36.9076   45.1623 H   0  0  0  0  0  0  0  0  0  0  0  0
   44.5461   36.8821   42.7333 H   0  0  0  0  0  0  0  0  0  0  0  0
   46.0125   34.9914   41.9493 H   0  0  0  0  0  0  0  0  0  0  0  0
   45.1709   33.9035   47.7536 H   0  0  0  0  0  0  0  0  0  0  0  0
   44.2733   32.5040   46.9917 H   0  0  0  0  0  0  0  0  0  0  0  0
   45.8915   32.4569   49.2359 H   0  0  0  0  0  0  0  0  0  0  0  0
   45.2343   31.0633   48.2503 H   0  0  0  0  0  0  0  0  0  0  0  0
   47.9801   30.3595   46.4854 H   0  0  0  0  0  0  0  0  0  0  0  0
   46.2228   30.3728   46.4825 H   0  0  0  0  0  0  0  0  0  0  0  0
   48.0739   32.7868   45.8504 H   0  0  0  0  0  0  0  0  0  0  0  0
   49.0070   33.0028   44.0872 H   0  0  0  0  0  0  0  0  0  0  0  0
   50.2894   32.9155   42.1501 H   0  0  0  0  0  0  0  0  0  0  0  0
   49.9171   31.7469   40.8377 H   0  0  0  0  0  0  0  0  0  0  0  0
   49.1509   33.3715   40.8377 H   0  0  0  0  0  0  0  0  0  0  0  0
   45.6616   30.0802   42.0520 H   0  0  0  0  0  0  0  0  0  0  0  0
  1  6  2  0
  2  1  1  0
  3  2  2  0
  3  4  1  0
  4  5  2  0
  5  6  1  0
  5  7  1  0
  7  8  1  0
  8  9  1  0
 10  9  1  0
 11 10  1  0
 12  7  1  0
 12 11  1  0
 13 12  1  0
 14 13  1  0
 15 14  2  0
 16 15  1  0
 17 15  1  0
 17 19  1  0
 18 17  2  0
 19 20  1  0
 20 13  1  0
 20 21  2  0
  1 22  1  0
  2 23  1  0
  3 24  1  0
  8 25  1  0
  8 26  1  0
  9 27  1  0
  9 28  1  0
 11 29  1  0
 11 30  1  0
 12 31  1  1
 14 32  1  0
 16 33  1  0
 16 34  1  0
 16 35  1  0
 19 36  1  0
M  ISO  8  22  14  23  14  24  14  25  13  26  13  27  13  28  13  29  13
M  ISO  7  30  13  31  13  32  14  33   8  34   8  35   8  36   9
M  END
>  <minimizedAffinity>  (1) 
-4.91980553

>  <minimizedRMSD>  (1) 
1.22465897

$$$$
