
     RDKit          3D

 30 32  0  0  1  0  0  0  0  0999 V2000
   44.4630   35.9530   44.8040 C   0  0  0  0  0  0  0  0  0  0  0  0
   45.0070   35.8830   43.4970 C   0  0  0  0  0  0  0  0  0  0  0  0
   45.8620   34.8230   43.2150 C   0  0  0  0  0  0  0  0  0  0  0  0
   46.1220   33.9240   44.2040 N   0  0  0  0  0  0  0  0  0  0  0  0
   45.5990   34.0090   45.4280 C   0  0  0  0  0  0  0  0  0  0  0  0
   44.7760   35.0180   45.7210 N   0  0  0  0  0  0  0  0  0  0  0  0
   45.9280   33.0260   46.3940 N   0  0  0  0  0  0  0  0  0  0  0  0
   45.1220   33.0450   47.6130 C   0  0  0  0  0  0  0  0  0  0  0  0
   45.5810   32.0700   48.6480 C   0  0  0  0  0  0  0  0  0  0  0  0
   46.8250   31.5270   48.3760 O   0  0  0  0  0  0  0  0  0  0  0  0
   46.7630   30.9290   47.1300 C   0  0  0  0  0  0  0  0  0  0  0  0
   47.0040   32.0710   46.1590 C   0  0  1  0  0  0  0  0  0  0  0  0
   47.1030   31.6190   44.7630 C   0  0  0  0  0  0  0  0  0  0  0  0
   46.2130   30.7320   44.1470 C   0  0  0  0  0  0  0  0  0  0  0  0
   46.5690   30.4980   42.8280 C   0  0  0  0  0  0  0  0  0  0  0  0
   47.6660   31.2530   42.6780 N   0  0  0  0  0  0  0  0  0  0  0  0
   47.9650   31.8930   43.7950 N   0  0  0  0  0  0  0  0  0  0  0  0
   43.7821   36.7748   45.0704 H   0  0  0  0  0  0  0  0  0  0  0  0
   44.7624   36.6379   42.7352 H   0  0  0  0  0  0  0  0  0  0  0  0
   46.3163   34.7138   42.2192 H   0  0  0  0  0  0  0  0  0  0  0  0
   45.1664   34.0562   48.0437 H   0  0  0  0  0  0  0  0  0  0  0  0
   44.0994   32.7564   47.3285 H   0  0  0  0  0  0  0  0  0  0  0  0
   45.6304   32.5875   49.6174 H   0  0  0  0  0  0  0  0  0  0  0  0
   44.8586   31.2405   48.6569 H   0  0  0  0  0  0  0  0  0  0  0  0
   47.5413   30.1584   47.0275 H   0  0  0  0  0  0  0  0  0  0  0  0
   45.8041   30.4197   46.9533 H   0  0  0  0  0  0  0  0  0  0  0  0
   47.9802   32.5469   46.3337 H   0  0  0  0  0  0  0  0  0  0  0  0
   45.3432   30.2790   44.6452 H   0  0  0  0  0  0  0  0  0  0  0  0
   46.0737   29.8525   42.0877 H   0  0  0  0  0  0  0  0  0  0  0  0
   48.2067   31.3252   41.8043 H   0  0  0  0  0  0  0  0  0  0  0  0
  1  6  2  0
  2  1  1  0
  3  2  2  0
  3  4  1  0
  4  5  2  0
  5  6  1  0
  5  7  1  0
  7  8  1  0
  8  9  1  0
 10  9  1  0
 11 10  1  0
 12  7  1  0
 12 11  1  0
 13 12  1  0
 14 13  1  0
 15 14  2  0
 16 15  1  0
 16 17  1  0
 17 13  2  0
  1 18  1  0
  2 19  1  0
  3 20  1  0
  8 21  1  0
  8 22  1  0
  9 23  1  0
  9 24  1  0
 11 25  1  0
 11 26  1  0
 12 27  1  1
 14 28  1  0
 15 29  1  0
 16 30  1  0
M  ISO  8  18  14  19  14  20  14  21  13  22  13  23  13  24  13  25  13
M  ISO  5  26  13  27  13  28  14  29  14  30   9
M  END
>  <minimizedAffinity>  (1) 
-4.68591356

>  <minimizedRMSD>  (1) 
0.723884463

$$$$
