
     RDKit          3D

 30 32  0  0  0  0  0  0  0  0999 V2000
   43.5240   33.9460   41.3040 C   0  0  0  0  0  0  0  0  0  0  0  0
   44.4740   33.4540   40.4890 C   0  0  0  0  0  0  0  0  0  0  0  0
   45.7870   32.9550   41.6490 S   0  0  0  0  0  0  0  0  0  0  0  0
   44.7460   33.5390   43.1210 C   0  0  0  0  0  0  0  0  0  0  0  0
   43.7920   33.9250   42.5710 N   0  0  0  0  0  0  0  0  0  0  0  0
   45.3320   33.3770   44.4190 N   0  0  0  0  0  0  0  0  0  0  0  0
   46.7160   33.4050   44.6620 C   0  0  0  0  0  0  0  0  0  0  0  0
   47.4450   34.0380   43.7860 N   0  0  0  0  0  0  0  0  0  0  0  0
   47.1390   32.7270   45.8500 N   0  0  0  0  0  0  0  0  0  0  0  0
   48.4770   34.0430   43.9690 H   0  0  0  0  0  0  0  0  0  0  0  0
   40.4240   36.0810   40.6840 C   0  0  0  0  0  0  0  0  0  0  0  0
   41.6270   35.6270   41.2530 C   0  0  0  0  0  0  0  0  0  0  0  0
   42.2560   34.4740   40.7480 C   0  0  0  0  0  0  0  0  0  0  0  0
   41.6150   33.8900   39.7200 N   0  0  0  0  0  0  0  0  0  0  0  0
   40.4630   34.3080   39.1630 C   0  0  0  0  0  0  0  0  0  0  0  0
   39.8860   35.4120   39.6670 N   0  0  0  0  0  0  0  0  0  0  0  0
   39.8880   33.5410   38.0300 C   0  0  0  0  0  0  0  0  0  0  0  0
   38.8360   32.5230   38.4260 C   0  0  0  0  0  0  0  0  0  0  0  0
   38.4940   33.7690   37.5790 C   0  0  0  0  0  0  0  0  0  0  0  0
   44.4613   33.3729   39.3921 H   0  0  0  0  0  0  0  0  0  0  0  0
   44.7019   33.2315   45.2207 H   0  0  0  0  0  0  0  0  0  0  0  0
   48.1378   32.7011   46.1002 H   0  0  0  0  0  0  0  0  0  0  0  0
   46.4445   32.2652   46.4544 H   0  0  0  0  0  0  0  0  0  0  0  0
   39.9311   36.9826   41.0766 H   0  0  0  0  0  0  0  0  0  0  0  0
   42.0772   36.1741   42.0944 H   0  0  0  0  0  0  0  0  0  0  0  0
   40.8404   33.5415   37.4796 H   0  0  0  0  0  0  0  0  0  0  0  0
   38.8314   31.5223   37.9693 H   0  0  0  0  0  0  0  0  0  0  0  0
   38.4756   32.0857   39.3688 H   0  0  0  0  0  0  0  0  0  0  0  0
   37.9011   34.5856   38.0168 H   0  0  0  0  0  0  0  0  0  0  0  0
   38.0096   33.9386   36.6061 H   0  0  0  0  0  0  0  0  0  0  0  0
  1  5  1  0
  2  1  2  0
  2  3  1  0
  3  4  1  0
  4  6  1  0
  5  4  2  0
  6  7  1  0
  7  9  1  0
  8 10  1  0
  8  7  2  0
 11 12  2  0
 13 12  1  0
 13  1  1  0
 14 13  2  0
 15 16  2  0
 15 14  1  0
 16 11  1  0
 17 18  1  0
 17 15  1  0
 19 17  1  0
 19 18  1  0
  2 20  1  0
  6 21  1  0
  9 22  1  0
  9 23  1  0
 11 24  1  0
 12 25  1  0
 17 26  1  0
 18 27  1  0
 18 28  1  0
 19 29  1  0
 19 30  1  0
M  ISO  8  20  14  24  14  25  14  26  13  27  13  28  13  29  13  30  13
M  END
>  <minimizedAffinity>  (1) 
-5.30613756

>  <minimizedRMSD>  (1) 
1.20302618

$$$$
