
     RDKit          3D

 32 34  0  0  1  0  0  0  0  0999 V2000
   44.5160   35.8990   44.7550 C   0  0  0  0  0  0  0  0  0  0  0  0
   44.8410   35.6650   43.4010 C   0  0  0  0  0  0  0  0  0  0  0  0
   45.4930   34.4810   43.1000 C   0  0  0  0  0  0  0  0  0  0  0  0
   45.7790   33.6190   44.1160 N   0  0  0  0  0  0  0  0  0  0  0  0
   45.4600   33.8650   45.3880 C   0  0  0  0  0  0  0  0  0  0  0  0
   44.8340   34.9940   45.7070 N   0  0  0  0  0  0  0  0  0  0  0  0
   45.7920   32.9130   46.3790 N   0  0  0  0  0  0  0  0  0  0  0  0
   45.2090   33.1330   47.6910 C   0  0  0  0  0  0  0  0  0  0  0  0
   45.6050   32.1290   48.7180 C   0  0  0  0  0  0  0  0  0  0  0  0
   46.7940   31.4890   48.3800 O   0  0  0  0  0  0  0  0  0  0  0  0
   46.5340   30.7890   47.1940 C   0  0  0  0  0  0  0  0  0  0  0  0
   46.6570   31.7980   46.0890 C   0  0  1  0  0  0  0  0  0  0  0  0
   46.5460   31.2490   44.7790 N   0  0  0  0  0  0  0  0  0  0  0  0
   47.8460   31.1490   44.1720 C   0  0  0  0  0  0  0  0  0  0  0  0
   48.5240   29.8370   44.2740 C   0  0  0  0  0  0  0  0  0  0  0  0
   47.8380   28.8550   44.9310 O   0  0  0  0  0  0  0  0  0  0  0  0
   46.5050   28.7750   44.6280 C   0  0  0  0  0  0  0  0  0  0  0  0
   45.7590   30.0580   44.6800 C   0  0  0  0  0  0  0  0  0  0  0  0
   43.9986   36.8276   45.0379 H   0  0  0  0  0  0  0  0  0  0  0  0
   44.5866   36.3936   42.6171 H   0  0  0  0  0  0  0  0  0  0  0  0
   45.7738   34.2416   42.0638 H   0  0  0  0  0  0  0  0  0  0  0  0
   45.5212   34.1270   48.0437 H   0  0  0  0  0  0  0  0  0  0  0  0
   44.1195   33.0433   47.5688 H   0  0  0  0  0  0  0  0  0  0  0  0
   45.7367   32.6394   49.6835 H   0  0  0  0  0  0  0  0  0  0  0  0
   44.8118   31.3694   48.7790 H   0  0  0  0  0  0  0  0  0  0  0  0
   47.2671   29.9803   47.0578 H   0  0  0  0  0  0  0  0  0  0  0  0
   45.5375   30.3234   47.2085 H   0  0  0  0  0  0  0  0  0  0  0  0
   47.6875   32.1822   46.0649 H   0  0  0  0  0  0  0  0  0  0  0  0
   48.3122   32.0029   43.6587 H   0  0  0  0  0  0  0  0  0  0  0  0
   49.5221   29.6629   43.8457 H   0  0  0  0  0  0  0  0  0  0  0  0
   46.0193   27.8241   44.3638 H   0  0  0  0  0  0  0  0  0  0  0  0
   44.6601   30.0911   44.6443 H   0  0  0  0  0  0  0  0  0  0  0  0
  1  6  2  0
  2  1  1  0
  3  2  2  0
  3  4  1  0
  4  5  2  0
  5  6  1  0
  5  7  1  0
  7  8  1  0
  8  9  1  0
 10  9  1  0
 11 10  1  0
 12  7  1  0
 12 11  1  0
 13 12  1  0
 14 15  2  0
 14 13  1  0
 15 16  1  0
 17 18  2  0
 17 16  1  0
 18 13  1  0
  1 19  1  0
  2 20  1  0
  3 21  1  0
  8 22  1  0
  8 23  1  0
  9 24  1  0
  9 25  1  0
 11 26  1  0
 11 27  1  0
 12 28  1  6
 14 29  1  0
 15 30  1  0
 17 31  1  0
 18 32  1  0
M  ISO  8  19  14  20  14  21  14  22  13  23  13  24  13  25  13  26  13
M  ISO  6  27  13  28  13  29  13  30  13  31  13  32  13
M  END
>  <minimizedAffinity>  (1) 
-4.47096968

>  <minimizedRMSD>  (1) 
1.55744231

$$$$
