
     RDKit          3D

 30 32  0  0  1  0  0  0  0  0999 V2000
   44.5280   35.7130   44.8720 C   0  0  0  0  0  0  0  0  0  0  0  0
   45.1150   35.5870   43.5860 C   0  0  0  0  0  0  0  0  0  0  0  0
   46.0090   34.5290   43.3730 C   0  0  0  0  0  0  0  0  0  0  0  0
   46.2650   33.6810   44.4160 N   0  0  0  0  0  0  0  0  0  0  0  0
   45.6890   33.8350   45.6170 C   0  0  0  0  0  0  0  0  0  0  0  0
   44.8220   34.8440   45.8570 N   0  0  0  0  0  0  0  0  0  0  0  0
   46.0020   32.9130   46.6580 N   0  0  0  0  0  0  0  0  0  0  0  0
   45.0840   32.8600   47.7780 C   0  0  0  0  0  0  0  0  0  0  0  0
   45.6010   32.0590   48.9320 C   0  0  0  0  0  0  0  0  0  0  0  0
   46.9560   31.7610   48.8310 O   0  0  0  0  0  0  0  0  0  0  0  0
   47.1570   31.0600   47.6670 C   0  0  0  0  0  0  0  0  0  0  0  0
   47.2000   32.0910   46.5470 C   0  0  1  0  0  0  0  0  0  0  0  0
   47.2190   31.3010   45.2550 C   0  0  0  0  0  0  0  0  0  0  0  0
   46.2140   30.1550   45.2740 C   0  0  0  0  0  0  0  0  0  0  0  0
   47.7070   29.9240   45.1820 C   0  0  0  0  0  0  0  0  0  0  0  0
   43.8218   36.5336   45.0668 H   0  0  0  0  0  0  0  0  0  0  0  0
   44.8756   36.2978   42.7813 H   0  0  0  0  0  0  0  0  0  0  0  0
   46.4913   34.3843   42.3950 H   0  0  0  0  0  0  0  0  0  0  0  0
   44.8951   33.8872   48.1231 H   0  0  0  0  0  0  0  0  0  0  0  0
   44.1674   32.3657   47.4239 H   0  0  0  0  0  0  0  0  0  0  0  0
   45.4375   32.6324   49.8563 H   0  0  0  0  0  0  0  0  0  0  0  0
   45.0563   31.1033   48.9357 H   0  0  0  0  0  0  0  0  0  0  0  0
   48.1080   30.5091   47.7139 H   0  0  0  0  0  0  0  0  0  0  0  0
   46.3566   30.3238   47.5012 H   0  0  0  0  0  0  0  0  0  0  0  0
   48.0762   32.7546   46.5904 H   0  0  0  0  0  0  0  0  0  0  0  0
   47.4726   32.1794   44.6434 H   0  0  0  0  0  0  0  0  0  0  0  0
   45.6684   29.9084   46.1968 H   0  0  0  0  0  0  0  0  0  0  0  0
   45.3304   29.8668   44.6856 H   0  0  0  0  0  0  0  0  0  0  0  0
   48.1443   29.5491   44.2449 H   0  0  0  0  0  0  0  0  0  0  0  0
   48.4304   29.3333   45.7633 H   0  0  0  0  0  0  0  0  0  0  0  0
  1  6  2  0
  2  1  1  0
  3  2  2  0
  3  4  1  0
  4  5  2  0
  5  6  1  0
  5  7  1  0
  7  8  1  0
  8  9  1  0
 10  9  1  0
 11 10  1  0
 12  7  1  0
 12 11  1  0
 13 14  1  0
 13 12  1  0
 15 13  1  0
 15 14  1  0
  1 16  1  0
  2 17  1  0
  3 18  1  0
  8 19  1  0
  8 20  1  0
  9 21  1  0
  9 22  1  0
 11 23  1  0
 11 24  1  0
 12 25  1  1
 13 26  1  0
 14 27  1  0
 14 28  1  0
 15 29  1  0
 15 30  1  0
M  ISO  8  16  14  17  14  18  14  19  13  20  13  21  13  22  13  23  13
M  ISO  7  24  13  25  13  26  13  27  13  28  13  29  13  30  13
M  END
>  <minimizedAffinity>  (1) 
-4.64600849

>  <minimizedRMSD>  (1) 
0.460930526

$$$$
