
     RDKit          3D

 51 52  0  0  1  0  0  0  0  0999 V2000
   44.6440   35.4460   45.3950 C   0  0  0  0  0  0  0  0  0  0  0  0
   44.5880   36.0690   44.1420 C   0  0  0  0  0  0  0  0  0  0  0  0
   45.4990   35.5510   43.2060 C   0  0  0  0  0  0  0  0  0  0  0  0
   45.7370   34.2090   43.3370 N   0  0  0  0  0  0  0  0  0  0  0  0
   45.8200   33.6680   44.5430 C   0  0  0  0  0  0  0  0  0  0  0  0
   45.2580   34.2840   45.6070 N   0  0  0  0  0  0  0  0  0  0  0  0
   46.4520   32.4530   44.7060 N   0  0  0  0  0  0  0  0  0  0  0  0
   45.9440   31.6060   45.8160 C   0  0  0  0  0  0  0  0  0  0  0  0
   46.8780   30.4710   46.1560 C   0  0  0  0  0  0  0  0  0  0  0  0
   48.0610   30.4790   45.4680 O   0  0  0  0  0  0  0  0  0  0  0  0
   47.8140   30.5830   44.1290 C   0  0  0  0  0  0  0  0  0  0  0  0
   47.5530   32.0600   43.9000 C   0  0  1  0  0  0  0  0  0  0  0  0
   45.6660   34.6360   42.5740 H   0  0  0  0  0  0  0  0  0  0  0  0
   47.2190   32.4960   42.6270 N   0  0  0  0  0  0  0  0  0  0  0  0
   45.9310   32.3930   42.2440 C   0  0  0  0  0  0  0  0  0  0  0  0
   45.8690   32.9620   40.8420 C   0  0  0  0  0  0  0  0  0  0  0  0
   47.1930   33.7660   40.7410 C   0  0  0  0  0  0  0  0  0  0  0  0
   47.7810   33.6250   42.0990 C   0  0  2  0  0  0  0  0  0  0  0  0
   49.0920   33.0660   41.6850 N   0  0  0  0  0  0  0  0  0  0  0  0
   49.1800   32.0150   40.8430 C   0  0  0  0  0  0  0  0  0  0  0  0
   50.3330   31.4230   40.3930 C   0  0  0  0  0  0  0  0  0  0  0  0
   51.4820   31.9980   40.8780 C   0  0  0  0  0  0  0  0  0  0  0  0
   52.5860   31.5190   40.5160 O   0  0  0  0  0  0  0  0  0  0  0  0
   51.5340   33.0420   41.7150 N   0  0  0  0  0  0  0  0  0  0  0  0
   50.3360   33.5130   42.0690 C   0  0  0  0  0  0  0  0  0  0  0  0
   50.3120   34.5110   42.8690 O   0  0  0  0  0  0  0  0  0  0  0  0
   44.1560   35.9419   46.2470 H   0  0  0  0  0  0  0  0  0  0  0  0
   44.4903   37.1563   44.2772 H   0  0  0  0  0  0  0  0  0  0  0  0
   45.5094   35.8504   43.5823 H   0  0  0  0  0  0  0  0  0  0  0  0
   43.7203   35.6896   43.5823 H   0  0  0  0  0  0  0  0  0  0  0  0
   45.4990   35.5510   44.3060 H   0  0  0  0  0  0  0  0  0  0  0  0
   45.4990   36.5881   42.8393 H   0  0  0  0  0  0  0  0  0  0  0  0
   46.3971   35.0325   42.8393 H   0  0  0  0  0  0  0  0  0  0  0  0
   44.6009   35.0325   42.8393 H   0  0  0  0  0  0  0  0  0  0  0  0
   45.8155   32.2356   46.7088 H   0  0  0  0  0  0  0  0  0  0  0  0
   44.9907   31.1654   45.4886 H   0  0  0  0  0  0  0  0  0  0  0  0
   47.1061   30.5251   47.2307 H   0  0  0  0  0  0  0  0  0  0  0  0
   46.3584   29.5445   45.8703 H   0  0  0  0  0  0  0  0  0  0  0  0
   48.6849   30.2479   43.5466 H   0  0  0  0  0  0  0  0  0  0  0  0
   46.9675   29.9563   43.8117 H   0  0  0  0  0  0  0  0  0  0  0  0
   48.5326   32.5035   44.1316 H   0  0  0  0  0  0  0  0  0  0  0  0
   45.6148   31.3394   42.2438 H   0  0  0  0  0  0  0  0  0  0  0  0
   45.2611   32.9329   42.9293 H   0  0  0  0  0  0  0  0  0  0  0  0
   45.8335   32.1602   40.0898 H   0  0  0  0  0  0  0  0  0  0  0  0
   44.9726   33.5724   40.6580 H   0  0  0  0  0  0  0  0  0  0  0  0
   47.8577   33.3367   39.9769 H   0  0  0  0  0  0  0  0  0  0  0  0
   47.0395   34.8140   40.4443 H   0  0  0  0  0  0  0  0  0  0  0  0
   47.7195   34.5129   42.7454 H   0  0  0  0  0  0  0  0  0  0  0  0
   48.2320   31.5903   40.4811 H   0  0  0  0  0  0  0  0  0  0  0  0
   50.3368   30.5645   39.7052 H   0  0  0  0  0  0  0  0  0  0  0  0
   52.4186   33.4453   42.0551 H   0  0  0  0  0  0  0  0  0  0  0  0
  1  6  2  0
  2  1  1  0
  4  5  2  0
  5  7  1  0
  5  6  1  0
  7  8  1  0
  8  9  1  0
 10  9  1  0
 11 10  1  0
 12 11  1  0
 12  7  1  0
 13  4  1  0
 14 15  1  0
 14 12  1  0
 16 15  1  0
 17 16  1  0
 17 18  1  0
 18 14  1  0
 19 25  1  0
 19 18  1  0
 20 19  1  0
 21 20  2  0
 21 22  1  0
 22 24  1  0
 23 22  2  0
 24 25  1  0
 25 26  2  0
  1 27  1  0
  2 28  1  0
  2 29  1  0
  2 30  1  0
  3 31  1  0
  3 32  1  0
  3 33  1  0
  3 34  1  0
  8 35  1  0
  8 36  1  0
  9 37  1  0
  9 38  1  0
 11 39  1  0
 11 40  1  0
 12 41  1  1
 15 42  1  0
 15 43  1  0
 16 44  1  0
 16 45  1  0
 17 46  1  0
 17 47  1  0
 18 48  1  1
 20 49  1  0
 21 50  1  0
 24 51  1  0
M  ISO  8  28   8  29   8  30   8  31   8  32   8  33   8  34   8  35  13
M  ISO  8  36  13  37  13  38  13  39  13  40  13  41  13  42  13  43  13
M  ISO  8  44  13  45  13  46  13  47  13  48  13  49  14  50  14  51   9
M  END
>  <minimizedAffinity>  (1) 
-6.01254225

>  <minimizedRMSD>  (1) 
2.67038941

$$$$
