
     RDKit          3D

 54 56  0  0  1  0  0  0  0  0999 V2000
   44.5350   35.3840   45.7010 C   0  0  0  0  0  0  0  0  0  0  0  0
   44.4800   36.0250   44.4570 C   0  0  0  0  0  0  0  0  0  0  0  0
   45.3970   35.5260   43.5140 C   0  0  0  0  0  0  0  0  0  0  0  0
   45.6440   34.1830   43.6260 N   0  0  0  0  0  0  0  0  0  0  0  0
   45.7240   33.6290   44.8280 C   0  0  0  0  0  0  0  0  0  0  0  0
   45.1550   34.2220   45.8990 N   0  0  0  0  0  0  0  0  0  0  0  0
   46.3660   32.4150   44.9750 N   0  0  0  0  0  0  0  0  0  0  0  0
   45.8690   31.5510   46.0750 C   0  0  0  0  0  0  0  0  0  0  0  0
   46.7990   30.4050   46.3840 C   0  0  0  0  0  0  0  0  0  0  0  0
   47.9880   30.4370   45.7030 O   0  0  0  0  0  0  0  0  0  0  0  0
   47.7420   30.5610   44.3580 C   0  0  0  0  0  0  0  0  0  0  0  0
   47.4680   32.0390   44.1590 C   0  0  1  0  0  0  0  0  0  0  0  0
   45.5720   34.6290   42.8770 H   0  0  0  0  0  0  0  0  0  0  0  0
   47.1140   32.4950   42.8970 N   0  0  0  0  0  0  0  0  0  0  0  0
   45.8980   32.1670   42.4230 C   0  0  0  0  0  0  0  0  0  0  0  0
   45.7980   32.8000   41.0520 C   0  0  0  0  0  0  0  0  0  0  0  0
   46.9320   33.8450   41.0750 C   0  0  0  0  0  0  0  0  0  0  0  0
   47.4930   33.7320   42.4570 C   0  0  2  0  0  0  0  0  0  0  0  0
   48.8950   33.3480   42.1270 N   0  0  0  0  0  0  0  0  0  0  0  0
   49.9830   33.9900   42.6520 C   0  0  0  0  0  0  0  0  0  0  0  0
   51.1420   33.4860   42.1970 N   0  0  0  0  0  0  0  0  0  0  0  0
   50.8630   32.5010   41.3600 C   0  0  0  0  0  0  0  0  0  0  0  0
   51.5030   31.5780   40.5570 C   0  0  0  0  0  0  0  0  0  0  0  0
   50.8370   30.6650   39.7900 N   0  0  0  0  0  0  0  0  0  0  0  0
   49.4920   30.6340   39.7910 C   0  0  0  0  0  0  0  0  0  0  0  0
   48.8390   31.5180   40.5620 N   0  0  0  0  0  0  0  0  0  0  0  0
   49.4970   32.4160   41.3170 C   0  0  0  0  0  0  0  0  0  0  0  0
   52.9460   31.6470   40.5850 N   0  0  0  0  0  0  0  0  0  0  0  0
   44.0410   35.8647   46.5582 H   0  0  0  0  0  0  0  0  0  0  0  0
   44.3868   37.1106   44.6077 H   0  0  0  0  0  0  0  0  0  0  0  0
   45.3998   35.8107   43.8931 H   0  0  0  0  0  0  0  0  0  0  0  0
   43.6101   35.6571   43.8931 H   0  0  0  0  0  0  0  0  0  0  0  0
   45.3970   35.5260   44.6140 H   0  0  0  0  0  0  0  0  0  0  0  0
   45.3970   36.5631   43.1473 H   0  0  0  0  0  0  0  0  0  0  0  0
   46.2951   35.0075   43.1473 H   0  0  0  0  0  0  0  0  0  0  0  0
   44.4989   35.0075   43.1473 H   0  0  0  0  0  0  0  0  0  0  0  0
   45.7554   32.1653   46.9804 H   0  0  0  0  0  0  0  0  0  0  0  0
   44.9100   31.1208   45.7506 H   0  0  0  0  0  0  0  0  0  0  0  0
   47.0199   30.4230   47.4614 H   0  0  0  0  0  0  0  0  0  0  0  0
   46.2813   29.4881   46.0656 H   0  0  0  0  0  0  0  0  0  0  0  0
   48.6173   30.2451   43.7715 H   0  0  0  0  0  0  0  0  0  0  0  0
   46.9040   29.9309   44.0254 H   0  0  0  0  0  0  0  0  0  0  0  0
   48.4481   32.4794   44.3946 H   0  0  0  0  0  0  0  0  0  0  0  0
   45.7998   31.0740   42.3471 H   0  0  0  0  0  0  0  0  0  0  0  0
   45.0976   32.5217   43.0891 H   0  0  0  0  0  0  0  0  0  0  0  0
   44.8191   33.2806   40.9079 H   0  0  0  0  0  0  0  0  0  0  0  0
   45.8902   32.0752   40.2297 H   0  0  0  0  0  0  0  0  0  0  0  0
   47.6974   33.6094   40.3209 H   0  0  0  0  0  0  0  0  0  0  0  0
   46.5798   34.8603   40.8405 H   0  0  0  0  0  0  0  0  0  0  0  0
   47.2656   34.5900   43.1067 H   0  0  0  0  0  0  0  0  0  0  0  0
   49.9163   34.8243   43.3658 H   0  0  0  0  0  0  0  0  0  0  0  0
   48.9428   29.9048   39.1773 H   0  0  0  0  0  0  0  0  0  0  0  0
   53.5039   30.9949   40.0154 H   0  0  0  0  0  0  0  0  0  0  0  0
   53.4167   32.3483   41.1745 H   0  0  0  0  0  0  0  0  0  0  0  0
  1  6  2  0
  2  1  1  0
  4  5  2  0
  5  7  1  0
  5  6  1  0
  7  8  1  0
  8  9  1  0
 10  9  1  0
 11 10  1  0
 12 11  1  0
 12  7  1  0
 13  4  1  0
 14 15  1  0
 14 12  1  0
 16 17  1  0
 16 15  1  0
 17 18  1  0
 18 14  1  0
 19 18  1  0
 19 20  1  0
 21 20  2  0
 22 21  1  0
 23 28  1  0
 23 22  2  0
 24 25  2  0
 24 23  1  0
 25 26  1  0
 26 27  2  0
 27 22  1  0
 27 19  1  0
  1 29  1  0
  2 30  1  0
  2 31  1  0
  2 32  1  0
  3 33  1  0
  3 34  1  0
  3 35  1  0
  3 36  1  0
  8 37  1  0
  8 38  1  0
  9 39  1  0
  9 40  1  0
 11 41  1  0
 11 42  1  0
 12 43  1  1
 15 44  1  0
 15 45  1  0
 16 46  1  0
 16 47  1  0
 17 48  1  0
 17 49  1  0
 18 50  1  1
 20 51  1  0
 25 52  1  0
 28 53  1  0
 28 54  1  0
M  ISO  8  30   8  31   8  32   8  33   8  34   8  35   8  36   8  37  13
M  ISO  8  38  13  39  13  40  13  41  13  42  13  43  13  44  13  45  13
M  ISO  7  46  13  47  13  48  13  49  13  50  13  51  14  52  14
M  END
>  <minimizedAffinity>  (1) 
-6.14915419

>  <minimizedRMSD>  (1) 
3.64502406

$$$$
