
     RDKit          3D

 54 55  0  0  1  0  0  0  0  0999 V2000
   44.4220   35.9620   44.8220 C   0  0  0  0  0  0  0  0  0  0  0  0
   44.2010   35.9030   43.4410 C   0  0  0  0  0  0  0  0  0  0  0  0
   44.9730   34.9310   42.7840 C   0  0  0  0  0  0  0  0  0  0  0  0
   45.2140   33.8030   43.5230 N   0  0  0  0  0  0  0  0  0  0  0  0
   45.4530   33.9110   44.8210 C   0  0  0  0  0  0  0  0  0  0  0  0
   45.0460   35.0060   45.5030 N   0  0  0  0  0  0  0  0  0  0  0  0
   46.0820   32.8820   45.4910 N   0  0  0  0  0  0  0  0  0  0  0  0
   45.7000   32.7210   46.9220 C   0  0  0  0  0  0  0  0  0  0  0  0
   46.6310   31.8080   47.6750 C   0  0  0  0  0  0  0  0  0  0  0  0
   47.7400   31.4240   46.9660 O   0  0  0  0  0  0  0  0  0  0  0  0
   47.3360   30.8760   45.7770 C   0  0  0  0  0  0  0  0  0  0  0  0
   47.0680   32.0710   44.8750 C   0  0  1  0  0  0  0  0  0  0  0  0
   45.0440   33.8220   42.6640 H   0  0  0  0  0  0  0  0  0  0  0  0
   46.6010   31.8070   43.5860 N   0  0  0  0  0  0  0  0  0  0  0  0
   45.3320   31.3410   43.4820 C   0  0  0  0  0  0  0  0  0  0  0  0
   45.0660   31.2470   41.9970 C   0  0  0  0  0  0  0  0  0  0  0  0
   46.1420   32.1990   41.4000 C   0  0  0  0  0  0  0  0  0  0  0  0
   46.8100   32.7580   42.5890 C   0  0  2  0  0  0  0  0  0  0  0  0
   48.2050   32.4790   42.1500 N   0  0  0  0  0  0  0  0  0  0  0  0
   48.7500   31.2870   41.7180 C   0  0  0  0  0  0  0  0  0  0  0  0
   50.0220   31.0530   41.3270 C   0  0  0  0  0  0  0  0  0  0  0  0
   50.3690   29.6720   40.8970 C   0  0  0  0  0  0  0  0  0  0  0  0
   50.8320   32.1550   41.3830 C   0  0  0  0  0  0  0  0  0  0  0  0
   52.0200   31.9590   41.0230 O   0  0  0  0  0  0  0  0  0  0  0  0
   50.3630   33.3430   41.7960 N   0  0  0  0  0  0  0  0  0  0  0  0
   49.0850   33.4890   42.1670 C   0  0  0  0  0  0  0  0  0  0  0  0
   48.8700   34.6560   42.5090 O   0  0  0  0  0  0  0  0  0  0  0  0
   44.0611   36.8440   45.3714 H   0  0  0  0  0  0  0  0  0  0  0  0
   43.1546   35.6236   43.2487 H   0  0  0  0  0  0  0  0  0  0  0  0
   44.4057   36.8873   42.9945 H   0  0  0  0  0  0  0  0  0  0  0  0
   44.8690   35.1517   42.9945 H   0  0  0  0  0  0  0  0  0  0  0  0
   44.9730   34.9310   43.8840 H   0  0  0  0  0  0  0  0  0  0  0  0
   44.9730   35.9681   42.4173 H   0  0  0  0  0  0  0  0  0  0  0  0
   45.8711   34.4125   42.4173 H   0  0  0  0  0  0  0  0  0  0  0  0
   44.0749   34.4125   42.4173 H   0  0  0  0  0  0  0  0  0  0  0  0
   45.7129   33.7103   47.4027 H   0  0  0  0  0  0  0  0  0  0  0  0
   44.6981   32.2676   46.9485 H   0  0  0  0  0  0  0  0  0  0  0  0
   46.9664   32.3306   48.5830 H   0  0  0  0  0  0  0  0  0  0  0  0
   46.0642   30.8912   47.8944 H   0  0  0  0  0  0  0  0  0  0  0  0
   48.1274   30.2399   45.3539 H   0  0  0  0  0  0  0  0  0  0  0  0
   46.4503   30.2342   45.8932 H   0  0  0  0  0  0  0  0  0  0  0  0
   48.0569   32.5373   44.7541 H   0  0  0  0  0  0  0  0  0  0  0  0
   45.2446   30.3509   43.9532 H   0  0  0  0  0  0  0  0  0  0  0  0
   44.6096   31.9977   43.9888 H   0  0  0  0  0  0  0  0  0  0  0  0
   45.2007   30.2175   41.6336 H   0  0  0  0  0  0  0  0  0  0  0  0
   44.0373   31.5190   41.7182 H   0  0  0  0  0  0  0  0  0  0  0  0
   46.8552   31.6421   40.7745 H   0  0  0  0  0  0  0  0  0  0  0  0
   45.7121   32.9737   40.7480 H   0  0  0  0  0  0  0  0  0  0  0  0
   46.5379   33.7763   42.9038 H   0  0  0  0  0  0  0  0  0  0  0  0
   48.0676   30.4247   41.6885 H   0  0  0  0  0  0  0  0  0  0  0  0
   50.5276   29.0408   41.7838 H   0  0  0  0  0  0  0  0  0  0  0  0
   49.5469   29.2581   40.2946 H   0  0  0  0  0  0  0  0  0  0  0  0
   51.2891   29.6958   40.2946 H   0  0  0  0  0  0  0  0  0  0  0  0
   50.9962   34.1548   41.8280 H   0  0  0  0  0  0  0  0  0  0  0  0
  1  6  2  0
  2  1  1  0
  4  5  2  0
  5  7  1  0
  5  6  1  0
  7  8  1  0
  8  9  1  0
 10  9  1  0
 11 10  1  0
 12  7  1  0
 12 11  1  0
 13  4  1  0
 14 15  1  0
 14 12  1  0
 16 15  1  0
 17 16  1  0
 17 18  1  0
 18 14  1  0
 19 26  1  0
 19 18  1  0
 20 19  1  0
 21 23  1  0
 21 20  2  0
 22 21  1  0
 23 25  1  0
 24 23  2  0
 25 26  1  0
 26 27  2  0
  1 28  1  0
  2 29  1  0
  2 30  1  0
  2 31  1  0
  3 32  1  0
  3 33  1  0
  3 34  1  0
  3 35  1  0
  8 36  1  0
  8 37  1  0
  9 38  1  0
  9 39  1  0
 11 40  1  0
 11 41  1  0
 12 42  1  6
 15 43  1  0
 15 44  1  0
 16 45  1  0
 16 46  1  0
 17 47  1  0
 17 48  1  0
 18 49  1  1
 20 50  1  0
 22 51  1  0
 22 52  1  0
 22 53  1  0
 25 54  1  0
M  ISO  8  29   8  30   8  31   8  32   8  33   8  34   8  35   8  36  13
M  ISO  8  37  13  38  13  39  13  40  13  41  13  42  13  43  13  44  13
M  ISO  8  45  13  46  13  47  13  48  13  49  13  50  14  51   8  52   8
M  ISO  2  53   8  54   9
M  END
>  <minimizedAffinity>  (1) 
-5.5129528

>  <minimizedRMSD>  (1) 
2.12821317

$$$$
