
     RDKit          3D

 16 16  0  0  0  0  0  0  0  0999 V2000
   46.2180   34.6880   43.1660 C   0  0  0  0  0  0  0  0  0  0  0  0
   45.3860   35.8130   43.1710 C   0  0  0  0  0  0  0  0  0  0  0  0
   44.6290   36.0500   44.3300 C   0  0  0  0  0  0  0  0  0  0  0  0
   44.7490   35.1710   45.3790 N   0  0  0  0  0  0  0  0  0  0  0  0
   45.5670   34.1030   45.3160 C   0  0  0  0  0  0  0  0  0  0  0  0
   46.2840   33.8800   44.2170 N   0  0  0  0  0  0  0  0  0  0  0  0
   47.0090   34.4390   41.9600 C   0  0  0  0  0  0  0  0  0  0  0  0
   46.4610   34.4960   40.8250 O   0  0  0  0  0  0  0  0  0  0  0  0
   48.3670   34.1420   42.1140 O   0  0  0  0  0  0  0  0  0  0  0  0
   49.2540   35.2340   42.1670 C   0  0  0  0  0  0  0  0  0  0  0  0
   49.2040   36.2090   41.3830 O   0  0  0  0  0  0  0  0  0  0  0  0
   50.2210   35.1590   43.1750 O   0  0  0  0  0  0  0  0  0  0  0  0
   45.3272   36.4849   42.3020 H   0  0  0  0  0  0  0  0  0  0  0  0
   43.9566   36.9180   44.3962 H   0  0  0  0  0  0  0  0  0  0  0  0
   45.6425   33.4159   46.1717 H   0  0  0  0  0  0  0  0  0  0  0  0
   50.8836   35.8870   43.2805 H   0  0  0  0  0  0  0  0  0  0  0  0
  1  2  2  0
  1  6  1  0
  2  3  1  0
  3  4  2  0
  5  4  1  0
  6  5  2  0
  7  9  1  0
  7  1  1  0
  8  7  2  0
  9 10  1  0
 10 12  1  0
 11 10  2  0
  2 13  1  0
  3 14  1  0
  5 15  1  0
 12 16  1  0
M  ISO  4  13  14  14  14  15  14  16   3
M  END
>  <minimizedAffinity>  (1) 
-4.64192057

>  <minimizedRMSD>  (1) 
2.98165035

$$$$
