
     RDKit          3D

 46 47  0  0  1  0  0  0  0  0999 V2000
   44.5830   35.4160   45.5130 C   0  0  0  0  0  0  0  0  0  0  0  0
   44.5650   36.0900   44.2860 C   0  0  0  0  0  0  0  0  0  0  0  0
   45.5290   35.6250   43.3690 C   0  0  0  0  0  0  0  0  0  0  0  0
   45.7700   34.2820   43.4560 N   0  0  0  0  0  0  0  0  0  0  0  0
   45.8160   33.6910   44.6410 C   0  0  0  0  0  0  0  0  0  0  0  0
   45.2040   34.2560   45.7070 N   0  0  0  0  0  0  0  0  0  0  0  0
   46.4590   32.4770   44.7790 N   0  0  0  0  0  0  0  0  0  0  0  0
   45.9290   31.5850   45.8400 C   0  0  0  0  0  0  0  0  0  0  0  0
   46.8360   30.4180   46.1310 C   0  0  0  0  0  0  0  0  0  0  0  0
   48.0560   30.4800   45.5080 O   0  0  0  0  0  0  0  0  0  0  0  0
   47.8740   30.6560   44.1610 C   0  0  0  0  0  0  0  0  0  0  0  0
   47.5970   32.1370   43.9970 C   0  0  1  0  0  0  0  0  0  0  0  0
   45.7250   34.7310   42.7030 H   0  0  0  0  0  0  0  0  0  0  0  0
   47.3150   32.6350   42.7300 N   0  0  0  0  0  0  0  0  0  0  0  0
   46.0950   32.3210   42.2180 C   0  0  0  0  0  0  0  0  0  0  0  0
   46.0270   32.9790   40.8610 C   0  0  0  0  0  0  0  0  0  0  0  0
   47.1780   33.9970   40.9250 C   0  0  0  0  0  0  0  0  0  0  0  0
   47.6890   33.8700   42.3480 C   0  0  2  0  0  0  0  0  0  0  0  0
   49.1390   33.4050   42.0850 C   0  0  0  0  0  0  0  0  0  0  0  0
   50.2140   34.0200   42.5970 N   0  0  0  0  0  0  0  0  0  0  0  0
   51.2920   33.4080   42.2170 O   0  0  0  0  0  0  0  0  0  0  0  0
   51.0150   32.3830   41.4570 C   0  0  0  0  0  0  0  0  0  0  0  0
   49.6790   32.3830   41.3770 N   0  0  0  0  0  0  0  0  0  0  0  0
   44.0543   35.8710   46.3636 H   0  0  0  0  0  0  0  0  0  0  0  0
   44.5360   37.1751   44.4641 H   0  0  0  0  0  0  0  0  0  0  0  0
   45.4702   35.8362   43.7149 H   0  0  0  0  0  0  0  0  0  0  0  0
   43.6746   35.7883   43.7149 H   0  0  0  0  0  0  0  0  0  0  0  0
   45.5290   35.6250   44.4690 H   0  0  0  0  0  0  0  0  0  0  0  0
   45.5290   36.6621   43.0023 H   0  0  0  0  0  0  0  0  0  0  0  0
   46.4271   35.1065   43.0023 H   0  0  0  0  0  0  0  0  0  0  0  0
   44.6309   35.1065   43.0023 H   0  0  0  0  0  0  0  0  0  0  0  0
   45.8048   32.1716   46.7622 H   0  0  0  0  0  0  0  0  0  0  0  0
   44.9718   31.1782   45.4819 H   0  0  0  0  0  0  0  0  0  0  0  0
   47.0059   30.3767   47.2170 H   0  0  0  0  0  0  0  0  0  0  0  0
   46.3298   29.5222   45.7420 H   0  0  0  0  0  0  0  0  0  0  0  0
   48.7794   30.3676   43.6069 H   0  0  0  0  0  0  0  0  0  0  0  0
   47.0554   30.0349   43.7684 H   0  0  0  0  0  0  0  0  0  0  0  0
   48.5582   32.5821   44.2937 H   0  0  0  0  0  0  0  0  0  0  0  0
   45.9921   31.2303   42.1187 H   0  0  0  0  0  0  0  0  0  0  0  0
   45.2831   32.6686   42.8737 H   0  0  0  0  0  0  0  0  0  0  0  0
   45.0600   33.4815   40.7112 H   0  0  0  0  0  0  0  0  0  0  0  0
   46.1159   32.2694   40.0252 H   0  0  0  0  0  0  0  0  0  0  0  0
   47.9664   33.7443   40.2007 H   0  0  0  0  0  0  0  0  0  0  0  0
   46.8582   35.0195   40.6757 H   0  0  0  0  0  0  0  0  0  0  0  0
   47.4417   34.7373   42.9778 H   0  0  0  0  0  0  0  0  0  0  0  0
   51.7194   31.6796   40.9890 H   0  0  0  0  0  0  0  0  0  0  0  0
  1  6  2  0
  2  1  1  0
  4  5  2  0
  5  7  1  0
  5  6  1  0
  7  8  1  0
  8  9  1  0
 10  9  1  0
 11 10  1  0
 12 11  1  0
 12  7  1  0
 13  4  1  0
 14 15  1  0
 14 12  1  0
 16 17  1  0
 16 15  1  0
 17 18  1  0
 18 14  1  0
 19 18  1  0
 19 20  2  0
 21 20  1  0
 22 21  1  0
 23 22  2  0
 23 19  1  0
  1 24  1  0
  2 25  1  0
  2 26  1  0
  2 27  1  0
  3 28  1  0
  3 29  1  0
  3 30  1  0
  3 31  1  0
  8 32  1  0
  8 33  1  0
  9 34  1  0
  9 35  1  0
 11 36  1  0
 11 37  1  0
 12 38  1  1
 15 39  1  0
 15 40  1  0
 16 41  1  0
 16 42  1  0
 17 43  1  0
 17 44  1  0
 18 45  1  1
 22 46  1  0
M  ISO  8  25   8  26   8  27   8  28   8  29   8  30   8  31   8  32  13
M  ISO  8  33  13  34  13  35  13  36  13  37  13  38  13  39  13  40  13
M  ISO  6  41  13  42  13  43  13  44  13  45  13  46  14
M  END
>  <minimizedAffinity>  (1) 
-5.24817657

>  <minimizedRMSD>  (1) 
2.518332

$$$$
