
     RDKit          3D

 49 50  0  0  1  0  0  0  0  0999 V2000
   44.4160   35.9450   44.7110 C   0  0  0  0  0  0  0  0  0  0  0  0
   44.3410   35.7910   43.3220 C   0  0  0  0  0  0  0  0  0  0  0  0
   45.1880   34.7920   42.8110 C   0  0  0  0  0  0  0  0  0  0  0  0
   45.3480   33.7200   43.6470 N   0  0  0  0  0  0  0  0  0  0  0  0
   45.4570   33.9110   44.9550 C   0  0  0  0  0  0  0  0  0  0  0  0
   44.9750   35.0410   45.5170 N   0  0  0  0  0  0  0  0  0  0  0  0
   46.0270   32.9380   45.7460 N   0  0  0  0  0  0  0  0  0  0  0  0
   45.5250   32.8700   47.1410 C   0  0  0  0  0  0  0  0  0  0  0  0
   46.3760   31.9970   48.0290 C   0  0  0  0  0  0  0  0  0  0  0  0
   47.5520   31.5750   47.4440 O   0  0  0  0  0  0  0  0  0  0  0  0
   47.2460   30.9480   46.2570 C   0  0  0  0  0  0  0  0  0  0  0  0
   47.0680   32.0930   45.2750 C   0  0  1  0  0  0  0  0  0  0  0  0
   45.2670   33.6630   42.7740 H   0  0  0  0  0  0  0  0  0  0  0  0
   46.7060   31.7980   43.9670 N   0  0  0  0  0  0  0  0  0  0  0  0
   45.4600   31.3310   43.7560 C   0  0  0  0  0  0  0  0  0  0  0  0
   45.3460   31.1260   42.2570 C   0  0  0  0  0  0  0  0  0  0  0  0
   46.5340   31.9540   41.7090 C   0  0  0  0  0  0  0  0  0  0  0  0
   47.1000   32.5940   42.9290 C   0  0  2  0  0  0  0  0  0  0  0  0
   48.5220   32.0360   42.8310 C   0  0  0  0  0  0  0  0  0  0  0  0
   49.5090   32.9630   42.4520 C   0  0  0  0  0  0  0  0  0  0  0  0
   50.8510   32.6170   42.3050 C   0  0  0  0  0  0  0  0  0  0  0  0
   51.2020   31.3710   42.5320 N   0  0  0  0  0  0  0  0  0  0  0  0
   50.2890   30.4670   42.8930 C   0  0  0  0  0  0  0  0  0  0  0  0
   49.0230   30.7920   43.0320 N   0  0  0  0  0  0  0  0  0  0  0  0
   43.9934   36.8559   45.1600 H   0  0  0  0  0  0  0  0  0  0  0  0
   43.8707   34.8253   43.0850 H   0  0  0  0  0  0  0  0  0  0  0  0
   43.7392   36.6066   42.8946 H   0  0  0  0  0  0  0  0  0  0  0  0
   45.3542   35.8201   42.8946 H   0  0  0  0  0  0  0  0  0  0  0  0
   45.1880   34.7920   43.9110 H   0  0  0  0  0  0  0  0  0  0  0  0
   45.1880   35.8291   42.4443 H   0  0  0  0  0  0  0  0  0  0  0  0
   46.0861   34.2735   42.4443 H   0  0  0  0  0  0  0  0  0  0  0  0
   44.2899   34.2735   42.4443 H   0  0  0  0  0  0  0  0  0  0  0  0
   45.5106   33.8874   47.5589 H   0  0  0  0  0  0  0  0  0  0  0  0
   44.5189   32.4266   47.1086 H   0  0  0  0  0  0  0  0  0  0  0  0
   46.6264   32.5669   48.9359 H   0  0  0  0  0  0  0  0  0  0  0  0
   45.7867   31.0934   48.2441 H   0  0  0  0  0  0  0  0  0  0  0  0
   48.0656   30.2856   45.9416 H   0  0  0  0  0  0  0  0  0  0  0  0
   46.3529   30.3103   46.3318 H   0  0  0  0  0  0  0  0  0  0  0  0
   48.0799   32.5223   45.2332 H   0  0  0  0  0  0  0  0  0  0  0  0
   45.3129   30.3782   44.2856 H   0  0  0  0  0  0  0  0  0  0  0  0
   44.6964   32.0293   44.1292 H   0  0  0  0  0  0  0  0  0  0  0  0
   45.4482   30.0630   41.9931 H   0  0  0  0  0  0  0  0  0  0  0  0
   44.3730   31.4344   41.8470 H   0  0  0  0  0  0  0  0  0  0  0  0
   47.2772   31.3034   41.2249 H   0  0  0  0  0  0  0  0  0  0  0  0
   46.2323   32.6827   40.9422 H   0  0  0  0  0  0  0  0  0  0  0  0
   46.8963   33.6707   43.0254 H   0  0  0  0  0  0  0  0  0  0  0  0
   49.2095   34.0045   42.2637 H   0  0  0  0  0  0  0  0  0  0  0  0
   51.5975   33.3678   42.0065 H   0  0  0  0  0  0  0  0  0  0  0  0
   50.6023   29.4289   43.0780 H   0  0  0  0  0  0  0  0  0  0  0  0
  1  6  2  0
  2  1  1  0
  4  5  2  0
  5  6  1  0
  5  7  1  0
  7  8  1  0
  8  9  1  0
 10  9  1  0
 11 10  1  0
 12  7  1  0
 12 11  1  0
 13  4  1  0
 14 15  1  0
 14 12  1  0
 16 15  1  0
 17 16  1  0
 17 18  1  0
 18 14  1  0
 19 18  1  0
 19 24  1  0
 20 19  2  0
 21 20  1  0
 21 22  2  0
 22 23  1  0
 23 24  2  0
  1 25  1  0
  2 26  1  0
  2 27  1  0
  2 28  1  0
  3 29  1  0
  3 30  1  0
  3 31  1  0
  3 32  1  0
  8 33  1  0
  8 34  1  0
  9 35  1  0
  9 36  1  0
 11 37  1  0
 11 38  1  0
 12 39  1  6
 15 40  1  0
 15 41  1  0
 16 42  1  0
 16 43  1  0
 17 44  1  0
 17 45  1  0
 18 46  1  1
 20 47  1  0
 21 48  1  0
 23 49  1  0
M  ISO  8  26   8  27   8  28   8  29   8  30   8  31   8  32   8  33  13
M  ISO  8  34  13  35  13  36  13  37  13  38  13  39  13  40  13  41  13
M  ISO  8  42  13  43  13  44  13  45  13  46  13  47  14  48  14  49  14
M  END
>  <minimizedAffinity>  (1) 
-5.11492443

>  <minimizedRMSD>  (1) 
1.26213968

$$$$
