
     RDKit          3D

 44 44  0  0  1  0  0  0  0  0999 V2000
   44.4180   35.9360   44.6810 C   0  0  0  0  0  0  0  0  0  0  0  0
   44.3780   35.7740   43.2920 C   0  0  0  0  0  0  0  0  0  0  0  0
   45.2470   34.7730   42.8080 C   0  0  0  0  0  0  0  0  0  0  0  0
   45.3760   33.7120   43.6580 N   0  0  0  0  0  0  0  0  0  0  0  0
   45.4570   33.9100   44.9640 C   0  0  0  0  0  0  0  0  0  0  0  0
   44.9590   35.0430   45.5090 N   0  0  0  0  0  0  0  0  0  0  0  0
   46.0270   32.9470   45.7710 N   0  0  0  0  0  0  0  0  0  0  0  0
   45.5020   32.8830   47.1600 C   0  0  0  0  0  0  0  0  0  0  0  0
   46.3470   32.0300   48.0700 C   0  0  0  0  0  0  0  0  0  0  0  0
   47.5270   31.6120   47.5090 O   0  0  0  0  0  0  0  0  0  0  0  0
   47.2630   30.9890   46.3190 C   0  0  0  0  0  0  0  0  0  0  0  0
   47.0930   32.1190   45.3230 C   0  0  1  0  0  0  0  0  0  0  0  0
   45.3160   33.6450   42.7820 H   0  0  0  0  0  0  0  0  0  0  0  0
   46.7850   31.8340   44.0070 N   0  0  0  0  0  0  0  0  0  0  0  0
   45.5380   31.2920   43.7930 C   0  0  0  0  0  0  0  0  0  0  0  0
   45.4220   31.0570   42.3110 C   0  0  0  0  0  0  0  0  0  0  0  0
   46.5720   31.9210   41.7430 C   0  0  0  0  0  0  0  0  0  0  0  0
   47.1250   32.6030   42.9700 C   0  0  2  0  0  0  0  0  0  0  0  0
   48.5430   32.0470   42.9280 C   0  0  0  0  0  0  0  0  0  0  0  0
   49.5330   32.8360   42.7130 O   0  0  0  0  0  0  0  0  0  0  0  0
   49.1350   30.8160   43.0690 O   0  0  0  0  0  0  0  0  0  0  0  0
   43.9800   36.8482   45.1122 H   0  0  0  0  0  0  0  0  0  0  0  0
   44.1207   34.7319   43.0517 H   0  0  0  0  0  0  0  0  0  0  0  0
   43.6190   36.4467   42.8661 H   0  0  0  0  0  0  0  0  0  0  0  0
   45.3629   36.0161   42.8661 H   0  0  0  0  0  0  0  0  0  0  0  0
   45.2470   34.7730   43.9080 H   0  0  0  0  0  0  0  0  0  0  0  0
   45.2470   35.8101   42.4413 H   0  0  0  0  0  0  0  0  0  0  0  0
   46.1451   34.2545   42.4413 H   0  0  0  0  0  0  0  0  0  0  0  0
   44.3489   34.2545   42.4413 H   0  0  0  0  0  0  0  0  0  0  0  0
   45.4670   33.9036   47.5689 H   0  0  0  0  0  0  0  0  0  0  0  0
   44.5031   32.4248   47.1134 H   0  0  0  0  0  0  0  0  0  0  0  0
   46.5811   32.6141   48.9722 H   0  0  0  0  0  0  0  0  0  0  0  0
   45.7620   31.1248   48.2902 H   0  0  0  0  0  0  0  0  0  0  0  0
   48.1004   30.3378   46.0278 H   0  0  0  0  0  0  0  0  0  0  0  0
   46.3726   30.3454   46.3745 H   0  0  0  0  0  0  0  0  0  0  0  0
   48.1035   32.5531   45.3003 H   0  0  0  0  0  0  0  0  0  0  0  0
   45.4385   30.3413   44.3373 H   0  0  0  0  0  0  0  0  0  0  0  0
   44.7452   31.9648   44.1520 H   0  0  0  0  0  0  0  0  0  0  0  0
   45.5644   29.9944   42.0648 H   0  0  0  0  0  0  0  0  0  0  0  0
   44.4348   31.3180   41.9020 H   0  0  0  0  0  0  0  0  0  0  0  0
   47.3366   31.2937   41.2614 H   0  0  0  0  0  0  0  0  0  0  0  0
   46.2402   32.6275   40.9679 H   0  0  0  0  0  0  0  0  0  0  0  0
   46.8867   33.6757   43.0193 H   0  0  0  0  0  0  0  0  0  0  0  0
   50.1181   30.7279   42.9927 H   0  0  0  0  0  0  0  0  0  0  0  0
  1  6  2  0
  2  1  1  0
  4  5  2  0
  5  6  1  0
  5  7  1  0
  7  8  1  0
  8  9  1  0
 10  9  1  0
 11 10  1  0
 12  7  1  0
 12 11  1  0
 13  4  1  0
 14 15  1  0
 14 12  1  0
 16 15  1  0
 17 16  1  0
 17 18  1  0
 18 14  1  0
 19 18  1  0
 19 21  1  0
 20 19  2  0
  1 22  1  0
  2 23  1  0
  2 24  1  0
  2 25  1  0
  3 26  1  0
  3 27  1  0
  3 28  1  0
  3 29  1  0
  8 30  1  0
  8 31  1  0
  9 32  1  0
  9 33  1  0
 11 34  1  0
 11 35  1  0
 12 36  1  6
 15 37  1  0
 15 38  1  0
 16 39  1  0
 16 40  1  0
 17 41  1  0
 17 42  1  0
 18 43  1  1
 21 44  1  0
M  ISO  8  23   8  24   8  25   8  26   8  27   8  28   8  29   8  30  13
M  ISO  8  31  13  32  13  33  13  34  13  35  13  36  13  37  13  38  13
M  ISO  6  39  13  40  13  41  13  42  13  43  13  44   3
M  END
>  <minimizedAffinity>  (1) 
-4.52987385

>  <minimizedRMSD>  (1) 
0.9925313

$$$$
