
     RDKit          3D

 43 43  0  0  1  0  0  0  0  0999 V2000
   44.4330   35.8690   44.6630 C   0  0  0  0  0  0  0  0  0  0  0  0
   44.4180   35.6660   43.2790 C   0  0  0  0  0  0  0  0  0  0  0  0
   45.3080   34.6550   42.8400 C   0  0  0  0  0  0  0  0  0  0  0  0
   45.4140   33.6250   43.7230 N   0  0  0  0  0  0  0  0  0  0  0  0
   45.4760   33.8560   45.0280 C   0  0  0  0  0  0  0  0  0  0  0  0
   44.9630   35.0040   45.5280 N   0  0  0  0  0  0  0  0  0  0  0  0
   46.0300   32.9210   45.8760 N   0  0  0  0  0  0  0  0  0  0  0  0
   45.4720   32.8970   47.2510 C   0  0  0  0  0  0  0  0  0  0  0  0
   46.3100   32.0800   48.2020 C   0  0  0  0  0  0  0  0  0  0  0  0
   47.5120   31.6510   47.6790 O   0  0  0  0  0  0  0  0  0  0  0  0
   47.2600   30.9760   46.5090 C   0  0  0  0  0  0  0  0  0  0  0  0
   47.1030   32.0810   45.4740 C   0  0  1  0  0  0  0  0  0  0  0  0
   45.3710   33.5060   42.8500 H   0  0  0  0  0  0  0  0  0  0  0  0
   46.8160   31.7390   44.1650 N   0  0  0  0  0  0  0  0  0  0  0  0
   45.5440   31.3000   43.9130 C   0  0  0  0  0  0  0  0  0  0  0  0
   45.4800   31.0160   42.4330 C   0  0  0  0  0  0  0  0  0  0  0  0
   46.7310   31.7320   41.8940 C   0  0  0  0  0  0  0  0  0  0  0  0
   47.2610   32.4530   43.1120 C   0  0  2  0  0  0  0  0  0  0  0  0
   48.5850   31.7230   43.2150 N   0  0  0  0  0  0  0  0  0  0  0  0
   43.9835   36.7917   45.0587 H   0  0  0  0  0  0  0  0  0  0  0  0
   44.3385   34.5895   43.0671 H   0  0  0  0  0  0  0  0  0  0  0  0
   43.5562   36.1906   42.8408 H   0  0  0  0  0  0  0  0  0  0  0  0
   45.3476   36.0582   42.8408 H   0  0  0  0  0  0  0  0  0  0  0  0
   45.3080   34.6550   43.9400 H   0  0  0  0  0  0  0  0  0  0  0  0
   45.3080   35.6921   42.4733 H   0  0  0  0  0  0  0  0  0  0  0  0
   46.2061   34.1365   42.4733 H   0  0  0  0  0  0  0  0  0  0  0  0
   44.4099   34.1365   42.4733 H   0  0  0  0  0  0  0  0  0  0  0  0
   45.4172   33.9292   47.6272 H   0  0  0  0  0  0  0  0  0  0  0  0
   44.4769   32.4312   47.1989 H   0  0  0  0  0  0  0  0  0  0  0  0
   46.5210   32.6947   49.0895 H   0  0  0  0  0  0  0  0  0  0  0  0
   45.7286   31.1756   48.4345 H   0  0  0  0  0  0  0  0  0  0  0  0
   48.0999   30.3143   46.2505 H   0  0  0  0  0  0  0  0  0  0  0  0
   46.3731   30.3288   46.5758 H   0  0  0  0  0  0  0  0  0  0  0  0
   48.1081   32.5276   45.4548 H   0  0  0  0  0  0  0  0  0  0  0  0
   45.3366   30.3842   44.4859 H   0  0  0  0  0  0  0  0  0  0  0  0
   44.7960   32.0502   44.2090 H   0  0  0  0  0  0  0  0  0  0  0  0
   45.5258   29.9350   42.2346 H   0  0  0  0  0  0  0  0  0  0  0  0
   44.5460   31.3587   41.9638 H   0  0  0  0  0  0  0  0  0  0  0  0
   47.4664   31.0089   41.5114 H   0  0  0  0  0  0  0  0  0  0  0  0
   46.5159   32.4052   41.0511 H   0  0  0  0  0  0  0  0  0  0  0  0
   47.1197   33.5434   43.0803 H   0  0  0  0  0  0  0  0  0  0  0  0
   48.8272   31.5895   44.2072 H   0  0  0  0  0  0  0  0  0  0  0  0
   48.5078   30.8052   42.7539 H   0  0  0  0  0  0  0  0  0  0  0  0
  1  6  2  0
  2  1  1  0
  4  5  2  0
  5  6  1  0
  5  7  1  0
  7  8  1  0
  8  9  1  0
 10  9  1  0
 11 10  1  0
 12  7  1  0
 12 11  1  0
 13  4  1  0
 14 15  1  0
 14 12  1  0
 16 15  1  0
 17 16  1  0
 17 18  1  0
 18 19  1  0
 18 14  1  0
  1 20  1  0
  2 21  1  0
  2 22  1  0
  2 23  1  0
  3 24  1  0
  3 25  1  0
  3 26  1  0
  3 27  1  0
  8 28  1  0
  8 29  1  0
  9 30  1  0
  9 31  1  0
 11 32  1  0
 11 33  1  0
 12 34  1  6
 15 35  1  0
 15 36  1  0
 16 37  1  0
 16 38  1  0
 17 39  1  0
 17 40  1  0
 18 41  1  1
 19 42  1  0
 19 43  1  0
M  ISO  8  21   8  22   8  23   8  24   8  25   8  26   8  27   8  28  13
M  ISO  8  29  13  30  13  31  13  32  13  33  13  34  13  35  13  36  13
M  ISO  7  37  13  38  13  39  13  40  13  41  13  42   5  43   5
M  END
>  <minimizedAffinity>  (1) 
-4.49564171

>  <minimizedRMSD>  (1) 
0.750723898

$$$$
