
     RDKit          3D

 44 44  0  0  1  0  0  0  0  0999 V2000
   44.4390   35.8810   44.6360 C   0  0  0  0  0  0  0  0  0  0  0  0
   44.4060   35.6930   43.2510 C   0  0  0  0  0  0  0  0  0  0  0  0
   45.2790   34.6810   42.7850 C   0  0  0  0  0  0  0  0  0  0  0  0
   45.4020   33.6390   43.6570 N   0  0  0  0  0  0  0  0  0  0  0  0
   45.4790   33.8610   44.9610 C   0  0  0  0  0  0  0  0  0  0  0  0
   44.9770   35.0060   45.4800 N   0  0  0  0  0  0  0  0  0  0  0  0
   46.0380   32.9160   45.7940 N   0  0  0  0  0  0  0  0  0  0  0  0
   45.4990   32.8820   47.1760 C   0  0  0  0  0  0  0  0  0  0  0  0
   46.3300   32.0390   48.1090 C   0  0  0  0  0  0  0  0  0  0  0  0
   47.5150   31.6040   47.5720 O   0  0  0  0  0  0  0  0  0  0  0  0
   47.2590   30.9540   46.3920 C   0  0  0  0  0  0  0  0  0  0  0  0
   47.1030   32.0730   45.3720 C   0  0  1  0  0  0  0  0  0  0  0  0
   45.3460   33.5460   42.7850 H   0  0  0  0  0  0  0  0  0  0  0  0
   46.7880   31.7490   44.0660 N   0  0  0  0  0  0  0  0  0  0  0  0
   45.5160   31.3200   43.8240 C   0  0  0  0  0  0  0  0  0  0  0  0
   45.4350   31.0510   42.3380 C   0  0  0  0  0  0  0  0  0  0  0  0
   46.6860   31.7760   41.7910 C   0  0  0  0  0  0  0  0  0  0  0  0
   47.2370   32.4570   43.0080 C   0  0  2  0  0  0  0  0  0  0  0  0
   48.6180   31.6990   43.0440 C   0  0  0  0  0  0  0  0  0  0  0  0
   43.9972   36.8000   45.0485 H   0  0  0  0  0  0  0  0  0  0  0  0
   44.2197   34.6318   43.0294 H   0  0  0  0  0  0  0  0  0  0  0  0
   43.6015   36.3049   42.8170 H   0  0  0  0  0  0  0  0  0  0  0  0
   45.3708   35.9944   42.8170 H   0  0  0  0  0  0  0  0  0  0  0  0
   45.2790   34.6810   43.8850 H   0  0  0  0  0  0  0  0  0  0  0  0
   45.2790   35.7181   42.4183 H   0  0  0  0  0  0  0  0  0  0  0  0
   46.1771   34.1625   42.4183 H   0  0  0  0  0  0  0  0  0  0  0  0
   44.3809   34.1625   42.4183 H   0  0  0  0  0  0  0  0  0  0  0  0
   45.4676   33.9101   47.5659 H   0  0  0  0  0  0  0  0  0  0  0  0
   44.4966   32.4315   47.1284 H   0  0  0  0  0  0  0  0  0  0  0  0
   46.5563   32.6368   49.0042 H   0  0  0  0  0  0  0  0  0  0  0  0
   45.7372   31.1401   48.3340 H   0  0  0  0  0  0  0  0  0  0  0  0
   48.0962   30.2939   46.1212 H   0  0  0  0  0  0  0  0  0  0  0  0
   46.3678   30.3119   46.4508 H   0  0  0  0  0  0  0  0  0  0  0  0
   48.1129   32.5084   45.3468 H   0  0  0  0  0  0  0  0  0  0  0  0
   45.3104   30.3993   44.3896 H   0  0  0  0  0  0  0  0  0  0  0  0
   44.7746   32.0704   44.1357 H   0  0  0  0  0  0  0  0  0  0  0  0
   45.4784   29.9722   42.1275 H   0  0  0  0  0  0  0  0  0  0  0  0
   44.4959   31.3985   41.8827 H   0  0  0  0  0  0  0  0  0  0  0  0
   47.4099   31.0586   41.3770 H   0  0  0  0  0  0  0  0  0  0  0  0
   46.4606   32.4710   40.9687 H   0  0  0  0  0  0  0  0  0  0  0  0
   47.1051   33.5491   43.0117 H   0  0  0  0  0  0  0  0  0  0  0  0
   48.9186   31.5340   44.0892 H   0  0  0  0  0  0  0  0  0  0  0  0
   48.5176   30.7296   42.5340 H   0  0  0  0  0  0  0  0  0  0  0  0
   49.3819   32.3043   42.5340 H   0  0  0  0  0  0  0  0  0  0  0  0
  1  6  2  0
  2  1  1  0
  4  5  2  0
  5  6  1  0
  5  7  1  0
  7  8  1  0
  8  9  1  0
 10  9  1  0
 11 10  1  0
 12  7  1  0
 12 11  1  0
 13  4  1  0
 14 15  1  0
 14 12  1  0
 16 15  1  0
 17 16  1  0
 17 18  1  0
 18 19  1  0
 18 14  1  0
  1 20  1  0
  2 21  1  0
  2 22  1  0
  2 23  1  0
  3 24  1  0
  3 25  1  0
  3 26  1  0
  3 27  1  0
  8 28  1  0
  8 29  1  0
  9 30  1  0
  9 31  1  0
 11 32  1  0
 11 33  1  0
 12 34  1  6
 15 35  1  0
 15 36  1  0
 16 37  1  0
 16 38  1  0
 17 39  1  0
 17 40  1  0
 18 41  1  1
 19 42  1  0
 19 43  1  0
 19 44  1  0
M  ISO  8  21   8  22   8  23   8  24   8  25   8  26   8  27   8  28  13
M  ISO  8  29  13  30  13  31  13  32  13  33  13  34  13  35  13  36  13
M  ISO  8  37  13  38  13  39  13  40  13  41  13  42   8  43   8  44   8
M  END
>  <minimizedAffinity>  (1) 
-4.50282001

>  <minimizedRMSD>  (1) 
0.83159095

$$$$
