
     RDKit          3D

 28 29  0  0  0  0  0  0  0  0999 V2000
   46.3830   33.8070   44.4460 C   0  0  0  0  0  0  0  0  0  0  0  0
   45.3020   34.5670   44.1370 C   0  0  0  0  0  0  0  0  0  0  0  0
   45.8140   35.4060   42.6040 S   0  0  0  0  0  0  0  0  0  0  0  0
   47.4910   34.5280   42.6610 C   0  0  0  0  0  0  0  0  0  0  0  0
   47.3870   33.8930   43.6230 N   0  0  0  0  0  0  0  0  0  0  0  0
   45.5970   32.3730   47.8900 C   0  0  0  0  0  0  0  0  0  0  0  0
   45.5790   33.2010   46.7740 C   0  0  0  0  0  0  0  0  0  0  0  0
   46.3740   32.9450   45.6590 C   0  0  0  0  0  0  0  0  0  0  0  0
   47.1430   31.8460   45.7640 N   0  0  0  0  0  0  0  0  0  0  0  0
   47.1790   31.0290   46.8290 C   0  0  0  0  0  0  0  0  0  0  0  0
   46.4040   31.3090   47.8760 N   0  0  0  0  0  0  0  0  0  0  0  0
   48.5940   34.7040   41.6440 C   0  0  0  0  0  0  0  0  0  0  0  0
   47.9790   34.4380   40.2940 C   0  0  0  0  0  0  0  0  0  0  0  0
   49.6670   33.7100   41.9830 C   0  0  0  0  0  0  0  0  0  0  0  0
   49.1340   36.1120   41.6880 C   0  0  0  0  0  0  0  0  0  0  0  0
   44.3493   34.6548   44.6799 H   0  0  0  0  0  0  0  0  0  0  0  0
   44.9628   32.5885   48.7625 H   0  0  0  0  0  0  0  0  0  0  0  0
   44.9198   34.0816   46.7710 H   0  0  0  0  0  0  0  0  0  0  0  0
   47.8352   30.1462   46.8369 H   0  0  0  0  0  0  0  0  0  0  0  0
   46.9768   34.0045   40.4266 H   0  0  0  0  0  0  0  0  0  0  0  0
   47.8991   35.3820   39.7350 H   0  0  0  0  0  0  0  0  0  0  0  0
   48.6122   33.7333   39.7350 H   0  0  0  0  0  0  0  0  0  0  0  0
   49.7573   33.6264   43.0761 H   0  0  0  0  0  0  0  0  0  0  0  0
   49.4046   32.7288   41.5606 H   0  0  0  0  0  0  0  0  0  0  0  0
   50.6253   34.0466   41.5606 H   0  0  0  0  0  0  0  0  0  0  0  0
   49.2544   36.4260   42.7353 H   0  0  0  0  0  0  0  0  0  0  0  0
   50.1092   36.1467   41.1804 H   0  0  0  0  0  0  0  0  0  0  0  0
   48.4321   36.7899   41.1804 H   0  0  0  0  0  0  0  0  0  0  0  0
  1  8  1  0
  2  1  2  0
  3  4  1  0
  3  2  1  0
  4  5  2  0
  5  1  1  0
  7  6  2  0
  8  9  2  0
  8  7  1  0
  9 10  1  0
 10 11  2  0
 11  6  1  0
 12 15  1  0
 12 14  1  0
 12  4  1  0
 13 12  1  0
  2 16  1  0
  6 17  1  0
  7 18  1  0
 10 19  1  0
 13 20  1  0
 13 21  1  0
 13 22  1  0
 14 23  1  0
 14 24  1  0
 14 25  1  0
 15 26  1  0
 15 27  1  0
 15 28  1  0
M  ISO  8  16  14  17  14  18  14  19  14  20   8  21   8  22   8  23   8
M  ISO  5  24   8  25   8  26   8  27   8  28   8
M  END
>  <minimizedAffinity>  (1) 
-4.83200645

>  <minimizedRMSD>  (1) 
3.27206278

$$$$
