
     RDKit          3D

 15 15  0  0  0  0  0  0  0  0999 V2000
   48.5560   33.7520   40.6400 C   0  0  0  0  0  0  0  0  0  0  0  0
   49.4190   33.0740   41.4990 C   0  0  0  0  0  0  0  0  0  0  0  0
   50.0980   33.8530   42.4580 C   0  0  0  0  0  0  0  0  0  0  0  0
   49.8780   35.2040   42.4950 N   0  0  0  0  0  0  0  0  0  0  0  0
   49.0340   35.7960   41.6400 C   0  0  0  0  0  0  0  0  0  0  0  0
   48.3750   35.0830   40.7200 N   0  0  0  0  0  0  0  0  0  0  0  0
   47.8310   32.9740   39.6300 C   0  0  0  0  0  0  0  0  0  0  0  0
   47.8890   31.7120   39.6780 O   0  0  0  0  0  0  0  0  0  0  0  0
   47.1070   33.6280   38.6520 O   0  0  0  0  0  0  0  0  0  0  0  0
   47.6480   33.7940   37.3790 C   0  0  0  0  0  0  0  0  0  0  0  0
   48.4990   34.7280   37.2720 O   0  0  0  0  0  0  0  0  0  0  0  0
   49.5631   31.9855   41.4321 H   0  0  0  0  0  0  0  0  0  0  0  0
   50.7950   33.3820   43.1668 H   0  0  0  0  0  0  0  0  0  0  0  0
   48.8806   36.8839   41.6952 H   0  0  0  0  0  0  0  0  0  0  0  0
   47.3578   33.1604   36.5279 H   0  0  0  0  0  0  0  0  0  0  0  0
  1  6  2  0
  1  2  1  0
  2  3  2  0
  3  4  1  0
  5  4  2  0
  6  5  1  0
  7  8  2  0
  7  1  1  0
  9  7  1  0
 10  9  1  0
 11 10  2  0
  2 12  1  0
  3 13  1  0
  5 14  1  0
 10 15  1  0
M  ISO  4  12  14  13  14  14  14  15   6
M  END
>  <minimizedAffinity>  (1) 
-3.03359103

>  <minimizedRMSD>  (1) 
4.64025354

$$$$
