
     RDKit          3D

 35 36  0  0  0  0  0  0  0  0999 V2000
   46.9190   33.7720   41.6380 C   0  0  0  0  0  0  0  0  0  0  0  0
   46.5030   33.0630   45.2140 C   0  0  0  0  0  0  0  0  0  0  0  0
   45.5360   33.9800   45.5100 C   0  0  0  0  0  0  0  0  0  0  0  0
   45.2470   34.7990   43.9090 S   0  0  0  0  0  0  0  0  0  0  0  0
   46.5590   33.6870   43.0910 C   0  0  0  0  0  0  0  0  0  0  0  0
   46.8930   33.0490   43.9850 N   0  0  0  0  0  0  0  0  0  0  0  0
   47.6420   31.6720   48.5690 C   0  0  0  0  0  0  0  0  0  0  0  0
   47.1600   32.5410   47.6030 C   0  0  0  0  0  0  0  0  0  0  0  0
   47.0140   32.1740   46.2790 C   0  0  0  0  0  0  0  0  0  0  0  0
   47.3840   30.8960   46.0180 N   0  0  0  0  0  0  0  0  0  0  0  0
   47.8570   30.0260   46.9290 C   0  0  0  0  0  0  0  0  0  0  0  0
   47.9790   30.4270   48.1910 N   0  0  0  0  0  0  0  0  0  0  0  0
   45.6600   34.0550   40.8730 C   0  0  0  0  0  0  0  0  0  0  0  0
   47.4860   32.4160   41.2700 C   0  0  0  0  0  0  0  0  0  0  0  0
   47.9420   34.8300   41.3710 C   0  0  0  0  0  0  0  0  0  0  0  0
   49.2960   34.3910   41.3120 N   0  0  0  0  0  0  0  0  0  0  0  0
   50.2100   34.3110   42.3960 C   0  0  0  0  0  0  0  0  0  0  0  0
   50.1800   35.3870   43.1460 N   0  0  0  0  0  0  0  0  0  0  0  0
   51.0220   33.1290   42.5400 N   0  0  0  0  0  0  0  0  0  0  0  0
   50.8270   35.3940   43.9600 H   0  0  0  0  0  0  0  0  0  0  0  0
   45.0507   34.1761   46.4775 H   0  0  0  0  0  0  0  0  0  0  0  0
   47.7459   31.9923   49.6162 H   0  0  0  0  0  0  0  0  0  0  0  0
   46.8829   33.5627   47.9020 H   0  0  0  0  0  0  0  0  0  0  0  0
   48.1372   29.0035   46.6357 H   0  0  0  0  0  0  0  0  0  0  0  0
   44.8363   34.2402   41.5781 H   0  0  0  0  0  0  0  0  0  0  0  0
   45.8072   34.9425   40.2400 H   0  0  0  0  0  0  0  0  0  0  0  0
   45.4133   33.1899   40.2400 H   0  0  0  0  0  0  0  0  0  0  0  0
   47.7204   31.8555   42.1870 H   0  0  0  0  0  0  0  0  0  0  0  0
   46.7460   31.8576   40.6779 H   0  0  0  0  0  0  0  0  0  0  0  0
   48.4033   32.5505   40.6779 H   0  0  0  0  0  0  0  0  0  0  0  0
   47.6979   35.2978   40.4058 H   0  0  0  0  0  0  0  0  0  0  0  0
   47.8903   35.5150   42.2302 H   0  0  0  0  0  0  0  0  0  0  0  0
   49.6482   34.1019   40.3883 H   0  0  0  0  0  0  0  0  0  0  0  0
   51.6899   33.0550   43.3206 H   0  0  0  0  0  0  0  0  0  0  0  0
   50.9344   32.3583   41.8623 H   0  0  0  0  0  0  0  0  0  0  0  0
  1  5  1  0
  2  3  2  0
  2  9  1  0
  4  3  1  0
  5  4  1  0
  5  6  2  0
  6  2  1  0
  8  7  2  0
  9  8  1  0
 10  9  2  0
 10 11  1  0
 11 12  2  0
 12  7  1  0
 13  1  1  0
 14  1  1  0
 15  1  1  0
 16 15  1  0
 16 17  1  0
 17 19  1  0
 17 18  2  0
 18 20  1  0
  3 21  1  0
  7 22  1  0
  8 23  1  0
 11 24  1  0
 13 25  1  0
 13 26  1  0
 13 27  1  0
 14 28  1  0
 14 29  1  0
 14 30  1  0
 15 31  1  0
 15 32  1  0
 16 33  1  0
 19 34  1  0
 19 35  1  0
M  ISO  8  21  14  22  14  23  14  24  14  25   8  26   8  27   8  28   8
M  ISO  4  29   8  30   8  31   8  32   8
M  END
>  <minimizedAffinity>  (1) 
-5.57102299

>  <minimizedRMSD>  (1) 
2.00304317

$$$$
