
     RDKit          3D

 34 36  0  0  0  0  0  0  0  0999 V2000
   45.8540   33.3700   41.5640 C   0  0  0  0  0  0  0  0  0  0  0  0
   45.6320   33.7250   45.2120 C   0  0  0  0  0  0  0  0  0  0  0  0
   45.0050   34.9350   45.2860 C   0  0  0  0  0  0  0  0  0  0  0  0
   44.7860   35.3950   43.5420 S   0  0  0  0  0  0  0  0  0  0  0  0
   45.6250   33.7840   42.9860 C   0  0  0  0  0  0  0  0  0  0  0  0
   45.8660   33.2960   44.0160 N   0  0  0  0  0  0  0  0  0  0  0  0
   45.5740   32.2890   48.7370 C   0  0  0  0  0  0  0  0  0  0  0  0
   45.1870   32.9760   47.5940 C   0  0  0  0  0  0  0  0  0  0  0  0
   45.9870   33.0110   46.4590 C   0  0  0  0  0  0  0  0  0  0  0  0
   47.1540   32.3290   46.5650 N   0  0  0  0  0  0  0  0  0  0  0  0
   47.5380   31.6580   47.6730 C   0  0  0  0  0  0  0  0  0  0  0  0
   46.7400   31.6530   48.7320 N   0  0  0  0  0  0  0  0  0  0  0  0
   44.5290   33.4450   40.8680 C   0  0  0  0  0  0  0  0  0  0  0  0
   46.4110   31.9880   41.5840 C   0  0  0  0  0  0  0  0  0  0  0  0
   46.8240   34.3230   40.8950 C   0  0  0  0  0  0  0  0  0  0  0  0
   48.1230   34.2930   41.5410 N   0  0  0  0  0  0  0  0  0  0  0  0
   48.6570   35.4380   42.0580 C   0  0  0  0  0  0  0  0  0  0  0  0
   49.8630   35.0920   42.5900 N   0  0  0  0  0  0  0  0  0  0  0  0
   50.0630   33.7570   42.4000 C   0  0  0  0  0  0  0  0  0  0  0  0
   48.9850   33.3240   41.7640 N   0  0  0  0  0  0  0  0  0  0  0  0
   44.7051   35.4956   46.1836 H   0  0  0  0  0  0  0  0  0  0  0  0
   44.9286   32.2719   49.6276 H   0  0  0  0  0  0  0  0  0  0  0  0
   44.2229   33.5057   47.5872 H   0  0  0  0  0  0  0  0  0  0  0  0
   48.4991   31.1234   47.6963 H   0  0  0  0  0  0  0  0  0  0  0  0
   43.7239   33.4906   41.6162 H   0  0  0  0  0  0  0  0  0  0  0  0
   44.4960   34.3465   40.2385 H   0  0  0  0  0  0  0  0  0  0  0  0
   44.3945   32.5530   40.2385 H   0  0  0  0  0  0  0  0  0  0  0  0
   46.5428   31.6609   42.6259 H   0  0  0  0  0  0  0  0  0  0  0  0
   45.7176   31.3057   41.0704 H   0  0  0  0  0  0  0  0  0  0  0  0
   47.3837   31.9772   41.0704 H   0  0  0  0  0  0  0  0  0  0  0  0
   46.4193   35.3443   40.9514 H   0  0  0  0  0  0  0  0  0  0  0  0
   46.9499   34.0115   39.8476 H   0  0  0  0  0  0  0  0  0  0  0  0
   48.2040   36.4404   42.0473 H   0  0  0  0  0  0  0  0  0  0  0  0
   50.9362   33.1640   42.7098 H   0  0  0  0  0  0  0  0  0  0  0  0
  1 14  1  0
  1  5  1  0
  2  3  2  0
  2  9  1  0
  4  3  1  0
  5  4  1  0
  5  6  2  0
  6  2  1  0
  8  7  2  0
  9 10  2  0
  9  8  1  0
 10 11  1  0
 11 12  2  0
 12  7  1  0
 13  1  1  0
 15 16  1  0
 15  1  1  0
 16 20  1  0
 16 17  1  0
 17 18  2  0
 19 18  1  0
 20 19  2  0
  3 21  1  0
  7 22  1  0
  8 23  1  0
 11 24  1  0
 13 25  1  0
 13 26  1  0
 13 27  1  0
 14 28  1  0
 14 29  1  0
 14 30  1  0
 15 31  1  0
 15 32  1  0
 17 33  1  0
 19 34  1  0
M  ISO  8  21  14  22  14  23  14  24  14  25   8  26   8  27   8  28   8
M  ISO  6  29   8  30   8  31   8  32   8  33  14  34  14
M  END
>  <minimizedAffinity>  (1) 
-4.89503241

>  <minimizedRMSD>  (1) 
2.42179394

$$$$
