
     RDKit          3D

 30 32  0  0  0  0  0  0  0  0999 V2000
   43.4870   34.5760   41.7700 C   0  0  0  0  0  0  0  0  0  0  0  0
   43.5470   35.7970   42.4440 C   0  0  0  0  0  0  0  0  0  0  0  0
   44.7800   36.1180   43.0290 C   0  0  0  0  0  0  0  0  0  0  0  0
   45.8210   35.2560   42.9170 N   0  0  0  0  0  0  0  0  0  0  0  0
   45.7230   34.0980   42.2640 C   0  0  0  0  0  0  0  0  0  0  0  0
   44.5690   33.8090   41.7230 N   0  0  0  0  0  0  0  0  0  0  0  0
   46.7150   33.0320   42.0270 C   0  0  0  0  0  0  0  0  0  0  0  0
   46.3970   31.7590   41.6830 N   0  0  0  0  0  0  0  0  0  0  0  0
   47.2780   30.7930   41.4670 C   0  0  0  0  0  0  0  0  0  0  0  0
   48.6000   31.0080   41.5780 N   0  0  0  0  0  0  0  0  0  0  0  0
   49.0250   32.2490   41.9180 C   0  0  0  0  0  0  0  0  0  0  0  0
   50.3790   32.4570   42.0270 C   0  0  0  0  0  0  0  0  0  0  0  0
   50.8680   33.6940   42.3690 C   0  0  0  0  0  0  0  0  0  0  0  0
   49.9220   34.6990   42.5920 C   0  0  0  0  0  0  0  0  0  0  0  0
   48.5860   34.4300   42.4670 C   0  0  0  0  0  0  0  0  0  0  0  0
   48.0720   33.2120   42.1290 C   0  0  0  0  0  0  0  0  0  0  0  0
   42.2240   34.1790   41.1380 C   0  0  0  0  0  0  0  0  0  0  0  0
   42.2330   33.1720   40.3670 O   0  0  0  0  0  0  0  0  0  0  0  0
   41.0850   34.9200   41.4120 O   0  0  0  0  0  0  0  0  0  0  0  0
   40.4500   35.5960   40.3550 C   0  0  0  0  0  0  0  0  0  0  0  0
   39.4620   34.8220   39.7560 F   0  0  0  0  0  0  0  0  0  0  0  0
   39.8870   36.7790   40.7890 F   0  0  0  0  0  0  0  0  0  0  0  0
   41.4410   35.8500   39.4050 F   0  0  0  0  0  0  0  0  0  0  0  0
   42.6779   36.4679   42.5121 H   0  0  0  0  0  0  0  0  0  0  0  0
   44.9025   37.0644   43.5762 H   0  0  0  0  0  0  0  0  0  0  0  0
   46.9186   29.7909   41.1902 H   0  0  0  0  0  0  0  0  0  0  0  0
   51.0760   31.6270   41.8390 H   0  0  0  0  0  0  0  0  0  0  0  0
   51.9474   33.8841   42.4626 H   0  0  0  0  0  0  0  0  0  0  0  0
   50.2531   35.7107   42.8692 H   0  0  0  0  0  0  0  0  0  0  0  0
   47.8783   35.2516   42.6516 H   0  0  0  0  0  0  0  0  0  0  0  0
  1  2  2  0
  2  3  1  0
  4  3  2  0
  5  4  1  0
  6  1  1  0
  6  5  2  0
  7 16  1  0
  7  5  1  0
  8  7  2  0
  9 10  2  0
  9  8  1  0
 10 11  1  0
 11 12  1  0
 11 16  2  0
 12 13  2  0
 13 14  1  0
 15 14  2  0
 16 15  1  0
 17 19  1  0
 17  1  1  0
 18 17  2  0
 20 22  1  0
 20 19  1  0
 21 20  1  0
 23 20  1  0
  2 24  1  0
  3 25  1  0
  9 26  1  0
 12 27  1  0
 13 28  1  0
 14 29  1  0
 15 30  1  0
M  ISO  7  24  14  25  14  26  14  27  14  28  14  29  14  30  14
M  END
>  <minimizedAffinity>  (1) 
-5.54960728

>  <minimizedRMSD>  (1) 
5.79278278

$$$$
