
     RDKit          3D

 33 34  0  0  0  0  0  0  0  0999 V2000
   46.1890   33.4470   41.8710 C   0  0  0  0  0  0  0  0  0  0  0  0
   46.3230   32.9830   45.5050 C   0  0  0  0  0  0  0  0  0  0  0  0
   45.4910   33.9820   45.8850 C   0  0  0  0  0  0  0  0  0  0  0  0
   44.9980   34.7230   44.3040 S   0  0  0  0  0  0  0  0  0  0  0  0
   46.0630   33.4810   43.3520 C   0  0  0  0  0  0  0  0  0  0  0  0
   46.5020   32.8660   44.2310 N   0  0  0  0  0  0  0  0  0  0  0  0
   47.8340   31.6530   48.7380 C   0  0  0  0  0  0  0  0  0  0  0  0
   47.2380   32.5050   47.8280 C   0  0  0  0  0  0  0  0  0  0  0  0
   46.9650   32.1010   46.5130 C   0  0  0  0  0  0  0  0  0  0  0  0
   47.3380   30.8380   46.2550 N   0  0  0  0  0  0  0  0  0  0  0  0
   47.9140   29.9920   47.1110 C   0  0  0  0  0  0  0  0  0  0  0  0
   48.1500   30.4200   48.3350 N   0  0  0  0  0  0  0  0  0  0  0  0
   44.8460   33.1250   41.3000 C   0  0  0  0  0  0  0  0  0  0  0  0
   47.1810   32.3480   41.5410 C   0  0  0  0  0  0  0  0  0  0  0  0
   46.7110   34.7490   41.3210 C   0  0  0  0  0  0  0  0  0  0  0  0
   47.7580   35.2420   42.1950 N   0  0  0  0  0  0  0  0  0  0  0  0
   48.9620   35.6160   41.4760 C   0  0  0  0  0  0  0  0  0  0  0  0
   48.6710   35.4910   40.1030 F   0  0  0  0  0  0  0  0  0  0  0  0
   49.9330   34.6790   41.7670 F   0  0  0  0  0  0  0  0  0  0  0  0
   49.3950   36.8930   41.7260 F   0  0  0  0  0  0  0  0  0  0  0  0
   45.1886   34.2725   46.9019 H   0  0  0  0  0  0  0  0  0  0  0  0
   48.0425   31.9817   49.7668 H   0  0  0  0  0  0  0  0  0  0  0  0
   46.9712   33.5248   48.1425 H   0  0  0  0  0  0  0  0  0  0  0  0
   48.1832   28.9703   46.8050 H   0  0  0  0  0  0  0  0  0  0  0  0
   44.1312   32.9536   42.1183 H   0  0  0  0  0  0  0  0  0  0  0  0
   44.4997   33.9656   40.6807 H   0  0  0  0  0  0  0  0  0  0  0  0
   44.9186   32.2188   40.6807 H   0  0  0  0  0  0  0  0  0  0  0  0
   47.5720   31.9148   42.4735 H   0  0  0  0  0  0  0  0  0  0  0  0
   46.6785   31.5643   40.9551 H   0  0  0  0  0  0  0  0  0  0  0  0
   48.0119   32.7679   40.9551 H   0  0  0  0  0  0  0  0  0  0  0  0
   47.1181   34.5869   40.3120 H   0  0  0  0  0  0  0  0  0  0  0  0
   45.8947   35.4842   41.2657 H   0  0  0  0  0  0  0  0  0  0  0  0
   47.4048   36.0687   42.6976 H   0  0  0  0  0  0  0  0  0  0  0  0
  1  5  1  0
  2  3  2  0
  2  9  1  0
  4  3  1  0
  5  6  2  0
  5  4  1  0
  6  2  1  0
  8  7  2  0
  9  8  1  0
 10  9  2  0
 10 11  1  0
 11 12  2  0
 12  7  1  0
 13  1  1  0
 14  1  1  0
 15  1  1  0
 15 16  1  0
 17 20  1  0
 17 19  1  0
 17 16  1  0
 18 17  1  0
  3 21  1  0
  7 22  1  0
  8 23  1  0
 11 24  1  0
 13 25  1  0
 13 26  1  0
 13 27  1  0
 14 28  1  0
 14 29  1  0
 14 30  1  0
 15 31  1  0
 15 32  1  0
 16 33  1  0
M  ISO  8  21  14  22  14  23  14  24  14  25   8  26   8  27   8  28   8
M  ISO  5  29   8  30   8  31   8  32   8  33   5
M  END
>  <minimizedAffinity>  (1) 
-5.07298326

>  <minimizedRMSD>  (1) 
2.32559824

$$$$
