
     RDKit          3D

 30 32  0  0  0  0  0  0  0  0999 V2000
   45.4530   34.2750   40.8790 C   0  0  0  0  0  0  0  0  0  0  0  0
   46.8140   34.4640   41.1490 C   0  0  0  0  0  0  0  0  0  0  0  0
   47.7470   33.9500   40.2250 C   0  0  0  0  0  0  0  0  0  0  0  0
   47.2790   33.2990   39.1260 N   0  0  0  0  0  0  0  0  0  0  0  0
   45.9480   33.1470   38.9170 C   0  0  0  0  0  0  0  0  0  0  0  0
   45.0780   33.6330   39.7880 N   0  0  0  0  0  0  0  0  0  0  0  0
   45.4140   32.4720   37.7790 N   0  0  0  0  0  0  0  0  0  0  0  0
   44.2200   31.8920   37.5570 C   0  0  0  0  0  0  0  0  0  0  0  0
   44.1700   31.3760   36.3160 N   0  0  0  0  0  0  0  0  0  0  0  0
   45.3600   31.6310   35.7270 C   0  0  0  0  0  0  0  0  0  0  0  0
   45.8580   31.3310   34.4630 C   0  0  0  0  0  0  0  0  0  0  0  0
   45.1620   30.7090   33.6220 O   0  0  0  0  0  0  0  0  0  0  0  0
   47.1160   31.7060   34.1040 N   0  0  0  0  0  0  0  0  0  0  0  0
   47.8100   32.3680   35.0480 C   0  0  0  0  0  0  0  0  0  0  0  0
   49.1160   32.7720   34.7150 N   0  0  0  0  0  0  0  0  0  0  0  0
   47.3640   32.6760   36.2790 N   0  0  0  0  0  0  0  0  0  0  0  0
   46.1330   32.3130   36.6390 C   0  0  0  0  0  0  0  0  0  0  0  0
   44.5010   34.8100   41.8370 C   0  0  0  0  0  0  0  0  0  0  0  0
   43.6920   35.7180   41.4630 O   0  0  0  0  0  0  0  0  0  0  0  0
   44.5060   34.3040   43.1490 O   0  0  0  0  0  0  0  0  0  0  0  0
   45.1680   35.0460   44.1370 C   0  0  0  0  0  0  0  0  0  0  0  0
   44.3740   35.2210   45.2770 F   0  0  0  0  0  0  0  0  0  0  0  0
   46.3270   34.4000   44.5190 F   0  0  0  0  0  0  0  0  0  0  0  0
   45.4370   36.2890   43.6100 F   0  0  0  0  0  0  0  0  0  0  0  0
   47.1447   34.9964   42.0530 H   0  0  0  0  0  0  0  0  0  0  0  0
   48.8278   34.0726   40.3890 H   0  0  0  0  0  0  0  0  0  0  0  0
   43.3996   31.8464   38.2884 H   0  0  0  0  0  0  0  0  0  0  0  0
   47.5093   31.4978   33.1751 H   0  0  0  0  0  0  0  0  0  0  0  0
   49.6885   33.2819   35.4029 H   0  0  0  0  0  0  0  0  0  0  0  0
   49.4995   32.5579   33.7834 H   0  0  0  0  0  0  0  0  0  0  0  0
  1  2  2  0
  1 18  1  0
  3  2  1  0
  4  3  2  0
  5  4  1  0
  5  6  2  0
  6  1  1  0
  7  5  1  0
  8  7  1  0
  9  8  2  0
 10  9  1  0
 10 17  2  0
 11 10  1  0
 12 11  2  0
 13 11  1  0
 13 14  1  0
 14 16  2  0
 15 14  1  0
 16 17  1  0
 17  7  1  0
 18 20  1  0
 19 18  2  0
 20 21  1  0
 21 23  1  0
 21 22  1  0
 24 21  1  0
  2 25  1  0
  3 26  1  0
  8 27  1  0
 13 28  1  0
 15 29  1  0
 15 30  1  0
M  ISO  4  25  14  26  14  27  14  28   9
M  END
>  <minimizedAffinity>  (1) 
-5.45631075

>  <minimizedRMSD>  (1) 
0.904696226

$$$$
