
     RDKit          3D

 36 37  0  0  0  0  0  0  0  0999 V2000
   45.6130   34.1690   42.2450 C   0  0  0  0  0  0  0  0  0  0  0  0
   45.4200   33.8550   45.8910 C   0  0  0  0  0  0  0  0  0  0  0  0
   44.6840   34.9550   46.1810 C   0  0  0  0  0  0  0  0  0  0  0  0
   44.3880   35.6820   44.5690 S   0  0  0  0  0  0  0  0  0  0  0  0
   45.3630   34.3050   43.7130 C   0  0  0  0  0  0  0  0  0  0  0  0
   45.6610   33.6860   44.6440 N   0  0  0  0  0  0  0  0  0  0  0  0
   45.5180   31.6370   48.9850 C   0  0  0  0  0  0  0  0  0  0  0  0
   45.0390   32.4830   48.0060 C   0  0  0  0  0  0  0  0  0  0  0  0
   45.8660   32.9500   46.9820 C   0  0  0  0  0  0  0  0  0  0  0  0
   47.1420   32.4990   47.0530 N   0  0  0  0  0  0  0  0  0  0  0  0
   47.6190   31.6810   47.9940 C   0  0  0  0  0  0  0  0  0  0  0  0
   46.8080   31.2670   48.9360 N   0  0  0  0  0  0  0  0  0  0  0  0
   44.4560   34.8390   41.5520 C   0  0  0  0  0  0  0  0  0  0  0  0
   45.7010   32.7280   41.9290 C   0  0  0  0  0  0  0  0  0  0  0  0
   46.8900   34.8660   41.8570 C   0  0  0  0  0  0  0  0  0  0  0  0
   47.8580   33.9250   41.3130 N   0  0  0  0  0  0  0  0  0  0  0  0
   48.1350   34.2330   39.8730 C   0  0  0  0  0  0  0  0  0  0  0  0
   48.6520   35.5250   39.8570 F   0  0  0  0  0  0  0  0  0  0  0  0
   47.0650   34.1080   39.0950 F   0  0  0  0  0  0  0  0  0  0  0  0
   49.1310   33.3990   39.3720 F   0  0  0  0  0  0  0  0  0  0  0  0
   49.1120   34.6790   41.7920 C   0  0  0  0  0  0  0  0  0  0  0  0
   49.0470   34.8060   43.1520 F   0  0  0  0  0  0  0  0  0  0  0  0
   50.2250   33.8990   41.6700 F   0  0  0  0  0  0  0  0  0  0  0  0
   49.1970   35.8670   41.1670 F   0  0  0  0  0  0  0  0  0  0  0  0
   44.3496   35.3144   47.1654 H   0  0  0  0  0  0  0  0  0  0  0  0
   44.8585   31.2740   49.7871 H   0  0  0  0  0  0  0  0  0  0  0  0
   43.9848   32.7959   48.0325 H   0  0  0  0  0  0  0  0  0  0  0  0
   48.6714   31.3611   47.9788 H   0  0  0  0  0  0  0  0  0  0  0  0
   43.7613   35.2413   42.3040 H   0  0  0  0  0  0  0  0  0  0  0  0
   44.8309   35.6598   40.9229 H   0  0  0  0  0  0  0  0  0  0  0  0
   43.9307   34.1053   40.9229 H   0  0  0  0  0  0  0  0  0  0  0  0
   45.7364   32.1491   42.8637 H   0  0  0  0  0  0  0  0  0  0  0  0
   44.8196   32.4264   41.3440 H   0  0  0  0  0  0  0  0  0  0  0  0
   46.6125   32.5359   41.3440 H   0  0  0  0  0  0  0  0  0  0  0  0
   46.6657   35.6295   41.0976 H   0  0  0  0  0  0  0  0  0  0  0  0
   47.3216   35.3292   42.7565 H   0  0  0  0  0  0  0  0  0  0  0  0
  1  5  1  0
  2  3  2  0
  2  9  1  0
  4  3  1  0
  5  4  1  0
  5  6  2  0
  6  2  1  0
  8  7  2  0
  9 10  2  0
  9  8  1  0
 10 11  1  0
 11 12  2  0
 12  7  1  0
 13  1  1  0
 14  1  1  0
 15  1  1  0
 16 21  1  0
 16 15  1  0
 17 16  1  0
 18 17  1  0
 19 17  1  0
 20 17  1  0
 21 22  1  0
 23 21  1  0
 24 21  1  0
  3 25  1  0
  7 26  1  0
  8 27  1  0
 11 28  1  0
 13 29  1  0
 13 30  1  0
 13 31  1  0
 14 32  1  0
 14 33  1  0
 14 34  1  0
 15 35  1  0
 15 36  1  0
M  ISO  8  25  14  26  14  27  14  28  14  29   8  30   8  31   8  32   8
M  ISO  4  33   8  34   8  35   8  36   8
M  END
>  <minimizedAffinity>  (1) 
-6.0362277

>  <minimizedRMSD>  (1) 
2.31849647

$$$$
