
     RDKit          3D

 40 42  0  0  0  0  0  0  0  0999 V2000
   45.5490   34.2030   41.8690 C   0  0  0  0  0  0  0  0  0  0  0  0
   45.6690   33.4820   45.4560 C   0  0  0  0  0  0  0  0  0  0  0  0
   45.0210   34.5920   45.9060 C   0  0  0  0  0  0  0  0  0  0  0  0
   44.6470   35.4760   44.3830 S   0  0  0  0  0  0  0  0  0  0  0  0
   45.4640   34.1450   43.3310 C   0  0  0  0  0  0  0  0  0  0  0  0
   45.7940   33.4310   44.1760 N   0  0  0  0  0  0  0  0  0  0  0  0
   47.4950   31.7140   48.2870 C   0  0  0  0  0  0  0  0  0  0  0  0
   47.0730   32.7180   47.4330 C   0  0  0  0  0  0  0  0  0  0  0  0
   46.1520   32.4470   46.3980 C   0  0  0  0  0  0  0  0  0  0  0  0
   45.7610   31.1730   46.3450 N   0  0  0  0  0  0  0  0  0  0  0  0
   46.1490   30.1800   47.1560 C   0  0  0  0  0  0  0  0  0  0  0  0
   47.0080   30.4790   48.1060 N   0  0  0  0  0  0  0  0  0  0  0  0
   44.4050   34.9890   41.3460 C   0  0  0  0  0  0  0  0  0  0  0  0
   45.4270   32.7510   41.3820 C   0  0  0  0  0  0  0  0  0  0  0  0
   46.8760   34.7080   41.3610 C   0  0  0  0  0  0  0  0  0  0  0  0
   47.6420   33.6230   40.7930 N   0  0  0  0  0  0  0  0  0  0  0  0
   48.0060   33.9320   39.4020 C   0  0  0  0  0  0  0  0  0  0  0  0
   48.4850   35.2360   39.3870 F   0  0  0  0  0  0  0  0  0  0  0  0
   46.9110   33.8360   38.5990 F   0  0  0  0  0  0  0  0  0  0  0  0
   49.0070   33.1030   38.9260 F   0  0  0  0  0  0  0  0  0  0  0  0
   48.8880   33.3380   41.4320 C   0  0  0  0  0  0  0  0  0  0  0  0
   49.2580   34.2560   42.6500 C   0  0  0  0  0  0  0  0  0  0  0  0
   49.1230   32.8200   42.7710 C   0  0  0  0  0  0  0  0  0  0  0  0
   44.7850   34.8773   46.9418 H   0  0  0  0  0  0  0  0  0  0  0  0
   48.2122   31.9246   49.0940 H   0  0  0  0  0  0  0  0  0  0  0  0
   47.4599   33.7396   47.5623 H   0  0  0  0  0  0  0  0  0  0  0  0
   45.7650   29.1566   47.0325 H   0  0  0  0  0  0  0  0  0  0  0  0
   43.8208   35.3904   42.1872 H   0  0  0  0  0  0  0  0  0  0  0  0
   44.7815   35.8200   40.7315 H   0  0  0  0  0  0  0  0  0  0  0  0
   43.7643   34.3395   40.7315 H   0  0  0  0  0  0  0  0  0  0  0  0
   45.3704   32.0769   42.2494 H   0  0  0  0  0  0  0  0  0  0  0  0
   44.5167   32.6435   40.7740 H   0  0  0  0  0  0  0  0  0  0  0  0
   46.3066   32.4931   40.7740 H   0  0  0  0  0  0  0  0  0  0  0  0
   46.7019   35.4721   40.5891 H   0  0  0  0  0  0  0  0  0  0  0  0
   47.4387   35.1416   42.2008 H   0  0  0  0  0  0  0  0  0  0  0  0
   49.2600   33.0023   40.4528 H   0  0  0  0  0  0  0  0  0  0  0  0
   50.2493   34.7291   42.7098 H   0  0  0  0  0  0  0  0  0  0  0  0
   48.8185   35.1372   43.1402 H   0  0  0  0  0  0  0  0  0  0  0  0
   48.2767   32.4091   43.3410 H   0  0  0  0  0  0  0  0  0  0  0  0
   49.7937   32.0396   43.1599 H   0  0  0  0  0  0  0  0  0  0  0  0
  1  5  1  0
  2  3  2  0
  2  9  1  0
  4  3  1  0
  5  6  2  0
  5  4  1  0
  6  2  1  0
  8  7  2  0
  9  8  1  0
 10  9  2  0
 10 11  1  0
 11 12  2  0
 12  7  1  0
 13  1  1  0
 14  1  1  0
 15  1  1  0
 16 15  1  0
 16 21  1  0
 17 16  1  0
 18 17  1  0
 19 17  1  0
 20 17  1  0
 21 22  1  0
 21 23  1  0
 22 23  1  0
  3 24  1  0
  7 25  1  0
  8 26  1  0
 11 27  1  0
 13 28  1  0
 13 29  1  0
 13 30  1  0
 14 31  1  0
 14 32  1  0
 14 33  1  0
 15 34  1  0
 15 35  1  0
 21 36  1  0
 22 37  1  0
 22 38  1  0
 23 39  1  0
 23 40  1  0
M  ISO  8  24  14  25  14  26  14  27  14  28   8  29   8  30   8  31   8
M  ISO  8  32   8  33   8  34   8  35   8  36  13  37  13  38  13  39  13
M  ISO  1  40  13
M  END
>  <minimizedAffinity>  (1) 
-5.04050541

>  <minimizedRMSD>  (1) 
2.41243291

$$$$
