
     RDKit          3D

 47 49  0  0  1  0  0  0  0  0999 V2000
   46.1130   31.6450   42.2000 C   0  0  0  0  0  0  0  0  0  0  0  0
   46.7380   32.0600   45.7950 C   0  0  0  0  0  0  0  0  0  0  0  0
   45.9910   33.1700   46.0350 C   0  0  0  0  0  0  0  0  0  0  0  0
   45.3090   33.5360   44.4190 S   0  0  0  0  0  0  0  0  0  0  0  0
   46.2020   32.0360   43.6430 C   0  0  0  0  0  0  0  0  0  0  0  0
   46.7200   31.6560   44.5820 N   0  0  0  0  0  0  0  0  0  0  0  0
   48.4070   31.3810   49.1400 C   0  0  0  0  0  0  0  0  0  0  0  0
   47.6930   32.0240   48.1340 C   0  0  0  0  0  0  0  0  0  0  0  0
   47.4880   31.4170   46.8920 C   0  0  0  0  0  0  0  0  0  0  0  0
   48.0350   30.1960   46.7890 N   0  0  0  0  0  0  0  0  0  0  0  0
   48.7230   29.5430   47.7200 C   0  0  0  0  0  0  0  0  0  0  0  0
   48.8950   30.1570   48.8870 N   0  0  0  0  0  0  0  0  0  0  0  0
   44.7690   31.0070   41.9880 C   0  0  0  0  0  0  0  0  0  0  0  0
   47.2260   30.6820   41.9460 C   0  0  0  0  0  0  0  0  0  0  0  0
   46.2650   32.8380   41.3360 C   0  0  1  0  0  0  0  0  0  0  0  0
   45.1290   33.8110   41.4200 C   0  0  0  0  0  0  0  0  0  0  0  0
   43.8390   33.4370   41.0160 C   0  0  0  0  0  0  0  0  0  0  0  0
   42.7070   34.2210   41.0060 C   0  0  0  0  0  0  0  0  0  0  0  0
   42.8680   35.5130   41.4410 C   0  0  0  0  0  0  0  0  0  0  0  0
   44.0970   35.9710   41.8580 C   0  0  0  0  0  0  0  0  0  0  0  0
   45.1780   35.1220   41.8370 C   0  0  0  0  0  0  0  0  0  0  0  0
   47.5160   33.4660   41.4310 N   0  0  0  0  0  0  0  0  0  0  0  0
   48.6010   34.1220   42.0480 C   0  0  0  0  0  0  0  0  0  0  0  0
   49.6900   34.7290   42.1040 O   0  0  0  0  0  0  0  0  0  0  0  0
   48.4430   34.1550   43.4850 N   0  0  0  0  0  0  0  0  0  0  0  0
   48.2740   33.6830   40.1630 C   0  0  0  0  0  0  0  0  0  0  0  0
   47.3780   33.2320   39.1720 F   0  0  0  0  0  0  0  0  0  0  0  0
   49.3970   33.0510   40.1020 F   0  0  0  0  0  0  0  0  0  0  0  0
   48.3420   35.0750   39.9600 F   0  0  0  0  0  0  0  0  0  0  0  0
   45.8425   33.7082   46.9828 H   0  0  0  0  0  0  0  0  0  0  0  0
   48.5671   31.8627   50.1159 H   0  0  0  0  0  0  0  0  0  0  0  0
   47.2827   33.0276   48.3194 H   0  0  0  0  0  0  0  0  0  0  0  0
   49.1320   28.5391   47.5335 H   0  0  0  0  0  0  0  0  0  0  0  0
   44.3089   30.7886   42.9630 H   0  0  0  0  0  0  0  0  0  0  0  0
   44.1220   31.6941   41.4229 H   0  0  0  0  0  0  0  0  0  0  0  0
   44.8923   30.0713   41.4229 H   0  0  0  0  0  0  0  0  0  0  0  0
   47.6326   30.3302   42.9056 H   0  0  0  0  0  0  0  0  0  0  0  0
   46.8449   29.8241   41.3727 H   0  0  0  0  0  0  0  0  0  0  0  0
   48.0202   31.1825   41.3727 H   0  0  0  0  0  0  0  0  0  0  0  0
   46.2209   32.4192   40.3198 H   0  0  0  0  0  0  0  0  0  0  0  0
   43.7179   32.4006   40.6679 H   0  0  0  0  0  0  0  0  0  0  0  0
   41.7331   33.8355   40.6699 H   0  0  0  0  0  0  0  0  0  0  0  0
   42.0025   36.1918   41.4565 H   0  0  0  0  0  0  0  0  0  0  0  0
   44.2134   37.0082   42.2054 H   0  0  0  0  0  0  0  0  0  0  0  0
   46.1471   35.5167   42.1761 H   0  0  0  0  0  0  0  0  0  0  0  0
   49.1606   34.6039   44.0718 H   0  0  0  0  0  0  0  0  0  0  0  0
   47.6128   33.7296   43.9217 H   0  0  0  0  0  0  0  0  0  0  0  0
  1  5  1  0
  2  3  2  0
  2  9  1  0
  4  3  1  0
  5  4  1  0
  5  6  2  0
  6  2  1  0
  8  7  2  0
  9  8  1  0
 10  9  2  0
 10 11  1  0
 11 12  2  0
 12  7  1  0
 13  1  1  0
 14  1  1  0
 15 16  1  0
 15 22  1  0
 15  1  1  0
 16 21  1  0
 17 16  2  0
 18 17  1  0
 18 19  2  0
 19 20  1  0
 21 20  2  0
 22 23  1  0
 23 24  2  0
 23 25  1  0
 26 22  1  0
 27 26  1  0
 28 26  1  0
 29 26  1  0
  3 30  1  0
  7 31  1  0
  8 32  1  0
 11 33  1  0
 13 34  1  0
 13 35  1  0
 13 36  1  0
 14 37  1  0
 14 38  1  0
 14 39  1  0
 15 40  1  6
 17 41  1  0
 18 42  1  0
 19 43  1  0
 20 44  1  0
 21 45  1  0
 25 46  1  0
 25 47  1  0
M  ISO  8  30  14  31  14  32  14  33  14  34   8  35   8  36   8  37   8
M  ISO  8  38   8  39   8  40   8  41  14  42  14  43  14  44  14  45  14
M  END
>  <minimizedAffinity>  (1) 
-5.40417099

>  <minimizedRMSD>  (1) 
1.90540266

$$$$
