
     RDKit          3D

 27 29  0  0  0  0  0  0  0  0999 V2000
   45.5870   34.3970   41.0970 C   0  0  0  0  0  0  0  0  0  0  0  0
   46.9160   34.6470   41.4600 C   0  0  0  0  0  0  0  0  0  0  0  0
   47.9290   34.2400   40.5700 C   0  0  0  0  0  0  0  0  0  0  0  0
   47.5520   33.6230   39.4010 N   0  0  0  0  0  0  0  0  0  0  0  0
   46.2480   33.4090   39.1050 C   0  0  0  0  0  0  0  0  0  0  0  0
   45.3050   33.7980   39.9530 N   0  0  0  0  0  0  0  0  0  0  0  0
   45.9050   32.7660   37.8800 N   0  0  0  0  0  0  0  0  0  0  0  0
   44.7470   32.1590   37.5590 C   0  0  0  0  0  0  0  0  0  0  0  0
   44.8340   31.6720   36.2860 N   0  0  0  0  0  0  0  0  0  0  0  0
   46.0530   31.9840   35.8290 C   0  0  0  0  0  0  0  0  0  0  0  0
   46.7120   31.7660   34.6400 C   0  0  0  0  0  0  0  0  0  0  0  0
   47.9680   32.2200   34.4910 N   0  0  0  0  0  0  0  0  0  0  0  0
   48.6020   32.8840   35.4770 C   0  0  0  0  0  0  0  0  0  0  0  0
   47.9960   33.1200   36.6530 N   0  0  0  0  0  0  0  0  0  0  0  0
   46.7230   32.6600   36.8070 C   0  0  0  0  0  0  0  0  0  0  0  0
   44.5490   34.8190   42.0190 C   0  0  0  0  0  0  0  0  0  0  0  0
   43.6830   35.6630   41.6210 O   0  0  0  0  0  0  0  0  0  0  0  0
   44.5330   34.2860   43.3120 O   0  0  0  0  0  0  0  0  0  0  0  0
   45.1190   35.0260   44.3520 C   0  0  0  0  0  0  0  0  0  0  0  0
   44.2750   35.1410   45.4510 F   0  0  0  0  0  0  0  0  0  0  0  0
   46.2880   34.4350   44.7570 F   0  0  0  0  0  0  0  0  0  0  0  0
   45.3630   36.2990   43.8470 F   0  0  0  0  0  0  0  0  0  0  0  0
   47.1611   35.1452   42.4096 H   0  0  0  0  0  0  0  0  0  0  0  0
   48.9903   34.4108   40.8035 H   0  0  0  0  0  0  0  0  0  0  0  0
   43.8703   32.0695   38.2173 H   0  0  0  0  0  0  0  0  0  0  0  0
   46.2155   31.2258   33.8204 H   0  0  0  0  0  0  0  0  0  0  0  0
   49.6310   33.2383   35.3171 H   0  0  0  0  0  0  0  0  0  0  0  0
  1  2  2  0
  1 16  1  0
  3  2  1  0
  4  3  2  0
  5  4  1  0
  5  6  2  0
  6  1  1  0
  7  5  1  0
  8  7  1  0
  9  8  2  0
 10  9  1  0
 10 15  2  0
 11 10  1  0
 12 11  2  0
 12 13  1  0
 13 14  2  0
 14 15  1  0
 15  7  1  0
 16 18  1  0
 17 16  2  0
 18 19  1  0
 19 21  1  0
 19 20  1  0
 22 19  1  0
  2 23  1  0
  3 24  1  0
  8 25  1  0
 11 26  1  0
 13 27  1  0
M  ISO  5  23  14  24  14  25  14  26  14  27  14
M  END
>  <minimizedAffinity>  (1) 
-4.95032835

>  <minimizedRMSD>  (1) 
0.783430874

$$$$
