
     RDKit          3D

 44 46  0  0  1  0  0  0  0  0999 V2000
   46.0840   31.7820   42.2490 C   0  0  0  0  0  0  0  0  0  0  0  0
   46.7560   32.1120   45.8420 C   0  0  0  0  0  0  0  0  0  0  0  0
   46.0210   33.2330   46.1100 C   0  0  0  0  0  0  0  0  0  0  0  0
   45.3300   33.6340   44.5090 S   0  0  0  0  0  0  0  0  0  0  0  0
   46.1950   32.1380   43.6980 C   0  0  0  0  0  0  0  0  0  0  0  0
   46.7190   31.7320   44.6210 N   0  0  0  0  0  0  0  0  0  0  0  0
   48.4580   31.3370   49.1530 C   0  0  0  0  0  0  0  0  0  0  0  0
   47.7420   32.0180   48.1700 C   0  0  0  0  0  0  0  0  0  0  0  0
   47.5070   31.4380   46.9200 C   0  0  0  0  0  0  0  0  0  0  0  0
   48.0300   30.2090   46.7920 N   0  0  0  0  0  0  0  0  0  0  0  0
   48.7170   29.5260   47.7000 C   0  0  0  0  0  0  0  0  0  0  0  0
   48.9150   30.1210   48.8760 N   0  0  0  0  0  0  0  0  0  0  0  0
   44.7220   31.1870   42.0310 C   0  0  0  0  0  0  0  0  0  0  0  0
   47.1640   30.7810   41.9730 C   0  0  0  0  0  0  0  0  0  0  0  0
   46.2780   32.9730   41.4020 C   0  0  2  0  0  0  0  0  0  0  0  0
   47.5540   33.5520   41.4870 N   0  0  0  0  0  0  0  0  0  0  0  0
   48.6760   34.1530   42.0980 C   0  0  0  0  0  0  0  0  0  0  0  0
   49.7890   34.7070   42.1450 O   0  0  0  0  0  0  0  0  0  0  0  0
   48.5250   34.1830   43.5350 N   0  0  0  0  0  0  0  0  0  0  0  0
   48.2980   33.7620   40.2140 C   0  0  0  0  0  0  0  0  0  0  0  0
   47.3670   33.3660   39.2310 F   0  0  0  0  0  0  0  0  0  0  0  0
   49.3930   33.0820   40.1200 F   0  0  0  0  0  0  0  0  0  0  0  0
   48.4190   35.1540   40.0320 F   0  0  0  0  0  0  0  0  0  0  0  0
   45.1820   33.9900   41.5320 C   0  0  0  0  0  0  0  0  0  0  0  0
   45.2370   35.2380   41.9920 C   0  0  0  0  0  0  0  0  0  0  0  0
   44.1450   36.0490   42.0480 C   0  0  0  0  0  0  0  0  0  0  0  0
   42.9220   35.4190   41.5590 C   0  0  0  0  0  0  0  0  0  0  0  0
   43.4910   33.6820   41.0570 S   0  0  0  0  0  0  0  0  0  0  0  0
   45.8879   33.7565   47.0682 H   0  0  0  0  0  0  0  0  0  0  0  0
   48.6404   31.7961   50.1358 H   0  0  0  0  0  0  0  0  0  0  0  0
   47.3563   33.0264   48.3809 H   0  0  0  0  0  0  0  0  0  0  0  0
   49.1041   28.5177   47.4917 H   0  0  0  0  0  0  0  0  0  0  0  0
   44.2516   30.9815   43.0039 H   0  0  0  0  0  0  0  0  0  0  0  0
   44.0990   31.8949   41.4647 H   0  0  0  0  0  0  0  0  0  0  0  0
   44.8181   30.2489   41.4647 H   0  0  0  0  0  0  0  0  0  0  0  0
   47.5684   30.4061   42.9248 H   0  0  0  0  0  0  0  0  0  0  0  0
   46.7477   29.9422   41.3958 H   0  0  0  0  0  0  0  0  0  0  0  0
   47.9688   31.2597   41.3958 H   0  0  0  0  0  0  0  0  0  0  0  0
   46.2113   32.5731   40.3794 H   0  0  0  0  0  0  0  0  0  0  0  0
   49.2653   34.5930   44.1222 H   0  0  0  0  0  0  0  0  0  0  0  0
   47.6771   33.7944   43.9720 H   0  0  0  0  0  0  0  0  0  0  0  0
   46.2038   35.6298   42.3409 H   0  0  0  0  0  0  0  0  0  0  0  0
   44.1807   37.0814   42.4260 H   0  0  0  0  0  0  0  0  0  0  0  0
   41.9117   35.8496   41.4968 H   0  0  0  0  0  0  0  0  0  0  0  0
  1  5  1  0
  2  3  2  0
  2  9  1  0
  4  3  1  0
  5  4  1  0
  5  6  2  0
  6  2  1  0
  8  7  2  0
  9  8  1  0
 10  9  2  0
 10 11  1  0
 11 12  2  0
 12  7  1  0
 13  1  1  0
 14  1  1  0
 15 16  1  0
 15 24  1  0
 15  1  1  0
 16 17  1  0
 17 18  2  0
 17 19  1  0
 20 16  1  0
 21 20  1  0
 22 20  1  0
 23 20  1  0
 24 25  2  0
 25 26  1  0
 27 26  2  0
 28 24  1  0
 28 27  1  0
  3 29  1  0
  7 30  1  0
  8 31  1  0
 11 32  1  0
 13 33  1  0
 13 34  1  0
 13 35  1  0
 14 36  1  0
 14 37  1  0
 14 38  1  0
 15 39  1  6
 19 40  1  0
 19 41  1  0
 25 42  1  0
 26 43  1  0
 27 44  1  0
M  ISO  8  29  14  30  14  31  14  32  14  33   8  34   8  35   8  36   8
M  ISO  6  37   8  38   8  39   8  42  14  43  14  44  14
M  END
>  <minimizedAffinity>  (1) 
-5.21017265

>  <minimizedRMSD>  (1) 
1.754794

$$$$
