
     RDKit          3D

 44 46  0  0  1  0  0  0  0  0999 V2000
   45.8940   32.0400   42.1840 C   0  0  0  0  0  0  0  0  0  0  0  0
   46.6400   32.2720   45.7820 C   0  0  0  0  0  0  0  0  0  0  0  0
   45.9280   33.3980   46.0850 C   0  0  0  0  0  0  0  0  0  0  0  0
   45.2090   33.8570   44.5010 S   0  0  0  0  0  0  0  0  0  0  0  0
   46.0470   32.3550   43.6410 C   0  0  0  0  0  0  0  0  0  0  0  0
   46.5780   31.9210   44.5470 N   0  0  0  0  0  0  0  0  0  0  0  0
   48.3720   31.3720   49.0420 C   0  0  0  0  0  0  0  0  0  0  0  0
   47.6480   32.0920   48.0900 C   0  0  0  0  0  0  0  0  0  0  0  0
   47.3960   31.5620   46.8240 C   0  0  0  0  0  0  0  0  0  0  0  0
   47.9100   30.3360   46.6450 N   0  0  0  0  0  0  0  0  0  0  0  0
   48.6040   29.6120   47.5190 C   0  0  0  0  0  0  0  0  0  0  0  0
   48.8160   30.1660   48.7130 N   0  0  0  0  0  0  0  0  0  0  0  0
   44.4960   31.5560   41.9620 C   0  0  0  0  0  0  0  0  0  0  0  0
   46.9010   30.9810   41.8820 C   0  0  0  0  0  0  0  0  0  0  0  0
   46.1880   33.2500   41.3690 C   0  0  2  0  0  0  0  0  0  0  0  0
   47.4880   33.7400   41.4910 N   0  0  0  0  0  0  0  0  0  0  0  0
   48.6430   34.2160   42.1220 C   0  0  0  0  0  0  0  0  0  0  0  0
   49.8060   34.6890   42.1960 O   0  0  0  0  0  0  0  0  0  0  0  0
   48.4930   34.1730   43.5610 N   0  0  0  0  0  0  0  0  0  0  0  0
   48.2300   33.9960   40.2160 C   0  0  0  0  0  0  0  0  0  0  0  0
   47.2450   33.8060   39.2200 F   0  0  0  0  0  0  0  0  0  0  0  0
   49.2390   33.2120   40.0320 F   0  0  0  0  0  0  0  0  0  0  0  0
   48.5130   35.3720   40.1720 F   0  0  0  0  0  0  0  0  0  0  0  0
   45.2210   34.3410   41.5540 N   0  0  0  0  0  0  0  0  0  0  0  0
   43.9450   34.3990   41.1260 C   0  0  0  0  0  0  0  0  0  0  0  0
   43.3640   35.5940   41.4980 C   0  0  0  0  0  0  0  0  0  0  0  0
   44.3030   36.2690   42.1600 N   0  0  0  0  0  0  0  0  0  0  0  0
   45.3920   35.5190   42.1850 C   0  0  0  0  0  0  0  0  0  0  0  0
   45.8208   33.9002   47.0578 H   0  0  0  0  0  0  0  0  0  0  0  0
   48.5691   31.7936   50.0387 H   0  0  0  0  0  0  0  0  0  0  0  0
   47.2699   33.0938   48.3420 H   0  0  0  0  0  0  0  0  0  0  0  0
   48.9827   28.6098   47.2699 H   0  0  0  0  0  0  0  0  0  0  0  0
   44.0079   31.3870   42.9332 H   0  0  0  0  0  0  0  0  0  0  0  0
   43.9322   32.3113   41.3948 H   0  0  0  0  0  0  0  0  0  0  0  0
   44.5199   30.6138   41.3948 H   0  0  0  0  0  0  0  0  0  0  0  0
   47.2931   30.5687   42.8234 H   0  0  0  0  0  0  0  0  0  0  0  0
   46.4253   30.1779   41.3000 H   0  0  0  0  0  0  0  0  0  0  0  0
   47.7270   31.4157   41.3000 H   0  0  0  0  0  0  0  0  0  0  0  0
   46.0846   32.8710   40.3415 H   0  0  0  0  0  0  0  0  0  0  0  0
   49.2611   34.4919   44.1686 H   0  0  0  0  0  0  0  0  0  0  0  0
   47.6181   33.8235   43.9774 H   0  0  0  0  0  0  0  0  0  0  0  0
   43.4372   33.6047   40.5592 H   0  0  0  0  0  0  0  0  0  0  0  0
   42.3350   35.9226   41.2903 H   0  0  0  0  0  0  0  0  0  0  0  0
   46.3327   35.8231   42.6673 H   0  0  0  0  0  0  0  0  0  0  0  0
  1  5  1  0
  2  3  2  0
  2  9  1  0
  4  3  1  0
  5  4  1  0
  5  6  2  0
  6  2  1  0
  8  7  2  0
  9  8  1  0
 10  9  2  0
 10 11  1  0
 11 12  2  0
 12  7  1  0
 13  1  1  0
 14  1  1  0
 15 16  1  0
 15 24  1  0
 15  1  1  0
 16 17  1  0
 17 18  2  0
 17 19  1  0
 20 16  1  0
 21 20  1  0
 22 20  1  0
 23 20  1  0
 24 28  1  0
 25 26  2  0
 25 24  1  0
 26 27  1  0
 27 28  2  0
  3 29  1  0
  7 30  1  0
  8 31  1  0
 11 32  1  0
 13 33  1  0
 13 34  1  0
 13 35  1  0
 14 36  1  0
 14 37  1  0
 14 38  1  0
 15 39  1  6
 19 40  1  0
 19 41  1  0
 25 42  1  0
 26 43  1  0
 28 44  1  0
M  ISO  8  29  14  30  14  31  14  32  14  33   8  34   8  35   8  36   8
M  ISO  6  37   8  38   8  39   8  42  14  43  14  44  14
M  END
>  <minimizedAffinity>  (1) 
-5.25840998

>  <minimizedRMSD>  (1) 
1.47106075

$$$$
