
     RDKit          3D

 39 40  0  0  1  0  0  0  0  0999 V2000
   45.2850   33.1620   42.0380 C   0  0  0  0  0  0  0  0  0  0  0  0
   45.7390   33.0830   45.6880 C   0  0  0  0  0  0  0  0  0  0  0  0
   45.2410   34.3140   46.0030 C   0  0  0  0  0  0  0  0  0  0  0  0
   44.7750   34.9820   44.4020 S   0  0  0  0  0  0  0  0  0  0  0  0
   45.3690   33.3790   43.5170 C   0  0  0  0  0  0  0  0  0  0  0  0
   45.7160   32.8140   44.4360 N   0  0  0  0  0  0  0  0  0  0  0  0
   47.7020   31.6510   48.6050 C   0  0  0  0  0  0  0  0  0  0  0  0
   47.2620   32.5310   47.6260 C   0  0  0  0  0  0  0  0  0  0  0  0
   46.2390   32.1850   46.7390 C   0  0  0  0  0  0  0  0  0  0  0  0
   45.7590   30.9490   46.9440 N   0  0  0  0  0  0  0  0  0  0  0  0
   46.1460   30.0730   47.8640 C   0  0  0  0  0  0  0  0  0  0  0  0
   47.1180   30.4460   48.6830 N   0  0  0  0  0  0  0  0  0  0  0  0
   43.8360   33.1300   41.6620 C   0  0  0  0  0  0  0  0  0  0  0  0
   45.9770   31.8700   41.7640 C   0  0  0  0  0  0  0  0  0  0  0  0
   45.9920   34.2640   41.3200 C   0  0  2  0  0  0  0  0  0  0  0  0
   47.3720   34.2780   41.4730 N   0  0  0  0  0  0  0  0  0  0  0  0
   48.6190   34.2770   42.1280 C   0  0  0  0  0  0  0  0  0  0  0  0
   49.8740   34.3020   42.2270 O   0  0  0  0  0  0  0  0  0  0  0  0
   48.4320   34.2040   43.5590 N   0  0  0  0  0  0  0  0  0  0  0  0
   48.1880   34.3430   40.2200 C   0  0  0  0  0  0  0  0  0  0  0  0
   47.2070   34.2660   39.1910 F   0  0  0  0  0  0  0  0  0  0  0  0
   49.0450   33.3820   40.0930 F   0  0  0  0  0  0  0  0  0  0  0  0
   48.7110   35.6360   40.1250 F   0  0  0  0  0  0  0  0  0  0  0  0
   45.3730   35.5180   41.6970 N   0  0  0  0  0  0  0  0  0  0  0  0
   45.1478   34.7822   46.9940 H   0  0  0  0  0  0  0  0  0  0  0  0
   48.5078   31.9341   49.2982 H   0  0  0  0  0  0  0  0  0  0  0  0
   47.7293   33.5236   47.5465 H   0  0  0  0  0  0  0  0  0  0  0  0
   45.6793   29.0800   47.9426 H   0  0  0  0  0  0  0  0  0  0  0  0
   43.2208   33.1164   42.5738 H   0  0  0  0  0  0  0  0  0  0  0  0
   43.5915   34.0230   41.0680 H   0  0  0  0  0  0  0  0  0  0  0  0
   43.6312   32.2271   41.0680 H   0  0  0  0  0  0  0  0  0  0  0  0
   46.2372   31.3843   42.7161 H   0  0  0  0  0  0  0  0  0  0  0  0
   45.3104   31.2122   41.1869 H   0  0  0  0  0  0  0  0  0  0  0  0
   46.8939   32.0603   41.1869 H   0  0  0  0  0  0  0  0  0  0  0  0
   45.8740   34.0891   40.2404 H   0  0  0  0  0  0  0  0  0  0  0  0
   49.2496   34.1939   44.1854 H   0  0  0  0  0  0  0  0  0  0  0  0
   47.4811   34.1620   43.9526 H   0  0  0  0  0  0  0  0  0  0  0  0
   45.3382   35.5886   42.7240 H   0  0  0  0  0  0  0  0  0  0  0  0
   45.9244   36.3008   41.3176 H   0  0  0  0  0  0  0  0  0  0  0  0
  1  5  1  0
  2  3  2  0
  2  9  1  0
  4  3  1  0
  5  4  1  0
  5  6  2  0
  6  2  1  0
  7 12  2  0
  8  7  1  0
  9 10  1  0
  9  8  2  0
 10 11  2  0
 11 12  1  0
 13  1  1  0
 14  1  1  0
 15 16  1  0
 15 24  1  0
 15  1  1  0
 16 17  1  0
 17 18  2  0
 17 19  1  0
 20 16  1  0
 21 20  1  0
 22 20  1  0
 23 20  1  0
  3 25  1  0
  7 26  1  0
  8 27  1  0
 11 28  1  0
 13 29  1  0
 13 30  1  0
 13 31  1  0
 14 32  1  0
 14 33  1  0
 14 34  1  0
 15 35  1  6
 19 36  1  0
 19 37  1  0
 24 38  1  0
 24 39  1  0
M  ISO  8  25  14  26  14  27  14  28  14  29   8  30   8  31   8  32   8
M  ISO  5  33   8  34   8  35   8  38   5  39   5
M  END
>  <minimizedAffinity>  (1) 
-5.28587866

>  <minimizedRMSD>  (1) 
0.186040476

$$$$
