
     RDKit          3D

 44 46  0  0  1  0  0  0  0  0999 V2000
   45.8380   32.1270   42.2160 C   0  0  0  0  0  0  0  0  0  0  0  0
   46.6300   32.3100   45.8020 C   0  0  0  0  0  0  0  0  0  0  0  0
   45.9590   33.4410   46.1310 C   0  0  0  0  0  0  0  0  0  0  0  0
   45.2330   33.9390   44.5700 S   0  0  0  0  0  0  0  0  0  0  0  0
   46.0110   32.4320   43.6730 C   0  0  0  0  0  0  0  0  0  0  0  0
   46.5450   31.9680   44.5640 N   0  0  0  0  0  0  0  0  0  0  0  0
   48.3570   31.3080   49.0380 C   0  0  0  0  0  0  0  0  0  0  0  0
   47.6410   32.0550   48.1060 C   0  0  0  0  0  0  0  0  0  0  0  0
   47.3850   31.5580   46.8250 C   0  0  0  0  0  0  0  0  0  0  0  0
   47.8920   30.3330   46.6150 N   0  0  0  0  0  0  0  0  0  0  0  0
   48.5770   29.5970   47.4760 C   0  0  0  0  0  0  0  0  0  0  0  0
   48.8020   30.0890   48.6740 N   0  0  0  0  0  0  0  0  0  0  0  0
   44.4140   31.6980   42.0050 C   0  0  0  0  0  0  0  0  0  0  0  0
   46.7950   31.0340   41.8930 C   0  0  0  0  0  0  0  0  0  0  0  0
   46.1580   33.3370   41.4100 C   0  0  1  0  0  0  0  0  0  0  0  0
   45.1980   34.4480   41.6190 N   0  0  0  0  0  0  0  0  0  0  0  0
   43.9680   34.4020   41.0830 N   0  0  0  0  0  0  0  0  0  0  0  0
   43.2470   35.4670   41.3780 C   0  0  0  0  0  0  0  0  0  0  0  0
   44.0460   36.2590   42.1510 C   0  0  0  0  0  0  0  0  0  0  0  0
   45.2550   35.6100   42.2900 C   0  0  0  0  0  0  0  0  0  0  0  0
   47.4910   33.7640   41.5020 N   0  0  0  0  0  0  0  0  0  0  0  0
   48.6770   34.1910   42.1150 C   0  0  0  0  0  0  0  0  0  0  0  0
   49.8620   34.6070   42.1620 O   0  0  0  0  0  0  0  0  0  0  0  0
   48.5440   34.1710   43.5540 N   0  0  0  0  0  0  0  0  0  0  0  0
   48.2260   33.9700   40.2140 C   0  0  0  0  0  0  0  0  0  0  0  0
   47.2300   33.7750   39.2330 F   0  0  0  0  0  0  0  0  0  0  0  0
   49.2140   33.1590   40.0370 F   0  0  0  0  0  0  0  0  0  0  0  0
   48.5320   35.3400   40.1320 F   0  0  0  0  0  0  0  0  0  0  0  0
   45.8798   33.9314   47.1125 H   0  0  0  0  0  0  0  0  0  0  0  0
   48.5543   31.7028   50.0456 H   0  0  0  0  0  0  0  0  0  0  0  0
   47.2706   33.0531   48.3827 H   0  0  0  0  0  0  0  0  0  0  0  0
   48.9481   28.6000   47.1963 H   0  0  0  0  0  0  0  0  0  0  0  0
   43.9269   31.5513   42.9803 H   0  0  0  0  0  0  0  0  0  0  0  0
   43.8771   32.4743   41.4401 H   0  0  0  0  0  0  0  0  0  0  0  0
   44.3952   30.7543   41.4401 H   0  0  0  0  0  0  0  0  0  0  0  0
   47.1791   30.5954   42.8258 H   0  0  0  0  0  0  0  0  0  0  0  0
   46.2809   30.2577   41.3072 H   0  0  0  0  0  0  0  0  0  0  0  0
   47.6324   31.4410   41.3072 H   0  0  0  0  0  0  0  0  0  0  0  0
   46.0355   33.0021   40.3694 H   0  0  0  0  0  0  0  0  0  0  0  0
   42.2131   35.6743   41.0649 H   0  0  0  0  0  0  0  0  0  0  0  0
   43.7758   37.2339   42.5829 H   0  0  0  0  0  0  0  0  0  0  0  0
   46.1216   35.9821   42.8561 H   0  0  0  0  0  0  0  0  0  0  0  0
   49.3344   34.4590   44.1483 H   0  0  0  0  0  0  0  0  0  0  0  0
   47.6588   33.8687   43.9852 H   0  0  0  0  0  0  0  0  0  0  0  0
  1  5  1  0
  2  3  2  0
  2  9  1  0
  4  3  1  0
  5  6  2  0
  5  4  1  0
  6  2  1  0
  8  7  2  0
  9  8  1  0
 10  9  2  0
 10 11  1  0
 11 12  2  0
 12  7  1  0
 13  1  1  0
 14  1  1  0
 15 21  1  0
 15 16  1  0
 15  1  1  0
 16 20  1  0
 17 18  2  0
 17 16  1  0
 18 19  1  0
 19 20  2  0
 21 22  1  0
 22 23  2  0
 22 24  1  0
 25 21  1  0
 26 25  1  0
 27 25  1  0
 28 25  1  0
  3 29  1  0
  7 30  1  0
  8 31  1  0
 11 32  1  0
 13 33  1  0
 13 34  1  0
 13 35  1  0
 14 36  1  0
 14 37  1  0
 14 38  1  0
 15 39  1  6
 18 40  1  0
 19 41  1  0
 20 42  1  0
 24 43  1  0
 24 44  1  0
M  ISO  8  29  14  30  14  31  14  32  14  33   8  34   8  35   8  36   8
M  ISO  6  37   8  38   8  39   8  40  14  41  14  42  14
M  END
>  <minimizedAffinity>  (1) 
-5.2872324

>  <minimizedRMSD>  (1) 
1.40573204

$$$$
