
     RDKit          3D

 38 39  0  0  1  0  0  0  0  0999 V2000
   45.2810   33.1960   41.9960 C   0  0  0  0  0  0  0  0  0  0  0  0
   45.7330   33.0910   45.6460 C   0  0  0  0  0  0  0  0  0  0  0  0
   45.2420   34.3210   45.9750 C   0  0  0  0  0  0  0  0  0  0  0  0
   44.7750   35.0050   44.3780 S   0  0  0  0  0  0  0  0  0  0  0  0
   45.3600   33.4100   43.4790 C   0  0  0  0  0  0  0  0  0  0  0  0
   45.7110   32.8230   44.3880 N   0  0  0  0  0  0  0  0  0  0  0  0
   47.6750   31.6490   48.5730 C   0  0  0  0  0  0  0  0  0  0  0  0
   47.2350   32.5430   47.5970 C   0  0  0  0  0  0  0  0  0  0  0  0
   46.2320   32.1860   46.6930 C   0  0  0  0  0  0  0  0  0  0  0  0
   45.7650   30.9400   46.8690 N   0  0  0  0  0  0  0  0  0  0  0  0
   46.1610   30.0640   47.7840 C   0  0  0  0  0  0  0  0  0  0  0  0
   47.1100   30.4360   48.6230 N   0  0  0  0  0  0  0  0  0  0  0  0
   43.8280   33.1900   41.6190 C   0  0  0  0  0  0  0  0  0  0  0  0
   45.9530   31.9000   41.7170 C   0  0  0  0  0  0  0  0  0  0  0  0
   46.0010   34.3000   41.2940 C   0  0  2  0  0  0  0  0  0  0  0  0
   47.3880   34.2910   41.4510 N   0  0  0  0  0  0  0  0  0  0  0  0
   48.6200   34.2790   42.1200 C   0  0  0  0  0  0  0  0  0  0  0  0
   49.8730   34.2930   42.2250 O   0  0  0  0  0  0  0  0  0  0  0  0
   48.4190   34.2140   43.5490 N   0  0  0  0  0  0  0  0  0  0  0  0
   48.2070   34.3400   40.1990 C   0  0  0  0  0  0  0  0  0  0  0  0
   47.2400   34.2790   39.1720 F   0  0  0  0  0  0  0  0  0  0  0  0
   49.0640   33.3790   40.0900 F   0  0  0  0  0  0  0  0  0  0  0  0
   48.7310   35.6420   40.1030 F   0  0  0  0  0  0  0  0  0  0  0  0
   45.3510   35.5100   41.6520 O   0  0  0  0  0  0  0  0  0  0  0  0
   45.1536   34.7806   46.9705 H   0  0  0  0  0  0  0  0  0  0  0  0
   48.4656   31.9330   49.2832 H   0  0  0  0  0  0  0  0  0  0  0  0
   47.6850   33.5450   47.5383 H   0  0  0  0  0  0  0  0  0  0  0  0
   45.7132   29.0609   47.8414 H   0  0  0  0  0  0  0  0  0  0  0  0
   43.2126   33.1875   42.5308 H   0  0  0  0  0  0  0  0  0  0  0  0
   43.5996   34.0872   41.0250 H   0  0  0  0  0  0  0  0  0  0  0  0
   43.6070   32.2909   41.0250 H   0  0  0  0  0  0  0  0  0  0  0  0
   46.2084   31.4075   42.6668 H   0  0  0  0  0  0  0  0  0  0  0  0
   45.2766   31.2533   41.1388 H   0  0  0  0  0  0  0  0  0  0  0  0
   46.8713   32.0801   41.1388 H   0  0  0  0  0  0  0  0  0  0  0  0
   45.9311   34.1608   40.2051 H   0  0  0  0  0  0  0  0  0  0  0  0
   49.2306   34.1977   44.1830 H   0  0  0  0  0  0  0  0  0  0  0  0
   47.4641   34.1840   43.9339 H   0  0  0  0  0  0  0  0  0  0  0  0
   45.3113   35.5839   42.6384 H   0  0  0  0  0  0  0  0  0  0  0  0
  1  5  1  0
  2  3  2  0
  2  9  1  0
  4  3  1  0
  5  4  1  0
  5  6  2  0
  6  2  1  0
  7 12  2  0
  8  7  1  0
  9 10  1  0
  9  8  2  0
 10 11  2  0
 11 12  1  0
 13  1  1  0
 14  1  1  0
 15 16  1  0
 15 24  1  0
 15  1  1  0
 16 17  1  0
 17 18  2  0
 17 19  1  0
 20 16  1  0
 21 20  1  0
 22 20  1  0
 23 20  1  0
  3 25  1  0
  7 26  1  0
  8 27  1  0
 11 28  1  0
 13 29  1  0
 13 30  1  0
 13 31  1  0
 14 32  1  0
 14 33  1  0
 14 34  1  0
 15 35  1  6
 19 36  1  0
 19 37  1  0
 24 38  1  0
M  ISO  8  25  14  26  14  27  14  28  14  29   8  30   8  31   8  32   8
M  ISO  4  33   8  34   8  35   8  38   3
M  END
>  <minimizedAffinity>  (1) 
-5.36953497

>  <minimizedRMSD>  (1) 
0.152822286

$$$$
