
     RDKit          3D

 19 20  0  0  0  0  0  0  0  0999 V2000
   45.4530   34.8840   44.3320 C   0  0  0  0  0  0  0  0  0  0  0  0
   46.3150   34.5340   43.2630 C   0  0  0  0  0  0  0  0  0  0  0  0
   47.2040   33.4540   43.4330 C   0  0  0  0  0  0  0  0  0  0  0  0
   47.1720   32.8060   44.6440 N   0  0  0  0  0  0  0  0  0  0  0  0
   46.3430   33.1720   45.6260 C   0  0  0  0  0  0  0  0  0  0  0  0
   45.4940   34.1920   45.4810 N   0  0  0  0  0  0  0  0  0  0  0  0
   46.3470   32.4500   46.8980 C   0  0  0  0  0  0  0  0  0  0  0  0
   47.3940   31.5360   47.1610 C   0  0  0  0  0  0  0  0  0  0  0  0
   46.9140   30.9160   48.8800 S   0  0  0  0  0  0  0  0  0  0  0  0
   45.3860   32.0430   48.8630 C   0  0  0  0  0  0  0  0  0  0  0  0
   45.4550   32.5510   47.8740 N   0  0  0  0  0  0  0  0  0  0  0  0
   44.5100   35.9890   44.2250 C   0  0  0  0  0  0  0  0  0  0  0  0
   44.8600   37.1830   44.4150 O   0  0  0  0  0  0  0  0  0  0  0  0
   43.1730   35.7980   43.9060 O   0  0  0  0  0  0  0  0  0  0  0  0
   46.2905   35.0954   42.3174 H   0  0  0  0  0  0  0  0  0  0  0  0
   47.8921   33.1440   42.6327 H   0  0  0  0  0  0  0  0  0  0  0  0
   48.2550   31.2606   46.5342 H   0  0  0  0  0  0  0  0  0  0  0  0
   44.6184   32.1648   49.6414 H   0  0  0  0  0  0  0  0  0  0  0  0
   42.5632   36.5754   43.8428 H   0  0  0  0  0  0  0  0  0  0  0  0
  1  6  2  0
  2  3  2  0
  2  1  1  0
  3  4  1  0
  4  5  2  0
  5  7  1  0
  6  5  1  0
  7  8  2  0
  7 11  1  0
  8  9  1  0
 10  9  1  0
 11 10  2  0
 12  1  1  0
 12 13  2  0
 14 12  1  0
  2 15  1  0
  3 16  1  0
  8 17  1  0
 10 18  1  0
 14 19  1  0
M  ISO  5  15  14  16  14  17  14  18  14  19   3
M  END
>  <minimizedAffinity>  (1) 
-4.83163261

>  <minimizedRMSD>  (1) 
1.3152771

$$$$
