
     RDKit          3D

 50 52  0  0  1  0  0  0  0  0999 V2000
   46.2570   31.6050   42.3370 C   0  0  0  0  0  0  0  0  0  0  0  0
   46.8780   31.9510   45.9500 C   0  0  0  0  0  0  0  0  0  0  0  0
   46.0990   33.0380   46.2070 C   0  0  0  0  0  0  0  0  0  0  0  0
   45.4050   33.4250   44.5980 S   0  0  0  0  0  0  0  0  0  0  0  0
   46.3380   31.9670   43.7910 C   0  0  0  0  0  0  0  0  0  0  0  0
   46.8600   31.5870   44.7280 N   0  0  0  0  0  0  0  0  0  0  0  0
   48.5650   31.2320   49.2700 C   0  0  0  0  0  0  0  0  0  0  0  0
   47.8390   31.8800   48.2820 C   0  0  0  0  0  0  0  0  0  0  0  0
   47.6360   31.3080   47.0270 C   0  0  0  0  0  0  0  0  0  0  0  0
   48.2050   30.1030   46.9000 N   0  0  0  0  0  0  0  0  0  0  0  0
   48.9070   29.4480   47.8200 C   0  0  0  0  0  0  0  0  0  0  0  0
   49.0700   30.0360   48.9940 N   0  0  0  0  0  0  0  0  0  0  0  0
   44.9840   30.8470   42.1280 C   0  0  0  0  0  0  0  0  0  0  0  0
   47.4280   30.7160   42.0640 C   0  0  0  0  0  0  0  0  0  0  0  0
   46.3280   32.8430   41.5190 C   0  0  2  0  0  0  0  0  0  0  0  0
   47.5950   33.4740   41.5430 N   0  0  0  0  0  0  0  0  0  0  0  0
   48.7030   34.1290   42.0970 C   0  0  0  0  0  0  0  0  0  0  0  0
   49.8020   34.7310   42.0900 O   0  0  0  0  0  0  0  0  0  0  0  0
   48.5950   34.1890   43.5370 N   0  0  0  0  0  0  0  0  0  0  0  0
   48.2860   33.6690   40.2320 C   0  0  0  0  0  0  0  0  0  0  0  0
   47.3190   33.2620   39.2900 F   0  0  0  0  0  0  0  0  0  0  0  0
   49.3810   32.9930   40.1050 F   0  0  0  0  0  0  0  0  0  0  0  0
   48.4010   35.0570   40.0370 F   0  0  0  0  0  0  0  0  0  0  0  0
   45.2250   33.7620   41.7300 N   0  0  0  0  0  0  0  0  0  0  0  0
   44.1290   33.6740   40.8130 C   0  0  0  0  0  0  0  0  0  0  0  0
   42.9770   34.4990   41.4110 C   0  0  0  0  0  0  0  0  0  0  0  0
   43.3580   35.8380   41.4360 O   0  0  0  0  0  0  0  0  0  0  0  0
   44.4190   35.9110   42.3680 C   0  0  0  0  0  0  0  0  0  0  0  0
   45.5990   35.1350   41.7590 C   0  0  0  0  0  0  0  0  0  0  0  0
   45.9354   33.5524   47.1654 H   0  0  0  0  0  0  0  0  0  0  0  0
   48.7181   31.6964   50.2553 H   0  0  0  0  0  0  0  0  0  0  0  0
   47.4121   32.8713   48.4941 H   0  0  0  0  0  0  0  0  0  0  0  0
   49.3354   28.4562   47.6131 H   0  0  0  0  0  0  0  0  0  0  0  0
   44.5476   30.5871   43.1037 H   0  0  0  0  0  0  0  0  0  0  0  0
   44.2748   31.4700   41.5633 H   0  0  0  0  0  0  0  0  0  0  0  0
   45.1938   29.9266   41.5633 H   0  0  0  0  0  0  0  0  0  0  0  0
   47.8659   30.3835   43.0167 H   0  0  0  0  0  0  0  0  0  0  0  0
   47.0967   29.8399   41.4872 H   0  0  0  0  0  0  0  0  0  0  0  0
   48.1828   31.2706   41.4872 H   0  0  0  0  0  0  0  0  0  0  0  0
   46.2018   32.4870   40.4859 H   0  0  0  0  0  0  0  0  0  0  0  0
   49.3360   34.6422   44.0906 H   0  0  0  0  0  0  0  0  0  0  0  0
   47.7771   33.7785   44.0096 H   0  0  0  0  0  0  0  0  0  0  0  0
   43.8201   32.6252   40.6927 H   0  0  0  0  0  0  0  0  0  0  0  0
   44.4138   34.0571   39.8220 H   0  0  0  0  0  0  0  0  0  0  0  0
   42.0759   34.3813   40.7913 H   0  0  0  0  0  0  0  0  0  0  0  0
   42.7549   34.1516   42.4308 H   0  0  0  0  0  0  0  0  0  0  0  0
   44.7028   36.9602   42.5375 H   0  0  0  0  0  0  0  0  0  0  0  0
   44.1233   35.4832   43.3373 H   0  0  0  0  0  0  0  0  0  0  0  0
   46.4983   35.2683   42.3782 H   0  0  0  0  0  0  0  0  0  0  0  0
   45.8280   35.5004   40.7471 H   0  0  0  0  0  0  0  0  0  0  0  0
  1  5  1  0
  2  3  2  0
  2  9  1  0
  4  3  1  0
  5  4  1  0
  5  6  2  0
  6  2  1  0
  8  7  2  0
  9  8  1  0
 10  9  2  0
 10 11  1  0
 11 12  2  0
 12  7  1  0
 13  1  1  0
 14  1  1  0
 15 16  1  0
 15 24  1  0
 15  1  1  0
 16 17  1  0
 17 19  1  0
 18 17  2  0
 20 16  1  0
 21 20  1  0
 22 20  1  0
 23 20  1  0
 24 29  1  0
 25 26  1  0
 25 24  1  0
 26 27  1  0
 27 28  1  0
 29 28  1  0
  3 30  1  0
  7 31  1  0
  8 32  1  0
 11 33  1  0
 13 34  1  0
 13 35  1  0
 13 36  1  0
 14 37  1  0
 14 38  1  0
 14 39  1  0
 15 40  1  6
 19 41  1  0
 19 42  1  0
 25 43  1  0
 25 44  1  0
 26 45  1  0
 26 46  1  0
 28 47  1  0
 28 48  1  0
 29 49  1  0
 29 50  1  0
M  ISO  8  30  14  31  14  32  14  33  14  34   8  35   8  36   8  37   8
M  ISO  8  38   8  39   8  40   8  43  13  44  13  45  13  46  13  47  13
M  ISO  3  48  13  49  13  50  13
M  END
>  <minimizedAffinity>  (1) 
-5.13685131

>  <minimizedRMSD>  (1) 
1.97019804

$$$$
