
     RDKit          3D

 44 46  0  0  1  0  0  0  0  0999 V2000
   45.4470   32.4060   42.5570 C   0  0  0  0  0  0  0  0  0  0  0  0
   46.5660   32.4040   46.0440 C   0  0  0  0  0  0  0  0  0  0  0  0
   46.0340   33.5990   46.4490 C   0  0  0  0  0  0  0  0  0  0  0  0
   45.2330   34.1870   44.9680 S   0  0  0  0  0  0  0  0  0  0  0  0
   45.7790   32.6340   43.9850 C   0  0  0  0  0  0  0  0  0  0  0  0
   46.3380   32.1100   44.8220 N   0  0  0  0  0  0  0  0  0  0  0  0
   48.4570   31.1940   49.1080 C   0  0  0  0  0  0  0  0  0  0  0  0
   47.7440   32.0170   48.2460 C   0  0  0  0  0  0  0  0  0  0  0  0
   47.3270   31.5700   46.9890 C   0  0  0  0  0  0  0  0  0  0  0  0
   47.6830   30.3040   46.7280 N   0  0  0  0  0  0  0  0  0  0  0  0
   48.3630   29.4800   47.5250 C   0  0  0  0  0  0  0  0  0  0  0  0
   48.7370   29.9490   48.7030 N   0  0  0  0  0  0  0  0  0  0  0  0
   43.9800   32.0810   42.4630 C   0  0  0  0  0  0  0  0  0  0  0  0
   46.2700   31.2330   42.1170 C   0  0  0  0  0  0  0  0  0  0  0  0
   45.7640   33.5900   41.7210 C   0  0  2  0  0  0  0  0  0  0  0  0
   47.1490   33.8560   41.6480 N   0  0  0  0  0  0  0  0  0  0  0  0
   48.4520   34.1700   42.1030 C   0  0  0  0  0  0  0  0  0  0  0  0
   49.6740   34.4480   41.9900 O   0  0  0  0  0  0  0  0  0  0  0  0
   48.4840   34.2180   43.5410 N   0  0  0  0  0  0  0  0  0  0  0  0
   47.7430   33.9410   40.2770 C   0  0  0  0  0  0  0  0  0  0  0  0
   46.6230   33.8080   39.4330 F   0  0  0  0  0  0  0  0  0  0  0  0
   48.6310   33.0440   40.0260 F   0  0  0  0  0  0  0  0  0  0  0  0
   48.1790   35.2670   40.0950 F   0  0  0  0  0  0  0  0  0  0  0  0
   45.0390   34.8590   42.0470 C   0  0  0  0  0  0  0  0  0  0  0  0
   44.1450   35.4230   40.9190 C   0  0  0  0  0  0  0  0  0  0  0  0
   43.6540   35.0870   42.3350 C   0  0  0  0  0  0  0  0  0  0  0  0
   46.0873   34.0762   47.4387 H   0  0  0  0  0  0  0  0  0  0  0  0
   48.7823   31.5546   50.0950 H   0  0  0  0  0  0  0  0  0  0  0  0
   47.5021   33.0433   48.5594 H   0  0  0  0  0  0  0  0  0  0  0  0
   48.6031   28.4522   47.2153 H   0  0  0  0  0  0  0  0  0  0  0  0
   43.5595   31.9878   43.4752 H   0  0  0  0  0  0  0  0  0  0  0  0
   43.4601   32.8857   41.9226 H   0  0  0  0  0  0  0  0  0  0  0  0
   43.8486   31.1320   41.9226 H   0  0  0  0  0  0  0  0  0  0  0  0
   46.6462   30.6969   43.0008 H   0  0  0  0  0  0  0  0  0  0  0  0
   45.6487   30.5548   41.5137 H   0  0  0  0  0  0  0  0  0  0  0  0
   47.1191   31.5865   41.5137 H   0  0  0  0  0  0  0  0  0  0  0  0
   45.3834   33.2701   40.7397 H   0  0  0  0  0  0  0  0  0  0  0  0
   49.3643   34.4353   44.0296 H   0  0  0  0  0  0  0  0  0  0  0  0
   47.6266   34.0351   44.0816 H   0  0  0  0  0  0  0  0  0  0  0  0
   45.9119   35.1252   42.6612 H   0  0  0  0  0  0  0  0  0  0  0  0
   44.2450   36.4685   40.5919 H   0  0  0  0  0  0  0  0  0  0  0  0
   43.8791   35.1439   39.8888 H   0  0  0  0  0  0  0  0  0  0  0  0
   42.9831   34.2287   42.4872 H   0  0  0  0  0  0  0  0  0  0  0  0
   43.1207   35.6552   43.1114 H   0  0  0  0  0  0  0  0  0  0  0  0
  1  5  1  0
  2  3  2  0
  2  9  1  0
  4  3  1  0
  5  6  2  0
  5  4  1  0
  6  2  1  0
  8  7  2  0
  9  8  1  0
 10  9  2  0
 10 11  1  0
 11 12  2  0
 12  7  1  0
 13  1  1  0
 14  1  1  0
 15 24  1  0
 15  1  1  0
 16 15  1  0
 16 17  1  0
 17 19  1  0
 18 17  2  0
 20 16  1  0
 21 20  1  0
 22 20  1  0
 23 20  1  0
 24 26  1  0
 25 24  1  0
 25 26  1  0
  3 27  1  0
  7 28  1  0
  8 29  1  0
 11 30  1  0
 13 31  1  0
 13 32  1  0
 13 33  1  0
 14 34  1  0
 14 35  1  0
 14 36  1  0
 15 37  1  6
 19 38  1  0
 19 39  1  0
 24 40  1  0
 25 41  1  0
 25 42  1  0
 26 43  1  0
 26 44  1  0
M  ISO  8  27  14  28  14  29  14  30  14  31   8  32   8  33   8  34   8
M  ISO  8  35   8  36   8  37   8  40  13  41  13  42  13  43  13  44  13
M  END
>  <minimizedAffinity>  (1) 
-5.06976557

>  <minimizedRMSD>  (1) 
1.24505329

$$$$
