
     RDKit          3D

 27 28  0  0  0  0  0  0  0  0999 V2000
   46.0230   34.6370   41.4330 C   0  0  0  0  0  0  0  0  0  0  0  0
   47.2410   35.0870   41.9560 C   0  0  0  0  0  0  0  0  0  0  0  0
   48.4190   34.7870   41.2440 C   0  0  0  0  0  0  0  0  0  0  0  0
   48.3120   34.0780   40.0870 N   0  0  0  0  0  0  0  0  0  0  0  0
   47.1040   33.6680   39.6290 C   0  0  0  0  0  0  0  0  0  0  0  0
   45.9870   33.9510   40.3010 N   0  0  0  0  0  0  0  0  0  0  0  0
   46.9320   32.9240   38.4270 N   0  0  0  0  0  0  0  0  0  0  0  0
   46.2950   31.7400   38.4860 C   0  0  0  0  0  0  0  0  0  0  0  0
   46.1350   31.0260   37.3130 C   0  0  0  0  0  0  0  0  0  0  0  0
   46.6220   31.5380   36.1240 C   0  0  0  0  0  0  0  0  0  0  0  0
   46.4670   30.8190   34.9040 N   0  0  0  0  0  0  0  0  0  0  0  0
   47.2630   32.7420   36.0980 N   0  0  0  0  0  0  0  0  0  0  0  0
   47.4040   33.4170   37.2690 C   0  0  0  0  0  0  0  0  0  0  0  0
   47.9940   34.5370   37.2760 O   0  0  0  0  0  0  0  0  0  0  0  0
   44.8160   34.9520   42.1760 C   0  0  0  0  0  0  0  0  0  0  0  0
   43.9610   35.7410   41.6590 O   0  0  0  0  0  0  0  0  0  0  0  0
   44.6390   34.3690   43.4450 O   0  0  0  0  0  0  0  0  0  0  0  0
   45.0940   35.0710   44.5710 C   0  0  0  0  0  0  0  0  0  0  0  0
   44.1890   35.0250   45.6240 F   0  0  0  0  0  0  0  0  0  0  0  0
   46.2960   34.5520   45.0000 F   0  0  0  0  0  0  0  0  0  0  0  0
   45.2440   36.3980   44.1850 F   0  0  0  0  0  0  0  0  0  0  0  0
   47.2772   35.6581   42.8954 H   0  0  0  0  0  0  0  0  0  0  0  0
   49.4008   35.1175   41.6138 H   0  0  0  0  0  0  0  0  0  0  0  0
   45.9122   31.3511   39.4411 H   0  0  0  0  0  0  0  0  0  0  0  0
   45.6217   30.0532   37.3253 H   0  0  0  0  0  0  0  0  0  0  0  0
   46.8341   31.2109   34.0250 H   0  0  0  0  0  0  0  0  0  0  0  0
   45.9879   29.9072   34.9009 H   0  0  0  0  0  0  0  0  0  0  0  0
  1  2  2  0
  1 15  1  0
  3  2  1  0
  4  3  2  0
  5  4  1  0
  5  6  2  0
  6  1  1  0
  7  8  1  0
  7  5  1  0
  9  8  2  0
 10  9  1  0
 11 10  1  0
 12 10  2  0
 12 13  1  0
 13 14  2  0
 13  7  1  0
 15 17  1  0
 16 15  2  0
 17 18  1  0
 18 20  1  0
 18 19  1  0
 21 18  1  0
  2 22  1  0
  3 23  1  0
  8 24  1  0
  9 25  1  0
 11 26  1  0
 11 27  1  0
M  ISO  4  22  14  23  14  24  14  25  14
M  END
>  <minimizedAffinity>  (1) 
-4.83232594

>  <minimizedRMSD>  (1) 
1.12479138

$$$$
