
     RDKit          3D

 17 18  0  0  0  0  0  0  0  0999 V2000
   44.8400   35.0180   44.6590 C   0  0  0  0  0  0  0  0  0  0  0  0
   45.7080   34.9360   43.5500 C   0  0  0  0  0  0  0  0  0  0  0  0
   46.7980   34.0470   43.6080 C   0  0  0  0  0  0  0  0  0  0  0  0
   46.9580   33.3050   44.7490 N   0  0  0  0  0  0  0  0  0  0  0  0
   46.1130   33.4120   45.7790 C   0  0  0  0  0  0  0  0  0  0  0  0
   45.0570   34.2600   45.7460 N   0  0  0  0  0  0  0  0  0  0  0  0
   46.2770   32.6260   46.9960 C   0  0  0  0  0  0  0  0  0  0  0  0
   47.3670   31.7320   47.0530 C   0  0  0  0  0  0  0  0  0  0  0  0
   47.1370   30.9870   48.7720 S   0  0  0  0  0  0  0  0  0  0  0  0
   45.5980   32.0520   49.0510 C   0  0  0  0  0  0  0  0  0  0  0  0
   45.5360   32.6180   48.0950 N   0  0  0  0  0  0  0  0  0  0  0  0
   43.8080   35.9160   44.5000 O   0  0  0  0  0  0  0  0  0  0  0  0
   45.5364   35.5549   42.6570 H   0  0  0  0  0  0  0  0  0  0  0  0
   47.4983   33.9511   42.7651 H   0  0  0  0  0  0  0  0  0  0  0  0
   48.1413   31.5251   46.2996 H   0  0  0  0  0  0  0  0  0  0  0  0
   44.9371   32.0992   49.9291 H   0  0  0  0  0  0  0  0  0  0  0  0
   43.7271   36.4335   43.6599 H   0  0  0  0  0  0  0  0  0  0  0  0
  1  6  2  0
  2  3  2  0
  2  1  1  0
  3  4  1  0
  4  5  2  0
  5  7  1  0
  6  5  1  0
  7  8  2  0
  7 11  1  0
  8  9  1  0
  9 10  1  0
 11 10  2  0
 12  1  1  0
  2 13  1  0
  3 14  1  0
  8 15  1  0
 10 16  1  0
 12 17  1  0
M  ISO  5  13  14  14  14  15  14  16  14  17   3
M  END
>  <minimizedAffinity>  (1) 
-4.51753187

>  <minimizedRMSD>  (1) 
0.902338207

$$$$
