
     RDKit          3D

 19 20  0  0  0  0  0  0  0  0999 V2000
   45.6720   34.7290   44.2570 C   0  0  0  0  0  0  0  0  0  0  0  0
   46.7110   34.3900   43.3560 C   0  0  0  0  0  0  0  0  0  0  0  0
   47.5110   33.2590   43.6190 C   0  0  0  0  0  0  0  0  0  0  0  0
   47.2270   32.5500   44.7450 N   0  0  0  0  0  0  0  0  0  0  0  0
   46.2330   32.9010   45.5760 C   0  0  0  0  0  0  0  0  0  0  0  0
   45.4490   33.9820   45.3500 N   0  0  0  0  0  0  0  0  0  0  0  0
   45.9400   32.1260   46.7850 C   0  0  0  0  0  0  0  0  0  0  0  0
   45.7400   30.7330   46.6320 C   0  0  0  0  0  0  0  0  0  0  0  0
   45.4100   30.2290   48.4130 S   0  0  0  0  0  0  0  0  0  0  0  0
   45.6160   32.0200   48.9800 C   0  0  0  0  0  0  0  0  0  0  0  0
   45.8360   32.5670   48.0350 N   0  0  0  0  0  0  0  0  0  0  0  0
   44.8830   35.9370   43.8970 C   0  0  0  0  0  0  0  0  0  0  0  0
   45.4960   36.7430   42.9850 F   0  0  0  0  0  0  0  0  0  0  0  0
   44.6710   36.7040   45.0470 F   0  0  0  0  0  0  0  0  0  0  0  0
   43.6620   35.5340   43.3600 F   0  0  0  0  0  0  0  0  0  0  0  0
   46.8919   35.0026   42.4605 H   0  0  0  0  0  0  0  0  0  0  0  0
   48.3279   32.9633   42.9443 H   0  0  0  0  0  0  0  0  0  0  0  0
   45.7695   30.1157   45.7220 H   0  0  0  0  0  0  0  0  0  0  0  0
   45.5374   32.4254   49.9996 H   0  0  0  0  0  0  0  0  0  0  0  0
  1  6  2  0
  2  3  2  0
  2  1  1  0
  3  4  1  0
  4  5  2  0
  5  7  1  0
  6  5  1  0
  7 11  1  0
  8  7  2  0
  8  9  1  0
  9 10  1  0
 11 10  2  0
 12  1  1  0
 12 14  1  0
 13 12  1  0
 15 12  1  0
  2 16  1  0
  3 17  1  0
  8 18  1  0
 10 19  1  0
M  ISO  4  16  14  17  14  18  14  19  14
M  END
>  <minimizedAffinity>  (1) 
-4.77882957

>  <minimizedRMSD>  (1) 
1.77187514

$$$$
