
     RDKit          3D

 19 20  0  0  0  0  0  0  0  0999 V2000
   45.3370   34.8250   44.5010 C   0  0  0  0  0  0  0  0  0  0  0  0
   46.1690   34.5190   43.4230 C   0  0  0  0  0  0  0  0  0  0  0  0
   47.1150   33.4830   43.5470 C   0  0  0  0  0  0  0  0  0  0  0  0
   47.1690   32.8220   44.7370 N   0  0  0  0  0  0  0  0  0  0  0  0
   46.3430   33.1500   45.7590 C   0  0  0  0  0  0  0  0  0  0  0  0
   45.4300   34.1440   45.6530 N   0  0  0  0  0  0  0  0  0  0  0  0
   46.4300   32.4140   47.0280 C   0  0  0  0  0  0  0  0  0  0  0  0
   47.4560   31.4520   47.1810 C   0  0  0  0  0  0  0  0  0  0  0  0
   47.0710   30.8680   48.9360 S   0  0  0  0  0  0  0  0  0  0  0  0
   45.6060   32.0590   49.0700 C   0  0  0  0  0  0  0  0  0  0  0  0
   45.6240   32.5630   48.0730 N   0  0  0  0  0  0  0  0  0  0  0  0
   44.3450   35.9230   44.3510 C   0  0  0  0  0  0  0  0  0  0  0  0
   46.0864   35.0834   42.4825 H   0  0  0  0  0  0  0  0  0  0  0  0
   47.7843   33.2179   42.7153 H   0  0  0  0  0  0  0  0  0  0  0  0
   48.2458   31.1367   46.4832 H   0  0  0  0  0  0  0  0  0  0  0  0
   44.9154   32.2147   49.9119 H   0  0  0  0  0  0  0  0  0  0  0  0
   44.0303   36.2713   45.3458 H   0  0  0  0  0  0  0  0  0  0  0  0
   44.8019   36.7570   43.7981 H   0  0  0  0  0  0  0  0  0  0  0  0
   43.4691   35.5528   43.7981 H   0  0  0  0  0  0  0  0  0  0  0  0
  1  6  2  0
  2  3  2  0
  2  1  1  0
  3  4  1  0
  4  5  2  0
  5  7  1  0
  6  5  1  0
  7  8  2  0
  7 11  1  0
  8  9  1  0
  9 10  1  0
 11 10  2  0
 12  1  1  0
  2 13  1  0
  3 14  1  0
  8 15  1  0
 10 16  1  0
 12 17  1  0
 12 18  1  0
 12 19  1  0
M  ISO  7  13  14  14  14  15  14  16  14  17   8  18   8  19   8
M  END
>  <minimizedAffinity>  (1) 
-4.00265503

>  <minimizedRMSD>  (1) 
1.24737179

$$$$
