
     RDKit          3D

 36 39  0  0  1  0  0  0  0  0999 V2000
   44.4950   35.4140   43.4560 C   0  0  1  0  0  0  0  0  0  0  0  0
   45.5200   34.4610   43.8910 C   0  0  0  0  0  0  0  0  0  0  0  0
   46.5890   34.1730   42.9900 C   0  0  0  0  0  0  0  0  0  0  0  0
   47.6000   33.2570   43.3780 C   0  0  0  0  0  0  0  0  0  0  0  0
   47.4760   32.7040   44.6120 N   0  0  0  0  0  0  0  0  0  0  0  0
   46.4720   32.9870   45.4320 C   0  0  0  0  0  0  0  0  0  0  0  0
   45.4960   33.8600   45.0800 N   0  0  0  0  0  0  0  0  0  0  0  0
   46.3590   32.3820   46.7590 C   0  0  0  0  0  0  0  0  0  0  0  0
   47.3820   31.5240   47.1900 C   0  0  0  0  0  0  0  0  0  0  0  0
   46.7740   31.0410   48.8950 S   0  0  0  0  0  0  0  0  0  0  0  0
   45.2410   32.1110   48.6770 C   0  0  0  0  0  0  0  0  0  0  0  0
   45.4100   32.5230   47.6550 N   0  0  0  0  0  0  0  0  0  0  0  0
   44.8930   36.8280   43.8530 C   0  0  0  0  0  0  0  0  0  0  0  0
   44.2420   35.3590   41.9780 C   0  0  0  0  0  0  0  0  0  0  0  0
   43.2080   34.4360   41.6040 N   0  0  0  0  0  0  0  0  0  0  0  0
   43.2050   33.0900   41.5890 C   0  0  0  0  0  0  0  0  0  0  0  0
   42.0080   32.6130   41.1630 N   0  0  0  0  0  0  0  0  0  0  0  0
   41.2260   33.6680   40.8990 C   0  0  0  0  0  0  0  0  0  0  0  0
   39.9380   33.8640   40.4490 C   0  0  0  0  0  0  0  0  0  0  0  0
   39.4430   35.1030   40.2870 N   0  0  0  0  0  0  0  0  0  0  0  0
   40.1810   36.2080   40.5580 C   0  0  0  0  0  0  0  0  0  0  0  0
   41.4330   35.9980   40.9960 N   0  0  0  0  0  0  0  0  0  0  0  0
   41.9830   34.8080   41.1770 C   0  0  0  0  0  0  0  0  0  0  0  0
   43.5601   35.1280   43.9602 H   0  0  0  0  0  0  0  0  0  0  0  0
   46.6284   34.6573   42.0032 H   0  0  0  0  0  0  0  0  0  0  0  0
   48.4407   33.0076   42.7139 H   0  0  0  0  0  0  0  0  0  0  0  0
   48.2986   31.2163   46.6655 H   0  0  0  0  0  0  0  0  0  0  0  0
   44.4046   32.2832   49.3704 H   0  0  0  0  0  0  0  0  0  0  0  0
   44.9156   36.9083   44.9498 H   0  0  0  0  0  0  0  0  0  0  0  0
   45.8901   37.0556   43.4481 H   0  0  0  0  0  0  0  0  0  0  0  0
   44.1610   37.5423   43.4481 H   0  0  0  0  0  0  0  0  0  0  0  0
   43.9505   36.3637   41.6378 H   0  0  0  0  0  0  0  0  0  0  0  0
   45.1717   35.0094   41.5053 H   0  0  0  0  0  0  0  0  0  0  0  0
   44.0583   32.4610   41.8827 H   0  0  0  0  0  0  0  0  0  0  0  0
   39.3059   32.9936   40.2191 H   0  0  0  0  0  0  0  0  0  0  0  0
   39.7758   37.2221   40.4261 H   0  0  0  0  0  0  0  0  0  0  0  0
  1 13  1  0
  1  2  1  0
  2  7  2  0
  3  4  2  0
  3  2  1  0
  4  5  1  0
  5  6  2  0
  6  8  1  0
  7  6  1  0
  8  9  2  0
  8 12  1  0
  9 10  1  0
 11 10  1  0
 12 11  2  0
 14  1  1  0
 15 14  1  0
 16 15  1  0
 17 16  2  0
 18 17  1  0
 18 23  2  0
 19 18  1  0
 20 19  2  0
 20 21  1  0
 21 22  2  0
 22 23  1  0
 23 15  1  0
  1 24  1  1
  3 25  1  0
  4 26  1  0
  9 27  1  0
 11 28  1  0
 13 29  1  0
 13 30  1  0
 13 31  1  0
 14 32  1  0
 14 33  1  0
 16 34  1  0
 19 35  1  0
 21 36  1  0
M  ISO  8  24   8  25  14  26  14  27  14  28  14  29   8  30   8  31   8
M  ISO  5  32   8  33   8  34  14  35  14  36  14
M  END
>  <minimizedAffinity>  (1) 
-5.76217556

>  <minimizedRMSD>  (1) 
1.99013186

$$$$
