
     RDKit          3D

 32 34  0  0  1  0  0  0  0  0999 V2000
   45.4790   34.6310   43.7970 C   0  0  0  0  0  0  0  0  0  0  0  0
   46.5030   34.3160   42.8630 C   0  0  0  0  0  0  0  0  0  0  0  0
   47.4860   33.3610   43.2120 C   0  0  0  0  0  0  0  0  0  0  0  0
   47.3830   32.7960   44.4460 N   0  0  0  0  0  0  0  0  0  0  0  0
   46.4100   33.1190   45.2920 C   0  0  0  0  0  0  0  0  0  0  0  0
   45.4650   34.0240   44.9810 N   0  0  0  0  0  0  0  0  0  0  0  0
   46.3200   32.4940   46.6190 C   0  0  0  0  0  0  0  0  0  0  0  0
   47.3170   31.5900   47.0110 C   0  0  0  0  0  0  0  0  0  0  0  0
   46.7360   31.1080   48.7280 S   0  0  0  0  0  0  0  0  0  0  0  0
   45.2420   32.2430   48.5640 C   0  0  0  0  0  0  0  0  0  0  0  0
   45.4030   32.6570   47.5460 N   0  0  0  0  0  0  0  0  0  0  0  0
   44.4770   35.6220   43.4030 C   0  0  1  0  0  0  0  0  0  0  0  0
   44.9260   37.0150   43.7390 C   0  0  0  0  0  0  0  0  0  0  0  0
   44.1150   35.5580   41.9420 C   0  0  0  0  0  0  0  0  0  0  0  0
   42.8430   35.0290   41.6790 C   0  0  0  0  0  0  0  0  0  0  0  0
   41.5290   35.5410   41.6770 C   0  0  0  0  0  0  0  0  0  0  0  0
   40.4950   34.7130   41.3620 C   0  0  0  0  0  0  0  0  0  0  0  0
   40.7830   33.2960   41.0280 C   0  0  0  0  0  0  0  0  0  0  0  0
   42.6670   33.3100   41.2210 S   0  0  0  0  0  0  0  0  0  0  0  0
   46.5306   34.8092   41.8802 H   0  0  0  0  0  0  0  0  0  0  0  0
   48.2954   33.0878   42.5190 H   0  0  0  0  0  0  0  0  0  0  0  0
   48.2057   31.2523   46.4576 H   0  0  0  0  0  0  0  0  0  0  0  0
   44.4314   32.4416   49.2806 H   0  0  0  0  0  0  0  0  0  0  0  0
   43.5757   35.3699   43.9810 H   0  0  0  0  0  0  0  0  0  0  0  0
   44.9644   37.1343   44.8318 H   0  0  0  0  0  0  0  0  0  0  0  0
   45.9261   37.1900   43.3156 H   0  0  0  0  0  0  0  0  0  0  0  0
   44.2164   37.7411   43.3156 H   0  0  0  0  0  0  0  0  0  0  0  0
   44.1533   36.5788   41.5339 H   0  0  0  0  0  0  0  0  0  0  0  0
   44.8395   34.8777   41.4705 H   0  0  0  0  0  0  0  0  0  0  0  0
   41.3418   36.5958   41.9267 H   0  0  0  0  0  0  0  0  0  0  0  0
   39.4612   35.0889   41.3552 H   0  0  0  0  0  0  0  0  0  0  0  0
   40.1022   32.4779   40.7500 H   0  0  0  0  0  0  0  0  0  0  0  0
  1  6  2  0
  2  3  2  0
  2  1  1  0
  3  4  1  0
  4  5  2  0
  5  7  1  0
  6  5  1  0
  7  8  2  0
  7 11  1  0
  8  9  1  0
 10  9  1  0
 11 10  2  0
 12 13  1  0
 12  1  1  0
 14 12  1  0
 15 14  1  0
 16 15  2  0
 17 16  1  0
 18 19  1  0
 18 17  2  0
 19 15  1  0
  2 20  1  0
  3 21  1  0
  8 22  1  0
 10 23  1  0
 12 24  1  1
 13 25  1  0
 13 26  1  0
 13 27  1  0
 14 28  1  0
 14 29  1  0
 16 30  1  0
 17 31  1  0
 18 32  1  0
M  ISO  8  20  14  21  14  22  14  23  14  24   8  25   8  26   8  27   8
M  ISO  5  28   8  29   8  30  14  31  14  32  14
M  END
>  <minimizedAffinity>  (1) 
-5.02571392

>  <minimizedRMSD>  (1) 
1.15201807

$$$$
