
     RDKit          3D

 31 33  0  0  1  0  0  0  0  0999 V2000
   45.4830   34.6180   43.8180 C   0  0  0  0  0  0  0  0  0  0  0  0
   46.5100   34.2930   42.8900 C   0  0  0  0  0  0  0  0  0  0  0  0
   47.4860   33.3420   43.2360 C   0  0  0  0  0  0  0  0  0  0  0  0
   47.3800   32.7810   44.4690 N   0  0  0  0  0  0  0  0  0  0  0  0
   46.4140   33.0980   45.3200 C   0  0  0  0  0  0  0  0  0  0  0  0
   45.4570   34.0110   45.0200 N   0  0  0  0  0  0  0  0  0  0  0  0
   46.3190   32.4750   46.6590 C   0  0  0  0  0  0  0  0  0  0  0  0
   47.3340   31.5770   47.0240 C   0  0  0  0  0  0  0  0  0  0  0  0
   46.7670   31.0850   48.7460 S   0  0  0  0  0  0  0  0  0  0  0  0
   45.2490   32.2250   48.5910 C   0  0  0  0  0  0  0  0  0  0  0  0
   45.3820   32.6560   47.5730 N   0  0  0  0  0  0  0  0  0  0  0  0
   44.4920   35.6140   43.4150 C   0  0  1  0  0  0  0  0  0  0  0  0
   44.8790   36.9870   43.8760 C   0  0  0  0  0  0  0  0  0  0  0  0
   44.2130   35.5990   41.9300 C   0  0  0  0  0  0  0  0  0  0  0  0
   42.8940   34.9650   41.6670 C   0  0  0  0  0  0  0  0  0  0  0  0
   42.8760   33.5970   41.2650 C   0  0  0  0  0  0  0  0  0  0  0  0
   41.0590   33.2280   41.0440 S   0  0  0  0  0  0  0  0  0  0  0  0
   40.6640   35.0170   41.5430 C   0  0  0  0  0  0  0  0  0  0  0  0
   41.6780   35.4570   41.7350 N   0  0  0  0  0  0  0  0  0  0  0  0
   46.5408   34.7834   41.9058 H   0  0  0  0  0  0  0  0  0  0  0  0
   48.2947   33.0660   42.5434 H   0  0  0  0  0  0  0  0  0  0  0  0
   48.2186   31.2509   46.4573 H   0  0  0  0  0  0  0  0  0  0  0  0
   44.4466   32.4101   49.3203 H   0  0  0  0  0  0  0  0  0  0  0  0
   43.5529   35.3334   43.9143 H   0  0  0  0  0  0  0  0  0  0  0  0
   44.8871   37.0159   44.9756 H   0  0  0  0  0  0  0  0  0  0  0  0
   45.8814   37.2326   43.4953 H   0  0  0  0  0  0  0  0  0  0  0  0
   44.1525   37.7200   43.4953 H   0  0  0  0  0  0  0  0  0  0  0  0
   44.2030   36.6315   41.5507 H   0  0  0  0  0  0  0  0  0  0  0  0
   44.9990   35.0222   41.4206 H   0  0  0  0  0  0  0  0  0  0  0  0
   43.7303   32.9195   41.1195 H   0  0  0  0  0  0  0  0  0  0  0  0
   39.6807   35.5034   41.6241 H   0  0  0  0  0  0  0  0  0  0  0  0
  1  6  2  0
  2  3  2  0
  2  1  1  0
  3  4  1  0
  4  5  2  0
  5  7  1  0
  6  5  1  0
  7  8  2  0
  7 11  1  0
  8  9  1  0
 10  9  1  0
 11 10  2  0
 12  1  1  0
 12 13  1  0
 14 12  1  0
 15 19  1  0
 15 14  1  0
 16 15  2  0
 17 16  1  0
 17 18  1  0
 18 19  2  0
  2 20  1  0
  3 21  1  0
  8 22  1  0
 10 23  1  0
 12 24  1  1
 13 25  1  0
 13 26  1  0
 13 27  1  0
 14 28  1  0
 14 29  1  0
 16 30  1  0
 18 31  1  0
M  ISO  8  20  14  21  14  22  14  23  14  24   8  25   8  26   8  27   8
M  ISO  4  28   8  29   8  30  14  31  14
M  END
>  <minimizedAffinity>  (1) 
-4.92135096

>  <minimizedRMSD>  (1) 
1.19196963

$$$$
