
     RDKit          3D

 32 33  0  0  0  0  0  0  0  0999 V2000
   45.8360   34.6440   41.5760 C   0  0  0  0  0  0  0  0  0  0  0  0
   47.0760   35.1150   42.0140 C   0  0  0  0  0  0  0  0  0  0  0  0
   48.2060   34.8470   41.2200 C   0  0  0  0  0  0  0  0  0  0  0  0
   48.0280   34.1450   40.0680 N   0  0  0  0  0  0  0  0  0  0  0  0
   46.8030   33.7090   39.6810 C   0  0  0  0  0  0  0  0  0  0  0  0
   45.7320   33.9630   40.4360 N   0  0  0  0  0  0  0  0  0  0  0  0
   46.6600   32.9450   38.4140 C   0  0  0  0  0  0  0  0  0  0  0  0
   47.3820   33.6440   37.2540 C   0  0  0  0  0  0  0  0  0  0  0  0
   47.5050   32.5760   36.1670 C   0  0  0  0  0  0  0  0  0  0  0  0
   46.1030   32.3050   35.6680 C   0  0  0  0  0  0  0  0  0  0  0  0
   45.2390   31.8360   36.7920 C   0  0  0  0  0  0  0  0  0  0  0  0
   45.2380   32.7530   37.9800 C   0  0  0  0  0  0  0  0  0  0  0  0
   44.6730   34.9230   42.4000 C   0  0  0  0  0  0  0  0  0  0  0  0
   43.7710   35.6990   41.9480 O   0  0  0  0  0  0  0  0  0  0  0  0
   44.5940   34.3170   43.6660 O   0  0  0  0  0  0  0  0  0  0  0  0
   45.0870   35.0250   44.7720 C   0  0  0  0  0  0  0  0  0  0  0  0
   44.2230   34.9770   45.8640 F   0  0  0  0  0  0  0  0  0  0  0  0
   46.3080   34.5270   45.1620 F   0  0  0  0  0  0  0  0  0  0  0  0
   45.1940   36.3560   44.3830 F   0  0  0  0  0  0  0  0  0  0  0  0
   47.1664   35.6797   42.9536 H   0  0  0  0  0  0  0  0  0  0  0  0
   49.2049   35.1950   41.5218 H   0  0  0  0  0  0  0  0  0  0  0  0
   47.1051   31.9645   38.6388 H   0  0  0  0  0  0  0  0  0  0  0  0
   46.7935   34.4996   36.8912 H   0  0  0  0  0  0  0  0  0  0  0  0
   48.3618   34.0425   37.5559 H   0  0  0  0  0  0  0  0  0  0  0  0
   48.1366   32.9425   35.3444 H   0  0  0  0  0  0  0  0  0  0  0  0
   47.9702   31.6603   36.5609 H   0  0  0  0  0  0  0  0  0  0  0  0
   45.6817   33.2298   35.2469 H   0  0  0  0  0  0  0  0  0  0  0  0
   46.1414   31.5244   34.8940 H   0  0  0  0  0  0  0  0  0  0  0  0
   44.2069   31.7470   36.4220 H   0  0  0  0  0  0  0  0  0  0  0  0
   45.6498   30.8736   37.1311 H   0  0  0  0  0  0  0  0  0  0  0  0
   44.7973   33.7223   37.7038 H   0  0  0  0  0  0  0  0  0  0  0  0
   44.6425   32.3207   38.7976 H   0  0  0  0  0  0  0  0  0  0  0  0
  1  2  2  0
  1 13  1  0
  3  2  1  0
  4  3  2  0
  5  4  1  0
  5  6  2  0
  6  1  1  0
  7  5  1  0
  8  7  1  0
  9  8  1  0
 10  9  1  0
 10 11  1  0
 11 12  1  0
 12  7  1  0
 13 15  1  0
 14 13  2  0
 15 16  1  0
 16 18  1  0
 16 17  1  0
 19 16  1  0
  2 20  1  0
  3 21  1  0
  7 22  1  0
  8 23  1  0
  8 24  1  0
  9 25  1  0
  9 26  1  0
 10 27  1  0
 10 28  1  0
 11 29  1  0
 11 30  1  0
 12 31  1  0
 12 32  1  0
M  ISO  8  20  14  21  14  22  13  23  13  24  13  25  13  26  13  27  13
M  ISO  5  28  13  29  13  30  13  31  13  32  13
M  END
>  <minimizedAffinity>  (1) 
-4.34961319

>  <minimizedRMSD>  (1) 
0.947588146

$$$$
