
     RDKit          3D

 32 34  0  0  1  0  0  0  0  0999 V2000
   45.5330   34.5070   43.9350 C   0  0  0  0  0  0  0  0  0  0  0  0
   46.5520   34.1840   42.9980 C   0  0  0  0  0  0  0  0  0  0  0  0
   47.5290   33.2310   43.3540 C   0  0  0  0  0  0  0  0  0  0  0  0
   47.4280   32.6770   44.5920 N   0  0  0  0  0  0  0  0  0  0  0  0
   46.4620   33.0010   45.4450 C   0  0  0  0  0  0  0  0  0  0  0  0
   45.5080   33.9120   45.1350 N   0  0  0  0  0  0  0  0  0  0  0  0
   46.3700   32.3890   46.7780 C   0  0  0  0  0  0  0  0  0  0  0  0
   47.3910   31.5240   47.1850 C   0  0  0  0  0  0  0  0  0  0  0  0
   46.8080   31.0270   48.8990 S   0  0  0  0  0  0  0  0  0  0  0  0
   45.2780   32.1130   48.7030 C   0  0  0  0  0  0  0  0  0  0  0  0
   45.4280   32.5340   47.6830 N   0  0  0  0  0  0  0  0  0  0  0  0
   44.5170   35.5070   43.5460 C   0  0  1  0  0  0  0  0  0  0  0  0
   44.8250   36.8360   44.1830 C   0  0  0  0  0  0  0  0  0  0  0  0
   44.4010   35.6780   42.0580 C   0  0  0  0  0  0  0  0  0  0  0  0
   42.9780   35.3140   41.6740 C   0  0  0  0  0  0  0  0  0  0  0  0
   42.6340   35.0750   40.2500 C   0  0  0  0  0  0  0  0  0  0  0  0
   42.7860   33.8950   41.2620 C   0  0  0  0  0  0  0  0  0  0  0  0
   46.5782   34.6694   42.0112 H   0  0  0  0  0  0  0  0  0  0  0  0
   48.3360   32.9487   42.6618 H   0  0  0  0  0  0  0  0  0  0  0  0
   48.2974   31.2159   46.6432 H   0  0  0  0  0  0  0  0  0  0  0  0
   44.4537   32.2853   49.4107 H   0  0  0  0  0  0  0  0  0  0  0  0
   43.5497   35.1274   43.9070 H   0  0  0  0  0  0  0  0  0  0  0  0
   44.8009   36.7322   45.2778 H   0  0  0  0  0  0  0  0  0  0  0  0
   45.8245   37.1706   43.8683 H   0  0  0  0  0  0  0  0  0  0  0  0
   44.0746   37.5762   43.8683 H   0  0  0  0  0  0  0  0  0  0  0  0
   44.6109   36.7217   41.7811 H   0  0  0  0  0  0  0  0  0  0  0  0
   45.1235   35.0354   41.5336 H   0  0  0  0  0  0  0  0  0  0  0  0
   42.5362   35.9832   42.4270 H   0  0  0  0  0  0  0  0  0  0  0  0
   43.3876   35.2315   39.4641 H   0  0  0  0  0  0  0  0  0  0  0  0
   41.8510   35.4241   39.5607 H   0  0  0  0  0  0  0  0  0  0  0  0
   41.9012   33.3343   41.5979 H   0  0  0  0  0  0  0  0  0  0  0  0
   43.3816   32.9716   41.3129 H   0  0  0  0  0  0  0  0  0  0  0  0
  1  6  2  0
  2  3  2  0
  2  1  1  0
  3  4  1  0
  4  5  2  0
  5  7  1  0
  6  5  1  0
  7  8  2  0
  7 11  1  0
  8  9  1  0
 10  9  1  0
 11 10  2  0
 12  1  1  0
 12 13  1  0
 14 12  1  0
 15 14  1  0
 16 17  1  0
 16 15  1  0
 17 15  1  0
  2 18  1  0
  3 19  1  0
  8 20  1  0
 10 21  1  0
 12 22  1  1
 13 23  1  0
 13 24  1  0
 13 25  1  0
 14 26  1  0
 14 27  1  0
 15 28  1  0
 16 29  1  0
 16 30  1  0
 17 31  1  0
 17 32  1  0
M  ISO  8  18  14  19  14  20  14  21  14  22   8  23   8  24   8  25   8
M  ISO  7  26   8  27   8  28  13  29  13  30  13  31  13  32  13
M  END
>  <minimizedAffinity>  (1) 
-4.49740648

>  <minimizedRMSD>  (1) 
0.8575055

$$$$
