
     RDKit          3D

 37 39  0  0  1  0  0  0  0  0999 V2000
   44.4430   35.6370   43.4670 C   0  0  1  0  0  0  0  0  0  0  0  0
   45.4750   34.6360   43.8350 C   0  0  0  0  0  0  0  0  0  0  0  0
   46.5030   34.3410   42.9140 C   0  0  0  0  0  0  0  0  0  0  0  0
   47.4880   33.3980   43.2490 C   0  0  0  0  0  0  0  0  0  0  0  0
   47.3850   32.8140   44.4690 N   0  0  0  0  0  0  0  0  0  0  0  0
   46.4170   33.1010   45.3170 C   0  0  0  0  0  0  0  0  0  0  0  0
   45.4650   34.0030   45.0130 N   0  0  0  0  0  0  0  0  0  0  0  0
   46.3160   32.4740   46.6410 C   0  0  0  0  0  0  0  0  0  0  0  0
   47.3280   31.5780   47.0270 C   0  0  0  0  0  0  0  0  0  0  0  0
   46.7510   31.1060   48.7350 S   0  0  0  0  0  0  0  0  0  0  0  0
   45.2460   32.2200   48.5900 C   0  0  0  0  0  0  0  0  0  0  0  0
   45.4060   32.6330   47.5640 N   0  0  0  0  0  0  0  0  0  0  0  0
   45.0720   37.0160   43.3700 C   0  0  0  0  0  0  0  0  0  0  0  0
   43.7830   35.2940   42.1660 C   0  0  0  0  0  0  0  0  0  0  0  0
   42.4220   34.9270   42.2810 N   0  0  0  0  0  0  0  0  0  0  0  0
   41.4200   34.8290   41.3140 C   0  0  0  0  0  0  0  0  0  0  0  0
   41.4620   35.3950   40.0600 C   0  0  0  0  0  0  0  0  0  0  0  0
   40.4760   35.3130   39.1030 C   0  0  0  0  0  0  0  0  0  0  0  0
   39.3390   34.6070   39.4010 C   0  0  0  0  0  0  0  0  0  0  0  0
   39.2320   34.0150   40.6360 C   0  0  0  0  0  0  0  0  0  0  0  0
   40.2480   34.1360   41.5420 C   0  0  0  0  0  0  0  0  0  0  0  0
   43.6738   35.6317   44.2533 H   0  0  0  0  0  0  0  0  0  0  0  0
   46.5324   34.8476   41.9380 H   0  0  0  0  0  0  0  0  0  0  0  0
   48.3037   33.1451   42.5557 H   0  0  0  0  0  0  0  0  0  0  0  0
   48.2179   31.2460   46.4722 H   0  0  0  0  0  0  0  0  0  0  0  0
   44.4370   32.4115   49.3103 H   0  0  0  0  0  0  0  0  0  0  0  0
   45.2513   37.4092   44.3816 H   0  0  0  0  0  0  0  0  0  0  0  0
   46.0273   36.9461   42.8291 H   0  0  0  0  0  0  0  0  0  0  0  0
   44.3930   37.6915   42.8291 H   0  0  0  0  0  0  0  0  0  0  0  0
   44.3293   34.4529   41.7142 H   0  0  0  0  0  0  0  0  0  0  0  0
   43.8120   36.2044   41.5493 H   0  0  0  0  0  0  0  0  0  0  0  0
   42.1198   34.6931   43.2375 H   0  0  0  0  0  0  0  0  0  0  0  0
   42.3659   35.9648   39.7988 H   0  0  0  0  0  0  0  0  0  0  0  0
   40.5971   35.8011   38.1247 H   0  0  0  0  0  0  0  0  0  0  0  0
   38.5271   34.5163   38.6644 H   0  0  0  0  0  0  0  0  0  0  0  0
   38.3286   33.4436   40.8957 H   0  0  0  0  0  0  0  0  0  0  0  0
   40.1234   33.6478   42.5198 H   0  0  0  0  0  0  0  0  0  0  0  0
  1  2  1  0
  2  7  2  0
  3  4  2  0
  3  2  1  0
  4  5  1  0
  5  6  2  0
  6  8  1  0
  7  6  1  0
  8  9  2  0
  8 12  1  0
  9 10  1  0
 11 10  1  0
 12 11  2  0
 13  1  1  0
 14 15  1  0
 14  1  1  0
 16 21  1  0
 16 15  1  0
 17 16  2  0
 18 19  2  0
 18 17  1  0
 19 20  1  0
 20 21  2  0
  1 22  1  1
  3 23  1  0
  4 24  1  0
  9 25  1  0
 11 26  1  0
 13 27  1  0
 13 28  1  0
 13 29  1  0
 14 30  1  0
 14 31  1  0
 15 32  1  0
 17 33  1  0
 18 34  1  0
 19 35  1  0
 20 36  1  0
 21 37  1  0
M  ISO  8  22   8  23  14  24  14  25  14  26  14  27   8  28   8  29   8
M  ISO  7  30   8  31   8  33  14  34  14  35  14  36  14  37  14
M  END
>  <minimizedAffinity>  (1) 
-5.85637856

>  <minimizedRMSD>  (1) 
2.01037574

$$$$
