
     RDKit          3D

 35 37  0  0  1  0  0  0  0  0999 V2000
   44.4070   35.6530   43.6520 C   0  0  1  0  0  0  0  0  0  0  0  0
   45.4310   34.6630   44.0140 C   0  0  0  0  0  0  0  0  0  0  0  0
   46.4560   34.4000   43.0830 C   0  0  0  0  0  0  0  0  0  0  0  0
   47.4550   33.4580   43.3920 C   0  0  0  0  0  0  0  0  0  0  0  0
   47.3630   32.8510   44.5990 N   0  0  0  0  0  0  0  0  0  0  0  0
   46.3960   33.1100   45.4590 C   0  0  0  0  0  0  0  0  0  0  0  0
   45.4310   34.0080   45.1810 N   0  0  0  0  0  0  0  0  0  0  0  0
   46.3120   32.4590   46.7760 C   0  0  0  0  0  0  0  0  0  0  0  0
   47.3620   31.5880   47.1400 C   0  0  0  0  0  0  0  0  0  0  0  0
   46.7970   31.0570   48.8310 S   0  0  0  0  0  0  0  0  0  0  0  0
   45.2400   32.1270   48.7110 C   0  0  0  0  0  0  0  0  0  0  0  0
   45.3720   32.5750   47.7030 N   0  0  0  0  0  0  0  0  0  0  0  0
   44.9810   37.0630   43.7370 C   0  0  0  0  0  0  0  0  0  0  0  0
   43.8290   35.4270   42.2970 C   0  0  0  0  0  0  0  0  0  0  0  0
   42.4100   35.3640   42.3100 N   0  0  0  0  0  0  0  0  0  0  0  0
   41.3380   35.0240   41.4710 C   0  0  0  0  0  0  0  0  0  0  0  0
   41.4490   35.5650   40.2020 C   0  0  0  0  0  0  0  0  0  0  0  0
   40.4740   35.3280   39.2460 C   0  0  0  0  0  0  0  0  0  0  0  0
   39.4110   34.5710   39.5380 N   0  0  0  0  0  0  0  0  0  0  0  0
   39.3090   34.0490   40.7690 C   0  0  0  0  0  0  0  0  0  0  0  0
   40.2430   34.2560   41.7440 N   0  0  0  0  0  0  0  0  0  0  0  0
   43.5884   35.5342   44.3771 H   0  0  0  0  0  0  0  0  0  0  0  0
   46.4751   34.9289   42.1187 H   0  0  0  0  0  0  0  0  0  0  0  0
   48.2688   33.2267   42.6890 H   0  0  0  0  0  0  0  0  0  0  0  0
   48.2641   31.3025   46.5791 H   0  0  0  0  0  0  0  0  0  0  0  0
   44.4276   32.2668   49.4394 H   0  0  0  0  0  0  0  0  0  0  0  0
   45.0972   37.3485   44.7929 H   0  0  0  0  0  0  0  0  0  0  0  0
   45.9618   37.0902   43.2397 H   0  0  0  0  0  0  0  0  0  0  0  0
   44.2981   37.7675   43.2397 H   0  0  0  0  0  0  0  0  0  0  0  0
   44.2198   34.4779   41.9015 H   0  0  0  0  0  0  0  0  0  0  0  0
   44.1180   36.2803   41.6659 H   0  0  0  0  0  0  0  0  0  0  0  0
   42.0543   35.6637   43.2290 H   0  0  0  0  0  0  0  0  0  0  0  0
   42.3192   36.1889   39.9498 H   0  0  0  0  0  0  0  0  0  0  0  0
   40.5751   35.7649   38.2416 H   0  0  0  0  0  0  0  0  0  0  0  0
   38.4336   33.4259   41.0043 H   0  0  0  0  0  0  0  0  0  0  0  0
  1 13  1  0
  1  2  1  0
  2  7  2  0
  3  4  2  0
  3  2  1  0
  4  5  1  0
  5  6  2  0
  6  8  1  0
  7  6  1  0
  8  9  2  0
  8 12  1  0
  9 10  1  0
 11 10  1  0
 12 11  2  0
 14 15  1  0
 14  1  1  0
 16 21  1  0
 16 15  1  0
 17 16  2  0
 18 19  2  0
 18 17  1  0
 19 20  1  0
 20 21  2  0
  1 22  1  1
  3 23  1  0
  4 24  1  0
  9 25  1  0
 11 26  1  0
 13 27  1  0
 13 28  1  0
 13 29  1  0
 14 30  1  0
 14 31  1  0
 15 32  1  0
 17 33  1  0
 18 34  1  0
 20 35  1  0
M  ISO  8  22   8  23  14  24  14  25  14  26  14  27   8  28   8  29   8
M  ISO  5  30   8  31   8  33  14  34  14  35  14
M  END
>  <minimizedAffinity>  (1) 
-5.62978411

>  <minimizedRMSD>  (1) 
2.84311485

$$$$
