
     RDKit          3D

 38 41  0  0  1  0  0  0  0  0999 V2000
   44.4220   35.5500   43.4020 C   0  0  1  0  0  0  0  0  0  0  0  0
   45.4550   34.5840   43.7900 C   0  0  0  0  0  0  0  0  0  0  0  0
   46.4970   34.2860   42.8640 C   0  0  0  0  0  0  0  0  0  0  0  0
   47.4800   33.3580   43.2340 C   0  0  0  0  0  0  0  0  0  0  0  0
   47.3860   32.7900   44.4670 N   0  0  0  0  0  0  0  0  0  0  0  0
   46.4080   33.0880   45.3020 C   0  0  0  0  0  0  0  0  0  0  0  0
   45.4260   33.9840   44.9860 N   0  0  0  0  0  0  0  0  0  0  0  0
   46.3060   32.4800   46.6380 C   0  0  0  0  0  0  0  0  0  0  0  0
   47.3270   31.5680   47.0140 C   0  0  0  0  0  0  0  0  0  0  0  0
   46.7490   31.1090   48.7270 S   0  0  0  0  0  0  0  0  0  0  0  0
   45.2490   32.2410   48.5800 C   0  0  0  0  0  0  0  0  0  0  0  0
   45.3860   32.6590   47.5600 N   0  0  0  0  0  0  0  0  0  0  0  0
   45.0000   36.9580   43.3850 C   0  0  0  0  0  0  0  0  0  0  0  0
   43.8450   35.2460   42.0490 C   0  0  0  0  0  0  0  0  0  0  0  0
   42.4950   34.8710   42.0560 N   0  0  0  0  0  0  0  0  0  0  0  0
   40.2760   34.9360   38.0030 N   0  0  0  0  0  0  0  0  0  0  0  0
   41.4250   35.6200   37.8730 C   0  0  0  0  0  0  0  0  0  0  0  0
   42.0230   35.5640   39.0860 N   0  0  0  0  0  0  0  0  0  0  0  0
   41.2180   34.8530   39.8970 C   0  0  0  0  0  0  0  0  0  0  0  0
   41.4190   34.5380   41.2280 C   0  0  0  0  0  0  0  0  0  0  0  0
   40.4250   33.8110   41.7600 N   0  0  0  0  0  0  0  0  0  0  0  0
   39.3210   33.3970   41.1280 C   0  0  0  0  0  0  0  0  0  0  0  0
   39.1320   33.7070   39.8350 N   0  0  0  0  0  0  0  0  0  0  0  0
   40.0900   34.4340   39.2390 C   0  0  0  0  0  0  0  0  0  0  0  0
   43.6163   35.4764   44.1472 H   0  0  0  0  0  0  0  0  0  0  0  0
   46.5289   34.7745   41.8789 H   0  0  0  0  0  0  0  0  0  0  0  0
   48.3009   33.0973   42.5498 H   0  0  0  0  0  0  0  0  0  0  0  0
   48.2101   31.2279   46.4532 H   0  0  0  0  0  0  0  0  0  0  0  0
   44.4500   32.4359   49.3105 H   0  0  0  0  0  0  0  0  0  0  0  0
   45.1436   37.3079   44.4179 H   0  0  0  0  0  0  0  0  0  0  0  0
   45.9679   36.9507   42.8624 H   0  0  0  0  0  0  0  0  0  0  0  0
   44.3062   37.6329   42.8624 H   0  0  0  0  0  0  0  0  0  0  0  0
   44.4261   34.4237   41.6062 H   0  0  0  0  0  0  0  0  0  0  0  0
   43.9036   36.1799   41.4708 H   0  0  0  0  0  0  0  0  0  0  0  0
   42.1775   34.8228   43.0346 H   0  0  0  0  0  0  0  0  0  0  0  0
   39.6036   34.8081   37.2333 H   0  0  0  0  0  0  0  0  0  0  0  0
   41.8014   36.1212   36.9690 H   0  0  0  0  0  0  0  0  0  0  0  0
   38.5684   32.8029   41.6671 H   0  0  0  0  0  0  0  0  0  0  0  0
  1  2  1  0
  2  7  2  0
  3  4  2  0
  3  2  1  0
  4  5  1  0
  5  6  2  0
  6  8  1  0
  7  6  1  0
  8  9  2  0
  8 12  1  0
  9 10  1  0
 11 10  1  0
 12 11  2  0
 13  1  1  0
 14 15  1  0
 14  1  1  0
 16 24  1  0
 17 16  1  0
 17 18  2  0
 18 19  1  0
 19 20  2  0
 20 21  1  0
 20 15  1  0
 22 21  2  0
 23 22  1  0
 24 23  2  0
 24 19  1  0
  1 25  1  1
  3 26  1  0
  4 27  1  0
  9 28  1  0
 11 29  1  0
 13 30  1  0
 13 31  1  0
 13 32  1  0
 14 33  1  0
 14 34  1  0
 15 35  1  0
 16 36  1  0
 17 37  1  0
 22 38  1  0
M  ISO  8  25   8  26  14  27  14  28  14  29  14  30   8  31   8  32   8
M  ISO  5  33   8  34   8  36   9  37  14  38  14
M  END
>  <minimizedAffinity>  (1) 
-5.94125843

>  <minimizedRMSD>  (1) 
3.03997517

$$$$
