
     RDKit          3D

 36 37  0  0  1  0  0  0  0  0999 V2000
   45.4650   34.6610   43.9980 C   0  0  0  0  0  0  0  0  0  0  0  0
   46.4970   34.3830   43.0650 C   0  0  0  0  0  0  0  0  0  0  0  0
   47.4880   33.4370   43.3900 C   0  0  0  0  0  0  0  0  0  0  0  0
   47.3920   32.8390   44.6000 N   0  0  0  0  0  0  0  0  0  0  0  0
   46.4290   33.1080   45.4550 C   0  0  0  0  0  0  0  0  0  0  0  0
   45.4570   34.0170   45.1700 N   0  0  0  0  0  0  0  0  0  0  0  0
   46.3110   32.4640   46.7830 C   0  0  0  0  0  0  0  0  0  0  0  0
   47.3570   31.5850   47.1450 C   0  0  0  0  0  0  0  0  0  0  0  0
   46.7730   31.0460   48.8360 S   0  0  0  0  0  0  0  0  0  0  0  0
   45.2370   32.1210   48.6980 C   0  0  0  0  0  0  0  0  0  0  0  0
   45.3730   32.5800   47.6910 N   0  0  0  0  0  0  0  0  0  0  0  0
   44.4340   35.6540   43.6440 C   0  0  1  0  0  0  0  0  0  0  0  0
   45.0870   37.0290   43.5120 C   0  0  0  0  0  0  0  0  0  0  0  0
   43.7410   35.3420   42.3680 C   0  0  0  0  0  0  0  0  0  0  0  0
   42.3310   35.5220   42.4370 N   0  0  0  0  0  0  0  0  0  0  0  0
   41.5920   35.1350   41.2930 C   0  0  0  0  0  0  0  0  0  0  0  0
   40.6040   36.2330   40.9480 C   0  0  0  0  0  0  0  0  0  0  0  0
   42.5730   35.1000   40.1130 C   0  0  0  0  0  0  0  0  0  0  0  0
   46.5228   34.9023   42.0956 H   0  0  0  0  0  0  0  0  0  0  0  0
   48.3031   33.1951   42.6920 H   0  0  0  0  0  0  0  0  0  0  0  0
   48.2611   31.2986   46.5876 H   0  0  0  0  0  0  0  0  0  0  0  0
   44.4193   32.2605   49.4205 H   0  0  0  0  0  0  0  0  0  0  0  0
   43.6826   35.6353   44.4472 H   0  0  0  0  0  0  0  0  0  0  0  0
   45.2821   37.4399   44.5135 H   0  0  0  0  0  0  0  0  0  0  0  0
   46.0358   36.9332   42.9637 H   0  0  0  0  0  0  0  0  0  0  0  0
   44.4132   37.7038   42.9637 H   0  0  0  0  0  0  0  0  0  0  0  0
   43.9472   34.2939   42.1054 H   0  0  0  0  0  0  0  0  0  0  0  0
   44.1229   36.0409   41.6093 H   0  0  0  0  0  0  0  0  0  0  0  0
   41.9833   34.9725   43.2358 H   0  0  0  0  0  0  0  0  0  0  0  0
   41.0894   34.1743   41.4786 H   0  0  0  0  0  0  0  0  0  0  0  0
   40.2074   36.6738   41.8745 H   0  0  0  0  0  0  0  0  0  0  0  0
   41.1117   37.0115   40.3596 H   0  0  0  0  0  0  0  0  0  0  0  0
   39.7764   35.8100   40.3596 H   0  0  0  0  0  0  0  0  0  0  0  0
   43.6041   35.0632   40.4944 H   0  0  0  0  0  0  0  0  0  0  0  0
   42.3769   34.2083   39.4995 H   0  0  0  0  0  0  0  0  0  0  0  0
   42.4410   36.0034   39.4995 H   0  0  0  0  0  0  0  0  0  0  0  0
  1  6  2  0
  2  3  2  0
  2  1  1  0
  3  4  1  0
  4  5  2  0
  5  7  1  0
  6  5  1  0
  7  8  2  0
  7 11  1  0
  8  9  1  0
 10  9  1  0
 11 10  2  0
 12  1  1  0
 13 12  1  0
 14 15  1  0
 14 12  1  0
 16 15  1  0
 17 16  1  0
 18 16  1  0
  2 19  1  0
  3 20  1  0
  8 21  1  0
 10 22  1  0
 12 23  1  1
 13 24  1  0
 13 25  1  0
 13 26  1  0
 14 27  1  0
 14 28  1  0
 15 29  1  0
 16 30  1  0
 17 31  1  0
 17 32  1  0
 17 33  1  0
 18 34  1  0
 18 35  1  0
 18 36  1  0
M  ISO  8  19  14  20  14  21  14  22  14  23   8  24   8  25   8  26   8
M  ISO  8  27   8  28   8  29   5  30   8  31   8  32   8  33   8  34   8
M  ISO  2  35   8  36   8
M  END
>  <minimizedAffinity>  (1) 
-5.14173651

>  <minimizedRMSD>  (1) 
0.745125651

$$$$
