
     RDKit          3D

 39 41  0  0  1  0  0  0  0  0999 V2000
   44.4670   35.7070   43.4240 C   0  0  1  0  0  0  0  0  0  0  0  0
   45.4580   34.7020   43.8460 C   0  0  0  0  0  0  0  0  0  0  0  0
   46.6300   34.5390   43.0660 C   0  0  0  0  0  0  0  0  0  0  0  0
   47.5880   33.5850   43.4480 C   0  0  0  0  0  0  0  0  0  0  0  0
   47.3260   32.8630   44.5660 N   0  0  0  0  0  0  0  0  0  0  0  0
   46.2340   33.0260   45.2790 C   0  0  0  0  0  0  0  0  0  0  0  0
   45.2930   33.9450   44.9250 N   0  0  0  0  0  0  0  0  0  0  0  0
   45.9520   32.2570   46.4890 C   0  0  0  0  0  0  0  0  0  0  0  0
   45.8660   30.8630   46.3800 C   0  0  0  0  0  0  0  0  0  0  0  0
   45.5170   30.3740   48.1460 S   0  0  0  0  0  0  0  0  0  0  0  0
   45.5540   32.1750   48.6970 C   0  0  0  0  0  0  0  0  0  0  0  0
   45.7640   32.6600   47.7190 N   0  0  0  0  0  0  0  0  0  0  0  0
   45.0890   37.0960   43.4530 C   0  0  0  0  0  0  0  0  0  0  0  0
   43.9380   35.4300   42.0470 C   0  0  0  0  0  0  0  0  0  0  0  0
   42.9390   34.4410   42.0000 N   0  0  0  0  0  0  0  0  0  0  0  0
   41.2260   36.0120   41.6930 N   0  0  0  0  0  0  0  0  0  0  0  0
   40.2900   36.3340   40.6320 C   0  0  0  0  0  0  0  0  0  0  0  0
   40.7770   35.5930   39.4070 C   0  0  0  0  0  0  0  0  0  0  0  0
   41.5310   34.3820   39.9720 C   0  0  0  0  0  0  0  0  0  0  0  0
   41.6970   34.6740   41.4150 C   0  0  1  0  0  0  0  0  0  0  0  0
   43.6255   35.6542   44.1305 H   0  0  0  0  0  0  0  0  0  0  0  0
   46.7884   35.1547   42.1683 H   0  0  0  0  0  0  0  0  0  0  0  0
   48.5090   33.4305   42.8667 H   0  0  0  0  0  0  0  0  0  0  0  0
   45.9752   30.2261   45.4898 H   0  0  0  0  0  0  0  0  0  0  0  0
   45.4101   32.6170   49.6939 H   0  0  0  0  0  0  0  0  0  0  0  0
   45.2308   37.4125   44.4969 H   0  0  0  0  0  0  0  0  0  0  0  0
   46.0626   37.0725   42.9415 H   0  0  0  0  0  0  0  0  0  0  0  0
   44.4232   37.8067   42.9415 H   0  0  0  0  0  0  0  0  0  0  0  0
   43.5179   36.3637   41.6448 H   0  0  0  0  0  0  0  0  0  0  0  0
   44.7840   35.0523   41.4541 H   0  0  0  0  0  0  0  0  0  0  0  0
   43.3489   33.6408   41.4974 H   0  0  0  0  0  0  0  0  0  0  0  0
   42.0130   36.6765   41.6900 H   0  0  0  0  0  0  0  0  0  0  0  0
   39.2769   36.0014   40.9022 H   0  0  0  0  0  0  0  0  0  0  0  0
   40.2407   37.4183   40.4537 H   0  0  0  0  0  0  0  0  0  0  0  0
   41.4491   36.2267   38.8097 H   0  0  0  0  0  0  0  0  0  0  0  0
   39.9545   35.3013   38.7374 H   0  0  0  0  0  0  0  0  0  0  0  0
   40.9467   33.4611   39.8284 H   0  0  0  0  0  0  0  0  0  0  0  0
   42.4961   34.2239   39.4683 H   0  0  0  0  0  0  0  0  0  0  0  0
   41.0784   33.9093   41.9076 H   0  0  0  0  0  0  0  0  0  0  0  0
  1 13  1  0
  1  2  1  0
  2  7  2  0
  3  4  2  0
  3  2  1  0
  4  5  1  0
  5  6  2  0
  6  8  1  0
  7  6  1  0
  8 12  1  0
  9  8  2  0
  9 10  1  0
 10 11  1  0
 12 11  2  0
 14  1  1  0
 15 14  1  0
 17 16  1  0
 18 19  1  0
 18 17  1  0
 19 20  1  0
 20 16  1  0
 20 15  1  0
  1 21  1  1
  3 22  1  0
  4 23  1  0
  9 24  1  0
 11 25  1  0
 13 26  1  0
 13 27  1  0
 13 28  1  0
 14 29  1  0
 14 30  1  0
 15 31  1  0
 16 32  1  0
 17 33  1  0
 17 34  1  0
 18 35  1  0
 18 36  1  0
 19 37  1  0
 19 38  1  0
 20 39  1  1
M  ISO  8  21   8  22  14  23  14  24  14  25  14  26   8  27   8  28   8
M  ISO  8  29   8  30   8  31   5  32   5  33  13  34  13  35  13  36  13
M  ISO  3  37  13  38  13  39  13
M  END
>  <minimizedAffinity>  (1) 
-5.53391218

>  <minimizedRMSD>  (1) 
1.58083236

$$$$
