
     RDKit          3D

 29 30  0  0  1  0  0  0  0  0999 V2000
   45.5000   34.6510   43.8870 C   0  0  0  0  0  0  0  0  0  0  0  0
   46.5240   34.3580   42.9570 C   0  0  0  0  0  0  0  0  0  0  0  0
   47.5030   33.4010   43.2930 C   0  0  0  0  0  0  0  0  0  0  0  0
   47.3970   32.8110   44.5090 N   0  0  0  0  0  0  0  0  0  0  0  0
   46.4330   33.1030   45.3580 C   0  0  0  0  0  0  0  0  0  0  0  0
   45.4680   34.0230   45.0700 N   0  0  0  0  0  0  0  0  0  0  0  0
   46.3050   32.4740   46.6900 C   0  0  0  0  0  0  0  0  0  0  0  0
   47.3470   31.5770   47.0570 C   0  0  0  0  0  0  0  0  0  0  0  0
   46.7630   31.0790   48.7570 S   0  0  0  0  0  0  0  0  0  0  0  0
   45.2310   32.1890   48.6150 C   0  0  0  0  0  0  0  0  0  0  0  0
   45.3810   32.6200   47.6030 N   0  0  0  0  0  0  0  0  0  0  0  0
   44.4780   35.6580   43.5260 C   0  0  1  0  0  0  0  0  0  0  0  0
   45.1120   37.0480   43.5210 C   0  0  0  0  0  0  0  0  0  0  0  0
   43.8680   35.4150   42.1940 C   0  0  0  0  0  0  0  0  0  0  0  0
   42.6040   34.7610   42.2350 N   0  0  0  0  0  0  0  0  0  0  0  0
   41.5030   35.3630   41.5960 C   0  0  0  0  0  0  0  0  0  0  0  0
   40.3290   34.9040   41.5490 O   0  0  0  0  0  0  0  0  0  0  0  0
   46.5563   34.8701   41.9840 H   0  0  0  0  0  0  0  0  0  0  0  0
   48.3170   33.1443   42.5992 H   0  0  0  0  0  0  0  0  0  0  0  0
   48.2417   31.2660   46.4977 H   0  0  0  0  0  0  0  0  0  0  0  0
   44.4182   32.3587   49.3365 H   0  0  0  0  0  0  0  0  0  0  0  0
   43.6801   35.5827   44.2794 H   0  0  0  0  0  0  0  0  0  0  0  0
   45.2656   37.3847   44.5569 H   0  0  0  0  0  0  0  0  0  0  0  0
   46.0806   37.0073   43.0013 H   0  0  0  0  0  0  0  0  0  0  0  0
   44.4463   37.7528   43.0013 H   0  0  0  0  0  0  0  0  0  0  0  0
   44.5590   34.7911   41.6081 H   0  0  0  0  0  0  0  0  0  0  0  0
   43.6948   36.4035   41.7437 H   0  0  0  0  0  0  0  0  0  0  0  0
   42.4965   33.8612   42.7246 H   0  0  0  0  0  0  0  0  0  0  0  0
   41.6836   36.3232   41.0906 H   0  0  0  0  0  0  0  0  0  0  0  0
  1  6  2  0
  2  3  2  0
  2  1  1  0
  3  4  1  0
  4  5  2  0
  5  7  1  0
  6  5  1  0
  7  8  2  0
  7 11  1  0
  8  9  1  0
 10  9  1  0
 11 10  2  0
 12  1  1  0
 13 12  1  0
 14 15  1  0
 14 12  1  0
 16 15  1  0
 17 16  2  0
  2 18  1  0
  3 19  1  0
  8 20  1  0
 10 21  1  0
 12 22  1  1
 13 23  1  0
 13 24  1  0
 13 25  1  0
 14 26  1  0
 14 27  1  0
 15 28  1  0
 16 29  1  0
M  ISO  8  18  14  19  14  20  14  21  14  22   8  23   8  24   8  25   8
M  ISO  3  26   8  27   8  29   6
M  END
>  <minimizedAffinity>  (1) 
-4.69215584

>  <minimizedRMSD>  (1) 
0.839798629

$$$$
