
     RDKit          3D

 30 31  0  0  1  0  0  0  0  0999 V2000
   45.5130   34.6370   43.9270 C   0  0  0  0  0  0  0  0  0  0  0  0
   46.5370   34.3340   43.0040 C   0  0  0  0  0  0  0  0  0  0  0  0
   47.5170   33.3800   43.3320 C   0  0  0  0  0  0  0  0  0  0  0  0
   47.4070   32.7970   44.5590 N   0  0  0  0  0  0  0  0  0  0  0  0
   46.4390   33.1000   45.4070 C   0  0  0  0  0  0  0  0  0  0  0  0
   45.4930   34.0130   45.1010 N   0  0  0  0  0  0  0  0  0  0  0  0
   46.3310   32.4570   46.7360 C   0  0  0  0  0  0  0  0  0  0  0  0
   47.3630   31.5720   47.1120 C   0  0  0  0  0  0  0  0  0  0  0  0
   46.7280   31.0640   48.8060 S   0  0  0  0  0  0  0  0  0  0  0  0
   45.2080   32.1560   48.6400 C   0  0  0  0  0  0  0  0  0  0  0  0
   45.3890   32.5910   47.6280 N   0  0  0  0  0  0  0  0  0  0  0  0
   44.5060   35.6310   43.5480 C   0  0  1  0  0  0  0  0  0  0  0  0
   45.1190   37.0290   43.5370 C   0  0  0  0  0  0  0  0  0  0  0  0
   43.8750   35.3770   42.2280 C   0  0  0  0  0  0  0  0  0  0  0  0
   42.5790   34.8230   42.2650 N   0  0  0  0  0  0  0  0  0  0  0  0
   41.5330   35.4230   41.5420 C   0  0  0  0  0  0  0  0  0  0  0  0
   46.5685   34.8433   42.0295 H   0  0  0  0  0  0  0  0  0  0  0  0
   48.3279   33.1187   42.6362 H   0  0  0  0  0  0  0  0  0  0  0  0
   48.2722   31.2685   46.5723 H   0  0  0  0  0  0  0  0  0  0  0  0
   44.3762   32.3200   49.3408 H   0  0  0  0  0  0  0  0  0  0  0  0
   43.7144   35.5521   44.3077 H   0  0  0  0  0  0  0  0  0  0  0  0
   45.2692   37.3716   44.5714 H   0  0  0  0  0  0  0  0  0  0  0  0
   46.0873   37.0007   43.0158 H   0  0  0  0  0  0  0  0  0  0  0  0
   44.4422   37.7220   43.0158 H   0  0  0  0  0  0  0  0  0  0  0  0
   44.5229   34.6836   41.6718 H   0  0  0  0  0  0  0  0  0  0  0  0
   43.7653   36.3635   41.7540 H   0  0  0  0  0  0  0  0  0  0  0  0
   42.6602   33.8554   41.9213 H   0  0  0  0  0  0  0  0  0  0  0  0
   40.7976   35.8448   42.2429 H   0  0  0  0  0  0  0  0  0  0  0  0
   41.9384   36.2259   40.9087 H   0  0  0  0  0  0  0  0  0  0  0  0
   41.0446   34.6677   40.9087 H   0  0  0  0  0  0  0  0  0  0  0  0
  1  6  2  0
  2  3  2  0
  2  1  1  0
  3  4  1  0
  4  5  2  0
  5  7  1  0
  6  5  1  0
  7  8  2  0
  7 11  1  0
  8  9  1  0
 10  9  1  0
 11 10  2  0
 12  1  1  0
 13 12  1  0
 14 15  1  0
 14 12  1  0
 16 15  1  0
  2 17  1  0
  3 18  1  0
  8 19  1  0
 10 20  1  0
 12 21  1  1
 13 22  1  0
 13 23  1  0
 13 24  1  0
 14 25  1  0
 14 26  1  0
 15 27  1  0
 16 28  1  0
 16 29  1  0
 16 30  1  0
M  ISO  8  17  14  18  14  19  14  20  14  21   8  22   8  23   8  24   8
M  ISO  6  25   8  26   8  27   5  28   8  29   8  30   8
M  END
>  <minimizedAffinity>  (1) 
-4.38334751

>  <minimizedRMSD>  (1) 
0.539717972

$$$$
