
     RDKit          3D

 34 36  0  0  1  0  0  0  0  0999 V2000
   45.4900   34.6340   43.8090 C   0  0  0  0  0  0  0  0  0  0  0  0
   46.5150   34.3290   42.8940 C   0  0  0  0  0  0  0  0  0  0  0  0
   47.4940   33.3870   43.2350 C   0  0  0  0  0  0  0  0  0  0  0  0
   47.3880   32.8140   44.4610 N   0  0  0  0  0  0  0  0  0  0  0  0
   46.4240   33.1080   45.3030 C   0  0  0  0  0  0  0  0  0  0  0  0
   45.4750   34.0100   44.9940 N   0  0  0  0  0  0  0  0  0  0  0  0
   46.3050   32.4900   46.6430 C   0  0  0  0  0  0  0  0  0  0  0  0
   47.3260   31.5800   47.0190 C   0  0  0  0  0  0  0  0  0  0  0  0
   46.7470   31.1030   48.7250 S   0  0  0  0  0  0  0  0  0  0  0  0
   45.2460   32.2300   48.5810 C   0  0  0  0  0  0  0  0  0  0  0  0
   45.3870   32.6560   47.5660 N   0  0  0  0  0  0  0  0  0  0  0  0
   44.4570   35.6350   43.4330 C   0  0  1  0  0  0  0  0  0  0  0  0
   45.0450   37.0290   43.4960 C   0  0  0  0  0  0  0  0  0  0  0  0
   43.9130   35.3710   42.0700 C   0  0  0  0  0  0  0  0  0  0  0  0
   42.6580   34.7750   42.0550 N   0  0  0  0  0  0  0  0  0  0  0  0
   41.5010   35.4450   41.6500 C   0  0  0  0  0  0  0  0  0  0  0  0
   40.2650   34.4910   41.5260 C   0  0  0  0  0  0  0  0  0  0  0  0
   40.7570   35.3250   40.4040 C   0  0  0  0  0  0  0  0  0  0  0  0
   46.5472   34.8286   41.9145 H   0  0  0  0  0  0  0  0  0  0  0  0
   48.3083   33.1246   42.5436 H   0  0  0  0  0  0  0  0  0  0  0  0
   48.2129   31.2481   46.4593 H   0  0  0  0  0  0  0  0  0  0  0  0
   44.4429   32.4166   49.3091 H   0  0  0  0  0  0  0  0  0  0  0  0
   43.6263   35.5537   44.1495 H   0  0  0  0  0  0  0  0  0  0  0  0
   45.1706   37.3268   44.5474 H   0  0  0  0  0  0  0  0  0  0  0  0
   46.0233   37.0374   42.9932 H   0  0  0  0  0  0  0  0  0  0  0  0
   44.3682   37.7355   42.9932 H   0  0  0  0  0  0  0  0  0  0  0  0
   43.8440   36.3303   41.5361 H   0  0  0  0  0  0  0  0  0  0  0  0
   44.6022   34.6601   41.5909 H   0  0  0  0  0  0  0  0  0  0  0  0
   42.7412   33.9545   41.4379 H   0  0  0  0  0  0  0  0  0  0  0  0
   41.8671   36.3536   42.1504 H   0  0  0  0  0  0  0  0  0  0  0  0
   40.4015   33.3996   41.5119 H   0  0  0  0  0  0  0  0  0  0  0  0
   39.3106   34.3533   42.0554 H   0  0  0  0  0  0  0  0  0  0  0  0
   41.2314   34.8373   39.5397 H   0  0  0  0  0  0  0  0  0  0  0  0
   40.2712   36.0603   39.7457 H   0  0  0  0  0  0  0  0  0  0  0  0
  1  6  2  0
  2  3  2  0
  2  1  1  0
  3  4  1  0
  4  5  2  0
  5  7  1  0
  6  5  1  0
  7  8  2  0
  7 11  1  0
  8  9  1  0
 10  9  1  0
 11 10  2  0
 12 13  1  0
 12  1  1  0
 14 12  1  0
 15 14  1  0
 16 15  1  0
 17 16  1  0
 18 17  1  0
 18 16  1  0
  2 19  1  0
  3 20  1  0
  8 21  1  0
 10 22  1  0
 12 23  1  1
 13 24  1  0
 13 25  1  0
 13 26  1  0
 14 27  1  0
 14 28  1  0
 15 29  1  0
 16 30  1  0
 17 31  1  0
 17 32  1  0
 18 33  1  0
 18 34  1  0
M  ISO  8  19  14  20  14  21  14  22  14  23   8  24   8  25   8  26   8
M  ISO  8  27   8  28   8  29   5  30  13  31  13  32  13  33  13  34  13
M  END
>  <minimizedAffinity>  (1) 
-4.82437372

>  <minimizedRMSD>  (1) 
0.929709792

$$$$
