
     RDKit          3D

 30 31  0  0  1  0  0  0  0  0999 V2000
   45.4430   34.6420   44.0410 C   0  0  0  0  0  0  0  0  0  0  0  0
   46.5940   34.4350   43.2250 C   0  0  0  0  0  0  0  0  0  0  0  0
   47.5450   33.4640   43.5780 C   0  0  0  0  0  0  0  0  0  0  0  0
   47.2970   32.7620   44.7130 N   0  0  0  0  0  0  0  0  0  0  0  0
   46.2150   32.9660   45.4670 C   0  0  0  0  0  0  0  0  0  0  0  0
   45.2820   33.9000   45.1450 N   0  0  0  0  0  0  0  0  0  0  0  0
   45.9740   32.1880   46.6880 C   0  0  0  0  0  0  0  0  0  0  0  0
   45.8110   30.7970   46.5690 C   0  0  0  0  0  0  0  0  0  0  0  0
   45.5330   30.3440   48.3690 S   0  0  0  0  0  0  0  0  0  0  0  0
   45.6980   32.1550   48.9090 C   0  0  0  0  0  0  0  0  0  0  0  0
   45.8790   32.6250   47.9200 N   0  0  0  0  0  0  0  0  0  0  0  0
   44.4690   35.6670   43.6410 C   0  0  1  0  0  0  0  0  0  0  0  0
   45.1940   36.9820   43.3700 C   0  0  0  0  0  0  0  0  0  0  0  0
   43.6870   35.2940   42.4360 C   0  0  0  0  0  0  0  0  0  0  0  0
   42.2950   35.6210   42.5400 N   0  0  0  0  0  0  0  0  0  0  0  0
   41.5460   35.5200   41.3410 C   0  0  0  0  0  0  0  0  0  0  0  0
   40.6860   36.6240   41.2810 F   0  0  0  0  0  0  0  0  0  0  0  0
   40.6780   34.4270   41.4820 F   0  0  0  0  0  0  0  0  0  0  0  0
   42.2890   35.4410   40.1970 F   0  0  0  0  0  0  0  0  0  0  0  0
   46.7373   35.0379   42.3162 H   0  0  0  0  0  0  0  0  0  0  0  0
   48.4421   33.2821   42.9680 H   0  0  0  0  0  0  0  0  0  0  0  0
   45.8385   30.1563   45.6753 H   0  0  0  0  0  0  0  0  0  0  0  0
   45.6332   32.6071   49.9097 H   0  0  0  0  0  0  0  0  0  0  0  0
   43.7587   35.7682   44.4748 H   0  0  0  0  0  0  0  0  0  0  0  0
   45.4571   37.4593   44.3255 H   0  0  0  0  0  0  0  0  0  0  0  0
   46.1103   36.7837   42.7946 H   0  0  0  0  0  0  0  0  0  0  0  0
   44.5372   37.6510   42.7946 H   0  0  0  0  0  0  0  0  0  0  0  0
   43.7802   34.2089   42.2813 H   0  0  0  0  0  0  0  0  0  0  0  0
   44.0948   35.8694   41.5918 H   0  0  0  0  0  0  0  0  0  0  0  0
   41.8719   34.9854   43.2313 H   0  0  0  0  0  0  0  0  0  0  0  0
  1  6  2  0
  2  3  2  0
  2  1  1  0
  3  4  1  0
  4  5  2  0
  5  7  1  0
  6  5  1  0
  7 11  1  0
  8  7  2  0
  8  9  1  0
  9 10  1  0
 11 10  2  0
 12  1  1  0
 13 12  1  0
 14 15  1  0
 14 12  1  0
 16 18  1  0
 16 15  1  0
 17 16  1  0
 19 16  1  0
  2 20  1  0
  3 21  1  0
  8 22  1  0
 10 23  1  0
 12 24  1  1
 13 25  1  0
 13 26  1  0
 13 27  1  0
 14 28  1  0
 14 29  1  0
 15 30  1  0
M  ISO  8  20  14  21  14  22  14  23  14  24   8  25   8  26   8  27   8
M  ISO  3  28   8  29   8  30   5
M  END
>  <minimizedAffinity>  (1) 
-5.34373045

>  <minimizedRMSD>  (1) 
1.25886786

$$$$
