
     RDKit          3D

 35 37  0  0  1  0  0  0  0  0999 V2000
   43.5980   34.3560   41.8370 C   0  0  1  0  0  0  0  0  0  0  0  0
   44.8880   34.2000   42.5430 C   0  0  0  0  0  0  0  0  0  0  0  0
   46.0680   34.6980   41.9350 C   0  0  0  0  0  0  0  0  0  0  0  0
   47.3130   34.5670   42.5760 C   0  0  0  0  0  0  0  0  0  0  0  0
   47.3050   33.9480   43.7800 N   0  0  0  0  0  0  0  0  0  0  0  0
   46.1930   33.4850   44.3420 C   0  0  0  0  0  0  0  0  0  0  0  0
   44.9660   33.5980   43.7440 N   0  0  0  0  0  0  0  0  0  0  0  0
   46.2140   32.8150   45.6570 C   0  0  0  0  0  0  0  0  0  0  0  0
   47.0770   31.7340   45.8290 C   0  0  0  0  0  0  0  0  0  0  0  0
   46.6970   31.2880   47.6160 S   0  0  0  0  0  0  0  0  0  0  0  0
   45.4300   32.6860   47.7390 C   0  0  0  0  0  0  0  0  0  0  0  0
   45.5210   33.0870   46.7180 N   0  0  0  0  0  0  0  0  0  0  0  0
   43.4470   35.7780   41.3680 C   0  0  0  0  0  0  0  0  0  0  0  0
   43.4730   33.4190   40.6800 C   0  0  0  0  0  0  0  0  0  0  0  0
   42.2260   33.5090   39.9980 N   0  0  0  0  0  0  0  0  0  0  0  0
   40.8430   33.2590   40.3100 C   0  0  0  0  0  0  0  0  0  0  0  0
   39.9230   34.1560   40.7130 N   0  0  0  0  0  0  0  0  0  0  0  0
   38.7960   33.5740   40.8980 O   0  0  0  0  0  0  0  0  0  0  0  0
   38.8930   32.2830   40.6360 C   0  0  0  0  0  0  0  0  0  0  0  0
   40.1880   32.0670   40.2610 N   0  0  0  0  0  0  0  0  0  0  0  0
   42.2530   33.8110   38.6320 C   0  0  0  0  0  0  0  0  0  0  0  0
   41.6800   35.0340   38.3720 F   0  0  0  0  0  0  0  0  0  0  0  0
   41.4100   32.8620   38.0070 F   0  0  0  0  0  0  0  0  0  0  0  0
   43.5080   33.7600   38.0570 F   0  0  0  0  0  0  0  0  0  0  0  0
   42.7951   34.1084   42.5469 H   0  0  0  0  0  0  0  0  0  0  0  0
   46.0093   35.1911   40.9535 H   0  0  0  0  0  0  0  0  0  0  0  0
   48.2415   34.9463   42.1243 H   0  0  0  0  0  0  0  0  0  0  0  0
   47.7807   31.2727   45.1205 H   0  0  0  0  0  0  0  0  0  0  0  0
   44.7935   33.0031   48.5783 H   0  0  0  0  0  0  0  0  0  0  0  0
   43.3761   36.4458   42.2392 H   0  0  0  0  0  0  0  0  0  0  0  0
   44.3204   36.0586   40.7610 H   0  0  0  0  0  0  0  0  0  0  0  0
   42.5342   35.8689   40.7610 H   0  0  0  0  0  0  0  0  0  0  0  0
   44.2768   33.6438   39.9636 H   0  0  0  0  0  0  0  0  0  0  0  0
   43.5427   32.3989   41.0856 H   0  0  0  0  0  0  0  0  0  0  0  0
   38.0916   31.5327   40.7059 H   0  0  0  0  0  0  0  0  0  0  0  0
  1  2  1  0
  2  7  1  0
  3  2  2  0
  3  4  1  0
  4  5  2  0
  5  6  1  0
  6  8  1  0
  7  6  2  0
  8  9  2  0
  8 12  1  0
  9 10  1  0
 10 11  1  0
 12 11  2  0
 13  1  1  0
 14  1  1  0
 15 16  1  0
 15 14  1  0
 16 17  2  0
 17 18  1  0
 19 18  1  0
 20 16  1  0
 20 19  2  0
 21 15  1  0
 22 21  1  0
 23 21  1  0
 24 21  1  0
  1 25  1  1
  3 26  1  0
  4 27  1  0
  9 28  1  0
 11 29  1  0
 13 30  1  0
 13 31  1  0
 13 32  1  0
 14 33  1  0
 14 34  1  0
 19 35  1  0
M  ISO  8  25   8  26  14  27  14  28  14  29  14  30   8  31   8  32   8
M  ISO  3  33   8  34   8  35  14
M  END
>  <minimizedAffinity>  (1) 
-5.26761103

>  <minimizedRMSD>  (1) 
3.07733274

$$$$
