
     RDKit          3D

 26 27  0  0  0  0  0  0  0  0999 V2000
   45.8660   34.4390   41.1450 C   0  0  0  0  0  0  0  0  0  0  0  0
   47.1390   34.8210   41.5830 C   0  0  0  0  0  0  0  0  0  0  0  0
   48.2470   34.4730   40.7840 C   0  0  0  0  0  0  0  0  0  0  0  0
   48.0110   33.7830   39.6290 N   0  0  0  0  0  0  0  0  0  0  0  0
   46.7520   33.4360   39.2490 C   0  0  0  0  0  0  0  0  0  0  0  0
   45.7230   33.7710   40.0120 N   0  0  0  0  0  0  0  0  0  0  0  0
   46.6220   32.6960   37.9870 C   0  0  0  0  0  0  0  0  0  0  0  0
   47.4720   31.6260   37.7410 C   0  0  0  0  0  0  0  0  0  0  0  0
   47.3500   30.9280   36.5540 C   0  0  0  0  0  0  0  0  0  0  0  0
   46.3730   31.3530   35.6780 C   0  0  0  0  0  0  0  0  0  0  0  0
   45.5150   32.4120   35.8950 C   0  0  0  0  0  0  0  0  0  0  0  0
   45.6540   33.1030   37.0980 C   0  0  0  0  0  0  0  0  0  0  0  0
   44.7300   34.8010   41.9740 C   0  0  0  0  0  0  0  0  0  0  0  0
   43.8620   35.6030   41.4990 O   0  0  0  0  0  0  0  0  0  0  0  0
   44.6380   34.2510   43.2650 O   0  0  0  0  0  0  0  0  0  0  0  0
   45.1610   34.9980   44.3400 C   0  0  0  0  0  0  0  0  0  0  0  0
   44.2710   35.0680   45.4110 F   0  0  0  0  0  0  0  0  0  0  0  0
   46.3400   34.4530   44.7850 F   0  0  0  0  0  0  0  0  0  0  0  0
   45.3600   36.2850   43.8730 F   0  0  0  0  0  0  0  0  0  0  0  0
   47.2712   35.3765   42.5232 H   0  0  0  0  0  0  0  0  0  0  0  0
   49.2696   34.7485   41.0813 H   0  0  0  0  0  0  0  0  0  0  0  0
   48.2328   31.3374   38.4812 H   0  0  0  0  0  0  0  0  0  0  0  0
   48.0017   30.0735   36.3191 H   0  0  0  0  0  0  0  0  0  0  0  0
   46.2694   30.8039   34.7305 H   0  0  0  0  0  0  0  0  0  0  0  0
   44.7557   32.6980   35.1523 H   0  0  0  0  0  0  0  0  0  0  0  0
   45.0020   33.9575   37.3319 H   0  0  0  0  0  0  0  0  0  0  0  0
  1  2  2  0
  1 13  1  0
  3  2  1  0
  4  3  2  0
  5  4  1  0
  5  6  2  0
  6  1  1  0
  7  5  1  0
  8  7  2  0
  9  8  1  0
 10 11  1  0
 10  9  2  0
 11 12  2  0
 12  7  1  0
 13 15  1  0
 14 13  2  0
 15 16  1  0
 16 18  1  0
 16 17  1  0
 19 16  1  0
  2 20  1  0
  3 21  1  0
  8 22  1  0
  9 23  1  0
 10 24  1  0
 11 25  1  0
 12 26  1  0
M  ISO  7  20  14  21  14  22  14  23  14  24  14  25  14  26  14
M  END
>  <minimizedAffinity>  (1) 
-4.18471432

>  <minimizedRMSD>  (1) 
0.697468877

$$$$
