
     RDKit          3D

 45 48  0  0  1  0  0  0  0  0999 V2000
   43.1360   35.1090   42.3670 C   0  0  0  0  0  0  0  0  0  0  0  0
   42.8930   34.2350   41.1960 C   0  0  1  0  0  0  0  0  0  0  0  0
   41.4620   34.0300   40.9320 C   0  0  0  0  0  0  0  0  0  0  0  0
   40.7170   35.0910   40.3290 C   0  0  0  0  0  0  0  0  0  0  0  0
   39.3500   34.9350   40.0570 C   0  0  0  0  0  0  0  0  0  0  0  0
   38.8020   33.7480   40.3950 N   0  0  0  0  0  0  0  0  0  0  0  0
   39.5110   32.7620   40.9600 C   0  0  0  0  0  0  0  0  0  0  0  0
   40.8370   32.8860   41.2340 N   0  0  0  0  0  0  0  0  0  0  0  0
   38.8730   31.4880   41.3080 C   0  0  0  0  0  0  0  0  0  0  0  0
   39.6880   30.4980   41.8910 C   0  0  0  0  0  0  0  0  0  0  0  0
   38.4320   29.1240   42.1310 S   0  0  0  0  0  0  0  0  0  0  0  0
   37.0630   30.1800   41.3900 C   0  0  0  0  0  0  0  0  0  0  0  0
   37.6360   31.1050   41.1640 N   0  0  0  0  0  0  0  0  0  0  0  0
   43.5650   34.8080   39.9680 C   0  0  0  0  0  0  0  0  0  0  0  0
   44.4470   35.1080   42.8900 N   0  0  0  0  0  0  0  0  0  0  0  0
   45.3620   34.1040   43.3230 C   0  0  0  0  0  0  0  0  0  0  0  0
   46.1820   33.4960   42.3990 C   0  0  0  0  0  0  0  0  0  0  0  0
   47.0880   32.5150   42.7580 C   0  0  0  0  0  0  0  0  0  0  0  0
   47.1260   32.1870   44.0510 N   0  0  0  0  0  0  0  0  0  0  0  0
   46.3130   32.7900   44.9650 C   0  0  0  0  0  0  0  0  0  0  0  0
   45.4330   33.7410   44.6240 N   0  0  0  0  0  0  0  0  0  0  0  0
   46.4330   32.3580   46.3560 C   0  0  0  0  0  0  0  0  0  0  0  0
   45.8070   31.2490   46.9090 C   0  0  0  0  0  0  0  0  0  0  0  0
   46.2010   31.2440   48.1890 N   0  0  0  0  0  0  0  0  0  0  0  0
   47.0230   32.2800   48.4360 C   0  0  0  0  0  0  0  0  0  0  0  0
   47.1680   32.9730   47.2970 N   0  0  0  0  0  0  0  0  0  0  0  0
   45.1170   36.3280   43.0810 C   0  0  0  0  0  0  0  0  0  0  0  0
   46.4660   36.1940   42.8960 F   0  0  0  0  0  0  0  0  0  0  0  0
   44.9490   36.5950   44.4750 F   0  0  0  0  0  0  0  0  0  0  0  0
   44.6200   37.3880   42.3740 F   0  0  0  0  0  0  0  0  0  0  0  0
   42.4552   34.7897   43.1699 H   0  0  0  0  0  0  0  0  0  0  0  0
   42.9662   36.1343   42.0064 H   0  0  0  0  0  0  0  0  0  0  0  0
   43.3261   33.2523   41.4341 H   0  0  0  0  0  0  0  0  0  0  0  0
   41.2196   36.0364   40.0766 H   0  0  0  0  0  0  0  0  0  0  0  0
   38.7562   35.7365   39.5933 H   0  0  0  0  0  0  0  0  0  0  0  0
   40.7599   30.5231   42.1367 H   0  0  0  0  0  0  0  0  0  0  0  0
   36.0001   29.9484   41.2271 H   0  0  0  0  0  0  0  0  0  0  0  0
   44.3686   35.4932   40.2758 H   0  0  0  0  0  0  0  0  0  0  0  0
   43.9903   33.9903   39.3676 H   0  0  0  0  0  0  0  0  0  0  0  0
   42.8248   35.3572   39.3676 H   0  0  0  0  0  0  0  0  0  0  0  0
   46.1144   33.7997   41.3439 H   0  0  0  0  0  0  0  0  0  0  0  0
   47.7421   32.0311   42.0177 H   0  0  0  0  0  0  0  0  0  0  0  0
   45.1374   30.5344   46.4080 H   0  0  0  0  0  0  0  0  0  0  0  0
   47.4932   32.5169   49.4018 H   0  0  0  0  0  0  0  0  0  0  0  0
   47.7382   33.8210   47.1676 H   0  0  0  0  0  0  0  0  0  0  0  0
  1 15  1  0
  2  1  1  0
  3  2  1  0
  3  8  1  0
  4  3  2  0
  5  4  1  0
  5  6  2  0
  6  7  1  0
  7  8  2  0
  7  9  1  0
  9 10  2  0
 10 11  1  0
 12 11  1  0
 13  9  1  0
 13 12  2  0
 14  2  1  0
 15 27  1  0
 15 16  1  0
 16 21  2  0
 17 18  2  0
 17 16  1  0
 18 19  1  0
 19 20  2  0
 20 22  1  0
 21 20  1  0
 22 23  2  0
 22 26  1  0
 23 24  1  0
 24 25  2  0
 26 25  1  0
 27 29  1  0
 28 27  1  0
 30 27  1  0
  1 31  1  0
  1 32  1  0
  2 33  1  1
  4 34  1  0
  5 35  1  0
 10 36  1  0
 12 37  1  0
 14 38  1  0
 14 39  1  0
 14 40  1  0
 17 41  1  0
 18 42  1  0
 23 43  1  0
 25 44  1  0
 26 45  1  0
M  ISO  8  31   8  32   8  33   8  34  14  35  14  36  14  37  14  38   8
M  ISO  7  39   8  40   8  41  14  42  14  43  14  44  14  45   9
M  END
>  <minimizedAffinity>  (1) 
-6.39706612

>  <minimizedRMSD>  (1) 
1.77883732

$$$$
