
     RDKit          3D

 44 47  0  0  1  0  0  0  0  0999 V2000
   43.5310   33.4790   41.2690 C   0  0  1  0  0  0  0  0  0  0  0  0
   42.0590   33.5670   41.1870 C   0  0  0  0  0  0  0  0  0  0  0  0
   41.4620   34.8290   40.9020 C   0  0  0  0  0  0  0  0  0  0  0  0
   40.0650   34.9420   40.8140 C   0  0  0  0  0  0  0  0  0  0  0  0
   39.3510   33.8110   41.0090 N   0  0  0  0  0  0  0  0  0  0  0  0
   39.9290   32.6430   41.2730 C   0  0  0  0  0  0  0  0  0  0  0  0
   41.2770   32.4970   41.3660 N   0  0  0  0  0  0  0  0  0  0  0  0
   39.1260   31.4190   41.4820 C   0  0  0  0  0  0  0  0  0  0  0  0
   39.7440   30.3130   42.0590 C   0  0  0  0  0  0  0  0  0  0  0  0
   38.3190   29.0960   42.0890 S   0  0  0  0  0  0  0  0  0  0  0  0
   37.1630   30.3600   41.3000 C   0  0  0  0  0  0  0  0  0  0  0  0
   37.8580   31.2290   41.1850 N   0  0  0  0  0  0  0  0  0  0  0  0
   44.1320   33.7720   39.9180 C   0  0  0  0  0  0  0  0  0  0  0  0
   44.0950   34.3880   42.2930 C   0  0  0  0  0  0  0  0  0  0  0  0
   45.3690   34.0490   42.7970 N   0  0  0  0  0  0  0  0  0  0  0  0
   45.9020   32.9590   43.5480 C   0  0  0  0  0  0  0  0  0  0  0  0
   46.5880   31.9630   42.8880 C   0  0  0  0  0  0  0  0  0  0  0  0
   47.1250   30.8800   43.5570 C   0  0  0  0  0  0  0  0  0  0  0  0
   46.9410   30.8520   44.8860 N   0  0  0  0  0  0  0  0  0  0  0  0
   46.2680   31.8300   45.5240 C   0  0  0  0  0  0  0  0  0  0  0  0
   45.7370   32.8960   44.8890 N   0  0  0  0  0  0  0  0  0  0  0  0
   46.0830   31.7820   46.9350 N   0  0  0  0  0  0  0  0  0  0  0  0
   46.5790   30.7170   47.6320 C   0  0  0  0  0  0  0  0  0  0  0  0
   46.2920   30.8740   48.9560 N   0  0  0  0  0  0  0  0  0  0  0  0
   45.6200   32.0380   49.0590 C   0  0  0  0  0  0  0  0  0  0  0  0
   45.4980   32.5830   47.8250 N   0  0  0  0  0  0  0  0  0  0  0  0
   46.4510   34.9160   42.5810 C   0  0  0  0  0  0  0  0  0  0  0  0
   47.4510   34.7060   43.4900 F   0  0  0  0  0  0  0  0  0  0  0  0
   45.9230   36.2090   42.8850 F   0  0  0  0  0  0  0  0  0  0  0  0
   46.9440   34.9350   41.3060 F   0  0  0  0  0  0  0  0  0  0  0  0
   43.7874   32.4544   41.5763 H   0  0  0  0  0  0  0  0  0  0  0  0
   42.0958   35.7153   40.7508 H   0  0  0  0  0  0  0  0  0  0  0  0
   39.5761   35.9032   40.5971 H   0  0  0  0  0  0  0  0  0  0  0  0
   40.7816   30.1880   42.4023 H   0  0  0  0  0  0  0  0  0  0  0  0
   36.1010   30.2683   41.0285 H   0  0  0  0  0  0  0  0  0  0  0  0
   45.1137   34.2506   40.0494 H   0  0  0  0  0  0  0  0  0  0  0  0
   44.2540   32.8323   39.3594 H   0  0  0  0  0  0  0  0  0  0  0  0
   43.4669   34.4469   39.3594 H   0  0  0  0  0  0  0  0  0  0  0  0
   44.1670   35.3911   41.8474 H   0  0  0  0  0  0  0  0  0  0  0  0
   43.4122   34.3207   43.1528 H   0  0  0  0  0  0  0  0  0  0  0  0
   46.7117   32.0320   41.7972 H   0  0  0  0  0  0  0  0  0  0  0  0
   47.6728   30.0851   43.0297 H   0  0  0  0  0  0  0  0  0  0  0  0
   47.1237   29.8673   47.1946 H   0  0  0  0  0  0  0  0  0  0  0  0
   45.2340   32.4738   49.9923 H   0  0  0  0  0  0  0  0  0  0  0  0
  1 14  1  0
  2  1  1  0
  2  7  1  0
  3  2  2  0
  4  3  1  0
  4  5  2  0
  5  6  1  0
  6  7  2  0
  6  8  1  0
  8  9  2  0
  9 10  1  0
 11 10  1  0
 12 11  2  0
 12  8  1  0
 13  1  1  0
 14 15  1  0
 15 16  1  0
 16 21  1  0
 17 16  2  0
 17 18  1  0
 18 19  2  0
 19 20  1  0
 20 22  1  0
 21 20  2  0
 22 23  1  0
 22 26  1  0
 23 24  2  0
 24 25  1  0
 26 25  2  0
 27 15  1  0
 27 29  1  0
 27 28  1  0
 30 27  1  0
  1 31  1  1
  3 32  1  0
  4 33  1  0
  9 34  1  0
 11 35  1  0
 13 36  1  0
 13 37  1  0
 13 38  1  0
 14 39  1  0
 14 40  1  0
 17 41  1  0
 18 42  1  0
 23 43  1  0
 25 44  1  0
M  ISO  8  31   8  32  14  33  14  34  14  35  14  36   8  37   8  38   8
M  ISO  6  39   8  40   8  41  14  42  14  43  14  44  14
M  END
>  <minimizedAffinity>  (1) 
-6.30629253

>  <minimizedRMSD>  (1) 
1.36834073

$$$$
