
     RDKit          3D

 45 48  0  0  1  0  0  0  0  0999 V2000
   44.3510   34.4060   42.3700 C   0  0  0  0  0  0  0  0  0  0  0  0
   43.7500   33.4560   41.4040 C   0  0  1  0  0  0  0  0  0  0  0  0
   42.2860   33.5760   41.3320 C   0  0  0  0  0  0  0  0  0  0  0  0
   41.7140   34.8680   41.1160 C   0  0  0  0  0  0  0  0  0  0  0  0
   40.3210   35.0280   41.0370 C   0  0  0  0  0  0  0  0  0  0  0  0
   39.5830   33.9070   41.1770 N   0  0  0  0  0  0  0  0  0  0  0  0
   40.1280   32.7120   41.3770 C   0  0  0  0  0  0  0  0  0  0  0  0
   41.4720   32.5250   41.4580 N   0  0  0  0  0  0  0  0  0  0  0  0
   39.2990   31.4970   41.5220 C   0  0  0  0  0  0  0  0  0  0  0  0
   39.8750   30.3640   42.0870 C   0  0  0  0  0  0  0  0  0  0  0  0
   38.4290   29.1740   42.0260 S   0  0  0  0  0  0  0  0  0  0  0  0
   37.3250   30.4790   41.2340 C   0  0  0  0  0  0  0  0  0  0  0  0
   38.0410   31.3360   41.1750 N   0  0  0  0  0  0  0  0  0  0  0  0
   44.3460   33.6570   40.0330 C   0  0  0  0  0  0  0  0  0  0  0  0
   45.6490   34.0940   42.8290 N   0  0  0  0  0  0  0  0  0  0  0  0
   46.2200   33.0500   43.6170 C   0  0  0  0  0  0  0  0  0  0  0  0
   46.9430   32.0560   43.0020 C   0  0  0  0  0  0  0  0  0  0  0  0
   47.5170   31.0200   43.7040 C   0  0  0  0  0  0  0  0  0  0  0  0
   47.3330   31.0350   45.0300 N   0  0  0  0  0  0  0  0  0  0  0  0
   46.6240   32.0090   45.6340 C   0  0  0  0  0  0  0  0  0  0  0  0
   46.0560   33.0290   44.9610 N   0  0  0  0  0  0  0  0  0  0  0  0
   46.4760   31.9380   47.0940 C   0  0  0  0  0  0  0  0  0  0  0  0
   45.4000   32.3730   47.8410 C   0  0  0  0  0  0  0  0  0  0  0  0
   45.7250   32.0940   49.1560 C   0  0  0  0  0  0  0  0  0  0  0  0
   46.9460   31.5150   49.1980 N   0  0  0  0  0  0  0  0  0  0  0  0
   47.3890   31.4270   47.9390 N   0  0  0  0  0  0  0  0  0  0  0  0
   46.7210   34.9410   42.5020 C   0  0  0  0  0  0  0  0  0  0  0  0
   47.7720   34.7750   43.3570 F   0  0  0  0  0  0  0  0  0  0  0  0
   46.2130   36.2510   42.7600 F   0  0  0  0  0  0  0  0  0  0  0  0
   47.1360   34.8870   41.2000 F   0  0  0  0  0  0  0  0  0  0  0  0
   43.6886   34.4564   43.2467 H   0  0  0  0  0  0  0  0  0  0  0  0
   44.4535   35.3549   41.8230 H   0  0  0  0  0  0  0  0  0  0  0  0
   43.9806   32.4433   41.7663 H   0  0  0  0  0  0  0  0  0  0  0  0
   42.3704   35.7444   41.0108 H   0  0  0  0  0  0  0  0  0  0  0  0
   39.8577   36.0116   40.8704 H   0  0  0  0  0  0  0  0  0  0  0  0
   40.8964   30.2094   42.4649 H   0  0  0  0  0  0  0  0  0  0  0  0
   36.2731   30.4158   40.9186 H   0  0  0  0  0  0  0  0  0  0  0  0
   45.3841   34.0071   40.1322 H   0  0  0  0  0  0  0  0  0  0  0  0
   44.3313   32.7042   39.4835 H   0  0  0  0  0  0  0  0  0  0  0  0
   43.7573   34.4063   39.4835 H   0  0  0  0  0  0  0  0  0  0  0  0
   47.0675   32.0894   41.9096 H   0  0  0  0  0  0  0  0  0  0  0  0
   48.0928   30.2267   43.2048 H   0  0  0  0  0  0  0  0  0  0  0  0
   44.4777   32.8429   47.4687 H   0  0  0  0  0  0  0  0  0  0  0  0
   45.0910   32.3090   50.0288 H   0  0  0  0  0  0  0  0  0  0  0  0
   47.4432   31.1999   50.0432 H   0  0  0  0  0  0  0  0  0  0  0  0
  1 15  1  0
  2  1  1  0
  3  2  1  0
  3  8  1  0
  4  3  2  0
  5  4  1  0
  5  6  2  0
  6  7  1  0
  7  8  2  0
  7  9  1  0
  9 10  2  0
 11 10  1  0
 12 11  1  0
 13 12  2  0
 13  9  1  0
 14  2  1  0
 15 16  1  0
 16 21  1  0
 17 16  2  0
 17 18  1  0
 18 19  2  0
 19 20  1  0
 20 22  1  0
 21 20  2  0
 22 23  1  0
 22 26  2  0
 23 24  2  0
 24 25  1  0
 26 25  1  0
 27 29  1  0
 27 15  1  0
 27 28  1  0
 30 27  1  0
  1 31  1  0
  1 32  1  0
  2 33  1  1
  4 34  1  0
  5 35  1  0
 10 36  1  0
 12 37  1  0
 14 38  1  0
 14 39  1  0
 14 40  1  0
 17 41  1  0
 18 42  1  0
 23 43  1  0
 24 44  1  0
 25 45  1  0
M  ISO  8  31   8  32   8  33   8  34  14  35  14  36  14  37  14  38   8
M  ISO  7  39   8  40   8  41  14  42  14  43  14  44  14  45   9
M  END
>  <minimizedAffinity>  (1) 
-6.32233047

>  <minimizedRMSD>  (1) 
1.3468852

$$$$
