
     RDKit          3D

 41 43  0  0  1  0  0  0  0  0999 V2000
   43.4940   33.5450   41.2550 C   0  0  1  0  0  0  0  0  0  0  0  0
   42.0260   33.6000   41.1650 C   0  0  0  0  0  0  0  0  0  0  0  0
   41.4120   34.8560   40.8560 C   0  0  0  0  0  0  0  0  0  0  0  0
   40.0160   34.9490   40.7580 C   0  0  0  0  0  0  0  0  0  0  0  0
   39.3170   33.8120   40.9670 N   0  0  0  0  0  0  0  0  0  0  0  0
   39.9030   32.6580   41.2520 C   0  0  0  0  0  0  0  0  0  0  0  0
   41.2520   32.5310   41.3550 N   0  0  0  0  0  0  0  0  0  0  0  0
   39.1190   31.4230   41.4740 C   0  0  0  0  0  0  0  0  0  0  0  0
   39.7580   30.3270   42.0540 C   0  0  0  0  0  0  0  0  0  0  0  0
   38.3520   29.0910   42.0970 S   0  0  0  0  0  0  0  0  0  0  0  0
   37.1670   30.3370   41.3060 C   0  0  0  0  0  0  0  0  0  0  0  0
   37.8530   31.2120   41.1870 N   0  0  0  0  0  0  0  0  0  0  0  0
   44.1000   33.6520   39.8750 C   0  0  0  0  0  0  0  0  0  0  0  0
   44.0520   34.5910   42.1400 C   0  0  0  0  0  0  0  0  0  0  0  0
   45.2620   34.2800   42.7960 N   0  0  0  0  0  0  0  0  0  0  0  0
   45.6630   33.3260   43.7770 C   0  0  0  0  0  0  0  0  0  0  0  0
   46.2590   32.1490   43.3580 C   0  0  0  0  0  0  0  0  0  0  0  0
   46.6680   31.1780   44.2510 C   0  0  0  0  0  0  0  0  0  0  0  0
   46.4520   31.4400   45.5530 N   0  0  0  0  0  0  0  0  0  0  0  0
   45.8700   32.5910   45.9510 C   0  0  0  0  0  0  0  0  0  0  0  0
   45.4600   33.5580   45.0970 N   0  0  0  0  0  0  0  0  0  0  0  0
   45.6830   32.7730   47.3910 C   0  0  0  0  0  0  0  0  0  0  0  0
   46.3990   32.1070   48.1840 O   0  0  0  0  0  0  0  0  0  0  0  0
   44.7670   33.6350   47.9470 O   0  0  0  0  0  0  0  0  0  0  0  0
   46.4210   35.0230   42.5080 C   0  0  0  0  0  0  0  0  0  0  0  0
   47.4240   34.7480   43.3910 F   0  0  0  0  0  0  0  0  0  0  0  0
   46.0320   36.3720   42.7730 F   0  0  0  0  0  0  0  0  0  0  0  0
   46.8580   34.9410   41.2160 F   0  0  0  0  0  0  0  0  0  0  0  0
   43.7549   32.5747   41.7028 H   0  0  0  0  0  0  0  0  0  0  0  0
   42.0352   35.7481   40.6955 H   0  0  0  0  0  0  0  0  0  0  0  0
   39.5155   35.8999   40.5228 H   0  0  0  0  0  0  0  0  0  0  0  0
   40.7991   30.2188   42.3923 H   0  0  0  0  0  0  0  0  0  0  0  0
   36.1052   30.2306   41.0392 H   0  0  0  0  0  0  0  0  0  0  0  0
   45.1798   33.8427   39.9625 H   0  0  0  0  0  0  0  0  0  0  0  0
   43.9368   32.7112   39.3289 H   0  0  0  0  0  0  0  0  0  0  0  0
   43.6245   34.4801   39.3289 H   0  0  0  0  0  0  0  0  0  0  0  0
   44.2243   35.4891   41.5287 H   0  0  0  0  0  0  0  0  0  0  0  0
   43.3104   34.7202   42.9421 H   0  0  0  0  0  0  0  0  0  0  0  0
   46.4115   31.9820   42.2815 H   0  0  0  0  0  0  0  0  0  0  0  0
   47.1432   30.2439   43.9169 H   0  0  0  0  0  0  0  0  0  0  0  0
   44.6919   33.7100   48.9313 H   0  0  0  0  0  0  0  0  0  0  0  0
  1 14  1  0
  2  1  1  0
  2  7  1  0
  3  2  2  0
  4  3  1  0
  4  5  2  0
  5  6  1  0
  6  7  2  0
  6  8  1  0
  8  9  2  0
  9 10  1  0
 11 10  1  0
 12 11  2  0
 12  8  1  0
 13  1  1  0
 14 15  1  0
 15 16  1  0
 16 21  1  0
 17 16  2  0
 17 18  1  0
 18 19  2  0
 19 20  1  0
 20 22  1  0
 21 20  2  0
 22 24  1  0
 22 23  2  0
 25 27  1  0
 25 15  1  0
 25 26  1  0
 28 25  1  0
  1 29  1  1
  3 30  1  0
  4 31  1  0
  9 32  1  0
 11 33  1  0
 13 34  1  0
 13 35  1  0
 13 36  1  0
 14 37  1  0
 14 38  1  0
 17 39  1  0
 18 40  1  0
 24 41  1  0
M  ISO  8  29   8  30  14  31  14  32  14  33  14  34   8  35   8  36   8
M  ISO  5  37   8  38   8  39  14  40  14  41   3
M  END
>  <minimizedAffinity>  (1) 
-6.09465599

>  <minimizedRMSD>  (1) 
0.564218581

$$$$
