
     RDKit          3D

 43 46  0  0  1  0  0  0  0  0999 V2000
   44.1060   34.4740   42.2290 C   0  0  0  0  0  0  0  0  0  0  0  0
   43.5370   33.4870   41.2800 C   0  0  1  0  0  0  0  0  0  0  0  0
   42.0740   33.5660   41.1930 C   0  0  0  0  0  0  0  0  0  0  0  0
   41.4710   34.8390   40.9030 C   0  0  0  0  0  0  0  0  0  0  0  0
   40.0760   34.9490   40.8100 C   0  0  0  0  0  0  0  0  0  0  0  0
   39.3610   33.8180   41.0040 N   0  0  0  0  0  0  0  0  0  0  0  0
   39.9350   32.6540   41.2700 C   0  0  0  0  0  0  0  0  0  0  0  0
   41.2870   32.4990   41.3700 N   0  0  0  0  0  0  0  0  0  0  0  0
   39.1210   31.4390   41.4740 C   0  0  0  0  0  0  0  0  0  0  0  0
   39.7570   30.3210   42.0630 C   0  0  0  0  0  0  0  0  0  0  0  0
   38.3250   29.1030   42.0890 S   0  0  0  0  0  0  0  0  0  0  0  0
   37.1730   30.3620   41.3000 C   0  0  0  0  0  0  0  0  0  0  0  0
   37.8690   31.2170   41.1920 N   0  0  0  0  0  0  0  0  0  0  0  0
   44.1430   33.6770   39.9080 C   0  0  0  0  0  0  0  0  0  0  0  0
   45.3630   34.1540   42.7860 N   0  0  0  0  0  0  0  0  0  0  0  0
   45.8610   33.1220   43.6350 C   0  0  0  0  0  0  0  0  0  0  0  0
   46.5590   32.0760   43.0870 C   0  0  0  0  0  0  0  0  0  0  0  0
   47.0640   31.0470   43.8580 C   0  0  0  0  0  0  0  0  0  0  0  0
   46.8360   31.1230   45.1710 N   0  0  0  0  0  0  0  0  0  0  0  0
   46.1420   32.1620   45.7160 C   0  0  0  0  0  0  0  0  0  0  0  0
   45.6510   33.1610   44.9710 N   0  0  0  0  0  0  0  0  0  0  0  0
   46.0020   32.0570   47.1640 C   0  0  0  0  0  0  0  0  0  0  0  0
   45.3340   32.6160   48.1620 N   0  0  0  0  0  0  0  0  0  0  0  0
   45.6680   32.0480   49.2820 O   0  0  0  0  0  0  0  0  0  0  0  0
   46.5710   31.0930   49.0690 C   0  0  0  0  0  0  0  0  0  0  0  0
   46.7840   31.0980   47.7210 N   0  0  0  0  0  0  0  0  0  0  0  0
   46.4680   34.9790   42.5180 C   0  0  0  0  0  0  0  0  0  0  0  0
   47.4790   34.7680   43.4090 F   0  0  0  0  0  0  0  0  0  0  0  0
   45.9880   36.2960   42.7950 F   0  0  0  0  0  0  0  0  0  0  0  0
   46.9230   34.9470   41.2280 F   0  0  0  0  0  0  0  0  0  0  0  0
   43.3924   34.5918   43.0578 H   0  0  0  0  0  0  0  0  0  0  0  0
   44.2711   35.3871   41.6383 H   0  0  0  0  0  0  0  0  0  0  0  0
   43.7878   32.4880   41.6662 H   0  0  0  0  0  0  0  0  0  0  0  0
   42.1039   35.7263   40.7541 H   0  0  0  0  0  0  0  0  0  0  0  0
   39.5870   35.9094   40.5898 H   0  0  0  0  0  0  0  0  0  0  0  0
   40.7944   30.1990   42.4078 H   0  0  0  0  0  0  0  0  0  0  0  0
   36.1117   30.2746   41.0245 H   0  0  0  0  0  0  0  0  0  0  0  0
   45.1880   34.0046   40.0109 H   0  0  0  0  0  0  0  0  0  0  0  0
   44.1096   32.7253   39.3574 H   0  0  0  0  0  0  0  0  0  0  0  0
   43.5722   34.4393   39.3574 H   0  0  0  0  0  0  0  0  0  0  0  0
   46.7217   32.0559   41.9993 H   0  0  0  0  0  0  0  0  0  0  0  0
   47.6236   30.2105   43.4141 H   0  0  0  0  0  0  0  0  0  0  0  0
   47.0435   30.4406   49.8181 H   0  0  0  0  0  0  0  0  0  0  0  0
  1 15  1  0
  2  1  1  0
  3  2  1  0
  3  8  1  0
  4  3  2  0
  5  4  1  0
  5  6  2  0
  6  7  1  0
  7  8  2  0
  7  9  1  0
  9 10  2  0
 10 11  1  0
 12 11  1  0
 13 12  2  0
 13  9  1  0
 14  2  1  0
 15 16  1  0
 16 21  1  0
 17 16  2  0
 17 18  1  0
 18 19  2  0
 19 20  1  0
 20 22  1  0
 21 20  2  0
 22 26  1  0
 22 23  2  0
 23 24  1  0
 25 24  1  0
 26 25  2  0
 27 15  1  0
 27 29  1  0
 27 28  1  0
 30 27  1  0
  1 31  1  0
  1 32  1  0
  2 33  1  1
  4 34  1  0
  5 35  1  0
 10 36  1  0
 12 37  1  0
 14 38  1  0
 14 39  1  0
 14 40  1  0
 17 41  1  0
 18 42  1  0
 25 43  1  0
M  ISO  8  31   8  32   8  33   8  34  14  35  14  36  14  37  14  38   8
M  ISO  5  39   8  40   8  41  14  42  14  43  14
M  END
>  <minimizedAffinity>  (1) 
-6.17126131

>  <minimizedRMSD>  (1) 
1.12453794

$$$$
