
     RDKit          3D

 50 52  0  0  1  0  0  0  0  0999 V2000
   43.5370   33.4820   41.2740 C   0  0  1  0  0  0  0  0  0  0  0  0
   42.0670   33.5630   41.1910 C   0  0  0  0  0  0  0  0  0  0  0  0
   41.4720   34.8290   40.8990 C   0  0  0  0  0  0  0  0  0  0  0  0
   40.0750   34.9370   40.8090 C   0  0  0  0  0  0  0  0  0  0  0  0
   39.3610   33.8080   41.0090 N   0  0  0  0  0  0  0  0  0  0  0  0
   39.9280   32.6480   41.2790 C   0  0  0  0  0  0  0  0  0  0  0  0
   41.2800   32.5010   41.3730 N   0  0  0  0  0  0  0  0  0  0  0  0
   39.1300   31.4150   41.4900 C   0  0  0  0  0  0  0  0  0  0  0  0
   39.7600   30.3090   42.0690 C   0  0  0  0  0  0  0  0  0  0  0  0
   38.3200   29.1040   42.0820 S   0  0  0  0  0  0  0  0  0  0  0  0
   37.1620   30.3780   41.2900 C   0  0  0  0  0  0  0  0  0  0  0  0
   37.8760   31.2050   41.2020 N   0  0  0  0  0  0  0  0  0  0  0  0
   44.1420   33.7190   39.9100 C   0  0  0  0  0  0  0  0  0  0  0  0
   44.1020   34.4340   42.2560 C   0  0  0  0  0  0  0  0  0  0  0  0
   45.3670   34.1070   42.7920 N   0  0  0  0  0  0  0  0  0  0  0  0
   45.8760   33.0520   43.6030 C   0  0  0  0  0  0  0  0  0  0  0  0
   46.5640   32.0170   42.9900 C   0  0  0  0  0  0  0  0  0  0  0  0
   47.0810   30.9590   43.7200 C   0  0  0  0  0  0  0  0  0  0  0  0
   46.8780   30.9940   45.0460 N   0  0  0  0  0  0  0  0  0  0  0  0
   46.2060   32.0080   45.6310 C   0  0  0  0  0  0  0  0  0  0  0  0
   45.6890   33.0570   44.9450 N   0  0  0  0  0  0  0  0  0  0  0  0
   46.0240   31.9680   47.1110 C   0  0  0  0  0  0  0  0  0  0  0  0
   45.3950   30.6620   47.5580 C   0  0  0  0  0  0  0  0  0  0  0  0
   47.3580   32.1620   47.8320 C   0  0  0  0  0  0  0  0  0  0  0  0
   45.1280   33.0840   47.6110 C   0  0  0  0  0  0  0  0  0  0  0  0
   46.4670   34.9470   42.5440 C   0  0  0  0  0  0  0  0  0  0  0  0
   47.4770   34.7380   43.4430 F   0  0  0  0  0  0  0  0  0  0  0  0
   45.9650   36.2540   42.8300 F   0  0  0  0  0  0  0  0  0  0  0  0
   46.9340   34.9320   41.2590 F   0  0  0  0  0  0  0  0  0  0  0  0
   43.7909   32.4704   41.6236 H   0  0  0  0  0  0  0  0  0  0  0  0
   42.1056   35.7150   40.7454 H   0  0  0  0  0  0  0  0  0  0  0  0
   39.5849   35.8962   40.5860 H   0  0  0  0  0  0  0  0  0  0  0  0
   40.7962   30.1820   42.4155 H   0  0  0  0  0  0  0  0  0  0  0  0
   36.1014   30.3089   41.0064 H   0  0  0  0  0  0  0  0  0  0  0  0
   45.1606   34.1180   40.0250 H   0  0  0  0  0  0  0  0  0  0  0  0
   44.1805   32.7695   39.3560 H   0  0  0  0  0  0  0  0  0  0  0  0
   43.5253   34.4420   39.3560 H   0  0  0  0  0  0  0  0  0  0  0  0
   44.1912   35.4121   41.7607 H   0  0  0  0  0  0  0  0  0  0  0  0
   43.4096   34.4173   43.1106 H   0  0  0  0  0  0  0  0  0  0  0  0
   46.7028   32.0359   41.8990 H   0  0  0  0  0  0  0  0  0  0  0  0
   47.6282   30.1350   43.2387 H   0  0  0  0  0  0  0  0  0  0  0  0
   45.3756   30.6217   48.6571 H   0  0  0  0  0  0  0  0  0  0  0  0
   44.3675   30.5984   47.1705 H   0  0  0  0  0  0  0  0  0  0  0  0
   45.9858   29.8189   47.1705 H   0  0  0  0  0  0  0  0  0  0  0  0
   47.1939   32.1381   48.9194 H   0  0  0  0  0  0  0  0  0  0  0  0
   48.0492   31.3549   47.5477 H   0  0  0  0  0  0  0  0  0  0  0  0
   47.7907   33.1325   47.5477 H   0  0  0  0  0  0  0  0  0  0  0  0
   45.1254   33.0872   48.7110 H   0  0  0  0  0  0  0  0  0  0  0  0
   45.5046   34.0496   47.2424 H   0  0  0  0  0  0  0  0  0  0  0  0
   44.1039   32.9250   47.2424 H   0  0  0  0  0  0  0  0  0  0  0  0
  1 14  1  0
  2  1  1  0
  2  7  1  0
  3  2  2  0
  4  3  1  0
  4  5  2  0
  5  6  1  0
  6  7  2  0
  6  8  1  0
  8  9  2  0
  9 10  1  0
 11 10  1  0
 12 11  2  0
 12  8  1  0
 13  1  1  0
 14 15  1  0
 15 16  1  0
 16 21  1  0
 17 16  2  0
 17 18  1  0
 18 19  2  0
 19 20  1  0
 20 22  1  0
 21 20  2  0
 22 23  1  0
 22 25  1  0
 22 24  1  0
 26 15  1  0
 26 28  1  0
 26 27  1  0
 29 26  1  0
  1 30  1  1
  3 31  1  0
  4 32  1  0
  9 33  1  0
 11 34  1  0
 13 35  1  0
 13 36  1  0
 13 37  1  0
 14 38  1  0
 14 39  1  0
 17 40  1  0
 18 41  1  0
 23 42  1  0
 23 43  1  0
 23 44  1  0
 24 45  1  0
 24 46  1  0
 24 47  1  0
 25 48  1  0
 25 49  1  0
 25 50  1  0
M  ISO  8  30   8  31  14  32  14  33  14  34  14  35   8  36   8  37   8
M  ISO  8  38   8  39   8  40  14  41  14  42   8  43   8  44   8  45   8
M  ISO  5  46   8  47   8  48   8  49   8  50   8
M  END
>  <minimizedAffinity>  (1) 
-5.93482161

>  <minimizedRMSD>  (1) 
1.07166612

$$$$
