
     RDKit          3D

 45 48  0  0  1  0  0  0  0  0999 V2000
   43.4410   33.5880   41.2140 C   0  0  1  0  0  0  0  0  0  0  0  0
   41.9750   33.6280   41.1190 C   0  0  0  0  0  0  0  0  0  0  0  0
   41.3500   34.8720   40.7920 C   0  0  0  0  0  0  0  0  0  0  0  0
   39.9500   34.9480   40.6910 C   0  0  0  0  0  0  0  0  0  0  0  0
   39.2640   33.8040   40.9160 N   0  0  0  0  0  0  0  0  0  0  0  0
   39.8610   32.6680   41.2160 C   0  0  0  0  0  0  0  0  0  0  0  0
   41.2100   32.5560   41.3230 N   0  0  0  0  0  0  0  0  0  0  0  0
   39.0840   31.4340   41.4510 C   0  0  0  0  0  0  0  0  0  0  0  0
   39.7490   30.3330   42.0450 C   0  0  0  0  0  0  0  0  0  0  0  0
   38.3400   29.0980   42.1030 S   0  0  0  0  0  0  0  0  0  0  0  0
   37.1510   30.3240   41.3150 C   0  0  0  0  0  0  0  0  0  0  0  0
   37.8210   31.2040   41.1800 N   0  0  0  0  0  0  0  0  0  0  0  0
   44.0480   33.8080   39.8460 C   0  0  0  0  0  0  0  0  0  0  0  0
   43.9760   34.5750   42.1800 C   0  0  0  0  0  0  0  0  0  0  0  0
   45.1660   34.2180   42.8490 N   0  0  0  0  0  0  0  0  0  0  0  0
   45.5280   33.2150   43.7960 C   0  0  0  0  0  0  0  0  0  0  0  0
   45.9520   31.9860   43.3520 C   0  0  0  0  0  0  0  0  0  0  0  0
   46.3160   30.9720   44.2090 C   0  0  0  0  0  0  0  0  0  0  0  0
   46.2340   31.2470   45.5120 N   0  0  0  0  0  0  0  0  0  0  0  0
   45.8170   32.4570   45.9550 C   0  0  0  0  0  0  0  0  0  0  0  0
   45.4590   33.4570   45.1250 N   0  0  0  0  0  0  0  0  0  0  0  0
   45.7440   32.7110   47.4340 C   0  0  0  0  0  0  0  0  0  0  0  0
   47.0320   32.3350   48.1620 C   0  0  0  0  0  0  0  0  0  0  0  0
   45.7080   31.6140   48.3970 C   0  0  0  0  0  0  0  0  0  0  0  0
   46.3440   34.9510   42.6180 C   0  0  0  0  0  0  0  0  0  0  0  0
   47.3160   34.6440   43.5260 F   0  0  0  0  0  0  0  0  0  0  0  0
   45.9630   36.3010   42.8980 F   0  0  0  0  0  0  0  0  0  0  0  0
   46.8270   34.8920   41.3370 F   0  0  0  0  0  0  0  0  0  0  0  0
   43.7199   32.5925   41.5898 H   0  0  0  0  0  0  0  0  0  0  0  0
   41.9640   35.7683   40.6197 H   0  0  0  0  0  0  0  0  0  0  0  0
   39.4385   35.8894   40.4418 H   0  0  0  0  0  0  0  0  0  0  0  0
   40.7928   30.2319   42.3770 H   0  0  0  0  0  0  0  0  0  0  0  0
   36.0880   30.2051   41.0584 H   0  0  0  0  0  0  0  0  0  0  0  0
   45.0769   34.1809   39.9571 H   0  0  0  0  0  0  0  0  0  0  0  0
   44.0603   32.8571   39.2931 H   0  0  0  0  0  0  0  0  0  0  0  0
   43.4482   34.5459   39.2931 H   0  0  0  0  0  0  0  0  0  0  0  0
   44.1678   35.5093   41.6320 H   0  0  0  0  0  0  0  0  0  0  0  0
   43.2120   34.6565   42.9672 H   0  0  0  0  0  0  0  0  0  0  0  0
   46.0027   31.8049   42.2682 H   0  0  0  0  0  0  0  0  0  0  0  0
   46.6547   29.9923   43.8410 H   0  0  0  0  0  0  0  0  0  0  0  0
   45.0911   33.5889   47.3196 H   0  0  0  0  0  0  0  0  0  0  0  0
   47.8512   31.8355   47.6241 H   0  0  0  0  0  0  0  0  0  0  0  0
   47.7735   32.8568   48.7848 H   0  0  0  0  0  0  0  0  0  0  0  0
   45.1780   31.7432   49.3522 H   0  0  0  0  0  0  0  0  0  0  0  0
   45.3863   30.5630   48.3540 H   0  0  0  0  0  0  0  0  0  0  0  0
  1 14  1  0
  2  1  1  0
  2  7  1  0
  3  2  2  0
  4  3  1  0
  4  5  2  0
  5  6  1  0
  6  7  2  0
  6  8  1  0
  8  9  2  0
  9 10  1  0
 11 10  1  0
 12 11  2  0
 12  8  1  0
 13  1  1  0
 14 15  1  0
 15 16  1  0
 16 21  1  0
 17 16  2  0
 17 18  1  0
 18 19  2  0
 19 20  1  0
 20 22  1  0
 21 20  2  0
 22 23  1  0
 22 24  1  0
 23 24  1  0
 25 15  1  0
 25 27  1  0
 25 26  1  0
 28 25  1  0
  1 29  1  1
  3 30  1  0
  4 31  1  0
  9 32  1  0
 11 33  1  0
 13 34  1  0
 13 35  1  0
 13 36  1  0
 14 37  1  0
 14 38  1  0
 17 39  1  0
 18 40  1  0
 22 41  1  0
 23 42  1  0
 23 43  1  0
 24 44  1  0
 24 45  1  0
M  ISO  8  29   8  30  14  31  14  32  14  33  14  34   8  35   8  36   8
M  ISO  8  37   8  38   8  39  14  40  14  41  13  42  13  43  13  44  13
M  ISO  1  45  13
M  END
>  <minimizedAffinity>  (1) 
-5.81808519

>  <minimizedRMSD>  (1) 
0.659594536

$$$$
