
     RDKit          3D

 40 42  0  0  1  0  0  0  0  0999 V2000
   43.4670   33.5590   41.2070 C   0  0  1  0  0  0  0  0  0  0  0  0
   41.9970   33.6150   41.1290 C   0  0  0  0  0  0  0  0  0  0  0  0
   41.3770   34.8650   40.8260 C   0  0  0  0  0  0  0  0  0  0  0  0
   39.9790   34.9510   40.7400 C   0  0  0  0  0  0  0  0  0  0  0  0
   39.2880   33.8110   40.9580 N   0  0  0  0  0  0  0  0  0  0  0  0
   39.8810   32.6590   41.2390 C   0  0  0  0  0  0  0  0  0  0  0  0
   41.2310   32.5380   41.3300 N   0  0  0  0  0  0  0  0  0  0  0  0
   39.1050   31.4240   41.4680 C   0  0  0  0  0  0  0  0  0  0  0  0
   39.7480   30.3310   42.0470 C   0  0  0  0  0  0  0  0  0  0  0  0
   38.3480   29.0890   42.1000 S   0  0  0  0  0  0  0  0  0  0  0  0
   37.1560   30.3270   41.3130 C   0  0  0  0  0  0  0  0  0  0  0  0
   37.8340   31.2030   41.1870 N   0  0  0  0  0  0  0  0  0  0  0  0
   44.0590   33.7830   39.8380 C   0  0  0  0  0  0  0  0  0  0  0  0
   44.0200   34.5350   42.1740 C   0  0  0  0  0  0  0  0  0  0  0  0
   45.2460   34.1900   42.7830 N   0  0  0  0  0  0  0  0  0  0  0  0
   45.6760   33.1690   43.6820 C   0  0  0  0  0  0  0  0  0  0  0  0
   46.1590   31.9820   43.1680 C   0  0  0  0  0  0  0  0  0  0  0  0
   46.5900   30.9510   43.9700 C   0  0  0  0  0  0  0  0  0  0  0  0
   46.5160   31.1650   45.3000 N   0  0  0  0  0  0  0  0  0  0  0  0
   46.0440   32.3270   45.7940 C   0  0  0  0  0  0  0  0  0  0  0  0
   45.6140   33.3540   45.0230 N   0  0  0  0  0  0  0  0  0  0  0  0
   45.9980   32.4730   47.2490 C   0  0  0  0  0  0  0  0  0  0  0  0
   44.9960   33.0160   47.7870 O   0  0  0  0  0  0  0  0  0  0  0  0
   46.3920   34.9650   42.5280 C   0  0  0  0  0  0  0  0  0  0  0  0
   47.3890   34.6950   43.4200 F   0  0  0  0  0  0  0  0  0  0  0  0
   45.9670   36.2980   42.8160 F   0  0  0  0  0  0  0  0  0  0  0  0
   46.8510   34.9210   41.2410 F   0  0  0  0  0  0  0  0  0  0  0  0
   43.7416   32.5581   41.5713 H   0  0  0  0  0  0  0  0  0  0  0  0
   41.9947   35.7599   40.6601 H   0  0  0  0  0  0  0  0  0  0  0  0
   39.4716   35.8987   40.5069 H   0  0  0  0  0  0  0  0  0  0  0  0
   40.7909   30.2269   42.3809 H   0  0  0  0  0  0  0  0  0  0  0  0
   36.0931   30.2148   41.0527 H   0  0  0  0  0  0  0  0  0  0  0  0
   45.0833   34.1706   39.9404 H   0  0  0  0  0  0  0  0  0  0  0  0
   44.0806   32.8309   39.2876 H   0  0  0  0  0  0  0  0  0  0  0  0
   43.4449   34.5109   39.2876 H   0  0  0  0  0  0  0  0  0  0  0  0
   44.1667   35.4866   41.6421 H   0  0  0  0  0  0  0  0  0  0  0  0
   43.2887   34.5796   42.9945 H   0  0  0  0  0  0  0  0  0  0  0  0
   46.2007   31.8561   42.0760 H   0  0  0  0  0  0  0  0  0  0  0  0
   46.9723   30.0081   43.5519 H   0  0  0  0  0  0  0  0  0  0  0  0
   46.8318   32.1115   47.8688 H   0  0  0  0  0  0  0  0  0  0  0  0
  1 14  1  0
  2  1  1  0
  2  7  1  0
  3  2  2  0
  4  3  1  0
  4  5  2  0
  5  6  1  0
  6  7  2  0
  6  8  1  0
  8  9  2  0
  9 10  1  0
 11 10  1  0
 12 11  2  0
 12  8  1  0
 13  1  1  0
 14 15  1  0
 15 16  1  0
 16 21  1  0
 17 16  2  0
 17 18  1  0
 18 19  2  0
 19 20  1  0
 20 22  1  0
 21 20  2  0
 22 23  2  0
 24 15  1  0
 24 26  1  0
 24 25  1  0
 27 24  1  0
  1 28  1  1
  3 29  1  0
  4 30  1  0
  9 31  1  0
 11 32  1  0
 13 33  1  0
 13 34  1  0
 13 35  1  0
 14 36  1  0
 14 37  1  0
 17 38  1  0
 18 39  1  0
 22 40  1  0
M  ISO  8  28   8  29  14  30  14  31  14  32  14  33   8  34   8  35   8
M  ISO  5  36   8  37   8  38  14  39  14  40   6
M  END
>  <minimizedAffinity>  (1) 
-5.49203348

>  <minimizedRMSD>  (1) 
0.678609073

$$$$
