
     RDKit          3D

 47 49  0  0  1  0  0  0  0  0999 V2000
   43.4600   33.5500   41.2760 C   0  0  1  0  0  0  0  0  0  0  0  0
   41.9940   33.5980   41.1710 C   0  0  0  0  0  0  0  0  0  0  0  0
   41.3720   34.8510   40.8410 C   0  0  0  0  0  0  0  0  0  0  0  0
   39.9740   34.9380   40.7280 C   0  0  0  0  0  0  0  0  0  0  0  0
   39.2780   33.8000   40.9430 N   0  0  0  0  0  0  0  0  0  0  0  0
   39.8720   32.6380   41.2500 C   0  0  0  0  0  0  0  0  0  0  0  0
   41.2260   32.5160   41.3690 N   0  0  0  0  0  0  0  0  0  0  0  0
   39.0870   31.4210   41.4690 C   0  0  0  0  0  0  0  0  0  0  0  0
   39.7310   30.3230   42.0460 C   0  0  0  0  0  0  0  0  0  0  0  0
   38.3260   29.0840   42.0900 S   0  0  0  0  0  0  0  0  0  0  0  0
   37.1370   30.3400   41.3010 C   0  0  0  0  0  0  0  0  0  0  0  0
   37.8360   31.1770   41.2000 N   0  0  0  0  0  0  0  0  0  0  0  0
   44.0750   33.7890   39.9190 C   0  0  0  0  0  0  0  0  0  0  0  0
   43.9890   34.5250   42.2580 C   0  0  0  0  0  0  0  0  0  0  0  0
   45.2010   34.1740   42.8920 N   0  0  0  0  0  0  0  0  0  0  0  0
   45.6020   33.1690   43.8220 C   0  0  0  0  0  0  0  0  0  0  0  0
   45.9900   31.9370   43.3640 C   0  0  0  0  0  0  0  0  0  0  0  0
   46.3850   30.9220   44.2040 C   0  0  0  0  0  0  0  0  0  0  0  0
   46.3710   31.2090   45.5100 N   0  0  0  0  0  0  0  0  0  0  0  0
   45.9860   32.4360   45.9780 C   0  0  0  0  0  0  0  0  0  0  0  0
   45.6000   33.4260   45.1500 N   0  0  0  0  0  0  0  0  0  0  0  0
   46.0080   32.6470   47.4600 C   0  0  0  0  0  0  0  0  0  0  0  0
   47.4040   32.3310   48.0140 C   0  0  0  0  0  0  0  0  0  0  0  0
   45.0500   31.7340   48.1840 C   0  0  0  0  0  0  0  0  0  0  0  0
   46.3600   34.9250   42.6330 C   0  0  0  0  0  0  0  0  0  0  0  0
   47.3600   34.6400   43.5170 F   0  0  0  0  0  0  0  0  0  0  0  0
   45.9690   36.2700   42.9170 F   0  0  0  0  0  0  0  0  0  0  0  0
   46.8230   34.8670   41.3470 F   0  0  0  0  0  0  0  0  0  0  0  0
   43.7339   32.5485   41.6391 H   0  0  0  0  0  0  0  0  0  0  0  0
   41.9921   35.7445   40.6764 H   0  0  0  0  0  0  0  0  0  0  0  0
   39.4720   35.8841   40.4773 H   0  0  0  0  0  0  0  0  0  0  0  0
   40.7732   30.2159   42.3812 H   0  0  0  0  0  0  0  0  0  0  0  0
   36.0746   30.2529   41.0296 H   0  0  0  0  0  0  0  0  0  0  0  0
   45.0938   34.1849   40.0427 H   0  0  0  0  0  0  0  0  0  0  0  0
   44.1151   32.8410   39.3625 H   0  0  0  0  0  0  0  0  0  0  0  0
   43.4644   34.5153   39.3625 H   0  0  0  0  0  0  0  0  0  0  0  0
   44.1485   35.4781   41.7325 H   0  0  0  0  0  0  0  0  0  0  0  0
   43.2387   34.5717   43.0610 H   0  0  0  0  0  0  0  0  0  0  0  0
   45.9853   31.7522   42.2796 H   0  0  0  0  0  0  0  0  0  0  0  0
   46.6930   29.9362   43.8253 H   0  0  0  0  0  0  0  0  0  0  0  0
   45.7217   33.6963   47.6242 H   0  0  0  0  0  0  0  0  0  0  0  0
   47.3724   32.3382   49.1135 H   0  0  0  0  0  0  0  0  0  0  0  0
   47.7218   31.3382   47.6628 H   0  0  0  0  0  0  0  0  0  0  0  0
   48.1184   33.0902   47.6628 H   0  0  0  0  0  0  0  0  0  0  0  0
   45.1775   31.8555   49.2698 H   0  0  0  0  0  0  0  0  0  0  0  0
   44.0173   31.9905   47.9051 H   0  0  0  0  0  0  0  0  0  0  0  0
   45.2566   30.6902   47.9051 H   0  0  0  0  0  0  0  0  0  0  0  0
  1 14  1  0
  2  1  1  0
  2  7  1  0
  3  2  2  0
  4  3  1  0
  4  5  2  0
  5  6  1  0
  6  7  2  0
  6  8  1  0
  8  9  2  0
  9 10  1  0
 11 10  1  0
 12 11  2  0
 12  8  1  0
 13  1  1  0
 14 15  1  0
 15 16  1  0
 16 21  1  0
 17 16  2  0
 17 18  1  0
 18 19  2  0
 19 20  1  0
 20 22  1  0
 21 20  2  0
 22 23  1  0
 22 24  1  0
 25 15  1  0
 25 27  1  0
 25 26  1  0
 28 25  1  0
  1 29  1  1
  3 30  1  0
  4 31  1  0
  9 32  1  0
 11 33  1  0
 13 34  1  0
 13 35  1  0
 13 36  1  0
 14 37  1  0
 14 38  1  0
 17 39  1  0
 18 40  1  0
 22 41  1  0
 23 42  1  0
 23 43  1  0
 23 44  1  0
 24 45  1  0
 24 46  1  0
 24 47  1  0
M  ISO  8  29   8  30  14  31  14  32  14  33  14  34   8  35   8  36   8
M  ISO  8  37   8  38   8  39  14  40  14  41   8  42   8  43   8  44   8
M  ISO  3  45   8  46   8  47   8
M  END
>  <minimizedAffinity>  (1) 
-5.94484282

>  <minimizedRMSD>  (1) 
0.715930164

$$$$
