
     RDKit          3D

 25 26  0  0  0  0  0  0  0  0999 V2000
   45.9170   34.4730   41.1830 C   0  0  0  0  0  0  0  0  0  0  0  0
   47.1790   34.8500   41.6550 C   0  0  0  0  0  0  0  0  0  0  0  0
   48.3040   34.5170   40.8730 C   0  0  0  0  0  0  0  0  0  0  0  0
   48.0900   33.8450   39.6970 N   0  0  0  0  0  0  0  0  0  0  0  0
   46.8570   33.5120   39.2960 C   0  0  0  0  0  0  0  0  0  0  0  0
   45.8040   33.8260   40.0350 N   0  0  0  0  0  0  0  0  0  0  0  0
   46.6680   32.7970   38.0380 C   0  0  0  0  0  0  0  0  0  0  0  0
   47.4260   31.6910   37.7340 C   0  0  0  0  0  0  0  0  0  0  0  0
   47.3110   30.9720   36.5850 C   0  0  0  0  0  0  0  0  0  0  0  0
   46.3740   31.3770   35.6630 C   0  0  0  0  0  0  0  0  0  0  0  0
   45.6140   32.4860   35.9660 C   0  0  0  0  0  0  0  0  0  0  0  0
   45.7610   33.1710   37.1180 N   0  0  0  0  0  0  0  0  0  0  0  0
   44.7650   34.8200   41.9960 C   0  0  0  0  0  0  0  0  0  0  0  0
   43.8840   35.6050   41.5170 O   0  0  0  0  0  0  0  0  0  0  0  0
   44.6660   34.2710   43.2890 O   0  0  0  0  0  0  0  0  0  0  0  0
   45.1500   35.0270   44.3700 C   0  0  0  0  0  0  0  0  0  0  0  0
   44.2290   35.0820   45.4160 F   0  0  0  0  0  0  0  0  0  0  0  0
   46.3190   34.4760   44.8460 F   0  0  0  0  0  0  0  0  0  0  0  0
   45.3600   36.3120   43.9030 F   0  0  0  0  0  0  0  0  0  0  0  0
   47.2901   35.3897   42.6070 H   0  0  0  0  0  0  0  0  0  0  0  0
   49.3202   34.7875   41.1958 H   0  0  0  0  0  0  0  0  0  0  0  0
   48.1762   31.3655   38.4697 H   0  0  0  0  0  0  0  0  0  0  0  0
   47.9474   30.0942   36.3990 H   0  0  0  0  0  0  0  0  0  0  0  0
   46.2360   30.8343   34.7162 H   0  0  0  0  0  0  0  0  0  0  0  0
   44.8594   32.8249   35.2410 H   0  0  0  0  0  0  0  0  0  0  0  0
  1  2  2  0
  1 13  1  0
  3  2  1  0
  4  3  2  0
  5  4  1  0
  5  6  2  0
  6  1  1  0
  7  5  1  0
  8  7  2  0
  9  8  1  0
 10 11  1  0
 10  9  2  0
 11 12  2  0
 12  7  1  0
 13 15  1  0
 14 13  2  0
 15 16  1  0
 16 18  1  0
 16 17  1  0
 19 16  1  0
  2 20  1  0
  3 21  1  0
  8 22  1  0
  9 23  1  0
 10 24  1  0
 11 25  1  0
M  ISO  6  20  14  21  14  22  14  23  14  24  14  25  14
M  END
>  <minimizedAffinity>  (1) 
-4.17004395

>  <minimizedRMSD>  (1) 
0.785106897

$$$$
