
     RDKit          3D

 26 27  0  0  1  0  0  0  0  0999 V2000
   45.2960   30.7970   46.8030 N   0  0  0  0  0  0  0  0  0  0  0  0
   45.8740   29.6430   47.4850 C   0  0  0  0  0  0  0  0  0  0  0  0
   46.9280   30.2890   48.3510 C   0  0  0  0  0  0  0  0  0  0  0  0
   46.3050   31.5420   48.8570 C   0  0  0  0  0  0  0  0  0  0  0  0
   45.3350   31.8780   47.6910 C   0  0  2  0  0  0  0  0  0  0  0  0
   44.1650   32.1190   48.4700 O   0  0  0  0  0  0  0  0  0  0  0  0
   45.5620   33.0700   47.0460 O   0  0  0  0  0  0  0  0  0  0  0  0
   46.2950   33.1750   45.8160 C   0  0  0  0  0  0  0  0  0  0  0  0
   47.2370   32.3890   45.6010 O   0  0  0  0  0  0  0  0  0  0  0  0
   44.4460   35.9380   44.3210 C   0  0  0  0  0  0  0  0  0  0  0  0
   45.0310   36.0870   43.0540 C   0  0  0  0  0  0  0  0  0  0  0  0
   46.0850   35.2360   42.7220 C   0  0  0  0  0  0  0  0  0  0  0  0
   46.4830   34.3050   43.6600 N   0  0  0  0  0  0  0  0  0  0  0  0
   45.8640   34.2180   44.8770 C   0  0  0  0  0  0  0  0  0  0  0  0
   44.8690   35.0170   45.1970 N   0  0  0  0  0  0  0  0  0  0  0  0
   45.8437   31.0164   45.9587 H   0  0  0  0  0  0  0  0  0  0  0  0
   45.1217   29.1197   48.0935 H   0  0  0  0  0  0  0  0  0  0  0  0
   46.2683   28.8752   46.8031 H   0  0  0  0  0  0  0  0  0  0  0  0
   47.1981   29.6277   49.1875 H   0  0  0  0  0  0  0  0  0  0  0  0
   47.8539   30.4878   47.7914 H   0  0  0  0  0  0  0  0  0  0  0  0
   45.7623   31.3724   49.7986 H   0  0  0  0  0  0  0  0  0  0  0  0
   47.0214   32.3413   49.0974 H   0  0  0  0  0  0  0  0  0  0  0  0
   44.3936   32.0719   49.4321 H   0  0  0  0  0  0  0  0  0  0  0  0
   43.6133   36.5988   44.6038 H   0  0  0  0  0  0  0  0  0  0  0  0
   44.6706   36.8488   42.3471 H   0  0  0  0  0  0  0  0  0  0  0  0
   46.5832   35.3046   41.7437 H   0  0  0  0  0  0  0  0  0  0  0  0
  1  2  1  0
  1  5  1  0
  2  3  1  0
  3  4  1  0
  5  7  1  6
  5  6  1  0
  5  4  1  0
  8  7  1  0
  9  8  2  0
 10 15  2  0
 11 10  1  0
 12 11  2  0
 12 13  1  0
 13 14  2  0
 14 15  1  0
 14  8  1  0
  1 16  1  0
  2 17  1  0
  2 18  1  0
  3 19  1  0
  3 20  1  0
  4 21  1  0
  4 22  1  0
  6 23  1  0
 10 24  1  0
 11 25  1  0
 12 26  1  0
M  ISO  8  16   5  17  13  18  13  19  13  20  13  21  13  22  13  23   3
M  ISO  3  24  14  25  14  26  14
M  END
>  <minimizedAffinity>  (1) 
-4.97431755

>  <minimizedRMSD>  (1) 
0.662881374

$$$$
