
     RDKit          3D

 32 34  0  0  1  0  0  0  0  0999 V2000
   45.2540   30.8720   44.9830 N   0  0  0  0  0  0  0  0  0  0  0  0
   45.0850   29.4530   44.6790 C   0  0  0  0  0  0  0  0  0  0  0  0
   46.5150   28.9540   44.7360 C   0  0  0  0  0  0  0  0  0  0  0  0
   47.1200   29.6590   45.9050 C   0  0  0  0  0  0  0  0  0  0  0  0
   46.3130   30.9870   45.8860 C   0  0  2  0  0  0  0  0  0  0  0  0
   45.9010   31.0850   47.3130 N   0  0  0  0  0  0  0  0  0  0  0  0
   45.9910   32.1380   48.1120 C   0  0  0  0  0  0  0  0  0  0  0  0
   45.4760   31.6890   49.3050 C   0  0  0  0  0  0  0  0  0  0  0  0
   45.0950   30.4090   49.2020 N   0  0  0  0  0  0  0  0  0  0  0  0
   45.3620   30.0300   47.9510 C   0  0  0  0  0  0  0  0  0  0  0  0
   47.0500   32.1250   45.6800 O   0  0  0  0  0  0  0  0  0  0  0  0
   47.0860   32.8330   44.4320 C   0  0  0  0  0  0  0  0  0  0  0  0
   47.8100   32.4050   43.5120 O   0  0  0  0  0  0  0  0  0  0  0  0
   44.6010   35.3910   45.1780 C   0  0  0  0  0  0  0  0  0  0  0  0
   44.6210   36.2220   44.0440 C   0  0  0  0  0  0  0  0  0  0  0  0
   45.5150   35.8980   43.0230 C   0  0  0  0  0  0  0  0  0  0  0  0
   46.3150   34.7900   43.1940 N   0  0  0  0  0  0  0  0  0  0  0  0
   46.2400   34.0250   44.3250 C   0  0  0  0  0  0  0  0  0  0  0  0
   45.4020   34.3200   45.2940 N   0  0  0  0  0  0  0  0  0  0  0  0
   44.3915   31.2462   45.4036 H   0  0  0  0  0  0  0  0  0  0  0  0
   44.6486   29.3062   43.6800 H   0  0  0  0  0  0  0  0  0  0  0  0
   44.4014   28.9283   45.3626 H   0  0  0  0  0  0  0  0  0  0  0  0
   46.5393   27.8645   44.8858 H   0  0  0  0  0  0  0  0  0  0  0  0
   47.0616   29.1542   43.8027 H   0  0  0  0  0  0  0  0  0  0  0  0
   46.9629   29.1021   46.8405 H   0  0  0  0  0  0  0  0  0  0  0  0
   48.2112   29.7857   45.8484 H   0  0  0  0  0  0  0  0  0  0  0  0
   46.3854   33.1374   47.8761 H   0  0  0  0  0  0  0  0  0  0  0  0
   45.3889   32.2967   50.2177 H   0  0  0  0  0  0  0  0  0  0  0  0
   45.1754   29.0356   47.5194 H   0  0  0  0  0  0  0  0  0  0  0  0
   43.9059   35.6263   45.9974 H   0  0  0  0  0  0  0  0  0  0  0  0
   43.9566   37.0951   43.9647 H   0  0  0  0  0  0  0  0  0  0  0  0
   45.5789   36.5083   42.1101 H   0  0  0  0  0  0  0  0  0  0  0  0
  1  5  1  0
  2  3  1  0
  2  1  1  0
  3  4  1  0
  5 11  1  6
  5  4  1  0
  5  6  1  0
  6 10  1  0
  6  7  1  0
  7  8  2  0
  9  8  1  0
 10  9  2  0
 12 11  1  0
 13 12  2  0
 14 19  2  0
 15 14  1  0
 16 17  1  0
 16 15  2  0
 17 18  2  0
 18 12  1  0
 18 19  1  0
  1 20  1  0
  2 21  1  0
  2 22  1  0
  3 23  1  0
  3 24  1  0
  4 25  1  0
  4 26  1  0
  7 27  1  0
  8 28  1  0
 10 29  1  0
 14 30  1  0
 15 31  1  0
 16 32  1  0
M  ISO  8  20   5  21  13  22  13  23  13  24  13  25  13  26  13  27  14
M  ISO  5  28  14  29  14  30  14  31  14  32  14
M  END
>  <minimizedAffinity>  (1) 
-4.7451148

>  <minimizedRMSD>  (1) 
2.91653252

$$$$
