
     RDKit          3D

 27 28  0  0  1  0  0  0  0  0999 V2000
   45.0650   31.0500   46.9040 N   0  0  0  0  0  0  0  0  0  0  0  0
   45.0170   29.6310   47.2530 C   0  0  0  0  0  0  0  0  0  0  0  0
   46.4790   29.3120   47.4460 C   0  0  0  0  0  0  0  0  0  0  0  0
   47.0430   30.4990   48.1570 C   0  0  0  0  0  0  0  0  0  0  0  0
   46.1270   31.6240   47.6100 C   0  0  2  0  0  0  0  0  0  0  0  0
   45.7940   32.2940   48.9370 C   0  0  0  0  0  0  0  0  0  0  0  0
   45.2510   31.5060   49.7180 O   0  0  0  0  0  0  0  0  0  0  0  0
   46.7520   32.6150   46.8880 O   0  0  0  0  0  0  0  0  0  0  0  0
   46.7260   32.6830   45.4540 C   0  0  0  0  0  0  0  0  0  0  0  0
   47.2150   31.7480   44.7940 O   0  0  0  0  0  0  0  0  0  0  0  0
   44.5490   35.5640   44.9500 C   0  0  0  0  0  0  0  0  0  0  0  0
   44.8810   36.0160   43.6830 C   0  0  0  0  0  0  0  0  0  0  0  0
   45.8830   35.3420   42.9840 C   0  0  0  0  0  0  0  0  0  0  0  0
   46.4740   34.2690   43.6060 N   0  0  0  0  0  0  0  0  0  0  0  0
   46.1000   33.8710   44.8610 C   0  0  0  0  0  0  0  0  0  0  0  0
   45.1500   34.5130   45.5200 N   0  0  0  0  0  0  0  0  0  0  0  0
   45.2179   31.1575   45.8911 H   0  0  0  0  0  0  0  0  0  0  0  0
   44.4452   29.4650   48.1779 H   0  0  0  0  0  0  0  0  0  0  0  0
   44.5194   29.0031   46.4993 H   0  0  0  0  0  0  0  0  0  0  0  0
   46.5995   28.4036   48.0545 H   0  0  0  0  0  0  0  0  0  0  0  0
   46.9900   29.1212   46.4907 H   0  0  0  0  0  0  0  0  0  0  0  0
   46.9531   30.3980   49.2487 H   0  0  0  0  0  0  0  0  0  0  0  0
   48.1177   30.6634   47.9894 H   0  0  0  0  0  0  0  0  0  0  0  0
   46.0099   33.3471   49.1703 H   0  0  0  0  0  0  0  0  0  0  0  0
   43.7608   36.0895   45.5090 H   0  0  0  0  0  0  0  0  0  0  0  0
   44.3685   36.8827   43.2402 H   0  0  0  0  0  0  0  0  0  0  0  0
   46.1876   35.6572   41.9751 H   0  0  0  0  0  0  0  0  0  0  0  0
  1  2  1  0
  1  5  1  0
  2  3  1  0
  3  4  1  0
  5  8  1  6
  5  4  1  0
  5  6  1  0
  6  7  2  0
  9  8  1  0
 10  9  2  0
 11 16  2  0
 12 11  1  0
 13 14  1  0
 13 12  2  0
 14 15  2  0
 15  9  1  0
 15 16  1  0
  1 17  1  0
  2 18  1  0
  2 19  1  0
  3 20  1  0
  3 21  1  0
  4 22  1  0
  4 23  1  0
  6 24  1  0
 11 25  1  0
 12 26  1  0
 13 27  1  0
M  ISO  8  17   5  18  13  19  13  20  13  21  13  22  13  23  13  24   6
M  ISO  3  25  14  26  14  27  14
M  END
>  <minimizedAffinity>  (1) 
-4.71785688

>  <minimizedRMSD>  (1) 
1.54486454

$$$$
