
     RDKit          3D

 30 32  0  0  1  0  0  0  0  0999 V2000
   47.3690   31.5180   47.2880 N   0  0  0  0  0  0  0  0  0  0  0  0
   47.3590   31.8040   48.7230 C   0  0  0  0  0  0  0  0  0  0  0  0
   45.9640   32.3620   48.9080 C   0  0  0  0  0  0  0  0  0  0  0  0
   45.0900   31.4920   48.0700 C   0  0  0  0  0  0  0  0  0  0  0  0
   46.0800   31.0990   46.9400 C   0  0  2  0  0  0  0  0  0  0  0  0
   45.8570   29.5960   46.9450 C   0  0  0  0  0  0  0  0  0  0  0  0
   46.3250   28.6040   46.1650 N   0  0  0  0  0  0  0  0  0  0  0  0
   45.8200   27.4830   46.5990 O   0  0  0  0  0  0  0  0  0  0  0  0
   45.0360   27.6680   47.6300 C   0  0  0  0  0  0  0  0  0  0  0  0
   45.0540   29.0110   47.8570 N   0  0  0  0  0  0  0  0  0  0  0  0
   45.7310   31.4950   45.6710 O   0  0  0  0  0  0  0  0  0  0  0  0
   46.5060   32.4250   44.8950 C   0  0  0  0  0  0  0  0  0  0  0  0
   47.6190   32.0730   44.4580 O   0  0  0  0  0  0  0  0  0  0  0  0
   44.5870   35.4890   45.3600 C   0  0  0  0  0  0  0  0  0  0  0  0
   44.7310   36.1660   44.1370 C   0  0  0  0  0  0  0  0  0  0  0  0
   45.5150   35.5620   43.1530 C   0  0  0  0  0  0  0  0  0  0  0  0
   46.0930   34.3440   43.4450 N   0  0  0  0  0  0  0  0  0  0  0  0
   45.9070   33.7430   44.6600 C   0  0  0  0  0  0  0  0  0  0  0  0
   45.1660   34.3100   45.5990 N   0  0  0  0  0  0  0  0  0  0  0  0
   47.6184   32.3670   46.7608 H   0  0  0  0  0  0  0  0  0  0  0  0
   47.5084   30.8898   49.3163 H   0  0  0  0  0  0  0  0  0  0  0  0
   48.1610   32.4814   49.0516 H   0  0  0  0  0  0  0  0  0  0  0  0
   45.6631   32.3100   49.9648 H   0  0  0  0  0  0  0  0  0  0  0  0
   45.8986   33.4203   48.6153 H   0  0  0  0  0  0  0  0  0  0  0  0
   44.7400   30.6108   48.6277 H   0  0  0  0  0  0  0  0  0  0  0  0
   44.1644   31.9731   47.7211 H   0  0  0  0  0  0  0  0  0  0  0  0
   44.4812   26.9029   48.1929 H   0  0  0  0  0  0  0  0  0  0  0  0
   43.9742   35.9477   46.1500 H   0  0  0  0  0  0  0  0  0  0  0  0
   44.2436   37.1364   43.9617 H   0  0  0  0  0  0  0  0  0  0  0  0
   45.6673   36.0422   42.1751 H   0  0  0  0  0  0  0  0  0  0  0  0
  1  2  1  0
  2  3  1  0
  4  3  1  0
  5 11  1  6
  5  6  1  0
  5  1  1  0
  5  4  1  0
  6 10  1  0
  7  8  1  0
  7  6  2  0
  8  9  1  0
  9 10  2  0
 12 11  1  0
 13 12  2  0
 14 19  2  0
 15 14  1  0
 16 17  1  0
 16 15  2  0
 17 18  2  0
 18 12  1  0
 18 19  1  0
  1 20  1  0
  2 21  1  0
  2 22  1  0
  3 23  1  0
  3 24  1  0
  4 25  1  0
  4 26  1  0
  9 27  1  0
 14 28  1  0
 15 29  1  0
 16 30  1  0
M  ISO  8  20   5  21  13  22  13  23  13  24  13  25  13  26  13  27  14
M  ISO  3  28  14  29  14  30  14
M  END
>  <minimizedAffinity>  (1) 
-4.70812178

>  <minimizedRMSD>  (1) 
3.31086516

$$$$
