
     RDKit          3D

 32 34  0  0  1  0  0  0  0  0999 V2000
   45.2930   30.5180   44.7960 N   0  0  0  0  0  0  0  0  0  0  0  0
   45.1680   29.0710   44.6970 C   0  0  0  0  0  0  0  0  0  0  0  0
   46.5810   28.6130   44.9850 C   0  0  0  0  0  0  0  0  0  0  0  0
   47.0660   29.5350   46.0640 C   0  0  0  0  0  0  0  0  0  0  0  0
   46.2610   30.8210   45.7360 C   0  0  2  0  0  0  0  0  0  0  0  0
   45.7820   31.1540   47.1320 C   0  0  0  0  0  0  0  0  0  0  0  0
   46.6450   30.6130   48.0670 C   0  0  0  0  0  0  0  0  0  0  0  0
   46.1840   30.9260   49.3190 N   0  0  0  0  0  0  0  0  0  0  0  0
   45.0490   31.6510   49.1740 C   0  0  0  0  0  0  0  0  0  0  0  0
   44.8430   31.7660   47.8550 N   0  0  0  0  0  0  0  0  0  0  0  0
   47.0200   31.9200   45.3830 O   0  0  0  0  0  0  0  0  0  0  0  0
   46.8290   32.6650   44.1790 C   0  0  0  0  0  0  0  0  0  0  0  0
   47.2980   32.2190   43.1220 O   0  0  0  0  0  0  0  0  0  0  0  0
   44.6560   35.2960   45.4680 C   0  0  0  0  0  0  0  0  0  0  0  0
   44.5870   36.2220   44.4110 C   0  0  0  0  0  0  0  0  0  0  0  0
   45.3140   35.9370   43.2550 C   0  0  0  0  0  0  0  0  0  0  0  0
   46.0430   34.7760   43.2290 N   0  0  0  0  0  0  0  0  0  0  0  0
   46.0680   33.9140   44.2900 C   0  0  0  0  0  0  0  0  0  0  0  0
   45.3820   34.1770   45.3940 N   0  0  0  0  0  0  0  0  0  0  0  0
   44.3915   30.9239   45.0849 H   0  0  0  0  0  0  0  0  0  0  0  0
   44.4609   28.6789   45.4428 H   0  0  0  0  0  0  0  0  0  0  0  0
   44.7781   28.7247   43.7285 H   0  0  0  0  0  0  0  0  0  0  0  0
   46.5874   27.5698   45.3339 H   0  0  0  0  0  0  0  0  0  0  0  0
   47.2202   28.6457   44.0904 H   0  0  0  0  0  0  0  0  0  0  0  0
   46.8220   29.1496   47.0650 H   0  0  0  0  0  0  0  0  0  0  0  0
   48.1568   29.6751   46.0853 H   0  0  0  0  0  0  0  0  0  0  0  0
   47.5500   30.0291   47.8434 H   0  0  0  0  0  0  0  0  0  0  0  0
   44.4218   32.0630   49.9783 H   0  0  0  0  0  0  0  0  0  0  0  0
   44.0458   32.2722   47.4439 H   0  0  0  0  0  0  0  0  0  0  0  0
   44.0913   35.5010   46.3894 H   0  0  0  0  0  0  0  0  0  0  0  0
   43.9821   37.1370   44.4931 H   0  0  0  0  0  0  0  0  0  0  0  0
   45.3028   36.6207   42.3933 H   0  0  0  0  0  0  0  0  0  0  0  0
  1  5  1  0
  2  1  1  0
  2  3  1  0
  3  4  1  0
  5 11  1  6
  5  4  1  0
  5  6  1  0
  6 10  1  0
  6  7  2  0
  7  8  1  0
  9  8  2  0
 10  9  1  0
 12 18  1  0
 12 11  1  0
 13 12  2  0
 15 14  2  0
 16 15  1  0
 17 16  2  0
 17 18  1  0
 18 19  2  0
 19 14  1  0
  1 20  1  0
  2 21  1  0
  2 22  1  0
  3 23  1  0
  3 24  1  0
  4 25  1  0
  4 26  1  0
  7 27  1  0
  9 28  1  0
 10 29  1  0
 14 30  1  0
 15 31  1  0
 16 32  1  0
M  ISO  8  20   5  21  13  22  13  23  13  24  13  25  13  26  13  27  14
M  ISO  5  28  14  29   9  30  14  31  14  32  14
M  END
>  <minimizedAffinity>  (1) 
-4.67062426

>  <minimizedRMSD>  (1) 
2.95718241

$$$$
