
     RDKit          3D

 22 23  0  0  0  0  0  0  0  0999 V2000
   45.7750   34.4570   41.1500 C   0  0  0  0  0  0  0  0  0  0  0  0
   47.0550   34.8250   41.5810 C   0  0  0  0  0  0  0  0  0  0  0  0
   48.1580   34.4070   40.8090 C   0  0  0  0  0  0  0  0  0  0  0  0
   47.9140   33.6680   39.6870 N   0  0  0  0  0  0  0  0  0  0  0  0
   46.6550   33.3420   39.3200 C   0  0  0  0  0  0  0  0  0  0  0  0
   45.6110   33.7400   40.0530 N   0  0  0  0  0  0  0  0  0  0  0  0
   46.5190   32.5370   38.0830 C   0  0  0  0  0  0  0  0  0  0  0  0
   47.0900   31.2020   37.8470 C   0  0  0  0  0  0  0  0  0  0  0  0
   46.4580   30.9540   36.1300 S   0  0  0  0  0  0  0  0  0  0  0  0
   45.6000   32.5790   36.0460 C   0  0  0  0  0  0  0  0  0  0  0  0
   45.7900   33.1610   37.1490 N   0  0  0  0  0  0  0  0  0  0  0  0
   44.6450   34.8920   41.9500 C   0  0  0  0  0  0  0  0  0  0  0  0
   43.8030   35.6970   41.4380 O   0  0  0  0  0  0  0  0  0  0  0  0
   44.5240   34.4050   43.2650 O   0  0  0  0  0  0  0  0  0  0  0  0
   45.0420   35.1850   44.3080 C   0  0  0  0  0  0  0  0  0  0  0  0
   44.1350   35.3360   45.3500 F   0  0  0  0  0  0  0  0  0  0  0  0
   46.1780   34.6070   44.8140 F   0  0  0  0  0  0  0  0  0  0  0  0
   45.3170   36.4380   43.7860 F   0  0  0  0  0  0  0  0  0  0  0  0
   47.1958   35.4220   42.4941 H   0  0  0  0  0  0  0  0  0  0  0  0
   49.1855   34.6686   41.1020 H   0  0  0  0  0  0  0  0  0  0  0  0
   47.7020   30.5542   38.4918 H   0  0  0  0  0  0  0  0  0  0  0  0
   45.0274   32.9706   35.1923 H   0  0  0  0  0  0  0  0  0  0  0  0
  1  2  2  0
  1 12  1  0
  3  2  1  0
  4  3  2  0
  5  4  1  0
  5  6  2  0
  6  1  1  0
  7  5  1  0
  8  7  2  0
  9  8  1  0
 10  9  1  0
 10 11  2  0
 11  7  1  0
 12 14  1  0
 13 12  2  0
 14 15  1  0
 15 17  1  0
 15 16  1  0
 18 15  1  0
  2 19  1  0
  3 20  1  0
  8 21  1  0
 10 22  1  0
M  ISO  4  19  14  20  14  21  14  22  14
M  END
>  <minimizedAffinity>  (1) 
-4.05851793

>  <minimizedRMSD>  (1) 
0.47253117

$$$$
