
     RDKit          3D

 41 43  0  0  1  0  0  0  0  0999 V2000
   47.3150   31.1910   47.4340 N   0  0  0  0  0  0  0  0  0  0  0  0
   47.2540   31.5650   48.8560 C   0  0  0  0  0  0  0  0  0  0  0  0
   45.9480   32.3090   48.9230 C   0  0  0  0  0  0  0  0  0  0  0  0
   45.0200   31.4800   48.0900 C   0  0  0  0  0  0  0  0  0  0  0  0
   46.0000   30.8980   47.0380 C   0  0  2  0  0  0  0  0  0  0  0  0
   45.6880   29.4310   47.0330 C   0  0  0  0  0  0  0  0  0  0  0  0
   46.2850   28.2190   47.3270 C   0  0  0  0  0  0  0  0  0  0  0  0
   45.3680   27.2340   47.0750 C   0  0  0  0  0  0  0  0  0  0  0  0
   44.2390   27.8100   46.6390 N   0  0  0  0  0  0  0  0  0  0  0  0
   44.4350   29.1360   46.6150 N   0  0  0  0  0  0  0  0  0  0  0  0
   45.7600   31.2940   45.7530 O   0  0  0  0  0  0  0  0  0  0  0  0
   46.7660   31.7580   44.8310 C   0  0  0  0  0  0  0  0  0  0  0  0
   47.7860   31.0850   44.6550 O   0  0  0  0  0  0  0  0  0  0  0  0
   45.0240   34.7730   43.7260 C   0  0  0  0  0  0  0  0  0  0  0  0
   45.9600   35.4050   42.8800 C   0  0  0  0  0  0  0  0  0  0  0  0
   47.1950   34.7750   42.7090 C   0  0  0  0  0  0  0  0  0  0  0  0
   47.4230   33.5940   43.3640 N   0  0  0  0  0  0  0  0  0  0  0  0
   46.4520   33.0440   44.1720 C   0  0  0  0  0  0  0  0  0  0  0  0
   45.2810   33.6220   44.3480 N   0  0  0  0  0  0  0  0  0  0  0  0
   48.2960   35.2960   41.8570 C   0  0  0  0  0  0  0  0  0  0  0  0
   48.1940   34.7110   40.4440 C   0  0  0  0  0  0  0  0  0  0  0  0
   49.6510   35.0530   42.4480 C   0  0  0  0  0  0  0  0  0  0  0  0
   47.6878   31.9729   46.8768 H   0  0  0  0  0  0  0  0  0  0  0  0
   47.2422   30.6760   49.5038 H   0  0  0  0  0  0  0  0  0  0  0  0
   48.1188   32.1514   49.1998 H   0  0  0  0  0  0  0  0  0  0  0  0
   45.5885   32.3765   49.9604 H   0  0  0  0  0  0  0  0  0  0  0  0
   46.0305   33.3453   48.5635 H   0  0  0  0  0  0  0  0  0  0  0  0
   44.5468   30.6843   48.6841 H   0  0  0  0  0  0  0  0  0  0  0  0
   44.1762   32.0399   47.6605 H   0  0  0  0  0  0  0  0  0  0  0  0
   47.3107   28.0727   47.6964 H   0  0  0  0  0  0  0  0  0  0  0  0
   45.5302   26.1541   47.2077 H   0  0  0  0  0  0  0  0  0  0  0  0
   43.3737   27.3204   46.3699 H   0  0  0  0  0  0  0  0  0  0  0  0
   44.0439   35.2486   43.8783 H   0  0  0  0  0  0  0  0  0  0  0  0
   45.7268   36.3545   42.3760 H   0  0  0  0  0  0  0  0  0  0  0  0
   48.1773   36.3881   41.8011 H   0  0  0  0  0  0  0  0  0  0  0  0
   48.0054   33.6292   40.5078 H   0  0  0  0  0  0  0  0  0  0  0  0
   47.3669   35.1963   39.9051 H   0  0  0  0  0  0  0  0  0  0  0  0
   49.1365   34.8877   39.9051 H   0  0  0  0  0  0  0  0  0  0  0  0
   49.5799   35.0657   43.5456 H   0  0  0  0  0  0  0  0  0  0  0  0
   50.0255   34.0734   42.1162 H   0  0  0  0  0  0  0  0  0  0  0  0
   50.3425   35.8415   42.1162 H   0  0  0  0  0  0  0  0  0  0  0  0
  1  2  1  0
  2  3  1  0
  4  3  1  0
  5 11  1  6
  5  1  1  0
  5  4  1  0
  6  5  1  0
  6  7  1  0
  8  7  2  0
  9  8  1  0
 10  9  1  0
 10  6  2  0
 12 11  1  0
 13 12  2  0
 14 19  2  0
 15 14  1  0
 16 15  2  0
 16 17  1  0
 17 18  2  0
 18 19  1  0
 18 12  1  0
 20 22  1  0
 20 16  1  0
 21 20  1  0
  1 23  1  0
  2 24  1  0
  2 25  1  0
  3 26  1  0
  3 27  1  0
  4 28  1  0
  4 29  1  0
  7 30  1  0
  8 31  1  0
  9 32  1  0
 14 33  1  0
 15 34  1  0
 20 35  1  0
 21 36  1  0
 21 37  1  0
 21 38  1  0
 22 39  1  0
 22 40  1  0
 22 41  1  0
M  ISO  8  23   5  24  13  25  13  26  13  27  13  28  13  29  13  30  14
M  ISO  8  31  14  32   9  33  14  34  14  35   8  36   8  37   8  38   8
M  ISO  3  39   8  40   8  41   8
M  END
>  <minimizedAffinity>  (1) 
-5.43637705

>  <minimizedRMSD>  (1) 
1.37266326

$$$$
