
     RDKit          3D

 45 48  0  0  1  0  0  0  0  0999 V2000
   47.0130   30.6330   47.7780 N   0  0  0  0  0  0  0  0  0  0  0  0
   46.9580   31.0420   49.1810 C   0  0  0  0  0  0  0  0  0  0  0  0
   45.7830   32.0140   49.1690 C   0  0  0  0  0  0  0  0  0  0  0  0
   44.7660   31.3400   48.2930 C   0  0  0  0  0  0  0  0  0  0  0  0
   45.7020   30.5710   47.3150 C   0  0  2  0  0  0  0  0  0  0  0  0
   45.1210   29.1710   47.3010 C   0  0  0  0  0  0  0  0  0  0  0  0
   45.1440   28.0250   48.0490 C   0  0  0  0  0  0  0  0  0  0  0  0
   44.3570   27.1000   47.4190 C   0  0  0  0  0  0  0  0  0  0  0  0
   43.8660   27.6640   46.3150 N   0  0  0  0  0  0  0  0  0  0  0  0
   44.3260   28.9190   46.2380 N   0  0  0  0  0  0  0  0  0  0  0  0
   45.6030   30.9700   46.0060 O   0  0  0  0  0  0  0  0  0  0  0  0
   46.6090   31.7290   45.3090 C   0  0  0  0  0  0  0  0  0  0  0  0
   47.7340   31.2500   45.1590 O   0  0  0  0  0  0  0  0  0  0  0  0
   44.9380   34.9700   45.0920 C   0  0  0  0  0  0  0  0  0  0  0  0
   45.3840   35.4800   43.8610 C   0  0  0  0  0  0  0  0  0  0  0  0
   46.2630   34.7050   43.1100 C   0  0  0  0  0  0  0  0  0  0  0  0
   46.6400   33.4880   43.6180 N   0  0  0  0  0  0  0  0  0  0  0  0
   46.1620   33.0540   44.8310 C   0  0  0  0  0  0  0  0  0  0  0  0
   45.3260   33.7830   45.5530 N   0  0  0  0  0  0  0  0  0  0  0  0
   46.8350   35.0840   41.7920 C   0  0  0  0  0  0  0  0  0  0  0  0
   48.2710   35.5530   41.8780 C   0  0  0  0  0  0  0  0  0  0  0  0
   48.8220   35.2880   40.4710 C   0  0  0  0  0  0  0  0  0  0  0  0
   47.8280   34.3850   39.7860 C   0  0  0  0  0  0  0  0  0  0  0  0
   47.0250   33.8350   40.9280 C   0  0  0  0  0  0  0  0  0  0  0  0
   47.5483   31.3219   47.2305 H   0  0  0  0  0  0  0  0  0  0  0  0
   46.7634   30.1846   49.8421 H   0  0  0  0  0  0  0  0  0  0  0  0
   47.8954   31.4765   49.5584 H   0  0  0  0  0  0  0  0  0  0  0  0
   45.3877   32.1627   50.1847 H   0  0  0  0  0  0  0  0  0  0  0  0
   46.0625   33.0131   48.8034 H   0  0  0  0  0  0  0  0  0  0  0  0
   44.1260   30.6538   48.8671 H   0  0  0  0  0  0  0  0  0  0  0  0
   44.0547   32.0232   47.8059 H   0  0  0  0  0  0  0  0  0  0  0  0
   45.6963   27.8746   48.9884 H   0  0  0  0  0  0  0  0  0  0  0  0
   44.1636   26.0730   47.7624 H   0  0  0  0  0  0  0  0  0  0  0  0
   43.2384   27.2105   45.6357 H   0  0  0  0  0  0  0  0  0  0  0  0
   44.2438   35.5728   45.6960 H   0  0  0  0  0  0  0  0  0  0  0  0
   45.0481   36.4637   43.5011 H   0  0  0  0  0  0  0  0  0  0  0  0
   46.1430   35.8493   41.4106 H   0  0  0  0  0  0  0  0  0  0  0  0
   48.3203   36.6241   42.1238 H   0  0  0  0  0  0  0  0  0  0  0  0
   48.8423   35.0384   42.6646 H   0  0  0  0  0  0  0  0  0  0  0  0
   48.9213   36.2333   39.9174 H   0  0  0  0  0  0  0  0  0  0  0  0
   49.8180   34.8232   40.5145 H   0  0  0  0  0  0  0  0  0  0  0  0
   47.1906   34.9533   39.0926 H   0  0  0  0  0  0  0  0  0  0  0  0
   48.3032   33.6032   39.1753 H   0  0  0  0  0  0  0  0  0  0  0  0
   46.0605   33.4326   40.5848 H   0  0  0  0  0  0  0  0  0  0  0  0
   47.5043   32.9946   41.4514 H   0  0  0  0  0  0  0  0  0  0  0  0
  1  2  1  0
  3  2  1  0
  4  3  1  0
  5 11  1  6
  5  1  1  0
  5  4  1  0
  6  5  1  0
  6  7  1  0
  8  7  2  0
  9  8  1  0
 10  9  1  0
 10  6  2  0
 12 11  1  0
 13 12  2  0
 14 19  2  0
 15 14  1  0
 16 17  1  0
 16 15  2  0
 17 18  2  0
 18 12  1  0
 18 19  1  0
 20 21  1  0
 20 16  1  0
 22 21  1  0
 23 22  1  0
 23 24  1  0
 24 20  1  0
  1 25  1  0
  2 26  1  0
  2 27  1  0
  3 28  1  0
  3 29  1  0
  4 30  1  0
  4 31  1  0
  7 32  1  0
  8 33  1  0
  9 34  1  0
 14 35  1  0
 15 36  1  0
 20 37  1  0
 21 38  1  0
 21 39  1  0
 22 40  1  0
 22 41  1  0
 23 42  1  0
 23 43  1  0
 24 44  1  0
 24 45  1  0
M  ISO  8  25   5  26  13  27  13  28  13  29  13  30  13  31  13  32  14
M  ISO  8  33  14  34   9  35  14  36  14  37  13  38  13  39  13  40  13
M  ISO  5  41  13  42  13  43  13  44  13  45  13
M  END
>  <minimizedAffinity>  (1) 
-5.81490374

>  <minimizedRMSD>  (1) 
1.01443112

$$$$
