
     RDKit          3D

 38 40  0  0  1  0  0  0  0  0999 V2000
   47.0480   30.7730   47.5450 N   0  0  0  0  0  0  0  0  0  0  0  0
   47.0570   31.1380   48.9670 C   0  0  0  0  0  0  0  0  0  0  0  0
   45.9010   32.0960   49.0430 C   0  0  0  0  0  0  0  0  0  0  0  0
   44.8340   31.4340   48.2190 C   0  0  0  0  0  0  0  0  0  0  0  0
   45.6980   30.6970   47.1590 C   0  0  2  0  0  0  0  0  0  0  0  0
   45.1380   29.3060   47.1590 C   0  0  0  0  0  0  0  0  0  0  0  0
   45.1940   28.1450   47.9070 C   0  0  0  0  0  0  0  0  0  0  0  0
   44.3940   27.2140   47.3090 C   0  0  0  0  0  0  0  0  0  0  0  0
   43.8530   27.7860   46.2080 N   0  0  0  0  0  0  0  0  0  0  0  0
   44.3060   29.0450   46.1250 N   0  0  0  0  0  0  0  0  0  0  0  0
   45.5180   31.1280   45.8740 O   0  0  0  0  0  0  0  0  0  0  0  0
   46.3360   32.1090   45.2120 C   0  0  0  0  0  0  0  0  0  0  0  0
   47.5060   31.8370   44.9410 O   0  0  0  0  0  0  0  0  0  0  0  0
   44.6500   35.3240   45.6000 C   0  0  0  0  0  0  0  0  0  0  0  0
   44.3840   35.7150   44.2740 C   0  0  0  0  0  0  0  0  0  0  0  0
   44.7920   34.8660   43.2570 C   0  0  0  0  0  0  0  0  0  0  0  0
   45.4280   33.7010   43.6000 N   0  0  0  0  0  0  0  0  0  0  0  0
   45.6530   33.3870   44.9180 C   0  0  0  0  0  0  0  0  0  0  0  0
   45.2710   34.1850   45.8980 N   0  0  0  0  0  0  0  0  0  0  0  0
   44.5450   35.2080   41.8320 C   0  0  0  0  0  0  0  0  0  0  0  0
   43.0700   35.3240   41.5290 C   0  0  0  0  0  0  0  0  0  0  0  0
   47.5364   31.4907   46.9907 H   0  0  0  0  0  0  0  0  0  0  0  0
   46.8922   30.2591   49.6076 H   0  0  0  0  0  0  0  0  0  0  0  0
   48.0114   31.5614   49.3133 H   0  0  0  0  0  0  0  0  0  0  0  0
   45.5682   32.2272   50.0832 H   0  0  0  0  0  0  0  0  0  0  0  0
   46.1570   33.1021   48.6794 H   0  0  0  0  0  0  0  0  0  0  0  0
   44.2397   30.7284   48.8181 H   0  0  0  0  0  0  0  0  0  0  0  0
   44.0897   32.1259   47.7979 H   0  0  0  0  0  0  0  0  0  0  0  0
   45.7814   27.9967   48.8251 H   0  0  0  0  0  0  0  0  0  0  0  0
   44.2206   26.1856   47.6586 H   0  0  0  0  0  0  0  0  0  0  0  0
   43.2052   27.3324   45.5480 H   0  0  0  0  0  0  0  0  0  0  0  0
   44.3328   35.9844   46.4205 H   0  0  0  0  0  0  0  0  0  0  0  0
   43.8699   36.6619   44.0525 H   0  0  0  0  0  0  0  0  0  0  0  0
   45.0310   36.1689   41.6073 H   0  0  0  0  0  0  0  0  0  0  0  0
   44.9585   34.4001   41.2105 H   0  0  0  0  0  0  0  0  0  0  0  0
   42.5045   35.3685   42.4714 H   0  0  0  0  0  0  0  0  0  0  0  0
   42.8860   36.2394   40.9474 H   0  0  0  0  0  0  0  0  0  0  0  0
   42.7452   34.4486   40.9474 H   0  0  0  0  0  0  0  0  0  0  0  0
  1  2  1  0
  2  3  1  0
  4  3  1  0
  5 11  1  6
  5  6  1  0
  5  1  1  0
  5  4  1  0
  6  7  1  0
  8  7  2  0
  9  8  1  0
 10  9  1  0
 10  6  2  0
 12 11  1  0
 13 12  2  0
 14 19  2  0
 15 14  1  0
 16 17  1  0
 16 15  2  0
 17 18  2  0
 18 12  1  0
 18 19  1  0
 20 16  1  0
 21 20  1  0
  1 22  1  0
  2 23  1  0
  2 24  1  0
  3 25  1  0
  3 26  1  0
  4 27  1  0
  4 28  1  0
  7 29  1  0
  8 30  1  0
  9 31  1  0
 14 32  1  0
 15 33  1  0
 20 34  1  0
 20 35  1  0
 21 36  1  0
 21 37  1  0
 21 38  1  0
M  ISO  8  22   5  23  13  24  13  25  13  26  13  27  13  28  13  29  14
M  ISO  8  30  14  31   9  32  14  33  14  34   8  35   8  36   8  37   8
M  ISO  1  38   8
M  END
>  <minimizedAffinity>  (1) 
-5.08188295

>  <minimizedRMSD>  (1) 
0.698313057

$$$$
