
     RDKit          3D

 33 35  0  0  1  0  0  0  0  0999 V2000
   47.1980   31.0730   47.4860 N   0  0  0  0  0  0  0  0  0  0  0  0
   47.1840   31.4270   48.9080 C   0  0  0  0  0  0  0  0  0  0  0  0
   45.9000   32.2010   49.0130 C   0  0  0  0  0  0  0  0  0  0  0  0
   44.9340   31.4060   48.1930 C   0  0  0  0  0  0  0  0  0  0  0  0
   45.8810   30.8150   47.1120 C   0  0  2  0  0  0  0  0  0  0  0  0
   45.5190   29.3570   47.0960 C   0  0  0  0  0  0  0  0  0  0  0  0
   46.0200   28.1390   47.5140 C   0  0  0  0  0  0  0  0  0  0  0  0
   45.1370   27.1640   47.1640 C   0  0  0  0  0  0  0  0  0  0  0  0
   44.0990   27.7680   46.5380 N   0  0  0  0  0  0  0  0  0  0  0  0
   44.3350   29.0820   46.5010 N   0  0  0  0  0  0  0  0  0  0  0  0
   45.6180   31.2300   45.8350 O   0  0  0  0  0  0  0  0  0  0  0  0
   46.3960   32.1990   45.1100 C   0  0  0  0  0  0  0  0  0  0  0  0
   47.5400   31.9080   44.7520 O   0  0  0  0  0  0  0  0  0  0  0  0
   44.6190   35.3510   45.6070 C   0  0  0  0  0  0  0  0  0  0  0  0
   44.4500   35.8390   44.3050 C   0  0  0  0  0  0  0  0  0  0  0  0
   44.9550   35.0780   43.2560 C   0  0  0  0  0  0  0  0  0  0  0  0
   45.5850   33.8990   43.5590 N   0  0  0  0  0  0  0  0  0  0  0  0
   45.7130   33.4850   44.8630 C   0  0  0  0  0  0  0  0  0  0  0  0
   45.2390   34.2000   45.8620 N   0  0  0  0  0  0  0  0  0  0  0  0
   44.8440   35.4630   41.9370 O   0  0  0  0  0  0  0  0  0  0  0  0
   47.5755   31.8547   46.9316 H   0  0  0  0  0  0  0  0  0  0  0  0
   47.1656   30.5303   49.5449 H   0  0  0  0  0  0  0  0  0  0  0  0
   48.0720   31.9853   49.2393 H   0  0  0  0  0  0  0  0  0  0  0  0
   45.5658   32.2650   50.0590 H   0  0  0  0  0  0  0  0  0  0  0  0
   46.0001   33.2391   48.6633 H   0  0  0  0  0  0  0  0  0  0  0  0
   44.4552   30.6140   48.7876 H   0  0  0  0  0  0  0  0  0  0  0  0
   44.0931   31.9894   47.7899 H   0  0  0  0  0  0  0  0  0  0  0  0
   46.9728   27.9834   48.0413 H   0  0  0  0  0  0  0  0  0  0  0  0
   45.2462   26.0861   47.3542 H   0  0  0  0  0  0  0  0  0  0  0  0
   43.2683   27.2943   46.1553 H   0  0  0  0  0  0  0  0  0  0  0  0
   44.2256   35.9394   46.4491 H   0  0  0  0  0  0  0  0  0  0  0  0
   43.9348   36.7928   44.1182 H   0  0  0  0  0  0  0  0  0  0  0  0
   44.3911   36.3124   41.7057 H   0  0  0  0  0  0  0  0  0  0  0  0
  1  2  1  0
  2  3  1  0
  4  3  1  0
  5 11  1  6
  5  1  1  0
  5  4  1  0
  6  5  1  0
  6  7  1  0
  8  7  2  0
  9  8  1  0
 10  9  1  0
 10  6  2  0
 12 11  1  0
 13 12  2  0
 14 19  2  0
 15 14  1  0
 16 17  1  0
 16 15  2  0
 17 18  2  0
 18 12  1  0
 18 19  1  0
 20 16  1  0
  1 21  1  0
  2 22  1  0
  2 23  1  0
  3 24  1  0
  3 25  1  0
  4 26  1  0
  4 27  1  0
  7 28  1  0
  8 29  1  0
  9 30  1  0
 14 31  1  0
 15 32  1  0
 20 33  1  0
M  ISO  8  21   5  22  13  23  13  24  13  25  13  26  13  27  13  28  14
M  ISO  5  29  14  30   9  31  14  32  14  33   3
M  END
>  <minimizedAffinity>  (1) 
-4.86431837

>  <minimizedRMSD>  (1) 
0.319925249

$$$$
