
     RDKit          3D

 42 45  0  0  1  0  0  0  0  0999 V2000
   47.0290   30.7680   47.5710 N   0  0  0  0  0  0  0  0  0  0  0  0
   47.0340   31.1010   49.0000 C   0  0  0  0  0  0  0  0  0  0  0  0
   45.8960   32.0620   49.0880 C   0  0  0  0  0  0  0  0  0  0  0  0
   44.8400   31.4300   48.2360 C   0  0  0  0  0  0  0  0  0  0  0  0
   45.7090   30.7170   47.1760 C   0  0  2  0  0  0  0  0  0  0  0  0
   45.1310   29.3300   47.1180 C   0  0  0  0  0  0  0  0  0  0  0  0
   45.1580   28.1610   47.8560 C   0  0  0  0  0  0  0  0  0  0  0  0
   44.3800   27.2430   47.2160 C   0  0  0  0  0  0  0  0  0  0  0  0
   43.8800   27.8270   46.1060 N   0  0  0  0  0  0  0  0  0  0  0  0
   44.3330   29.0870   46.0470 N   0  0  0  0  0  0  0  0  0  0  0  0
   45.5290   31.1890   45.8970 O   0  0  0  0  0  0  0  0  0  0  0  0
   46.3620   32.1490   45.2460 C   0  0  0  0  0  0  0  0  0  0  0  0
   47.5180   31.8480   44.9640 O   0  0  0  0  0  0  0  0  0  0  0  0
   44.6170   35.3330   45.6740 C   0  0  0  0  0  0  0  0  0  0  0  0
   44.5260   35.8270   44.3620 C   0  0  0  0  0  0  0  0  0  0  0  0
   45.0630   35.0670   43.3380 C   0  0  0  0  0  0  0  0  0  0  0  0
   45.6520   33.8750   43.6680 N   0  0  0  0  0  0  0  0  0  0  0  0
   45.7080   33.4490   44.9740 C   0  0  0  0  0  0  0  0  0  0  0  0
   45.1950   34.1720   45.9560 N   0  0  0  0  0  0  0  0  0  0  0  0
   45.0260   35.4590   42.0230 O   0  0  0  0  0  0  0  0  0  0  0  0
   44.0300   35.0080   41.1970 C   0  0  0  0  0  0  0  0  0  0  0  0
   42.7430   35.5260   41.2350 C   0  0  0  0  0  0  0  0  0  0  0  0
   41.7250   35.0710   40.3960 C   0  0  0  0  0  0  0  0  0  0  0  0
   42.1650   34.0690   39.5560 C   0  0  0  0  0  0  0  0  0  0  0  0
   43.4230   33.5300   39.4870 C   0  0  0  0  0  0  0  0  0  0  0  0
   44.3400   34.0300   40.3320 N   0  0  0  0  0  0  0  0  0  0  0  0
   47.5308   31.4918   47.0369 H   0  0  0  0  0  0  0  0  0  0  0  0
   46.8561   30.2102   49.6204 H   0  0  0  0  0  0  0  0  0  0  0  0
   47.9906   31.5059   49.3618 H   0  0  0  0  0  0  0  0  0  0  0  0
   45.5511   32.1693   50.1270 H   0  0  0  0  0  0  0  0  0  0  0  0
   46.1643   33.0761   48.7568 H   0  0  0  0  0  0  0  0  0  0  0  0
   44.2326   30.7141   48.8092 H   0  0  0  0  0  0  0  0  0  0  0  0
   44.1064   32.1373   47.8217 H   0  0  0  0  0  0  0  0  0  0  0  0
   45.7099   28.0003   48.7939 H   0  0  0  0  0  0  0  0  0  0  0  0
   44.1928   26.2102   47.5451 H   0  0  0  0  0  0  0  0  0  0  0  0
   43.2555   27.3795   45.4200 H   0  0  0  0  0  0  0  0  0  0  0  0
   44.1945   35.9292   46.4962 H   0  0  0  0  0  0  0  0  0  0  0  0
   44.0408   36.7921   44.1543 H   0  0  0  0  0  0  0  0  0  0  0  0
   42.5165   36.3265   41.9546 H   0  0  0  0  0  0  0  0  0  0  0  0
   40.6974   35.4633   40.4035 H   0  0  0  0  0  0  0  0  0  0  0  0
   41.4197   33.6547   38.8611 H   0  0  0  0  0  0  0  0  0  0  0  0
   43.6696   32.7282   38.7755 H   0  0  0  0  0  0  0  0  0  0  0  0
  1  2  1  0
  2  3  1  0
  4  3  1  0
  5 11  1  6
  5  1  1  0
  5  4  1  0
  6  5  1  0
  6  7  1  0
  8  7  2  0
  9  8  1  0
 10  9  1  0
 10  6  2  0
 12 11  1  0
 13 12  2  0
 14 19  2  0
 15 14  1  0
 16 17  1  0
 16 15  2  0
 17 18  2  0
 18 12  1  0
 18 19  1  0
 20 16  1  0
 21 22  2  0
 21 20  1  0
 23 22  1  0
 24 23  2  0
 25 24  1  0
 25 26  2  0
 26 21  1  0
  1 27  1  0
  2 28  1  0
  2 29  1  0
  3 30  1  0
  3 31  1  0
  4 32  1  0
  4 33  1  0
  7 34  1  0
  8 35  1  0
  9 36  1  0
 14 37  1  0
 15 38  1  0
 22 39  1  0
 23 40  1  0
 24 41  1  0
 25 42  1  0
M  ISO  8  27   5  28  13  29  13  30  13  31  13  32  13  33  13  34  14
M  ISO  8  35  14  36   9  37  14  38  14  39  14  40  14  41  14  42  14
M  END
>  <minimizedAffinity>  (1) 
-5.78125858

>  <minimizedRMSD>  (1) 
1.6138221

$$$$
