
     RDKit          3D

 45 48  0  0  1  0  0  0  0  0999 V2000
   46.9880   30.6480   47.8010 N   0  0  0  0  0  0  0  0  0  0  0  0
   46.9190   31.0130   49.2210 C   0  0  0  0  0  0  0  0  0  0  0  0
   45.7840   31.9810   49.2240 C   0  0  0  0  0  0  0  0  0  0  0  0
   44.7690   31.3340   48.3350 C   0  0  0  0  0  0  0  0  0  0  0  0
   45.6850   30.5890   47.3420 C   0  0  2  0  0  0  0  0  0  0  0  0
   45.1040   29.2120   47.2820 C   0  0  0  0  0  0  0  0  0  0  0  0
   45.1350   28.0360   48.0210 C   0  0  0  0  0  0  0  0  0  0  0  0
   44.3500   27.1180   47.3850 C   0  0  0  0  0  0  0  0  0  0  0  0
   43.8470   27.7110   46.2790 N   0  0  0  0  0  0  0  0  0  0  0  0
   44.2990   28.9650   46.2170 N   0  0  0  0  0  0  0  0  0  0  0  0
   45.5790   31.0300   46.0410 O   0  0  0  0  0  0  0  0  0  0  0  0
   46.5430   31.8510   45.3620 C   0  0  0  0  0  0  0  0  0  0  0  0
   47.6790   31.4230   45.1970 O   0  0  0  0  0  0  0  0  0  0  0  0
   44.8640   35.0980   45.2860 C   0  0  0  0  0  0  0  0  0  0  0  0
   45.1460   35.5730   44.0030 C   0  0  0  0  0  0  0  0  0  0  0  0
   45.9100   34.7820   43.1650 C   0  0  0  0  0  0  0  0  0  0  0  0
   46.3410   33.5800   43.6510 N   0  0  0  0  0  0  0  0  0  0  0  0
   46.0300   33.1710   44.9230 C   0  0  0  0  0  0  0  0  0  0  0  0
   45.3070   33.9180   45.7160 N   0  0  0  0  0  0  0  0  0  0  0  0
   46.2470   35.1530   41.8780 O   0  0  0  0  0  0  0  0  0  0  0  0
   46.1170   34.0460   39.7830 N   0  0  0  0  0  0  0  0  0  0  0  0
   47.1290   33.3970   38.9480 C   0  0  0  0  0  0  0  0  0  0  0  0
   48.2320   34.4490   39.0060 C   0  0  0  0  0  0  0  0  0  0  0  0
   48.1760   34.8260   40.4880 C   0  0  0  0  0  0  0  0  0  0  0  0
   46.8810   34.2440   41.0120 C   0  0  1  0  0  0  0  0  0  0  0  0
   47.5171   31.3596   47.2769 H   0  0  0  0  0  0  0  0  0  0  0  0
   46.7023   30.1376   49.8509 H   0  0  0  0  0  0  0  0  0  0  0  0
   47.8572   31.4204   49.6256 H   0  0  0  0  0  0  0  0  0  0  0  0
   45.3863   32.1171   50.2405 H   0  0  0  0  0  0  0  0  0  0  0  0
   46.0763   32.9842   48.8804 H   0  0  0  0  0  0  0  0  0  0  0  0
   44.1270   30.6373   48.8940 H   0  0  0  0  0  0  0  0  0  0  0  0
   44.0634   32.0349   47.8649 H   0  0  0  0  0  0  0  0  0  0  0  0
   45.6938   27.8732   48.9544 H   0  0  0  0  0  0  0  0  0  0  0  0
   44.1612   26.0850   47.7124 H   0  0  0  0  0  0  0  0  0  0  0  0
   43.2173   27.2670   45.5954 H   0  0  0  0  0  0  0  0  0  0  0  0
   44.2571   35.7179   45.9623 H   0  0  0  0  0  0  0  0  0  0  0  0
   44.7700   36.5510   43.6681 H   0  0  0  0  0  0  0  0  0  0  0  0
   45.3008   33.4365   39.9356 H   0  0  0  0  0  0  0  0  0  0  0  0
   46.7700   33.2378   37.9205 H   0  0  0  0  0  0  0  0  0  0  0  0
   47.4287   32.3918   39.2792 H   0  0  0  0  0  0  0  0  0  0  0  0
   49.2102   34.0281   38.7302 H   0  0  0  0  0  0  0  0  0  0  0  0
   48.0998   35.2922   38.3120 H   0  0  0  0  0  0  0  0  0  0  0  0
   49.0343   34.3964   41.0254 H   0  0  0  0  0  0  0  0  0  0  0  0
   48.2174   35.9159   40.6307 H   0  0  0  0  0  0  0  0  0  0  0  0
   47.0026   33.3227   41.6006 H   0  0  0  0  0  0  0  0  0  0  0  0
  1  2  1  0
  2  3  1  0
  4  3  1  0
  5 11  1  6
  5  1  1  0
  5  4  1  0
  6  5  1  0
  6  7  1  0
  8  7  2  0
  9  8  1  0
 10  9  1  0
 10  6  2  0
 12 11  1  0
 13 12  2  0
 14 19  2  0
 15 14  1  0
 16 17  1  0
 16 15  2  0
 17 18  2  0
 18 12  1  0
 18 19  1  0
 20 16  1  0
 21 25  1  0
 22 23  1  0
 22 21  1  0
 23 24  1  0
 24 25  1  0
 25 20  1  0
  1 26  1  0
  2 27  1  0
  2 28  1  0
  3 29  1  0
  3 30  1  0
  4 31  1  0
  4 32  1  0
  7 33  1  0
  8 34  1  0
  9 35  1  0
 14 36  1  0
 15 37  1  0
 21 38  1  0
 22 39  1  0
 22 40  1  0
 23 41  1  0
 23 42  1  0
 24 43  1  0
 24 44  1  0
 25 45  1  1
M  ISO  8  26   5  27  13  28  13  29  13  30  13  31  13  32  13  33  14
M  ISO  8  34  14  35   9  36  14  37  14  38   5  39  13  40  13  41  13
M  ISO  4  42  13  43  13  44  13  45  13
M  END
>  <minimizedAffinity>  (1) 
-5.76905203

>  <minimizedRMSD>  (1) 
0.899401307

$$$$
