
     RDKit          3D

 48 51  0  0  1  0  0  0  0  0999 V2000
   47.0280   30.7780   47.6080 N   0  0  0  0  0  0  0  0  0  0  0  0
   47.0180   31.1340   49.0330 C   0  0  0  0  0  0  0  0  0  0  0  0
   45.8750   32.0900   49.0900 C   0  0  0  0  0  0  0  0  0  0  0  0
   44.8260   31.4360   48.2400 C   0  0  0  0  0  0  0  0  0  0  0  0
   45.6990   30.6980   47.1950 C   0  0  2  0  0  0  0  0  0  0  0  0
   45.1360   29.3230   47.1680 C   0  0  0  0  0  0  0  0  0  0  0  0
   45.1900   28.1570   47.9150 C   0  0  0  0  0  0  0  0  0  0  0  0
   44.4050   27.2270   47.3180 C   0  0  0  0  0  0  0  0  0  0  0  0
   43.8670   27.8050   46.2100 N   0  0  0  0  0  0  0  0  0  0  0  0
   44.3130   29.0610   46.1340 N   0  0  0  0  0  0  0  0  0  0  0  0
   45.5430   31.1480   45.9200 O   0  0  0  0  0  0  0  0  0  0  0  0
   46.3830   32.1120   45.2530 C   0  0  0  0  0  0  0  0  0  0  0  0
   47.5620   31.8330   45.0330 O   0  0  0  0  0  0  0  0  0  0  0  0
   44.6470   35.3220   45.4600 C   0  0  0  0  0  0  0  0  0  0  0  0
   44.4420   35.6690   44.1210 C   0  0  0  0  0  0  0  0  0  0  0  0
   44.9060   34.7910   43.1600 C   0  0  0  0  0  0  0  0  0  0  0  0
   45.5300   33.6480   43.5620 N   0  0  0  0  0  0  0  0  0  0  0  0
   45.6950   33.3750   44.8980 C   0  0  0  0  0  0  0  0  0  0  0  0
   45.2610   34.1960   45.8200 N   0  0  0  0  0  0  0  0  0  0  0  0
   44.7530   35.0450   41.8070 O   0  0  0  0  0  0  0  0  0  0  0  0
   40.7800   34.0820   41.2630 N   0  0  0  0  0  0  0  0  0  0  0  0
   41.7540   33.1970   40.6530 C   0  0  0  0  0  0  0  0  0  0  0  0
   43.0360   33.3630   41.4810 C   0  0  0  0  0  0  0  0  0  0  0  0
   43.6770   34.6390   41.0070 C   0  0  0  0  0  0  0  0  0  0  0  0
   42.6040   35.6800   40.8740 C   0  0  0  0  0  0  0  0  0  0  0  0
   41.3520   35.3420   41.6560 C   0  0  0  0  0  0  0  0  0  0  0  0
   47.5230   31.5012   47.0668 H   0  0  0  0  0  0  0  0  0  0  0  0
   46.8375   30.2530   49.6664 H   0  0  0  0  0  0  0  0  0  0  0  0
   47.9689   31.5480   49.3995 H   0  0  0  0  0  0  0  0  0  0  0  0
   45.5202   32.2170   50.1235 H   0  0  0  0  0  0  0  0  0  0  0  0
   46.1425   33.0977   48.7393 H   0  0  0  0  0  0  0  0  0  0  0  0
   44.2157   30.7317   48.8244 H   0  0  0  0  0  0  0  0  0  0  0  0
   44.0978   32.1362   47.8048 H   0  0  0  0  0  0  0  0  0  0  0  0
   45.7718   28.0108   48.8370 H   0  0  0  0  0  0  0  0  0  0  0  0
   44.2347   26.1971   47.6647 H   0  0  0  0  0  0  0  0  0  0  0  0
   43.2255   27.3513   45.5440 H   0  0  0  0  0  0  0  0  0  0  0  0
   44.2880   36.0039   46.2449 H   0  0  0  0  0  0  0  0  0  0  0  0
   43.9319   36.6033   43.8438 H   0  0  0  0  0  0  0  0  0  0  0  0
   40.3915   33.6206   42.0979 H   0  0  0  0  0  0  0  0  0  0  0  0
   41.4037   32.1550   40.6919 H   0  0  0  0  0  0  0  0  0  0  0  0
   41.9189   33.4409   39.5931 H   0  0  0  0  0  0  0  0  0  0  0  0
   42.7926   33.4328   42.5515 H   0  0  0  0  0  0  0  0  0  0  0  0
   43.7104   32.5033   41.3539 H   0  0  0  0  0  0  0  0  0  0  0  0
   44.1375   34.4719   40.0221 H   0  0  0  0  0  0  0  0  0  0  0  0
   42.9985   36.6390   41.2411 H   0  0  0  0  0  0  0  0  0  0  0  0
   42.3247   35.7309   39.8113 H   0  0  0  0  0  0  0  0  0  0  0  0
   40.6075   36.1345   41.4896 H   0  0  0  0  0  0  0  0  0  0  0  0
   41.6314   35.2656   42.7172 H   0  0  0  0  0  0  0  0  0  0  0  0
  1  2  1  0
  2  3  1  0
  4  3  1  0
  5 11  1  6
  5  1  1  0
  5  4  1  0
  6  5  1  0
  6  7  1  0
  8  7  2  0
  9  8  1  0
 10  9  1  0
 10  6  2  0
 12 11  1  0
 13 12  2  0
 14 19  2  0
 15 14  1  0
 16 17  1  0
 16 15  2  0
 17 18  2  0
 18 12  1  0
 18 19  1  0
 20 16  1  0
 21 26  1  0
 22 21  1  0
 22 23  1  0
 24 23  1  0
 24 20  1  0
 25 24  1  0
 25 26  1  0
  1 27  1  0
  2 28  1  0
  2 29  1  0
  3 30  1  0
  3 31  1  0
  4 32  1  0
  4 33  1  0
  7 34  1  0
  8 35  1  0
  9 36  1  0
 14 37  1  0
 15 38  1  0
 21 39  1  0
 22 40  1  0
 22 41  1  0
 23 42  1  0
 23 43  1  0
 24 44  1  0
 25 45  1  0
 25 46  1  0
 26 47  1  0
 26 48  1  0
M  ISO  8  27   5  28  13  29  13  30  13  31  13  32  13  33  13  34  14
M  ISO  8  35  14  36   9  37  14  38  14  39   5  40  13  41  13  42  13
M  ISO  6  43  13  44  13  45  13  46  13  47  13  48  13
M  END
>  <minimizedAffinity>  (1) 
-5.70808411

>  <minimizedRMSD>  (1) 
1.6832813

$$$$
