
     RDKit          3D

 38 41  0  0  1  0  0  0  0  0999 V2000
   47.0300   30.7780   47.5720 N   0  0  0  0  0  0  0  0  0  0  0  0
   47.0340   31.1150   49.0020 C   0  0  0  0  0  0  0  0  0  0  0  0
   45.8940   32.0720   49.0850 C   0  0  0  0  0  0  0  0  0  0  0  0
   44.8380   31.4360   48.2370 C   0  0  0  0  0  0  0  0  0  0  0  0
   45.7070   30.7220   47.1800 C   0  0  2  0  0  0  0  0  0  0  0  0
   45.1310   29.3410   47.1200 C   0  0  0  0  0  0  0  0  0  0  0  0
   45.1600   28.1670   47.8600 C   0  0  0  0  0  0  0  0  0  0  0  0
   44.3840   27.2470   47.2250 C   0  0  0  0  0  0  0  0  0  0  0  0
   43.8800   27.8330   46.1110 N   0  0  0  0  0  0  0  0  0  0  0  0
   44.3310   29.0900   46.0520 N   0  0  0  0  0  0  0  0  0  0  0  0
   45.5340   31.1950   45.9020 O   0  0  0  0  0  0  0  0  0  0  0  0
   46.3760   32.1540   45.2410 C   0  0  0  0  0  0  0  0  0  0  0  0
   47.5260   31.8510   44.9660 O   0  0  0  0  0  0  0  0  0  0  0  0
   44.6170   35.3340   45.6380 C   0  0  0  0  0  0  0  0  0  0  0  0
   44.5280   35.8200   44.3300 C   0  0  0  0  0  0  0  0  0  0  0  0
   45.0720   35.0550   43.3160 C   0  0  0  0  0  0  0  0  0  0  0  0
   45.6640   33.8660   43.6560 N   0  0  0  0  0  0  0  0  0  0  0  0
   45.7140   33.4540   44.9640 C   0  0  0  0  0  0  0  0  0  0  0  0
   45.2020   34.1750   45.9270 N   0  0  0  0  0  0  0  0  0  0  0  0
   45.0390   35.4360   41.9960 O   0  0  0  0  0  0  0  0  0  0  0  0
   43.9480   35.0670   41.2240 C   0  0  0  0  0  0  0  0  0  0  0  0
   43.9470   34.1050   40.2860 N   0  0  0  0  0  0  0  0  0  0  0  0
   42.7640   34.0340   39.7720 O   0  0  0  0  0  0  0  0  0  0  0  0
   41.9600   34.9160   40.3310 C   0  0  0  0  0  0  0  0  0  0  0  0
   42.7120   35.5640   41.2460 N   0  0  0  0  0  0  0  0  0  0  0  0
   47.5286   31.5021   47.0355 H   0  0  0  0  0  0  0  0  0  0  0  0
   46.8582   30.2256   49.6249 H   0  0  0  0  0  0  0  0  0  0  0  0
   47.9893   31.5229   49.3640 H   0  0  0  0  0  0  0  0  0  0  0  0
   45.5494   32.1831   50.1237 H   0  0  0  0  0  0  0  0  0  0  0  0
   46.1606   33.0845   48.7477 H   0  0  0  0  0  0  0  0  0  0  0  0
   44.2324   30.7210   48.8132 H   0  0  0  0  0  0  0  0  0  0  0  0
   44.1023   32.1403   47.8214 H   0  0  0  0  0  0  0  0  0  0  0  0
   45.7140   28.0080   48.7969 H   0  0  0  0  0  0  0  0  0  0  0  0
   44.1990   26.2143   47.5558 H   0  0  0  0  0  0  0  0  0  0  0  0
   43.2550   27.3851   45.4257 H   0  0  0  0  0  0  0  0  0  0  0  0
   44.1883   35.9309   46.4565 H   0  0  0  0  0  0  0  0  0  0  0  0
   44.0398   36.7820   44.1148 H   0  0  0  0  0  0  0  0  0  0  0  0
   40.8983   35.0882   40.1003 H   0  0  0  0  0  0  0  0  0  0  0  0
  1  2  1  0
  2  3  1  0
  4  3  1  0
  5 11  1  6
  5  1  1  0
  5  4  1  0
  6  5  1  0
  6  7  1  0
  8  7  2  0
  9  8  1  0
 10  9  1  0
 10  6  2  0
 12 11  1  0
 13 12  2  0
 14 19  2  0
 15 14  1  0
 16 17  1  0
 16 15  2  0
 17 18  2  0
 18 12  1  0
 18 19  1  0
 20 16  1  0
 21 25  1  0
 21 20  1  0
 22 21  2  0
 23 22  1  0
 23 24  1  0
 24 25  2  0
  1 26  1  0
  2 27  1  0
  2 28  1  0
  3 29  1  0
  3 30  1  0
  4 31  1  0
  4 32  1  0
  7 33  1  0
  8 34  1  0
  9 35  1  0
 14 36  1  0
 15 37  1  0
 24 38  1  0
M  ISO  8  26   5  27  13  28  13  29  13  30  13  31  13  32  13  33  14
M  ISO  5  34  14  35   9  36  14  37  14  38  14
M  END
>  <minimizedAffinity>  (1) 
-5.53826857

>  <minimizedRMSD>  (1) 
1.51048124

$$$$
