
     RDKit          3D

 30 32  0  0  0  0  0  0  0  0999 V2000
   47.6230   33.0310   43.3440 C   0  0  0  0  0  0  0  0  0  0  0  0
   46.6030   33.7970   44.0770 C   0  0  0  0  0  0  0  0  0  0  0  0
   45.9500   34.8740   43.5690 N   0  0  0  0  0  0  0  0  0  0  0  0
   44.9980   35.5260   44.2740 C   0  0  0  0  0  0  0  0  0  0  0  0
   44.6580   35.1330   45.5130 N   0  0  0  0  0  0  0  0  0  0  0  0
   45.2660   34.0730   46.0790 C   0  0  0  0  0  0  0  0  0  0  0  0
   44.9060   33.6870   47.3710 C   0  0  0  0  0  0  0  0  0  0  0  0
   45.5380   32.6040   47.9570 C   0  0  0  0  0  0  0  0  0  0  0  0
   46.5240   31.9180   47.2470 C   0  0  0  0  0  0  0  0  0  0  0  0
   46.8240   32.3610   45.9750 C   0  0  0  0  0  0  0  0  0  0  0  0
   46.2370   33.4140   45.3520 C   0  0  0  0  0  0  0  0  0  0  0  0
   48.6770   33.9450   42.7630 C   0  0  0  0  0  0  0  0  0  0  0  0
   48.9520   32.6370   40.6630 C   0  0  0  0  0  0  0  0  0  0  0  0
   49.5140   33.1560   41.8610 C   0  0  0  0  0  0  0  0  0  0  0  0
   50.8630   32.8720   42.1060 C   0  0  0  0  0  0  0  0  0  0  0  0
   51.5490   32.1260   41.1990 N   0  0  0  0  0  0  0  0  0  0  0  0
   50.9860   31.6550   40.0830 C   0  0  0  0  0  0  0  0  0  0  0  0
   49.7030   31.9130   39.8270 N   0  0  0  0  0  0  0  0  0  0  0  0
   48.1035   32.3212   44.0334 H   0  0  0  0  0  0  0  0  0  0  0  0
   47.1314   32.4956   42.5184 H   0  0  0  0  0  0  0  0  0  0  0  0
   44.4928   36.3938   43.8250 H   0  0  0  0  0  0  0  0  0  0  0  0
   44.1273   34.2383   47.9184 H   0  0  0  0  0  0  0  0  0  0  0  0
   45.2652   32.2867   48.9743 H   0  0  0  0  0  0  0  0  0  0  0  0
   47.0442   31.0539   47.6861 H   0  0  0  0  0  0  0  0  0  0  0  0
   47.6025   31.8161   45.4208 H   0  0  0  0  0  0  0  0  0  0  0  0
   48.1959   34.7624   42.2060 H   0  0  0  0  0  0  0  0  0  0  0  0
   49.2883   34.3815   43.5666 H   0  0  0  0  0  0  0  0  0  0  0  0
   47.8963   32.8316   40.4231 H   0  0  0  0  0  0  0  0  0  0  0  0
   51.3584   33.2450   43.0145 H   0  0  0  0  0  0  0  0  0  0  0  0
   51.5794   31.0557   39.3768 H   0  0  0  0  0  0  0  0  0  0  0  0
  1  2  1  0
  2 11  1  0
  3  2  2  0
  3  4  1  0
  4  5  2  0
  5  6  1  0
  6  7  2  0
  7  8  1  0
  9  8  2  0
 10  9  1  0
 11 10  2  0
 11  6  1  0
 12  1  1  0
 13 14  2  0
 14 15  1  0
 14 12  1  0
 16 15  2  0
 17 16  1  0
 18 17  2  0
 18 13  1  0
  1 19  1  0
  1 20  1  0
  4 21  1  0
  7 22  1  0
  8 23  1  0
  9 24  1  0
 10 25  1  0
 12 26  1  0
 12 27  1  0
 13 28  1  0
 15 29  1  0
 17 30  1  0
M  ISO  8  19   8  20   8  21  14  22  14  23  14  24  14  25  14  26   8
M  ISO  4  27   8  28  14  29  14  30  14
M  END
>  <minimizedAffinity>  (1) 
-4.88730717

>  <minimizedRMSD>  (1) 
7.05438042

$$$$
