
     RDKit          3D

 30 32  0  0  0  0  0  0  0  0999 V2000
   47.7130   32.2630   44.1720 C   0  0  0  0  0  0  0  0  0  0  0  0
   46.8720   32.9890   43.2510 N   0  0  0  0  0  0  0  0  0  0  0  0
   46.7850   32.9640   41.9230 C   0  0  0  0  0  0  0  0  0  0  0  0
   45.8390   33.8310   41.5130 N   0  0  0  0  0  0  0  0  0  0  0  0
   45.2950   34.4370   42.6090 C   0  0  0  0  0  0  0  0  0  0  0  0
   44.3150   35.3830   42.7670 C   0  0  0  0  0  0  0  0  0  0  0  0
   43.7160   35.8730   41.7840 O   0  0  0  0  0  0  0  0  0  0  0  0
   43.9630   35.8160   43.9970 N   0  0  0  0  0  0  0  0  0  0  0  0
   44.6320   35.2630   45.0330 C   0  0  0  0  0  0  0  0  0  0  0  0
   44.3140   35.6720   46.3390 N   0  0  0  0  0  0  0  0  0  0  0  0
   45.6050   34.3290   44.9410 N   0  0  0  0  0  0  0  0  0  0  0  0
   45.9600   33.8920   43.7010 C   0  0  0  0  0  0  0  0  0  0  0  0
   46.8560   31.1790   44.8100 C   0  0  0  0  0  0  0  0  0  0  0  0
   47.0790   32.1980   47.0480 C   0  0  0  0  0  0  0  0  0  0  0  0
   47.1980   31.0790   46.2130 C   0  0  0  0  0  0  0  0  0  0  0  0
   47.6510   29.8960   46.7920 C   0  0  0  0  0  0  0  0  0  0  0  0
   47.9500   29.8970   48.1260 N   0  0  0  0  0  0  0  0  0  0  0  0
   47.8250   30.9900   48.9000 C   0  0  0  0  0  0  0  0  0  0  0  0
   47.3870   32.1410   48.3490 N   0  0  0  0  0  0  0  0  0  0  0  0
   48.0978   32.9430   44.9463 H   0  0  0  0  0  0  0  0  0  0  0  0
   48.5732   31.8210   43.6480 H   0  0  0  0  0  0  0  0  0  0  0  0
   47.3936   32.3310   41.2605 H   0  0  0  0  0  0  0  0  0  0  0  0
   43.2290   36.5249   44.1370 H   0  0  0  0  0  0  0  0  0  0  0  0
   44.8121   35.2629   47.1424 H   0  0  0  0  0  0  0  0  0  0  0  0
   43.5828   36.3809   46.4930 H   0  0  0  0  0  0  0  0  0  0  0  0
   45.7924   31.4399   44.7065 H   0  0  0  0  0  0  0  0  0  0  0  0
   47.0393   30.2159   44.3112 H   0  0  0  0  0  0  0  0  0  0  0  0
   46.7231   33.1481   46.6229 H   0  0  0  0  0  0  0  0  0  0  0  0
   47.7655   28.9824   46.1901 H   0  0  0  0  0  0  0  0  0  0  0  0
   48.0770   30.9459   49.9698 H   0  0  0  0  0  0  0  0  0  0  0  0
  1 13  1  0
  2 12  1  0
  2  1  1  0
  3  2  1  0
  4  3  2  0
  4  5  1  0
  5  6  1  0
  5 12  2  0
  6  8  1  0
  7  6  2  0
  8  9  1  0
  9 10  1  0
 11  9  2  0
 12 11  1  0
 13 15  1  0
 14 19  2  0
 15 16  2  0
 15 14  1  0
 16 17  1  0
 17 18  2  0
 19 18  1  0
  1 20  1  0
  1 21  1  0
  3 22  1  0
  8 23  1  0
 10 24  1  0
 10 25  1  0
 13 26  1  0
 13 27  1  0
 14 28  1  0
 16 29  1  0
 18 30  1  0
M  ISO  8  20   8  21   8  22  14  23   9  26   8  27   8  28  14  29  14
M  ISO  1  30  14
M  END
>  <minimizedAffinity>  (1) 
-5.39368534

>  <minimizedRMSD>  (1) 
6.04889584

$$$$
