
     RDKit          3D

 23 24  0  0  0  0  0  0  0  0999 V2000
   46.9030   34.5150   41.7750 C   0  0  0  0  0  0  0  0  0  0  0  0
   45.3770   35.9240   43.0650 C   0  0  0  0  0  0  0  0  0  0  0  0
   46.1610   34.7680   42.9820 C   0  0  0  0  0  0  0  0  0  0  0  0
   46.1730   33.9160   44.0790 C   0  0  0  0  0  0  0  0  0  0  0  0
   45.4190   34.2530   45.1740 N   0  0  0  0  0  0  0  0  0  0  0  0
   44.6710   35.3830   45.2170 C   0  0  0  0  0  0  0  0  0  0  0  0
   44.6510   36.2070   44.1730 N   0  0  0  0  0  0  0  0  0  0  0  0
   48.1230   35.4200   41.7510 C   0  0  0  0  0  0  0  0  0  0  0  0
   49.2920   34.5120   41.9890 C   0  0  0  0  0  0  0  0  0  0  0  0
   49.2800   33.2390   41.4490 C   0  0  0  0  0  0  0  0  0  0  0  0
   50.4560   32.5820   41.7970 C   0  0  0  0  0  0  0  0  0  0  0  0
   51.1340   33.5000   42.5400 N   0  0  0  0  0  0  0  0  0  0  0  0
   50.4690   34.6390   42.6660 N   0  0  0  0  0  0  0  0  0  0  0  0
   47.2228   33.4628   41.7514 H   0  0  0  0  0  0  0  0  0  0  0  0
   46.2704   34.7175   40.8982 H   0  0  0  0  0  0  0  0  0  0  0  0
   45.3496   36.6180   42.2120 H   0  0  0  0  0  0  0  0  0  0  0  0
   46.7725   32.9937   44.0697 H   0  0  0  0  0  0  0  0  0  0  0  0
   44.0809   35.6183   46.1150 H   0  0  0  0  0  0  0  0  0  0  0  0
   48.2143   35.9182   40.7746 H   0  0  0  0  0  0  0  0  0  0  0  0
   48.0596   36.2150   42.5086 H   0  0  0  0  0  0  0  0  0  0  0  0
   48.4687   32.8131   40.8404 H   0  0  0  0  0  0  0  0  0  0  0  0
   50.7657   31.5599   41.5335 H   0  0  0  0  0  0  0  0  0  0  0  0
   52.0599   33.3282   42.9572 H   0  0  0  0  0  0  0  0  0  0  0  0
  1  3  1  0
  2  7  2  0
  3  2  1  0
  3  4  2  0
  4  5  1  0
  5  6  2  0
  7  6  1  0
  8  1  1  0
  8  9  1  0
  9 13  2  0
 10 11  2  0
 10  9  1  0
 11 12  1  0
 12 13  1  0
  1 14  1  0
  1 15  1  0
  2 16  1  0
  4 17  1  0
  6 18  1  0
  8 19  1  0
  8 20  1  0
 10 21  1  0
 11 22  1  0
 12 23  1  0
M  ISO  8  14   8  15   8  16  14  17  14  18  14  19   8  20   8  21  14
M  ISO  2  22  14  23   9
M  END
>  <minimizedAffinity>  (1) 
-4.63696718

>  <minimizedRMSD>  (1) 
2.72201419

$$$$
