
     RDKit          3D

 23 24  0  0  0  0  0  0  0  0999 V2000
   45.7550   34.4560   41.1850 C   0  0  0  0  0  0  0  0  0  0  0  0
   47.0310   34.8940   41.5570 C   0  0  0  0  0  0  0  0  0  0  0  0
   48.1280   34.4870   40.7740 C   0  0  0  0  0  0  0  0  0  0  0  0
   47.8870   33.6910   39.6990 N   0  0  0  0  0  0  0  0  0  0  0  0
   46.6290   33.2910   39.3790 C   0  0  0  0  0  0  0  0  0  0  0  0
   45.6040   33.6820   40.1270 N   0  0  0  0  0  0  0  0  0  0  0  0
   46.4640   32.4210   38.1880 C   0  0  0  0  0  0  0  0  0  0  0  0
   45.9530   33.1880   36.9620 C   0  0  0  0  0  0  0  0  0  0  0  0
   47.3420   32.5520   37.0090 C   0  0  0  0  0  0  0  0  0  0  0  0
   44.6340   34.8830   42.0010 C   0  0  0  0  0  0  0  0  0  0  0  0
   43.7990   35.7130   41.5140 O   0  0  0  0  0  0  0  0  0  0  0  0
   44.5090   34.3640   43.3040 O   0  0  0  0  0  0  0  0  0  0  0  0
   45.0810   35.0820   44.3630 C   0  0  0  0  0  0  0  0  0  0  0  0
   44.2350   35.1700   45.4650 F   0  0  0  0  0  0  0  0  0  0  0  0
   46.2570   34.4890   44.7630 F   0  0  0  0  0  0  0  0  0  0  0  0
   45.3190   36.3690   43.8970 F   0  0  0  0  0  0  0  0  0  0  0  0
   47.1730   35.5386   42.4370 H   0  0  0  0  0  0  0  0  0  0  0  0
   49.1509   34.8042   41.0251 H   0  0  0  0  0  0  0  0  0  0  0  0
   46.1844   31.5401   38.7845 H   0  0  0  0  0  0  0  0  0  0  0  0
   45.8403   34.2816   36.9970 H   0  0  0  0  0  0  0  0  0  0  0  0
   45.0770   33.1280   36.2994 H   0  0  0  0  0  0  0  0  0  0  0  0
   47.5599   31.6695   36.3895 H   0  0  0  0  0  0  0  0  0  0  0  0
   48.3647   32.9240   36.8485 H   0  0  0  0  0  0  0  0  0  0  0  0
  1  2  2  0
  1 10  1  0
  3  2  1  0
  4  3  2  0
  5  4  1  0
  5  6  2  0
  6  1  1  0
  7  5  1  0
  8  9  1  0
  8  7  1  0
  9  7  1  0
 10 12  1  0
 11 10  2  0
 12 13  1  0
 13 15  1  0
 13 14  1  0
 16 13  1  0
  2 17  1  0
  3 18  1  0
  7 19  1  0
  8 20  1  0
  8 21  1  0
  9 22  1  0
  9 23  1  0
M  ISO  7  17  14  18  14  19  13  20  13  21  13  22  13  23  13
M  END
>  <minimizedAffinity>  (1) 
-3.83376741

>  <minimizedRMSD>  (1) 
0.615183711

$$$$
