
     RDKit          3D

 31 32  0  0  0  0  0  0  0  0999 V2000
   47.0590   34.7810   42.0020 C   0  0  0  0  0  0  0  0  0  0  0  0
   45.3720   36.0210   43.2760 C   0  0  0  0  0  0  0  0  0  0  0  0
   46.2110   34.9040   43.1920 C   0  0  0  0  0  0  0  0  0  0  0  0
   46.1790   34.0120   44.2560 C   0  0  0  0  0  0  0  0  0  0  0  0
   45.3550   34.2570   45.3010 N   0  0  0  0  0  0  0  0  0  0  0  0
   44.5600   35.3530   45.3370 C   0  0  0  0  0  0  0  0  0  0  0  0
   44.5600   36.2300   44.3430 N   0  0  0  0  0  0  0  0  0  0  0  0
   48.5070   34.6300   42.5010 C   0  0  0  0  0  0  0  0  0  0  0  0
   49.2300   33.7560   41.5870 N   0  0  0  0  0  0  0  0  0  0  0  0
   48.4950   32.5170   41.4970 C   0  0  0  0  0  0  0  0  0  0  0  0
   48.7270   31.7110   42.7500 C   0  0  0  0  0  0  0  0  0  0  0  0
   50.1070   31.0780   42.6100 C   0  0  0  0  0  0  0  0  0  0  0  0
   51.0350   32.1100   42.0050 C   0  0  0  0  0  0  0  0  0  0  0  0
   50.5230   33.5100   42.2050 C   0  0  0  0  0  0  0  0  0  0  0  0
   46.9661   35.6809   41.3762 H   0  0  0  0  0  0  0  0  0  0  0  0
   46.7597   33.9160   41.3920 H   0  0  0  0  0  0  0  0  0  0  0  0
   45.3707   36.7509   42.4530 H   0  0  0  0  0  0  0  0  0  0  0  0
   46.8168   33.1158   44.2493 H   0  0  0  0  0  0  0  0  0  0  0  0
   43.9042   35.5179   46.2046 H   0  0  0  0  0  0  0  0  0  0  0  0
   48.9925   35.6166   42.5308 H   0  0  0  0  0  0  0  0  0  0  0  0
   48.5105   34.1978   43.5125 H   0  0  0  0  0  0  0  0  0  0  0  0
   47.4215   32.7328   41.3918 H   0  0  0  0  0  0  0  0  0  0  0  0
   48.8383   31.9463   40.6215 H   0  0  0  0  0  0  0  0  0  0  0  0
   48.6973   32.3656   43.6335 H   0  0  0  0  0  0  0  0  0  0  0  0
   47.9493   30.9438   42.8784 H   0  0  0  0  0  0  0  0  0  0  0  0
   50.4805   30.7741   43.5990 H   0  0  0  0  0  0  0  0  0  0  0  0
   50.0555   30.1866   41.9676 H   0  0  0  0  0  0  0  0  0  0  0  0
   51.1278   31.9159   40.9262 H   0  0  0  0  0  0  0  0  0  0  0  0
   52.0100   32.0284   42.5078 H   0  0  0  0  0  0  0  0  0  0  0  0
   51.2526   34.2110   41.7735 H   0  0  0  0  0  0  0  0  0  0  0  0
   50.3926   33.6517   43.2880 H   0  0  0  0  0  0  0  0  0  0  0  0
  1  8  1  0
  1  3  1  0
  2  7  2  0
  3  2  1  0
  3  4  2  0
  4  5  1  0
  5  6  2  0
  7  6  1  0
  9 14  1  0
  9  8  1  0
 10  9  1  0
 10 11  1  0
 12 11  1  0
 13 14  1  0
 13 12  1  0
  1 15  1  0
  1 16  1  0
  2 17  1  0
  4 18  1  0
  6 19  1  0
  8 20  1  0
  8 21  1  0
 10 22  1  0
 10 23  1  0
 11 24  1  0
 11 25  1  0
 12 26  1  0
 12 27  1  0
 13 28  1  0
 13 29  1  0
 14 30  1  0
 14 31  1  0
M  ISO  8  15   8  16   8  17  14  18  14  19  14  20   8  21   8  22  13
M  ISO  8  23  13  24  13  25  13  26  13  27  13  28  13  29  13  30  13
M  ISO  1  31  13
M  END
>  <minimizedAffinity>  (1) 
-4.03901243

>  <minimizedRMSD>  (1) 
3.02966666

$$$$
