
     RDKit          3D

 32 33  0  0  0  0  0  0  0  0999 V2000
   47.3310   33.8440   42.5430 C   0  0  0  0  0  0  0  0  0  0  0  0
   46.1440   33.8400   44.6850 C   0  0  0  0  0  0  0  0  0  0  0  0
   46.3680   34.4380   43.4390 C   0  0  0  0  0  0  0  0  0  0  0  0
   45.6390   35.5820   43.1390 C   0  0  0  0  0  0  0  0  0  0  0  0
   44.7590   36.0470   44.0680 N   0  0  0  0  0  0  0  0  0  0  0  0
   44.5600   35.4570   45.2590 C   0  0  0  0  0  0  0  0  0  0  0  0
   45.2540   34.3490   45.5690 N   0  0  0  0  0  0  0  0  0  0  0  0
   47.7430   34.8890   41.5050 C   0  0  0  0  0  0  0  0  0  0  0  0
   47.6250   34.2290   40.1380 C   0  0  0  0  0  0  0  0  0  0  0  0
   48.5660   34.8950   39.1400 C   0  0  0  0  0  0  0  0  0  0  0  0
   48.2190   34.2850   37.7760 C   0  0  0  0  0  0  0  0  0  0  0  0
   48.6870   32.8520   37.7660 C   0  0  0  0  0  0  0  0  0  0  0  0
   48.9650   32.3310   39.1540 C   0  0  0  0  0  0  0  0  0  0  0  0
   47.9470   32.7710   40.1810 C   0  0  0  0  0  0  0  0  0  0  0  0
   48.2145   33.5186   43.1118 H   0  0  0  0  0  0  0  0  0  0  0  0
   46.8881   32.9710   42.0413 H   0  0  0  0  0  0  0  0  0  0  0  0
   46.7058   32.9330   44.9526 H   0  0  0  0  0  0  0  0  0  0  0  0
   45.7693   36.0983   42.1765 H   0  0  0  0  0  0  0  0  0  0  0  0
   43.8362   35.8770   45.9729 H   0  0  0  0  0  0  0  0  0  0  0  0
   47.0758   35.7617   41.5621 H   0  0  0  0  0  0  0  0  0  0  0  0
   48.7706   35.2376   41.6853 H   0  0  0  0  0  0  0  0  0  0  0  0
   46.5776   34.3508   39.8249 H   0  0  0  0  0  0  0  0  0  0  0  0
   48.4040   35.9829   39.1265 H   0  0  0  0  0  0  0  0  0  0  0  0
   49.6213   34.7303   39.4031 H   0  0  0  0  0  0  0  0  0  0  0  0
   47.1311   34.3222   37.6178 H   0  0  0  0  0  0  0  0  0  0  0  0
   48.7117   34.8504   36.9713 H   0  0  0  0  0  0  0  0  0  0  0  0
   47.9076   32.2285   37.3036 H   0  0  0  0  0  0  0  0  0  0  0  0
   49.6267   32.8088   37.1958 H   0  0  0  0  0  0  0  0  0  0  0  0
   48.9699   31.2316   39.1182 H   0  0  0  0  0  0  0  0  0  0  0  0
   49.9359   32.7440   39.4650 H   0  0  0  0  0  0  0  0  0  0  0  0
   48.3406   32.5339   41.1805 H   0  0  0  0  0  0  0  0  0  0  0  0
   47.0145   32.2344   39.9520 H   0  0  0  0  0  0  0  0  0  0  0  0
  1  3  1  0
  2  7  2  0
  3  2  1  0
  4  3  2  0
  4  5  1  0
  5  6  2  0
  6  7  1  0
  8  1  1  0
  9 14  1  0
  9  8  1  0
 10  9  1  0
 11 10  1  0
 12 11  1  0
 12 13  1  0
 13 14  1  0
  1 15  1  0
  1 16  1  0
  2 17  1  0
  4 18  1  0
  6 19  1  0
  8 20  1  0
  8 21  1  0
  9 22  1  0
 10 23  1  0
 10 24  1  0
 11 25  1  0
 11 26  1  0
 12 27  1  0
 12 28  1  0
 13 29  1  0
 13 30  1  0
 14 31  1  0
 14 32  1  0
M  ISO  8  15   8  16   8  17  14  18  14  19  14  20   8  21   8  22  13
M  ISO  8  23  13  24  13  25  13  26  13  27  13  28  13  29  13  30  13
M  ISO  2  31  13  32  13
M  END
>  <minimizedAffinity>  (1) 
-4.1531477

>  <minimizedRMSD>  (1) 
4.41366386

$$$$
