
     RDKit          3D

 43 46  0  0  1  0  0  0  0  0999 V2000
   47.0450   34.1300   40.2820 C   0  0  1  0  0  0  0  0  0  0  0  0
   48.1070   34.3400   39.2150 C   0  0  0  0  0  0  0  0  0  0  0  0
   47.5380   33.7440   37.9320 C   0  0  0  0  0  0  0  0  0  0  0  0
   47.4750   32.2360   38.0730 C   0  0  0  0  0  0  0  0  0  0  0  0
   47.7060   31.8140   39.5140 C   0  0  0  0  0  0  0  0  0  0  0  0
   46.8870   32.6510   40.4920 C   0  0  2  0  0  0  0  0  0  0  0  0
   45.5410   32.1610   40.3470 N   0  0  0  0  0  0  0  0  0  0  0  0
   45.0640   30.9140   40.2600 C   0  0  0  0  0  0  0  0  0  0  0  0
   43.7190   30.9660   40.1330 N   0  0  0  0  0  0  0  0  0  0  0  0
   43.3570   32.2550   40.1390 C   0  0  0  0  0  0  0  0  0  0  0  0
   42.0920   32.8160   40.0350 C   0  0  0  0  0  0  0  0  0  0  0  0
   41.9910   34.1410   40.0690 N   0  0  0  0  0  0  0  0  0  0  0  0
   43.1040   34.9070   40.2000 C   0  0  0  0  0  0  0  0  0  0  0  0
   44.3400   34.3700   40.3020 N   0  0  0  0  0  0  0  0  0  0  0  0
   44.4990   33.0220   40.2740 C   0  0  0  0  0  0  0  0  0  0  0  0
   47.4630   34.8120   41.5970 C   0  0  0  0  0  0  0  0  0  0  0  0
   47.1660   33.8250   42.6960 C   0  0  0  0  0  0  0  0  0  0  0  0
   46.0910   33.7430   44.8870 C   0  0  0  0  0  0  0  0  0  0  0  0
   46.2600   34.3900   43.6520 C   0  0  0  0  0  0  0  0  0  0  0  0
   45.5470   35.5360   43.3930 C   0  0  0  0  0  0  0  0  0  0  0  0
   44.6950   35.9980   44.3620 N   0  0  0  0  0  0  0  0  0  0  0  0
   44.5350   35.3690   45.5540 C   0  0  0  0  0  0  0  0  0  0  0  0
   45.2370   34.2390   45.8110 N   0  0  0  0  0  0  0  0  0  0  0  0
   46.0917   34.5745   39.9600 H   0  0  0  0  0  0  0  0  0  0  0  0
   48.3077   35.4133   39.0816 H   0  0  0  0  0  0  0  0  0  0  0  0
   49.0579   33.8624   39.4938 H   0  0  0  0  0  0  0  0  0  0  0  0
   48.1864   34.0082   37.0836 H   0  0  0  0  0  0  0  0  0  0  0  0
   46.5285   34.1427   37.7532 H   0  0  0  0  0  0  0  0  0  0  0  0
   46.4836   31.8856   37.7500 H   0  0  0  0  0  0  0  0  0  0  0  0
   48.2632   31.7922   37.4471 H   0  0  0  0  0  0  0  0  0  0  0  0
   47.4206   30.7575   39.6249 H   0  0  0  0  0  0  0  0  0  0  0  0
   48.7707   31.9646   39.7460 H   0  0  0  0  0  0  0  0  0  0  0  0
   47.2320   32.5383   41.5304 H   0  0  0  0  0  0  0  0  0  0  0  0
   45.6683   29.9953   40.2874 H   0  0  0  0  0  0  0  0  0  0  0  0
   41.1990   32.1828   39.9276 H   0  0  0  0  0  0  0  0  0  0  0  0
   42.9963   36.0015   40.2239 H   0  0  0  0  0  0  0  0  0  0  0  0
   48.5368   35.0501   41.5784 H   0  0  0  0  0  0  0  0  0  0  0  0
   46.9196   35.7562   41.7489 H   0  0  0  0  0  0  0  0  0  0  0  0
   46.7134   32.9228   42.2587 H   0  0  0  0  0  0  0  0  0  0  0  0
   48.1063   33.5705   43.2069 H   0  0  0  0  0  0  0  0  0  0  0  0
   46.6577   32.8256   45.1045 H   0  0  0  0  0  0  0  0  0  0  0  0
   45.6569   36.0669   42.4359 H   0  0  0  0  0  0  0  0  0  0  0  0
   43.8409   35.7734   46.3055 H   0  0  0  0  0  0  0  0  0  0  0  0
  1  6  1  0
  1 16  1  0
  2  1  1  0
  3  4  1  0
  3  2  1  0
  4  5  1  0
  5  6  1  0
  7  6  1  0
  8  7  1  0
  9 10  1  0
  9  8  2  0
 10 15  2  0
 11 12  2  0
 11 10  1  0
 12 13  1  0
 13 14  2  0
 15 14  1  0
 15  7  1  0
 16 17  1  0
 17 19  1  0
 18 23  2  0
 19 18  1  0
 20 19  2  0
 20 21  1  0
 21 22  2  0
 22 23  1  0
  1 24  1  6
  2 25  1  0
  2 26  1  0
  3 27  1  0
  3 28  1  0
  4 29  1  0
  4 30  1  0
  5 31  1  0
  5 32  1  0
  6 33  1  1
  8 34  1  0
 11 35  1  0
 13 36  1  0
 16 37  1  0
 16 38  1  0
 17 39  1  0
 17 40  1  0
 18 41  1  0
 20 42  1  0
 22 43  1  0
M  ISO  8  24  13  25  13  26  13  27  13  28  13  29  13  30  13  31  13
M  ISO  8  32  13  33  13  34  14  35  14  36  14  37   8  38   8  39   8
M  ISO  4  40   8  41  14  42  14  43  14
M  END
>  <minimizedAffinity>  (1) 
-4.95031929

>  <minimizedRMSD>  (1) 
1.58906507

$$$$
