
     RDKit          3D

 17 17  0  0  0  0  0  0  0  0999 V2000
   45.6330   34.3910   41.0590 C   0  0  0  0  0  0  0  0  0  0  0  0
   46.9300   34.8020   41.3680 C   0  0  0  0  0  0  0  0  0  0  0  0
   47.9920   34.2950   40.6070 C   0  0  0  0  0  0  0  0  0  0  0  0
   47.6890   33.4140   39.5900 N   0  0  0  0  0  0  0  0  0  0  0  0
   46.4210   33.0510   39.3360 C   0  0  0  0  0  0  0  0  0  0  0  0
   45.4340   33.5380   40.0630 N   0  0  0  0  0  0  0  0  0  0  0  0
   44.5390   34.9210   41.8540 C   0  0  0  0  0  0  0  0  0  0  0  0
   43.7420   35.7540   41.3150 O   0  0  0  0  0  0  0  0  0  0  0  0
   44.4030   34.4950   43.1810 O   0  0  0  0  0  0  0  0  0  0  0  0
   45.0030   35.2770   44.1890 C   0  0  0  0  0  0  0  0  0  0  0  0
   44.1670   35.4380   45.2880 F   0  0  0  0  0  0  0  0  0  0  0  0
   46.1720   34.6680   44.6110 F   0  0  0  0  0  0  0  0  0  0  0  0
   45.2600   36.5150   43.6410 F   0  0  0  0  0  0  0  0  0  0  0  0
   46.1760   31.8990   37.9870 S   0  0  0  0  0  0  0  0  0  0  0  0
   47.1149   35.5084   42.1907 H   0  0  0  0  0  0  0  0  0  0  0  0
   49.0315   34.5896   40.8137 H   0  0  0  0  0  0  0  0  0  0  0  0
   45.9111   30.6535   38.4925 H   0  0  0  0  0  0  0  0  0  0  0  0
  1  2  2  0
  1  7  1  0
  3  2  1  0
  4  3  2  0
  5  4  1  0
  5  6  2  0
  6  1  1  0
  7  9  1  0
  8  7  2  0
  9 10  1  0
 10 12  1  0
 10 11  1  0
 13 10  1  0
 14  5  1  0
  2 15  1  0
  3 16  1  0
 14 17  1  0
M  ISO  3  15  14  16  14  17  11
M  END
>  <minimizedAffinity>  (1) 
-3.61548281

>  <minimizedRMSD>  (1) 
0.0356626958

$$$$
