
     RDKit          3D

 47 49  0  0  1  0  0  0  0  0999 V2000
   46.9030   34.2500   40.3940 C   0  0  1  0  0  0  0  0  0  0  0  0
   48.0120   33.9330   39.4090 C   0  0  0  0  0  0  0  0  0  0  0  0
   47.3320   33.5400   38.1100 C   0  0  0  0  0  0  0  0  0  0  0  0
   46.6150   32.2290   38.3010 C   0  0  0  0  0  0  0  0  0  0  0  0
   46.5340   31.8610   39.7540 C   0  0  0  0  0  0  0  0  0  0  0  0
   46.0990   33.0140   40.6510 C   0  0  2  0  0  0  0  0  0  0  0  0
   44.7140   33.1360   40.5320 N   0  0  0  0  0  0  0  0  0  0  0  0
   44.1400   34.1650   39.7760 C   0  0  0  0  0  0  0  0  0  0  0  0
   43.2650   35.0830   40.6260 C   0  0  0  0  0  0  0  0  0  0  0  0
   42.2730   34.3090   41.4350 C   0  0  0  0  0  0  0  0  0  0  0  0
   42.4350   32.8470   41.1640 C   0  0  0  0  0  0  0  0  0  0  0  0
   43.8630   32.3710   41.3580 C   0  0  0  0  0  0  0  0  0  0  0  0
   47.5040   34.8140   41.6930 C   0  0  0  0  0  0  0  0  0  0  0  0
   47.1920   33.8380   42.7840 C   0  0  0  0  0  0  0  0  0  0  0  0
   46.0930   33.7620   44.9610 C   0  0  0  0  0  0  0  0  0  0  0  0
   46.2610   34.4060   43.7230 C   0  0  0  0  0  0  0  0  0  0  0  0
   45.5330   35.5380   43.4440 C   0  0  0  0  0  0  0  0  0  0  0  0
   44.6690   35.9870   44.4000 N   0  0  0  0  0  0  0  0  0  0  0  0
   44.5040   35.3690   45.5960 C   0  0  0  0  0  0  0  0  0  0  0  0
   45.2210   34.2520   45.8720 N   0  0  0  0  0  0  0  0  0  0  0  0
   46.2335   35.0152   39.9741 H   0  0  0  0  0  0  0  0  0  0  0  0
   48.6471   34.8176   39.2535 H   0  0  0  0  0  0  0  0  0  0  0  0
   48.6574   33.1241   39.7819 H   0  0  0  0  0  0  0  0  0  0  0  0
   48.0872   33.4339   37.3173 H   0  0  0  0  0  0  0  0  0  0  0  0
   46.6088   34.3174   37.8224 H   0  0  0  0  0  0  0  0  0  0  0  0
   45.5962   32.3149   37.8953 H   0  0  0  0  0  0  0  0  0  0  0  0
   47.1776   31.4444   37.7739 H   0  0  0  0  0  0  0  0  0  0  0  0
   45.8094   31.0410   39.8654 H   0  0  0  0  0  0  0  0  0  0  0  0
   47.5464   31.5697   40.0704 H   0  0  0  0  0  0  0  0  0  0  0  0
   46.3123   32.8172   41.7120 H   0  0  0  0  0  0  0  0  0  0  0  0
   44.9442   34.7624   39.3217 H   0  0  0  0  0  0  0  0  0  0  0  0
   43.5016   33.7049   39.0074 H   0  0  0  0  0  0  0  0  0  0  0  0
   43.9088   35.6587   41.3072 H   0  0  0  0  0  0  0  0  0  0  0  0
   42.7101   35.7501   39.9500 H   0  0  0  0  0  0  0  0  0  0  0  0
   42.4413   34.5038   42.5044 H   0  0  0  0  0  0  0  0  0  0  0  0
   41.2547   34.6207   41.1594 H   0  0  0  0  0  0  0  0  0  0  0  0
   42.1350   32.6462   40.1249 H   0  0  0  0  0  0  0  0  0  0  0  0
   41.8028   32.3036   41.8817 H   0  0  0  0  0  0  0  0  0  0  0  0
   43.9389   31.3085   41.0837 H   0  0  0  0  0  0  0  0  0  0  0  0
   44.1572   32.4916   42.4110 H   0  0  0  0  0  0  0  0  0  0  0  0
   48.5932   34.9257   41.5871 H   0  0  0  0  0  0  0  0  0  0  0  0
   47.0820   35.8038   41.9215 H   0  0  0  0  0  0  0  0  0  0  0  0
   46.7522   32.9314   42.3427 H   0  0  0  0  0  0  0  0  0  0  0  0
   48.1233   33.5907   43.3146 H   0  0  0  0  0  0  0  0  0  0  0  0
   46.6729   32.8558   45.1901 H   0  0  0  0  0  0  0  0  0  0  0  0
   45.6430   36.0635   42.4839 H   0  0  0  0  0  0  0  0  0  0  0  0
   43.7951   35.7703   46.3351 H   0  0  0  0  0  0  0  0  0  0  0  0
  1  6  1  0
  1 13  1  0
  2  1  1  0
  3  4  1  0
  3  2  1  0
  4  5  1  0
  5  6  1  0
  7  6  1  0
  7 12  1  0
  8  7  1  0
  8  9  1  0
  9 10  1  0
 11 12  1  0
 11 10  1  0
 13 14  1  0
 14 16  1  0
 15 20  2  0
 16 15  1  0
 17 16  2  0
 17 18  1  0
 18 19  2  0
 19 20  1  0
  1 21  1  6
  2 22  1  0
  2 23  1  0
  3 24  1  0
  3 25  1  0
  4 26  1  0
  4 27  1  0
  5 28  1  0
  5 29  1  0
  6 30  1  1
  8 31  1  0
  8 32  1  0
  9 33  1  0
  9 34  1  0
 10 35  1  0
 10 36  1  0
 11 37  1  0
 11 38  1  0
 12 39  1  0
 12 40  1  0
 13 41  1  0
 13 42  1  0
 14 43  1  0
 14 44  1  0
 15 45  1  0
 17 46  1  0
 19 47  1  0
M  ISO  8  21  13  22  13  23  13  24  13  25  13  26  13  27  13  28  13
M  ISO  8  29  13  30  13  31  13  32  13  33  13  34  13  35  13  36  13
M  ISO  8  37  13  38  13  39  13  40  13  41   8  42   8  43   8  44   8
M  ISO  3  45  14  46  14  47  14
M  END
>  <minimizedAffinity>  (1) 
-4.63143826

>  <minimizedRMSD>  (1) 
2.07585478

$$$$
