
     RDKit          3D

 39 41  0  0  1  0  0  0  0  0999 V2000
   47.1000   34.4000   40.5110 C   0  0  1  0  0  0  0  0  0  0  0  0
   48.3290   34.3190   39.6000 C   0  0  0  0  0  0  0  0  0  0  0  0
   47.8030   34.0820   38.2000 C   0  0  0  0  0  0  0  0  0  0  0  0
   47.1830   32.7150   38.1160 C   0  0  0  0  0  0  0  0  0  0  0  0
   46.9950   32.1140   39.4970 C   0  0  0  0  0  0  0  0  0  0  0  0
   46.3790   33.1040   40.4850 C   0  0  2  0  0  0  0  0  0  0  0  0
   44.9900   33.3000   40.0010 C   0  0  0  0  0  0  0  0  0  0  0  0
   44.0620   32.6060   39.2130 C   0  0  0  0  0  0  0  0  0  0  0  0
   42.9010   33.3480   39.1320 C   0  0  0  0  0  0  0  0  0  0  0  0
   43.1740   34.4710   39.8820 C   0  0  0  0  0  0  0  0  0  0  0  0
   44.3700   34.4000   40.3560 O   0  0  0  0  0  0  0  0  0  0  0  0
   47.5600   34.7690   41.9330 C   0  0  0  0  0  0  0  0  0  0  0  0
   47.0010   33.6890   42.8260 C   0  0  0  0  0  0  0  0  0  0  0  0
   46.0610   33.6140   45.0760 C   0  0  0  0  0  0  0  0  0  0  0  0
   46.1470   34.2560   43.8270 C   0  0  0  0  0  0  0  0  0  0  0  0
   45.4080   35.3920   43.5990 C   0  0  0  0  0  0  0  0  0  0  0  0
   44.6140   35.8540   44.6080 N   0  0  0  0  0  0  0  0  0  0  0  0
   44.5310   35.2360   45.8100 C   0  0  0  0  0  0  0  0  0  0  0  0
   45.2540   34.1160   46.0450 N   0  0  0  0  0  0  0  0  0  0  0  0
   46.4049   35.1764   40.1589 H   0  0  0  0  0  0  0  0  0  0  0  0
   48.8958   35.2609   39.6399 H   0  0  0  0  0  0  0  0  0  0  0  0
   49.0083   33.5130   39.9145 H   0  0  0  0  0  0  0  0  0  0  0  0
   47.0452   34.8425   37.9606 H   0  0  0  0  0  0  0  0  0  0  0  0
   48.6340   34.1497   37.4825 H   0  0  0  0  0  0  0  0  0  0  0  0
   46.2031   32.7947   37.6225 H   0  0  0  0  0  0  0  0  0  0  0  0
   47.8545   32.0618   37.5394 H   0  0  0  0  0  0  0  0  0  0  0  0
   46.3330   31.2394   39.4144 H   0  0  0  0  0  0  0  0  0  0  0  0
   47.9879   31.8338   39.8785 H   0  0  0  0  0  0  0  0  0  0  0  0
   46.4295   32.7183   41.5139 H   0  0  0  0  0  0  0  0  0  0  0  0
   44.2313   31.6291   38.7366 H   0  0  0  0  0  0  0  0  0  0  0  0
   41.9740   33.1005   38.5941 H   0  0  0  0  0  0  0  0  0  0  0  0
   42.4754   35.3037   40.0509 H   0  0  0  0  0  0  0  0  0  0  0  0
   48.6584   34.7859   41.9903 H   0  0  0  0  0  0  0  0  0  0  0  0
   47.2100   35.7685   42.2304 H   0  0  0  0  0  0  0  0  0  0  0  0
   46.4224   32.9792   42.2166 H   0  0  0  0  0  0  0  0  0  0  0  0
   47.8351   33.1715   43.3224 H   0  0  0  0  0  0  0  0  0  0  0  0
   46.6486   32.7040   45.2674 H   0  0  0  0  0  0  0  0  0  0  0  0
   45.4552   35.9135   42.6316 H   0  0  0  0  0  0  0  0  0  0  0  0
   43.8767   35.6437   46.5947 H   0  0  0  0  0  0  0  0  0  0  0  0
  1 12  1  0
  2  1  1  0
  3  2  1  0
  4  3  1  0
  4  5  1  0
  5  6  1  0
  6  1  1  0
  7 11  1  0
  7  6  1  0
  8  7  2  0
  9  8  1  0
  9 10  2  0
 10 11  1  0
 12 13  1  0
 13 15  1  0
 14 19  2  0
 15 14  1  0
 16 15  2  0
 16 17  1  0
 17 18  2  0
 18 19  1  0
  1 20  1  6
  2 21  1  0
  2 22  1  0
  3 23  1  0
  3 24  1  0
  4 25  1  0
  4 26  1  0
  5 27  1  0
  5 28  1  0
  6 29  1  1
  8 30  1  0
  9 31  1  0
 10 32  1  0
 12 33  1  0
 12 34  1  0
 13 35  1  0
 13 36  1  0
 14 37  1  0
 16 38  1  0
 18 39  1  0
M  ISO  8  20  13  21  13  22  13  23  13  24  13  25  13  26  13  27  13
M  ISO  8  28  13  29  13  30  14  31  14  32  14  33   8  34   8  35   8
M  ISO  4  36   8  37  14  38  14  39  14
M  END
>  <minimizedAffinity>  (1) 
-4.51123571

>  <minimizedRMSD>  (1) 
1.7587893

$$$$
