
     RDKit          3D

 39 41  0  0  1  0  0  0  0  0999 V2000
   47.1430   34.3720   40.3720 C   0  0  1  0  0  0  0  0  0  0  0  0
   48.3230   34.2850   39.3820 C   0  0  0  0  0  0  0  0  0  0  0  0
   47.6920   34.0030   38.0280 C   0  0  0  0  0  0  0  0  0  0  0  0
   47.1570   32.5890   38.0400 C   0  0  0  0  0  0  0  0  0  0  0  0
   47.0700   32.0450   39.4450 C   0  0  0  0  0  0  0  0  0  0  0  0
   46.4650   33.0560   40.4290 C   0  0  2  0  0  0  0  0  0  0  0  0
   44.9770   33.1130   40.1790 C   0  0  0  0  0  0  0  0  0  0  0  0
   44.0750   34.2140   40.1720 C   0  0  0  0  0  0  0  0  0  0  0  0
   42.7770   33.9120   39.8940 C   0  0  0  0  0  0  0  0  0  0  0  0
   42.3410   32.5530   39.6220 C   0  0  0  0  0  0  0  0  0  0  0  0
   43.9970   31.6400   39.7920 S   0  0  0  0  0  0  0  0  0  0  0  0
   47.7040   34.7750   41.7480 C   0  0  0  0  0  0  0  0  0  0  0  0
   47.2020   33.7530   42.7270 C   0  0  0  0  0  0  0  0  0  0  0  0
   46.1040   33.7320   44.9010 C   0  0  0  0  0  0  0  0  0  0  0  0
   46.2860   34.3620   43.6510 C   0  0  0  0  0  0  0  0  0  0  0  0
   45.5870   35.5060   43.3520 C   0  0  0  0  0  0  0  0  0  0  0  0
   44.7300   35.9850   44.3060 N   0  0  0  0  0  0  0  0  0  0  0  0
   44.5530   35.3820   45.5050 C   0  0  0  0  0  0  0  0  0  0  0  0
   45.2410   34.2520   45.8040 N   0  0  0  0  0  0  0  0  0  0  0  0
   46.4049   35.1226   40.0528 H   0  0  0  0  0  0  0  0  0  0  0  0
   48.8768   35.2351   39.3584 H   0  0  0  0  0  0  0  0  0  0  0  0
   49.0422   33.5039   39.6695 H   0  0  0  0  0  0  0  0  0  0  0  0
   48.4481   34.1081   37.2360 H   0  0  0  0  0  0  0  0  0  0  0  0
   46.8768   34.7155   37.8335 H   0  0  0  0  0  0  0  0  0  0  0  0
   46.1529   32.5825   37.5909 H   0  0  0  0  0  0  0  0  0  0  0  0
   47.8461   31.9533   37.4647 H   0  0  0  0  0  0  0  0  0  0  0  0
   46.4417   31.1421   39.4357 H   0  0  0  0  0  0  0  0  0  0  0  0
   48.0932   31.8215   39.7814 H   0  0  0  0  0  0  0  0  0  0  0  0
   46.6291   32.7278   41.4660 H   0  0  0  0  0  0  0  0  0  0  0  0
   44.4055   35.2428   40.3780 H   0  0  0  0  0  0  0  0  0  0  0  0
   42.0342   34.7231   39.8747 H   0  0  0  0  0  0  0  0  0  0  0  0
   41.3394   32.1647   39.3855 H   0  0  0  0  0  0  0  0  0  0  0  0
   48.8038   34.7725   41.7259 H   0  0  0  0  0  0  0  0  0  0  0  0
   47.3810   35.7883   42.0289 H   0  0  0  0  0  0  0  0  0  0  0  0
   46.6871   32.9486   42.1812 H   0  0  0  0  0  0  0  0  0  0  0  0
   48.0551   33.3402   43.2854 H   0  0  0  0  0  0  0  0  0  0  0  0
   46.6648   32.8167   45.1414 H   0  0  0  0  0  0  0  0  0  0  0  0
   45.7108   36.0164   42.3855 H   0  0  0  0  0  0  0  0  0  0  0  0
   43.8512   35.8085   46.2368 H   0  0  0  0  0  0  0  0  0  0  0  0
  1  6  1  0
  1 12  1  0
  2  1  1  0
  3  4  1  0
  3  2  1  0
  4  5  1  0
  5  6  1  0
  7  6  1  0
  8  7  2  0
  9  8  1  0
 10 11  1  0
 10  9  2  0
 11  7  1  0
 12 13  1  0
 13 15  1  0
 14 19  2  0
 15 14  1  0
 16 15  2  0
 16 17  1  0
 17 18  2  0
 18 19  1  0
  1 20  1  6
  2 21  1  0
  2 22  1  0
  3 23  1  0
  3 24  1  0
  4 25  1  0
  4 26  1  0
  5 27  1  0
  5 28  1  0
  6 29  1  1
  8 30  1  0
  9 31  1  0
 10 32  1  0
 12 33  1  0
 12 34  1  0
 13 35  1  0
 13 36  1  0
 14 37  1  0
 16 38  1  0
 18 39  1  0
M  ISO  8  20  13  21  13  22  13  23  13  24  13  25  13  26  13  27  13
M  ISO  8  28  13  29  13  30  14  31  14  32  14  33   8  34   8  35   8
M  ISO  4  36   8  37  14  38  14  39  14
M  END
>  <minimizedAffinity>  (1) 
-4.51007462

>  <minimizedRMSD>  (1) 
1.7429347

$$$$
