
     RDKit          3D

 25 26  0  0  0  0  0  0  0  0999 V2000
   43.7190   34.1600   41.3900 C   0  0  0  0  0  0  0  0  0  0  0  0
   44.6100   33.5070   40.6270 C   0  0  0  0  0  0  0  0  0  0  0  0
   45.8120   32.8890   41.8550 S   0  0  0  0  0  0  0  0  0  0  0  0
   44.8300   33.6750   43.2620 C   0  0  0  0  0  0  0  0  0  0  0  0
   43.9370   34.1710   42.6780 N   0  0  0  0  0  0  0  0  0  0  0  0
   45.3600   33.4940   44.5790 N   0  0  0  0  0  0  0  0  0  0  0  0
   46.7260   33.3670   44.8630 C   0  0  0  0  0  0  0  0  0  0  0  0
   47.5450   33.8560   44.0020 N   0  0  0  0  0  0  0  0  0  0  0  0
   47.0640   32.7090   46.0770 N   0  0  0  0  0  0  0  0  0  0  0  0
   48.5640   33.8070   44.2190 H   0  0  0  0  0  0  0  0  0  0  0  0
   40.4420   36.0680   40.9080 C   0  0  0  0  0  0  0  0  0  0  0  0
   41.5250   35.4490   41.5530 C   0  0  0  0  0  0  0  0  0  0  0  0
   42.5290   34.8430   40.7980 C   0  0  0  0  0  0  0  0  0  0  0  0
   42.3670   34.9050   39.4470 N   0  0  0  0  0  0  0  0  0  0  0  0
   41.3310   35.4990   38.8370 C   0  0  0  0  0  0  0  0  0  0  0  0
   40.3840   36.0700   39.5740 N   0  0  0  0  0  0  0  0  0  0  0  0
   41.2280   35.5260   37.4270 N   0  0  0  0  0  0  0  0  0  0  0  0
   44.6148   33.3767   39.5347 H   0  0  0  0  0  0  0  0  0  0  0  0
   44.6967   33.4547   45.3660 H   0  0  0  0  0  0  0  0  0  0  0  0
   48.0527   32.5865   46.3384 H   0  0  0  0  0  0  0  0  0  0  0  0
   46.3202   32.3548   46.6952 H   0  0  0  0  0  0  0  0  0  0  0  0
   39.6470   36.5479   41.4976 H   0  0  0  0  0  0  0  0  0  0  0  0
   41.5814   35.4421   42.6515 H   0  0  0  0  0  0  0  0  0  0  0  0
   40.4240   35.9875   36.9781 H   0  0  0  0  0  0  0  0  0  0  0  0
   41.9569   35.0841   36.8488 H   0  0  0  0  0  0  0  0  0  0  0  0
  1  5  1  0
  2  1  2  0
  2  3  1  0
  3  4  1  0
  4  6  1  0
  5  4  2  0
  6  7  1  0
  7  9  1  0
  8 10  1  0
  8  7  2  0
 11 12  2  0
 13  1  1  0
 13 12  1  0
 14 13  2  0
 15 14  1  0
 15 16  2  0
 16 11  1  0
 17 15  1  0
  2 18  1  0
  6 19  1  0
  9 20  1  0
  9 21  1  0
 11 22  1  0
 12 23  1  0
 17 24  1  0
 17 25  1  0
M  ISO  3  18  14  22  14  23  14
M  END
>  <minimizedAffinity>  (1) 
-4.97741079

>  <minimizedRMSD>  (1) 
0.0834790319

$$$$
