
     RDKit          3D

 35 36  0  0  1  0  0  0  0  0999 V2000
   47.3300   34.3820   40.2090 C   0  0  1  0  0  0  0  0  0  0  0  0
   48.5320   34.5450   39.2900 C   0  0  0  0  0  0  0  0  0  0  0  0
   48.0500   34.2070   37.8890 C   0  0  0  0  0  0  0  0  0  0  0  0
   47.7570   32.7200   37.8180 C   0  0  0  0  0  0  0  0  0  0  0  0
   47.7390   32.0980   39.1990 C   0  0  0  0  0  0  0  0  0  0  0  0
   46.9300   32.9300   40.1870 C   0  0  2  0  0  0  0  0  0  0  0  0
   47.6840   34.8110   41.6410 C   0  0  0  0  0  0  0  0  0  0  0  0
   47.0670   33.7570   42.5330 C   0  0  0  0  0  0  0  0  0  0  0  0
   46.0450   33.7610   44.7550 C   0  0  0  0  0  0  0  0  0  0  0  0
   46.2050   34.3730   43.4930 C   0  0  0  0  0  0  0  0  0  0  0  0
   45.5200   35.5300   43.2160 C   0  0  0  0  0  0  0  0  0  0  0  0
   44.7050   36.0420   44.1910 N   0  0  0  0  0  0  0  0  0  0  0  0
   44.5560   35.4520   45.4000 C   0  0  0  0  0  0  0  0  0  0  0  0
   45.2260   34.3090   45.6820 N   0  0  0  0  0  0  0  0  0  0  0  0
   45.5210   32.7810   39.6920 C   0  0  0  0  0  0  0  0  0  0  0  0
   44.9430   31.6790   39.5210 O   0  0  0  0  0  0  0  0  0  0  0  0
   44.7990   33.9240   39.3980 O   0  0  0  0  0  0  0  0  0  0  0  0
   46.5005   35.0169   39.8642 H   0  0  0  0  0  0  0  0  0  0  0  0
   48.9006   35.5808   39.3259 H   0  0  0  0  0  0  0  0  0  0  0  0
   49.3599   33.8885   39.5961 H   0  0  0  0  0  0  0  0  0  0  0  0
   47.1349   34.7752   37.6658 H   0  0  0  0  0  0  0  0  0  0  0  0
   48.8244   34.4708   37.1536 H   0  0  0  0  0  0  0  0  0  0  0  0
   46.7756   32.5700   37.3443 H   0  0  0  0  0  0  0  0  0  0  0  0
   48.5504   32.2367   37.2289 H   0  0  0  0  0  0  0  0  0  0  0  0
   47.2938   31.0944   39.1311 H   0  0  0  0  0  0  0  0  0  0  0  0
   48.7755   32.0484   39.5639 H   0  0  0  0  0  0  0  0  0  0  0  0
   47.0829   32.5878   41.2212 H   0  0  0  0  0  0  0  0  0  0  0  0
   48.7752   34.8407   41.7764 H   0  0  0  0  0  0  0  0  0  0  0  0
   47.3087   35.8185   41.8737 H   0  0  0  0  0  0  0  0  0  0  0  0
   46.4848   33.0547   41.9183 H   0  0  0  0  0  0  0  0  0  0  0  0
   47.8670   33.2164   43.0601 H   0  0  0  0  0  0  0  0  0  0  0  0
   46.5892   32.8334   44.9860 H   0  0  0  0  0  0  0  0  0  0  0  0
   45.6223   36.0303   42.2417 H   0  0  0  0  0  0  0  0  0  0  0  0
   43.8913   35.9004   46.1530 H   0  0  0  0  0  0  0  0  0  0  0  0
   43.8678   33.8506   39.0700 H   0  0  0  0  0  0  0  0  0  0  0  0
  1  7  1  0
  2  1  1  0
  3  2  1  0
  4  3  1  0
  4  5  1  0
  5  6  1  0
  6  1  1  0
  7  8  1  0
  8 10  1  0
  9 14  2  0
 10  9  1  0
 11 10  2  0
 11 12  1  0
 12 13  2  0
 13 14  1  0
 15  6  1  0
 16 15  2  0
 17 15  1  0
  1 18  1  6
  2 19  1  0
  2 20  1  0
  3 21  1  0
  3 22  1  0
  4 23  1  0
  4 24  1  0
  5 25  1  0
  5 26  1  0
  6 27  1  1
  7 28  1  0
  7 29  1  0
  8 30  1  0
  8 31  1  0
  9 32  1  0
 11 33  1  0
 13 34  1  0
 17 35  1  0
M  ISO  8  18  13  19  13  20  13  21  13  22  13  23  13  24  13  25  13
M  ISO  8  26  13  27  13  28   8  29   8  30   8  31   8  32  14  33  14
M  ISO  2  34  14  35   3
M  END
>  <minimizedAffinity>  (1) 
-4.33077526

>  <minimizedRMSD>  (1) 
0.964347482

$$$$
