
     RDKit          3D

 34 35  0  0  1  0  0  0  0  0999 V2000
   47.6140   34.3390   40.1650 C   0  0  1  0  0  0  0  0  0  0  0  0
   48.6260   34.9290   39.1960 C   0  0  0  0  0  0  0  0  0  0  0  0
   48.2670   34.3600   37.8250 C   0  0  0  0  0  0  0  0  0  0  0  0
   48.6490   32.8910   37.8210 C   0  0  0  0  0  0  0  0  0  0  0  0
   48.8700   32.3600   39.2140 C   0  0  0  0  0  0  0  0  0  0  0  0
   47.8200   32.8480   40.2070 C   0  0  2  0  0  0  0  0  0  0  0  0
   47.7970   34.9420   41.5680 C   0  0  0  0  0  0  0  0  0  0  0  0
   47.2950   33.8810   42.5220 C   0  0  0  0  0  0  0  0  0  0  0  0
   46.1500   33.8340   44.6800 C   0  0  0  0  0  0  0  0  0  0  0  0
   46.3570   34.4560   43.4360 C   0  0  0  0  0  0  0  0  0  0  0  0
   45.6440   35.5860   43.1310 C   0  0  0  0  0  0  0  0  0  0  0  0
   44.7550   36.0550   44.0660 N   0  0  0  0  0  0  0  0  0  0  0  0
   44.5670   35.4420   45.2610 C   0  0  0  0  0  0  0  0  0  0  0  0
   45.2690   34.3260   45.5680 N   0  0  0  0  0  0  0  0  0  0  0  0
   46.5520   32.2020   39.7370 C   0  0  0  0  0  0  0  0  0  0  0  0
   45.4020   32.4130   39.3620 O   0  0  0  0  0  0  0  0  0  0  0  0
   46.5926   34.5718   39.8295 H   0  0  0  0  0  0  0  0  0  0  0  0
   48.5531   36.0265   39.1866 H   0  0  0  0  0  0  0  0  0  0  0  0
   49.6574   34.6761   39.4828 H   0  0  0  0  0  0  0  0  0  0  0  0
   47.1869   34.4668   37.6461 H   0  0  0  0  0  0  0  0  0  0  0  0
   48.8037   34.9000   37.0310 H   0  0  0  0  0  0  0  0  0  0  0  0
   47.8409   32.3155   37.3459 H   0  0  0  0  0  0  0  0  0  0  0  0
   49.5924   32.7873   37.2648 H   0  0  0  0  0  0  0  0  0  0  0  0
   48.8377   31.2610   39.1803 H   0  0  0  0  0  0  0  0  0  0  0  0
   49.8474   32.7295   39.5577 H   0  0  0  0  0  0  0  0  0  0  0  0
   48.1249   32.6003   41.2345 H   0  0  0  0  0  0  0  0  0  0  0  0
   48.8579   35.1617   41.7584 H   0  0  0  0  0  0  0  0  0  0  0  0
   47.2520   35.8905   41.6830 H   0  0  0  0  0  0  0  0  0  0  0  0
   46.8040   33.0793   41.9510 H   0  0  0  0  0  0  0  0  0  0  0  0
   48.1446   33.4678   43.0854 H   0  0  0  0  0  0  0  0  0  0  0  0
   46.7200   32.9274   44.9313 H   0  0  0  0  0  0  0  0  0  0  0  0
   45.7797   36.1005   42.1682 H   0  0  0  0  0  0  0  0  0  0  0  0
   43.8436   35.8519   45.9813 H   0  0  0  0  0  0  0  0  0  0  0  0
   46.7153   31.1143   39.7222 H   0  0  0  0  0  0  0  0  0  0  0  0
  1  6  1  0
  1  7  1  0
  2  1  1  0
  3  2  1  0
  4  3  1  0
  4  5  1  0
  5  6  1  0
  7  8  1  0
  8 10  1  0
  9 14  2  0
 10  9  1  0
 11 10  2  0
 11 12  1  0
 12 13  2  0
 13 14  1  0
 15  6  1  0
 16 15  2  0
  1 17  1  6
  2 18  1  0
  2 19  1  0
  3 20  1  0
  3 21  1  0
  4 22  1  0
  4 23  1  0
  5 24  1  0
  5 25  1  0
  6 26  1  1
  7 27  1  0
  7 28  1  0
  8 29  1  0
  8 30  1  0
  9 31  1  0
 11 32  1  0
 13 33  1  0
 15 34  1  0
M  ISO  8  17  13  18  13  19  13  20  13  21  13  22  13  23  13  24  13
M  ISO  8  25  13  26  13  27   8  28   8  29   8  30   8  31  14  32  14
M  ISO  2  33  14  34   6
M  END
>  <minimizedAffinity>  (1) 
-4.16338158

>  <minimizedRMSD>  (1) 
0.150493756

$$$$
