
     RDKit          3D

 52 55  0  0  1  0  0  0  0  0999 V2000
   47.1870   34.2270   40.1820 C   0  0  1  0  0  0  0  0  0  0  0  0
   48.3020   34.4170   39.1380 C   0  0  0  0  0  0  0  0  0  0  0  0
   47.7010   33.9150   37.8250 C   0  0  0  0  0  0  0  0  0  0  0  0
   47.5390   32.4300   37.9080 C   0  0  0  0  0  0  0  0  0  0  0  0
   47.6730   31.9580   39.3210 C   0  0  0  0  0  0  0  0  0  0  0  0
   46.8460   32.8280   40.2980 C   0  0  2  0  0  0  0  0  0  0  0  0
   47.6940   34.7850   41.5370 C   0  0  0  0  0  0  0  0  0  0  0  0
   47.2300   33.8420   42.5590 C   0  0  0  0  0  0  0  0  0  0  0  0
   46.1510   33.8120   44.7110 C   0  0  0  0  0  0  0  0  0  0  0  0
   46.3190   34.4640   43.4900 C   0  0  0  0  0  0  0  0  0  0  0  0
   45.6320   35.5800   43.1700 C   0  0  0  0  0  0  0  0  0  0  0  0
   44.7520   36.0630   44.0900 N   0  0  0  0  0  0  0  0  0  0  0  0
   44.5630   35.4480   45.2960 C   0  0  0  0  0  0  0  0  0  0  0  0
   45.2590   34.3320   45.6000 N   0  0  0  0  0  0  0  0  0  0  0  0
   45.4330   32.5480   39.8730 C   0  0  0  0  0  0  0  0  0  0  0  0
   44.5300   33.7520   40.0900 C   0  0  0  0  0  0  0  0  0  0  0  0
   43.2060   33.5060   39.4140 C   0  0  0  0  0  0  0  0  0  0  0  0
   42.9810   32.5760   38.4670 N   0  0  0  0  0  0  0  0  0  0  0  0
   41.7720   32.3850   37.9120 C   0  0  0  0  0  0  0  0  0  0  0  0
   40.6900   33.1090   38.2570 N   0  0  0  0  0  0  0  0  0  0  0  0
   40.8340   34.0570   39.1950 C   0  0  0  0  0  0  0  0  0  0  0  0
   39.7200   34.7720   39.5130 C   0  0  0  0  0  0  0  0  0  0  0  0
   39.8370   35.7610   40.4690 C   0  0  0  0  0  0  0  0  0  0  0  0
   41.0670   36.0080   41.0800 C   0  0  0  0  0  0  0  0  0  0  0  0
   42.1460   35.2390   40.7010 C   0  0  0  0  0  0  0  0  0  0  0  0
   42.0840   34.2360   39.7510 C   0  0  0  0  0  0  0  0  0  0  0  0
   46.2793   34.7671   39.8748 H   0  0  0  0  0  0  0  0  0  0  0  0
   48.5788   35.4785   39.0561 H   0  0  0  0  0  0  0  0  0  0  0  0
   49.2193   33.8734   39.4082 H   0  0  0  0  0  0  0  0  0  0  0  0
   48.3714   34.1681   36.9905 H   0  0  0  0  0  0  0  0  0  0  0  0
   46.7233   34.3896   37.6548 H   0  0  0  0  0  0  0  0  0  0  0  0
   46.5439   32.1543   37.5287 H   0  0  0  0  0  0  0  0  0  0  0  0
   48.3253   31.9557   37.3023 H   0  0  0  0  0  0  0  0  0  0  0  0
   47.3200   30.9181   39.3841 H   0  0  0  0  0  0  0  0  0  0  0  0
   48.7322   32.0339   39.6080 H   0  0  0  0  0  0  0  0  0  0  0  0
   47.0275   32.5938   41.3573 H   0  0  0  0  0  0  0  0  0  0  0  0
   48.7925   34.8426   41.5401 H   0  0  0  0  0  0  0  0  0  0  0  0
   47.3146   35.8007   41.7228 H   0  0  0  0  0  0  0  0  0  0  0  0
   46.7161   33.0050   42.0637 H   0  0  0  0  0  0  0  0  0  0  0  0
   48.1069   33.4907   43.1226 H   0  0  0  0  0  0  0  0  0  0  0  0
   46.7227   32.9031   44.9499 H   0  0  0  0  0  0  0  0  0  0  0  0
   45.7773   36.0813   42.2017 H   0  0  0  0  0  0  0  0  0  0  0  0
   43.8442   35.8622   46.0183 H   0  0  0  0  0  0  0  0  0  0  0  0
   45.0456   31.7019   40.4595 H   0  0  0  0  0  0  0  0  0  0  0  0
   45.4388   32.3137   38.7983 H   0  0  0  0  0  0  0  0  0  0  0  0
   44.3704   33.9028   41.1679 H   0  0  0  0  0  0  0  0  0  0  0  0
   45.0017   34.6496   39.6636 H   0  0  0  0  0  0  0  0  0  0  0  0
   41.6616   31.6051   37.1442 H   0  0  0  0  0  0  0  0  0  0  0  0
   38.7564   34.5680   39.0233 H   0  0  0  0  0  0  0  0  0  0  0  0
   38.9565   36.3572   40.7505 H   0  0  0  0  0  0  0  0  0  0  0  0
   41.1723   36.7940   41.8423 H   0  0  0  0  0  0  0  0  0  0  0  0
   43.1151   35.4348   41.1833 H   0  0  0  0  0  0  0  0  0  0  0  0
  1  6  1  0
  1  7  1  0
  2  1  1  0
  3  4  1  0
  3  2  1  0
  4  5  1  0
  5  6  1  0
  7  8  1  0
  8 10  1  0
  9 14  2  0
 10  9  1  0
 11 10  2  0
 11 12  1  0
 12 13  2  0
 13 14  1  0
 15 16  1  0
 15  6  1  0
 17 26  1  0
 17 16  1  0
 18 17  2  0
 19 20  2  0
 19 18  1  0
 20 21  1  0
 21 22  1  0
 21 26  2  0
 22 23  2  0
 23 24  1  0
 25 24  2  0
 26 25  1  0
  1 27  1  6
  2 28  1  0
  2 29  1  0
  3 30  1  0
  3 31  1  0
  4 32  1  0
  4 33  1  0
  5 34  1  0
  5 35  1  0
  6 36  1  1
  7 37  1  0
  7 38  1  0
  8 39  1  0
  8 40  1  0
  9 41  1  0
 11 42  1  0
 13 43  1  0
 15 44  1  0
 15 45  1  0
 16 46  1  0
 16 47  1  0
 19 48  1  0
 22 49  1  0
 23 50  1  0
 24 51  1  0
 25 52  1  0
M  ISO  8  27  13  28  13  29  13  30  13  31  13  32  13  33  13  34  13
M  ISO  8  35  13  36  13  37   8  38   8  39   8  40   8  41  14  42  14
M  ISO  8  43  14  44   8  45   8  46   8  47   8  48  14  49  14  50  14
M  ISO  2  51  14  52  14
M  END
>  <minimizedAffinity>  (1) 
-6.21134186

>  <minimizedRMSD>  (1) 
1.22853982

$$$$
