
     RDKit          3D

 51 53  0  0  1  0  0  0  0  0999 V2000
   46.9580   34.4380   40.4660 C   0  0  1  0  0  0  0  0  0  0  0  0
   48.2770   34.2190   39.7060 C   0  0  0  0  0  0  0  0  0  0  0  0
   47.8530   33.8860   38.2770 C   0  0  0  0  0  0  0  0  0  0  0  0
   47.2010   32.5360   38.2670 C   0  0  0  0  0  0  0  0  0  0  0  0
   46.8680   32.1010   39.6560 C   0  0  0  0  0  0  0  0  0  0  0  0
   46.1690   33.2240   40.4560 C   0  0  2  0  0  0  0  0  0  0  0  0
   47.2880   34.8520   41.9200 C   0  0  0  0  0  0  0  0  0  0  0  0
   46.7700   33.7900   42.7830 C   0  0  0  0  0  0  0  0  0  0  0  0
   46.0410   33.5950   45.0680 C   0  0  0  0  0  0  0  0  0  0  0  0
   46.0030   34.3280   43.8820 C   0  0  0  0  0  0  0  0  0  0  0  0
   45.2440   35.4370   43.7490 C   0  0  0  0  0  0  0  0  0  0  0  0
   44.5060   35.8200   44.8210 N   0  0  0  0  0  0  0  0  0  0  0  0
   44.5150   35.1380   45.9820 C   0  0  0  0  0  0  0  0  0  0  0  0
   45.2820   34.0240   46.1120 N   0  0  0  0  0  0  0  0  0  0  0  0
   44.8710   33.3970   39.7210 C   0  0  0  0  0  0  0  0  0  0  0  0
   43.7690   33.9210   40.6300 C   0  0  0  0  0  0  0  0  0  0  0  0
   42.5830   34.1930   39.7900 N   0  0  0  0  0  0  0  0  0  0  0  0
   42.4890   35.2010   38.9010 C   0  0  0  0  0  0  0  0  0  0  0  0
   41.3200   35.3110   38.2040 C   0  0  0  0  0  0  0  0  0  0  0  0
   41.2000   36.4230   37.2140 C   0  0  0  0  0  0  0  0  0  0  0  0
   40.2620   34.4430   38.3790 C   0  0  0  0  0  0  0  0  0  0  0  0
   39.2120   34.5780   37.7220 O   0  0  0  0  0  0  0  0  0  0  0  0
   40.3530   33.4280   39.2720 N   0  0  0  0  0  0  0  0  0  0  0  0
   41.5210   33.3570   39.9370 C   0  0  0  0  0  0  0  0  0  0  0  0
   41.6070   32.4020   40.7780 O   0  0  0  0  0  0  0  0  0  0  0  0
   46.3729   35.2315   39.9781 H   0  0  0  0  0  0  0  0  0  0  0  0
   48.8914   35.1312   39.7253 H   0  0  0  0  0  0  0  0  0  0  0  0
   48.8873   33.4214   40.1547 H   0  0  0  0  0  0  0  0  0  0  0  0
   47.1406   34.6430   37.9171 H   0  0  0  0  0  0  0  0  0  0  0  0
   48.7340   33.8797   37.6183 H   0  0  0  0  0  0  0  0  0  0  0  0
   46.2767   32.5857   37.6727 H   0  0  0  0  0  0  0  0  0  0  0  0
   47.8991   31.8091   37.8263 H   0  0  0  0  0  0  0  0  0  0  0  0
   46.1984   31.2297   39.6056 H   0  0  0  0  0  0  0  0  0  0  0  0
   47.8071   31.8480   40.1700 H   0  0  0  0  0  0  0  0  0  0  0  0
   46.0278   32.9823   41.5198 H   0  0  0  0  0  0  0  0  0  0  0  0
   48.3760   34.9499   42.0495 H   0  0  0  0  0  0  0  0  0  0  0  0
   46.8352   35.8230   42.1693 H   0  0  0  0  0  0  0  0  0  0  0  0
   46.1246   33.1280   42.1870 H   0  0  0  0  0  0  0  0  0  0  0  0
   47.6243   33.2347   43.1975 H   0  0  0  0  0  0  0  0  0  0  0  0
   46.6673   32.6951   45.1566 H   0  0  0  0  0  0  0  0  0  0  0  0
   45.2249   36.0073   42.8086 H   0  0  0  0  0  0  0  0  0  0  0  0
   43.9005   35.4833   46.8265 H   0  0  0  0  0  0  0  0  0  0  0  0
   45.0213   34.1101   38.8971 H   0  0  0  0  0  0  0  0  0  0  0  0
   44.5604   32.4122   39.3419 H   0  0  0  0  0  0  0  0  0  0  0  0
   43.5228   33.1675   41.3926 H   0  0  0  0  0  0  0  0  0  0  0  0
   44.0962   34.8379   41.1421 H   0  0  0  0  0  0  0  0  0  0  0  0
   43.3189   35.9056   38.7433 H   0  0  0  0  0  0  0  0  0  0  0  0
   41.0968   37.3794   37.7475 H   0  0  0  0  0  0  0  0  0  0  0  0
   42.1004   36.4506   36.5827 H   0  0  0  0  0  0  0  0  0  0  0  0
   40.3145   36.2579   36.5827 H   0  0  0  0  0  0  0  0  0  0  0  0
   39.5850   32.7601   39.4302 H   0  0  0  0  0  0  0  0  0  0  0  0
  1  7  1  0
  2  1  1  0
  3  2  1  0
  4  3  1  0
  4  5  1  0
  5  6  1  0
  6  1  1  0
  7  8  1  0
  8 10  1  0
  9 14  2  0
 10  9  1  0
 11 10  2  0
 11 12  1  0
 12 13  2  0
 13 14  1  0
 15  6  1  0
 15 16  1  0
 17 24  1  0
 17 16  1  0
 18 17  1  0
 19 21  1  0
 19 18  2  0
 20 19  1  0
 21 23  1  0
 22 21  2  0
 23 24  1  0
 24 25  2  0
  1 26  1  6
  2 27  1  0
  2 28  1  0
  3 29  1  0
  3 30  1  0
  4 31  1  0
  4 32  1  0
  5 33  1  0
  5 34  1  0
  6 35  1  1
  7 36  1  0
  7 37  1  0
  8 38  1  0
  8 39  1  0
  9 40  1  0
 11 41  1  0
 13 42  1  0
 15 43  1  0
 15 44  1  0
 16 45  1  0
 16 46  1  0
 18 47  1  0
 20 48  1  0
 20 49  1  0
 20 50  1  0
 23 51  1  0
M  ISO  8  26  13  27  13  28  13  29  13  30  13  31  13  32  13  33  13
M  ISO  8  34  13  35  13  36   8  37   8  38   8  39   8  40  14  41  14
M  ISO  8  42  14  43   8  44   8  45   8  46   8  47  14  48   8  49   8
M  ISO  2  50   8  51   9
M  END
>  <minimizedAffinity>  (1) 
-5.85151386

>  <minimizedRMSD>  (1) 
2.17803168

$$$$
