
     RDKit          3D

 54 56  0  0  1  0  0  0  0  0999 V2000
   46.7180   34.3650   40.4330 C   0  0  1  0  0  0  0  0  0  0  0  0
   47.9290   33.8980   39.6040 C   0  0  0  0  0  0  0  0  0  0  0  0
   47.3600   33.5850   38.2220 C   0  0  0  0  0  0  0  0  0  0  0  0
   46.4900   32.3750   38.3120 C   0  0  0  0  0  0  0  0  0  0  0  0
   46.1930   32.0490   39.7420 C   0  0  0  0  0  0  0  0  0  0  0  0
   45.7430   33.2990   40.5270 C   0  0  2  0  0  0  0  0  0  0  0  0
   47.2130   34.7720   41.8430 C   0  0  0  0  0  0  0  0  0  0  0  0
   46.7350   33.7320   42.7610 C   0  0  0  0  0  0  0  0  0  0  0  0
   45.9970   33.5640   45.0460 C   0  0  0  0  0  0  0  0  0  0  0  0
   45.9870   34.2950   43.8590 C   0  0  0  0  0  0  0  0  0  0  0  0
   45.2760   35.4360   43.7290 C   0  0  0  0  0  0  0  0  0  0  0  0
   44.5600   35.8570   44.8030 N   0  0  0  0  0  0  0  0  0  0  0  0
   44.5450   35.1730   45.9680 C   0  0  0  0  0  0  0  0  0  0  0  0
   45.2640   34.0240   46.0960 N   0  0  0  0  0  0  0  0  0  0  0  0
   44.4410   33.6620   39.8680 C   0  0  0  0  0  0  0  0  0  0  0  0
   43.6850   34.7320   40.6490 C   0  0  0  0  0  0  0  0  0  0  0  0
   42.2910   34.8600   40.0020 C   0  0  0  0  0  0  0  0  0  0  0  0
   41.3660   35.7240   40.8060 C   0  0  0  0  0  0  0  0  0  0  0  0
   39.9570   35.3530   40.3760 C   0  0  0  0  0  0  0  0  0  0  0  0
   39.9310   34.7590   38.9910 C   0  0  0  0  0  0  0  0  0  0  0  0
   40.9360   35.3910   38.0650 C   0  0  0  0  0  0  0  0  0  0  0  0
   42.3530   35.1820   38.5460 C   0  0  0  0  0  0  0  0  0  0  0  0
   46.2378   35.2275   39.9477 H   0  0  0  0  0  0  0  0  0  0  0  0
   48.6850   34.6945   39.5402 H   0  0  0  0  0  0  0  0  0  0  0  0
   48.4285   33.0272   40.0538 H   0  0  0  0  0  0  0  0  0  0  0  0
   48.1844   33.3940   37.5193 H   0  0  0  0  0  0  0  0  0  0  0  0
   46.7680   34.4401   37.8637 H   0  0  0  0  0  0  0  0  0  0  0  0
   45.5461   32.5673   37.7809 H   0  0  0  0  0  0  0  0  0  0  0  0
   47.0155   31.5238   37.8545 H   0  0  0  0  0  0  0  0  0  0  0  0
   45.3910   31.2970   39.7777 H   0  0  0  0  0  0  0  0  0  0  0  0
   47.1131   31.6638   40.2057 H   0  0  0  0  0  0  0  0  0  0  0  0
   45.6370   33.1200   41.6072 H   0  0  0  0  0  0  0  0  0  0  0  0
   48.3117   34.8215   41.8618 H   0  0  0  0  0  0  0  0  0  0  0  0
   46.8345   35.7643   42.1296 H   0  0  0  0  0  0  0  0  0  0  0  0
   46.0869   33.0372   42.2068 H   0  0  0  0  0  0  0  0  0  0  0  0
   47.6102   33.2088   43.1736 H   0  0  0  0  0  0  0  0  0  0  0  0
   46.5835   32.6374   45.1317 H   0  0  0  0  0  0  0  0  0  0  0  0
   45.2770   36.0038   42.7868 H   0  0  0  0  0  0  0  0  0  0  0  0
   43.9504   35.5454   46.8152 H   0  0  0  0  0  0  0  0  0  0  0  0
   44.6483   34.0406   38.8562 H   0  0  0  0  0  0  0  0  0  0  0  0
   43.8138   32.7590   39.8338 H   0  0  0  0  0  0  0  0  0  0  0  0
   43.5866   34.4322   41.7028 H   0  0  0  0  0  0  0  0  0  0  0  0
   44.2212   35.6920   40.6206 H   0  0  0  0  0  0  0  0  0  0  0  0
   41.8286   33.8623   40.0299 H   0  0  0  0  0  0  0  0  0  0  0  0
   41.5003   35.5295   41.8803 H   0  0  0  0  0  0  0  0  0  0  0  0
   41.5680   36.7921   40.6374 H   0  0  0  0  0  0  0  0  0  0  0  0
   39.5503   34.6179   41.0861 H   0  0  0  0  0  0  0  0  0  0  0  0
   39.3507   36.2708   40.3652 H   0  0  0  0  0  0  0  0  0  0  0  0
   40.1500   33.6836   39.0658 H   0  0  0  0  0  0  0  0  0  0  0  0
   38.9316   34.9442   38.5704 H   0  0  0  0  0  0  0  0  0  0  0  0
   40.7358   36.4710   38.0063 H   0  0  0  0  0  0  0  0  0  0  0  0
   40.8369   34.9157   37.0780 H   0  0  0  0  0  0  0  0  0  0  0  0
   42.8168   34.3493   37.9969 H   0  0  0  0  0  0  0  0  0  0  0  0
   42.9568   36.0854   38.3749 H   0  0  0  0  0  0  0  0  0  0  0  0
  1  6  1  0
  1  7  1  0
  2  1  1  0
  3  4  1  0
  3  2  1  0
  4  5  1  0
  5  6  1  0
  7  8  1  0
  8 10  1  0
  9 14  2  0
 10  9  1  0
 11 10  2  0
 11 12  1  0
 12 13  2  0
 13 14  1  0
 15  6  1  0
 15 16  1  0
 17 16  1  0
 17 18  1  0
 19 18  1  0
 20 19  1  0
 21 22  1  0
 21 20  1  0
 22 17  1  0
  1 23  1  6
  2 24  1  0
  2 25  1  0
  3 26  1  0
  3 27  1  0
  4 28  1  0
  4 29  1  0
  5 30  1  0
  5 31  1  0
  6 32  1  1
  7 33  1  0
  7 34  1  0
  8 35  1  0
  8 36  1  0
  9 37  1  0
 11 38  1  0
 13 39  1  0
 15 40  1  0
 15 41  1  0
 16 42  1  0
 16 43  1  0
 17 44  1  0
 18 45  1  0
 18 46  1  0
 19 47  1  0
 19 48  1  0
 20 49  1  0
 20 50  1  0
 21 51  1  0
 21 52  1  0
 22 53  1  0
 22 54  1  0
M  ISO  8  23  13  24  13  25  13  26  13  27  13  28  13  29  13  30  13
M  ISO  8  31  13  32  13  33   8  34   8  35   8  36   8  37  14  38  14
M  ISO  8  39  14  40   8  41   8  42   8  43   8  44  13  45  13  46  13
M  ISO  8  47  13  48  13  49  13  50  13  51  13  52  13  53  13  54  13
M  END
>  <minimizedAffinity>  (1) 
-5.64746618

>  <minimizedRMSD>  (1) 
2.1943965

$$$$
