
     RDKit          3D

 48 50  0  0  1  0  0  0  0  0999 V2000
   46.9140   34.5210   40.7670 C   0  0  1  0  0  0  0  0  0  0  0  0
   48.1610   34.1700   39.9340 C   0  0  0  0  0  0  0  0  0  0  0  0
   47.6290   33.9210   38.5240 C   0  0  0  0  0  0  0  0  0  0  0  0
   46.8300   32.6530   38.5250 C   0  0  0  0  0  0  0  0  0  0  0  0
   46.5180   32.2290   39.9240 C   0  0  0  0  0  0  0  0  0  0  0  0
   45.9940   33.4040   40.7760 C   0  0  2  0  0  0  0  0  0  0  0  0
   47.3640   34.8650   42.2070 C   0  0  0  0  0  0  0  0  0  0  0  0
   46.9460   33.7410   43.0490 C   0  0  0  0  0  0  0  0  0  0  0  0
   46.1970   33.4010   45.3130 C   0  0  0  0  0  0  0  0  0  0  0  0
   46.1320   34.1810   44.1560 C   0  0  0  0  0  0  0  0  0  0  0  0
   45.3110   35.2480   44.0620 C   0  0  0  0  0  0  0  0  0  0  0  0
   44.5400   35.5470   45.1360 N   0  0  0  0  0  0  0  0  0  0  0  0
   44.5740   34.8190   46.2690 C   0  0  0  0  0  0  0  0  0  0  0  0
   45.4020   33.7440   46.3620 N   0  0  0  0  0  0  0  0  0  0  0  0
   44.6880   33.7360   40.1120 C   0  0  0  0  0  0  0  0  0  0  0  0
   44.0000   34.9240   40.7790 C   0  0  0  0  0  0  0  0  0  0  0  0
   42.6140   35.0120   40.1750 C   0  0  0  0  0  0  0  0  0  0  0  0
   42.3260   34.8250   38.8390 C   0  0  0  0  0  0  0  0  0  0  0  0
   41.0080   34.9410   38.4600 C   0  0  0  0  0  0  0  0  0  0  0  0
   39.9750   35.2340   39.3400 C   0  0  0  0  0  0  0  0  0  0  0  0
   40.2500   35.4230   40.6840 C   0  0  0  0  0  0  0  0  0  0  0  0
   41.5730   35.3030   41.0410 C   0  0  0  0  0  0  0  0  0  0  0  0
   46.3969   35.3861   40.3264 H   0  0  0  0  0  0  0  0  0  0  0  0
   48.8767   35.0053   39.9365 H   0  0  0  0  0  0  0  0  0  0  0  0
   48.6977   33.2980   40.3360 H   0  0  0  0  0  0  0  0  0  0  0  0
   48.4711   33.8265   37.8227 H   0  0  0  0  0  0  0  0  0  0  0  0
   46.9935   34.7624   38.2108 H   0  0  0  0  0  0  0  0  0  0  0  0
   45.8895   32.8179   37.9789 H   0  0  0  0  0  0  0  0  0  0  0  0
   47.4192   31.8621   38.0378 H   0  0  0  0  0  0  0  0  0  0  0  0
   45.7511   31.4409   39.8945 H   0  0  0  0  0  0  0  0  0  0  0  0
   47.4465   31.8604   40.3845 H   0  0  0  0  0  0  0  0  0  0  0  0
   45.8811   33.1574   41.8420 H   0  0  0  0  0  0  0  0  0  0  0  0
   48.4568   34.9842   42.2461 H   0  0  0  0  0  0  0  0  0  0  0  0
   46.9166   35.8094   42.5504 H   0  0  0  0  0  0  0  0  0  0  0  0
   46.3658   33.0337   42.4381 H   0  0  0  0  0  0  0  0  0  0  0  0
   47.8485   33.2608   43.4549 H   0  0  0  0  0  0  0  0  0  0  0  0
   46.8717   32.5343   45.3740 H   0  0  0  0  0  0  0  0  0  0  0  0
   45.2689   35.8543   43.1451 H   0  0  0  0  0  0  0  0  0  0  0  0
   43.9321   35.0940   47.1189 H   0  0  0  0  0  0  0  0  0  0  0  0
   44.8771   33.9806   39.0563 H   0  0  0  0  0  0  0  0  0  0  0  0
   44.0261   32.8621   40.2024 H   0  0  0  0  0  0  0  0  0  0  0  0
   43.9319   34.7632   41.8650 H   0  0  0  0  0  0  0  0  0  0  0  0
   44.5648   35.8538   40.6164 H   0  0  0  0  0  0  0  0  0  0  0  0
   43.1152   34.5933   38.1085 H   0  0  0  0  0  0  0  0  0  0  0  0
   40.7588   34.7931   37.3989 H   0  0  0  0  0  0  0  0  0  0  0  0
   38.9419   35.3157   38.9711 H   0  0  0  0  0  0  0  0  0  0  0  0
   39.4630   35.6537   41.4171 H   0  0  0  0  0  0  0  0  0  0  0  0
   41.8249   35.4503   42.1016 H   0  0  0  0  0  0  0  0  0  0  0  0
  1  6  1  0
  1  7  1  0
  2  1  1  0
  3  4  1  0
  3  2  1  0
  4  5  1  0
  5  6  1  0
  7  8  1  0
  8 10  1  0
  9 14  2  0
 10  9  1  0
 11 10  2  0
 11 12  1  0
 12 13  2  0
 13 14  1  0
 15  6  1  0
 15 16  1  0
 17 16  1  0
 17 22  1  0
 18 17  2  0
 19 18  1  0
 19 20  2  0
 20 21  1  0
 21 22  2  0
  1 23  1  6
  2 24  1  0
  2 25  1  0
  3 26  1  0
  3 27  1  0
  4 28  1  0
  4 29  1  0
  5 30  1  0
  5 31  1  0
  6 32  1  1
  7 33  1  0
  7 34  1  0
  8 35  1  0
  8 36  1  0
  9 37  1  0
 11 38  1  0
 13 39  1  0
 15 40  1  0
 15 41  1  0
 16 42  1  0
 16 43  1  0
 18 44  1  0
 19 45  1  0
 20 46  1  0
 21 47  1  0
 22 48  1  0
M  ISO  8  23  13  24  13  25  13  26  13  27  13  28  13  29  13  30  13
M  ISO  8  31  13  32  13  33   8  34   8  35   8  36   8  37  14  38  14
M  ISO  8  39  14  40   8  41   8  42   8  43   8  44  14  45  14  46  14
M  ISO  2  47  14  48  14
M  END
>  <minimizedAffinity>  (1) 
-5.55887508

>  <minimizedRMSD>  (1) 
2.30078077

$$$$
