
     RDKit          3D

 45 47  0  0  1  0  0  0  0  0999 V2000
   46.8860   34.3600   40.3420 C   0  0  1  0  0  0  0  0  0  0  0  0
   48.1200   33.9900   39.5000 C   0  0  0  0  0  0  0  0  0  0  0  0
   47.5660   33.6970   38.1090 C   0  0  0  0  0  0  0  0  0  0  0  0
   46.7720   32.4260   38.1540 C   0  0  0  0  0  0  0  0  0  0  0  0
   46.5010   32.0330   39.5710 C   0  0  0  0  0  0  0  0  0  0  0  0
   45.9810   33.2310   40.4020 C   0  0  2  0  0  0  0  0  0  0  0  0
   47.3520   34.7470   41.7660 C   0  0  0  0  0  0  0  0  0  0  0  0
   46.8030   33.7510   42.6810 C   0  0  0  0  0  0  0  0  0  0  0  0
   45.9770   33.6570   44.9450 C   0  0  0  0  0  0  0  0  0  0  0  0
   46.0350   34.3640   43.7410 C   0  0  0  0  0  0  0  0  0  0  0  0
   45.3620   35.5200   43.5600 C   0  0  0  0  0  0  0  0  0  0  0  0
   44.6170   35.9810   44.5960 N   0  0  0  0  0  0  0  0  0  0  0  0
   44.5350   35.3280   45.7690 C   0  0  0  0  0  0  0  0  0  0  0  0
   45.2160   34.1610   45.9520 N   0  0  0  0  0  0  0  0  0  0  0  0
   44.6580   33.5210   39.7650 C   0  0  0  0  0  0  0  0  0  0  0  0
   43.8070   34.4480   40.6280 C   0  0  0  0  0  0  0  0  0  0  0  0
   42.6180   34.8990   39.7930 C   0  0  0  0  0  0  0  0  0  0  0  0
   42.4020   34.9630   38.4470 C   0  0  0  0  0  0  0  0  0  0  0  0
   41.1230   35.4570   38.2620 C   0  0  0  0  0  0  0  0  0  0  0  0
   40.6380   35.6670   39.5240 C   0  0  0  0  0  0  0  0  0  0  0  0
   41.5290   35.3330   40.3990 O   0  0  0  0  0  0  0  0  0  0  0  0
   46.3584   35.2098   39.8844 H   0  0  0  0  0  0  0  0  0  0  0  0
   48.8316   34.8281   39.4655 H   0  0  0  0  0  0  0  0  0  0  0  0
   48.6679   33.1330   39.9188 H   0  0  0  0  0  0  0  0  0  0  0  0
   48.3974   33.5868   37.3972 H   0  0  0  0  0  0  0  0  0  0  0  0
   46.9195   34.5262   37.7857 H   0  0  0  0  0  0  0  0  0  0  0  0
   45.8165   32.5763   37.6301 H   0  0  0  0  0  0  0  0  0  0  0  0
   47.3483   31.6267   37.6651 H   0  0  0  0  0  0  0  0  0  0  0  0
   45.7442   31.2348   39.5821 H   0  0  0  0  0  0  0  0  0  0  0  0
   47.4434   31.6851   40.0191 H   0  0  0  0  0  0  0  0  0  0  0  0
   45.8986   33.0173   41.4779 H   0  0  0  0  0  0  0  0  0  0  0  0
   48.4508   34.7425   41.8180 H   0  0  0  0  0  0  0  0  0  0  0  0
   47.0052   35.7566   42.0313 H   0  0  0  0  0  0  0  0  0  0  0  0
   46.1500   33.0696   42.1160 H   0  0  0  0  0  0  0  0  0  0  0  0
   47.6421   33.2053   43.1372 H   0  0  0  0  0  0  0  0  0  0  0  0
   46.5330   32.7167   45.0744 H   0  0  0  0  0  0  0  0  0  0  0  0
   45.4156   36.0680   42.6078 H   0  0  0  0  0  0  0  0  0  0  0  0
   43.9172   35.7363   46.5824 H   0  0  0  0  0  0  0  0  0  0  0  0
   44.8293   33.9997   38.7895 H   0  0  0  0  0  0  0  0  0  0  0  0
   44.1180   32.5698   39.6480 H   0  0  0  0  0  0  0  0  0  0  0  0
   43.4549   33.9099   41.5205 H   0  0  0  0  0  0  0  0  0  0  0  0
   44.3971   35.3161   40.9568 H   0  0  0  0  0  0  0  0  0  0  0  0
   43.1117   34.6757   37.6572 H   0  0  0  0  0  0  0  0  0  0  0  0
   40.6079   35.6410   37.3076 H   0  0  0  0  0  0  0  0  0  0  0  0
   39.6384   36.0614   39.7591 H   0  0  0  0  0  0  0  0  0  0  0  0
  1  6  1  0
  1  7  1  0
  2  1  1  0
  3  4  1  0
  3  2  1  0
  4  5  1  0
  5  6  1  0
  7  8  1  0
  8 10  1  0
  9 14  2  0
 10  9  1  0
 11 10  2  0
 11 12  1  0
 12 13  2  0
 13 14  1  0
 15  6  1  0
 15 16  1  0
 17 21  1  0
 17 16  1  0
 18 17  2  0
 19 18  1  0
 19 20  2  0
 20 21  1  0
  1 22  1  6
  2 23  1  0
  2 24  1  0
  3 25  1  0
  3 26  1  0
  4 27  1  0
  4 28  1  0
  5 29  1  0
  5 30  1  0
  6 31  1  1
  7 32  1  0
  7 33  1  0
  8 34  1  0
  8 35  1  0
  9 36  1  0
 11 37  1  0
 13 38  1  0
 15 39  1  0
 15 40  1  0
 16 41  1  0
 16 42  1  0
 18 43  1  0
 19 44  1  0
 20 45  1  0
M  ISO  8  22  13  23  13  24  13  25  13  26  13  27  13  28  13  29  13
M  ISO  8  30  13  31  13  32   8  33   8  34   8  35   8  36  14  37  14
M  ISO  8  38  14  39   8  40   8  41   8  42   8  43  14  44  14  45  14
M  END
>  <minimizedAffinity>  (1) 
-5.08440924

>  <minimizedRMSD>  (1) 
1.97252762

$$$$
