
     RDKit          3D

 51 53  0  0  1  0  0  0  0  0999 V2000
   46.8290   34.3740   40.4490 C   0  0  1  0  0  0  0  0  0  0  0  0
   48.0550   34.0440   39.5790 C   0  0  0  0  0  0  0  0  0  0  0  0
   47.4880   33.7420   38.1960 C   0  0  0  0  0  0  0  0  0  0  0  0
   46.7250   32.4510   38.2520 C   0  0  0  0  0  0  0  0  0  0  0  0
   46.4880   32.0460   39.6730 C   0  0  0  0  0  0  0  0  0  0  0  0
   45.9410   33.2320   40.5110 C   0  0  2  0  0  0  0  0  0  0  0  0
   47.3130   34.7470   41.8710 C   0  0  0  0  0  0  0  0  0  0  0  0
   46.7970   33.7180   42.7740 C   0  0  0  0  0  0  0  0  0  0  0  0
   46.0180   33.5790   45.0470 C   0  0  0  0  0  0  0  0  0  0  0  0
   46.0270   34.2980   43.8500 C   0  0  0  0  0  0  0  0  0  0  0  0
   45.3140   35.4330   43.6920 C   0  0  0  0  0  0  0  0  0  0  0  0
   44.5760   35.8630   44.7480 N   0  0  0  0  0  0  0  0  0  0  0  0
   44.5430   35.1950   45.9220 C   0  0  0  0  0  0  0  0  0  0  0  0
   45.2640   34.0500   46.0760 N   0  0  0  0  0  0  0  0  0  0  0  0
   44.6030   33.5190   39.8800 C   0  0  0  0  0  0  0  0  0  0  0  0
   43.9100   34.6940   40.5360 C   0  0  0  0  0  0  0  0  0  0  0  0
   42.4180   34.7250   40.1720 C   0  0  0  0  0  0  0  0  0  0  0  0
   42.1220   35.2600   38.8180 C   0  0  0  0  0  0  0  0  0  0  0  0
   40.6030   35.2460   38.8520 C   0  0  0  0  0  0  0  0  0  0  0  0
   40.2760   35.6330   40.2570 C   0  0  0  0  0  0  0  0  0  0  0  0
   41.5830   35.5650   41.0640 C   0  0  0  0  0  0  0  0  0  0  0  0
   46.2790   35.2192   40.0095 H   0  0  0  0  0  0  0  0  0  0  0  0
   48.7412   34.9027   39.5364 H   0  0  0  0  0  0  0  0  0  0  0  0
   48.6324   33.1990   39.9823 H   0  0  0  0  0  0  0  0  0  0  0  0
   48.3109   33.6529   37.4715 H   0  0  0  0  0  0  0  0  0  0  0  0
   46.8180   34.5564   37.8831 H   0  0  0  0  0  0  0  0  0  0  0  0
   45.7570   32.5799   37.7456 H   0  0  0  0  0  0  0  0  0  0  0  0
   47.3124   31.6675   37.7510 H   0  0  0  0  0  0  0  0  0  0  0  0
   45.7572   31.2242   39.6947 H   0  0  0  0  0  0  0  0  0  0  0  0
   47.4460   31.7249   40.1080 H   0  0  0  0  0  0  0  0  0  0  0  0
   45.8576   33.0019   41.5834 H   0  0  0  0  0  0  0  0  0  0  0  0
   48.4123   34.7645   41.9049 H   0  0  0  0  0  0  0  0  0  0  0  0
   46.9539   35.7452   42.1621 H   0  0  0  0  0  0  0  0  0  0  0  0
   46.1541   33.0313   42.2038 H   0  0  0  0  0  0  0  0  0  0  0  0
   47.6518   33.1809   43.2108 H   0  0  0  0  0  0  0  0  0  0  0  0
   46.6057   32.6554   45.1548 H   0  0  0  0  0  0  0  0  0  0  0  0
   45.3300   35.9892   42.7431 H   0  0  0  0  0  0  0  0  0  0  0  0
   43.9331   35.5764   46.7542 H   0  0  0  0  0  0  0  0  0  0  0  0
   44.7536   33.7448   38.8140 H   0  0  0  0  0  0  0  0  0  0  0  0
   43.9668   32.6313   40.0112 H   0  0  0  0  0  0  0  0  0  0  0  0
   44.0124   34.6084   41.6279 H   0  0  0  0  0  0  0  0  0  0  0  0
   44.3781   35.6225   40.1772 H   0  0  0  0  0  0  0  0  0  0  0  0
   42.1717   33.6564   40.2579 H   0  0  0  0  0  0  0  0  0  0  0  0
   42.5182   34.6074   38.0261 H   0  0  0  0  0  0  0  0  0  0  0  0
   42.5705   36.2405   38.6002 H   0  0  0  0  0  0  0  0  0  0  0  0
   40.1881   35.9730   38.1383 H   0  0  0  0  0  0  0  0  0  0  0  0
   40.1795   34.2710   38.5692 H   0  0  0  0  0  0  0  0  0  0  0  0
   39.8708   36.6554   40.2816 H   0  0  0  0  0  0  0  0  0  0  0  0
   39.5194   34.9569   40.6819 H   0  0  0  0  0  0  0  0  0  0  0  0
   41.4297   35.0874   42.0430 H   0  0  0  0  0  0  0  0  0  0  0  0
   42.0197   36.5451   41.3063 H   0  0  0  0  0  0  0  0  0  0  0  0
  1  6  1  0
  1  7  1  0
  2  1  1  0
  3  4  1  0
  3  2  1  0
  4  5  1  0
  5  6  1  0
  7  8  1  0
  8 10  1  0
  9 14  2  0
 10  9  1  0
 11 10  2  0
 11 12  1  0
 12 13  2  0
 13 14  1  0
 15  6  1  0
 15 16  1  0
 17 16  1  0
 17 21  1  0
 18 19  1  0
 18 17  1  0
 19 20  1  0
 20 21  1  0
  1 22  1  6
  2 23  1  0
  2 24  1  0
  3 25  1  0
  3 26  1  0
  4 27  1  0
  4 28  1  0
  5 29  1  0
  5 30  1  0
  6 31  1  1
  7 32  1  0
  7 33  1  0
  8 34  1  0
  8 35  1  0
  9 36  1  0
 11 37  1  0
 13 38  1  0
 15 39  1  0
 15 40  1  0
 16 41  1  0
 16 42  1  0
 17 43  1  0
 18 44  1  0
 18 45  1  0
 19 46  1  0
 19 47  1  0
 20 48  1  0
 20 49  1  0
 21 50  1  0
 21 51  1  0
M  ISO  8  22  13  23  13  24  13  25  13  26  13  27  13  28  13  29  13
M  ISO  8  30  13  31  13  32   8  33   8  34   8  35   8  36  14  37  14
M  ISO  8  38  14  39   8  40   8  41   8  42   8  43  13  44  13  45  13
M  ISO  6  46  13  47  13  48  13  49  13  50  13  51  13
M  END
>  <minimizedAffinity>  (1) 
-5.30789089

>  <minimizedRMSD>  (1) 
1.83745396

$$$$
