
     RDKit          3D

 45 47  0  0  1  0  0  0  0  0999 V2000
   46.9720   34.4440   40.5210 C   0  0  1  0  0  0  0  0  0  0  0  0
   48.2640   34.2390   39.7110 C   0  0  0  0  0  0  0  0  0  0  0  0
   47.7920   33.9110   38.2970 C   0  0  0  0  0  0  0  0  0  0  0  0
   47.1460   32.5610   38.2990 C   0  0  0  0  0  0  0  0  0  0  0  0
   46.8620   32.1150   39.6940 C   0  0  0  0  0  0  0  0  0  0  0  0
   46.1870   33.2270   40.5250 C   0  0  2  0  0  0  0  0  0  0  0  0
   47.3460   34.8490   41.9670 C   0  0  0  0  0  0  0  0  0  0  0  0
   46.8530   33.7870   42.8410 C   0  0  0  0  0  0  0  0  0  0  0  0
   46.0700   33.5730   45.1100 C   0  0  0  0  0  0  0  0  0  0  0  0
   46.0550   34.3110   43.9250 C   0  0  0  0  0  0  0  0  0  0  0  0
   45.2930   35.4180   43.7810 C   0  0  0  0  0  0  0  0  0  0  0  0
   44.5310   35.7950   44.8380 N   0  0  0  0  0  0  0  0  0  0  0  0
   44.5190   35.1100   45.9960 C   0  0  0  0  0  0  0  0  0  0  0  0
   45.2890   33.9940   46.1390 N   0  0  0  0  0  0  0  0  0  0  0  0
   44.8650   33.3910   39.8410 C   0  0  0  0  0  0  0  0  0  0  0  0
   43.9580   34.3670   40.5900 C   0  0  0  0  0  0  0  0  0  0  0  0
   42.8070   34.7280   39.6690 C   0  0  0  0  0  0  0  0  0  0  0  0
   41.6510   35.3220   40.1590 C   0  0  0  0  0  0  0  0  0  0  0  0
   40.8260   35.5100   39.0590 C   0  0  0  0  0  0  0  0  0  0  0  0
   41.4900   35.0380   37.9740 N   0  0  0  0  0  0  0  0  0  0  0  0
   42.6680   34.5750   38.3460 N   0  0  0  0  0  0  0  0  0  0  0  0
   46.3685   35.2406   40.0614 H   0  0  0  0  0  0  0  0  0  0  0  0
   48.8720   35.1557   39.7133 H   0  0  0  0  0  0  0  0  0  0  0  0
   48.8954   33.4429   40.1323 H   0  0  0  0  0  0  0  0  0  0  0  0
   48.6532   33.9066   37.6126 H   0  0  0  0  0  0  0  0  0  0  0  0
   47.0681   34.6685   37.9621 H   0  0  0  0  0  0  0  0  0  0  0  0
   46.2019   32.6115   37.7367 H   0  0  0  0  0  0  0  0  0  0  0  0
   47.8314   31.8400   37.8296 H   0  0  0  0  0  0  0  0  0  0  0  0
   46.1946   31.2413   39.6596 H   0  0  0  0  0  0  0  0  0  0  0  0
   47.8191   31.8627   40.1739 H   0  0  0  0  0  0  0  0  0  0  0  0
   46.0838   32.9816   41.5923 H   0  0  0  0  0  0  0  0  0  0  0  0
   48.4376   34.9436   42.0639 H   0  0  0  0  0  0  0  0  0  0  0  0
   46.9017   35.8193   42.2337 H   0  0  0  0  0  0  0  0  0  0  0  0
   46.2372   33.0950   42.2478 H   0  0  0  0  0  0  0  0  0  0  0  0
   47.7219   33.2706   43.2749 H   0  0  0  0  0  0  0  0  0  0  0  0
   46.6973   32.6747   45.2080 H   0  0  0  0  0  0  0  0  0  0  0  0
   45.2909   35.9914   42.8423 H   0  0  0  0  0  0  0  0  0  0  0  0
   43.8867   35.4511   46.8290 H   0  0  0  0  0  0  0  0  0  0  0  0
   45.0351   33.7719   38.8232 H   0  0  0  0  0  0  0  0  0  0  0  0
   44.3675   32.4102   39.8169 H   0  0  0  0  0  0  0  0  0  0  0  0
   43.5716   33.8928   41.5042 H   0  0  0  0  0  0  0  0  0  0  0  0
   44.5179   35.2689   40.8782 H   0  0  0  0  0  0  0  0  0  0  0  0
   41.4341   35.5886   41.2039 H   0  0  0  0  0  0  0  0  0  0  0  0
   39.8214   35.9580   39.0655 H   0  0  0  0  0  0  0  0  0  0  0  0
   41.1300   35.0407   37.0090 H   0  0  0  0  0  0  0  0  0  0  0  0
  1  6  1  0
  1  7  1  0
  2  1  1  0
  3  4  1  0
  3  2  1  0
  4  5  1  0
  5  6  1  0
  7  8  1  0
  8 10  1  0
  9 14  2  0
 10  9  1  0
 11 10  2  0
 11 12  1  0
 12 13  2  0
 13 14  1  0
 15  6  1  0
 15 16  1  0
 17 18  1  0
 17 16  1  0
 19 18  2  0
 20 21  1  0
 20 19  1  0
 21 17  2  0
  1 22  1  6
  2 23  1  0
  2 24  1  0
  3 25  1  0
  3 26  1  0
  4 27  1  0
  4 28  1  0
  5 29  1  0
  5 30  1  0
  6 31  1  1
  7 32  1  0
  7 33  1  0
  8 34  1  0
  8 35  1  0
  9 36  1  0
 11 37  1  0
 13 38  1  0
 15 39  1  0
 15 40  1  0
 16 41  1  0
 16 42  1  0
 18 43  1  0
 19 44  1  0
 20 45  1  0
M  ISO  8  22  13  23  13  24  13  25  13  26  13  27  13  28  13  29  13
M  ISO  8  30  13  31  13  32   8  33   8  34   8  35   8  36  14  37  14
M  ISO  8  38  14  39   8  40   8  41   8  42   8  43  14  44  14  45   9
M  END
>  <minimizedAffinity>  (1) 
-4.98990059

>  <minimizedRMSD>  (1) 
1.83919442

$$$$
