
     RDKit          3D

 44 48  0  0  0  0  0  0  0  0999 V2000
   46.6070   32.8740   38.8340 C   0  0  0  0  0  0  0  0  0  0  0  0
   45.5680   33.1590   37.9620 C   0  0  0  0  0  0  0  0  0  0  0  0
   45.2280   32.2500   36.9770 C   0  0  0  0  0  0  0  0  0  0  0  0
   45.9200   31.0360   36.8440 C   0  0  0  0  0  0  0  0  0  0  0  0
   46.9450   30.7820   37.7230 C   0  0  0  0  0  0  0  0  0  0  0  0
   47.3180   31.6760   38.7300 C   0  0  0  0  0  0  0  0  0  0  0  0
   46.6450   34.4370   42.0400 N   0  0  0  0  0  0  0  0  0  0  0  0
   47.7000   35.3070   41.9210 C   0  0  0  0  0  0  0  0  0  0  0  0
   48.4300   35.3980   40.7680 C   0  0  0  0  0  0  0  0  0  0  0  0
   48.0620   34.5690   39.7040 C   0  0  0  0  0  0  0  0  0  0  0  0
   48.7050   34.6220   38.6310 O   0  0  0  0  0  0  0  0  0  0  0  0
   47.0330   33.7480   39.8820 N   0  0  0  0  0  0  0  0  0  0  0  0
   46.3280   33.6710   41.0200 C   0  0  0  0  0  0  0  0  0  0  0  0
   45.3690   32.9340   41.2400 O   0  0  0  0  0  0  0  0  0  0  0  0
   44.5700   35.6720   44.8420 C   0  0  0  0  0  0  0  0  0  0  0  0
   45.1580   35.5780   43.5520 C   0  0  0  0  0  0  0  0  0  0  0  0
   46.0460   34.5330   43.3480 C   0  0  0  0  0  0  0  0  0  0  0  0
   46.3250   33.6520   44.3440 N   0  0  0  0  0  0  0  0  0  0  0  0
   45.7380   33.7820   45.5640 C   0  0  0  0  0  0  0  0  0  0  0  0
   44.8710   34.7790   45.8110 N   0  0  0  0  0  0  0  0  0  0  0  0
   48.4150   31.2460   39.5590 C   0  0  0  0  0  0  0  0  0  0  0  0
   48.3830   30.6960   40.8350 C   0  0  0  0  0  0  0  0  0  0  0  0
   49.6550   30.4390   41.2350 N   0  0  0  0  0  0  0  0  0  0  0  0
   50.5260   30.7930   40.2870 C   0  0  0  0  0  0  0  0  0  0  0  0
   51.9040   30.7420   40.1960 C   0  0  0  0  0  0  0  0  0  0  0  0
   52.5700   31.1890   39.0620 C   0  0  0  0  0  0  0  0  0  0  0  0
   51.8300   31.6980   37.9980 C   0  0  0  0  0  0  0  0  0  0  0  0
   50.4650   31.7310   38.1280 C   0  0  0  0  0  0  0  0  0  0  0  0
   49.7640   31.3000   39.2320 C   0  0  0  0  0  0  0  0  0  0  0  0
   45.0154   34.1057   38.0533 H   0  0  0  0  0  0  0  0  0  0  0  0
   44.4029   32.4817   36.2874 H   0  0  0  0  0  0  0  0  0  0  0  0
   45.6504   30.3115   36.0614 H   0  0  0  0  0  0  0  0  0  0  0  0
   47.4956   29.8343   37.6300 H   0  0  0  0  0  0  0  0  0  0  0  0
   47.9652   35.9476   42.7750 H   0  0  0  0  0  0  0  0  0  0  0  0
   49.2748   36.0971   40.6811 H   0  0  0  0  0  0  0  0  0  0  0  0
   43.8590   36.4838   45.0554 H   0  0  0  0  0  0  0  0  0  0  0  0
   44.9206   36.2982   42.7551 H   0  0  0  0  0  0  0  0  0  0  0  0
   45.9762   33.0610   46.3599 H   0  0  0  0  0  0  0  0  0  0  0  0
   47.4752   30.5007   41.4248 H   0  0  0  0  0  0  0  0  0  0  0  0
   49.9122   30.0280   42.1437 H   0  0  0  0  0  0  0  0  0  0  0  0
   52.4852   30.3393   41.0386 H   0  0  0  0  0  0  0  0  0  0  0  0
   53.6675   31.1415   39.0053 H   0  0  0  0  0  0  0  0  0  0  0  0
   52.3233   32.0612   37.0844 H   0  0  0  0  0  0  0  0  0  0  0  0
   49.8849   32.1332   37.2844 H   0  0  0  0  0  0  0  0  0  0  0  0
  1 12  1  0
  2  1  2  0
  3  2  1  0
  4  3  2  0
  4  5  1  0
  5  6  2  0
  6  1  1  0
  6 21  1  0
  7 17  1  0
  8  7  1  0
  9  8  2  0
 10 12  1  0
 10  9  1  0
 11 10  2  0
 12 13  1  0
 13 14  2  0
 13  7  1  0
 15 20  2  0
 16 15  1  0
 17 16  2  0
 17 18  1  0
 18 19  2  0
 19 20  1  0
 21 22  2  0
 22 23  1  0
 24 23  1  0
 25 24  2  0
 26 25  1  0
 27 28  1  0
 27 26  2  0
 28 29  2  0
 29 21  1  0
 29 24  1  0
  2 30  1  0
  3 31  1  0
  4 32  1  0
  5 33  1  0
  8 34  1  0
  9 35  1  0
 15 36  1  0
 16 37  1  0
 19 38  1  0
 22 39  1  0
 23 40  1  0
 25 41  1  0
 26 42  1  0
 27 43  1  0
 28 44  1  0
M  ISO  8  30  14  31  14  32  14  33  14  34  14  35  14  36  14  37  14
M  ISO  7  38  14  39  14  40   9  41  14  42  14  43  14  44  14
M  END
>  <minimizedAffinity>  (1) 
-5.88871574

>  <minimizedRMSD>  (1) 
1.11309063

$$$$
