
     RDKit          3D

 43 46  0  0  0  0  0  0  0  0999 V2000
   46.9130   32.7390   38.8850 C   0  0  0  0  0  0  0  0  0  0  0  0
   45.7600   32.8810   38.1320 C   0  0  0  0  0  0  0  0  0  0  0  0
   45.4840   32.0160   37.1040 C   0  0  0  0  0  0  0  0  0  0  0  0
   46.3690   30.9640   36.7950 C   0  0  0  0  0  0  0  0  0  0  0  0
   47.5050   30.8460   37.5590 C   0  0  0  0  0  0  0  0  0  0  0  0
   47.8140   31.7130   38.6130 C   0  0  0  0  0  0  0  0  0  0  0  0
   46.9940   34.0380   42.2010 N   0  0  0  0  0  0  0  0  0  0  0  0
   47.8510   35.1050   42.0760 C   0  0  0  0  0  0  0  0  0  0  0  0
   48.4280   35.4200   40.8770 C   0  0  0  0  0  0  0  0  0  0  0  0
   48.1130   34.6160   39.7770 C   0  0  0  0  0  0  0  0  0  0  0  0
   48.6210   34.8710   38.6610 O   0  0  0  0  0  0  0  0  0  0  0  0
   47.2700   33.5900   39.9640 N   0  0  0  0  0  0  0  0  0  0  0  0
   46.7190   33.3040   41.1480 C   0  0  0  0  0  0  0  0  0  0  0  0
   45.9430   32.3830   41.3860 O   0  0  0  0  0  0  0  0  0  0  0  0
   45.0440   34.6380   45.2890 C   0  0  0  0  0  0  0  0  0  0  0  0
   45.5000   34.7540   43.9500 C   0  0  0  0  0  0  0  0  0  0  0  0
   46.5260   33.9220   43.5600 C   0  0  0  0  0  0  0  0  0  0  0  0
   47.0600   33.0360   44.4470 N   0  0  0  0  0  0  0  0  0  0  0  0
   46.5970   32.9560   45.7140 C   0  0  0  0  0  0  0  0  0  0  0  0
   45.5980   33.7470   46.1370 N   0  0  0  0  0  0  0  0  0  0  0  0
   49.0250   31.4740   39.3210 N   0  0  0  0  0  0  0  0  0  0  0  0
   49.2170   30.9640   40.5520 C   0  0  0  0  0  0  0  0  0  0  0  0
   50.4880   30.8180   41.0460 C   0  0  0  0  0  0  0  0  0  0  0  0
   50.6110   30.2440   42.4200 C   0  0  0  0  0  0  0  0  0  0  0  0
   51.5730   31.1970   40.2780 C   0  0  0  0  0  0  0  0  0  0  0  0
   52.7170   31.0420   40.7810 O   0  0  0  0  0  0  0  0  0  0  0  0
   51.3620   31.7040   39.0530 N   0  0  0  0  0  0  0  0  0  0  0  0
   50.1120   31.8400   38.5820 C   0  0  0  0  0  0  0  0  0  0  0  0
   50.0670   32.3360   37.4050 O   0  0  0  0  0  0  0  0  0  0  0  0
   45.0578   33.6962   38.3606 H   0  0  0  0  0  0  0  0  0  0  0  0
   44.5636   32.1447   36.5155 H   0  0  0  0  0  0  0  0  0  0  0  0
   46.1585   30.2637   35.9733 H   0  0  0  0  0  0  0  0  0  0  0  0
   48.2061   30.0297   37.3308 H   0  0  0  0  0  0  0  0  0  0  0  0
   48.0778   35.7192   42.9599 H   0  0  0  0  0  0  0  0  0  0  0  0
   49.1145   36.2741   40.7813 H   0  0  0  0  0  0  0  0  0  0  0  0
   44.2264   35.2844   45.6407 H   0  0  0  0  0  0  0  0  0  0  0  0
   45.0528   35.4780   43.2530 H   0  0  0  0  0  0  0  0  0  0  0  0
   47.0456   32.2315   46.4096 H   0  0  0  0  0  0  0  0  0  0  0  0
   48.3528   30.6638   41.1628 H   0  0  0  0  0  0  0  0  0  0  0  0
   50.4414   31.0357   43.1646 H   0  0  0  0  0  0  0  0  0  0  0  0
   49.8629   29.4487   42.5535 H   0  0  0  0  0  0  0  0  0  0  0  0
   51.6193   29.8251   42.5535 H   0  0  0  0  0  0  0  0  0  0  0  0
   52.1627   31.9900   38.4717 H   0  0  0  0  0  0  0  0  0  0  0  0
  1 12  1  0
  2  1  2  0
  3  2  1  0
  4  3  2  0
  4  5  1  0
  5  6  2  0
  6  1  1  0
  6 21  1  0
  7 17  1  0
  8  7  1  0
  9  8  2  0
 10 12  1  0
 10  9  1  0
 11 10  2  0
 12 13  1  0
 13 14  2  0
 13  7  1  0
 15 20  2  0
 16 15  1  0
 17 16  2  0
 17 18  1  0
 18 19  2  0
 19 20  1  0
 21 22  1  0
 22 23  2  0
 23 24  1  0
 25 26  2  0
 25 23  1  0
 27 25  1  0
 28 27  1  0
 28 21  1  0
 29 28  2  0
  2 30  1  0
  3 31  1  0
  4 32  1  0
  5 33  1  0
  8 34  1  0
  9 35  1  0
 15 36  1  0
 16 37  1  0
 19 38  1  0
 22 39  1  0
 24 40  1  0
 24 41  1  0
 24 42  1  0
 27 43  1  0
M  ISO  8  30  14  31  14  32  14  33  14  34  14  35  14  36  14  37  14
M  ISO  6  38  14  39  14  40   8  41   8  42   8  43   9
M  END
>  <minimizedAffinity>  (1) 
-5.74744606

>  <minimizedRMSD>  (1) 
1.77170467

$$$$
