
     RDKit          3D

 46 50  0  0  0  0  0  0  0  0999 V2000
   46.6200   32.7220   38.9360 C   0  0  0  0  0  0  0  0  0  0  0  0
   45.5920   32.9620   38.0420 C   0  0  0  0  0  0  0  0  0  0  0  0
   45.2650   32.0300   37.0830 C   0  0  0  0  0  0  0  0  0  0  0  0
   45.9720   30.8170   36.9990 C   0  0  0  0  0  0  0  0  0  0  0  0
   46.9940   30.6010   37.9050 C   0  0  0  0  0  0  0  0  0  0  0  0
   47.3350   31.5360   38.8790 C   0  0  0  0  0  0  0  0  0  0  0  0
   46.6010   34.3970   42.0840 N   0  0  0  0  0  0  0  0  0  0  0  0
   47.6460   35.2830   41.9510 C   0  0  0  0  0  0  0  0  0  0  0  0
   48.3890   35.3420   40.7900 C   0  0  0  0  0  0  0  0  0  0  0  0
   48.0440   34.4700   39.7550 C   0  0  0  0  0  0  0  0  0  0  0  0
   48.6910   34.4950   38.6920 O   0  0  0  0  0  0  0  0  0  0  0  0
   47.0130   33.6290   39.9480 N   0  0  0  0  0  0  0  0  0  0  0  0
   46.3050   33.5910   41.0890 C   0  0  0  0  0  0  0  0  0  0  0  0
   45.3560   32.8510   41.3300 O   0  0  0  0  0  0  0  0  0  0  0  0
   44.5350   35.7270   44.8460 C   0  0  0  0  0  0  0  0  0  0  0  0
   45.1280   35.5930   43.5620 C   0  0  0  0  0  0  0  0  0  0  0  0
   45.9990   34.5380   43.3770 C   0  0  0  0  0  0  0  0  0  0  0  0
   46.2710   33.6630   44.4010 N   0  0  0  0  0  0  0  0  0  0  0  0
   45.6720   33.8390   45.6120 C   0  0  0  0  0  0  0  0  0  0  0  0
   44.8160   34.8560   45.8380 N   0  0  0  0  0  0  0  0  0  0  0  0
   48.4410   31.1000   39.7210 C   0  0  0  0  0  0  0  0  0  0  0  0
   47.9830   30.5710   40.9340 C   0  0  0  0  0  0  0  0  0  0  0  0
   48.8650   30.1090   41.8860 C   0  0  0  0  0  0  0  0  0  0  0  0
   50.2370   30.1750   41.6280 C   0  0  0  0  0  0  0  0  0  0  0  0
   50.6800   30.6900   40.4480 C   0  0  0  0  0  0  0  0  0  0  0  0
   52.0350   30.7840   40.1140 C   0  0  0  0  0  0  0  0  0  0  0  0
   52.4120   31.3180   38.8880 C   0  0  0  0  0  0  0  0  0  0  0  0
   51.4790   31.7750   37.9500 C   0  0  0  0  0  0  0  0  0  0  0  0
   50.1400   31.6780   38.2880 C   0  0  0  0  0  0  0  0  0  0  0  0
   49.7990   31.1520   39.4930 C   0  0  0  0  0  0  0  0  0  0  0  0
   45.0306   33.9063   38.0979 H   0  0  0  0  0  0  0  0  0  0  0  0
   44.4458   32.2352   36.3781 H   0  0  0  0  0  0  0  0  0  0  0  0
   45.7201   30.0645   36.2372 H   0  0  0  0  0  0  0  0  0  0  0  0
   47.5574   29.6576   37.8546 H   0  0  0  0  0  0  0  0  0  0  0  0
   47.8931   35.9560   42.7853 H   0  0  0  0  0  0  0  0  0  0  0  0
   49.2235   36.0507   40.6833 H   0  0  0  0  0  0  0  0  0  0  0  0
   43.8352   36.5544   45.0349 H   0  0  0  0  0  0  0  0  0  0  0  0
   44.9027   36.2998   42.7498 H   0  0  0  0  0  0  0  0  0  0  0  0
   45.8924   33.1332   46.4264 H   0  0  0  0  0  0  0  0  0  0  0  0
   46.9016   30.5236   41.1298 H   0  0  0  0  0  0  0  0  0  0  0  0
   48.4949   29.6943   42.8352 H   0  0  0  0  0  0  0  0  0  0  0  0
   50.9570   29.8119   42.3762 H   0  0  0  0  0  0  0  0  0  0  0  0
   52.8017   30.4354   40.8216 H   0  0  0  0  0  0  0  0  0  0  0  0
   53.4829   31.3841   38.6456 H   0  0  0  0  0  0  0  0  0  0  0  0
   51.7967   32.1941   36.9838 H   0  0  0  0  0  0  0  0  0  0  0  0
   49.3626   32.0223   37.5900 H   0  0  0  0  0  0  0  0  0  0  0  0
  1 12  1  0
  2  1  2  0
  3  2  1  0
  4  3  2  0
  4  5  1  0
  5  6  2  0
  6  1  1  0
  6 21  1  0
  7 17  1  0
  8  7  1  0
  9  8  2  0
 10 12  1  0
 10  9  1  0
 11 10  2  0
 12 13  1  0
 13 14  2  0
 13  7  1  0
 15 20  2  0
 16 15  1  0
 17 16  2  0
 17 18  1  0
 18 19  2  0
 19 20  1  0
 21 22  2  0
 22 23  1  0
 24 23  2  0
 25 24  1  0
 26 25  2  0
 27 26  1  0
 28 29  1  0
 28 27  2  0
 29 30  2  0
 30 21  1  0
 30 25  1  0
  2 31  1  0
  3 32  1  0
  4 33  1  0
  5 34  1  0
  8 35  1  0
  9 36  1  0
 15 37  1  0
 16 38  1  0
 19 39  1  0
 22 40  1  0
 23 41  1  0
 24 42  1  0
 26 43  1  0
 27 44  1  0
 28 45  1  0
 29 46  1  0
M  ISO  8  31  14  32  14  33  14  34  14  35  14  36  14  37  14  38  14
M  ISO  8  39  14  40  14  41  14  42  14  43  14  44  14  45  14  46  14
M  END
>  <minimizedAffinity>  (1) 
-5.90618038

>  <minimizedRMSD>  (1) 
0.737532496

$$$$
