
     RDKit          3D

 45 48  0  0  0  0  0  0  0  0999 V2000
   46.5930   34.4440   42.0700 N   0  0  0  0  0  0  0  0  0  0  0  0
   47.6590   35.2760   41.9570 C   0  0  0  0  0  0  0  0  0  0  0  0
   48.3970   35.3370   40.8010 C   0  0  0  0  0  0  0  0  0  0  0  0
   48.0110   34.5100   39.7400 C   0  0  0  0  0  0  0  0  0  0  0  0
   48.6630   34.5380   38.6670 O   0  0  0  0  0  0  0  0  0  0  0  0
   46.9440   33.7120   39.9260 N   0  0  0  0  0  0  0  0  0  0  0  0
   46.2430   33.6690   41.0570 C   0  0  0  0  0  0  0  0  0  0  0  0
   45.2660   32.9610   41.2760 O   0  0  0  0  0  0  0  0  0  0  0  0
   46.5120   32.8430   38.8770 C   0  0  0  0  0  0  0  0  0  0  0  0
   45.5200   33.1820   37.9710 C   0  0  0  0  0  0  0  0  0  0  0  0
   45.1540   32.2940   36.9800 C   0  0  0  0  0  0  0  0  0  0  0  0
   45.7840   31.0430   36.8820 C   0  0  0  0  0  0  0  0  0  0  0  0
   46.7620   30.7440   37.7980 C   0  0  0  0  0  0  0  0  0  0  0  0
   47.1690   31.6050   38.8200 C   0  0  0  0  0  0  0  0  0  0  0  0
   48.1920   31.2350   39.7420 N   0  0  0  0  0  0  0  0  0  0  0  0
   48.1470   30.7070   41.0980 C   0  0  0  0  0  0  0  0  0  0  0  0
   49.2380   29.6360   41.2200 C   0  0  0  0  0  0  0  0  0  0  0  0
   50.5520   30.3900   41.4020 C   0  0  0  0  0  0  0  0  0  0  0  0
   50.4340   31.6180   40.5340 C   0  0  0  0  0  0  0  0  0  0  0  0
   49.5820   31.3890   39.3020 C   0  0  0  0  0  0  0  0  0  0  0  0
   44.5270   35.7480   44.8520 C   0  0  0  0  0  0  0  0  0  0  0  0
   45.1200   35.6330   43.5630 C   0  0  0  0  0  0  0  0  0  0  0  0
   45.9910   34.5660   43.3650 C   0  0  0  0  0  0  0  0  0  0  0  0
   46.2400   33.6950   44.3830 N   0  0  0  0  0  0  0  0  0  0  0  0
   45.6570   33.8370   45.5970 C   0  0  0  0  0  0  0  0  0  0  0  0
   44.8090   34.8480   45.8410 N   0  0  0  0  0  0  0  0  0  0  0  0
   47.9373   35.9142   42.8086 H   0  0  0  0  0  0  0  0  0  0  0  0
   49.2610   36.0119   40.7118 H   0  0  0  0  0  0  0  0  0  0  0  0
   45.0232   34.1609   38.0418 H   0  0  0  0  0  0  0  0  0  0  0  0
   44.3652   32.5675   36.2637 H   0  0  0  0  0  0  0  0  0  0  0  0
   45.5031   30.3257   36.0968 H   0  0  0  0  0  0  0  0  0  0  0  0
   47.2565   29.7643   37.7223 H   0  0  0  0  0  0  0  0  0  0  0  0
   48.3333   31.5151   41.8207 H   0  0  0  0  0  0  0  0  0  0  0  0
   47.1581   30.2742   41.3094 H   0  0  0  0  0  0  0  0  0  0  0  0
   49.0443   28.9909   42.0897 H   0  0  0  0  0  0  0  0  0  0  0  0
   49.2661   28.9877   40.3318 H   0  0  0  0  0  0  0  0  0  0  0  0
   50.6891   30.6753   42.4555 H   0  0  0  0  0  0  0  0  0  0  0  0
   51.4190   29.7736   41.1222 H   0  0  0  0  0  0  0  0  0  0  0  0
   49.9820   32.4258   41.1282 H   0  0  0  0  0  0  0  0  0  0  0  0
   51.4463   31.8791   40.1917 H   0  0  0  0  0  0  0  0  0  0  0  0
   49.9131   30.4781   38.7818 H   0  0  0  0  0  0  0  0  0  0  0  0
   49.6740   32.2371   38.6076 H   0  0  0  0  0  0  0  0  0  0  0  0
   43.8305   36.5747   45.0553 H   0  0  0  0  0  0  0  0  0  0  0  0
   44.9001   36.3535   42.7614 H   0  0  0  0  0  0  0  0  0  0  0  0
   45.8817   33.1134   46.3944 H   0  0  0  0  0  0  0  0  0  0  0  0
  1 23  1  0
  2  1  1  0
  3  2  2  0
  4  6  1  0
  4  3  1  0
  5  4  2  0
  6  7  1  0
  7  8  2  0
  7  1  1  0
  9  6  1  0
 10  9  2  0
 11 10  1  0
 12 11  2  0
 12 13  1  0
 13 14  2  0
 14  9  1  0
 14 15  1  0
 15 16  1  0
 16 17  1  0
 17 18  1  0
 19 18  1  0
 20 15  1  0
 20 19  1  0
 21 26  2  0
 22 21  1  0
 23 22  2  0
 23 24  1  0
 24 25  2  0
 25 26  1  0
  2 27  1  0
  3 28  1  0
 10 29  1  0
 11 30  1  0
 12 31  1  0
 13 32  1  0
 16 33  1  0
 16 34  1  0
 17 35  1  0
 17 36  1  0
 18 37  1  0
 18 38  1  0
 19 39  1  0
 19 40  1  0
 20 41  1  0
 20 42  1  0
 21 43  1  0
 22 44  1  0
 25 45  1  0
M  ISO  8  27  14  28  14  29  14  30  14  31  14  32  14  33  13  34  13
M  ISO  8  35  13  36  13  37  13  38  13  39  13  40  13  41  13  42  13
M  ISO  3  43  14  44  14  45  14
M  END
>  <minimizedAffinity>  (1) 
-5.39520741

>  <minimizedRMSD>  (1) 
0.513227701

$$$$
