
     RDKit          3D

 43 46  0  0  0  0  0  0  0  0999 V2000
   46.5410   34.4550   41.9760 N   0  0  0  0  0  0  0  0  0  0  0  0
   47.6700   35.2330   41.8730 C   0  0  0  0  0  0  0  0  0  0  0  0
   48.4190   35.2380   40.7180 C   0  0  0  0  0  0  0  0  0  0  0  0
   47.9870   34.4230   39.6560 C   0  0  0  0  0  0  0  0  0  0  0  0
   48.6460   34.4060   38.5910 O   0  0  0  0  0  0  0  0  0  0  0  0
   46.8890   33.7030   39.8320 N   0  0  0  0  0  0  0  0  0  0  0  0
   46.1660   33.7060   40.9640 C   0  0  0  0  0  0  0  0  0  0  0  0
   45.1470   33.0660   41.1880 O   0  0  0  0  0  0  0  0  0  0  0  0
   46.4000   32.8590   38.7950 C   0  0  0  0  0  0  0  0  0  0  0  0
   45.4280   33.2290   37.8800 C   0  0  0  0  0  0  0  0  0  0  0  0
   45.0130   32.3490   36.9060 C   0  0  0  0  0  0  0  0  0  0  0  0
   45.5560   31.0700   36.8180 C   0  0  0  0  0  0  0  0  0  0  0  0
   46.5250   30.7170   37.7370 C   0  0  0  0  0  0  0  0  0  0  0  0
   46.9630   31.5920   38.7340 C   0  0  0  0  0  0  0  0  0  0  0  0
   47.9660   31.0680   39.5980 N   0  0  0  0  0  0  0  0  0  0  0  0
   47.8880   30.5780   40.9790 C   0  0  0  0  0  0  0  0  0  0  0  0
   49.2120   31.0080   41.6210 C   0  0  0  0  0  0  0  0  0  0  0  0
   50.2720   30.2760   41.0980 O   0  0  0  0  0  0  0  0  0  0  0  0
   50.0390   29.8720   39.7880 C   0  0  0  0  0  0  0  0  0  0  0  0
   49.3190   30.9840   39.0600 C   0  0  0  0  0  0  0  0  0  0  0  0
   44.5170   35.8850   44.7350 C   0  0  0  0  0  0  0  0  0  0  0  0
   45.1060   35.7270   43.4530 C   0  0  0  0  0  0  0  0  0  0  0  0
   45.9390   34.6250   43.2740 C   0  0  0  0  0  0  0  0  0  0  0  0
   46.1610   33.7500   44.3050 N   0  0  0  0  0  0  0  0  0  0  0  0
   45.5690   33.9520   45.5150 C   0  0  0  0  0  0  0  0  0  0  0  0
   44.7680   34.9870   45.7350 N   0  0  0  0  0  0  0  0  0  0  0  0
   47.9783   35.8588   42.7235 H   0  0  0  0  0  0  0  0  0  0  0  0
   49.3235   35.8575   40.6287 H   0  0  0  0  0  0  0  0  0  0  0  0
   44.9841   34.2341   37.9321 H   0  0  0  0  0  0  0  0  0  0  0  0
   44.2412   32.6609   36.1869 H   0  0  0  0  0  0  0  0  0  0  0  0
   45.2244   30.3640   36.0424 H   0  0  0  0  0  0  0  0  0  0  0  0
   46.9674   29.7114   37.6818 H   0  0  0  0  0  0  0  0  0  0  0  0
   47.0361   31.0340   41.5047 H   0  0  0  0  0  0  0  0  0  0  0  0
   47.7374   29.4894   41.0260 H   0  0  0  0  0  0  0  0  0  0  0  0
   49.3789   32.0771   41.4230 H   0  0  0  0  0  0  0  0  0  0  0  0
   49.1559   30.8248   42.7042 H   0  0  0  0  0  0  0  0  0  0  0  0
   50.9967   29.6621   39.2892 H   0  0  0  0  0  0  0  0  0  0  0  0
   49.4251   28.9593   39.7803 H   0  0  0  0  0  0  0  0  0  0  0  0
   49.2802   30.7623   37.9833 H   0  0  0  0  0  0  0  0  0  0  0  0
   49.8472   31.9388   39.1993 H   0  0  0  0  0  0  0  0  0  0  0  0
   43.8512   36.7395   44.9260 H   0  0  0  0  0  0  0  0  0  0  0  0
   44.9136   36.4414   42.6390 H   0  0  0  0  0  0  0  0  0  0  0  0
   45.7597   33.2390   46.3307 H   0  0  0  0  0  0  0  0  0  0  0  0
  1 23  1  0
  2  1  1  0
  3  2  2  0
  4  6  1  0
  4  3  1  0
  5  4  2  0
  6  7  1  0
  7  8  2  0
  7  1  1  0
  9  6  1  0
 10  9  2  0
 11 10  1  0
 12 11  2  0
 12 13  1  0
 13 14  2  0
 14  9  1  0
 14 15  1  0
 15 16  1  0
 16 17  1  0
 18 17  1  0
 19 18  1  0
 20 15  1  0
 20 19  1  0
 21 26  2  0
 22 21  1  0
 23 22  2  0
 23 24  1  0
 24 25  2  0
 25 26  1  0
  2 27  1  0
  3 28  1  0
 10 29  1  0
 11 30  1  0
 12 31  1  0
 13 32  1  0
 16 33  1  0
 16 34  1  0
 17 35  1  0
 17 36  1  0
 19 37  1  0
 19 38  1  0
 20 39  1  0
 20 40  1  0
 21 41  1  0
 22 42  1  0
 25 43  1  0
M  ISO  8  27  14  28  14  29  14  30  14  31  14  32  14  33  13  34  13
M  ISO  8  35  13  36  13  37  13  38  13  39  13  40  13  41  14  42  14
M  ISO  1  43  14
M  END
>  <minimizedAffinity>  (1) 
-5.32561493

>  <minimizedRMSD>  (1) 
0.414664835

$$$$
