
     RDKit          3D

 37 40  0  0  0  0  0  0  0  0999 V2000
   46.5360   34.4530   41.9700 N   0  0  0  0  0  0  0  0  0  0  0  0
   47.6670   35.2290   41.8570 C   0  0  0  0  0  0  0  0  0  0  0  0
   48.4140   35.2420   40.7120 C   0  0  0  0  0  0  0  0  0  0  0  0
   47.9890   34.4350   39.6510 C   0  0  0  0  0  0  0  0  0  0  0  0
   48.6480   34.4200   38.5840 O   0  0  0  0  0  0  0  0  0  0  0  0
   46.8830   33.7050   39.8250 N   0  0  0  0  0  0  0  0  0  0  0  0
   46.1670   33.7070   40.9540 C   0  0  0  0  0  0  0  0  0  0  0  0
   45.1470   33.0590   41.1680 O   0  0  0  0  0  0  0  0  0  0  0  0
   46.4000   32.8650   38.7830 C   0  0  0  0  0  0  0  0  0  0  0  0
   45.4280   33.2450   37.8670 C   0  0  0  0  0  0  0  0  0  0  0  0
   45.0200   32.3670   36.8900 C   0  0  0  0  0  0  0  0  0  0  0  0
   45.5710   31.0800   36.7990 C   0  0  0  0  0  0  0  0  0  0  0  0
   46.5340   30.7310   37.7230 C   0  0  0  0  0  0  0  0  0  0  0  0
   46.9840   31.5880   38.7350 C   0  0  0  0  0  0  0  0  0  0  0  0
   47.9810   31.1830   39.6670 N   0  0  0  0  0  0  0  0  0  0  0  0
   48.0140   30.8770   40.9550 N   0  0  0  0  0  0  0  0  0  0  0  0
   49.2500   30.5550   41.3360 C   0  0  0  0  0  0  0  0  0  0  0  0
   50.0680   30.6640   40.2080 C   0  0  0  0  0  0  0  0  0  0  0  0
   49.2380   31.0660   39.1580 C   0  0  0  0  0  0  0  0  0  0  0  0
   44.5240   35.8750   44.7330 C   0  0  0  0  0  0  0  0  0  0  0  0
   45.1170   35.7070   43.4500 C   0  0  0  0  0  0  0  0  0  0  0  0
   45.9370   34.6190   43.2700 C   0  0  0  0  0  0  0  0  0  0  0  0
   46.1640   33.7450   44.2910 N   0  0  0  0  0  0  0  0  0  0  0  0
   45.5780   33.9420   45.5010 C   0  0  0  0  0  0  0  0  0  0  0  0
   44.7750   34.9800   45.7270 N   0  0  0  0  0  0  0  0  0  0  0  0
   47.9772   35.8534   42.7078 H   0  0  0  0  0  0  0  0  0  0  0  0
   49.3169   35.8647   40.6279 H   0  0  0  0  0  0  0  0  0  0  0  0
   44.9836   34.2497   37.9228 H   0  0  0  0  0  0  0  0  0  0  0  0
   44.2499   32.6787   36.1690 H   0  0  0  0  0  0  0  0  0  0  0  0
   45.2470   30.3750   36.0193 H   0  0  0  0  0  0  0  0  0  0  0  0
   46.9726   29.7241   37.6615 H   0  0  0  0  0  0  0  0  0  0  0  0
   49.5665   30.2593   42.3472 H   0  0  0  0  0  0  0  0  0  0  0  0
   51.1498   30.4716   40.1569 H   0  0  0  0  0  0  0  0  0  0  0  0
   49.5427   31.2525   38.1176 H   0  0  0  0  0  0  0  0  0  0  0  0
   43.8602   36.7316   44.9218 H   0  0  0  0  0  0  0  0  0  0  0  0
   44.9264   36.4201   42.6345 H   0  0  0  0  0  0  0  0  0  0  0  0
   45.7717   33.2265   46.3138 H   0  0  0  0  0  0  0  0  0  0  0  0
  1 22  1  0
  2  1  1  0
  3  2  2  0
  4  6  1  0
  4  3  1  0
  5  4  2  0
  6  7  1  0
  7  8  2  0
  7  1  1  0
  9  6  1  0
 10  9  2  0
 11 10  1  0
 12 11  2  0
 12 13  1  0
 13 14  2  0
 14  9  1  0
 14 15  1  0
 15 16  1  0
 16 17  2  0
 18 17  1  0
 19 15  1  0
 19 18  2  0
 20 25  2  0
 21 20  1  0
 22 21  2  0
 22 23  1  0
 23 24  2  0
 24 25  1  0
  2 26  1  0
  3 27  1  0
 10 28  1  0
 11 29  1  0
 12 30  1  0
 13 31  1  0
 17 32  1  0
 18 33  1  0
 19 34  1  0
 20 35  1  0
 21 36  1  0
 24 37  1  0
M  ISO  8  26  14  27  14  28  14  29  14  30  14  31  14  32  14  33  14
M  ISO  4  34  14  35  14  36  14  37  14
M  END
>  <minimizedAffinity>  (1) 
-5.28707743

>  <minimizedRMSD>  (1) 
0.375843018

$$$$
