
     RDKit          3D

 37 40  0  0  0  0  0  0  0  0999 V2000
   46.5330   34.4480   42.0190 N   0  0  0  0  0  0  0  0  0  0  0  0
   47.6500   35.2450   41.9070 C   0  0  0  0  0  0  0  0  0  0  0  0
   48.4030   35.2640   40.7550 C   0  0  0  0  0  0  0  0  0  0  0  0
   48.0020   34.4470   39.7010 C   0  0  0  0  0  0  0  0  0  0  0  0
   48.6590   34.4360   38.6410 O   0  0  0  0  0  0  0  0  0  0  0  0
   46.9030   33.6910   39.8710 N   0  0  0  0  0  0  0  0  0  0  0  0
   46.1680   33.6820   41.0080 C   0  0  0  0  0  0  0  0  0  0  0  0
   45.1620   33.0220   41.2260 O   0  0  0  0  0  0  0  0  0  0  0  0
   46.4510   32.8290   38.8450 C   0  0  0  0  0  0  0  0  0  0  0  0
   45.3610   33.1480   38.0150 C   0  0  0  0  0  0  0  0  0  0  0  0
   44.9220   32.3230   37.0230 C   0  0  0  0  0  0  0  0  0  0  0  0
   45.5700   31.1220   36.8210 C   0  0  0  0  0  0  0  0  0  0  0  0
   46.6240   30.8270   37.6350 C   0  0  0  0  0  0  0  0  0  0  0  0
   47.1210   31.6450   38.6760 C   0  0  0  0  0  0  0  0  0  0  0  0
   48.2470   31.0920   39.3930 C   0  0  0  0  0  0  0  0  0  0  0  0
   48.1900   30.1780   40.4250 C   0  0  0  0  0  0  0  0  0  0  0  0
   49.3840   29.8450   40.8920 N   0  0  0  0  0  0  0  0  0  0  0  0
   50.2780   30.5380   40.1760 C   0  0  0  0  0  0  0  0  0  0  0  0
   49.5700   31.2610   39.3020 N   0  0  0  0  0  0  0  0  0  0  0  0
   44.5180   35.8500   44.7810 C   0  0  0  0  0  0  0  0  0  0  0  0
   45.1020   35.7010   43.4960 C   0  0  0  0  0  0  0  0  0  0  0  0
   45.9370   34.6150   43.3030 C   0  0  0  0  0  0  0  0  0  0  0  0
   46.1730   33.7330   44.3360 N   0  0  0  0  0  0  0  0  0  0  0  0
   45.5950   33.9140   45.5460 C   0  0  0  0  0  0  0  0  0  0  0  0
   44.7760   34.9580   45.7750 N   0  0  0  0  0  0  0  0  0  0  0  0
   47.9467   35.8794   42.7553 H   0  0  0  0  0  0  0  0  0  0  0  0
   49.2934   35.9043   40.6696 H   0  0  0  0  0  0  0  0  0  0  0  0
   44.8407   34.1042   38.1734 H   0  0  0  0  0  0  0  0  0  0  0  0
   44.0660   32.6097   36.3944 H   0  0  0  0  0  0  0  0  0  0  0  0
   45.2481   30.4269   36.0315 H   0  0  0  0  0  0  0  0  0  0  0  0
   47.1331   29.8666   37.4666 H   0  0  0  0  0  0  0  0  0  0  0  0
   47.2489   29.7676   40.8198 H   0  0  0  0  0  0  0  0  0  0  0  0
   51.3724   30.5169   40.2846 H   0  0  0  0  0  0  0  0  0  0  0  0
   50.0067   31.8942   38.6170 H   0  0  0  0  0  0  0  0  0  0  0  0
   43.8468   36.6994   44.9760 H   0  0  0  0  0  0  0  0  0  0  0  0
   44.8992   36.4188   42.6876 H   0  0  0  0  0  0  0  0  0  0  0  0
   45.7974   33.1970   46.3553 H   0  0  0  0  0  0  0  0  0  0  0  0
  1 22  1  0
  2  1  1  0
  3  2  2  0
  4  6  1  0
  4  3  1  0
  5  4  2  0
  6  7  1  0
  7  8  2  0
  7  1  1  0
  9  6  1  0
 10  9  2  0
 11 10  1  0
 12 11  2  0
 12 13  1  0
 13 14  2  0
 14  9  1  0
 14 15  1  0
 15 16  2  0
 16 17  1  0
 18 17  2  0
 19 15  1  0
 19 18  1  0
 20 25  2  0
 21 20  1  0
 22 21  2  0
 22 23  1  0
 23 24  2  0
 24 25  1  0
  2 26  1  0
  3 27  1  0
 10 28  1  0
 11 29  1  0
 12 30  1  0
 13 31  1  0
 16 32  1  0
 18 33  1  0
 19 34  1  0
 20 35  1  0
 21 36  1  0
 24 37  1  0
M  ISO  8  26  14  27  14  28  14  29  14  30  14  31  14  32  14  33  14
M  ISO  4  34   9  35  14  36  14  37  14
M  END
>  <minimizedAffinity>  (1) 
-5.22908926

>  <minimizedRMSD>  (1) 
0.631948829

$$$$
