
     RDKit          3D

 36 39  0  0  0  0  0  0  0  0999 V2000
   46.5500   34.4630   41.9530 N   0  0  0  0  0  0  0  0  0  0  0  0
   47.6810   35.2360   41.8430 C   0  0  0  0  0  0  0  0  0  0  0  0
   48.4300   35.2470   40.6900 C   0  0  0  0  0  0  0  0  0  0  0  0
   48.0010   34.4410   39.6340 C   0  0  0  0  0  0  0  0  0  0  0  0
   48.6620   34.4270   38.5680 O   0  0  0  0  0  0  0  0  0  0  0  0
   46.8880   33.7110   39.8100 N   0  0  0  0  0  0  0  0  0  0  0  0
   46.1760   33.7160   40.9380 C   0  0  0  0  0  0  0  0  0  0  0  0
   45.1560   33.0700   41.1500 O   0  0  0  0  0  0  0  0  0  0  0  0
   46.4100   32.8600   38.7550 C   0  0  0  0  0  0  0  0  0  0  0  0
   45.4550   33.2800   37.8310 C   0  0  0  0  0  0  0  0  0  0  0  0
   45.0270   32.4380   36.8390 C   0  0  0  0  0  0  0  0  0  0  0  0
   45.5440   31.1540   36.7450 C   0  0  0  0  0  0  0  0  0  0  0  0
   46.4810   30.7810   37.6760 C   0  0  0  0  0  0  0  0  0  0  0  0
   46.9620   31.5900   38.7140 C   0  0  0  0  0  0  0  0  0  0  0  0
   47.9620   31.1150   39.6630 C   0  0  0  0  0  0  0  0  0  0  0  0
   47.5200   30.4540   40.8950 C   0  0  0  0  0  0  0  0  0  0  0  0
   49.0690   30.0910   41.6590 S   0  0  0  0  0  0  0  0  0  0  0  0
   50.1000   30.8600   40.2570 C   0  0  0  0  0  0  0  0  0  0  0  0
   49.2560   31.2740   39.4290 N   0  0  0  0  0  0  0  0  0  0  0  0
   44.5330   35.8600   44.7240 C   0  0  0  0  0  0  0  0  0  0  0  0
   45.1220   35.7080   43.4400 C   0  0  0  0  0  0  0  0  0  0  0  0
   45.9530   34.6230   43.2390 C   0  0  0  0  0  0  0  0  0  0  0  0
   46.1790   33.7390   44.2740 N   0  0  0  0  0  0  0  0  0  0  0  0
   45.5900   33.9320   45.4840 C   0  0  0  0  0  0  0  0  0  0  0  0
   44.7820   34.9720   45.7090 N   0  0  0  0  0  0  0  0  0  0  0  0
   47.9933   35.8584   42.6945 H   0  0  0  0  0  0  0  0  0  0  0  0
   49.3338   35.8679   40.6029 H   0  0  0  0  0  0  0  0  0  0  0  0
   45.0412   34.2969   37.8989 H   0  0  0  0  0  0  0  0  0  0  0  0
   44.2722   32.7804   36.1158 H   0  0  0  0  0  0  0  0  0  0  0  0
   45.2159   30.4621   35.9553 H   0  0  0  0  0  0  0  0  0  0  0  0
   46.8883   29.7619   37.6010 H   0  0  0  0  0  0  0  0  0  0  0  0
   46.4998   30.2419   41.2474 H   0  0  0  0  0  0  0  0  0  0  0  0
   51.1959   30.9264   40.1886 H   0  0  0  0  0  0  0  0  0  0  0  0
   43.8654   36.7126   44.9176 H   0  0  0  0  0  0  0  0  0  0  0  0
   44.9231   36.4294   42.6338 H   0  0  0  0  0  0  0  0  0  0  0  0
   45.7830   33.2157   46.2962 H   0  0  0  0  0  0  0  0  0  0  0  0
  1 22  1  0
  2  1  1  0
  3  2  2  0
  4  6  1  0
  4  3  1  0
  5  4  2  0
  6  7  1  0
  7  8  2  0
  7  1  1  0
  9  6  1  0
 10  9  2  0
 11 10  1  0
 12 11  2  0
 12 13  1  0
 13 14  2  0
 14  9  1  0
 14 15  1  0
 15 16  2  0
 16 17  1  0
 18 17  1  0
 19 15  1  0
 19 18  2  0
 20 25  2  0
 21 20  1  0
 22 21  2  0
 22 23  1  0
 23 24  2  0
 24 25  1  0
  2 26  1  0
  3 27  1  0
 10 28  1  0
 11 29  1  0
 12 30  1  0
 13 31  1  0
 16 32  1  0
 18 33  1  0
 20 34  1  0
 21 35  1  0
 24 36  1  0
M  ISO  8  26  14  27  14  28  14  29  14  30  14  31  14  32  14  33  14
M  ISO  3  34  14  35  14  36  14
M  END
>  <minimizedAffinity>  (1) 
-5.24849796

>  <minimizedRMSD>  (1) 
0.382912964

$$$$
