
     RDKit          3D

 40 43  0  0  0  0  0  0  0  0999 V2000
   46.5680   34.4220   42.0300 N   0  0  0  0  0  0  0  0  0  0  0  0
   47.6740   35.2310   41.9240 C   0  0  0  0  0  0  0  0  0  0  0  0
   48.4090   35.2840   40.7660 C   0  0  0  0  0  0  0  0  0  0  0  0
   47.9910   34.4890   39.7050 C   0  0  0  0  0  0  0  0  0  0  0  0
   48.6440   34.5130   38.6220 O   0  0  0  0  0  0  0  0  0  0  0  0
   46.9070   33.7200   39.8590 N   0  0  0  0  0  0  0  0  0  0  0  0
   46.2070   33.6880   41.0040 C   0  0  0  0  0  0  0  0  0  0  0  0
   45.2020   33.0090   41.2200 O   0  0  0  0  0  0  0  0  0  0  0  0
   46.4410   32.8900   38.8140 C   0  0  0  0  0  0  0  0  0  0  0  0
   45.4180   33.2390   37.9490 C   0  0  0  0  0  0  0  0  0  0  0  0
   44.9950   32.4070   36.9510 C   0  0  0  0  0  0  0  0  0  0  0  0
   45.5950   31.1710   36.7820 C   0  0  0  0  0  0  0  0  0  0  0  0
   46.6090   30.8370   37.6460 C   0  0  0  0  0  0  0  0  0  0  0  0
   47.0760   31.6650   38.6890 C   0  0  0  0  0  0  0  0  0  0  0  0
   48.1570   31.0470   39.4300 C   0  0  0  0  0  0  0  0  0  0  0  0
   48.2000   30.4050   40.6420 C   0  0  0  0  0  0  0  0  0  0  0  0
   49.3460   29.8570   41.1680 C   0  0  0  0  0  0  0  0  0  0  0  0
   50.5330   29.9350   40.4740 C   0  0  0  0  0  0  0  0  0  0  0  0
   50.5750   30.5650   39.2490 C   0  0  0  0  0  0  0  0  0  0  0  0
   49.4000   31.0900   38.7780 C   0  0  0  0  0  0  0  0  0  0  0  0
   44.5420   35.7330   44.8370 C   0  0  0  0  0  0  0  0  0  0  0  0
   45.1210   35.6050   43.5550 C   0  0  0  0  0  0  0  0  0  0  0  0
   45.9800   34.5480   43.3330 C   0  0  0  0  0  0  0  0  0  0  0  0
   46.2450   33.6620   44.3480 N   0  0  0  0  0  0  0  0  0  0  0  0
   45.6680   33.8190   45.5680 C   0  0  0  0  0  0  0  0  0  0  0  0
   44.8250   34.8420   45.8130 N   0  0  0  0  0  0  0  0  0  0  0  0
   47.9759   35.8477   42.7834 H   0  0  0  0  0  0  0  0  0  0  0  0
   49.2947   35.9307   40.6808 H   0  0  0  0  0  0  0  0  0  0  0  0
   44.9300   34.2175   38.0690 H   0  0  0  0  0  0  0  0  0  0  0  0
   44.1788   32.7190   36.2828 H   0  0  0  0  0  0  0  0  0  0  0  0
   45.2722   30.4831   35.9866 H   0  0  0  0  0  0  0  0  0  0  0  0
   47.0903   29.8565   37.5161 H   0  0  0  0  0  0  0  0  0  0  0  0
   47.2693   30.3246   41.2229 H   0  0  0  0  0  0  0  0  0  0  0  0
   49.3147   29.3547   42.1461 H   0  0  0  0  0  0  0  0  0  0  0  0
   51.4476   29.4944   40.8975 H   0  0  0  0  0  0  0  0  0  0  0  0
   51.5100   30.6430   38.6749 H   0  0  0  0  0  0  0  0  0  0  0  0
   49.4336   31.5911   37.7993 H   0  0  0  0  0  0  0  0  0  0  0  0
   43.8539   36.5661   45.0430 H   0  0  0  0  0  0  0  0  0  0  0  0
   44.8938   36.3269   42.7567 H   0  0  0  0  0  0  0  0  0  0  0  0
   45.8925   33.0994   46.3691 H   0  0  0  0  0  0  0  0  0  0  0  0
  1 23  1  0
  2  1  1  0
  3  2  2  0
  4  6  1  0
  4  3  1  0
  5  4  2  0
  6  7  1  0
  7  8  2  0
  7  1  1  0
  9  6  1  0
 10  9  2  0
 11 10  1  0
 12 11  2  0
 12 13  1  0
 13 14  2  0
 14  9  1  0
 14 15  1  0
 15 16  2  0
 16 17  1  0
 18 17  2  0
 19 18  1  0
 20 19  2  0
 20 15  1  0
 21 26  2  0
 22 21  1  0
 23 22  2  0
 23 24  1  0
 24 25  2  0
 25 26  1  0
  2 27  1  0
  3 28  1  0
 10 29  1  0
 11 30  1  0
 12 31  1  0
 13 32  1  0
 16 33  1  0
 17 34  1  0
 18 35  1  0
 19 36  1  0
 20 37  1  0
 21 38  1  0
 22 39  1  0
 25 40  1  0
M  ISO  8  27  14  28  14  29  14  30  14  31  14  32  14  33  14  34  14
M  ISO  6  35  14  36  14  37  14  38  14  39  14  40  14
M  END
>  <minimizedAffinity>  (1) 
-5.27783442

>  <minimizedRMSD>  (1) 
0.668437421

$$$$
