
     RDKit          3D

 42 44  0  0  0  0  0  0  0  0999 V2000
   46.5410   34.4640   41.9520 N   0  0  0  0  0  0  0  0  0  0  0  0
   47.6770   35.2310   41.8510 C   0  0  0  0  0  0  0  0  0  0  0  0
   48.4290   35.2400   40.6980 C   0  0  0  0  0  0  0  0  0  0  0  0
   48.0000   34.4420   39.6380 C   0  0  0  0  0  0  0  0  0  0  0  0
   48.6630   34.4290   38.5690 O   0  0  0  0  0  0  0  0  0  0  0  0
   46.8900   33.7210   39.8030 N   0  0  0  0  0  0  0  0  0  0  0  0
   46.1690   33.7280   40.9310 C   0  0  0  0  0  0  0  0  0  0  0  0
   45.1340   33.0860   41.1370 O   0  0  0  0  0  0  0  0  0  0  0  0
   46.4280   32.8560   38.7610 C   0  0  0  0  0  0  0  0  0  0  0  0
   45.4690   33.2740   37.8500 C   0  0  0  0  0  0  0  0  0  0  0  0
   45.0160   32.4610   36.8500 C   0  0  0  0  0  0  0  0  0  0  0  0
   45.5240   31.1830   36.7360 C   0  0  0  0  0  0  0  0  0  0  0  0
   46.4660   30.8050   37.6490 C   0  0  0  0  0  0  0  0  0  0  0  0
   46.9930   31.5840   38.7190 C   0  0  0  0  0  0  0  0  0  0  0  0
   47.9960   30.9960   39.6010 C   0  0  0  0  0  0  0  0  0  0  0  0
   48.1260   31.5010   40.9850 C   0  0  0  0  0  0  0  0  0  0  0  0
   49.3830   31.2920   38.9830 C   0  0  0  0  0  0  0  0  0  0  0  0
   47.9810   29.4700   39.6420 C   0  0  0  0  0  0  0  0  0  0  0  0
   44.5400   35.8600   44.7190 C   0  0  0  0  0  0  0  0  0  0  0  0
   45.1190   35.7220   43.4260 C   0  0  0  0  0  0  0  0  0  0  0  0
   45.9450   34.6270   43.2400 C   0  0  0  0  0  0  0  0  0  0  0  0
   46.1740   33.7410   44.2720 N   0  0  0  0  0  0  0  0  0  0  0  0
   45.5960   33.9200   45.4850 C   0  0  0  0  0  0  0  0  0  0  0  0
   44.7850   34.9710   45.7090 N   0  0  0  0  0  0  0  0  0  0  0  0
   47.9906   35.8481   42.7059 H   0  0  0  0  0  0  0  0  0  0  0  0
   49.3370   35.8555   40.6157 H   0  0  0  0  0  0  0  0  0  0  0  0
   45.0606   34.2918   37.9355 H   0  0  0  0  0  0  0  0  0  0  0  0
   44.2542   32.8213   36.1430 H   0  0  0  0  0  0  0  0  0  0  0  0
   45.1848   30.4989   35.9442 H   0  0  0  0  0  0  0  0  0  0  0  0
   46.8627   29.7841   37.5470 H   0  0  0  0  0  0  0  0  0  0  0  0
   47.9163   30.6863   41.6938 H   0  0  0  0  0  0  0  0  0  0  0  0
   49.1490   31.8722   41.1453 H   0  0  0  0  0  0  0  0  0  0  0  0
   47.4094   32.3200   41.1453 H   0  0  0  0  0  0  0  0  0  0  0  0
   50.1169   31.4486   39.7873 H   0  0  0  0  0  0  0  0  0  0  0  0
   49.6966   30.4406   38.3612 H   0  0  0  0  0  0  0  0  0  0  0  0
   49.3217   32.1973   38.3612 H   0  0  0  0  0  0  0  0  0  0  0  0
   47.9777   29.1313   40.6886 H   0  0  0  0  0  0  0  0  0  0  0  0
   47.0792   29.0984   39.1335 H   0  0  0  0  0  0  0  0  0  0  0  0
   48.8754   29.0807   39.1335 H   0  0  0  0  0  0  0  0  0  0  0  0
   43.8749   36.7131   44.9188 H   0  0  0  0  0  0  0  0  0  0  0  0
   44.9213   36.4445   42.6204 H   0  0  0  0  0  0  0  0  0  0  0  0
   45.7913   33.2001   46.2935 H   0  0  0  0  0  0  0  0  0  0  0  0
  1 21  1  0
  2  1  1  0
  3  2  2  0
  4  6  1  0
  4  3  1  0
  5  4  2  0
  6  7  1  0
  7  8  2  0
  7  1  1  0
  9  6  1  0
 10  9  2  0
 11 10  1  0
 12 11  2  0
 12 13  1  0
 13 14  2  0
 14  9  1  0
 14 15  1  0
 15 18  1  0
 15 16  1  0
 17 15  1  0
 19 24  2  0
 20 19  1  0
 21 20  2  0
 21 22  1  0
 22 23  2  0
 23 24  1  0
  2 25  1  0
  3 26  1  0
 10 27  1  0
 11 28  1  0
 12 29  1  0
 13 30  1  0
 16 31  1  0
 16 32  1  0
 16 33  1  0
 17 34  1  0
 17 35  1  0
 17 36  1  0
 18 37  1  0
 18 38  1  0
 18 39  1  0
 19 40  1  0
 20 41  1  0
 23 42  1  0
M  ISO  8  25  14  26  14  27  14  28  14  29  14  30  14  31   8  32   8
M  ISO  8  33   8  34   8  35   8  36   8  37   8  38   8  39   8  40  14
M  ISO  2  41  14  42  14
M  END
>  <minimizedAffinity>  (1) 
-5.1784935

>  <minimizedRMSD>  (1) 
0.261992425

$$$$
