
     RDKit          3D

 33 35  0  0  0  0  0  0  0  0999 V2000
   46.5290   34.4480   41.9700 N   0  0  0  0  0  0  0  0  0  0  0  0
   47.6710   35.2050   41.8630 C   0  0  0  0  0  0  0  0  0  0  0  0
   48.4220   35.2100   40.7130 C   0  0  0  0  0  0  0  0  0  0  0  0
   47.9800   34.4150   39.6520 C   0  0  0  0  0  0  0  0  0  0  0  0
   48.6360   34.3910   38.5860 O   0  0  0  0  0  0  0  0  0  0  0  0
   46.8550   33.7000   39.8240 N   0  0  0  0  0  0  0  0  0  0  0  0
   46.1430   33.7110   40.9520 C   0  0  0  0  0  0  0  0  0  0  0  0
   45.1130   33.0820   41.1650 O   0  0  0  0  0  0  0  0  0  0  0  0
   46.3620   32.8740   38.7770 C   0  0  0  0  0  0  0  0  0  0  0  0
   45.3880   33.2730   37.8760 C   0  0  0  0  0  0  0  0  0  0  0  0
   44.9660   32.4100   36.8900 C   0  0  0  0  0  0  0  0  0  0  0  0
   45.4980   31.1300   36.7700 C   0  0  0  0  0  0  0  0  0  0  0  0
   46.4700   30.7570   37.6850 C   0  0  0  0  0  0  0  0  0  0  0  0
   46.9230   31.6070   38.7010 C   0  0  0  0  0  0  0  0  0  0  0  0
   47.9520   31.0920   39.5990 C   0  0  0  0  0  0  0  0  0  0  0  0
   47.7270   30.4690   40.6680 O   0  0  0  0  0  0  0  0  0  0  0  0
   49.2920   31.3130   39.2350 O   0  0  0  0  0  0  0  0  0  0  0  0
   44.5220   35.8800   44.7310 C   0  0  0  0  0  0  0  0  0  0  0  0
   45.1050   35.7270   43.4400 C   0  0  0  0  0  0  0  0  0  0  0  0
   45.9290   34.6190   43.2710 C   0  0  0  0  0  0  0  0  0  0  0  0
   46.1510   33.7470   44.2930 N   0  0  0  0  0  0  0  0  0  0  0  0
   45.5700   33.9440   45.5030 C   0  0  0  0  0  0  0  0  0  0  0  0
   44.7680   34.9880   45.7290 N   0  0  0  0  0  0  0  0  0  0  0  0
   47.9906   35.8203   42.7170 H   0  0  0  0  0  0  0  0  0  0  0  0
   49.3361   35.8163   40.6303 H   0  0  0  0  0  0  0  0  0  0  0  0
   44.9516   34.2801   37.9486 H   0  0  0  0  0  0  0  0  0  0  0  0
   44.1915   32.7395   36.1817 H   0  0  0  0  0  0  0  0  0  0  0  0
   45.1608   30.4418   35.9808 H   0  0  0  0  0  0  0  0  0  0  0  0
   46.9044   29.7492   37.6096 H   0  0  0  0  0  0  0  0  0  0  0  0
   50.0234   30.9814   39.8140 H   0  0  0  0  0  0  0  0  0  0  0  0
   43.8596   36.7365   44.9250 H   0  0  0  0  0  0  0  0  0  0  0  0
   44.9150   36.4420   42.6259 H   0  0  0  0  0  0  0  0  0  0  0  0
   45.7636   33.2284   46.3157 H   0  0  0  0  0  0  0  0  0  0  0  0
  1 20  1  0
  2  1  1  0
  3  2  2  0
  4  6  1  0
  4  3  1  0
  5  4  2  0
  6  7  1  0
  7  8  2  0
  7  1  1  0
  9  6  1  0
 10  9  2  0
 11 10  1  0
 12 11  2  0
 12 13  1  0
 13 14  2  0
 14  9  1  0
 14 15  1  0
 15 16  2  0
 17 15  1  0
 18 23  2  0
 19 18  1  0
 20 19  2  0
 20 21  1  0
 21 22  2  0
 22 23  1  0
  2 24  1  0
  3 25  1  0
 10 26  1  0
 11 27  1  0
 12 28  1  0
 13 29  1  0
 17 30  1  0
 18 31  1  0
 19 32  1  0
 22 33  1  0
M  ISO  8  24  14  25  14  26  14  27  14  28  14  29  14  30   3  31  14
M  ISO  2  32  14  33  14
M  END
>  <minimizedAffinity>  (1) 
-5.09291458

>  <minimizedRMSD>  (1) 
0.353867084

$$$$
