
     RDKit          3D

 37 40  0  0  0  0  0  0  0  0999 V2000
   46.5400   34.4490   41.9590 N   0  0  0  0  0  0  0  0  0  0  0  0
   47.6780   35.2110   41.8520 C   0  0  0  0  0  0  0  0  0  0  0  0
   48.4280   35.2230   40.7050 C   0  0  0  0  0  0  0  0  0  0  0  0
   47.9920   34.4270   39.6400 C   0  0  0  0  0  0  0  0  0  0  0  0
   48.6500   34.4110   38.5730 O   0  0  0  0  0  0  0  0  0  0  0  0
   46.8730   33.7090   39.8100 N   0  0  0  0  0  0  0  0  0  0  0  0
   46.1570   33.7130   40.9380 C   0  0  0  0  0  0  0  0  0  0  0  0
   45.1290   33.0790   41.1540 O   0  0  0  0  0  0  0  0  0  0  0  0
   46.3800   32.8810   38.7610 C   0  0  0  0  0  0  0  0  0  0  0  0
   45.4580   33.3170   37.8170 C   0  0  0  0  0  0  0  0  0  0  0  0
   45.0310   32.4410   36.8280 C   0  0  0  0  0  0  0  0  0  0  0  0
   45.5110   31.1390   36.7690 C   0  0  0  0  0  0  0  0  0  0  0  0
   46.4220   30.7410   37.7190 C   0  0  0  0  0  0  0  0  0  0  0  0
   46.8900   31.5800   38.7400 C   0  0  0  0  0  0  0  0  0  0  0  0
   47.8650   31.1080   39.7330 C   0  0  0  0  0  0  0  0  0  0  0  0
   49.3050   31.0030   39.5010 C   0  0  0  0  0  0  0  0  0  0  0  0
   48.4750   29.7730   39.4590 C   0  0  0  0  0  0  0  0  0  0  0  0
   44.5280   35.8730   44.7240 C   0  0  0  0  0  0  0  0  0  0  0  0
   45.1150   35.7190   43.4350 C   0  0  0  0  0  0  0  0  0  0  0  0
   45.9410   34.6150   43.2590 C   0  0  0  0  0  0  0  0  0  0  0  0
   46.1620   33.7420   44.2820 N   0  0  0  0  0  0  0  0  0  0  0  0
   45.5730   33.9440   45.4890 C   0  0  0  0  0  0  0  0  0  0  0  0
   44.7680   34.9910   45.7150 N   0  0  0  0  0  0  0  0  0  0  0  0
   47.9948   35.8261   42.7072 H   0  0  0  0  0  0  0  0  0  0  0  0
   49.3383   35.8353   40.6246 H   0  0  0  0  0  0  0  0  0  0  0  0
   45.0704   34.3458   37.8530 H   0  0  0  0  0  0  0  0  0  0  0  0
   44.3012   32.7835   36.0796 H   0  0  0  0  0  0  0  0  0  0  0  0
   45.1721   30.4461   35.9848 H   0  0  0  0  0  0  0  0  0  0  0  0
   46.8036   29.7102   37.6756 H   0  0  0  0  0  0  0  0  0  0  0  0
   47.2951   31.6114   40.5279 H   0  0  0  0  0  0  0  0  0  0  0  0
   49.7406   31.4016   38.5729 H   0  0  0  0  0  0  0  0  0  0  0  0
   50.2019   31.3112   40.0584 H   0  0  0  0  0  0  0  0  0  0  0  0
   48.2870   29.2649   38.5017 H   0  0  0  0  0  0  0  0  0  0  0  0
   48.4907   28.7981   39.9682 H   0  0  0  0  0  0  0  0  0  0  0  0
   43.8649   36.7297   44.9147 H   0  0  0  0  0  0  0  0  0  0  0  0
   44.9247   36.4356   42.6224 H   0  0  0  0  0  0  0  0  0  0  0  0
   45.7619   33.2287   46.3030 H   0  0  0  0  0  0  0  0  0  0  0  0
  1 20  1  0
  2  1  1  0
  3  2  2  0
  4  6  1  0
  4  3  1  0
  5  4  2  0
  6  7  1  0
  7  8  2  0
  7  1  1  0
  9  6  1  0
 10  9  2  0
 11 10  1  0
 12 11  2  0
 12 13  1  0
 13 14  2  0
 14  9  1  0
 14 15  1  0
 16 15  1  0
 17 16  1  0
 17 15  1  0
 18 23  2  0
 19 18  1  0
 20 19  2  0
 20 21  1  0
 21 22  2  0
 22 23  1  0
  2 24  1  0
  3 25  1  0
 10 26  1  0
 11 27  1  0
 12 28  1  0
 13 29  1  0
 15 30  1  0
 16 31  1  0
 16 32  1  0
 17 33  1  0
 17 34  1  0
 18 35  1  0
 19 36  1  0
 22 37  1  0
M  ISO  8  24  14  25  14  26  14  27  14  28  14  29  14  30  13  31  13
M  ISO  6  32  13  33  13  34  13  35  14  36  14  37  14
M  END
>  <minimizedAffinity>  (1) 
-5.04913187

>  <minimizedRMSD>  (1) 
0.730451465

$$$$
