
     RDKit          3D

 39 41  0  0  0  0  0  0  0  0999 V2000
   46.5560   34.4520   41.9450 N   0  0  0  0  0  0  0  0  0  0  0  0
   47.6920   35.2200   41.8390 C   0  0  0  0  0  0  0  0  0  0  0  0
   48.4380   35.2400   40.6950 C   0  0  0  0  0  0  0  0  0  0  0  0
   48.0020   34.4430   39.6210 C   0  0  0  0  0  0  0  0  0  0  0  0
   48.6580   34.4340   38.5540 O   0  0  0  0  0  0  0  0  0  0  0  0
   46.8840   33.7170   39.7920 N   0  0  0  0  0  0  0  0  0  0  0  0
   46.1770   33.7190   40.9210 C   0  0  0  0  0  0  0  0  0  0  0  0
   45.1520   33.0770   41.1320 O   0  0  0  0  0  0  0  0  0  0  0  0
   46.3960   32.8930   38.7400 C   0  0  0  0  0  0  0  0  0  0  0  0
   45.4560   33.3030   37.8080 C   0  0  0  0  0  0  0  0  0  0  0  0
   45.0410   32.4330   36.8220 C   0  0  0  0  0  0  0  0  0  0  0  0
   45.5540   31.1420   36.7430 C   0  0  0  0  0  0  0  0  0  0  0  0
   46.4860   30.7600   37.6780 C   0  0  0  0  0  0  0  0  0  0  0  0
   46.9370   31.6110   38.7010 C   0  0  0  0  0  0  0  0  0  0  0  0
   47.9480   31.0940   39.6590 C   0  0  0  0  0  0  0  0  0  0  0  0
   49.2520   31.8280   39.6220 C   0  0  0  0  0  0  0  0  0  0  0  0
   47.4380   31.1130   41.0850 C   0  0  0  0  0  0  0  0  0  0  0  0
   44.5410   35.8600   44.7120 C   0  0  0  0  0  0  0  0  0  0  0  0
   45.1300   35.7080   43.4280 C   0  0  0  0  0  0  0  0  0  0  0  0
   45.9590   34.6070   43.2440 C   0  0  0  0  0  0  0  0  0  0  0  0
   46.1790   33.7340   44.2610 N   0  0  0  0  0  0  0  0  0  0  0  0
   45.5920   33.9230   45.4720 C   0  0  0  0  0  0  0  0  0  0  0  0
   44.7890   34.9620   45.7000 N   0  0  0  0  0  0  0  0  0  0  0  0
   48.0074   35.8329   42.6962 H   0  0  0  0  0  0  0  0  0  0  0  0
   49.3458   35.8563   40.6165 H   0  0  0  0  0  0  0  0  0  0  0  0
   45.0416   34.3209   37.8547 H   0  0  0  0  0  0  0  0  0  0  0  0
   44.2930   32.7646   36.0867 H   0  0  0  0  0  0  0  0  0  0  0  0
   45.2236   30.4481   35.9560 H   0  0  0  0  0  0  0  0  0  0  0  0
   46.8977   29.7414   37.6229 H   0  0  0  0  0  0  0  0  0  0  0  0
   48.1255   30.0600   39.3285 H   0  0  0  0  0  0  0  0  0  0  0  0
   49.5938   32.0204   40.6497 H   0  0  0  0  0  0  0  0  0  0  0  0
   50.0008   31.2188   39.0945 H   0  0  0  0  0  0  0  0  0  0  0  0
   49.1197   32.7842   39.0945 H   0  0  0  0  0  0  0  0  0  0  0  0
   48.2903   31.0812   41.7797 H   0  0  0  0  0  0  0  0  0  0  0  0
   46.8601   32.0333   41.2555 H   0  0  0  0  0  0  0  0  0  0  0  0
   46.7932   30.2383   41.2555 H   0  0  0  0  0  0  0  0  0  0  0  0
   43.8767   36.7146   44.9079 H   0  0  0  0  0  0  0  0  0  0  0  0
   44.9392   36.4272   42.6179 H   0  0  0  0  0  0  0  0  0  0  0  0
   45.7837   33.2031   46.2813 H   0  0  0  0  0  0  0  0  0  0  0  0
  1 20  1  0
  2  1  1  0
  3  2  2  0
  4  6  1  0
  4  3  1  0
  5  4  2  0
  6  7  1  0
  7  8  2  0
  7  1  1  0
  9  6  1  0
 10  9  2  0
 11 10  1  0
 12 11  2  0
 12 13  1  0
 13 14  2  0
 14  9  1  0
 14 15  1  0
 15 17  1  0
 16 15  1  0
 18 23  2  0
 19 18  1  0
 20 19  2  0
 20 21  1  0
 21 22  2  0
 22 23  1  0
  2 24  1  0
  3 25  1  0
 10 26  1  0
 11 27  1  0
 12 28  1  0
 13 29  1  0
 15 30  1  0
 16 31  1  0
 16 32  1  0
 16 33  1  0
 17 34  1  0
 17 35  1  0
 17 36  1  0
 18 37  1  0
 19 38  1  0
 22 39  1  0
M  ISO  8  24  14  25  14  26  14  27  14  28  14  29  14  30   8  31   8
M  ISO  8  32   8  33   8  34   8  35   8  36   8  37  14  38  14  39  14
M  END
>  <minimizedAffinity>  (1) 
-5.16853476

>  <minimizedRMSD>  (1) 
0.33619678

$$$$
