
     RDKit          3D

 45 48  0  0  0  0  0  0  0  0999 V2000
   46.5170   34.4510   41.9870 N   0  0  0  0  0  0  0  0  0  0  0  0
   47.6680   35.2080   41.8760 C   0  0  0  0  0  0  0  0  0  0  0  0
   48.4180   35.2080   40.7290 C   0  0  0  0  0  0  0  0  0  0  0  0
   47.9780   34.4110   39.6680 C   0  0  0  0  0  0  0  0  0  0  0  0
   48.6400   34.4000   38.6190 O   0  0  0  0  0  0  0  0  0  0  0  0
   46.8510   33.6950   39.8380 N   0  0  0  0  0  0  0  0  0  0  0  0
   46.1380   33.7170   40.9720 C   0  0  0  0  0  0  0  0  0  0  0  0
   45.1140   33.1010   41.1820 O   0  0  0  0  0  0  0  0  0  0  0  0
   44.4900   35.8980   44.7200 C   0  0  0  0  0  0  0  0  0  0  0  0
   45.0800   35.7230   43.4400 C   0  0  0  0  0  0  0  0  0  0  0  0
   45.9200   34.6250   43.2850 C   0  0  0  0  0  0  0  0  0  0  0  0
   46.1520   33.7750   44.3190 N   0  0  0  0  0  0  0  0  0  0  0  0
   45.5630   33.9890   45.5200 C   0  0  0  0  0  0  0  0  0  0  0  0
   44.7440   35.0320   45.7230 N   0  0  0  0  0  0  0  0  0  0  0  0
   45.8410   33.0650   46.5700 N   0  0  0  0  0  0  0  0  0  0  0  0
   46.8070   32.1290   46.6200 C   0  0  0  0  0  0  0  0  0  0  0  0
   46.7440   31.4500   47.7880 N   0  0  0  0  0  0  0  0  0  0  0  0
   45.7150   31.9730   48.4860 C   0  0  0  0  0  0  0  0  0  0  0  0
   45.1930   32.9460   47.7180 N   0  0  0  0  0  0  0  0  0  0  0  0
   46.3700   32.8670   38.8020 C   0  0  0  0  0  0  0  0  0  0  0  0
   45.4590   33.2660   37.8520 C   0  0  0  0  0  0  0  0  0  0  0  0
   45.0310   32.4080   36.8720 C   0  0  0  0  0  0  0  0  0  0  0  0
   45.5070   31.1160   36.8180 C   0  0  0  0  0  0  0  0  0  0  0  0
   46.4050   30.7390   37.7640 C   0  0  0  0  0  0  0  0  0  0  0  0
   46.8810   31.5730   38.7910 C   0  0  0  0  0  0  0  0  0  0  0  0
   47.8700   31.0580   39.7760 C   0  0  0  0  0  0  0  0  0  0  0  0
   49.1940   31.7350   39.7620 C   0  0  0  0  0  0  0  0  0  0  0  0
   47.3800   31.0820   41.1890 C   0  0  0  0  0  0  0  0  0  0  0  0
   47.9896   35.8248   42.7281 H   0  0  0  0  0  0  0  0  0  0  0  0
   49.3329   35.8131   40.6462 H   0  0  0  0  0  0  0  0  0  0  0  0
   43.8174   36.7504   44.8959 H   0  0  0  0  0  0  0  0  0  0  0  0
   44.8827   36.4206   42.6127 H   0  0  0  0  0  0  0  0  0  0  0  0
   47.5431   31.9428   45.8240 H   0  0  0  0  0  0  0  0  0  0  0  0
   45.3712   31.6650   49.4845 H   0  0  0  0  0  0  0  0  0  0  0  0
   45.0663   34.2931   37.8790 H   0  0  0  0  0  0  0  0  0  0  0  0
   44.3026   32.7534   36.1236 H   0  0  0  0  0  0  0  0  0  0  0  0
   45.1721   30.4165   36.0379 H   0  0  0  0  0  0  0  0  0  0  0  0
   46.7871   29.7083   37.7241 H   0  0  0  0  0  0  0  0  0  0  0  0
   47.9993   30.0220   39.4297 H   0  0  0  0  0  0  0  0  0  0  0  0
   49.5291   31.9064   40.7956 H   0  0  0  0  0  0  0  0  0  0  0  0
   49.9250   31.1000   39.2400 H   0  0  0  0  0  0  0  0  0  0  0  0
   49.1072   32.6994   39.2400 H   0  0  0  0  0  0  0  0  0  0  0  0
   48.2384   31.0400   41.8755 H   0  0  0  0  0  0  0  0  0  0  0  0
   46.8145   32.0089   41.3653 H   0  0  0  0  0  0  0  0  0  0  0  0
   46.7267   30.2148   41.3653 H   0  0  0  0  0  0  0  0  0  0  0  0
  1 11  1  0
  2  1  1  0
  3  2  2  0
  4  6  1  0
  4  3  1  0
  5  4  2  0
  6  7  1  0
  7  8  2  0
  7  1  1  0
  9 14  2  0
 10  9  1  0
 11 10  2  0
 11 12  1  0
 12 13  2  0
 13 14  1  0
 13 15  1  0
 15 16  1  0
 15 19  1  0
 16 17  2  0
 17 18  1  0
 19 18  2  0
 20  6  1  0
 21 20  2  0
 22 21  1  0
 23 22  2  0
 23 24  1  0
 24 25  2  0
 25 20  1  0
 25 26  1  0
 26 28  1  0
 27 26  1  0
  2 29  1  0
  3 30  1  0
  9 31  1  0
 10 32  1  0
 16 33  1  0
 18 34  1  0
 21 35  1  0
 22 36  1  0
 23 37  1  0
 24 38  1  0
 26 39  1  0
 27 40  1  0
 27 41  1  0
 27 42  1  0
 28 43  1  0
 28 44  1  0
 28 45  1  0
M  ISO  8  29  14  30  14  31  14  32  14  33  14  34  14  35  14  36  14
M  ISO  8  37  14  38  14  39   8  40   8  41   8  42   8  43   8  44   8
M  ISO  1  45   8
M  END
>  <minimizedAffinity>  (1) 
-6.54761028

>  <minimizedRMSD>  (1) 
0.101935096

$$$$
