
     RDKit          3D

 46 49  0  0  0  0  0  0  0  0999 V2000
   46.5020   34.5120   41.8760 N   0  0  0  0  0  0  0  0  0  0  0  0
   47.6820   35.2220   41.7620 C   0  0  0  0  0  0  0  0  0  0  0  0
   48.4500   35.1520   40.6330 C   0  0  0  0  0  0  0  0  0  0  0  0
   47.9990   34.3330   39.5920 C   0  0  0  0  0  0  0  0  0  0  0  0
   48.6810   34.2590   38.5550 O   0  0  0  0  0  0  0  0  0  0  0  0
   46.8460   33.6660   39.7640 N   0  0  0  0  0  0  0  0  0  0  0  0
   46.1130   33.7570   40.8820 C   0  0  0  0  0  0  0  0  0  0  0  0
   45.0640   33.1870   41.0940 O   0  0  0  0  0  0  0  0  0  0  0  0
   46.3540   32.8180   38.7510 C   0  0  0  0  0  0  0  0  0  0  0  0
   45.4840   33.2170   37.7630 C   0  0  0  0  0  0  0  0  0  0  0  0
   45.0410   32.3390   36.8060 C   0  0  0  0  0  0  0  0  0  0  0  0
   45.4610   31.0260   36.8160 C   0  0  0  0  0  0  0  0  0  0  0  0
   46.3170   30.6510   37.8000 C   0  0  0  0  0  0  0  0  0  0  0  0
   46.8060   31.5020   38.8040 C   0  0  0  0  0  0  0  0  0  0  0  0
   47.7490   30.9880   39.8340 C   0  0  0  0  0  0  0  0  0  0  0  0
   49.0970   31.6150   39.8350 C   0  0  0  0  0  0  0  0  0  0  0  0
   47.2170   31.0740   41.2310 C   0  0  0  0  0  0  0  0  0  0  0  0
   44.4670   36.1280   44.5150 C   0  0  0  0  0  0  0  0  0  0  0  0
   45.0780   35.8830   43.2540 C   0  0  0  0  0  0  0  0  0  0  0  0
   45.8870   34.7560   43.1550 C   0  0  0  0  0  0  0  0  0  0  0  0
   46.0680   33.9470   44.2260 N   0  0  0  0  0  0  0  0  0  0  0  0
   45.4680   34.2160   45.4060 C   0  0  0  0  0  0  0  0  0  0  0  0
   44.6850   35.2780   45.5590 N   0  0  0  0  0  0  0  0  0  0  0  0
   45.7000   33.3080   46.5270 C   0  0  0  0  0  0  0  0  0  0  0  0
   46.7290   32.3940   46.6370 C   0  0  0  0  0  0  0  0  0  0  0  0
   46.5690   31.7660   47.8200 N   0  0  0  0  0  0  0  0  0  0  0  0
   45.4880   32.2440   48.4580 C   0  0  0  0  0  0  0  0  0  0  0  0
   44.9690   33.1870   47.6500 N   0  0  0  0  0  0  0  0  0  0  0  0
   48.0106   35.8573   42.5977 H   0  0  0  0  0  0  0  0  0  0  0  0
   49.3886   35.7191   40.5462 H   0  0  0  0  0  0  0  0  0  0  0  0
   45.1366   34.2604   37.7396 H   0  0  0  0  0  0  0  0  0  0  0  0
   44.3466   32.6849   36.0262 H   0  0  0  0  0  0  0  0  0  0  0  0
   45.1156   30.3100   36.0557 H   0  0  0  0  0  0  0  0  0  0  0  0
   46.6524   29.6034   37.8119 H   0  0  0  0  0  0  0  0  0  0  0  0
   47.8539   29.9371   39.5263 H   0  0  0  0  0  0  0  0  0  0  0  0
   49.4288   31.7693   40.8723 H   0  0  0  0  0  0  0  0  0  0  0  0
   49.8086   30.9554   39.3167 H   0  0  0  0  0  0  0  0  0  0  0  0
   49.0510   32.5841   39.3167 H   0  0  0  0  0  0  0  0  0  0  0  0
   48.0419   30.9406   41.9464 H   0  0  0  0  0  0  0  0  0  0  0  0
   46.7525   32.0589   41.3865 H   0  0  0  0  0  0  0  0  0  0  0  0
   46.4658   30.2856   41.3865 H   0  0  0  0  0  0  0  0  0  0  0  0
   43.8170   37.0053   44.6484 H   0  0  0  0  0  0  0  0  0  0  0  0
   44.9181   36.5537   42.3970 H   0  0  0  0  0  0  0  0  0  0  0  0
   47.5263   32.2127   45.9011 H   0  0  0  0  0  0  0  0  0  0  0  0
   45.1052   31.9292   49.4400 H   0  0  0  0  0  0  0  0  0  0  0  0
   44.1268   33.7407   47.8625 H   0  0  0  0  0  0  0  0  0  0  0  0
  1 20  1  0
  2  1  1  0
  3  2  2  0
  4  6  1  0
  4  3  1  0
  5  4  2  0
  6  7  1  0
  7  8  2  0
  7  1  1  0
  9 14  1  0
  9  6  1  0
 10  9  2  0
 11 12  2  0
 11 10  1  0
 12 13  1  0
 13 14  2  0
 14 15  1  0
 15 16  1  0
 15 17  1  0
 18 23  2  0
 19 18  1  0
 20 19  2  0
 20 21  1  0
 21 22  2  0
 22 23  1  0
 22 24  1  0
 24 25  2  0
 24 28  1  0
 25 26  1  0
 26 27  2  0
 28 27  1  0
  2 29  1  0
  3 30  1  0
 10 31  1  0
 11 32  1  0
 12 33  1  0
 13 34  1  0
 15 35  1  0
 16 36  1  0
 16 37  1  0
 16 38  1  0
 17 39  1  0
 17 40  1  0
 17 41  1  0
 18 42  1  0
 19 43  1  0
 25 44  1  0
 27 45  1  0
 28 46  1  0
M  ISO  8  29  14  30  14  31  14  32  14  33  14  34  14  35   8  36   8
M  ISO  8  37   8  38   8  39   8  40   8  41   8  42  14  43  14  44  14
M  ISO  2  45  14  46   9
M  END
>  <minimizedAffinity>  (1) 
-6.64442444

>  <minimizedRMSD>  (1) 
0.317441821

$$$$
