
     RDKit          3D

 48 51  0  0  0  0  0  0  0  0999 V2000
   46.5680   34.3790   42.0710 N   0  0  0  0  0  0  0  0  0  0  0  0
   47.6730   35.2020   41.9510 C   0  0  0  0  0  0  0  0  0  0  0  0
   48.3980   35.2520   40.7890 C   0  0  0  0  0  0  0  0  0  0  0  0
   47.9840   34.4430   39.7260 C   0  0  0  0  0  0  0  0  0  0  0  0
   48.6230   34.4770   38.6650 O   0  0  0  0  0  0  0  0  0  0  0  0
   46.9000   33.6630   39.9080 N   0  0  0  0  0  0  0  0  0  0  0  0
   46.2100   33.6370   41.0560 C   0  0  0  0  0  0  0  0  0  0  0  0
   45.2280   32.9640   41.2770 O   0  0  0  0  0  0  0  0  0  0  0  0
   46.4460   32.8200   38.8730 C   0  0  0  0  0  0  0  0  0  0  0  0
   45.4900   33.1740   37.9490 C   0  0  0  0  0  0  0  0  0  0  0  0
   45.0910   32.3050   36.9670 C   0  0  0  0  0  0  0  0  0  0  0  0
   45.6450   31.0450   36.8840 C   0  0  0  0  0  0  0  0  0  0  0  0
   46.5860   30.7150   37.8040 C   0  0  0  0  0  0  0  0  0  0  0  0
   47.0380   31.5560   38.8320 C   0  0  0  0  0  0  0  0  0  0  0  0
   48.0750   31.0940   39.7870 C   0  0  0  0  0  0  0  0  0  0  0  0
   49.3600   31.8430   39.7450 C   0  0  0  0  0  0  0  0  0  0  0  0
   47.6210   31.0830   41.2140 C   0  0  0  0  0  0  0  0  0  0  0  0
   44.5350   35.6910   44.8670 C   0  0  0  0  0  0  0  0  0  0  0  0
   45.1060   35.5630   43.5730 C   0  0  0  0  0  0  0  0  0  0  0  0
   45.9900   34.5090   43.3750 C   0  0  0  0  0  0  0  0  0  0  0  0
   46.2740   33.6570   44.3940 N   0  0  0  0  0  0  0  0  0  0  0  0
   45.7020   33.8220   45.6170 C   0  0  0  0  0  0  0  0  0  0  0  0
   44.8520   34.8120   45.8520 N   0  0  0  0  0  0  0  0  0  0  0  0
   46.0330   32.8810   46.6930 C   0  0  0  0  0  0  0  0  0  0  0  0
   45.1920   32.7800   47.8060 C   0  0  0  0  0  0  0  0  0  0  0  0
   45.5380   31.8800   48.8010 C   0  0  0  0  0  0  0  0  0  0  0  0
   46.6850   31.1270   48.6590 C   0  0  0  0  0  0  0  0  0  0  0  0
   47.5150   31.2310   47.5530 C   0  0  0  0  0  0  0  0  0  0  0  0
   47.1380   32.1170   46.6140 N   0  0  0  0  0  0  0  0  0  0  0  0
   47.9755   35.8278   42.8036 H   0  0  0  0  0  0  0  0  0  0  0  0
   49.2768   35.9070   40.6955 H   0  0  0  0  0  0  0  0  0  0  0  0
   45.0366   34.1749   37.9994 H   0  0  0  0  0  0  0  0  0  0  0  0
   44.3246   32.6144   36.2411 H   0  0  0  0  0  0  0  0  0  0  0  0
   45.3361   30.3352   36.1025 H   0  0  0  0  0  0  0  0  0  0  0  0
   47.0289   29.7102   37.7389 H   0  0  0  0  0  0  0  0  0  0  0  0
   48.2510   30.0685   39.4302 H   0  0  0  0  0  0  0  0  0  0  0  0
   49.7019   32.0423   40.7713 H   0  0  0  0  0  0  0  0  0  0  0  0
   50.1163   31.2443   39.2163 H   0  0  0  0  0  0  0  0  0  0  0  0
   49.2117   32.7962   39.2163 H   0  0  0  0  0  0  0  0  0  0  0  0
   48.4978   31.1042   41.8779 H   0  0  0  0  0  0  0  0  0  0  0  0
   46.9941   31.9662   41.4061 H   0  0  0  0  0  0  0  0  0  0  0  0
   47.0376   30.1705   41.4061 H   0  0  0  0  0  0  0  0  0  0  0  0
   43.8297   36.5095   45.0731 H   0  0  0  0  0  0  0  0  0  0  0  0
   44.8597   36.2664   42.7639 H   0  0  0  0  0  0  0  0  0  0  0  0
   44.2843   33.3958   47.8888 H   0  0  0  0  0  0  0  0  0  0  0  0
   44.9054   31.7673   49.6938 H   0  0  0  0  0  0  0  0  0  0  0  0
   46.9518   30.4158   49.4546 H   0  0  0  0  0  0  0  0  0  0  0  0
   48.4272   30.6251   47.4498 H   0  0  0  0  0  0  0  0  0  0  0  0
  1 20  1  0
  2  1  1  0
  3  2  2  0
  4  6  1  0
  4  3  1  0
  5  4  2  0
  6  7  1  0
  7  8  2  0
  7  1  1  0
  9  6  1  0
 10  9  2  0
 11 10  1  0
 12 11  2  0
 12 13  1  0
 13 14  2  0
 14  9  1  0
 14 15  1  0
 15 17  1  0
 16 15  1  0
 18 23  2  0
 19 18  1  0
 20 19  2  0
 20 21  1  0
 21 22  2  0
 22 23  1  0
 22 24  1  0
 24 25  2  0
 25 26  1  0
 27 26  2  0
 28 27  1  0
 29 24  1  0
 29 28  2  0
  2 30  1  0
  3 31  1  0
 10 32  1  0
 11 33  1  0
 12 34  1  0
 13 35  1  0
 15 36  1  0
 16 37  1  0
 16 38  1  0
 16 39  1  0
 17 40  1  0
 17 41  1  0
 17 42  1  0
 18 43  1  0
 19 44  1  0
 25 45  1  0
 26 46  1  0
 27 47  1  0
 28 48  1  0
M  ISO  8  30  14  31  14  32  14  33  14  34  14  35  14  36   8  37   8
M  ISO  8  38   8  39   8  40   8  41   8  42   8  43  14  44  14  45  14
M  ISO  3  46  14  47  14  48  14
M  END
>  <minimizedAffinity>  (1) 
-6.65083265

>  <minimizedRMSD>  (1) 
0.458010077

$$$$
