
     RDKit          3D

 46 49  0  0  0  0  0  0  0  0999 V2000
   46.5330   34.4430   41.9680 N   0  0  0  0  0  0  0  0  0  0  0  0
   47.6790   35.2010   41.8510 C   0  0  0  0  0  0  0  0  0  0  0  0
   48.4230   35.2030   40.7020 C   0  0  0  0  0  0  0  0  0  0  0  0
   47.9780   34.4050   39.6420 C   0  0  0  0  0  0  0  0  0  0  0  0
   48.6330   34.3910   38.5860 O   0  0  0  0  0  0  0  0  0  0  0  0
   46.8540   33.6870   39.8190 N   0  0  0  0  0  0  0  0  0  0  0  0
   46.1470   33.7080   40.9570 C   0  0  0  0  0  0  0  0  0  0  0  0
   45.1280   33.0920   41.1720 O   0  0  0  0  0  0  0  0  0  0  0  0
   46.3680   32.8560   38.7870 C   0  0  0  0  0  0  0  0  0  0  0  0
   45.4490   33.2530   37.8440 C   0  0  0  0  0  0  0  0  0  0  0  0
   45.0150   32.3920   36.8670 C   0  0  0  0  0  0  0  0  0  0  0  0
   45.4940   31.1000   36.8110 C   0  0  0  0  0  0  0  0  0  0  0  0
   46.4010   30.7250   37.7510 C   0  0  0  0  0  0  0  0  0  0  0  0
   46.8810   31.5590   38.7710 C   0  0  0  0  0  0  0  0  0  0  0  0
   47.8780   31.0500   39.7540 C   0  0  0  0  0  0  0  0  0  0  0  0
   49.2010   31.7280   39.7270 C   0  0  0  0  0  0  0  0  0  0  0  0
   47.3930   31.0730   41.1680 C   0  0  0  0  0  0  0  0  0  0  0  0
   44.4880   35.8580   44.7080 C   0  0  0  0  0  0  0  0  0  0  0  0
   45.0710   35.6850   43.4240 C   0  0  0  0  0  0  0  0  0  0  0  0
   45.9430   34.6160   43.2660 C   0  0  0  0  0  0  0  0  0  0  0  0
   46.2060   33.7890   44.3120 N   0  0  0  0  0  0  0  0  0  0  0  0
   45.6270   33.9940   45.5150 C   0  0  0  0  0  0  0  0  0  0  0  0
   44.7780   35.0120   45.7180 N   0  0  0  0  0  0  0  0  0  0  0  0
   45.9470   33.0670   46.6160 C   0  0  0  0  0  0  0  0  0  0  0  0
   47.0150   32.2130   46.8400 C   0  0  0  0  0  0  0  0  0  0  0  0
   46.7990   31.5720   48.0500 C   0  0  0  0  0  0  0  0  0  0  0  0
   45.6360   32.0280   48.5380 N   0  0  0  0  0  0  0  0  0  0  0  0
   45.1240   32.9180   47.6900 N   0  0  0  0  0  0  0  0  0  0  0  0
   48.0031   35.8189   42.7014 H   0  0  0  0  0  0  0  0  0  0  0  0
   49.3367   35.8093   40.6151 H   0  0  0  0  0  0  0  0  0  0  0  0
   45.0545   34.2794   37.8732 H   0  0  0  0  0  0  0  0  0  0  0  0
   44.2802   32.7349   36.1237 H   0  0  0  0  0  0  0  0  0  0  0  0
   45.1545   30.3990   36.0343 H   0  0  0  0  0  0  0  0  0  0  0  0
   46.7855   29.6953   37.7088 H   0  0  0  0  0  0  0  0  0  0  0  0
   48.0105   30.0128   39.4124 H   0  0  0  0  0  0  0  0  0  0  0  0
   49.5440   31.9038   40.7573 H   0  0  0  0  0  0  0  0  0  0  0  0
   49.9285   31.0916   39.2019 H   0  0  0  0  0  0  0  0  0  0  0  0
   49.1093   32.6902   39.2019 H   0  0  0  0  0  0  0  0  0  0  0  0
   48.2538   31.0322   41.8516 H   0  0  0  0  0  0  0  0  0  0  0  0
   46.8267   31.9990   41.3464 H   0  0  0  0  0  0  0  0  0  0  0  0
   46.7416   30.2047   41.3464 H   0  0  0  0  0  0  0  0  0  0  0  0
   43.7917   36.6919   44.8807 H   0  0  0  0  0  0  0  0  0  0  0  0
   44.8419   36.3674   42.5922 H   0  0  0  0  0  0  0  0  0  0  0  0
   47.8801   32.0693   46.1760 H   0  0  0  0  0  0  0  0  0  0  0  0
   47.4582   30.8284   48.5217 H   0  0  0  0  0  0  0  0  0  0  0  0
   45.2068   31.7361   49.4277 H   0  0  0  0  0  0  0  0  0  0  0  0
  1 20  1  0
  2  1  1  0
  3  2  2  0
  4  6  1  0
  4  3  1  0
  5  4  2  0
  6  7  1  0
  7  8  2  0
  7  1  1  0
  9  6  1  0
 10  9  2  0
 11 10  1  0
 12 11  2  0
 12 13  1  0
 13 14  2  0
 14  9  1  0
 14 15  1  0
 15 17  1  0
 16 15  1  0
 18 23  2  0
 19 18  1  0
 20 19  2  0
 20 21  1  0
 21 22  2  0
 22 23  1  0
 22 24  1  0
 24 25  1  0
 24 28  2  0
 25 26  2  0
 26 27  1  0
 28 27  1  0
  2 29  1  0
  3 30  1  0
 10 31  1  0
 11 32  1  0
 12 33  1  0
 13 34  1  0
 15 35  1  0
 16 36  1  0
 16 37  1  0
 16 38  1  0
 17 39  1  0
 17 40  1  0
 17 41  1  0
 18 42  1  0
 19 43  1  0
 25 44  1  0
 26 45  1  0
 27 46  1  0
M  ISO  8  29  14  30  14  31  14  32  14  33  14  34  14  35   8  36   8
M  ISO  8  37   8  38   8  39   8  40   8  41   8  42  14  43  14  44  14
M  ISO  2  45  14  46   9
M  END
>  <minimizedAffinity>  (1) 
-6.29850245

>  <minimizedRMSD>  (1) 
0.141558424

$$$$
