
     RDKit          3D

 46 49  0  0  0  0  0  0  0  0999 V2000
   46.6320   34.3480   41.9800 N   0  0  0  0  0  0  0  0  0  0  0  0
   47.7450   35.1580   41.8460 C   0  0  0  0  0  0  0  0  0  0  0  0
   48.4430   35.2230   40.6710 C   0  0  0  0  0  0  0  0  0  0  0  0
   47.9890   34.4380   39.6070 C   0  0  0  0  0  0  0  0  0  0  0  0
   48.6040   34.4830   38.5260 O   0  0  0  0  0  0  0  0  0  0  0  0
   46.9030   33.6690   39.7970 N   0  0  0  0  0  0  0  0  0  0  0  0
   46.2390   33.6300   40.9610 C   0  0  0  0  0  0  0  0  0  0  0  0
   45.2540   32.9650   41.1950 O   0  0  0  0  0  0  0  0  0  0  0  0
   46.4110   32.8510   38.7580 C   0  0  0  0  0  0  0  0  0  0  0  0
   45.4470   33.2460   37.8600 C   0  0  0  0  0  0  0  0  0  0  0  0
   45.0130   32.3980   36.8670 C   0  0  0  0  0  0  0  0  0  0  0  0
   45.5400   31.1270   36.7550 C   0  0  0  0  0  0  0  0  0  0  0  0
   46.4900   30.7600   37.6540 C   0  0  0  0  0  0  0  0  0  0  0  0
   46.9770   31.5760   38.6870 C   0  0  0  0  0  0  0  0  0  0  0  0
   48.0220   31.0790   39.6140 C   0  0  0  0  0  0  0  0  0  0  0  0
   49.3180   31.8140   39.5650 C   0  0  0  0  0  0  0  0  0  0  0  0
   47.5950   31.0390   41.0450 C   0  0  0  0  0  0  0  0  0  0  0  0
   44.5570   35.5320   44.8100 C   0  0  0  0  0  0  0  0  0  0  0  0
   45.1030   35.4250   43.5030 C   0  0  0  0  0  0  0  0  0  0  0  0
   46.0820   34.4560   43.3020 C   0  0  0  0  0  0  0  0  0  0  0  0
   46.4830   33.6550   44.3340 N   0  0  0  0  0  0  0  0  0  0  0  0
   45.9220   33.8060   45.5670 C   0  0  0  0  0  0  0  0  0  0  0  0
   44.9890   34.7160   45.7990 N   0  0  0  0  0  0  0  0  0  0  0  0
   46.3960   32.9070   46.6570 C   0  0  0  0  0  0  0  0  0  0  0  0
   45.5120   32.4080   47.7160 C   0  0  0  0  0  0  0  0  0  0  0  0
   45.7940   31.4660   46.6060 C   0  0  0  0  0  0  0  0  0  0  0  0
   48.0763   35.7632   42.7028 H   0  0  0  0  0  0  0  0  0  0  0  0
   49.3277   35.8684   40.5675 H   0  0  0  0  0  0  0  0  0  0  0  0
   45.0164   34.2553   37.9368 H   0  0  0  0  0  0  0  0  0  0  0  0
   44.2419   32.7348   36.1585 H   0  0  0  0  0  0  0  0  0  0  0  0
   45.2032   30.4371   35.9672 H   0  0  0  0  0  0  0  0  0  0  0  0
   46.9092   29.7469   37.5657 H   0  0  0  0  0  0  0  0  0  0  0  0
   48.1763   30.0589   39.2324 H   0  0  0  0  0  0  0  0  0  0  0  0
   49.6664   32.0116   40.5895 H   0  0  0  0  0  0  0  0  0  0  0  0
   50.0650   31.2051   39.0347 H   0  0  0  0  0  0  0  0  0  0  0  0
   49.1789   32.7676   39.0347 H   0  0  0  0  0  0  0  0  0  0  0  0
   48.4793   31.1218   41.6940 H   0  0  0  0  0  0  0  0  0  0  0  0
   46.9119   31.8771   41.2474 H   0  0  0  0  0  0  0  0  0  0  0  0
   47.0794   30.0886   41.2474 H   0  0  0  0  0  0  0  0  0  0  0  0
   43.7795   36.2816   45.0190 H   0  0  0  0  0  0  0  0  0  0  0  0
   44.7668   36.0794   42.6852 H   0  0  0  0  0  0  0  0  0  0  0  0
   47.3776   33.4024   46.6887 H   0  0  0  0  0  0  0  0  0  0  0  0
   45.9281   32.2048   48.7138 H   0  0  0  0  0  0  0  0  0  0  0  0
   44.5821   32.7890   48.1634 H   0  0  0  0  0  0  0  0  0  0  0  0
   45.0104   31.2155   45.8757 H   0  0  0  0  0  0  0  0  0  0  0  0
   46.1914   30.4443   46.5159 H   0  0  0  0  0  0  0  0  0  0  0  0
  1 20  1  0
  2  1  1  0
  3  2  2  0
  4  6  1  0
  4  3  1  0
  5  4  2  0
  6  7  1  0
  7  8  2  0
  7  1  1  0
  9  6  1  0
 10  9  2  0
 11 10  1  0
 12 11  2  0
 12 13  1  0
 13 14  2  0
 14  9  1  0
 14 15  1  0
 15 17  1  0
 16 15  1  0
 18 23  2  0
 19 18  1  0
 20 19  2  0
 20 21  1  0
 21 22  2  0
 22 23  1  0
 22 24  1  0
 24 25  1  0
 26 24  1  0
 26 25  1  0
  2 27  1  0
  3 28  1  0
 10 29  1  0
 11 30  1  0
 12 31  1  0
 13 32  1  0
 15 33  1  0
 16 34  1  0
 16 35  1  0
 16 36  1  0
 17 37  1  0
 17 38  1  0
 17 39  1  0
 18 40  1  0
 19 41  1  0
 24 42  1  0
 25 43  1  0
 25 44  1  0
 26 45  1  0
 26 46  1  0
M  ISO  8  27  14  28  14  29  14  30  14  31  14  32  14  33   8  34   8
M  ISO  8  35   8  36   8  37   8  38   8  39   8  40  14  41  14  42  13
M  ISO  4  43  13  44  13  45  13  46  13
M  END
>  <minimizedAffinity>  (1) 
-5.71351528

>  <minimizedRMSD>  (1) 
0.327653468

$$$$
