
     RDKit          3D

 41 43  0  0  0  0  0  0  0  0999 V2000
   46.5320   34.4450   41.9630 N   0  0  0  0  0  0  0  0  0  0  0  0
   47.6790   35.2030   41.8540 C   0  0  0  0  0  0  0  0  0  0  0  0
   48.4240   35.2090   40.7050 C   0  0  0  0  0  0  0  0  0  0  0  0
   47.9790   34.4170   39.6430 C   0  0  0  0  0  0  0  0  0  0  0  0
   48.6340   34.4080   38.5860 O   0  0  0  0  0  0  0  0  0  0  0  0
   46.8540   33.6990   39.8120 N   0  0  0  0  0  0  0  0  0  0  0  0
   46.1460   33.7150   40.9480 C   0  0  0  0  0  0  0  0  0  0  0  0
   45.1250   33.0990   41.1590 O   0  0  0  0  0  0  0  0  0  0  0  0
   46.3670   32.8740   38.7760 C   0  0  0  0  0  0  0  0  0  0  0  0
   45.4490   33.2760   37.8350 C   0  0  0  0  0  0  0  0  0  0  0  0
   45.0150   32.4190   36.8540 C   0  0  0  0  0  0  0  0  0  0  0  0
   45.4940   31.1280   36.7900 C   0  0  0  0  0  0  0  0  0  0  0  0
   46.4010   30.7480   37.7270 C   0  0  0  0  0  0  0  0  0  0  0  0
   46.8820   31.5780   38.7530 C   0  0  0  0  0  0  0  0  0  0  0  0
   47.8770   31.0640   39.7330 C   0  0  0  0  0  0  0  0  0  0  0  0
   49.2030   31.7360   39.7010 C   0  0  0  0  0  0  0  0  0  0  0  0
   47.3960   31.0860   41.1480 C   0  0  0  0  0  0  0  0  0  0  0  0
   44.5250   35.8590   44.7370 C   0  0  0  0  0  0  0  0  0  0  0  0
   45.1080   35.7010   43.4490 C   0  0  0  0  0  0  0  0  0  0  0  0
   45.9420   34.6110   43.2590 C   0  0  0  0  0  0  0  0  0  0  0  0
   46.1720   33.7460   44.2920 N   0  0  0  0  0  0  0  0  0  0  0  0
   45.5940   33.9400   45.4990 C   0  0  0  0  0  0  0  0  0  0  0  0
   44.7830   34.9780   45.7250 N   0  0  0  0  0  0  0  0  0  0  0  0
   45.8670   32.9890   46.5750 C   0  0  0  0  0  0  0  0  0  0  0  0
   45.0750   33.0610   47.5750 O   0  0  0  0  0  0  0  0  0  0  0  0
   48.0023   35.8159   42.7083 H   0  0  0  0  0  0  0  0  0  0  0  0
   49.3385   35.8145   40.6211 H   0  0  0  0  0  0  0  0  0  0  0  0
   45.0551   34.3025   37.8686 H   0  0  0  0  0  0  0  0  0  0  0  0
   44.2792   32.7653   36.1133 H   0  0  0  0  0  0  0  0  0  0  0  0
   45.1544   30.4315   36.0092 H   0  0  0  0  0  0  0  0  0  0  0  0
   46.7856   29.7186   37.6790 H   0  0  0  0  0  0  0  0  0  0  0  0
   48.0031   30.0258   39.3921 H   0  0  0  0  0  0  0  0  0  0  0  0
   49.5499   31.9118   40.7300 H   0  0  0  0  0  0  0  0  0  0  0  0
   49.9260   31.0955   39.1747 H   0  0  0  0  0  0  0  0  0  0  0  0
   49.1140   32.6978   39.1747 H   0  0  0  0  0  0  0  0  0  0  0  0
   48.2588   31.0465   41.8292 H   0  0  0  0  0  0  0  0  0  0  0  0
   46.8286   32.0110   41.3281 H   0  0  0  0  0  0  0  0  0  0  0  0
   46.7466   30.2166   41.3281 H   0  0  0  0  0  0  0  0  0  0  0  0
   43.8555   36.7103   44.9295 H   0  0  0  0  0  0  0  0  0  0  0  0
   44.9050   36.4149   42.6372 H   0  0  0  0  0  0  0  0  0  0  0  0
   46.6935   32.2647   46.5273 H   0  0  0  0  0  0  0  0  0  0  0  0
  1 20  1  0
  2  1  1  0
  3  2  2  0
  4  6  1  0
  4  3  1  0
  5  4  2  0
  6  7  1  0
  7  8  2  0
  7  1  1  0
  9  6  1  0
 10  9  2  0
 11 10  1  0
 12 11  2  0
 12 13  1  0
 13 14  2  0
 14  9  1  0
 14 15  1  0
 15 17  1  0
 16 15  1  0
 18 23  2  0
 19 18  1  0
 20 19  2  0
 20 21  1  0
 21 22  2  0
 22 23  1  0
 22 24  1  0
 24 25  2  0
  2 26  1  0
  3 27  1  0
 10 28  1  0
 11 29  1  0
 12 30  1  0
 13 31  1  0
 15 32  1  0
 16 33  1  0
 16 34  1  0
 16 35  1  0
 17 36  1  0
 17 37  1  0
 17 38  1  0
 18 39  1  0
 19 40  1  0
 24 41  1  0
M  ISO  8  26  14  27  14  28  14  29  14  30  14  31  14  32   8  33   8
M  ISO  8  34   8  35   8  36   8  37   8  38   8  39  14  40  14  41   6
M  END
>  <minimizedAffinity>  (1) 
-5.54065895

>  <minimizedRMSD>  (1) 
0.09373229

$$$$
