
     RDKit          3D

 40 42  0  0  0  0  0  0  0  0999 V2000
   46.5660   34.4360   41.9330 N   0  0  0  0  0  0  0  0  0  0  0  0
   47.7070   35.2130   41.8310 C   0  0  0  0  0  0  0  0  0  0  0  0
   48.4470   35.2400   40.6720 C   0  0  0  0  0  0  0  0  0  0  0  0
   48.0090   34.4560   39.6010 C   0  0  0  0  0  0  0  0  0  0  0  0
   48.6560   34.4680   38.5490 O   0  0  0  0  0  0  0  0  0  0  0  0
   46.8930   33.7210   39.7690 N   0  0  0  0  0  0  0  0  0  0  0  0
   46.1900   33.7150   40.9090 C   0  0  0  0  0  0  0  0  0  0  0  0
   45.1790   33.0810   41.1140 O   0  0  0  0  0  0  0  0  0  0  0  0
   46.4160   32.9020   38.7250 C   0  0  0  0  0  0  0  0  0  0  0  0
   45.4870   33.3040   37.7940 C   0  0  0  0  0  0  0  0  0  0  0  0
   45.0660   32.4500   36.8000 C   0  0  0  0  0  0  0  0  0  0  0  0
   45.5680   31.1670   36.7170 C   0  0  0  0  0  0  0  0  0  0  0  0
   46.4840   30.7900   37.6480 C   0  0  0  0  0  0  0  0  0  0  0  0
   46.9500   31.6130   38.6800 C   0  0  0  0  0  0  0  0  0  0  0  0
   47.9610   31.1030   39.6520 C   0  0  0  0  0  0  0  0  0  0  0  0
   49.2710   31.8060   39.6340 C   0  0  0  0  0  0  0  0  0  0  0  0
   47.4820   31.0920   41.0680 C   0  0  0  0  0  0  0  0  0  0  0  0
   44.5580   35.8130   44.7160 C   0  0  0  0  0  0  0  0  0  0  0  0
   45.1400   35.6710   43.4260 C   0  0  0  0  0  0  0  0  0  0  0  0
   45.9780   34.5800   43.2360 C   0  0  0  0  0  0  0  0  0  0  0  0
   46.2190   33.7010   44.2490 N   0  0  0  0  0  0  0  0  0  0  0  0
   45.6400   33.8770   45.4660 C   0  0  0  0  0  0  0  0  0  0  0  0
   44.8280   34.9070   45.7030 N   0  0  0  0  0  0  0  0  0  0  0  0
   45.9520   32.7300   46.7970 S   0  0  0  0  0  0  0  0  0  0  0  0
   48.0273   35.8190   42.6913 H   0  0  0  0  0  0  0  0  0  0  0  0
   49.3533   35.8580   40.5906 H   0  0  0  0  0  0  0  0  0  0  0  0
   45.0745   34.3225   37.8444 H   0  0  0  0  0  0  0  0  0  0  0  0
   44.3228   32.7931   36.0652 H   0  0  0  0  0  0  0  0  0  0  0  0
   45.2392   30.4755   35.9272 H   0  0  0  0  0  0  0  0  0  0  0  0
   46.8866   29.7682   37.5862 H   0  0  0  0  0  0  0  0  0  0  0  0
   48.1098   30.0748   39.2905 H   0  0  0  0  0  0  0  0  0  0  0  0
   49.6051   31.9853   40.6666 H   0  0  0  0  0  0  0  0  0  0  0  0
   50.0132   31.1850   39.1111 H   0  0  0  0  0  0  0  0  0  0  0  0
   49.1638   32.7678   39.1111 H   0  0  0  0  0  0  0  0  0  0  0  0
   48.3466   31.1119   41.7477 H   0  0  0  0  0  0  0  0  0  0  0  0
   46.8528   31.9759   41.2491 H   0  0  0  0  0  0  0  0  0  0  0  0
   46.8941   30.1801   41.2491 H   0  0  0  0  0  0  0  0  0  0  0  0
   43.8852   36.6588   44.9209 H   0  0  0  0  0  0  0  0  0  0  0  0
   44.9364   36.3899   42.6187 H   0  0  0  0  0  0  0  0  0  0  0  0
   45.7790   33.3661   47.9980 H   0  0  0  0  0  0  0  0  0  0  0  0
  1 20  1  0
  2  1  1  0
  3  2  2  0
  4  6  1  0
  4  3  1  0
  5  4  2  0
  6  7  1  0
  7  8  2  0
  7  1  1  0
  9  6  1  0
 10  9  2  0
 11 10  1  0
 12 11  2  0
 12 13  1  0
 13 14  2  0
 14  9  1  0
 14 15  1  0
 15 17  1  0
 16 15  1  0
 18 23  2  0
 19 18  1  0
 20 19  2  0
 20 21  1  0
 21 22  2  0
 22 23  1  0
 22 24  1  0
  2 25  1  0
  3 26  1  0
 10 27  1  0
 11 28  1  0
 12 29  1  0
 13 30  1  0
 15 31  1  0
 16 32  1  0
 16 33  1  0
 16 34  1  0
 17 35  1  0
 17 36  1  0
 17 37  1  0
 18 38  1  0
 19 39  1  0
 24 40  1  0
M  ISO  8  25  14  26  14  27  14  28  14  29  14  30  14  31   8  32   8
M  ISO  8  33   8  34   8  35   8  36   8  37   8  38  14  39  14  40  11
M  END
>  <minimizedAffinity>  (1) 
-5.45191574

>  <minimizedRMSD>  (1) 
0.0390931815

$$$$
