
     RDKit          3D

 42 45  0  0  1  0  0  0  0  0999 V2000
   46.3940   33.9060   42.2890 N   0  0  0  0  0  0  0  0  0  0  0  0
   47.7260   34.1770   41.7460 C   0  0  0  0  0  0  0  0  0  0  0  0
   47.3840   34.3780   40.2940 C   0  0  0  0  0  0  0  0  0  0  0  0
   46.5430   33.1440   40.0450 C   0  0  0  0  0  0  0  0  0  0  0  0
   45.7330   33.0500   41.2950 C   0  0  2  0  0  0  0  0  0  0  0  0
   44.3350   33.2700   41.1710 N   0  0  0  0  0  0  0  0  0  0  0  0
   43.7320   34.1940   40.4140 C   0  0  0  0  0  0  0  0  0  0  0  0
   42.3550   34.3350   40.3560 C   0  0  0  0  0  0  0  0  0  0  0  0
   41.5580   33.4910   41.1100 C   0  0  0  0  0  0  0  0  0  0  0  0
   40.2740   33.5620   41.1060 O   0  0  0  0  0  0  0  0  0  0  0  0
   42.1710   32.5660   41.8670 N   0  0  0  0  0  0  0  0  0  0  0  0
   43.4940   32.4770   41.8820 C   0  0  0  0  0  0  0  0  0  0  0  0
   43.9800   31.5700   42.6300 O   0  0  0  0  0  0  0  0  0  0  0  0
   41.7030   35.3570   39.5180 C   0  0  0  0  0  0  0  0  0  0  0  0
   44.5150   35.8710   44.8170 C   0  0  0  0  0  0  0  0  0  0  0  0
   45.0620   35.5070   43.5830 C   0  0  0  0  0  0  0  0  0  0  0  0
   45.8170   34.3330   43.4830 C   0  0  0  0  0  0  0  0  0  0  0  0
   45.9660   33.6140   44.6240 N   0  0  0  0  0  0  0  0  0  0  0  0
   45.4350   33.9710   45.8140 C   0  0  0  0  0  0  0  0  0  0  0  0
   44.7130   35.0980   45.8960 N   0  0  0  0  0  0  0  0  0  0  0  0
   45.6260   33.1590   47.0120 C   0  0  0  0  0  0  0  0  0  0  0  0
   46.8650   32.5490   47.2360 C   0  0  0  0  0  0  0  0  0  0  0  0
   46.7230   31.8650   48.4340 C   0  0  0  0  0  0  0  0  0  0  0  0
   45.4730   32.0560   48.8960 N   0  0  0  0  0  0  0  0  0  0  0  0
   44.8210   32.8260   48.0500 N   0  0  0  0  0  0  0  0  0  0  0  0
   48.1708   35.0803   42.1889 H   0  0  0  0  0  0  0  0  0  0  0  0
   48.4726   33.3930   41.9406 H   0  0  0  0  0  0  0  0  0  0  0  0
   46.8090   35.3021   40.1348 H   0  0  0  0  0  0  0  0  0  0  0  0
   48.2511   34.4886   39.6262 H   0  0  0  0  0  0  0  0  0  0  0  0
   45.8992   33.2727   39.1624 H   0  0  0  0  0  0  0  0  0  0  0  0
   47.1373   32.2418   39.8377 H   0  0  0  0  0  0  0  0  0  0  0  0
   45.7216   31.9994   41.6206 H   0  0  0  0  0  0  0  0  0  0  0  0
   44.3563   34.8706   39.8120 H   0  0  0  0  0  0  0  0  0  0  0  0
   41.6090   31.9208   42.4403 H   0  0  0  0  0  0  0  0  0  0  0  0
   41.2236   36.1084   40.1626 H   0  0  0  0  0  0  0  0  0  0  0  0
   42.4565   35.8458   38.8829 H   0  0  0  0  0  0  0  0  0  0  0  0
   40.9422   34.8796   38.8829 H   0  0  0  0  0  0  0  0  0  0  0  0
   43.9211   36.7928   44.9037 H   0  0  0  0  0  0  0  0  0  0  0  0
   44.9001   36.1388   42.6972 H   0  0  0  0  0  0  0  0  0  0  0  0
   47.7599   32.6008   46.5985 H   0  0  0  0  0  0  0  0  0  0  0  0
   47.5031   31.2653   48.9257 H   0  0  0  0  0  0  0  0  0  0  0  0
   45.0897   31.6642   49.7680 H   0  0  0  0  0  0  0  0  0  0  0  0
  1 17  1  0
  2  1  1  0
  3  2  1  0
  4  3  1  0
  4  5  1  0
  5  1  1  0
  6  5  1  0
  6 12  1  0
  7  6  1  0
  8  7  2  0
  8  9  1  0
  9 11  1  0
 10  9  2  0
 11 12  1  0
 12 13  2  0
 14  8  1  0
 15 20  2  0
 16 15  1  0
 17 16  2  0
 17 18  1  0
 18 19  2  0
 19 20  1  0
 19 21  1  0
 21 22  1  0
 21 25  2  0
 22 23  2  0
 23 24  1  0
 25 24  1  0
  2 26  1  0
  2 27  1  0
  3 28  1  0
  3 29  1  0
  4 30  1  0
  4 31  1  0
  5 32  1  1
  7 33  1  0
 11 34  1  0
 14 35  1  0
 14 36  1  0
 14 37  1  0
 15 38  1  0
 16 39  1  0
 22 40  1  0
 23 41  1  0
 24 42  1  0
M  ISO  8  26  13  27  13  28  13  29  13  30  13  31  13  32  13  33  14
M  ISO  8  34   9  35   8  36   8  37   8  38  14  39  14  40  14  41  14
M  ISO  1  42   9
M  END
>  <minimizedAffinity>  (1) 
-6.63430786

>  <minimizedRMSD>  (1) 
0.260786146

$$$$
