
     RDKit          3D

 42 45  0  0  1  0  0  0  0  0999 V2000
   46.6130   33.9560   42.5800 N   0  0  0  0  0  0  0  0  0  0  0  0
   47.9480   34.3270   42.1220 C   0  0  0  0  0  0  0  0  0  0  0  0
   47.6620   34.5840   40.6580 C   0  0  0  0  0  0  0  0  0  0  0  0
   46.8950   33.3300   40.3100 C   0  0  0  0  0  0  0  0  0  0  0  0
   46.0370   33.1240   41.5180 C   0  0  2  0  0  0  0  0  0  0  0  0
   44.6380   33.2880   41.3340 N   0  0  0  0  0  0  0  0  0  0  0  0
   44.0200   34.2070   40.5930 C   0  0  0  0  0  0  0  0  0  0  0  0
   42.6450   34.2790   40.4840 C   0  0  0  0  0  0  0  0  0  0  0  0
   41.8560   33.3800   41.1550 C   0  0  0  0  0  0  0  0  0  0  0  0
   40.5720   33.3880   41.0990 O   0  0  0  0  0  0  0  0  0  0  0  0
   42.4870   32.4530   41.9040 N   0  0  0  0  0  0  0  0  0  0  0  0
   43.8090   32.4230   41.9780 C   0  0  0  0  0  0  0  0  0  0  0  0
   44.3030   31.5090   42.7110 O   0  0  0  0  0  0  0  0  0  0  0  0
   41.9830   35.3090   39.6560 C   0  0  0  0  0  0  0  0  0  0  0  0
   44.5200   35.6940   45.1140 C   0  0  0  0  0  0  0  0  0  0  0  0
   45.1520   35.4130   43.8890 C   0  0  0  0  0  0  0  0  0  0  0  0
   45.9610   34.2890   43.7670 C   0  0  0  0  0  0  0  0  0  0  0  0
   46.0850   33.5160   44.8820 N   0  0  0  0  0  0  0  0  0  0  0  0
   45.4820   33.7850   46.0490 C   0  0  0  0  0  0  0  0  0  0  0  0
   44.7040   34.8710   46.1600 N   0  0  0  0  0  0  0  0  0  0  0  0
   45.7370   32.8250   47.1590 C   0  0  0  0  0  0  0  0  0  0  0  0
   44.8520   32.4120   48.1600 C   0  0  0  0  0  0  0  0  0  0  0  0
   45.3360   31.5210   49.0560 C   0  0  0  0  0  0  0  0  0  0  0  0
   46.5990   31.0870   48.9510 C   0  0  0  0  0  0  0  0  0  0  0  0
   47.3310   31.9280   47.4770 S   0  0  0  0  0  0  0  0  0  0  0  0
   48.3177   35.2298   42.6303 H   0  0  0  0  0  0  0  0  0  0  0  0
   48.7294   33.5776   42.3167 H   0  0  0  0  0  0  0  0  0  0  0  0
   47.0514   35.4877   40.5149 H   0  0  0  0  0  0  0  0  0  0  0  0
   48.5531   34.7659   40.0393 H   0  0  0  0  0  0  0  0  0  0  0  0
   46.2821   33.4771   39.4085 H   0  0  0  0  0  0  0  0  0  0  0  0
   47.5430   32.4706   40.0829 H   0  0  0  0  0  0  0  0  0  0  0  0
   46.0612   32.0596   41.7945 H   0  0  0  0  0  0  0  0  0  0  0  0
   44.6308   34.9394   40.0448 H   0  0  0  0  0  0  0  0  0  0  0  0
   41.9332   31.7587   42.4257 H   0  0  0  0  0  0  0  0  0  0  0  0
   41.5047   36.0532   40.3097 H   0  0  0  0  0  0  0  0  0  0  0  0
   42.7314   35.8058   39.0211 H   0  0  0  0  0  0  0  0  0  0  0  0
   41.2203   34.8345   39.0211 H   0  0  0  0  0  0  0  0  0  0  0  0
   43.8790   36.5822   45.2149 H   0  0  0  0  0  0  0  0  0  0  0  0
   45.0062   36.0822   43.0282 H   0  0  0  0  0  0  0  0  0  0  0  0
   43.8206   32.7902   48.2158 H   0  0  0  0  0  0  0  0  0  0  0  0
   44.6932   31.1535   49.8695 H   0  0  0  0  0  0  0  0  0  0  0  0
   47.1032   30.3686   49.6142 H   0  0  0  0  0  0  0  0  0  0  0  0
  1 17  1  0
  2  1  1  0
  3  2  1  0
  4  3  1  0
  4  5  1  0
  5  1  1  0
  6  5  1  0
  6 12  1  0
  7  6  1  0
  8  7  2  0
  8  9  1  0
  9 11  1  0
 10  9  2  0
 11 12  1  0
 12 13  2  0
 14  8  1  0
 15 20  2  0
 16 15  1  0
 17 16  2  0
 17 18  1  0
 18 19  2  0
 19 20  1  0
 19 21  1  0
 21 25  1  0
 21 22  2  0
 22 23  1  0
 24 23  2  0
 25 24  1  0
  2 26  1  0
  2 27  1  0
  3 28  1  0
  3 29  1  0
  4 30  1  0
  4 31  1  0
  5 32  1  1
  7 33  1  0
 11 34  1  0
 14 35  1  0
 14 36  1  0
 14 37  1  0
 15 38  1  0
 16 39  1  0
 22 40  1  0
 23 41  1  0
 24 42  1  0
M  ISO  8  26  13  27  13  28  13  29  13  30  13  31  13  32  13  33  14
M  ISO  8  34   9  35   8  36   8  37   8  38  14  39  14  40  14  41  14
M  ISO  1  42  14
M  END
>  <minimizedAffinity>  (1) 
-6.67501497

>  <minimizedRMSD>  (1) 
0.50536108

$$$$
