
     RDKit          3D

 42 45  0  0  1  0  0  0  0  0999 V2000
   46.4150   33.8350   42.2850 N   0  0  0  0  0  0  0  0  0  0  0  0
   47.7340   34.1240   41.7390 C   0  0  0  0  0  0  0  0  0  0  0  0
   47.3630   34.3830   40.2860 C   0  0  0  0  0  0  0  0  0  0  0  0
   46.5200   33.1540   40.0120 C   0  0  0  0  0  0  0  0  0  0  0  0
   45.7310   33.0170   41.2750 C   0  0  2  0  0  0  0  0  0  0  0  0
   44.3320   33.2440   41.1820 N   0  0  0  0  0  0  0  0  0  0  0  0
   43.7160   34.1890   40.4730 C   0  0  0  0  0  0  0  0  0  0  0  0
   42.3360   34.3320   40.4460 C   0  0  0  0  0  0  0  0  0  0  0  0
   41.5450   33.4640   41.1840 C   0  0  0  0  0  0  0  0  0  0  0  0
   40.2770   33.5420   41.2020 O   0  0  0  0  0  0  0  0  0  0  0  0
   42.1860   32.5150   41.8950 N   0  0  0  0  0  0  0  0  0  0  0  0
   43.5060   32.4240   41.8830 C   0  0  0  0  0  0  0  0  0  0  0  0
   44.0060   31.4910   42.5910 O   0  0  0  0  0  0  0  0  0  0  0  0
   41.6760   35.3840   39.6550 C   0  0  0  0  0  0  0  0  0  0  0  0
   44.5450   35.6910   44.9000 C   0  0  0  0  0  0  0  0  0  0  0  0
   45.0650   35.3680   43.6390 C   0  0  0  0  0  0  0  0  0  0  0  0
   45.8590   34.2250   43.5050 C   0  0  0  0  0  0  0  0  0  0  0  0
   46.0770   33.4850   44.6280 N   0  0  0  0  0  0  0  0  0  0  0  0
   45.5690   33.8050   45.8420 C   0  0  0  0  0  0  0  0  0  0  0  0
   44.8040   34.9120   45.9590 N   0  0  0  0  0  0  0  0  0  0  0  0
   45.8250   32.9880   47.0200 C   0  0  0  0  0  0  0  0  0  0  0  0
   47.0500   32.4620   47.3530 C   0  0  0  0  0  0  0  0  0  0  0  0
   46.8170   31.7750   48.5250 C   0  0  0  0  0  0  0  0  0  0  0  0
   45.4970   31.8970   48.8640 C   0  0  0  0  0  0  0  0  0  0  0  0
   44.9370   32.6410   47.9230 O   0  0  0  0  0  0  0  0  0  0  0  0
   48.1863   35.0094   42.2096 H   0  0  0  0  0  0  0  0  0  0  0  0
   48.4843   33.3346   41.8936 H   0  0  0  0  0  0  0  0  0  0  0  0
   46.7832   35.3107   40.1710 H   0  0  0  0  0  0  0  0  0  0  0  0
   48.2161   34.5231   39.6059 H   0  0  0  0  0  0  0  0  0  0  0  0
   45.8603   33.3092   39.1456 H   0  0  0  0  0  0  0  0  0  0  0  0
   47.1127   32.2608   39.7652 H   0  0  0  0  0  0  0  0  0  0  0  0
   45.7201   31.9564   41.5667 H   0  0  0  0  0  0  0  0  0  0  0  0
   44.3284   34.8867   39.8830 H   0  0  0  0  0  0  0  0  0  0  0  0
   41.6383   31.8486   42.4579 H   0  0  0  0  0  0  0  0  0  0  0  0
   41.2156   36.1179   40.3328 H   0  0  0  0  0  0  0  0  0  0  0  0
   42.4205   35.8873   39.0207 H   0  0  0  0  0  0  0  0  0  0  0  0
   40.8989   34.9327   39.0207 H   0  0  0  0  0  0  0  0  0  0  0  0
   43.9210   36.5888   45.0208 H   0  0  0  0  0  0  0  0  0  0  0  0
   44.8515   36.0045   42.7676 H   0  0  0  0  0  0  0  0  0  0  0  0
   48.0001   32.5656   46.8084 H   0  0  0  0  0  0  0  0  0  0  0  0
   47.5727   31.2169   49.0973 H   0  0  0  0  0  0  0  0  0  0  0  0
   44.9997   31.4629   49.7439 H   0  0  0  0  0  0  0  0  0  0  0  0
  1 17  1  0
  2  1  1  0
  3  2  1  0
  4  3  1  0
  4  5  1  0
  5  1  1  0
  6  5  1  0
  6 12  1  0
  7  6  1  0
  8  7  2  0
  8  9  1  0
  9 10  2  0
  9 11  1  0
 12 11  1  0
 12 13  2  0
 14  8  1  0
 15 20  2  0
 16 15  1  0
 17 16  2  0
 17 18  1  0
 18 19  2  0
 19 20  1  0
 19 21  1  0
 21 22  2  0
 21 25  1  0
 22 23  1  0
 23 24  2  0
 25 24  1  0
  2 26  1  0
  2 27  1  0
  3 28  1  0
  3 29  1  0
  4 30  1  0
  4 31  1  0
  5 32  1  1
  7 33  1  0
 11 34  1  0
 14 35  1  0
 14 36  1  0
 14 37  1  0
 15 38  1  0
 16 39  1  0
 22 40  1  0
 23 41  1  0
 24 42  1  0
M  ISO  8  26  13  27  13  28  13  29  13  30  13  31  13  32  13  33  14
M  ISO  8  34   9  35   8  36   8  37   8  38  14  39  14  40  14  41  14
M  ISO  1  42  14
M  END
>  <minimizedAffinity>  (1) 
-6.6731143

>  <minimizedRMSD>  (1) 
0.568750381

$$$$
