
     RDKit          3D

 41 42  0  0  0  0  0  0  0  0999 V2000
   46.5250   32.3530   38.0130 C   0  0  0  0  0  0  0  0  0  0  0  0
   45.8410   34.3810   40.9780 C   0  0  0  0  0  0  0  0  0  0  0  0
   47.0960   34.7960   41.3940 C   0  0  0  0  0  0  0  0  0  0  0  0
   48.2310   34.3870   40.6620 C   0  0  0  0  0  0  0  0  0  0  0  0
   48.0170   33.5960   39.5720 N   0  0  0  0  0  0  0  0  0  0  0  0
   46.7640   33.2080   39.1920 C   0  0  0  0  0  0  0  0  0  0  0  0
   45.7180   33.6080   39.8990 N   0  0  0  0  0  0  0  0  0  0  0  0
   44.6990   34.8110   41.7420 C   0  0  0  0  0  0  0  0  0  0  0  0
   43.8280   35.5680   41.2060 O   0  0  0  0  0  0  0  0  0  0  0  0
   44.5760   34.3800   43.0680 O   0  0  0  0  0  0  0  0  0  0  0  0
   45.0750   35.2020   44.1060 C   0  0  0  0  0  0  0  0  0  0  0  0
   44.1690   35.3660   45.1440 F   0  0  0  0  0  0  0  0  0  0  0  0
   46.2250   34.6560   44.6140 F   0  0  0  0  0  0  0  0  0  0  0  0
   45.2900   36.4430   43.5370 F   0  0  0  0  0  0  0  0  0  0  0  0
   45.6580   31.1810   38.2930 C   0  0  0  0  0  0  0  0  0  0  0  0
   45.9420   33.1920   36.9170 C   0  0  0  0  0  0  0  0  0  0  0  0
   47.8910   31.8750   37.5490 C   0  0  0  0  0  0  0  0  0  0  0  0
   48.3690   31.6980   33.2940 C   0  0  0  0  0  0  0  0  0  0  0  0
   47.7050   30.6810   33.9490 C   0  0  0  0  0  0  0  0  0  0  0  0
   47.5220   30.6880   35.3270 C   0  0  0  0  0  0  0  0  0  0  0  0
   48.0040   31.7260   36.0960 C   0  0  0  0  0  0  0  0  0  0  0  0
   48.6750   32.7500   35.4280 C   0  0  0  0  0  0  0  0  0  0  0  0
   48.8550   32.7410   34.0590 C   0  0  0  0  0  0  0  0  0  0  0  0
   48.5840   31.6600   31.5570 S   0  0  0  0  0  0  0  0  0  0  0  0
   47.9460   30.4470   30.9440 O   0  0  0  0  0  0  0  0  0  0  0  0
   50.0520   31.6860   31.2340 O   0  0  0  0  0  0  0  0  0  0  0  0
   47.2059   35.4353   42.2824 H   0  0  0  0  0  0  0  0  0  0  0  0
   49.2452   34.6932   40.9580 H   0  0  0  0  0  0  0  0  0  0  0  0
   45.5602   31.0488   39.3806 H   0  0  0  0  0  0  0  0  0  0  0  0
   44.6636   31.3470   37.8529 H   0  0  0  0  0  0  0  0  0  0  0  0
   46.1077   30.2787   37.8529 H   0  0  0  0  0  0  0  0  0  0  0  0
   45.3664   34.0203   37.3560 H   0  0  0  0  0  0  0  0  0  0  0  0
   46.7533   33.5983   36.2952 H   0  0  0  0  0  0  0  0  0  0  0  0
   45.2782   32.5733   36.2952 H   0  0  0  0  0  0  0  0  0  0  0  0
   48.6448   32.6034   37.8824 H   0  0  0  0  0  0  0  0  0  0  0  0
   48.0465   30.8776   37.9860 H   0  0  0  0  0  0  0  0  0  0  0  0
   47.3084   29.8390   33.3628 H   0  0  0  0  0  0  0  0  0  0  0  0
   46.9869   29.8565   35.8091 H   0  0  0  0  0  0  0  0  0  0  0  0
   49.0742   33.5930   36.0112 H   0  0  0  0  0  0  0  0  0  0  0  0
   49.3896   33.5708   33.5735 H   0  0  0  0  0  0  0  0  0  0  0  0
   47.9687   32.7635   31.0274 H   0  0  0  0  0  0  0  0  0  0  0  0
  1 15  1  0
  1  6  1  0
  2  3  2  0
  2  8  1  0
  4  3  1  0
  5  4  2  0
  6  5  1  0
  6  7  2  0
  7  2  1  0
  8 10  1  0
  9  8  2  0
 10 11  1  0
 11 13  1  0
 11 12  1  0
 14 11  1  0
 16  1  1  0
 17  1  1  0
 18 19  2  0
 18 23  1  0
 19 20  1  0
 20 21  2  0
 21 17  1  0
 22 21  1  0
 23 22  2  0
 24 18  1  0
 25 24  2  0
 26 24  2  0
  3 27  1  0
  4 28  1  0
 15 29  1  0
 15 30  1  0
 15 31  1  0
 16 32  1  0
 16 33  1  0
 16 34  1  0
 17 35  1  0
 17 36  1  0
 19 37  1  0
 20 38  1  0
 22 39  1  0
 23 40  1  0
 24 41  1  0
M  ISO  8  27  14  28  14  29   8  30   8  31   8  32   8  33   8  34   8
M  ISO  7  35   8  36   8  37  14  38  14  39  14  40  14  41  11
M  END
>  <minimizedAffinity>  (1) 
-5.02830696

>  <minimizedRMSD>  (1) 
1.28921199

$$$$
