
     RDKit          3D

 51 54  0  0  1  0  0  0  0  0999 V2000
   46.9450   33.9300   42.6280 N   0  0  0  0  0  0  0  0  0  0  0  0
   48.2330   34.4500   42.1700 C   0  0  0  0  0  0  0  0  0  0  0  0
   47.8560   34.8950   40.7780 C   0  0  0  0  0  0  0  0  0  0  0  0
   47.1610   33.6520   40.2780 C   0  0  0  0  0  0  0  0  0  0  0  0
   46.3720   33.2220   41.4750 C   0  0  2  0  0  0  0  0  0  0  0  0
   44.9670   33.3060   41.3730 N   0  0  0  0  0  0  0  0  0  0  0  0
   44.2510   34.2650   40.7870 C   0  0  0  0  0  0  0  0  0  0  0  0
   42.8630   34.2520   40.7420 C   0  0  0  0  0  0  0  0  0  0  0  0
   42.1730   33.2150   41.3200 C   0  0  0  0  0  0  0  0  0  0  0  0
   40.8920   33.1390   41.3150 O   0  0  0  0  0  0  0  0  0  0  0  0
   42.8990   32.2460   41.9110 N   0  0  0  0  0  0  0  0  0  0  0  0
   44.2250   32.3040   41.9280 C   0  0  0  0  0  0  0  0  0  0  0  0
   44.8150   31.3400   42.5110 O   0  0  0  0  0  0  0  0  0  0  0  0
   42.0930   35.3270   40.0880 C   0  0  0  0  0  0  0  0  0  0  0  0
   44.7940   35.0650   45.4300 C   0  0  0  0  0  0  0  0  0  0  0  0
   45.3660   35.0120   44.1580 C   0  0  0  0  0  0  0  0  0  0  0  0
   46.3300   34.0440   43.8770 C   0  0  0  0  0  0  0  0  0  0  0  0
   46.6620   33.1910   44.8830 N   0  0  0  0  0  0  0  0  0  0  0  0
   46.1060   33.2440   46.1160 C   0  0  0  0  0  0  0  0  0  0  0  0
   45.1750   34.1830   46.3810 N   0  0  0  0  0  0  0  0  0  0  0  0
   46.5030   32.2880   47.1840 C   0  0  0  0  0  0  0  0  0  0  0  0
   45.6550   32.5760   48.3890 C   0  0  0  0  0  0  0  0  0  0  0  0
   44.5970   31.4840   48.5220 C   0  0  0  0  0  0  0  0  0  0  0  0
   45.3690   30.2230   48.8600 C   0  0  0  0  0  0  0  0  0  0  0  0
   46.1790   29.8370   47.6770 C   0  0  0  0  0  0  0  0  0  0  0  0
   46.3560   30.9020   46.6470 C   0  0  0  0  0  0  0  0  0  0  0  0
   48.5766   35.2921   42.7887 H   0  0  0  0  0  0  0  0  0  0  0  0
   49.0656   33.7327   42.2175 H   0  0  0  0  0  0  0  0  0  0  0  0
   47.1779   35.7610   40.7970 H   0  0  0  0  0  0  0  0  0  0  0  0
   48.6994   35.2327   40.1577 H   0  0  0  0  0  0  0  0  0  0  0  0
   46.5016   33.8795   39.4274 H   0  0  0  0  0  0  0  0  0  0  0  0
   47.8522   32.8810   39.9068 H   0  0  0  0  0  0  0  0  0  0  0  0
   46.4752   32.1329   41.5898 H   0  0  0  0  0  0  0  0  0  0  0  0
   44.7836   35.1052   40.3175 H   0  0  0  0  0  0  0  0  0  0  0  0
   42.4190   31.4502   42.3552 H   0  0  0  0  0  0  0  0  0  0  0  0
   41.6339   35.9680   40.8551 H   0  0  0  0  0  0  0  0  0  0  0  0
   42.7656   35.9303   39.4606 H   0  0  0  0  0  0  0  0  0  0  0  0
   41.3053   34.8843   39.4606 H   0  0  0  0  0  0  0  0  0  0  0  0
   44.0325   35.8251   45.6589 H   0  0  0  0  0  0  0  0  0  0  0  0
   45.0586   35.7288   43.3823 H   0  0  0  0  0  0  0  0  0  0  0  0
   47.5530   32.3934   47.4944 H   0  0  0  0  0  0  0  0  0  0  0  0
   46.2862   32.5901   49.2898 H   0  0  0  0  0  0  0  0  0  0  0  0
   45.1672   33.5554   48.2758 H   0  0  0  0  0  0  0  0  0  0  0  0
   43.8879   31.7296   49.3262 H   0  0  0  0  0  0  0  0  0  0  0  0
   44.0052   31.3701   47.6018 H   0  0  0  0  0  0  0  0  0  0  0  0
   46.0312   30.4117   49.7179 H   0  0  0  0  0  0  0  0  0  0  0  0
   44.6726   29.4126   49.1215 H   0  0  0  0  0  0  0  0  0  0  0  0
   47.1767   29.5387   48.0316 H   0  0  0  0  0  0  0  0  0  0  0  0
   45.6248   29.0259   47.1820 H   0  0  0  0  0  0  0  0  0  0  0  0
   45.4774   30.8848   45.9853 H   0  0  0  0  0  0  0  0  0  0  0  0
   47.2998   30.6731   46.1304 H   0  0  0  0  0  0  0  0  0  0  0  0
  1 17  1  0
  2  1  1  0
  3  2  1  0
  4  3  1  0
  4  5  1  0
  5  1  1  0
  6  5  1  0
  6 12  1  0
  7  6  1  0
  8  7  2  0
  8  9  1  0
  9 11  1  0
 10  9  2  0
 11 12  1  0
 12 13  2  0
 14  8  1  0
 15 20  2  0
 16 15  1  0
 17 16  2  0
 17 18  1  0
 18 19  2  0
 19 20  1  0
 19 21  1  0
 21 22  1  0
 22 23  1  0
 23 24  1  0
 25 24  1  0
 26 21  1  0
 26 25  1  0
  2 27  1  0
  2 28  1  0
  3 29  1  0
  3 30  1  0
  4 31  1  0
  4 32  1  0
  5 33  1  1
  7 34  1  0
 11 35  1  0
 14 36  1  0
 14 37  1  0
 14 38  1  0
 15 39  1  0
 16 40  1  0
 21 41  1  0
 22 42  1  0
 22 43  1  0
 23 44  1  0
 23 45  1  0
 24 46  1  0
 24 47  1  0
 25 48  1  0
 25 49  1  0
 26 50  1  0
 26 51  1  0
M  ISO  8  27  13  28  13  29  13  30  13  31  13  32  13  33  13  34  14
M  ISO  8  35   9  36   8  37   8  38   8  39  14  40  14  41  13  42  13
M  ISO  8  43  13  44  13  45  13  46  13  47  13  48  13  49  13  50  13
M  ISO  1  51  13
M  END
>  <minimizedAffinity>  (1) 
-6.55414438

>  <minimizedRMSD>  (1) 
1.32464492

$$$$
