
     RDKit          3D

 39 40  0  0  0  0  0  0  0  0999 V2000
   45.8980   31.7860   38.5460 C   0  0  0  0  0  0  0  0  0  0  0  0
   45.5680   34.3390   41.1550 C   0  0  0  0  0  0  0  0  0  0  0  0
   46.8790   34.7010   41.4230 C   0  0  0  0  0  0  0  0  0  0  0  0
   47.9120   34.0620   40.7030 C   0  0  0  0  0  0  0  0  0  0  0  0
   47.5490   33.1290   39.7900 N   0  0  0  0  0  0  0  0  0  0  0  0
   46.2420   32.7990   39.5520 C   0  0  0  0  0  0  0  0  0  0  0  0
   45.2920   33.4000   40.2280 N   0  0  0  0  0  0  0  0  0  0  0  0
   44.4980   34.9830   41.8950 C   0  0  0  0  0  0  0  0  0  0  0  0
   43.7870   35.8520   41.3440 O   0  0  0  0  0  0  0  0  0  0  0  0
   44.3060   34.5850   43.2400 O   0  0  0  0  0  0  0  0  0  0  0  0
   44.9730   35.2710   44.2580 C   0  0  0  0  0  0  0  0  0  0  0  0
   44.1770   35.4910   45.3770 F   0  0  0  0  0  0  0  0  0  0  0  0
   46.0950   34.5850   44.6510 F   0  0  0  0  0  0  0  0  0  0  0  0
   45.2870   36.5230   43.7380 F   0  0  0  0  0  0  0  0  0  0  0  0
   45.2480   30.5590   39.1320 C   0  0  0  0  0  0  0  0  0  0  0  0
   44.9180   32.4070   37.5870 C   0  0  0  0  0  0  0  0  0  0  0  0
   47.1390   31.4060   37.8110 C   0  0  0  0  0  0  0  0  0  0  0  0
   47.2280   31.7090   36.4330 N   0  0  0  0  0  0  0  0  0  0  0  0
   46.5390   31.3130   35.3550 C   0  0  0  0  0  0  0  0  0  0  0  0
   46.7600   31.7160   34.0580 C   0  0  0  0  0  0  0  0  0  0  0  0
   47.7650   32.6060   33.7940 C   0  0  0  0  0  0  0  0  0  0  0  0
   47.9570   32.9940   32.4450 N   0  0  0  0  0  0  0  0  0  0  0  0
   48.4820   33.0300   34.8460 N   0  0  0  0  0  0  0  0  0  0  0  0
   48.2230   32.5990   36.1140 C   0  0  0  0  0  0  0  0  0  0  0  0
   49.0690   33.1850   36.8740 O   0  0  0  0  0  0  0  0  0  0  0  0
   47.1089   35.4672   42.1780 H   0  0  0  0  0  0  0  0  0  0  0  0
   48.9692   34.3117   40.8764 H   0  0  0  0  0  0  0  0  0  0  0  0
   45.2786   30.6168   40.2301 H   0  0  0  0  0  0  0  0  0  0  0  0
   44.2018   30.5028   38.7968 H   0  0  0  0  0  0  0  0  0  0  0  0
   45.7891   29.6619   38.7968 H   0  0  0  0  0  0  0  0  0  0  0  0
   44.1212   32.9119   38.1528 H   0  0  0  0  0  0  0  0  0  0  0  0
   45.4391   33.1401   36.9537 H   0  0  0  0  0  0  0  0  0  0  0  0
   44.4776   31.6228   36.9537 H   0  0  0  0  0  0  0  0  0  0  0  0
   47.9790   31.9120   38.3093 H   0  0  0  0  0  0  0  0  0  0  0  0
   47.1454   30.3066   37.8452 H   0  0  0  0  0  0  0  0  0  0  0  0
   45.7195   30.5985   35.5221 H   0  0  0  0  0  0  0  0  0  0  0  0
   46.1346   31.3263   33.2413 H   0  0  0  0  0  0  0  0  0  0  0  0
   48.7025   33.6620   32.2024 H   0  0  0  0  0  0  0  0  0  0  0  0
   47.3511   32.6080   31.7069 H   0  0  0  0  0  0  0  0  0  0  0  0
  1 15  1  0
  1  6  1  0
  2  3  2  0
  2  8  1  0
  4  3  1  0
  5  4  2  0
  6  5  1  0
  6  7  2  0
  7  2  1  0
  8 10  1  0
  9  8  2  0
 10 11  1  0
 11 13  1  0
 11 12  1  0
 14 11  1  0
 16  1  1  0
 17  1  1  0
 18 17  1  0
 19 18  1  0
 20 19  2  0
 21 20  1  0
 21 23  2  0
 22 21  1  0
 23 24  1  0
 24 18  1  0
 24 25  2  0
  3 26  1  0
  4 27  1  0
 15 28  1  0
 15 29  1  0
 15 30  1  0
 16 31  1  0
 16 32  1  0
 16 33  1  0
 17 34  1  0
 17 35  1  0
 19 36  1  0
 20 37  1  0
 22 38  1  0
 22 39  1  0
M  ISO  8  26  14  27  14  28   8  29   8  30   8  31   8  32   8  33   8
M  ISO  4  34   8  35   8  36  14  37  14
M  END
>  <minimizedAffinity>  (1) 
-4.93550158

>  <minimizedRMSD>  (1) 
2.59533238

$$$$
