
     RDKit          3D

 38 40  0  0  1  0  0  0  0  0999 V2000
   46.3980   33.9350   42.3330 N   0  0  0  0  0  0  0  0  0  0  0  0
   47.7350   34.2060   41.8220 C   0  0  0  0  0  0  0  0  0  0  0  0
   47.4150   34.3930   40.3420 C   0  0  0  0  0  0  0  0  0  0  0  0
   46.5810   33.1530   40.0990 C   0  0  0  0  0  0  0  0  0  0  0  0
   45.7490   33.0680   41.3390 C   0  0  2  0  0  0  0  0  0  0  0  0
   44.3650   33.2950   41.1870 N   0  0  0  0  0  0  0  0  0  0  0  0
   43.7630   34.2110   40.4240 C   0  0  0  0  0  0  0  0  0  0  0  0
   42.3880   34.3520   40.3450 C   0  0  0  0  0  0  0  0  0  0  0  0
   41.5810   33.5120   41.0850 C   0  0  0  0  0  0  0  0  0  0  0  0
   40.3030   33.5880   41.0600 O   0  0  0  0  0  0  0  0  0  0  0  0
   42.1850   32.5940   41.8500 N   0  0  0  0  0  0  0  0  0  0  0  0
   43.5050   32.4980   41.8920 C   0  0  0  0  0  0  0  0  0  0  0  0
   43.9790   31.5920   42.6500 O   0  0  0  0  0  0  0  0  0  0  0  0
   41.7490   35.3710   39.4970 C   0  0  0  0  0  0  0  0  0  0  0  0
   44.5280   35.9350   44.8380 C   0  0  0  0  0  0  0  0  0  0  0  0
   45.0930   35.5720   43.6100 C   0  0  0  0  0  0  0  0  0  0  0  0
   45.8010   34.3770   43.5160 C   0  0  0  0  0  0  0  0  0  0  0  0
   45.8940   33.6310   44.6560 N   0  0  0  0  0  0  0  0  0  0  0  0
   45.3450   33.9910   45.8350 C   0  0  0  0  0  0  0  0  0  0  0  0
   44.6620   35.1490   45.9100 N   0  0  0  0  0  0  0  0  0  0  0  0
   45.5290   33.0700   47.0030 C   0  0  0  0  0  0  0  0  0  0  0  0
   48.1657   35.1159   42.2655 H   0  0  0  0  0  0  0  0  0  0  0  0
   48.4830   33.4299   42.0416 H   0  0  0  0  0  0  0  0  0  0  0  0
   46.8411   35.3138   40.1609 H   0  0  0  0  0  0  0  0  0  0  0  0
   48.2920   34.4992   39.6865 H   0  0  0  0  0  0  0  0  0  0  0  0
   45.9502   33.2681   39.2052 H   0  0  0  0  0  0  0  0  0  0  0  0
   47.1832   32.2511   39.9148 H   0  0  0  0  0  0  0  0  0  0  0  0
   45.7274   32.0214   41.6768 H   0  0  0  0  0  0  0  0  0  0  0  0
   44.3920   34.8883   39.8276 H   0  0  0  0  0  0  0  0  0  0  0  0
   41.6128   31.9511   42.4158 H   0  0  0  0  0  0  0  0  0  0  0  0
   41.2723   36.1312   40.1333 H   0  0  0  0  0  0  0  0  0  0  0  0
   42.5094   35.8489   38.8619 H   0  0  0  0  0  0  0  0  0  0  0  0
   40.9876   34.8946   38.8619 H   0  0  0  0  0  0  0  0  0  0  0  0
   43.9675   36.8778   44.9214 H   0  0  0  0  0  0  0  0  0  0  0  0
   44.9791   36.2226   42.7304 H   0  0  0  0  0  0  0  0  0  0  0  0
   45.4157   33.6372   47.9386 H   0  0  0  0  0  0  0  0  0  0  0  0
   44.7724   32.2725   46.9638 H   0  0  0  0  0  0  0  0  0  0  0  0
   46.5339   32.6244   46.9638 H   0  0  0  0  0  0  0  0  0  0  0  0
  1 17  1  0
  2  1  1  0
  3  2  1  0
  4  3  1  0
  4  5  1  0
  5  1  1  0
  6  5  1  0
  6 12  1  0
  7  6  1  0
  8  7  2  0
  8  9  1  0
  9 11  1  0
 10  9  2  0
 11 12  1  0
 12 13  2  0
 14  8  1  0
 15 20  2  0
 16 15  1  0
 17 16  2  0
 17 18  1  0
 18 19  2  0
 19 20  1  0
 19 21  1  0
  2 22  1  0
  2 23  1  0
  3 24  1  0
  3 25  1  0
  4 26  1  0
  4 27  1  0
  5 28  1  1
  7 29  1  0
 11 30  1  0
 14 31  1  0
 14 32  1  0
 14 33  1  0
 15 34  1  0
 16 35  1  0
 21 36  1  0
 21 37  1  0
 21 38  1  0
M  ISO  8  22  13  23  13  24  13  25  13  26  13  27  13  28  13  29  14
M  ISO  8  30   9  31   8  32   8  33   8  34  14  35  14  36   8  37   8
M  ISO  1  38   8
M  END
>  <minimizedAffinity>  (1) 
-5.71951008

>  <minimizedRMSD>  (1) 
0.130148783

$$$$
