
     RDKit          3D

 38 40  0  0  1  0  0  0  0  0999 V2000
   46.4910   33.8850   42.2740 N   0  0  0  0  0  0  0  0  0  0  0  0
   47.8200   34.1840   41.7480 C   0  0  0  0  0  0  0  0  0  0  0  0
   47.4750   34.4720   40.3040 C   0  0  0  0  0  0  0  0  0  0  0  0
   46.6240   33.2600   39.9850 C   0  0  0  0  0  0  0  0  0  0  0  0
   45.8210   33.0930   41.2320 C   0  0  2  0  0  0  0  0  0  0  0  0
   44.4280   33.3380   41.1220 N   0  0  0  0  0  0  0  0  0  0  0  0
   43.8180   34.2820   40.4070 C   0  0  0  0  0  0  0  0  0  0  0  0
   42.4410   34.4330   40.3710 C   0  0  0  0  0  0  0  0  0  0  0  0
   41.6500   33.5750   41.1030 C   0  0  0  0  0  0  0  0  0  0  0  0
   40.3650   33.6670   41.1090 O   0  0  0  0  0  0  0  0  0  0  0  0
   42.2590   32.6280   41.8210 N   0  0  0  0  0  0  0  0  0  0  0  0
   43.5830   32.5250   41.8230 C   0  0  0  0  0  0  0  0  0  0  0  0
   44.0670   31.5900   42.5380 O   0  0  0  0  0  0  0  0  0  0  0  0
   41.7970   35.4910   39.5670 C   0  0  0  0  0  0  0  0  0  0  0  0
   44.6270   35.7000   44.9130 C   0  0  0  0  0  0  0  0  0  0  0  0
   45.1670   35.4070   43.6530 C   0  0  0  0  0  0  0  0  0  0  0  0
   45.9200   34.2460   43.4960 C   0  0  0  0  0  0  0  0  0  0  0  0
   46.0810   33.4590   44.5960 N   0  0  0  0  0  0  0  0  0  0  0  0
   45.5540   33.7530   45.8030 C   0  0  0  0  0  0  0  0  0  0  0  0
   44.8320   34.8680   45.9540 N   0  0  0  0  0  0  0  0  0  0  0  0
   45.7520   32.8690   46.9820 C   0  0  0  0  0  0  0  0  0  0  0  0
   45.5640   31.5500   46.6150 F   0  0  0  0  0  0  0  0  0  0  0  0
   47.0430   32.9520   47.4690 F   0  0  0  0  0  0  0  0  0  0  0  0
   44.8310   33.2050   47.9650 F   0  0  0  0  0  0  0  0  0  0  0  0
   48.2671   35.0588   42.2428 H   0  0  0  0  0  0  0  0  0  0  0  0
   48.5653   33.3886   41.8955 H   0  0  0  0  0  0  0  0  0  0  0  0
   46.9064   35.4079   40.1998 H   0  0  0  0  0  0  0  0  0  0  0  0
   48.3419   34.6144   39.6420 H   0  0  0  0  0  0  0  0  0  0  0  0
   45.9754   33.4469   39.1164 H   0  0  0  0  0  0  0  0  0  0  0  0
   47.2115   32.3690   39.7187 H   0  0  0  0  0  0  0  0  0  0  0  0
   45.8057   32.0255   41.4970 H   0  0  0  0  0  0  0  0  0  0  0  0
   44.4366   34.9744   39.8172 H   0  0  0  0  0  0  0  0  0  0  0  0
   41.6959   31.9705   42.3791 H   0  0  0  0  0  0  0  0  0  0  0  0
   41.3435   36.2360   40.2373 H   0  0  0  0  0  0  0  0  0  0  0  0
   42.5511   35.9795   38.9324 H   0  0  0  0  0  0  0  0  0  0  0  0
   41.0167   35.0456   38.9324 H   0  0  0  0  0  0  0  0  0  0  0  0
   44.0322   36.6146   45.0533 H   0  0  0  0  0  0  0  0  0  0  0  0
   44.9987   36.0833   42.8019 H   0  0  0  0  0  0  0  0  0  0  0  0
  1 17  1  0
  2  1  1  0
  3  2  1  0
  4  3  1  0
  4  5  1  0
  5  1  1  0
  6  5  1  0
  6 12  1  0
  7  6  1  0
  8  7  2  0
  8  9  1  0
  9 10  2  0
  9 11  1  0
 11 12  1  0
 12 13  2  0
 14  8  1  0
 15 20  2  0
 16 15  1  0
 17 16  2  0
 17 18  1  0
 18 19  2  0
 19 20  1  0
 19 21  1  0
 21 23  1  0
 21 24  1  0
 22 21  1  0
  2 25  1  0
  2 26  1  0
  3 27  1  0
  3 28  1  0
  4 29  1  0
  4 30  1  0
  5 31  1  1
  7 32  1  0
 11 33  1  0
 14 34  1  0
 14 35  1  0
 14 36  1  0
 15 37  1  0
 16 38  1  0
M  ISO  8  25  13  26  13  27  13  28  13  29  13  30  13  31  13  32  14
M  ISO  6  33   9  34   8  35   8  36   8  37  14  38  14
M  END
>  <minimizedAffinity>  (1) 
-6.28728676

>  <minimizedRMSD>  (1) 
0.413273633

$$$$
