
     RDKit          3D

 48 51  0  0  1  0  0  0  0  0999 V2000
   47.6690   33.8180   42.8770 N   0  0  0  0  0  0  0  0  0  0  0  0
   48.8980   34.5800   42.7030 C   0  0  0  0  0  0  0  0  0  0  0  0
   48.5270   35.4230   41.5120 C   0  0  0  0  0  0  0  0  0  0  0  0
   47.9520   34.3830   40.5880 C   0  0  0  0  0  0  0  0  0  0  0  0
   47.1960   33.4920   41.5230 C   0  0  2  0  0  0  0  0  0  0  0  0
   45.7780   33.4970   41.3860 N   0  0  0  0  0  0  0  0  0  0  0  0
   44.9720   34.5550   41.2750 C   0  0  0  0  0  0  0  0  0  0  0  0
   43.5960   34.4380   41.1470 C   0  0  0  0  0  0  0  0  0  0  0  0
   43.0140   33.1880   41.1300 C   0  0  0  0  0  0  0  0  0  0  0  0
   41.7540   33.0150   41.0150 O   0  0  0  0  0  0  0  0  0  0  0  0
   43.8320   32.1290   41.2420 N   0  0  0  0  0  0  0  0  0  0  0  0
   45.1470   32.2910   41.3630 C   0  0  0  0  0  0  0  0  0  0  0  0
   45.8310   31.2240   41.4610 O   0  0  0  0  0  0  0  0  0  0  0  0
   42.7230   35.6190   41.0280 C   0  0  0  0  0  0  0  0  0  0  0  0
   45.5280   33.8570   45.9090 C   0  0  0  0  0  0  0  0  0  0  0  0
   46.1390   34.3020   44.7280 C   0  0  0  0  0  0  0  0  0  0  0  0
   47.0250   33.4460   44.0540 C   0  0  0  0  0  0  0  0  0  0  0  0
   47.2310   32.2190   44.6070 N   0  0  0  0  0  0  0  0  0  0  0  0
   46.6390   31.7980   45.7460 C   0  0  0  0  0  0  0  0  0  0  0  0
   45.7890   32.6250   46.3890 N   0  0  0  0  0  0  0  0  0  0  0  0
   47.4380   27.9300   47.2140 C   0  0  0  0  0  0  0  0  0  0  0  0
   48.4120   28.6170   46.5170 C   0  0  0  0  0  0  0  0  0  0  0  0
   48.1800   29.9020   46.0160 C   0  0  0  0  0  0  0  0  0  0  0  0
   46.9360   30.4620   46.2440 C   0  0  0  0  0  0  0  0  0  0  0  0
   45.9390   29.8120   46.9330 C   0  0  0  0  0  0  0  0  0  0  0  0
   46.2050   28.5440   47.4110 C   0  0  0  0  0  0  0  0  0  0  0  0
   47.8350   26.3280   47.7950 S   0  0  0  0  0  0  0  0  0  0  0  0
   48.9380   26.3850   48.8390 O   0  0  0  0  0  0  0  0  0  0  0  0
   46.6570   25.6940   48.4410 O   0  0  0  0  0  0  0  0  0  0  0  0
   49.1217   35.1981   43.5850 H   0  0  0  0  0  0  0  0  0  0  0  0
   49.8030   33.9691   42.5701 H   0  0  0  0  0  0  0  0  0  0  0  0
   47.7799   36.1863   41.7750 H   0  0  0  0  0  0  0  0  0  0  0  0
   49.3637   35.9949   41.0844 H   0  0  0  0  0  0  0  0  0  0  0  0
   47.2806   34.8397   39.8459 H   0  0  0  0  0  0  0  0  0  0  0  0
   48.7155   33.8514   40.0010 H   0  0  0  0  0  0  0  0  0  0  0  0
   47.4114   32.4439   41.2680 H   0  0  0  0  0  0  0  0  0  0  0  0
   45.4172   35.5608   41.2855 H   0  0  0  0  0  0  0  0  0  0  0  0
   43.4360   31.1782   41.2341 H   0  0  0  0  0  0  0  0  0  0  0  0
   42.4560   35.9802   42.0321 H   0  0  0  0  0  0  0  0  0  0  0  0
   43.2529   36.4131   40.4815 H   0  0  0  0  0  0  0  0  0  0  0  0
   41.8084   35.3453   40.4815 H   0  0  0  0  0  0  0  0  0  0  0  0
   44.8317   34.5172   46.4468 H   0  0  0  0  0  0  0  0  0  0  0  0
   45.9273   35.3074   44.3350 H   0  0  0  0  0  0  0  0  0  0  0  0
   49.3912   28.1436   46.3523 H   0  0  0  0  0  0  0  0  0  0  0  0
   48.9579   30.4470   45.4613 H   0  0  0  0  0  0  0  0  0  0  0  0
   44.9607   30.2870   47.0981 H   0  0  0  0  0  0  0  0  0  0  0  0
   45.4208   28.0047   47.9625 H   0  0  0  0  0  0  0  0  0  0  0  0
   48.2405   25.6023   46.7061 H   0  0  0  0  0  0  0  0  0  0  0  0
  1 17  1  0
  2  1  1  0
  3  2  1  0
  4  3  1  0
  4  5  1  0
  5  1  1  0
  6  5  1  0
  7  6  1  0
  8  7  2  0
  9  8  1  0
  9 11  1  0
 10  9  2  0
 11 12  1  0
 12  6  1  0
 12 13  2  0
 14  8  1  0
 15 20  2  0
 16 15  1  0
 17 18  1  0
 17 16  2  0
 18 19  2  0
 19 24  1  0
 19 20  1  0
 21 26  2  0
 21 27  1  0
 22 21  1  0
 23 24  1  0
 23 22  2  0
 24 25  2  0
 25 26  1  0
 27 29  2  0
 27 28  2  0
  2 30  1  0
  2 31  1  0
  3 32  1  0
  3 33  1  0
  4 34  1  0
  4 35  1  0
  5 36  1  6
  7 37  1  0
 11 38  1  0
 14 39  1  0
 14 40  1  0
 14 41  1  0
 15 42  1  0
 16 43  1  0
 22 44  1  0
 23 45  1  0
 25 46  1  0
 26 47  1  0
 27 48  1  0
M  ISO  8  30  13  31  13  32  13  33  13  34  13  35  13  36  13  37  14
M  ISO  8  38   9  39   8  40   8  41   8  42  14  43  14  44  14  45  14
M  ISO  3  46  14  47  14  48  11
M  END
>  <minimizedAffinity>  (1) 
-5.71825981

>  <minimizedRMSD>  (1) 
3.10317445

$$$$
