
     RDKit          3D

 36 38  0  0  1  0  0  0  0  0999 V2000
   46.3930   33.9250   42.3340 N   0  0  0  0  0  0  0  0  0  0  0  0
   47.7280   34.1980   41.8130 C   0  0  0  0  0  0  0  0  0  0  0  0
   47.4010   34.3980   40.3550 C   0  0  0  0  0  0  0  0  0  0  0  0
   46.5580   33.1670   40.0890 C   0  0  0  0  0  0  0  0  0  0  0  0
   45.7390   33.0710   41.3380 C   0  0  2  0  0  0  0  0  0  0  0  0
   44.3500   33.2860   41.1990 N   0  0  0  0  0  0  0  0  0  0  0  0
   43.7430   34.2110   40.4470 C   0  0  0  0  0  0  0  0  0  0  0  0
   42.3650   34.3370   40.3830 C   0  0  0  0  0  0  0  0  0  0  0  0
   41.5600   33.4840   41.1160 C   0  0  0  0  0  0  0  0  0  0  0  0
   40.2820   33.5540   41.0960 O   0  0  0  0  0  0  0  0  0  0  0  0
   42.1740   32.5590   41.8680 N   0  0  0  0  0  0  0  0  0  0  0  0
   43.5000   32.4790   41.8950 C   0  0  0  0  0  0  0  0  0  0  0  0
   43.9810   31.5670   42.6400 O   0  0  0  0  0  0  0  0  0  0  0  0
   41.7160   35.3690   39.5440 C   0  0  0  0  0  0  0  0  0  0  0  0
   44.5340   35.9080   44.8520 C   0  0  0  0  0  0  0  0  0  0  0  0
   45.0930   35.5530   43.6180 C   0  0  0  0  0  0  0  0  0  0  0  0
   45.8030   34.3570   43.5230 C   0  0  0  0  0  0  0  0  0  0  0  0
   45.9020   33.6070   44.6580 N   0  0  0  0  0  0  0  0  0  0  0  0
   45.3580   33.9620   45.8410 C   0  0  0  0  0  0  0  0  0  0  0  0
   44.6700   35.1260   45.9220 N   0  0  0  0  0  0  0  0  0  0  0  0
   45.6300   32.8020   47.1850 S   0  0  0  0  0  0  0  0  0  0  0  0
   48.1648   35.1024   42.2617 H   0  0  0  0  0  0  0  0  0  0  0  0
   48.4753   33.4174   42.0185 H   0  0  0  0  0  0  0  0  0  0  0  0
   46.8307   35.3240   40.1901 H   0  0  0  0  0  0  0  0  0  0  0  0
   48.2777   34.5034   39.6991 H   0  0  0  0  0  0  0  0  0  0  0  0
   45.9204   33.3037   39.2031 H   0  0  0  0  0  0  0  0  0  0  0  0
   47.1489   32.2637   39.8770 H   0  0  0  0  0  0  0  0  0  0  0  0
   45.7260   32.0226   41.6707 H   0  0  0  0  0  0  0  0  0  0  0  0
   44.3636   34.8999   39.8552 H   0  0  0  0  0  0  0  0  0  0  0  0
   41.6121   31.9040   42.4303 H   0  0  0  0  0  0  0  0  0  0  0  0
   41.2422   36.1224   40.1905 H   0  0  0  0  0  0  0  0  0  0  0  0
   42.4720   35.8540   38.9090 H   0  0  0  0  0  0  0  0  0  0  0  0
   40.9514   34.8977   38.9090 H   0  0  0  0  0  0  0  0  0  0  0  0
   43.9723   36.8498   44.9394 H   0  0  0  0  0  0  0  0  0  0  0  0
   44.9741   36.2054   42.7404 H   0  0  0  0  0  0  0  0  0  0  0  0
   45.4785   33.4481   48.3836 H   0  0  0  0  0  0  0  0  0  0  0  0
  1 17  1  0
  2  1  1  0
  3  2  1  0
  4  3  1  0
  4  5  1  0
  5  1  1  0
  6  5  1  0
  6 12  1  0
  7  6  1  0
  8  7  2  0
  8  9  1  0
  9 11  1  0
 10  9  2  0
 11 12  1  0
 12 13  2  0
 14  8  1  0
 15 20  2  0
 16 15  1  0
 17 16  2  0
 17 18  1  0
 18 19  2  0
 19 20  1  0
 19 21  1  0
  2 22  1  0
  2 23  1  0
  3 24  1  0
  3 25  1  0
  4 26  1  0
  4 27  1  0
  5 28  1  1
  7 29  1  0
 11 30  1  0
 14 31  1  0
 14 32  1  0
 14 33  1  0
 15 34  1  0
 16 35  1  0
 21 36  1  0
M  ISO  8  22  13  23  13  24  13  25  13  26  13  27  13  28  13  29  14
M  ISO  7  30   9  31   8  32   8  33   8  34  14  35  14  36  11
M  END
>  <minimizedAffinity>  (1) 
-5.666255

>  <minimizedRMSD>  (1) 
0.152690858

$$$$
