
     RDKit          3D

 36 37  0  0  0  0  0  0  0  0999 V2000
   47.0110   33.0030   38.3210 C   0  0  0  0  0  0  0  0  0  0  0  0
   46.1500   34.3580   41.6050 C   0  0  0  0  0  0  0  0  0  0  0  0
   47.2690   35.0900   41.9710 C   0  0  0  0  0  0  0  0  0  0  0  0
   48.3700   35.1390   41.0880 C   0  0  0  0  0  0  0  0  0  0  0  0
   48.2620   34.4580   39.9170 N   0  0  0  0  0  0  0  0  0  0  0  0
   47.1380   33.7460   39.5900 C   0  0  0  0  0  0  0  0  0  0  0  0
   46.1160   33.7140   40.4370 N   0  0  0  0  0  0  0  0  0  0  0  0
   45.0380   34.3210   42.5210 C   0  0  0  0  0  0  0  0  0  0  0  0
   43.8950   33.9360   42.1160 O   0  0  0  0  0  0  0  0  0  0  0  0
   45.2490   34.7130   43.8510 O   0  0  0  0  0  0  0  0  0  0  0  0
   44.5610   35.8180   44.3540 C   0  0  0  0  0  0  0  0  0  0  0  0
   43.2220   35.8360   43.9870 F   0  0  0  0  0  0  0  0  0  0  0  0
   44.6330   35.8440   45.7280 F   0  0  0  0  0  0  0  0  0  0  0  0
   45.1720   36.9440   43.7990 F   0  0  0  0  0  0  0  0  0  0  0  0
   47.3050   31.5550   38.4470 C   0  0  0  0  0  0  0  0  0  0  0  0
   45.6390   33.2250   37.7660 C   0  0  0  0  0  0  0  0  0  0  0  0
   47.9970   33.6390   37.3510 C   0  0  0  0  0  0  0  0  0  0  0  0
   49.0130   32.6750   36.8640 C   0  0  0  0  0  0  0  0  0  0  0  0
   48.7950   32.2690   35.5690 C   0  0  0  0  0  0  0  0  0  0  0  0
   49.6400   31.3670   34.9320 C   0  0  0  0  0  0  0  0  0  0  0  0
   50.7000   30.8780   35.6050 N   0  0  0  0  0  0  0  0  0  0  0  0
   50.8850   31.2930   36.8660 C   0  0  0  0  0  0  0  0  0  0  0  0
   50.0890   32.1520   37.4860 N   0  0  0  0  0  0  0  0  0  0  0  0
   47.2988   35.6234   42.9326 H   0  0  0  0  0  0  0  0  0  0  0  0
   49.2789   35.7059   41.3381 H   0  0  0  0  0  0  0  0  0  0  0  0
   47.3602   31.2833   39.5115 H   0  0  0  0  0  0  0  0  0  0  0  0
   46.5063   30.9751   37.9615 H   0  0  0  0  0  0  0  0  0  0  0  0
   48.2666   31.3325   37.9615 H   0  0  0  0  0  0  0  0  0  0  0  0
   44.9232   33.3408   38.5932 H   0  0  0  0  0  0  0  0  0  0  0  0
   45.6361   34.1353   37.1485 H   0  0  0  0  0  0  0  0  0  0  0  0
   45.3492   32.3621   37.1485 H   0  0  0  0  0  0  0  0  0  0  0  0
   47.4398   34.0312   36.4875 H   0  0  0  0  0  0  0  0  0  0  0  0
   48.5256   34.4406   37.8877 H   0  0  0  0  0  0  0  0  0  0  0  0
   47.9285   32.6685   35.0217 H   0  0  0  0  0  0  0  0  0  0  0  0
   49.4461   31.0573   33.8945 H   0  0  0  0  0  0  0  0  0  0  0  0
   51.7493   30.8968   37.4193 H   0  0  0  0  0  0  0  0  0  0  0  0
  1 15  1  0
  1  6  1  0
  2  3  2  0
  2  8  1  0
  4  3  1  0
  5  4  2  0
  6  5  1  0
  6  7  2  0
  7  2  1  0
  8 10  1  0
  9  8  2  0
 10 11  1  0
 11 13  1  0
 12 11  1  0
 14 11  1  0
 16  1  1  0
 17  1  1  0
 18 17  1  0
 18 23  1  0
 19 18  2  0
 20 19  1  0
 20 21  2  0
 21 22  1  0
 22 23  2  0
  3 24  1  0
  4 25  1  0
 15 26  1  0
 15 27  1  0
 15 28  1  0
 16 29  1  0
 16 30  1  0
 16 31  1  0
 17 32  1  0
 17 33  1  0
 19 34  1  0
 20 35  1  0
 22 36  1  0
M  ISO  8  24  14  25  14  26   8  27   8  28   8  29   8  30   8  31   8
M  ISO  5  32   8  33   8  34  14  35  14  36  14
M  END
>  <minimizedAffinity>  (1) 
-4.7948761

>  <minimizedRMSD>  (1) 
3.13255525

$$$$
