
     RDKit          3D

 37 39  0  0  1  0  0  0  0  0999 V2000
   46.3770   33.9960   42.3180 N   0  0  0  0  0  0  0  0  0  0  0  0
   47.7240   34.2270   41.8070 C   0  0  0  0  0  0  0  0  0  0  0  0
   47.4220   34.3460   40.3310 C   0  0  0  0  0  0  0  0  0  0  0  0
   46.5830   33.1060   40.1250 C   0  0  0  0  0  0  0  0  0  0  0  0
   45.7410   33.0820   41.3580 C   0  0  2  0  0  0  0  0  0  0  0  0
   44.5160   36.1640   44.6900 C   0  0  0  0  0  0  0  0  0  0  0  0
   45.1080   35.7290   43.5030 C   0  0  0  0  0  0  0  0  0  0  0  0
   45.7600   34.5010   43.4660 C   0  0  0  0  0  0  0  0  0  0  0  0
   45.7760   33.7870   44.6290 N   0  0  0  0  0  0  0  0  0  0  0  0
   45.2030   34.2130   45.7690 C   0  0  0  0  0  0  0  0  0  0  0  0
   44.5750   35.4020   45.7900 N   0  0  0  0  0  0  0  0  0  0  0  0
   45.3260   33.3250   46.8760 N   0  0  0  0  0  0  0  0  0  0  0  0
   44.3510   33.2950   41.1780 N   0  0  0  0  0  0  0  0  0  0  0  0
   43.7650   34.1940   40.3840 C   0  0  0  0  0  0  0  0  0  0  0  0
   42.3950   34.3220   40.2810 C   0  0  0  0  0  0  0  0  0  0  0  0
   41.5670   33.4960   41.0220 C   0  0  0  0  0  0  0  0  0  0  0  0
   40.2980   33.5760   40.9610 O   0  0  0  0  0  0  0  0  0  0  0  0
   42.1630   32.5970   41.8180 N   0  0  0  0  0  0  0  0  0  0  0  0
   43.4870   32.5140   41.8810 C   0  0  0  0  0  0  0  0  0  0  0  0
   43.9490   31.6270   42.6670 O   0  0  0  0  0  0  0  0  0  0  0  0
   41.7710   35.3300   39.3880 C   0  0  0  0  0  0  0  0  0  0  0  0
   48.1618   35.1518   42.2109 H   0  0  0  0  0  0  0  0  0  0  0  0
   48.4606   33.4537   42.0704 H   0  0  0  0  0  0  0  0  0  0  0  0
   46.8568   35.2619   40.1040 H   0  0  0  0  0  0  0  0  0  0  0  0
   48.3090   34.4139   39.6840 H   0  0  0  0  0  0  0  0  0  0  0  0
   45.9625   33.1907   39.2207 H   0  0  0  0  0  0  0  0  0  0  0  0
   47.1771   32.1917   39.9799 H   0  0  0  0  0  0  0  0  0  0  0  0
   45.7201   32.0540   41.7490 H   0  0  0  0  0  0  0  0  0  0  0  0
   43.9998   37.1348   44.7221 H   0  0  0  0  0  0  0  0  0  0  0  0
   45.0590   36.3553   42.6000 H   0  0  0  0  0  0  0  0  0  0  0  0
   44.9147   33.5766   47.7862 H   0  0  0  0  0  0  0  0  0  0  0  0
   45.8262   32.4313   46.7662 H   0  0  0  0  0  0  0  0  0  0  0  0
   44.4021   34.8619   39.7857 H   0  0  0  0  0  0  0  0  0  0  0  0
   41.5864   31.9621   42.3884 H   0  0  0  0  0  0  0  0  0  0  0  0
   41.2884   36.1096   39.9958 H   0  0  0  0  0  0  0  0  0  0  0  0
   42.5447   35.7865   38.7532 H   0  0  0  0  0  0  0  0  0  0  0  0
   41.0174   34.8410   38.7532 H   0  0  0  0  0  0  0  0  0  0  0  0
  1  8  1  0
  2  1  1  0
  3  2  1  0
  4  3  1  0
  4  5  1  0
  5  1  1  0
  6 11  2  0
  7  6  1  0
  8  7  2  0
  8  9  1  0
  9 10  2  0
 10 11  1  0
 10 12  1  0
 13  5  1  0
 13 19  1  0
 14 13  1  0
 15 14  2  0
 15 16  1  0
 16 18  1  0
 17 16  2  0
 18 19  1  0
 19 20  2  0
 21 15  1  0
  2 22  1  0
  2 23  1  0
  3 24  1  0
  3 25  1  0
  4 26  1  0
  4 27  1  0
  5 28  1  1
  6 29  1  0
  7 30  1  0
 12 31  1  0
 12 32  1  0
 14 33  1  0
 18 34  1  0
 21 35  1  0
 21 36  1  0
 21 37  1  0
M  ISO  8  22  13  23  13  24  13  25  13  26  13  27  13  28  13  29  14
M  ISO  6  30  14  33  14  34   9  35   8  36   8  37   8
M  END
>  <minimizedAffinity>  (1) 
-6.04141808

>  <minimizedRMSD>  (1) 
0.0316844806

$$$$
