
     RDKit          3D

 35 36  0  0  0  0  0  0  0  0999 V2000
   41.6070   33.8220   39.4440 C   0  0  0  0  0  0  0  0  0  0  0  0
   44.8810   34.1790   41.0530 C   0  0  0  0  0  0  0  0  0  0  0  0
   44.6400   35.0730   42.0780 C   0  0  0  0  0  0  0  0  0  0  0  0
   43.3320   35.5820   42.2450 C   0  0  0  0  0  0  0  0  0  0  0  0
   42.3770   35.1550   41.3740 N   0  0  0  0  0  0  0  0  0  0  0  0
   42.6550   34.2670   40.3700 C   0  0  0  0  0  0  0  0  0  0  0  0
   43.8820   33.8120   40.2410 N   0  0  0  0  0  0  0  0  0  0  0  0
   46.2160   33.6650   40.8890 C   0  0  0  0  0  0  0  0  0  0  0  0
   46.5150   32.5250   41.3650 O   0  0  0  0  0  0  0  0  0  0  0  0
   47.1480   34.4480   40.2020 O   0  0  0  0  0  0  0  0  0  0  0  0
   48.2810   34.9300   40.8720 C   0  0  0  0  0  0  0  0  0  0  0  0
   48.8890   35.9930   40.2350 F   0  0  0  0  0  0  0  0  0  0  0  0
   47.9380   35.3330   42.1440 F   0  0  0  0  0  0  0  0  0  0  0  0
   49.1810   33.8620   40.9080 F   0  0  0  0  0  0  0  0  0  0  0  0
   41.3700   34.7480   38.3060 C   0  0  0  0  0  0  0  0  0  0  0  0
   41.9950   32.4700   38.9130 C   0  0  0  0  0  0  0  0  0  0  0  0
   40.3340   33.6400   40.2330 C   0  0  0  0  0  0  0  0  0  0  0  0
   40.1370   32.3090   40.7300 N   0  0  0  0  0  0  0  0  0  0  0  0
   39.7390   31.1260   40.2310 C   0  0  0  0  0  0  0  0  0  0  0  0
   39.7520   30.1770   41.2410 C   0  0  0  0  0  0  0  0  0  0  0  0
   40.1640   30.7760   42.3810 N   0  0  0  0  0  0  0  0  0  0  0  0
   40.3950   32.0800   42.0500 C   0  0  0  0  0  0  0  0  0  0  0  0
   45.4517   35.3833   42.7524 H   0  0  0  0  0  0  0  0  0  0  0  0
   43.0949   36.2956   43.0478 H   0  0  0  0  0  0  0  0  0  0  0  0
   41.1146   35.7458   38.6923 H   0  0  0  0  0  0  0  0  0  0  0  0
   42.2801   34.8145   37.6917 H   0  0  0  0  0  0  0  0  0  0  0  0
   40.5399   34.3691   37.6917 H   0  0  0  0  0  0  0  0  0  0  0  0
   42.1907   31.7882   39.7538 H   0  0  0  0  0  0  0  0  0  0  0  0
   41.1758   32.0686   38.2984 H   0  0  0  0  0  0  0  0  0  0  0  0
   42.9024   32.5641   38.2984 H   0  0  0  0  0  0  0  0  0  0  0  0
   40.3578   34.3287   41.0904 H   0  0  0  0  0  0  0  0  0  0  0  0
   39.5020   33.8471   39.5439 H   0  0  0  0  0  0  0  0  0  0  0  0
   39.4489   30.9405   39.1863 H   0  0  0  0  0  0  0  0  0  0  0  0
   39.4747   29.1180   41.1336 H   0  0  0  0  0  0  0  0  0  0  0  0
   40.7442   32.8474   42.7565 H   0  0  0  0  0  0  0  0  0  0  0  0
  1 17  1  0
  1  6  1  0
  2  3  2  0
  3  4  1  0
  5  4  2  0
  6  5  1  0
  7  6  2  0
  7  2  1  0
  8  2  1  0
  8  9  2  0
 10 11  1  0
 10  8  1  0
 11 14  1  0
 11 13  1  0
 12 11  1  0
 15  1  1  0
 16  1  1  0
 17 18  1  0
 18 22  1  0
 19 18  1  0
 19 20  2  0
 20 21  1  0
 22 21  2  0
  3 23  1  0
  4 24  1  0
 15 25  1  0
 15 26  1  0
 15 27  1  0
 16 28  1  0
 16 29  1  0
 16 30  1  0
 17 31  1  0
 17 32  1  0
 19 33  1  0
 20 34  1  0
 22 35  1  0
M  ISO  8  23  14  24  14  25   8  26   8  27   8  28   8  29   8  30   8
M  ISO  5  31   8  32   8  33  14  34  14  35  14
M  END
>  <minimizedAffinity>  (1) 
-4.65602446

>  <minimizedRMSD>  (1) 
6.15311766

$$$$
