
     RDKit          3D

 42 45  0  0  1  0  0  0  0  0999 V2000
   46.5560   33.8300   42.4630 N   0  0  0  0  0  0  0  0  0  0  0  0
   47.7470   34.2920   41.7660 C   0  0  0  0  0  0  0  0  0  0  0  0
   47.3740   33.9320   40.3450 C   0  0  0  0  0  0  0  0  0  0  0  0
   46.9200   32.5110   40.5180 C   0  0  0  0  0  0  0  0  0  0  0  0
   46.1800   32.5670   41.8230 C   0  0  2  0  0  0  0  0  0  0  0  0
   44.5220   36.1500   44.5240 C   0  0  0  0  0  0  0  0  0  0  0  0
   45.1910   35.6220   43.4250 C   0  0  0  0  0  0  0  0  0  0  0  0
   45.8630   34.4180   43.5280 C   0  0  0  0  0  0  0  0  0  0  0  0
   45.8220   33.8020   44.7510 N   0  0  0  0  0  0  0  0  0  0  0  0
   45.1730   34.3150   45.8160 C   0  0  0  0  0  0  0  0  0  0  0  0
   44.5260   35.4860   45.6930 N   0  0  0  0  0  0  0  0  0  0  0  0
   45.2500   33.5230   46.9900 N   0  0  0  0  0  0  0  0  0  0  0  0
   44.7850   32.3270   41.7570 N   0  0  0  0  0  0  0  0  0  0  0  0
   43.9290   32.8310   40.8770 C   0  0  0  0  0  0  0  0  0  0  0  0
   42.5770   32.5380   40.8930 C   0  0  0  0  0  0  0  0  0  0  0  0
   42.0710   31.6830   41.8590 C   0  0  0  0  0  0  0  0  0  0  0  0
   40.8380   31.3740   41.9270 O   0  0  0  0  0  0  0  0  0  0  0  0
   42.9360   31.1750   42.7450 N   0  0  0  0  0  0  0  0  0  0  0  0
   44.2250   31.4930   42.6830 C   0  0  0  0  0  0  0  0  0  0  0  0
   44.9780   30.9630   43.5670 O   0  0  0  0  0  0  0  0  0  0  0  0
   41.6340   33.1020   39.9110 C   0  0  0  0  0  0  0  0  0  0  0  0
   41.1080   34.4300   40.2610 C   0  0  0  0  0  0  0  0  0  0  0  0
   41.6050   35.0710   41.3600 N   0  0  0  0  0  0  0  0  0  0  0  0
   41.0180   36.2200   41.4980 O   0  0  0  0  0  0  0  0  0  0  0  0
   40.1450   36.4040   40.5540 C   0  0  0  0  0  0  0  0  0  0  0  0
   40.2000   35.2840   39.7790 N   0  0  0  0  0  0  0  0  0  0  0  0
   47.8969   35.3750   41.8871 H   0  0  0  0  0  0  0  0  0  0  0  0
   48.6917   33.8556   42.1224 H   0  0  0  0  0  0  0  0  0  0  0  0
   48.2404   33.9998   39.6706 H   0  0  0  0  0  0  0  0  0  0  0  0
   46.6228   34.5956   39.8918 H   0  0  0  0  0  0  0  0  0  0  0  0
   46.2563   32.2023   39.6969 H   0  0  0  0  0  0  0  0  0  0  0  0
   47.7436   31.7819   40.5101 H   0  0  0  0  0  0  0  0  0  0  0  0
   46.4857   31.7139   42.4464 H   0  0  0  0  0  0  0  0  0  0  0  0
   43.9905   37.1092   44.4369 H   0  0  0  0  0  0  0  0  0  0  0  0
   45.1855   36.1652   42.4685 H   0  0  0  0  0  0  0  0  0  0  0  0
   44.7840   33.8357   47.8537 H   0  0  0  0  0  0  0  0  0  0  0  0
   45.7719   32.6351   46.9789 H   0  0  0  0  0  0  0  0  0  0  0  0
   44.3109   33.5111   40.1014 H   0  0  0  0  0  0  0  0  0  0  0  0
   42.6010   30.5343   43.4787 H   0  0  0  0  0  0  0  0  0  0  0  0
   40.7839   32.4105   39.8151 H   0  0  0  0  0  0  0  0  0  0  0  0
   42.1965   33.2262   38.9739 H   0  0  0  0  0  0  0  0  0  0  0  0
   39.4965   37.2808   40.4100 H   0  0  0  0  0  0  0  0  0  0  0  0
  1  8  1  0
  2  1  1  0
  3  4  1  0
  3  2  1  0
  4  5  1  0
  5  1  1  0
  6 11  2  0
  7  8  2  0
  7  6  1  0
  8  9  1  0
  9 10  2  0
 10 12  1  0
 11 10  1  0
 13  5  1  0
 13 19  1  0
 14 15  2  0
 14 13  1  0
 15 16  1  0
 16 17  2  0
 16 18  1  0
 19 18  1  0
 19 20  2  0
 21 22  1  0
 21 15  1  0
 22 23  2  0
 23 24  1  0
 25 24  1  0
 26 22  1  0
 26 25  2  0
  2 27  1  0
  2 28  1  0
  3 29  1  0
  3 30  1  0
  4 31  1  0
  4 32  1  0
  5 33  1  1
  6 34  1  0
  7 35  1  0
 12 36  1  0
 12 37  1  0
 14 38  1  0
 18 39  1  0
 21 40  1  0
 21 41  1  0
 25 42  1  0
M  ISO  8  27  13  28  13  29  13  30  13  31  13  32  13  33  13  34  14
M  ISO  6  35  14  38  14  39   9  40   8  41   8  42  14
M  END
>  <minimizedAffinity>  (1) 
-6.3386364

>  <minimizedRMSD>  (1) 
1.41574252

$$$$
