
     RDKit          3D

 48 52  0  0  1  0  0  0  0  0999 V2000
   46.2570   33.6580   42.2200 N   0  0  0  0  0  0  0  0  0  0  0  0
   47.1410   34.2250   41.2100 C   0  0  0  0  0  0  0  0  0  0  0  0
   46.5500   33.6210   39.9620 C   0  0  0  0  0  0  0  0  0  0  0  0
   46.4650   32.1820   40.3640 C   0  0  0  0  0  0  0  0  0  0  0  0
   46.0370   32.2720   41.7940 C   0  0  2  0  0  0  0  0  0  0  0  0
   44.4470   35.9430   44.5180 C   0  0  0  0  0  0  0  0  0  0  0  0
   44.9700   35.4180   43.3310 C   0  0  0  0  0  0  0  0  0  0  0  0
   45.7040   34.2430   43.3630 C   0  0  0  0  0  0  0  0  0  0  0  0
   45.8690   33.6630   44.5850 N   0  0  0  0  0  0  0  0  0  0  0  0
   45.3650   34.1710   45.7230 C   0  0  0  0  0  0  0  0  0  0  0  0
   44.6550   35.3120   45.6790 N   0  0  0  0  0  0  0  0  0  0  0  0
   45.6410   33.4270   46.8990 N   0  0  0  0  0  0  0  0  0  0  0  0
   44.7470   31.7590   42.1040 N   0  0  0  0  0  0  0  0  0  0  0  0
   43.5850   32.2320   41.6590 C   0  0  0  0  0  0  0  0  0  0  0  0
   42.3660   31.6740   42.0090 C   0  0  0  0  0  0  0  0  0  0  0  0
   42.3280   30.5800   42.8540 C   0  0  0  0  0  0  0  0  0  0  0  0
   41.2360   30.0320   43.2040 O   0  0  0  0  0  0  0  0  0  0  0  0
   43.5090   30.1160   43.2930 N   0  0  0  0  0  0  0  0  0  0  0  0
   44.6360   30.6870   42.9270 C   0  0  0  0  0  0  0  0  0  0  0  0
   45.7060   30.1740   43.3960 O   0  0  0  0  0  0  0  0  0  0  0  0
   41.0800   32.2190   41.5000 C   0  0  0  0  0  0  0  0  0  0  0  0
   41.2330   33.4980   40.8710 N   0  0  0  0  0  0  0  0  0  0  0  0
   41.8820   34.5070   41.5070 C   0  0  0  0  0  0  0  0  0  0  0  0
   41.8860   35.5980   40.6980 N   0  0  0  0  0  0  0  0  0  0  0  0
   41.2330   35.2620   39.5520 C   0  0  0  0  0  0  0  0  0  0  0  0
   40.9090   35.9060   38.3750 C   0  0  0  0  0  0  0  0  0  0  0  0
   40.2310   35.2390   37.4220 N   0  0  0  0  0  0  0  0  0  0  0  0
   39.8390   33.9630   37.5380 C   0  0  0  0  0  0  0  0  0  0  0  0
   40.1490   33.3050   38.6930 N   0  0  0  0  0  0  0  0  0  0  0  0
   40.8330   33.9550   39.6710 C   0  0  0  0  0  0  0  0  0  0  0  0
   47.0885   35.3236   41.1942 H   0  0  0  0  0  0  0  0  0  0  0  0
   48.2093   34.0118   41.3623 H   0  0  0  0  0  0  0  0  0  0  0  0
   47.2093   33.7608   39.0926 H   0  0  0  0  0  0  0  0  0  0  0  0
   45.5936   34.0649   39.6486 H   0  0  0  0  0  0  0  0  0  0  0  0
   45.7207   31.6433   39.7591 H   0  0  0  0  0  0  0  0  0  0  0  0
   47.4055   31.6297   40.2210 H   0  0  0  0  0  0  0  0  0  0  0  0
   46.6572   31.5813   42.3841 H   0  0  0  0  0  0  0  0  0  0  0  0
   43.8642   36.8756   44.4963 H   0  0  0  0  0  0  0  0  0  0  0  0
   44.7991   35.9362   42.3759 H   0  0  0  0  0  0  0  0  0  0  0  0
   45.2879   33.7536   47.8098 H   0  0  0  0  0  0  0  0  0  0  0  0
   46.1945   32.5602   46.8420 H   0  0  0  0  0  0  0  0  0  0  0  0
   43.5929   33.1018   40.9856 H   0  0  0  0  0  0  0  0  0  0  0  0
   43.5328   29.3026   43.9244 H   0  0  0  0  0  0  0  0  0  0  0  0
   40.6642   31.5130   40.7660 H   0  0  0  0  0  0  0  0  0  0  0  0
   40.4096   32.3501   42.3622 H   0  0  0  0  0  0  0  0  0  0  0  0
   42.3298   34.4503   42.5101 H   0  0  0  0  0  0  0  0  0  0  0  0
   41.2020   36.9544   38.2170 H   0  0  0  0  0  0  0  0  0  0  0  0
   39.2859   33.4625   36.7295 H   0  0  0  0  0  0  0  0  0  0  0  0
  1  8  1  0
  2  1  1  0
  3  4  1  0
  3  2  1  0
  4  5  1  0
  5 13  1  0
  5  1  1  0
  6 11  2  0
  7  8  2  0
  7  6  1  0
  8  9  1  0
  9 10  2  0
 10 12  1  0
 11 10  1  0
 13 19  1  0
 14 15  2  0
 14 13  1  0
 15 16  1  0
 16 17  2  0
 16 18  1  0
 19 18  1  0
 19 20  2  0
 21 15  1  0
 22 21  1  0
 22 23  1  0
 24 23  2  0
 25 30  2  0
 25 24  1  0
 26 25  1  0
 27 28  1  0
 27 26  2  0
 28 29  2  0
 29 30  1  0
 30 22  1  0
  2 31  1  0
  2 32  1  0
  3 33  1  0
  3 34  1  0
  4 35  1  0
  4 36  1  0
  5 37  1  1
  6 38  1  0
  7 39  1  0
 12 40  1  0
 12 41  1  0
 14 42  1  0
 18 43  1  0
 21 44  1  0
 21 45  1  0
 23 46  1  0
 26 47  1  0
 28 48  1  0
M  ISO  8  31  13  32  13  33  13  34  13  35  13  36  13  37  13  38  14
M  ISO  8  39  14  42  14  43   9  44   8  45   8  46  14  47  14  48  14
M  END
>  <minimizedAffinity>  (1) 
-6.34111071

>  <minimizedRMSD>  (1) 
2.84266973

$$$$
