
     RDKit          3D

 44 47  0  0  1  0  0  0  0  0999 V2000
   46.4850   33.9910   42.5330 N   0  0  0  0  0  0  0  0  0  0  0  0
   47.7000   34.4670   41.8870 C   0  0  0  0  0  0  0  0  0  0  0  0
   47.3110   34.2710   40.4320 C   0  0  0  0  0  0  0  0  0  0  0  0
   46.8120   32.8520   40.4690 C   0  0  0  0  0  0  0  0  0  0  0  0
   46.0690   32.8150   41.7680 C   0  0  2  0  0  0  0  0  0  0  0  0
   44.4690   36.1480   44.7890 C   0  0  0  0  0  0  0  0  0  0  0  0
   45.1200   35.7050   43.6350 C   0  0  0  0  0  0  0  0  0  0  0  0
   45.8060   34.5030   43.6480 C   0  0  0  0  0  0  0  0  0  0  0  0
   45.7960   33.8130   44.8230 N   0  0  0  0  0  0  0  0  0  0  0  0
   45.1740   34.2350   45.9260 C   0  0  0  0  0  0  0  0  0  0  0  0
   44.5150   35.3990   45.9030 N   0  0  0  0  0  0  0  0  0  0  0  0
   45.2710   33.3840   47.0610 N   0  0  0  0  0  0  0  0  0  0  0  0
   44.6610   32.6360   41.6800 N   0  0  0  0  0  0  0  0  0  0  0  0
   43.8210   33.3000   40.8840 C   0  0  0  0  0  0  0  0  0  0  0  0
   42.4550   33.0590   40.8680 C   0  0  0  0  0  0  0  0  0  0  0  0
   41.9180   32.0900   41.7070 C   0  0  0  0  0  0  0  0  0  0  0  0
   40.6740   31.8340   41.7260 O   0  0  0  0  0  0  0  0  0  0  0  0
   42.7760   31.4360   42.4940 N   0  0  0  0  0  0  0  0  0  0  0  0
   44.0640   31.7020   42.4730 C   0  0  0  0  0  0  0  0  0  0  0  0
   44.8040   31.0280   43.2620 O   0  0  0  0  0  0  0  0  0  0  0  0
   41.5280   33.8050   39.9840 C   0  0  0  0  0  0  0  0  0  0  0  0
   40.7550   34.8460   40.7560 C   0  0  0  0  0  0  0  0  0  0  0  0
   40.4180   36.1660   40.1820 C   0  0  0  0  0  0  0  0  0  0  0  0
   39.3740   35.1350   40.1530 C   0  0  0  0  0  0  0  0  0  0  0  0
   47.8997   35.5236   42.1186 H   0  0  0  0  0  0  0  0  0  0  0  0
   48.6231   33.9545   42.1955 H   0  0  0  0  0  0  0  0  0  0  0  0
   48.1768   34.3794   39.7622 H   0  0  0  0  0  0  0  0  0  0  0  0
   46.5836   35.0024   40.0500 H   0  0  0  0  0  0  0  0  0  0  0  0
   46.1441   32.6413   39.6208 H   0  0  0  0  0  0  0  0  0  0  0  0
   47.6110   32.0996   40.3944 H   0  0  0  0  0  0  0  0  0  0  0  0
   46.3438   31.8933   42.3018 H   0  0  0  0  0  0  0  0  0  0  0  0
   43.9229   37.1029   44.7853 H   0  0  0  0  0  0  0  0  0  0  0  0
   45.0874   36.3107   42.7173 H   0  0  0  0  0  0  0  0  0  0  0  0
   44.8139   33.6502   47.9448 H   0  0  0  0  0  0  0  0  0  0  0  0
   45.7984   32.5014   46.9994 H   0  0  0  0  0  0  0  0  0  0  0  0
   44.2285   34.0703   40.2127 H   0  0  0  0  0  0  0  0  0  0  0  0
   42.4218   30.7080   43.1308 H   0  0  0  0  0  0  0  0  0  0  0  0
   40.8198   33.0974   39.5282 H   0  0  0  0  0  0  0  0  0  0  0  0
   42.1203   34.3148   39.2099 H   0  0  0  0  0  0  0  0  0  0  0  0
   41.2113   34.5560   41.7140 H   0  0  0  0  0  0  0  0  0  0  0  0
   40.3045   37.0339   40.8482 H   0  0  0  0  0  0  0  0  0  0  0  0
   40.8809   36.8023   39.4133 H   0  0  0  0  0  0  0  0  0  0  0  0
   38.4929   35.2219   40.8058 H   0  0  0  0  0  0  0  0  0  0  0  0
   38.7469   34.6760   39.3745 H   0  0  0  0  0  0  0  0  0  0  0  0
  1  8  1  0
  2  1  1  0
  3  4  1  0
  3  2  1  0
  4  5  1  0
  5  1  1  0
  6 11  2  0
  7  8  2  0
  7  6  1  0
  8  9  1  0
  9 10  2  0
 10 12  1  0
 11 10  1  0
 13  5  1  0
 13 19  1  0
 14 13  1  0
 15 14  2  0
 15 16  1  0
 16 17  2  0
 16 18  1  0
 19 18  1  0
 19 20  2  0
 21 22  1  0
 21 15  1  0
 23 22  1  0
 24 23  1  0
 24 22  1  0
  2 25  1  0
  2 26  1  0
  3 27  1  0
  3 28  1  0
  4 29  1  0
  4 30  1  0
  5 31  1  1
  6 32  1  0
  7 33  1  0
 12 34  1  0
 12 35  1  0
 14 36  1  0
 18 37  1  0
 21 38  1  0
 21 39  1  0
 22 40  1  0
 23 41  1  0
 23 42  1  0
 24 43  1  0
 24 44  1  0
M  ISO  8  25  13  26  13  27  13  28  13  29  13  30  13  31  13  32  14
M  ISO  8  33  14  36  14  37   9  38   8  39   8  40  13  41  13  42  13
M  ISO  2  43  13  44  13
M  END
>  <minimizedAffinity>  (1) 
-6.28582287

>  <minimizedRMSD>  (1) 
1.12150705

$$$$
