
     RDKit          3D

 30 33  0  0  0  0  0  0  0  0999 V2000
   44.8580   33.8960   41.7180 N   0  0  0  0  0  0  0  0  0  0  0  0
   45.8690   33.7820   40.8740 C   0  0  0  0  0  0  0  0  0  0  0  0
   45.3610   33.4330   39.6130 C   0  0  0  0  0  0  0  0  0  0  0  0
   44.0320   33.3450   39.7290 N   0  0  0  0  0  0  0  0  0  0  0  0
   43.7160   33.6280   41.0210 C   0  0  0  0  0  0  0  0  0  0  0  0
   44.3710   35.5270   43.3930 C   0  0  0  0  0  0  0  0  0  0  0  0
   44.8750   34.2240   43.0720 C   0  0  0  0  0  0  0  0  0  0  0  0
   45.3170   33.4350   44.1210 C   0  0  0  0  0  0  0  0  0  0  0  0
   45.2550   33.9270   45.3950 N   0  0  0  0  0  0  0  0  0  0  0  0
   44.7760   35.1570   45.6610 C   0  0  0  0  0  0  0  0  0  0  0  0
   44.3340   35.9600   44.6600 N   0  0  0  0  0  0  0  0  0  0  0  0
   47.2450   33.9570   41.0950 N   0  0  0  0  0  0  0  0  0  0  0  0
   48.0110   35.0760   41.2550 C   0  0  0  0  0  0  0  0  0  0  0  0
   49.3120   34.7140   41.4420 N   0  0  0  0  0  0  0  0  0  0  0  0
   49.3610   33.3680   41.3980 C   0  0  0  0  0  0  0  0  0  0  0  0
   50.4220   32.4920   41.5290 C   0  0  0  0  0  0  0  0  0  0  0  0
   50.1690   31.1730   41.4400 N   0  0  0  0  0  0  0  0  0  0  0  0
   48.9250   30.6920   41.2300 C   0  0  0  0  0  0  0  0  0  0  0  0
   47.8920   31.5450   41.1030 N   0  0  0  0  0  0  0  0  0  0  0  0
   48.0740   32.8760   41.1810 C   0  0  0  0  0  0  0  0  0  0  0  0
   51.7510   32.9330   41.7510 N   0  0  0  0  0  0  0  0  0  0  0  0
   45.9479   33.2632   38.6983 H   0  0  0  0  0  0  0  0  0  0  0  0
   42.6986   33.6391   41.4390 H   0  0  0  0  0  0  0  0  0  0  0  0
   44.0090   36.1814   42.5863 H   0  0  0  0  0  0  0  0  0  0  0  0
   45.7126   32.4262   43.9316 H   0  0  0  0  0  0  0  0  0  0  0  0
   44.7426   35.5148   46.7006 H   0  0  0  0  0  0  0  0  0  0  0  0
   47.6362   36.1100   41.2359 H   0  0  0  0  0  0  0  0  0  0  0  0
   48.7566   29.6070   41.1630 H   0  0  0  0  0  0  0  0  0  0  0  0
   52.5130   32.2461   41.8429 H   0  0  0  0  0  0  0  0  0  0  0  0
   51.9545   33.9403   41.8204 H   0  0  0  0  0  0  0  0  0  0  0  0
  1  7  1  0
  2 12  1  0
  2  1  1  0
  3  4  1  0
  3  2  2  0
  4  5  2  0
  5  1  1  0
  6 11  2  0
  7  6  1  0
  7  8  2  0
  8  9  1  0
  9 10  2  0
 11 10  1  0
 12 20  1  0
 12 13  1  0
 13 14  2  0
 15 14  1  0
 15 16  2  0
 16 21  1  0
 17 16  1  0
 18 17  2  0
 19 20  2  0
 19 18  1  0
 20 15  1  0
  3 22  1  0
  5 23  1  0
  6 24  1  0
  8 25  1  0
 10 26  1  0
 13 27  1  0
 18 28  1  0
 21 29  1  0
 21 30  1  0
M  ISO  7  22  14  23  14  24  14  25  14  26  14  27  14  28  14
M  END
>  <minimizedAffinity>  (1) 
-4.95620346

>  <minimizedRMSD>  (1) 
3.37864017

$$$$
