
     RDKit          3D

 41 42  0  0  0  0  0  0  0  0999 V2000
   46.7670   32.2780   37.5580 C   0  0  0  0  0  0  0  0  0  0  0  0
   48.4070   31.5110   34.3580 C   0  0  0  0  0  0  0  0  0  0  0  0
   49.6920   31.1510   34.7300 C   0  0  0  0  0  0  0  0  0  0  0  0
   50.0270   31.1650   36.0940 C   0  0  0  0  0  0  0  0  0  0  0  0
   49.0570   31.5370   36.9810 N   0  0  0  0  0  0  0  0  0  0  0  0
   47.8030   31.8840   36.5770 C   0  0  0  0  0  0  0  0  0  0  0  0
   47.5240   31.8600   35.2920 N   0  0  0  0  0  0  0  0  0  0  0  0
   48.0680   31.4950   32.9480 C   0  0  0  0  0  0  0  0  0  0  0  0
   47.6180   30.4260   32.4340 O   0  0  0  0  0  0  0  0  0  0  0  0
   48.2540   32.6660   32.2080 O   0  0  0  0  0  0  0  0  0  0  0  0
   49.5270   32.9460   31.6900 C   0  0  0  0  0  0  0  0  0  0  0  0
   49.4830   33.5870   30.4620 F   0  0  0  0  0  0  0  0  0  0  0  0
   50.2330   33.7370   32.5620 F   0  0  0  0  0  0  0  0  0  0  0  0
   50.1430   31.7170   31.4940 F   0  0  0  0  0  0  0  0  0  0  0  0
   45.8770   33.3430   37.0600 C   0  0  0  0  0  0  0  0  0  0  0  0
   45.9260   31.0500   37.8250 C   0  0  0  0  0  0  0  0  0  0  0  0
   47.4630   32.5980   38.8340 C   0  0  0  0  0  0  0  0  0  0  0  0
   47.2280   33.8910   39.4970 C   0  0  0  0  0  0  0  0  0  0  0  0
   46.8990   33.5330   40.9650 C   0  0  0  0  0  0  0  0  0  0  0  0
   47.2630   34.7800   41.7370 C   0  0  0  0  0  0  0  0  0  0  0  0
   48.5150   35.2430   41.0840 C   0  0  0  0  0  0  0  0  0  0  0  0
   48.3850   34.8030   39.6720 C   0  0  0  0  0  0  0  0  0  0  0  0
   50.4348   30.8601   33.9726 H   0  0  0  0  0  0  0  0  0  0  0  0
   51.0347   30.8863   36.4358 H   0  0  0  0  0  0  0  0  0  0  0  0
   45.4311   33.8766   37.9123 H   0  0  0  0  0  0  0  0  0  0  0  0
   46.4572   34.0494   36.4481 H   0  0  0  0  0  0  0  0  0  0  0  0
   45.0788   32.8975   36.4481 H   0  0  0  0  0  0  0  0  0  0  0  0
   45.8255   30.9033   38.9105 H   0  0  0  0  0  0  0  0  0  0  0  0
   44.9293   31.1842   37.3793 H   0  0  0  0  0  0  0  0  0  0  0  0
   46.4114   30.1692   37.3793 H   0  0  0  0  0  0  0  0  0  0  0  0
   47.1807   31.8160   39.5543 H   0  0  0  0  0  0  0  0  0  0  0  0
   48.5207   32.6548   38.5374 H   0  0  0  0  0  0  0  0  0  0  0  0
   46.4838   34.3981   38.8654 H   0  0  0  0  0  0  0  0  0  0  0  0
   45.8302   33.3000   41.0803 H   0  0  0  0  0  0  0  0  0  0  0  0
   47.4439   32.6442   41.3159 H   0  0  0  0  0  0  0  0  0  0  0  0
   46.4718   35.5394   41.6519 H   0  0  0  0  0  0  0  0  0  0  0  0
   47.3863   34.5947   42.8142 H   0  0  0  0  0  0  0  0  0  0  0  0
   48.6020   36.3380   41.1432 H   0  0  0  0  0  0  0  0  0  0  0  0
   49.4141   34.8336   41.5677 H   0  0  0  0  0  0  0  0  0  0  0  0
   49.3042   34.2772   39.3742 H   0  0  0  0  0  0  0  0  0  0  0  0
   48.2250   35.6920   39.0442 H   0  0  0  0  0  0  0  0  0  0  0  0
  1 16  1  0
  1 17  1  0
  2  3  2  0
  2  7  1  0
  3  4  1  0
  4  5  2  0
  6  5  1  0
  6  1  1  0
  7  6  2  0
  8  2  1  0
  9  8  2  0
 10  8  1  0
 11 10  1  0
 11 13  1  0
 12 11  1  0
 14 11  1  0
 15  1  1  0
 17 18  1  0
 18 22  1  0
 18 19  1  0
 19 20  1  0
 21 20  1  0
 22 21  1  0
  3 23  1  0
  4 24  1  0
 15 25  1  0
 15 26  1  0
 15 27  1  0
 16 28  1  0
 16 29  1  0
 16 30  1  0
 17 31  1  0
 17 32  1  0
 18 33  1  0
 19 34  1  0
 19 35  1  0
 20 36  1  0
 20 37  1  0
 21 38  1  0
 21 39  1  0
 22 40  1  0
 22 41  1  0
M  ISO  8  23  14  24  14  25   8  26   8  27   8  28   8  29   8  30   8
M  ISO  8  31   8  32   8  33  13  34  13  35  13  36  13  37  13  38  13
M  ISO  3  39  13  40  13  41  13
M  END
>  <minimizedAffinity>  (1) 
-4.61286926

>  <minimizedRMSD>  (1) 
8.64541626

$$$$
