
     RDKit          3D

 24 26  0  0  0  0  0  0  0  0999 V2000
   45.6690   34.0390   41.6840 N   0  0  0  0  0  0  0  0  0  0  0  0
   46.8280   33.9330   41.0720 C   0  0  0  0  0  0  0  0  0  0  0  0
   46.6360   33.5760   39.7470 C   0  0  0  0  0  0  0  0  0  0  0  0
   45.3190   33.4660   39.5700 N   0  0  0  0  0  0  0  0  0  0  0  0
   44.7140   33.7500   40.7540 C   0  0  0  0  0  0  0  0  0  0  0  0
   44.8020   35.6680   43.2060 C   0  0  0  0  0  0  0  0  0  0  0  0
   45.3770   34.3720   43.0040 C   0  0  0  0  0  0  0  0  0  0  0  0
   45.5900   33.5760   44.1180 C   0  0  0  0  0  0  0  0  0  0  0  0
   45.2430   34.0610   45.3430 N   0  0  0  0  0  0  0  0  0  0  0  0
   44.7040   35.2830   45.5060 C   0  0  0  0  0  0  0  0  0  0  0  0
   44.4850   36.0840   44.4330 N   0  0  0  0  0  0  0  0  0  0  0  0
   48.1290   34.1380   41.6110 N   0  0  0  0  0  0  0  0  0  0  0  0
   49.1200   33.3720   42.0670 N   0  0  0  0  0  0  0  0  0  0  0  0
   50.1460   34.1110   42.4610 C   0  0  0  0  0  0  0  0  0  0  0  0
   49.8010   35.4180   42.2500 C   0  0  0  0  0  0  0  0  0  0  0  0
   48.5290   35.4400   41.7130 C   0  0  0  0  0  0  0  0  0  0  0  0
   47.4171   33.4149   38.9895 H   0  0  0  0  0  0  0  0  0  0  0  0
   43.6287   33.7472   40.9331 H   0  0  0  0  0  0  0  0  0  0  0  0
   44.6204   36.3252   42.3428 H   0  0  0  0  0  0  0  0  0  0  0  0
   46.0302   32.5731   44.0154 H   0  0  0  0  0  0  0  0  0  0  0  0
   44.4396   35.6344   46.5143 H   0  0  0  0  0  0  0  0  0  0  0  0
   51.0951   33.7438   42.8785 H   0  0  0  0  0  0  0  0  0  0  0  0
   50.4263   36.2960   42.4693 H   0  0  0  0  0  0  0  0  0  0  0  0
   47.9516   36.3306   41.4243 H   0  0  0  0  0  0  0  0  0  0  0  0
  1  7  1  0
  2 12  1  0
  2  1  1  0
  3  2  2  0
  4  3  1  0
  4  5  2  0
  5  1  1  0
  6 11  2  0
  7  6  1  0
  7  8  2  0
  8  9  1  0
  9 10  2  0
 11 10  1  0
 12 16  1  0
 12 13  1  0
 13 14  2  0
 15 14  1  0
 16 15  2  0
  3 17  1  0
  5 18  1  0
  6 19  1  0
  8 20  1  0
 10 21  1  0
 14 22  1  0
 15 23  1  0
 16 24  1  0
M  ISO  8  17  14  18  14  19  14  20  14  21  14  22  14  23  14  24  14
M  END
>  <minimizedAffinity>  (1) 
-4.61867142

>  <minimizedRMSD>  (1) 
3.12819958

$$$$
