
     RDKit          3D

 38 39  0  0  0  0  0  0  0  0999 V2000
   46.2840   32.3350   37.8900 C   0  0  0  0  0  0  0  0  0  0  0  0
   45.7330   34.3320   40.9140 C   0  0  0  0  0  0  0  0  0  0  0  0
   47.0160   34.6570   41.3210 C   0  0  0  0  0  0  0  0  0  0  0  0
   48.1060   34.1900   40.5570 C   0  0  0  0  0  0  0  0  0  0  0  0
   47.8250   33.4400   39.4560 N   0  0  0  0  0  0  0  0  0  0  0  0
   46.5440   33.1410   39.0880 C   0  0  0  0  0  0  0  0  0  0  0  0
   45.5400   33.5830   39.8090 N   0  0  0  0  0  0  0  0  0  0  0  0
   44.6150   34.8060   41.6980 C   0  0  0  0  0  0  0  0  0  0  0  0
   43.7550   35.5690   41.1560 O   0  0  0  0  0  0  0  0  0  0  0  0
   44.5310   34.3970   43.0410 O   0  0  0  0  0  0  0  0  0  0  0  0
   45.0570   35.2310   44.0340 C   0  0  0  0  0  0  0  0  0  0  0  0
   44.1480   35.4630   45.0650 F   0  0  0  0  0  0  0  0  0  0  0  0
   46.1900   34.6630   44.5740 F   0  0  0  0  0  0  0  0  0  0  0  0
   45.3240   36.4460   43.4300 F   0  0  0  0  0  0  0  0  0  0  0  0
   45.3810   31.1770   38.1300 C   0  0  0  0  0  0  0  0  0  0  0  0
   45.6620   33.2390   36.8530 C   0  0  0  0  0  0  0  0  0  0  0  0
   47.6060   31.8810   37.3270 C   0  0  0  0  0  0  0  0  0  0  0  0
   47.6780   31.7920   35.8740 C   0  0  0  0  0  0  0  0  0  0  0  0
   47.0340   30.9530   34.9910 C   0  0  0  0  0  0  0  0  0  0  0  0
   47.2080   30.9730   33.6240 C   0  0  0  0  0  0  0  0  0  0  0  0
   48.0770   31.8800   33.0590 C   0  0  0  0  0  0  0  0  0  0  0  0
   48.7630   32.7580   33.8700 C   0  0  0  0  0  0  0  0  0  0  0  0
   48.5450   32.6870   35.2300 C   0  0  0  0  0  0  0  0  0  0  0  0
   47.1818   35.2667   42.2214 H   0  0  0  0  0  0  0  0  0  0  0  0
   49.1432   34.4228   40.8399 H   0  0  0  0  0  0  0  0  0  0  0  0
   45.2613   31.0236   39.2127 H   0  0  0  0  0  0  0  0  0  0  0  0
   44.3988   31.3780   37.6774 H   0  0  0  0  0  0  0  0  0  0  0  0
   45.8153   30.2734   37.6774 H   0  0  0  0  0  0  0  0  0  0  0  0
   45.1072   34.0454   37.3549 H   0  0  0  0  0  0  0  0  0  0  0  0
   46.4527   33.6742   36.2243 H   0  0  0  0  0  0  0  0  0  0  0  0
   44.9729   32.6560   36.2243 H   0  0  0  0  0  0  0  0  0  0  0  0
   48.3770   32.5912   37.6605 H   0  0  0  0  0  0  0  0  0  0  0  0
   47.7530   30.8557   37.6975 H   0  0  0  0  0  0  0  0  0  0  0  0
   46.3316   30.2153   35.4063 H   0  0  0  0  0  0  0  0  0  0  0  0
   46.6550   30.2673   32.9866 H   0  0  0  0  0  0  0  0  0  0  0  0
   48.2223   31.9034   31.9689 H   0  0  0  0  0  0  0  0  0  0  0  0
   49.4629   33.4929   33.4457 H   0  0  0  0  0  0  0  0  0  0  0  0
   49.0993   33.3938   35.8649 H   0  0  0  0  0  0  0  0  0  0  0  0
  1 15  1  0
  1  6  1  0
  2  3  2  0
  2  8  1  0
  4  3  1  0
  5  4  2  0
  6  5  1  0
  6  7  2  0
  7  2  1  0
  8 10  1  0
  9  8  2  0
 10 11  1  0
 11 13  1  0
 11 12  1  0
 14 11  1  0
 16  1  1  0
 17  1  1  0
 18 17  1  0
 19 18  2  0
 20 19  1  0
 21 20  2  0
 21 22  1  0
 22 23  2  0
 23 18  1  0
  3 24  1  0
  4 25  1  0
 15 26  1  0
 15 27  1  0
 15 28  1  0
 16 29  1  0
 16 30  1  0
 16 31  1  0
 17 32  1  0
 17 33  1  0
 19 34  1  0
 20 35  1  0
 21 36  1  0
 22 37  1  0
 23 38  1  0
M  ISO  8  24  14  25  14  26   8  27   8  28   8  29   8  30   8  31   8
M  ISO  7  32   8  33   8  34  14  35  14  36  14  37  14  38  14
M  END
>  <minimizedAffinity>  (1) 
-4.60698795

>  <minimizedRMSD>  (1) 
2.65897083

$$$$
