
     RDKit          3D

 25 27  0  0  0  0  0  0  0  0999 V2000
   43.9610   34.2040   41.5070 N   0  0  0  0  0  0  0  0  0  0  0  0
   44.6340   33.8440   40.4080 C   0  0  0  0  0  0  0  0  0  0  0  0
   43.6960   33.9310   39.3400 C   0  0  0  0  0  0  0  0  0  0  0  0
   42.5250   34.3340   39.8210 N   0  0  0  0  0  0  0  0  0  0  0  0
   42.6620   34.5110   41.1650 C   0  0  0  0  0  0  0  0  0  0  0  0
   44.2250   35.5490   43.4610 C   0  0  0  0  0  0  0  0  0  0  0  0
   44.4190   34.2650   42.8210 C   0  0  0  0  0  0  0  0  0  0  0  0
   45.0220   33.2470   43.5510 C   0  0  0  0  0  0  0  0  0  0  0  0
   45.4120   33.4850   44.8340 N   0  0  0  0  0  0  0  0  0  0  0  0
   45.2160   34.7090   45.4120 C   0  0  0  0  0  0  0  0  0  0  0  0
   44.6250   35.7390   44.7300 N   0  0  0  0  0  0  0  0  0  0  0  0
   46.0050   33.4770   40.1510 C   0  0  0  0  0  0  0  0  0  0  0  0
   47.0280   34.2950   40.5240 C   0  0  0  0  0  0  0  0  0  0  0  0
   48.3620   34.0370   40.3250 C   0  0  0  0  0  0  0  0  0  0  0  0
   48.7050   32.9050   39.7230 N   0  0  0  0  0  0  0  0  0  0  0  0
   47.7400   32.0570   39.3310 C   0  0  0  0  0  0  0  0  0  0  0  0
   46.4960   32.4070   39.5730 N   0  0  0  0  0  0  0  0  0  0  0  0
   43.9073   33.7012   38.2852 H   0  0  0  0  0  0  0  0  0  0  0  0
   41.8730   34.8414   41.8566 H   0  0  0  0  0  0  0  0  0  0  0  0
   43.7488   36.3715   42.9071 H   0  0  0  0  0  0  0  0  0  0  0  0
   45.1827   32.2583   43.0965 H   0  0  0  0  0  0  0  0  0  0  0  0
   45.5412   34.8700   46.4504 H   0  0  0  0  0  0  0  0  0  0  0  0
   46.7645   35.2382   41.0250 H   0  0  0  0  0  0  0  0  0  0  0  0
   49.1289   34.7523   40.6570 H   0  0  0  0  0  0  0  0  0  0  0  0
   47.9806   31.1087   38.8282 H   0  0  0  0  0  0  0  0  0  0  0  0
  1  7  1  0
  2  1  1  0
  3  4  1  0
  3  2  2  0
  4  5  2  0
  5  1  1  0
  6 11  2  0
  7  6  1  0
  7  8  2  0
  8  9  1  0
  9 10  2  0
 11 10  1  0
 12  2  1  0
 12 13  2  0
 14 13  1  0
 15 14  2  0
 16 17  2  0
 16 15  1  0
 17 12  1  0
  3 18  1  0
  5 19  1  0
  6 20  1  0
  8 21  1  0
 10 22  1  0
 13 23  1  0
 14 24  1  0
 16 25  1  0
M  ISO  8  18  14  19  14  20  14  21  14  22  14  23  14  24  14  25  14
M  END
>  <minimizedAffinity>  (1) 
-3.99818254

>  <minimizedRMSD>  (1) 
1.07142711

$$$$
