
     RDKit          3D

 24 26  0  0  0  0  0  0  0  0999 V2000
   43.9500   34.0500   41.5610 N   0  0  0  0  0  0  0  0  0  0  0  0
   44.6490   33.8640   40.4400 C   0  0  0  0  0  0  0  0  0  0  0  0
   43.6710   33.7570   39.4130 C   0  0  0  0  0  0  0  0  0  0  0  0
   42.4450   33.8850   39.9370 N   0  0  0  0  0  0  0  0  0  0  0  0
   42.5960   34.0690   41.2740 C   0  0  0  0  0  0  0  0  0  0  0  0
   44.1800   35.4590   43.4790 C   0  0  0  0  0  0  0  0  0  0  0  0
   44.4200   34.1720   42.8670 C   0  0  0  0  0  0  0  0  0  0  0  0
   45.0740   33.1850   43.6260 C   0  0  0  0  0  0  0  0  0  0  0  0
   45.4550   33.4780   44.8980 N   0  0  0  0  0  0  0  0  0  0  0  0
   45.2100   34.7120   45.4430 C   0  0  0  0  0  0  0  0  0  0  0  0
   44.5760   35.6990   44.7400 N   0  0  0  0  0  0  0  0  0  0  0  0
   46.0070   33.7840   40.0950 C   0  0  0  0  0  0  0  0  0  0  0  0
   47.1600   34.3070   40.5020 C   0  0  0  0  0  0  0  0  0  0  0  0
   48.3620   34.1490   39.9940 C   0  0  0  0  0  0  0  0  0  0  0  0
   48.3860   33.3080   38.8710 C   0  0  0  0  0  0  0  0  0  0  0  0
   46.5720   32.8230   38.6760 S   0  0  0  0  0  0  0  0  0  0  0  0
   43.8889   33.5935   38.3473 H   0  0  0  0  0  0  0  0  0  0  0  0
   41.7836   34.2088   42.0023 H   0  0  0  0  0  0  0  0  0  0  0  0
   43.6691   36.2482   42.9078 H   0  0  0  0  0  0  0  0  0  0  0  0
   45.2741   32.1919   43.1975 H   0  0  0  0  0  0  0  0  0  0  0  0
   45.5326   34.9139   46.4751 H   0  0  0  0  0  0  0  0  0  0  0  0
   47.0996   34.9612   41.3843 H   0  0  0  0  0  0  0  0  0  0  0  0
   49.2608   34.6289   40.4085 H   0  0  0  0  0  0  0  0  0  0  0  0
   49.2474   33.0064   38.2571 H   0  0  0  0  0  0  0  0  0  0  0  0
  1  7  1  0
  2  1  1  0
  3  4  1  0
  3  2  2  0
  4  5  2  0
  5  1  1  0
  6 11  2  0
  7  6  1  0
  7  8  2  0
  8  9  1  0
  9 10  2  0
 11 10  1  0
 12  2  1  0
 12 13  2  0
 14 13  1  0
 15 14  2  0
 16 15  1  0
 16 12  1  0
  3 17  1  0
  5 18  1  0
  6 19  1  0
  8 20  1  0
 10 21  1  0
 13 22  1  0
 14 23  1  0
 15 24  1  0
M  ISO  8  17  14  18  14  19  14  20  14  21  14  22  14  23  14  24  14
M  END
>  <minimizedAffinity>  (1) 
-3.96754503

>  <minimizedRMSD>  (1) 
1.32313907

$$$$
