
     RDKit          3D

 20 21  0  0  0  0  0  0  0  0999 V2000
   44.2740   33.9380   41.4830 N   0  0  0  0  0  0  0  0  0  0  0  0
   45.0490   33.7340   40.4470 C   0  0  0  0  0  0  0  0  0  0  0  0
   44.3350   33.5370   39.2840 C   0  0  0  0  0  0  0  0  0  0  0  0
   43.0790   33.6290   39.6430 N   0  0  0  0  0  0  0  0  0  0  0  0
   43.0350   33.8710   40.9700 C   0  0  0  0  0  0  0  0  0  0  0  0
   44.2510   35.4850   43.2960 C   0  0  0  0  0  0  0  0  0  0  0  0
   44.5730   34.1730   42.8180 C   0  0  0  0  0  0  0  0  0  0  0  0
   45.1510   33.2410   43.6980 C   0  0  0  0  0  0  0  0  0  0  0  0
   45.3860   33.6260   44.9760 N   0  0  0  0  0  0  0  0  0  0  0  0
   45.0710   34.8840   45.4040 C   0  0  0  0  0  0  0  0  0  0  0  0
   44.5090   35.8050   44.5720 N   0  0  0  0  0  0  0  0  0  0  0  0
   46.4860   33.7100   40.3900 C   0  0  0  0  0  0  0  0  0  0  0  0
   47.2700   34.6620   40.7320 O   0  0  0  0  0  0  0  0  0  0  0  0
   47.7880   33.4220   40.2370 O   0  0  0  0  0  0  0  0  0  0  0  0
   44.7328   33.3449   38.2766 H   0  0  0  0  0  0  0  0  0  0  0  0
   42.1100   33.9963   41.5520 H   0  0  0  0  0  0  0  0  0  0  0  0
   43.7954   36.2242   42.6208 H   0  0  0  0  0  0  0  0  0  0  0  0
   45.4057   32.2263   43.3581 H   0  0  0  0  0  0  0  0  0  0  0  0
   45.2765   35.1612   46.4485 H   0  0  0  0  0  0  0  0  0  0  0  0
   48.4748   34.0957   40.4706 H   0  0  0  0  0  0  0  0  0  0  0  0
  1  7  1  0
  2  1  1  0
  3  4  1  0
  3  2  2  0
  4  5  2  0
  5  1  1  0
  6 11  2  0
  7  6  1  0
  7  8  2  0
  8  9  1  0
  9 10  2  0
 11 10  1  0
 12  2  1  0
 12 13  2  0
 14 12  1  0
  3 15  1  0
  5 16  1  0
  6 17  1  0
  8 18  1  0
 10 19  1  0
 14 20  1  0
M  ISO  6  15  14  16  14  17  14  18  14  19  14  20   3
M  END
>  <minimizedAffinity>  (1) 
-3.44259357

>  <minimizedRMSD>  (1) 
1.33997071

$$$$
