
     RDKit          3D

 38 39  0  0  0  0  0  0  0  0999 V2000
   46.4260   32.3440   37.8320 C   0  0  0  0  0  0  0  0  0  0  0  0
   45.8730   34.2650   40.9020 C   0  0  0  0  0  0  0  0  0  0  0  0
   47.1470   34.6650   41.2630 C   0  0  0  0  0  0  0  0  0  0  0  0
   48.2410   34.2790   40.4470 C   0  0  0  0  0  0  0  0  0  0  0  0
   47.9550   33.5300   39.3500 N   0  0  0  0  0  0  0  0  0  0  0  0
   46.6830   33.1550   39.0280 C   0  0  0  0  0  0  0  0  0  0  0  0
   45.6820   33.5210   39.7950 N   0  0  0  0  0  0  0  0  0  0  0  0
   44.7580   34.6570   41.7380 C   0  0  0  0  0  0  0  0  0  0  0  0
   43.7630   35.2210   41.2280 O   0  0  0  0  0  0  0  0  0  0  0  0
   44.8450   34.3780   43.1150 O   0  0  0  0  0  0  0  0  0  0  0  0
   44.7450   35.4270   44.0330 C   0  0  0  0  0  0  0  0  0  0  0  0
   43.4430   35.8530   44.2350 F   0  0  0  0  0  0  0  0  0  0  0  0
   45.2680   35.0320   45.2530 F   0  0  0  0  0  0  0  0  0  0  0  0
   45.4650   36.4860   43.4990 F   0  0  0  0  0  0  0  0  0  0  0  0
   45.5870   31.1330   38.0840 C   0  0  0  0  0  0  0  0  0  0  0  0
   45.7150   33.2180   36.8270 C   0  0  0  0  0  0  0  0  0  0  0  0
   47.7360   31.9520   37.2240 C   0  0  0  0  0  0  0  0  0  0  0  0
   47.7650   31.8120   35.7710 C   0  0  0  0  0  0  0  0  0  0  0  0
   48.6150   32.7390   35.1500 C   0  0  0  0  0  0  0  0  0  0  0  0
   48.7940   32.7970   33.7870 C   0  0  0  0  0  0  0  0  0  0  0  0
   48.1440   31.9420   32.9550 C   0  0  0  0  0  0  0  0  0  0  0  0
   47.3050   31.0230   33.5390 C   0  0  0  0  0  0  0  0  0  0  0  0
   47.1210   30.9590   34.9020 C   0  0  0  0  0  0  0  0  0  0  0  0
   47.3087   35.2714   42.1664 H   0  0  0  0  0  0  0  0  0  0  0  0
   49.2728   34.5723   40.6908 H   0  0  0  0  0  0  0  0  0  0  0  0
   45.4808   30.9797   39.1681 H   0  0  0  0  0  0  0  0  0  0  0  0
   44.5931   31.2755   37.6347 H   0  0  0  0  0  0  0  0  0  0  0  0
   46.0697   30.2526   37.6347 H   0  0  0  0  0  0  0  0  0  0  0  0
   45.1067   33.9658   37.3569 H   0  0  0  0  0  0  0  0  0  0  0  0
   46.4569   33.7293   36.1960 H   0  0  0  0  0  0  0  0  0  0  0  0
   45.0634   32.5957   36.1960 H   0  0  0  0  0  0  0  0  0  0  0  0
   48.4752   32.7183   37.5005 H   0  0  0  0  0  0  0  0  0  0  0  0
   47.9498   30.9471   37.6171 H   0  0  0  0  0  0  0  0  0  0  0  0
   49.1639   33.4527   35.7819 H   0  0  0  0  0  0  0  0  0  0  0  0
   49.4757   33.5492   33.3633 H   0  0  0  0  0  0  0  0  0  0  0  0
   48.2827   31.9832   31.8646 H   0  0  0  0  0  0  0  0  0  0  0  0
   46.7623   30.3148   32.8957 H   0  0  0  0  0  0  0  0  0  0  0  0
   46.4366   30.2011   35.3108 H   0  0  0  0  0  0  0  0  0  0  0  0
  1 15  1  0
  1  6  1  0
  2  3  2  0
  2  8  1  0
  4  3  1  0
  5  4  2  0
  6  5  1  0
  6  7  2  0
  7  2  1  0
  8 10  1  0
  9  8  2  0
 10 11  1  0
 11 12  1  0
 11 13  1  0
 14 11  1  0
 16  1  1  0
 17  1  1  0
 18 17  1  0
 19 18  2  0
 20 19  1  0
 21 22  1  0
 21 20  2  0
 22 23  2  0
 23 18  1  0
  3 24  1  0
  4 25  1  0
 15 26  1  0
 15 27  1  0
 15 28  1  0
 16 29  1  0
 16 30  1  0
 16 31  1  0
 17 32  1  0
 17 33  1  0
 19 34  1  0
 20 35  1  0
 21 36  1  0
 22 37  1  0
 23 38  1  0
M  ISO  8  24  14  25  14  26   8  27   8  28   8  29   8  30   8  31   8
M  ISO  7  32   8  33   8  34  14  35  14  36  14  37  14  38  14
M  END
>  <minimizedAffinity>  (1) 
-4.59313393

>  <minimizedRMSD>  (1) 
2.65308857

$$$$
