
     RDKit          3D

 19 20  0  0  0  0  0  0  0  0999 V2000
   44.2610   33.9310   41.4800 N   0  0  0  0  0  0  0  0  0  0  0  0
   45.0230   33.7410   40.4320 C   0  0  0  0  0  0  0  0  0  0  0  0
   44.3090   33.5340   39.2740 C   0  0  0  0  0  0  0  0  0  0  0  0
   43.0490   33.6030   39.6420 N   0  0  0  0  0  0  0  0  0  0  0  0
   43.0190   33.8420   40.9720 C   0  0  0  0  0  0  0  0  0  0  0  0
   44.2500   35.4770   43.2970 C   0  0  0  0  0  0  0  0  0  0  0  0
   44.5660   34.1690   42.8120 C   0  0  0  0  0  0  0  0  0  0  0  0
   45.1460   33.2450   43.6930 C   0  0  0  0  0  0  0  0  0  0  0  0
   45.3810   33.6410   44.9740 N   0  0  0  0  0  0  0  0  0  0  0  0
   45.0650   34.8970   45.4000 C   0  0  0  0  0  0  0  0  0  0  0  0
   44.5000   35.8170   44.5650 N   0  0  0  0  0  0  0  0  0  0  0  0
   46.4660   33.7330   40.3610 C   0  0  0  0  0  0  0  0  0  0  0  0
   47.2780   34.6260   40.7090 O   0  0  0  0  0  0  0  0  0  0  0  0
   44.7049   33.3513   38.2641 H   0  0  0  0  0  0  0  0  0  0  0  0
   42.0974   33.9498   41.5628 H   0  0  0  0  0  0  0  0  0  0  0  0
   43.7952   36.2127   42.6173 H   0  0  0  0  0  0  0  0  0  0  0  0
   45.4037   32.2293   43.3585 H   0  0  0  0  0  0  0  0  0  0  0  0
   45.2708   35.1762   46.4439 H   0  0  0  0  0  0  0  0  0  0  0  0
   46.9154   32.8192   39.9450 H   0  0  0  0  0  0  0  0  0  0  0  0
  1  7  1  0
  2  1  1  0
  3  4  1  0
  3  2  2  0
  4  5  2  0
  5  1  1  0
  6 11  2  0
  7  6  1  0
  7  8  2  0
  8  9  1  0
  9 10  2  0
 11 10  1  0
 12  2  1  0
 12 13  2  0
  3 14  1  0
  5 15  1  0
  6 16  1  0
  8 17  1  0
 10 18  1  0
 12 19  1  0
M  ISO  6  14  14  15  14  16  14  17  14  18  14  19   6
M  END
>  <minimizedAffinity>  (1) 
-3.27505255

>  <minimizedRMSD>  (1) 
1.25933158

$$$$
