
     RDKit          3D

 24 26  0  0  0  0  0  0  0  0999 V2000
   44.1080   33.8820   41.5470 N   0  0  0  0  0  0  0  0  0  0  0  0
   44.8580   33.8230   40.4690 C   0  0  0  0  0  0  0  0  0  0  0  0
   44.0710   33.5720   39.3570 C   0  0  0  0  0  0  0  0  0  0  0  0
   42.8150   33.4830   39.8000 N   0  0  0  0  0  0  0  0  0  0  0  0
   42.8230   33.6700   41.1340 C   0  0  0  0  0  0  0  0  0  0  0  0
   44.1810   35.4190   43.3670 C   0  0  0  0  0  0  0  0  0  0  0  0
   44.4850   34.1100   42.8670 C   0  0  0  0  0  0  0  0  0  0  0  0
   45.1070   33.2220   43.7260 C   0  0  0  0  0  0  0  0  0  0  0  0
   45.3950   33.6410   44.9940 N   0  0  0  0  0  0  0  0  0  0  0  0
   45.0930   34.8900   45.4330 C   0  0  0  0  0  0  0  0  0  0  0  0
   44.4850   35.7790   44.6160 N   0  0  0  0  0  0  0  0  0  0  0  0
   46.2640   33.9740   40.3130 N   0  0  0  0  0  0  0  0  0  0  0  0
   46.8730   33.3850   39.2410 C   0  0  0  0  0  0  0  0  0  0  0  0
   48.2260   33.6470   39.2770 C   0  0  0  0  0  0  0  0  0  0  0  0
   48.4270   34.3930   40.3690 N   0  0  0  0  0  0  0  0  0  0  0  0
   47.2580   34.5830   40.9810 C   0  0  0  0  0  0  0  0  0  0  0  0
   44.4128   33.4670   38.3167 H   0  0  0  0  0  0  0  0  0  0  0  0
   41.9373   33.6545   41.7861 H   0  0  0  0  0  0  0  0  0  0  0  0
   43.6851   36.1443   42.7052 H   0  0  0  0  0  0  0  0  0  0  0  0
   45.3632   32.2043   43.3965 H   0  0  0  0  0  0  0  0  0  0  0  0
   45.3455   35.1812   46.4633 H   0  0  0  0  0  0  0  0  0  0  0  0
   46.3620   32.7926   38.4678 H   0  0  0  0  0  0  0  0  0  0  0  0
   48.9852   33.3112   38.5552 H   0  0  0  0  0  0  0  0  0  0  0  0
   47.1252   35.1604   41.9078 H   0  0  0  0  0  0  0  0  0  0  0  0
  1  7  1  0
  2  1  1  0
  3  4  1  0
  3  2  2  0
  4  5  2  0
  5  1  1  0
  6 11  2  0
  7  6  1  0
  7  8  2  0
  8  9  1  0
  9 10  2  0
 11 10  1  0
 12  2  1  0
 12 16  1  0
 13 14  2  0
 13 12  1  0
 14 15  1  0
 15 16  2  0
  3 17  1  0
  5 18  1  0
  6 19  1  0
  8 20  1  0
 10 21  1  0
 13 22  1  0
 14 23  1  0
 16 24  1  0
M  ISO  8  17  14  18  14  19  14  20  14  21  14  22  14  23  14  24  14
M  END
>  <minimizedAffinity>  (1) 
-3.88711262

>  <minimizedRMSD>  (1) 
2.01301718

$$$$
