
     RDKit          3D

 29 32  0  0  1  0  0  0  0  0999 V2000
   45.8670   33.9990   42.2670 N   0  0  0  0  0  0  0  0  0  0  0  0
   46.8270   34.5530   41.5750 C   0  0  0  0  0  0  0  0  0  0  0  0
   46.7860   34.0890   40.2640 C   0  0  0  0  0  0  0  0  0  0  0  0
   45.7520   33.2230   40.1960 N   0  0  0  0  0  0  0  0  0  0  0  0
   45.1840   33.1680   41.4330 C   0  0  0  0  0  0  0  0  0  0  0  0
   44.7820   35.3720   43.9060 C   0  0  0  0  0  0  0  0  0  0  0  0
   45.5350   34.1770   43.6140 C   0  0  0  0  0  0  0  0  0  0  0  0
   45.8360   33.3670   44.6750 C   0  0  0  0  0  0  0  0  0  0  0  0
   45.4110   33.7340   45.9130 N   0  0  0  0  0  0  0  0  0  0  0  0
   44.7160   34.8460   46.1500 C   0  0  0  0  0  0  0  0  0  0  0  0
   44.3970   35.6720   45.1500 N   0  0  0  0  0  0  0  0  0  0  0  0
   47.8750   35.5350   41.8820 C   0  0  2  0  0  0  0  0  0  0  0  0
   49.0840   35.6300   40.9810 C   0  0  0  0  0  0  0  0  0  0  0  0
   49.2450   35.0750   42.3380 C   0  0  2  0  0  0  0  0  0  0  0  0
   49.5600   33.6360   42.4600 C   0  0  0  0  0  0  0  0  0  0  0  0
   48.9700   32.4960   42.8380 N   0  0  0  0  0  0  0  0  0  0  0  0
   49.7830   31.5160   42.7210 O   0  0  0  0  0  0  0  0  0  0  0  0
   50.9370   31.9220   42.2720 C   0  0  0  0  0  0  0  0  0  0  0  0
   50.8180   33.2400   42.1030 N   0  0  0  0  0  0  0  0  0  0  0  0
   47.4627   34.3719   39.4442 H   0  0  0  0  0  0  0  0  0  0  0  0
   44.3158   32.5529   41.7121 H   0  0  0  0  0  0  0  0  0  0  0  0
   44.5180   36.0536   43.0840 H   0  0  0  0  0  0  0  0  0  0  0  0
   46.4091   32.4395   44.5294 H   0  0  0  0  0  0  0  0  0  0  0  0
   44.4027   35.0855   47.1769 H   0  0  0  0  0  0  0  0  0  0  0  0
   47.1162   36.2314   42.2684 H   0  0  0  0  0  0  0  0  0  0  0  0
   49.1676   34.9688   40.1059 H   0  0  0  0  0  0  0  0  0  0  0  0
   49.5648   36.4432   40.4175 H   0  0  0  0  0  0  0  0  0  0  0  0
   49.8639   35.3022   43.2186 H   0  0  0  0  0  0  0  0  0  0  0  0
   51.8259   31.3052   42.0733 H   0  0  0  0  0  0  0  0  0  0  0  0
  1  7  1  0
  2 12  1  0
  2  1  1  0
  3  2  2  0
  4  3  1  0
  4  5  2  0
  5  1  1  0
  6 11  2  0
  7  6  1  0
  7  8  2  0
  8  9  1  0
  9 10  2  0
 11 10  1  0
 12 14  1  0
 13 12  1  0
 13 14  1  0
 14 15  1  0
 15 16  2  0
 17 16  1  0
 18 17  1  0
 19 18  2  0
 19 15  1  0
  3 20  1  0
  5 21  1  0
  6 22  1  0
  8 23  1  0
 10 24  1  0
 12 25  1  1
 13 26  1  0
 13 27  1  0
 14 28  1  1
 18 29  1  0
M  ISO  8  20  14  21  14  22  14  23  14  24  14  25  13  26  13  27  13
M  ISO  2  28  13  29  14
M  END
>  <minimizedAffinity>  (1) 
-5.00764799

>  <minimizedRMSD>  (1) 
0.751698613

$$$$
