
     RDKit          3D

 30 33  0  0  1  0  0  0  0  0999 V2000
   45.7260   34.0060   42.2750 N   0  0  0  0  0  0  0  0  0  0  0  0
   46.7100   34.5220   41.5810 C   0  0  0  0  0  0  0  0  0  0  0  0
   46.5970   34.0540   40.2540 C   0  0  0  0  0  0  0  0  0  0  0  0
   45.5360   33.2640   40.2080 N   0  0  0  0  0  0  0  0  0  0  0  0
   44.9870   33.2230   41.4470 C   0  0  0  0  0  0  0  0  0  0  0  0
   44.7350   35.4070   43.9390 C   0  0  0  0  0  0  0  0  0  0  0  0
   45.4360   34.1890   43.6230 C   0  0  0  0  0  0  0  0  0  0  0  0
   45.7230   33.3790   44.6880 C   0  0  0  0  0  0  0  0  0  0  0  0
   45.3440   33.7530   45.9350 N   0  0  0  0  0  0  0  0  0  0  0  0
   44.6960   34.8890   46.1870 C   0  0  0  0  0  0  0  0  0  0  0  0
   44.3880   35.7200   45.1920 N   0  0  0  0  0  0  0  0  0  0  0  0
   47.8330   35.4410   41.8830 C   0  0  2  0  0  0  0  0  0  0  0  0
   48.9780   35.5290   40.9160 C   0  0  0  0  0  0  0  0  0  0  0  0
   49.1870   34.8090   42.1990 C   0  0  2  0  0  0  0  0  0  0  0  0
   49.2060   33.3620   42.2500 N   0  0  0  0  0  0  0  0  0  0  0  0
   49.8310   32.6270   41.2820 C   0  0  0  0  0  0  0  0  0  0  0  0
   49.7320   31.3060   41.5170 N   0  0  0  0  0  0  0  0  0  0  0  0
   49.0200   31.2170   42.6710 C   0  0  0  0  0  0  0  0  0  0  0  0
   48.7280   32.4450   43.0750 N   0  0  0  0  0  0  0  0  0  0  0  0
   47.2653   34.2997   39.4155 H   0  0  0  0  0  0  0  0  0  0  0  0
   44.0923   32.6510   41.7338 H   0  0  0  0  0  0  0  0  0  0  0  0
   44.4773   36.1006   43.1251 H   0  0  0  0  0  0  0  0  0  0  0  0
   46.2579   32.4303   44.5334 H   0  0  0  0  0  0  0  0  0  0  0  0
   44.4142   35.1420   47.2198 H   0  0  0  0  0  0  0  0  0  0  0  0
   47.1652   36.1715   42.3631 H   0  0  0  0  0  0  0  0  0  0  0  0
   48.9406   34.9641   39.9729 H   0  0  0  0  0  0  0  0  0  0  0  0
   49.4922   36.3572   40.4064 H   0  0  0  0  0  0  0  0  0  0  0  0
   49.9549   34.8855   42.9829 H   0  0  0  0  0  0  0  0  0  0  0  0
   50.3515   33.0624   40.4163 H   0  0  0  0  0  0  0  0  0  0  0  0
   48.7349   30.2856   43.1821 H   0  0  0  0  0  0  0  0  0  0  0  0
  1  7  1  0
  2 12  1  0
  2  1  1  0
  3  2  2  0
  4  3  1  0
  4  5  2  0
  5  1  1  0
  6 11  2  0
  7  6  1  0
  7  8  2  0
  8  9  1  0
  9 10  2  0
 11 10  1  0
 12 14  1  0
 13 12  1  0
 13 14  1  0
 14 15  1  0
 15 19  1  0
 16 17  2  0
 16 15  1  0
 17 18  1  0
 18 19  2  0
  3 20  1  0
  5 21  1  0
  6 22  1  0
  8 23  1  0
 10 24  1  0
 12 25  1  1
 13 26  1  0
 13 27  1  0
 14 28  1  1
 16 29  1  0
 18 30  1  0
M  ISO  8  20  14  21  14  22  14  23  14  24  14  25  13  26  13  27  13
M  ISO  3  28  13  29  14  30  14
M  END
>  <minimizedAffinity>  (1) 
-4.61516285

>  <minimizedRMSD>  (1) 
0.784280121

$$$$
