
     RDKit          3D

 27 29  0  0  1  0  0  0  0  0999 V2000
   45.8710   34.0290   42.2710 N   0  0  0  0  0  0  0  0  0  0  0  0
   46.8490   34.5690   41.5910 C   0  0  0  0  0  0  0  0  0  0  0  0
   46.8100   34.0950   40.2760 C   0  0  0  0  0  0  0  0  0  0  0  0
   45.7720   33.2540   40.2030 N   0  0  0  0  0  0  0  0  0  0  0  0
   45.1900   33.2060   41.4190 C   0  0  0  0  0  0  0  0  0  0  0  0
   44.7850   35.3870   43.8960 C   0  0  0  0  0  0  0  0  0  0  0  0
   45.5300   34.2100   43.6100 C   0  0  0  0  0  0  0  0  0  0  0  0
   45.8340   33.3800   44.6810 C   0  0  0  0  0  0  0  0  0  0  0  0
   45.4190   33.7210   45.9160 N   0  0  0  0  0  0  0  0  0  0  0  0
   44.7110   34.8500   46.1500 C   0  0  0  0  0  0  0  0  0  0  0  0
   44.3990   35.6720   45.1490 N   0  0  0  0  0  0  0  0  0  0  0  0
   47.9200   35.5490   41.9310 C   0  0  2  0  0  0  0  0  0  0  0  0
   49.0810   35.6950   40.9720 C   0  0  0  0  0  0  0  0  0  0  0  0
   49.3030   35.0140   42.2720 C   0  0  2  0  0  0  0  0  0  0  0  0
   49.3410   33.5610   42.4190 C   0  0  0  0  0  0  0  0  0  0  0  0
   50.2080   33.0170   41.6560 O   0  0  0  0  0  0  0  0  0  0  0  0
   48.8500   32.4360   43.0310 O   0  0  0  0  0  0  0  0  0  0  0  0
   47.4985   34.3616   39.4606 H   0  0  0  0  0  0  0  0  0  0  0  0
   44.3093   32.6018   41.6822 H   0  0  0  0  0  0  0  0  0  0  0  0
   44.5214   36.0737   43.0781 H   0  0  0  0  0  0  0  0  0  0  0  0
   46.4072   32.4546   44.5225 H   0  0  0  0  0  0  0  0  0  0  0  0
   44.3906   35.0910   47.1743 H   0  0  0  0  0  0  0  0  0  0  0  0
   47.2025   36.2324   42.4087 H   0  0  0  0  0  0  0  0  0  0  0  0
   49.0969   35.1122   40.0392 H   0  0  0  0  0  0  0  0  0  0  0  0
   49.5528   36.5434   40.4546 H   0  0  0  0  0  0  0  0  0  0  0  0
   50.0870   35.1538   43.0308 H   0  0  0  0  0  0  0  0  0  0  0  0
   49.2134   31.5458   42.7955 H   0  0  0  0  0  0  0  0  0  0  0  0
  1  7  1  0
  2 12  1  0
  2  1  1  0
  3  2  2  0
  4  3  1  0
  4  5  2  0
  5  1  1  0
  6 11  2  0
  7  6  1  0
  7  8  2  0
  8  9  1  0
  9 10  2  0
 11 10  1  0
 12 14  1  0
 13 12  1  0
 13 14  1  0
 14 15  1  0
 15 17  1  0
 16 15  2  0
  3 18  1  0
  5 19  1  0
  6 20  1  0
  8 21  1  0
 10 22  1  0
 12 23  1  1
 13 24  1  0
 13 25  1  0
 14 26  1  1
 17 27  1  0
M  ISO  8  18  14  19  14  20  14  21  14  22  14  23  13  24  13  25  13
M  ISO  2  26  13  27   3
M  END
>  <minimizedAffinity>  (1) 
-4.6260643

>  <minimizedRMSD>  (1) 
0.489715755

$$$$
