
     RDKit          3D

 37 38  0  0  0  0  0  0  0  0999 V2000
   46.8990   32.5110   38.4840 C   0  0  0  0  0  0  0  0  0  0  0  0
   45.9880   34.5680   41.3710 C   0  0  0  0  0  0  0  0  0  0  0  0
   47.1950   35.1010   41.7950 C   0  0  0  0  0  0  0  0  0  0  0  0
   48.3710   34.7600   41.0910 C   0  0  0  0  0  0  0  0  0  0  0  0
   48.2470   33.9220   40.0300 N   0  0  0  0  0  0  0  0  0  0  0  0
   47.0480   33.4210   39.6440 C   0  0  0  0  0  0  0  0  0  0  0  0
   45.9440   33.7420   40.3080 N   0  0  0  0  0  0  0  0  0  0  0  0
   44.7930   34.9160   42.0970 C   0  0  0  0  0  0  0  0  0  0  0  0
   43.9430   35.6960   41.5630 O   0  0  0  0  0  0  0  0  0  0  0  0
   44.6180   34.3630   43.3900 O   0  0  0  0  0  0  0  0  0  0  0  0
   45.1030   35.0720   44.4920 C   0  0  0  0  0  0  0  0  0  0  0  0
   44.2400   35.0510   45.5740 F   0  0  0  0  0  0  0  0  0  0  0  0
   46.3150   34.5350   44.8890 F   0  0  0  0  0  0  0  0  0  0  0  0
   45.2380   36.3910   44.0920 F   0  0  0  0  0  0  0  0  0  0  0  0
   48.0260   31.5640   38.3210 C   0  0  0  0  0  0  0  0  0  0  0  0
   45.6070   31.7740   38.5990 C   0  0  0  0  0  0  0  0  0  0  0  0
   46.8140   33.4110   37.2550 C   0  0  0  0  0  0  0  0  0  0  0  0
   47.1500   32.7370   36.0010 C   0  0  0  0  0  0  0  0  0  0  0  0
   46.2670   31.9440   35.2930 C   0  0  0  0  0  0  0  0  0  0  0  0
   46.7430   31.3800   34.1260 C   0  0  0  0  0  0  0  0  0  0  0  0
   48.0320   31.5860   33.6800 C   0  0  0  0  0  0  0  0  0  0  0  0
   48.8850   32.3930   34.4300 C   0  0  0  0  0  0  0  0  0  0  0  0
   48.4120   32.9300   35.5510 N   0  0  0  0  0  0  0  0  0  0  0  0
   47.2363   35.7761   42.6625 H   0  0  0  0  0  0  0  0  0  0  0  0
   49.3512   35.1587   41.3913 H   0  0  0  0  0  0  0  0  0  0  0  0
   48.3924   31.2561   39.3114 H   0  0  0  0  0  0  0  0  0  0  0  0
   47.6835   30.6786   37.7652 H   0  0  0  0  0  0  0  0  0  0  0  0
   48.8391   32.0539   37.7652 H   0  0  0  0  0  0  0  0  0  0  0  0
   45.3589   31.6325   39.6613 H   0  0  0  0  0  0  0  0  0  0  0  0
   44.8097   32.3532   38.1103 H   0  0  0  0  0  0  0  0  0  0  0  0
   45.6998   30.7929   38.1103 H   0  0  0  0  0  0  0  0  0  0  0  0
   45.7859   33.7944   37.1772 H   0  0  0  0  0  0  0  0  0  0  0  0
   47.5547   34.2121   37.3947 H   0  0  0  0  0  0  0  0  0  0  0  0
   45.2380   31.7710   35.6412 H   0  0  0  0  0  0  0  0  0  0  0  0
   46.0708   30.7442   33.5311 H   0  0  0  0  0  0  0  0  0  0  0  0
   48.3811   31.1203   32.7466 H   0  0  0  0  0  0  0  0  0  0  0  0
   49.9189   32.5804   34.1046 H   0  0  0  0  0  0  0  0  0  0  0  0
  1 16  1  0
  1  6  1  0
  2  3  2  0
  2  8  1  0
  4  3  1  0
  5  4  2  0
  6  5  1  0
  6  7  2  0
  7  2  1  0
  8 10  1  0
  9  8  2  0
 10 11  1  0
 11 13  1  0
 11 12  1  0
 14 11  1  0
 15  1  1  0
 17  1  1  0
 18 17  1  0
 19 18  2  0
 20 19  1  0
 21 20  2  0
 21 22  1  0
 22 23  2  0
 23 18  1  0
  3 24  1  0
  4 25  1  0
 15 26  1  0
 15 27  1  0
 15 28  1  0
 16 29  1  0
 16 30  1  0
 16 31  1  0
 17 32  1  0
 17 33  1  0
 19 34  1  0
 20 35  1  0
 21 36  1  0
 22 37  1  0
M  ISO  8  24  14  25  14  26   8  27   8  28   8  29   8  30   8  31   8
M  ISO  6  32   8  33   8  34  14  35  14  36  14  37  14
M  END
>  <minimizedAffinity>  (1) 
-4.54692364

>  <minimizedRMSD>  (1) 
2.62486506

$$$$
