
     RDKit          3D

 31 34  0  0  1  0  0  0  0  0999 V2000
   44.8110   33.6120   41.6130 N   0  0  0  0  0  0  0  0  0  0  0  0
   45.6850   33.7700   40.6590 C   0  0  0  0  0  0  0  0  0  0  0  0
   45.2050   33.1320   39.4970 C   0  0  0  0  0  0  0  0  0  0  0  0
   44.0260   32.5990   39.8090 N   0  0  0  0  0  0  0  0  0  0  0  0
   43.7660   32.8830   41.1050 C   0  0  0  0  0  0  0  0  0  0  0  0
   44.3120   35.3560   43.1510 C   0  0  0  0  0  0  0  0  0  0  0  0
   44.8610   34.0640   42.9260 C   0  0  0  0  0  0  0  0  0  0  0  0
   45.3750   33.4070   44.0360 C   0  0  0  0  0  0  0  0  0  0  0  0
   45.3280   34.0160   45.2420 N   0  0  0  0  0  0  0  0  0  0  0  0
   44.8020   35.2380   45.4130 C   0  0  0  0  0  0  0  0  0  0  0  0
   44.2970   35.9040   44.3760 N   0  0  0  0  0  0  0  0  0  0  0  0
   46.9890   34.4570   40.5540 C   0  0  2  0  0  0  0  0  0  0  0  0
   47.9870   33.9910   39.5380 C   0  0  0  0  0  0  0  0  0  0  0  0
   48.2440   33.7070   40.9870 C   0  0  1  0  0  0  0  0  0  0  0  0
   49.3500   34.5550   41.5770 C   0  0  0  0  0  0  0  0  0  0  0  0
   49.5480   34.7160   43.0170 C   0  0  0  0  0  0  0  0  0  0  0  0
   50.3930   33.6870   42.3020 C   0  0  0  0  0  0  0  0  0  0  0  0
   45.7083   33.0839   38.5201 H   0  0  0  0  0  0  0  0  0  0  0  0
   42.8659   32.5798   41.6599 H   0  0  0  0  0  0  0  0  0  0  0  0
   43.8911   35.9177   42.3041 H   0  0  0  0  0  0  0  0  0  0  0  0
   45.8148   32.4038   43.9353 H   0  0  0  0  0  0  0  0  0  0  0  0
   44.7876   35.6924   46.4147 H   0  0  0  0  0  0  0  0  0  0  0  0
   46.5263   35.4241   40.8004 H   0  0  0  0  0  0  0  0  0  0  0  0
   47.7294   33.1668   38.8566 H   0  0  0  0  0  0  0  0  0  0  0  0
   48.5572   34.4822   38.7357 H   0  0  0  0  0  0  0  0  0  0  0  0
   48.4331   32.8165   41.6044 H   0  0  0  0  0  0  0  0  0  0  0  0
   49.2884   35.3121   40.7814 H   0  0  0  0  0  0  0  0  0  0  0  0
   50.0181   35.6330   43.4019 H   0  0  0  0  0  0  0  0  0  0  0  0
   48.8782   34.6824   43.8889 H   0  0  0  0  0  0  0  0  0  0  0  0
   50.2133   32.6129   42.4573 H   0  0  0  0  0  0  0  0  0  0  0  0
   51.4679   33.4808   42.1922 H   0  0  0  0  0  0  0  0  0  0  0  0
  1  7  1  0
  2  1  1  0
  3  4  1  0
  3  2  2  0
  4  5  2  0
  5  1  1  0
  6 11  2  0
  7  6  1  0
  7  8  2  0
  8  9  1  0
  9 10  2  0
 11 10  1  0
 12  2  1  0
 12 14  1  0
 13 12  1  0
 13 14  1  0
 14 15  1  0
 15 17  1  0
 15 16  1  0
 17 16  1  0
  3 18  1  0
  5 19  1  0
  6 20  1  0
  8 21  1  0
 10 22  1  0
 12 23  1  1
 13 24  1  0
 13 25  1  0
 14 26  1  6
 15 27  1  0
 16 28  1  0
 16 29  1  0
 17 30  1  0
 17 31  1  0
M  ISO  8  18  14  19  14  20  14  21  14  22  14  23  13  24  13  25  13
M  ISO  6  26  13  27  13  28  13  29  13  30  13  31  13
M  END
>  <minimizedAffinity>  (1) 
-4.38260412

>  <minimizedRMSD>  (1) 
2.02709031

$$$$
