
     RDKit          3D

 33 35  0  0  1  0  0  0  0  0999 V2000
   45.6230   34.6290   42.0950 N   0  0  0  0  0  0  0  0  0  0  0  0
   44.4720   35.2230   42.2440 C   0  0  0  0  0  0  0  0  0  0  0  0
   44.2690   35.4680   43.6170 C   0  0  0  0  0  0  0  0  0  0  0  0
   45.3370   34.9960   44.2550 N   0  0  0  0  0  0  0  0  0  0  0  0
   46.1800   34.4770   43.3320 C   0  0  0  0  0  0  0  0  0  0  0  0
   47.5770   34.6870   40.7240 C   0  0  0  0  0  0  0  0  0  0  0  0
   46.2330   34.2020   40.9190 C   0  0  0  0  0  0  0  0  0  0  0  0
   45.7340   33.3920   39.9340 C   0  0  0  0  0  0  0  0  0  0  0  0
   46.5030   33.0950   38.8580 N   0  0  0  0  0  0  0  0  0  0  0  0
   47.7470   33.5560   38.6980 C   0  0  0  0  0  0  0  0  0  0  0  0
   48.2830   34.3550   39.6350 N   0  0  0  0  0  0  0  0  0  0  0  0
   43.4100   35.6780   41.3330 C   0  0  2  0  0  0  0  0  0  0  0  0
   41.9710   35.5760   41.7450 C   0  0  0  0  0  0  0  0  0  0  0  0
   42.5060   34.6700   40.6830 C   0  0  1  0  0  0  0  0  0  0  0  0
   41.9120   34.7850   39.3470 C   0  0  0  0  0  0  0  0  0  0  0  0
   40.4560   35.2640   39.4170 C   0  0  0  0  0  0  0  0  0  0  0  0
   41.8980   33.5510   38.5030 C   0  0  0  0  0  0  0  0  0  0  0  0
   43.3952   35.9559   44.0736 H   0  0  0  0  0  0  0  0  0  0  0  0
   47.1531   34.0099   43.5437 H   0  0  0  0  0  0  0  0  0  0  0  0
   48.0306   35.3413   41.4831 H   0  0  0  0  0  0  0  0  0  0  0  0
   44.7154   32.9849   40.0155 H   0  0  0  0  0  0  0  0  0  0  0  0
   48.3281   33.2829   37.8048 H   0  0  0  0  0  0  0  0  0  0  0  0
   44.0602   36.4902   40.9758 H   0  0  0  0  0  0  0  0  0  0  0  0
   41.7099   35.1699   42.7334 H   0  0  0  0  0  0  0  0  0  0  0  0
   41.1304   36.2823   41.8123 H   0  0  0  0  0  0  0  0  0  0  0  0
   42.6339   33.5931   40.4985 H   0  0  0  0  0  0  0  0  0  0  0  0
   42.5883   35.5082   38.8678 H   0  0  0  0  0  0  0  0  0  0  0  0
   40.1530   35.3637   40.4697 H   0  0  0  0  0  0  0  0  0  0  0  0
   40.3663   36.2390   38.9157 H   0  0  0  0  0  0  0  0  0  0  0  0
   39.8049   34.5327   38.9157 H   0  0  0  0  0  0  0  0  0  0  0  0
   41.8879   32.6630   39.1521 H   0  0  0  0  0  0  0  0  0  0  0  0
   40.9998   33.5513   37.8680 H   0  0  0  0  0  0  0  0  0  0  0  0
   42.7960   33.5309   37.8680 H   0  0  0  0  0  0  0  0  0  0  0  0
  1  2  1  0
  1  5  1  0
  2  3  2  0
  3  4  1  0
  5  4  2  0
  6  7  2  0
  7  1  1  0
  8  7  1  0
  9  8  2  0
 10  9  1  0
 10 11  2  0
 11  6  1  0
 12 13  1  0
 12  2  1  0
 14 12  1  0
 14 13  1  0
 15 16  1  0
 15 14  1  0
 17 15  1  0
  3 18  1  0
  5 19  1  0
  6 20  1  0
  8 21  1  0
 10 22  1  0
 12 23  1  6
 13 24  1  0
 13 25  1  0
 14 26  1  1
 15 27  1  0
 16 28  1  0
 16 29  1  0
 16 30  1  0
 17 31  1  0
 17 32  1  0
 17 33  1  0
M  ISO  8  18  14  19  14  20  14  21  14  22  14  23  13  24  13  25  13
M  ISO  8  26  13  27   8  28   8  29   8  30   8  31   8  32   8  33   8
M  END
>  <minimizedAffinity>  (1) 
-4.44005537

>  <minimizedRMSD>  (1) 
6.62524796

$$$$
