
     RDKit          3D

 30 31  0  0  0  0  0  0  0  0999 V2000
   47.8660   34.5820   42.3650 C   0  0  0  0  0  0  0  0  0  0  0  0
   47.3430   33.8690   41.2940 C   0  0  0  0  0  0  0  0  0  0  0  0
   46.1610   33.1700   41.4750 C   0  0  0  0  0  0  0  0  0  0  0  0
   45.5660   33.2150   42.6930 N   0  0  0  0  0  0  0  0  0  0  0  0
   46.1150   33.9270   43.7110 C   0  0  0  0  0  0  0  0  0  0  0  0
   47.2530   34.6020   43.5440 N   0  0  0  0  0  0  0  0  0  0  0  0
   49.1280   35.3240   42.1620 C   0  0  0  0  0  0  0  0  0  0  0  0
   49.2140   36.1120   41.1880 O   0  0  0  0  0  0  0  0  0  0  0  0
   50.1750   35.1340   43.0450 O   0  0  0  0  0  0  0  0  0  0  0  0
   45.3890   34.0320   45.3470 S   0  0  0  0  0  0  0  0  0  0  0  0
   46.2580   32.9800   46.5210 C   0  0  0  0  0  0  0  0  0  0  0  0
   46.6140   31.6280   45.9530 C   0  0  0  0  0  0  0  0  0  0  0  0
   47.4030   30.8540   46.9370 C   0  0  0  0  0  0  0  0  0  0  0  0
   47.0390   30.9730   48.3640 C   0  0  0  0  0  0  0  0  0  0  0  0
   46.1900   32.1150   48.7760 C   0  0  0  0  0  0  0  0  0  0  0  0
   45.3320   32.6880   47.6810 C   0  0  0  0  0  0  0  0  0  0  0  0
   47.8571   33.8596   40.3216 H   0  0  0  0  0  0  0  0  0  0  0  0
   45.7159   32.5927   40.6513 H   0  0  0  0  0  0  0  0  0  0  0  0
   51.0248   35.6259   42.9184 H   0  0  0  0  0  0  0  0  0  0  0  0
   47.1754   33.5188   46.8006 H   0  0  0  0  0  0  0  0  0  0  0  0
   45.6910   31.0792   45.7145 H   0  0  0  0  0  0  0  0  0  0  0  0
   47.2132   31.7674   45.0411 H   0  0  0  0  0  0  0  0  0  0  0  0
   47.3152   29.7920   46.6643 H   0  0  0  0  0  0  0  0  0  0  0  0
   48.4151   31.2802   46.8746 H   0  0  0  0  0  0  0  0  0  0  0  0
   46.5053   30.0524   48.6425 H   0  0  0  0  0  0  0  0  0  0  0  0
   47.9968   31.1460   48.8766 H   0  0  0  0  0  0  0  0  0  0  0  0
   45.5290   31.7754   49.5870 H   0  0  0  0  0  0  0  0  0  0  0  0
   46.8767   32.9171   49.0844 H   0  0  0  0  0  0  0  0  0  0  0  0
   44.8470   33.6142   48.0230 H   0  0  0  0  0  0  0  0  0  0  0  0
   44.5366   31.9864   47.3893 H   0  0  0  0  0  0  0  0  0  0  0  0
  1  6  2  0
  2  3  2  0
  2  1  1  0
  3  4  1  0
  4  5  2  0
  5 10  1  0
  6  5  1  0
  7  1  1  0
  7  9  1  0
  8  7  2  0
 10 11  1  0
 11 16  1  0
 12 11  1  0
 12 13  1  0
 13 14  1  0
 14 15  1  0
 16 15  1  0
  2 17  1  0
  3 18  1  0
  9 19  1  0
 11 20  1  0
 12 21  1  0
 12 22  1  0
 13 23  1  0
 13 24  1  0
 14 25  1  0
 14 26  1  0
 15 27  1  0
 15 28  1  0
 16 29  1  0
 16 30  1  0
M  ISO  8  17  14  18  14  19   3  20  13  21  13  22  13  23  13  24  13
M  ISO  6  25  13  26  13  27  13  28  13  29  13  30  13
M  END
>  <minimizedAffinity>  (1) 
-4.88697529

>  <minimizedRMSD>  (1) 
2.00070429

$$$$
