
     RDKit          3D

 21 22  0  0  0  0  0  0  0  0999 V2000
   47.8560   34.5370   42.8590 C   0  0  0  0  0  0  0  0  0  0  0  0
   46.6200   35.1120   42.5420 C   0  0  0  0  0  0  0  0  0  0  0  0
   45.4770   34.4770   43.0470 C   0  0  0  0  0  0  0  0  0  0  0  0
   45.6270   33.3590   43.8020 N   0  0  0  0  0  0  0  0  0  0  0  0
   46.8620   32.8450   44.0770 C   0  0  0  0  0  0  0  0  0  0  0  0
   47.9630   33.4340   43.6060 N   0  0  0  0  0  0  0  0  0  0  0  0
   49.0730   35.1950   42.3330 C   0  0  0  0  0  0  0  0  0  0  0  0
   49.0130   35.7770   41.2170 O   0  0  0  0  0  0  0  0  0  0  0  0
   50.2370   35.1520   43.0810 O   0  0  0  0  0  0  0  0  0  0  0  0
   47.0890   31.3850   45.0600 S   0  0  0  0  0  0  0  0  0  0  0  0
   46.2200   31.5520   46.6310 C   0  0  0  0  0  0  0  0  0  0  0  0
   46.8780   32.3450   47.5680 C   0  0  0  0  0  0  0  0  0  0  0  0
   46.0880   32.3590   48.6770 N   0  0  0  0  0  0  0  0  0  0  0  0
   44.9870   31.6000   48.4260 C   0  0  0  0  0  0  0  0  0  0  0  0
   45.0670   31.1070   47.1740 N   0  0  0  0  0  0  0  0  0  0  0  0
   46.5489   36.0200   41.9252 H   0  0  0  0  0  0  0  0  0  0  0  0
   44.4749   34.8781   42.8350 H   0  0  0  0  0  0  0  0  0  0  0  0
   51.0592   35.5874   42.7426 H   0  0  0  0  0  0  0  0  0  0  0  0
   47.8427   32.8574   47.4382 H   0  0  0  0  0  0  0  0  0  0  0  0
   44.1633   31.4178   49.1319 H   0  0  0  0  0  0  0  0  0  0  0  0
   44.3733   30.5000   46.7144 H   0  0  0  0  0  0  0  0  0  0  0  0
  1  6  2  0
  2  1  1  0
  2  3  2  0
  3  4  1  0
  4  5  2  0
  5 10  1  0
  6  5  1  0
  7  1  1  0
  7  9  1  0
  8  7  2  0
 10 11  1  0
 11 15  1  0
 11 12  2  0
 12 13  1  0
 14 13  2  0
 15 14  1  0
  2 16  1  0
  3 17  1  0
  9 18  1  0
 12 19  1  0
 14 20  1  0
 15 21  1  0
M  ISO  6  16  14  17  14  18   3  19  14  20  14  21   9
M  END
>  <minimizedAffinity>  (1) 
-4.93097687

>  <minimizedRMSD>  (1) 
2.37423635

$$$$
