
     RDKit          3D

 21 22  0  0  0  0  0  0  0  0999 V2000
   47.8600   34.5290   42.8480 C   0  0  0  0  0  0  0  0  0  0  0  0
   46.6330   35.0960   42.5470 C   0  0  0  0  0  0  0  0  0  0  0  0
   45.4840   34.4550   43.0160 C   0  0  0  0  0  0  0  0  0  0  0  0
   45.6400   33.3050   43.7450 N   0  0  0  0  0  0  0  0  0  0  0  0
   46.8610   32.7920   44.0100 C   0  0  0  0  0  0  0  0  0  0  0  0
   47.9540   33.4010   43.5650 N   0  0  0  0  0  0  0  0  0  0  0  0
   49.0840   35.1860   42.3660 C   0  0  0  0  0  0  0  0  0  0  0  0
   49.0410   35.7950   41.2560 O   0  0  0  0  0  0  0  0  0  0  0  0
   50.2330   35.1320   43.1070 O   0  0  0  0  0  0  0  0  0  0  0  0
   47.0870   31.3070   44.9520 S   0  0  0  0  0  0  0  0  0  0  0  0
   46.1470   31.5190   46.4750 C   0  0  0  0  0  0  0  0  0  0  0  0
   45.7600   32.5470   47.3170 C   0  0  0  0  0  0  0  0  0  0  0  0
   45.0210   31.9670   48.3450 C   0  0  0  0  0  0  0  0  0  0  0  0
   45.0060   30.6060   48.0560 C   0  0  0  0  0  0  0  0  0  0  0  0
   45.6780   30.3880   46.9530 O   0  0  0  0  0  0  0  0  0  0  0  0
   46.5653   36.0220   41.9571 H   0  0  0  0  0  0  0  0  0  0  0  0
   44.4835   34.8612   42.8064 H   0  0  0  0  0  0  0  0  0  0  0  0
   51.0549   35.5757   42.7789 H   0  0  0  0  0  0  0  0  0  0  0  0
   45.9914   33.6157   47.1973 H   0  0  0  0  0  0  0  0  0  0  0  0
   44.5510   32.4748   49.2001 H   0  0  0  0  0  0  0  0  0  0  0  0
   44.5074   29.8334   48.6598 H   0  0  0  0  0  0  0  0  0  0  0  0
  1  6  2  0
  2  1  1  0
  2  3  2  0
  3  4  1  0
  4  5  2  0
  5 10  1  0
  6  5  1  0
  7  1  1  0
  7  9  1  0
  8  7  2  0
 10 11  1  0
 11 15  1  0
 11 12  2  0
 12 13  1  0
 14 13  2  0
 15 14  1  0
  2 16  1  0
  3 17  1  0
  9 18  1  0
 12 19  1  0
 13 20  1  0
 14 21  1  0
M  ISO  6  16  14  17  14  18   3  19  14  20  14  21  14
M  END
>  <minimizedAffinity>  (1) 
-4.75627804

>  <minimizedRMSD>  (1) 
2.44380426

$$$$
