
     RDKit          3D

 21 22  0  0  0  0  0  0  0  0999 V2000
   47.7850   34.8040   42.2880 C   0  0  0  0  0  0  0  0  0  0  0  0
   47.0560   34.4370   41.1470 C   0  0  0  0  0  0  0  0  0  0  0  0
   45.7990   33.8620   41.3330 C   0  0  0  0  0  0  0  0  0  0  0  0
   45.3490   33.6880   42.6100 N   0  0  0  0  0  0  0  0  0  0  0  0
   46.0920   34.0610   43.6730 C   0  0  0  0  0  0  0  0  0  0  0  0
   47.3020   34.6150   43.5180 N   0  0  0  0  0  0  0  0  0  0  0  0
   49.1040   35.4100   42.1010 C   0  0  0  0  0  0  0  0  0  0  0  0
   49.2790   36.1770   41.0990 O   0  0  0  0  0  0  0  0  0  0  0  0
   50.1150   35.1440   42.9970 O   0  0  0  0  0  0  0  0  0  0  0  0
   45.5410   33.8570   45.3460 S   0  0  0  0  0  0  0  0  0  0  0  0
   46.4430   32.6290   46.2000 C   0  0  0  0  0  0  0  0  0  0  0  0
   46.9520   32.5360   47.4530 C   0  0  0  0  0  0  0  0  0  0  0  0
   47.6240   31.4060   47.8190 C   0  0  0  0  0  0  0  0  0  0  0  0
   47.7680   30.3850   46.9000 C   0  0  0  0  0  0  0  0  0  0  0  0
   46.9020   31.0270   45.3930 S   0  0  0  0  0  0  0  0  0  0  0  0
   47.4628   34.5976   40.1377 H   0  0  0  0  0  0  0  0  0  0  0  0
   45.1857   33.5564   40.4724 H   0  0  0  0  0  0  0  0  0  0  0  0
   51.0077   35.5532   42.8718 H   0  0  0  0  0  0  0  0  0  0  0  0
   46.8247   33.3628   48.1673 H   0  0  0  0  0  0  0  0  0  0  0  0
   48.0447   31.3097   48.8308 H   0  0  0  0  0  0  0  0  0  0  0  0
   48.2768   29.4187   47.0317 H   0  0  0  0  0  0  0  0  0  0  0  0
  1  6  2  0
  2  3  2  0
  2  1  1  0
  3  4  1  0
  4  5  2  0
  5 10  1  0
  6  5  1  0
  7  1  1  0
  7  9  1  0
  8  7  2  0
 10 11  1  0
 11 12  2  0
 12 13  1  0
 14 13  2  0
 15 11  1  0
 15 14  1  0
  2 16  1  0
  3 17  1  0
  9 18  1  0
 12 19  1  0
 13 20  1  0
 14 21  1  0
M  ISO  6  16  14  17  14  18   3  19  14  20  14  21  14
M  END
>  <minimizedAffinity>  (1) 
-4.48288584

>  <minimizedRMSD>  (1) 
1.36692226

$$$$
