
     RDKit          3D

 19 20  0  0  0  0  0  0  0  0999 V2000
   47.9380   34.5670   42.7160 C   0  0  0  0  0  0  0  0  0  0  0  0
   46.7150   35.0570   42.2320 C   0  0  0  0  0  0  0  0  0  0  0  0
   45.5460   34.3770   42.5940 C   0  0  0  0  0  0  0  0  0  0  0  0
   45.6670   33.2810   43.3950 N   0  0  0  0  0  0  0  0  0  0  0  0
   46.8740   32.8550   43.8320 C   0  0  0  0  0  0  0  0  0  0  0  0
   47.9990   33.4940   43.4940 N   0  0  0  0  0  0  0  0  0  0  0  0
   49.1610   35.2890   42.3290 C   0  0  0  0  0  0  0  0  0  0  0  0
   49.1470   36.0110   41.2990 O   0  0  0  0  0  0  0  0  0  0  0  0
   50.2880   35.1460   43.1160 O   0  0  0  0  0  0  0  0  0  0  0  0
   47.0570   31.4390   44.8820 S   0  0  0  0  0  0  0  0  0  0  0  0
   46.1180   31.7810   46.3790 C   0  0  0  0  0  0  0  0  0  0  0  0
   45.7340   33.0200   46.7850 N   0  0  0  0  0  0  0  0  0  0  0  0
   45.0840   32.8740   47.8930 O   0  0  0  0  0  0  0  0  0  0  0  0
   45.0140   31.6130   48.2440 C   0  0  0  0  0  0  0  0  0  0  0  0
   45.6560   30.9380   47.3030 N   0  0  0  0  0  0  0  0  0  0  0  0
   46.6762   35.9480   41.5880 H   0  0  0  0  0  0  0  0  0  0  0  0
   44.5605   34.7167   42.2428 H   0  0  0  0  0  0  0  0  0  0  0  0
   51.1227   35.6214   42.8764 H   0  0  0  0  0  0  0  0  0  0  0  0
   44.5226   31.2001   49.1373 H   0  0  0  0  0  0  0  0  0  0  0  0
  1  6  2  0
  2  3  2  0
  2  1  1  0
  3  4  1  0
  4  5  2  0
  5 10  1  0
  6  5  1  0
  7  1  1  0
  7  9  1  0
  8  7  2  0
 10 11  1  0
 11 12  2  0
 11 15  1  0
 12 13  1  0
 13 14  1  0
 15 14  2  0
  2 16  1  0
  3 17  1  0
  9 18  1  0
 14 19  1  0
M  ISO  4  16  14  17  14  18   3  19  14
M  END
>  <minimizedAffinity>  (1) 
-4.73582125

>  <minimizedRMSD>  (1) 
2.20884943

$$$$
