
     RDKit          3D

 40 41  0  0  0  0  0  0  0  0999 V2000
   45.8220   32.3900   37.9940 C   0  0  0  0  0  0  0  0  0  0  0  0
   45.5790   34.3880   41.0620 C   0  0  0  0  0  0  0  0  0  0  0  0
   46.8940   34.6900   41.3520 C   0  0  0  0  0  0  0  0  0  0  0  0
   47.9080   34.2090   40.4920 C   0  0  0  0  0  0  0  0  0  0  0  0
   47.5140   33.4690   39.4180 N   0  0  0  0  0  0  0  0  0  0  0  0
   46.1960   33.1950   39.1690 C   0  0  0  0  0  0  0  0  0  0  0  0
   45.2580   33.6520   39.9840 N   0  0  0  0  0  0  0  0  0  0  0  0
   44.5380   34.8810   41.9490 C   0  0  0  0  0  0  0  0  0  0  0  0
   43.7210   35.7400   41.5340 O   0  0  0  0  0  0  0  0  0  0  0  0
   44.4910   34.3660   43.2510 O   0  0  0  0  0  0  0  0  0  0  0  0
   45.0950   35.0740   44.2910 C   0  0  0  0  0  0  0  0  0  0  0  0
   44.2900   35.2240   45.4060 F   0  0  0  0  0  0  0  0  0  0  0  0
   46.2660   34.4470   44.6810 F   0  0  0  0  0  0  0  0  0  0  0  0
   45.3670   36.3490   43.7870 F   0  0  0  0  0  0  0  0  0  0  0  0
   46.1350   30.9460   38.1210 C   0  0  0  0  0  0  0  0  0  0  0  0
   44.3170   32.5320   37.8300 C   0  0  0  0  0  0  0  0  0  0  0  0
   46.4370   33.0180   36.7790 C   0  0  0  0  0  0  0  0  0  0  0  0
   47.1750   32.1840   35.9030 N   0  0  0  0  0  0  0  0  0  0  0  0
   48.4740   32.8460   35.6750 C   0  0  0  0  0  0  0  0  0  0  0  0
   48.9650   32.2090   34.3900 C   0  0  0  0  0  0  0  0  0  0  0  0
   47.7040   32.2480   33.5680 C   0  0  0  0  0  0  0  0  0  0  0  0
   46.6210   32.0170   34.5840 C   0  0  0  0  0  0  0  0  0  0  0  0
   47.1485   35.2936   42.2357 H   0  0  0  0  0  0  0  0  0  0  0  0
   48.9701   34.4232   40.6820 H   0  0  0  0  0  0  0  0  0  0  0  0
   46.1936   30.6758   39.1857 H   0  0  0  0  0  0  0  0  0  0  0  0
   45.3440   30.3553   37.6358 H   0  0  0  0  0  0  0  0  0  0  0  0
   47.0996   30.7358   37.6358 H   0  0  0  0  0  0  0  0  0  0  0  0
   43.8427   32.5767   38.8215 H   0  0  0  0  0  0  0  0  0  0  0  0
   44.0941   33.4552   37.2749 H   0  0  0  0  0  0  0  0  0  0  0  0
   43.9254   31.6668   37.2749 H   0  0  0  0  0  0  0  0  0  0  0  0
   45.6210   33.4671   36.1938 H   0  0  0  0  0  0  0  0  0  0  0  0
   47.1800   33.7234   37.1794 H   0  0  0  0  0  0  0  0  0  0  0  0
   48.3477   33.9320   35.5540 H   0  0  0  0  0  0  0  0  0  0  0  0
   49.1749   32.7223   36.5137 H   0  0  0  0  0  0  0  0  0  0  0  0
   49.7707   32.7974   33.9266 H   0  0  0  0  0  0  0  0  0  0  0  0
   49.4030   31.2073   34.5120 H   0  0  0  0  0  0  0  0  0  0  0  0
   47.5829   33.2256   33.0785 H   0  0  0  0  0  0  0  0  0  0  0  0
   47.6970   31.5065   32.7555 H   0  0  0  0  0  0  0  0  0  0  0  0
   45.8092   32.7431   34.4299 H   0  0  0  0  0  0  0  0  0  0  0  0
   46.2188   30.9990   34.4750 H   0  0  0  0  0  0  0  0  0  0  0  0
  1 15  1  0
  1  6  1  0
  2  3  2  0
  2  8  1  0
  4  3  1  0
  5  4  2  0
  6  5  1  0
  6  7  2  0
  7  2  1  0
  8 10  1  0
  9  8  2  0
 10 11  1  0
 11 13  1  0
 11 12  1  0
 14 11  1  0
 16  1  1  0
 17  1  1  0
 18 17  1  0
 19 18  1  0
 20 19  1  0
 21 20  1  0
 21 22  1  0
 22 18  1  0
  3 23  1  0
  4 24  1  0
 15 25  1  0
 15 26  1  0
 15 27  1  0
 16 28  1  0
 16 29  1  0
 16 30  1  0
 17 31  1  0
 17 32  1  0
 19 33  1  0
 19 34  1  0
 20 35  1  0
 20 36  1  0
 21 37  1  0
 21 38  1  0
 22 39  1  0
 22 40  1  0
M  ISO  8  23  14  24  14  25   8  26   8  27   8  28   8  29   8  30   8
M  ISO  8  31   8  32   8  33  13  34  13  35  13  36  13  37  13  38  13
M  ISO  2  39  13  40  13
M  END
>  <minimizedAffinity>  (1) 
-4.44389677

>  <minimizedRMSD>  (1) 
1.48750615

$$$$
