
     RDKit          3D

 20 21  0  0  0  0  0  0  0  0999 V2000
   47.8240   34.7630   42.3010 C   0  0  0  0  0  0  0  0  0  0  0  0
   47.1520   34.3060   41.1660 C   0  0  0  0  0  0  0  0  0  0  0  0
   45.9150   33.6900   41.3540 C   0  0  0  0  0  0  0  0  0  0  0  0
   45.4320   33.5680   42.6210 N   0  0  0  0  0  0  0  0  0  0  0  0
   46.1160   34.0240   43.6870 C   0  0  0  0  0  0  0  0  0  0  0  0
   47.2970   34.6120   43.5140 N   0  0  0  0  0  0  0  0  0  0  0  0
   49.1220   35.4110   42.1230 C   0  0  0  0  0  0  0  0  0  0  0  0
   49.2840   36.2000   41.1530 O   0  0  0  0  0  0  0  0  0  0  0  0
   50.1390   35.1410   43.0210 O   0  0  0  0  0  0  0  0  0  0  0  0
   45.5170   33.8830   45.3530 S   0  0  0  0  0  0  0  0  0  0  0  0
   46.4480   32.5310   46.1220 C   0  0  0  0  0  0  0  0  0  0  0  0
   46.6670   31.3020   45.5070 C   0  0  0  0  0  0  0  0  0  0  0  0
   47.6500   30.4200   46.7980 S   0  0  0  0  0  0  0  0  0  0  0  0
   47.5730   31.9340   47.9560 C   0  0  0  0  0  0  0  0  0  0  0  0
   46.9440   32.7410   47.3430 N   0  0  0  0  0  0  0  0  0  0  0  0
   47.5821   34.4272   40.1609 H   0  0  0  0  0  0  0  0  0  0  0  0
   45.3411   33.3103   40.4958 H   0  0  0  0  0  0  0  0  0  0  0  0
   51.0231   35.5730   42.9122 H   0  0  0  0  0  0  0  0  0  0  0  0
   46.3417   30.9501   44.5169 H   0  0  0  0  0  0  0  0  0  0  0  0
   48.0093   32.0389   48.9603 H   0  0  0  0  0  0  0  0  0  0  0  0
  1  6  2  0
  2  3  2  0
  2  1  1  0
  3  4  1  0
  4  5  2  0
  5 10  1  0
  6  5  1  0
  7  1  1  0
  7  9  1  0
  8  7  2  0
 10 11  1  0
 11 15  1  0
 12 11  2  0
 12 13  1  0
 13 14  1  0
 15 14  2  0
  2 16  1  0
  3 17  1  0
  9 18  1  0
 12 19  1  0
 14 20  1  0
M  ISO  5  16  14  17  14  18   3  19  14  20  14
M  END
>  <minimizedAffinity>  (1) 
-4.38119507

>  <minimizedRMSD>  (1) 
1.3843652

$$$$
