
     RDKit          3D

 21 22  0  0  0  0  0  0  0  0999 V2000
   47.7220   34.7830   42.3370 C   0  0  0  0  0  0  0  0  0  0  0  0
   46.9120   34.5330   41.2220 C   0  0  0  0  0  0  0  0  0  0  0  0
   45.6590   33.9630   41.4640 C   0  0  0  0  0  0  0  0  0  0  0  0
   45.3080   33.6870   42.7600 N   0  0  0  0  0  0  0  0  0  0  0  0
   46.1360   33.9530   43.7870 C   0  0  0  0  0  0  0  0  0  0  0  0
   47.3210   34.4930   43.5630 N   0  0  0  0  0  0  0  0  0  0  0  0
   49.0500   35.3830   42.0860 C   0  0  0  0  0  0  0  0  0  0  0  0
   49.2110   36.0910   41.0470 O   0  0  0  0  0  0  0  0  0  0  0  0
   50.0670   35.1430   43.0000 O   0  0  0  0  0  0  0  0  0  0  0  0
   45.6930   33.6000   45.4690 S   0  0  0  0  0  0  0  0  0  0  0  0
   46.8370   32.3610   46.1470 C   0  0  0  0  0  0  0  0  0  0  0  0
   47.1540   32.3990   47.6070 C   0  0  0  0  0  0  0  0  0  0  0  0
   46.2710   31.3050   47.0310 C   0  0  0  0  0  0  0  0  0  0  0  0
   47.2468   34.7743   40.2023 H   0  0  0  0  0  0  0  0  0  0  0  0
   44.9713   33.7413   40.6346 H   0  0  0  0  0  0  0  0  0  0  0  0
   50.9652   35.5332   42.8549 H   0  0  0  0  0  0  0  0  0  0  0  0
   47.4467   32.3626   45.2314 H   0  0  0  0  0  0  0  0  0  0  0  0
   48.1691   32.1617   47.9580 H   0  0  0  0  0  0  0  0  0  0  0  0
   47.0536   33.1437   48.4104 H   0  0  0  0  0  0  0  0  0  0  0  0
   45.1939   31.2916   47.2538 H   0  0  0  0  0  0  0  0  0  0  0  0
   46.2849   30.2051   47.0404 H   0  0  0  0  0  0  0  0  0  0  0  0
  1  6  2  0
  2  3  2  0
  2  1  1  0
  3  4  1  0
  4  5  2  0
  5 10  1  0
  6  5  1  0
  7  1  1  0
  7  9  1  0
  8  7  2  0
 10 11  1  0
 11 13  1  0
 11 12  1  0
 13 12  1  0
  2 14  1  0
  3 15  1  0
  9 16  1  0
 11 17  1  0
 12 18  1  0
 12 19  1  0
 13 20  1  0
 13 21  1  0
M  ISO  8  14  14  15  14  16   3  17  13  18  13  19  13  20  13  21  13
M  END
>  <minimizedAffinity>  (1) 
-4.15950775

>  <minimizedRMSD>  (1) 
1.85375357

$$$$
