
     RDKit          3D

 26 27  0  0  1  0  0  0  0  0999 V2000
   47.8530   34.6910   42.3230 C   0  0  0  0  0  0  0  0  0  0  0  0
   47.0680   34.4440   41.2080 C   0  0  0  0  0  0  0  0  0  0  0  0
   45.8630   33.7750   41.4130 C   0  0  0  0  0  0  0  0  0  0  0  0
   45.5200   33.4030   42.6900 N   0  0  0  0  0  0  0  0  0  0  0  0
   46.3320   33.6770   43.7270 C   0  0  0  0  0  0  0  0  0  0  0  0
   47.5000   34.3190   43.5630 N   0  0  0  0  0  0  0  0  0  0  0  0
   49.1320   35.3980   42.1260 C   0  0  0  0  0  0  0  0  0  0  0  0
   49.2460   36.1880   41.1430 O   0  0  0  0  0  0  0  0  0  0  0  0
   50.1750   35.1900   43.0070 O   0  0  0  0  0  0  0  0  0  0  0  0
   45.9350   33.2150   45.4100 S   0  0  0  0  0  0  0  0  0  0  0  0
   45.2790   30.7010   45.6990 N   0  0  0  0  0  0  0  0  0  0  0  0
   45.3420   30.1060   44.3690 C   0  0  0  0  0  0  0  0  0  0  0  0
   46.7970   29.6620   44.3710 C   0  0  0  0  0  0  0  0  0  0  0  0
   47.4430   30.9960   44.7610 C   0  0  0  0  0  0  0  0  0  0  0  0
   46.4670   31.5240   45.7800 C   0  0  1  0  0  0  0  0  0  0  0  0
   47.3829   34.7627   40.2034 H   0  0  0  0  0  0  0  0  0  0  0  0
   45.1978   33.5487   40.5667 H   0  0  0  0  0  0  0  0  0  0  0  0
   51.0347   35.6634   42.8770 H   0  0  0  0  0  0  0  0  0  0  0  0
   45.2905   29.9714   46.4259 H   0  0  0  0  0  0  0  0  0  0  0  0
   45.1374   30.8427   43.5782 H   0  0  0  0  0  0  0  0  0  0  0  0
   44.6069   29.3116   44.1725 H   0  0  0  0  0  0  0  0  0  0  0  0
   46.9890   28.8755   45.1157 H   0  0  0  0  0  0  0  0  0  0  0  0
   47.1597   29.2120   43.4351 H   0  0  0  0  0  0  0  0  0  0  0  0
   48.4396   30.8449   45.2015 H   0  0  0  0  0  0  0  0  0  0  0  0
   47.6117   31.6747   43.9119 H   0  0  0  0  0  0  0  0  0  0  0  0
   46.9575   31.5085   46.7645 H   0  0  0  0  0  0  0  0  0  0  0  0
  1  6  2  0
  2  3  2  0
  2  1  1  0
  3  4  1  0
  4  5  2  0
  5 10  1  0
  6  5  1  0
  7  1  1  0
  7  9  1  0
  8  7  2  0
 11 15  1  0
 12 13  1  0
 12 11  1  0
 13 14  1  0
 14 15  1  0
 15 10  1  0
  2 16  1  0
  3 17  1  0
  9 18  1  0
 11 19  1  0
 12 20  1  0
 12 21  1  0
 13 22  1  0
 13 23  1  0
 14 24  1  0
 14 25  1  0
 15 26  1  1
M  ISO  8  16  14  17  14  18   3  19   5  20  13  21  13  22  13  23  13
M  ISO  3  24  13  25  13  26  13
M  END
>  <minimizedAffinity>  (1) 
-4.20277309

>  <minimizedRMSD>  (1) 
1.95255518

$$$$
