
     RDKit          3D

 32 35  0  0  0  0  0  0  0  0999 V2000
   46.1750   30.3810   49.1540 N   0  0  0  0  0  0  0  0  0  0  0  0
   45.3260   31.3970   49.4470 C   0  0  0  0  0  0  0  0  0  0  0  0
   45.2440   32.2370   48.3860 N   0  0  0  0  0  0  0  0  0  0  0  0
   46.0680   31.6940   47.4530 C   0  0  0  0  0  0  0  0  0  0  0  0
   46.3090   32.2070   46.1950 C   0  0  0  0  0  0  0  0  0  0  0  0
   47.1750   31.5090   45.3990 N   0  0  0  0  0  0  0  0  0  0  0  0
   47.7650   30.3690   45.8290 C   0  0  0  0  0  0  0  0  0  0  0  0
   47.4940   29.9200   47.0570 N   0  0  0  0  0  0  0  0  0  0  0  0
   46.6600   30.5410   47.8980 C   0  0  0  0  0  0  0  0  0  0  0  0
   48.6590   29.6800   44.9620 N   0  0  0  0  0  0  0  0  0  0  0  0
   49.3870   28.5880   45.0200 N   0  0  0  0  0  0  0  0  0  0  0  0
   50.0570   28.4110   43.8830 C   0  0  0  0  0  0  0  0  0  0  0  0
   49.7360   29.4630   43.0390 C   0  0  0  0  0  0  0  0  0  0  0  0
   48.8430   30.2550   43.7570 C   0  0  0  0  0  0  0  0  0  0  0  0
   45.6350   33.6700   45.4620 S   0  0  0  0  0  0  0  0  0  0  0  0
   47.7980   34.7110   42.3570 C   0  0  0  0  0  0  0  0  0  0  0  0
   47.0800   34.3130   41.2240 C   0  0  0  0  0  0  0  0  0  0  0  0
   45.8590   33.6890   41.4380 C   0  0  0  0  0  0  0  0  0  0  0  0
   45.4260   33.4970   42.7200 N   0  0  0  0  0  0  0  0  0  0  0  0
   46.1670   33.9030   43.7770 C   0  0  0  0  0  0  0  0  0  0  0  0
   47.3240   34.4950   43.5770 N   0  0  0  0  0  0  0  0  0  0  0  0
   49.0950   35.3740   42.1460 C   0  0  0  0  0  0  0  0  0  0  0  0
   49.2460   36.1440   41.1680 O   0  0  0  0  0  0  0  0  0  0  0  0
   50.1170   35.1380   43.0250 O   0  0  0  0  0  0  0  0  0  0  0  0
   46.4148   29.6061   49.7887 H   0  0  0  0  0  0  0  0  0  0  0  0
   44.7873   31.5205   50.3981 H   0  0  0  0  0  0  0  0  0  0  0  0
   50.7412   27.5805   43.6547 H   0  0  0  0  0  0  0  0  0  0  0  0
   50.1079   29.6357   42.0183 H   0  0  0  0  0  0  0  0  0  0  0  0
   48.3720   31.1841   43.4036 H   0  0  0  0  0  0  0  0  0  0  0  0
   47.4661   34.4869   40.2088 H   0  0  0  0  0  0  0  0  0  0  0  0
   45.2479   33.3534   40.5872 H   0  0  0  0  0  0  0  0  0  0  0  0
   50.9941   35.5779   42.8939 H   0  0  0  0  0  0  0  0  0  0  0  0
  1  2  1  0
  3  2  2  0
  4  9  2  0
  4  3  1  0
  5  4  1  0
  6  7  1  0
  6  5  2  0
  7  8  2  0
  8  9  1  0
  9  1  1  0
 10 11  1  0
 10  7  1  0
 12 11  2  0
 13 14  2  0
 13 12  1  0
 14 10  1  0
 15  5  1  0
 16 21  2  0
 17 18  2  0
 17 16  1  0
 18 19  1  0
 19 20  2  0
 20 15  1  0
 21 20  1  0
 22 16  1  0
 22 24  1  0
 23 22  2  0
  1 25  1  0
  2 26  1  0
 12 27  1  0
 13 28  1  0
 14 29  1  0
 17 30  1  0
 18 31  1  0
 24 32  1  0
M  ISO  8  25   9  26  14  27  14  28  14  29  14  30  14  31  14  32   3
M  END
>  <minimizedAffinity>  (1) 
-6.02346611

>  <minimizedRMSD>  (1) 
0.110833801

$$$$
