
     RDKit          3D

 26 28  0  0  0  0  0  0  0  0999 V2000
   45.6400   33.6720   45.4420 S   0  0  0  0  0  0  0  0  0  0  0  0
   46.1790   30.3820   49.1330 N   0  0  0  0  0  0  0  0  0  0  0  0
   45.3350   31.3990   49.4360 C   0  0  0  0  0  0  0  0  0  0  0  0
   45.2700   32.2220   48.3650 N   0  0  0  0  0  0  0  0  0  0  0  0
   46.0850   31.6820   47.4220 C   0  0  0  0  0  0  0  0  0  0  0  0
   46.3100   32.2040   46.1740 C   0  0  0  0  0  0  0  0  0  0  0  0
   47.1710   31.4970   45.3770 N   0  0  0  0  0  0  0  0  0  0  0  0
   47.7580   30.3600   45.8000 C   0  0  0  0  0  0  0  0  0  0  0  0
   47.4970   29.9060   47.0210 N   0  0  0  0  0  0  0  0  0  0  0  0
   46.6750   30.5270   47.8640 C   0  0  0  0  0  0  0  0  0  0  0  0
   48.6330   29.6280   45.0090 O   0  0  0  0  0  0  0  0  0  0  0  0
   47.7920   34.7160   42.3430 C   0  0  0  0  0  0  0  0  0  0  0  0
   47.0830   34.3320   41.2130 C   0  0  0  0  0  0  0  0  0  0  0  0
   45.8570   33.7070   41.4180 C   0  0  0  0  0  0  0  0  0  0  0  0
   45.4140   33.5040   42.6980 N   0  0  0  0  0  0  0  0  0  0  0  0
   46.1540   33.9030   43.7610 C   0  0  0  0  0  0  0  0  0  0  0  0
   47.3310   34.5030   43.5770 N   0  0  0  0  0  0  0  0  0  0  0  0
   49.0930   35.3790   42.1390 C   0  0  0  0  0  0  0  0  0  0  0  0
   49.2470   36.1500   41.1630 O   0  0  0  0  0  0  0  0  0  0  0  0
   50.1110   35.1370   43.0250 O   0  0  0  0  0  0  0  0  0  0  0  0
   46.4148   29.6071   49.7692 H   0  0  0  0  0  0  0  0  0  0  0  0
   44.7974   31.5314   50.3865 H   0  0  0  0  0  0  0  0  0  0  0  0
   49.0417   28.7977   45.3607 H   0  0  0  0  0  0  0  0  0  0  0  0
   47.4731   34.5137   40.2007 H   0  0  0  0  0  0  0  0  0  0  0  0
   45.2499   33.3794   40.5612 H   0  0  0  0  0  0  0  0  0  0  0  0
   50.9900   35.5751   42.9007 H   0  0  0  0  0  0  0  0  0  0  0  0
  1  6  1  0
  2  3  1  0
  4  3  2  0
  5 10  2  0
  5  4  1  0
  6  5  1  0
  7  8  1  0
  7  6  2  0
  8  9  2  0
  9 10  1  0
 10  2  1  0
 11  8  1  0
 12 17  2  0
 13 14  2  0
 13 12  1  0
 14 15  1  0
 15 16  2  0
 16  1  1  0
 17 16  1  0
 18 12  1  0
 18 20  1  0
 19 18  2  0
  2 21  1  0
  3 22  1  0
 11 23  1  0
 13 24  1  0
 14 25  1  0
 20 26  1  0
M  ISO  6  21   9  22  14  23   3  24  14  25  14  26   3
M  END
>  <minimizedAffinity>  (1) 
-5.71298265

>  <minimizedRMSD>  (1) 
0.0454766974

$$$$
