
     RDKit          3D

 28 30  0  0  0  0  0  0  0  0999 V2000
   45.6390   33.6620   45.4410 S   0  0  0  0  0  0  0  0  0  0  0  0
   46.1780   30.3840   49.1310 N   0  0  0  0  0  0  0  0  0  0  0  0
   45.3360   31.4000   49.4400 C   0  0  0  0  0  0  0  0  0  0  0  0
   45.2730   32.2180   48.3680 N   0  0  0  0  0  0  0  0  0  0  0  0
   46.0730   31.6900   47.4250 C   0  0  0  0  0  0  0  0  0  0  0  0
   46.3080   32.1920   46.1700 C   0  0  0  0  0  0  0  0  0  0  0  0
   47.1640   31.4880   45.3670 N   0  0  0  0  0  0  0  0  0  0  0  0
   47.7450   30.3560   45.7900 C   0  0  0  0  0  0  0  0  0  0  0  0
   47.4870   29.9090   47.0120 N   0  0  0  0  0  0  0  0  0  0  0  0
   46.6680   30.5310   47.8590 C   0  0  0  0  0  0  0  0  0  0  0  0
   48.6710   29.6180   44.8800 C   0  0  0  0  0  0  0  0  0  0  0  0
   47.7870   34.7150   42.3350 C   0  0  0  0  0  0  0  0  0  0  0  0
   47.0830   34.3430   41.2070 C   0  0  0  0  0  0  0  0  0  0  0  0
   45.8580   33.7210   41.4310 C   0  0  0  0  0  0  0  0  0  0  0  0
   45.4170   33.5140   42.7050 N   0  0  0  0  0  0  0  0  0  0  0  0
   46.1730   33.9120   43.7650 C   0  0  0  0  0  0  0  0  0  0  0  0
   47.3400   34.5040   43.5740 N   0  0  0  0  0  0  0  0  0  0  0  0
   49.0980   35.3800   42.1350 C   0  0  0  0  0  0  0  0  0  0  0  0
   49.2500   36.1520   41.1610 O   0  0  0  0  0  0  0  0  0  0  0  0
   50.1210   35.1410   43.0190 O   0  0  0  0  0  0  0  0  0  0  0  0
   46.4170   29.6080   49.7647 H   0  0  0  0  0  0  0  0  0  0  0  0
   44.8009   31.5338   50.3917 H   0  0  0  0  0  0  0  0  0  0  0  0
   49.3926   29.0429   45.4789 H   0  0  0  0  0  0  0  0  0  0  0  0
   48.0915   28.9314   44.2454 H   0  0  0  0  0  0  0  0  0  0  0  0
   49.2110   30.3361   44.2454 H   0  0  0  0  0  0  0  0  0  0  0  0
   47.4669   34.5270   40.1927 H   0  0  0  0  0  0  0  0  0  0  0  0
   45.2440   33.3956   40.5783 H   0  0  0  0  0  0  0  0  0  0  0  0
   50.9984   35.5814   42.8915 H   0  0  0  0  0  0  0  0  0  0  0  0
  1  6  1  0
  2  3  1  0
  4  3  2  0
  5 10  2  0
  5  4  1  0
  6  5  1  0
  7  8  1  0
  7  6  2  0
  8  9  2  0
  9 10  1  0
 10  2  1  0
 11  8  1  0
 12 17  2  0
 13 14  2  0
 13 12  1  0
 14 15  1  0
 15 16  2  0
 16  1  1  0
 17 16  1  0
 18 12  1  0
 18 20  1  0
 19 18  2  0
  2 21  1  0
  3 22  1  0
 11 23  1  0
 11 24  1  0
 11 25  1  0
 13 26  1  0
 14 27  1  0
 20 28  1  0
M  ISO  8  21   9  22  14  23   8  24   8  25   8  26  14  27  14  28   3
M  END
>  <minimizedAffinity>  (1) 
-5.74697113

>  <minimizedRMSD>  (1) 
0.0432078764

$$$$
