
     RDKit          3D

 30 32  0  0  0  0  0  0  0  0999 V2000
   45.7310   33.2770   44.9180 C   0  0  0  0  0  0  0  0  0  0  0  0
   45.4390   34.6230   45.0110 C   0  0  0  0  0  0  0  0  0  0  0  0
   44.7050   35.1990   44.0180 C   0  0  0  0  0  0  0  0  0  0  0  0
   44.3010   34.3640   42.9700 C   0  0  0  0  0  0  0  0  0  0  0  0
   44.9680   32.7650   43.4030 S   0  0  0  0  0  0  0  0  0  0  0  0
   43.5390   34.7120   41.8330 N   0  0  0  0  0  0  0  0  0  0  0  0
   42.2690   35.1780   41.9140 C   0  0  0  0  0  0  0  0  0  0  0  0
   41.6820   35.4660   40.6990 C   0  0  0  0  0  0  0  0  0  0  0  0
   40.2890   35.9830   40.6900 C   0  0  0  0  0  0  0  0  0  0  0  0
   42.3180   35.2980   39.4920 C   0  0  0  0  0  0  0  0  0  0  0  0
   41.7510   35.5710   38.4080 O   0  0  0  0  0  0  0  0  0  0  0  0
   43.5660   34.8370   39.4580 N   0  0  0  0  0  0  0  0  0  0  0  0
   44.1500   34.5530   40.6450 C   0  0  0  0  0  0  0  0  0  0  0  0
   45.3460   34.1140   40.5560 O   0  0  0  0  0  0  0  0  0  0  0  0
   47.4720   32.0600   47.9040 C   0  0  0  0  0  0  0  0  0  0  0  0
   47.9190   30.8000   47.4660 C   0  0  0  0  0  0  0  0  0  0  0  0
   47.6110   30.3890   46.1430 C   0  0  0  0  0  0  0  0  0  0  0  0
   46.8900   31.2510   45.3650 N   0  0  0  0  0  0  0  0  0  0  0  0
   46.4830   32.4510   45.8280 C   0  0  0  0  0  0  0  0  0  0  0  0
   46.7720   32.8470   47.0850 N   0  0  0  0  0  0  0  0  0  0  0  0
   45.7909   35.2171   45.8673 H   0  0  0  0  0  0  0  0  0  0  0  0
   44.4430   36.2671   44.0390 H   0  0  0  0  0  0  0  0  0  0  0  0
   41.7474   35.3157   42.8726 H   0  0  0  0  0  0  0  0  0  0  0  0
   39.9394   36.1128   41.7249 H   0  0  0  0  0  0  0  0  0  0  0  0
   40.2607   36.9515   40.1692 H   0  0  0  0  0  0  0  0  0  0  0  0
   39.6357   35.2675   40.1692 H   0  0  0  0  0  0  0  0  0  0  0  0
   44.0653   34.7023   38.5673 H   0  0  0  0  0  0  0  0  0  0  0  0
   47.7005   32.3976   48.9257 H   0  0  0  0  0  0  0  0  0  0  0  0
   48.4962   30.1459   48.1361 H   0  0  0  0  0  0  0  0  0  0  0  0
   47.9404   29.4127   45.7579 H   0  0  0  0  0  0  0  0  0  0  0  0
  1  2  2  0
  1 19  1  0
  3  2  1  0
  4  5  1  0
  4  3  2  0
  5  1  1  0
  6  7  1  0
  6  4  1  0
  8  7  2  0
  9  8  1  0
 10  8  1  0
 11 10  2  0
 12 10  1  0
 12 13  1  0
 13  6  1  0
 14 13  2  0
 16 15  2  0
 17 16  1  0
 18 19  1  0
 18 17  2  0
 19 20  2  0
 20 15  1  0
  2 21  1  0
  3 22  1  0
  7 23  1  0
  9 24  1  0
  9 25  1  0
  9 26  1  0
 12 27  1  0
 15 28  1  0
 16 29  1  0
 17 30  1  0
M  ISO  8  21  14  22  14  23  14  24   8  25   8  26   8  27   9  28  14
M  ISO  2  29  14  30  14
M  END
>  <minimizedAffinity>  (1) 
-5.39779568

>  <minimizedRMSD>  (1) 
9.3345108

$$$$
