
     RDKit          3D

 31 34  0  0  0  0  0  0  0  0999 V2000
   46.1260   32.9660   45.7300 C   0  0  0  0  0  0  0  0  0  0  0  0
   45.8700   32.7470   47.0690 C   0  0  0  0  0  0  0  0  0  0  0  0
   46.3370   31.6050   47.6460 C   0  0  0  0  0  0  0  0  0  0  0  0
   47.0500   30.7310   46.8190 C   0  0  0  0  0  0  0  0  0  0  0  0
   47.0490   31.5460   45.2220 S   0  0  0  0  0  0  0  0  0  0  0  0
   47.6290   29.4860   47.1900 N   0  0  0  0  0  0  0  0  0  0  0  0
   48.9360   29.2540   47.4170 C   0  0  0  0  0  0  0  0  0  0  0  0
   49.0150   27.9460   47.7370 N   0  0  0  0  0  0  0  0  0  0  0  0
   47.7950   27.3830   47.7080 C   0  0  0  0  0  0  0  0  0  0  0  0
   47.3830   26.0880   47.9590 C   0  0  0  0  0  0  0  0  0  0  0  0
   48.2060   25.2020   48.2780 O   0  0  0  0  0  0  0  0  0  0  0  0
   46.0930   25.7590   47.8670 N   0  0  0  0  0  0  0  0  0  0  0  0
   45.2510   26.7500   47.5220 C   0  0  0  0  0  0  0  0  0  0  0  0
   43.8570   26.4880   47.3990 N   0  0  0  0  0  0  0  0  0  0  0  0
   45.5950   28.0280   47.2650 N   0  0  0  0  0  0  0  0  0  0  0  0
   46.8950   28.3690   47.3560 C   0  0  0  0  0  0  0  0  0  0  0  0
   44.4900   36.0170   44.5240 C   0  0  0  0  0  0  0  0  0  0  0  0
   45.0950   36.1560   43.2420 C   0  0  0  0  0  0  0  0  0  0  0  0
   46.0430   35.2040   42.8280 C   0  0  0  0  0  0  0  0  0  0  0  0
   46.3380   34.1840   43.6870 N   0  0  0  0  0  0  0  0  0  0  0  0
   45.7460   34.0820   44.8940 C   0  0  0  0  0  0  0  0  0  0  0  0
   44.8350   34.9870   45.3070 N   0  0  0  0  0  0  0  0  0  0  0  0
   45.3001   33.4805   47.6582 H   0  0  0  0  0  0  0  0  0  0  0  0
   46.1622   31.3814   48.7088 H   0  0  0  0  0  0  0  0  0  0  0  0
   49.7628   29.9769   47.3547 H   0  0  0  0  0  0  0  0  0  0  0  0
   45.7610   24.8012   48.0497 H   0  0  0  0  0  0  0  0  0  0  0  0
   43.2118   27.2462   47.1349 H   0  0  0  0  0  0  0  0  0  0  0  0
   43.4937   25.5402   47.5741 H   0  0  0  0  0  0  0  0  0  0  0  0
   43.7454   36.7499   44.8681 H   0  0  0  0  0  0  0  0  0  0  0  0
   44.8244   36.9960   42.5854 H   0  0  0  0  0  0  0  0  0  0  0  0
   46.5309   35.2782   41.8449 H   0  0  0  0  0  0  0  0  0  0  0  0
  1  2  2  0
  2  3  1  0
  4  6  1  0
  4  3  2  0
  5  1  1  0
  5  4  1  0
  6 16  1  0
  6  7  1  0
  7  8  2  0
  9  8  1  0
  9 10  1  0
 10 11  2  0
 12 10  1  0
 13 12  1  0
 14 13  1  0
 15 16  1  0
 15 13  2  0
 16  9  2  0
 17 22  2  0
 18 17  1  0
 19 18  2  0
 19 20  1  0
 20 21  2  0
 21 22  1  0
 21  1  1  0
  2 23  1  0
  3 24  1  0
  7 25  1  0
 12 26  1  0
 14 27  1  0
 14 28  1  0
 17 29  1  0
 18 30  1  0
 19 31  1  0
M  ISO  7  23  14  24  14  25  14  26   9  29  14  30  14  31  14
M  END
>  <minimizedAffinity>  (1) 
-5.10912085

>  <minimizedRMSD>  (1) 
1.83324742

$$$$
