
     RDKit          3D

 26 28  0  0  0  0  0  0  0  0999 V2000
   46.7800   33.9000   43.6270 C   0  0  0  0  0  0  0  0  0  0  0  0
   45.8340   34.5600   44.3870 C   0  0  0  0  0  0  0  0  0  0  0  0
   45.4060   34.0040   45.5520 C   0  0  0  0  0  0  0  0  0  0  0  0
   45.9790   32.7740   45.8900 C   0  0  0  0  0  0  0  0  0  0  0  0
   47.1100   32.4300   44.5550 S   0  0  0  0  0  0  0  0  0  0  0  0
   48.8820   35.5680   41.1310 C   0  0  0  0  0  0  0  0  0  0  0  0
   48.4030   34.9690   39.9300 C   0  0  0  0  0  0  0  0  0  0  0  0
   47.3660   34.0050   40.0150 C   0  0  0  0  0  0  0  0  0  0  0  0
   46.8860   33.7070   41.2590 N   0  0  0  0  0  0  0  0  0  0  0  0
   47.3730   34.3010   42.3690 C   0  0  0  0  0  0  0  0  0  0  0  0
   48.3580   35.2210   42.3090 N   0  0  0  0  0  0  0  0  0  0  0  0
   45.7580   31.9090   47.0470 C   0  0  0  0  0  0  0  0  0  0  0  0
   45.6040   30.5640   46.8380 C   0  0  0  0  0  0  0  0  0  0  0  0
   45.3990   29.8290   48.0020 C   0  0  0  0  0  0  0  0  0  0  0  0
   45.3650   30.4620   49.2310 C   0  0  0  0  0  0  0  0  0  0  0  0
   45.5240   31.8220   49.3880 C   0  0  0  0  0  0  0  0  0  0  0  0
   45.7230   32.5240   48.2380 N   0  0  0  0  0  0  0  0  0  0  0  0
   45.4303   35.5271   44.0527 H   0  0  0  0  0  0  0  0  0  0  0  0
   44.6545   34.4923   46.1898 H   0  0  0  0  0  0  0  0  0  0  0  0
   49.6854   36.3181   41.0875 H   0  0  0  0  0  0  0  0  0  0  0  0
   48.8294   35.2489   38.9554 H   0  0  0  0  0  0  0  0  0  0  0  0
   46.9641   33.5166   39.1150 H   0  0  0  0  0  0  0  0  0  0  0  0
   45.6392   30.1055   45.8388 H   0  0  0  0  0  0  0  0  0  0  0  0
   45.2633   28.7389   47.9440 H   0  0  0  0  0  0  0  0  0  0  0  0
   45.2027   29.8485   50.1295 H   0  0  0  0  0  0  0  0  0  0  0  0
   45.4923   32.3073   50.3747 H   0  0  0  0  0  0  0  0  0  0  0  0
  1  2  2  0
  1  5  1  0
  2  3  1  0
  3  4  2  0
  4 12  1  0
  5  4  1  0
  6 11  2  0
  7  8  2  0
  7  6  1  0
  8  9  1  0
  9 10  2  0
 10  1  1  0
 11 10  1  0
 12 17  1  0
 13 12  2  0
 13 14  1  0
 14 15  2  0
 15 16  1  0
 17 16  2  0
  2 18  1  0
  3 19  1  0
  6 20  1  0
  7 21  1  0
  8 22  1  0
 13 23  1  0
 14 24  1  0
 15 25  1  0
 16 26  1  0
M  ISO  8  18  14  19  14  20  14  21  14  22  14  23  14  24  14  25  14
M  ISO  1  26  14
M  END
>  <minimizedAffinity>  (1) 
-5.06448412

>  <minimizedRMSD>  (1) 
4.03136778

$$$$
