
     RDKit          3D

 27 29  0  0  0  0  0  0  0  0999 V2000
   45.8610   33.1380   46.2300 C   0  0  0  0  0  0  0  0  0  0  0  0
   45.4230   32.9700   47.5260 C   0  0  0  0  0  0  0  0  0  0  0  0
   46.1190   32.1370   48.3430 C   0  0  0  0  0  0  0  0  0  0  0  0
   47.2420   31.5080   47.7890 C   0  0  0  0  0  0  0  0  0  0  0  0
   47.3000   32.1060   46.1100 S   0  0  0  0  0  0  0  0  0  0  0  0
   44.3280   35.9340   44.4440 C   0  0  0  0  0  0  0  0  0  0  0  0
   44.2870   35.4160   43.1140 C   0  0  0  0  0  0  0  0  0  0  0  0
   44.7830   34.1300   42.8690 C   0  0  0  0  0  0  0  0  0  0  0  0
   45.2830   33.4390   43.9290 N   0  0  0  0  0  0  0  0  0  0  0  0
   45.3070   33.9560   45.1740 C   0  0  0  0  0  0  0  0  0  0  0  0
   44.8350   35.1940   45.4340 N   0  0  0  0  0  0  0  0  0  0  0  0
   48.1690   30.5840   48.3900 C   0  0  0  0  0  0  0  0  0  0  0  0
   48.3710   29.3870   47.7360 C   0  0  0  0  0  0  0  0  0  0  0  0
   49.2760   28.5060   48.3370 C   0  0  0  0  0  0  0  0  0  0  0  0
   49.9160   28.8600   49.5310 C   0  0  0  0  0  0  0  0  0  0  0  0
   49.6660   30.0780   50.1320 C   0  0  0  0  0  0  0  0  0  0  0  0
   48.7660   30.9640   49.5400 C   0  0  0  0  0  0  0  0  0  0  0  0
   44.5299   33.4985   47.8907 H   0  0  0  0  0  0  0  0  0  0  0  0
   45.8163   31.9650   49.3865 H   0  0  0  0  0  0  0  0  0  0  0  0
   43.9421   36.9425   44.6535 H   0  0  0  0  0  0  0  0  0  0  0  0
   43.8714   36.0191   42.2933 H   0  0  0  0  0  0  0  0  0  0  0  0
   44.7690   33.6951   41.8587 H   0  0  0  0  0  0  0  0  0  0  0  0
   47.8518   29.1399   46.7983 H   0  0  0  0  0  0  0  0  0  0  0  0
   49.4856   27.5322   47.8703 H   0  0  0  0  0  0  0  0  0  0  0  0
   50.6260   28.1600   49.9956 H   0  0  0  0  0  0  0  0  0  0  0  0
   50.1728   30.3474   51.0704 H   0  0  0  0  0  0  0  0  0  0  0  0
   48.5494   31.9415   49.9956 H   0  0  0  0  0  0  0  0  0  0  0  0
  1  2  2  0
  2  3  1  0
  4  3  2  0
  4 12  1  0
  5  1  1  0
  5  4  1  0
  6 11  2  0
  7  6  1  0
  8  7  2  0
  8  9  1  0
  9 10  2  0
 10 11  1  0
 10  1  1  0
 12 17  2  0
 13 14  2  0
 13 12  1  0
 14 15  1  0
 15 16  2  0
 17 16  1  0
  2 18  1  0
  3 19  1  0
  6 20  1  0
  7 21  1  0
  8 22  1  0
 13 23  1  0
 14 24  1  0
 15 25  1  0
 16 26  1  0
 17 27  1  0
M  ISO  8  18  14  19  14  20  14  21  14  22  14  23  14  24  14  25  14
M  ISO  2  26  14  27  14
M  END
>  <minimizedAffinity>  (1) 
-4.74497461

>  <minimizedRMSD>  (1) 
1.17244983

$$$$
