
     RDKit          3D

 28 30  0  0  0  0  0  0  0  0999 V2000
   46.0630   32.9550   46.0280 C   0  0  0  0  0  0  0  0  0  0  0  0
   45.6430   32.6610   47.3100 C   0  0  0  0  0  0  0  0  0  0  0  0
   46.1450   31.5640   47.9400 C   0  0  0  0  0  0  0  0  0  0  0  0
   47.0730   30.8070   47.2130 C   0  0  0  0  0  0  0  0  0  0  0  0
   47.2140   31.6630   45.6490 S   0  0  0  0  0  0  0  0  0  0  0  0
   47.7480   29.6330   47.6130 N   0  0  0  0  0  0  0  0  0  0  0  0
   47.2880   28.4340   47.2270 C   0  0  0  0  0  0  0  0  0  0  0  0
   48.0080   27.3180   47.6600 C   0  0  0  0  0  0  0  0  0  0  0  0
   49.1340   27.4530   48.4450 C   0  0  0  0  0  0  0  0  0  0  0  0
   49.8820   26.3260   48.8970 N   0  0  0  0  0  0  0  0  0  0  0  0
   49.5260   28.6990   48.7870 N   0  0  0  0  0  0  0  0  0  0  0  0
   48.8350   29.7670   48.3710 C   0  0  0  0  0  0  0  0  0  0  0  0
   49.3170   30.8650   48.7660 O   0  0  0  0  0  0  0  0  0  0  0  0
   44.4560   35.9950   44.7590 C   0  0  0  0  0  0  0  0  0  0  0  0
   45.0170   36.0740   43.4510 C   0  0  0  0  0  0  0  0  0  0  0  0
   45.9370   35.0760   43.0390 C   0  0  0  0  0  0  0  0  0  0  0  0
   46.2360   34.0820   43.9350 N   0  0  0  0  0  0  0  0  0  0  0  0
   45.6770   34.0510   45.1610 C   0  0  0  0  0  0  0  0  0  0  0  0
   44.8000   34.9880   45.5750 N   0  0  0  0  0  0  0  0  0  0  0  0
   44.9105   33.3065   47.8167 H   0  0  0  0  0  0  0  0  0  0  0  0
   45.8400   31.2879   48.9602 H   0  0  0  0  0  0  0  0  0  0  0  0
   46.3890   28.3343   46.6010 H   0  0  0  0  0  0  0  0  0  0  0  0
   47.6705   26.3122   47.3693 H   0  0  0  0  0  0  0  0  0  0  0  0
   50.7183   26.4641   49.4822 H   0  0  0  0  0  0  0  0  0  0  0  0
   49.5859   25.3740   48.6383 H   0  0  0  0  0  0  0  0  0  0  0  0
   43.7416   36.7593   45.0987 H   0  0  0  0  0  0  0  0  0  0  0  0
   44.7412   36.8949   42.7727 H   0  0  0  0  0  0  0  0  0  0  0  0
   46.3934   35.0986   42.0384 H   0  0  0  0  0  0  0  0  0  0  0  0
  1  2  2  0
  2  3  1  0
  4  6  1  0
  4  3  2  0
  5  1  1  0
  5  4  1  0
  6 12  1  0
  7  6  1  0
  7  8  2  0
  8  9  1  0
  9 11  2  0
  9 10  1  0
 12 13  2  0
 12 11  1  0
 14 19  2  0
 15 14  1  0
 16 15  2  0
 16 17  1  0
 17 18  2  0
 18 19  1  0
 18  1  1  0
  2 20  1  0
  3 21  1  0
  7 22  1  0
  8 23  1  0
 10 24  1  0
 10 25  1  0
 14 26  1  0
 15 27  1  0
 16 28  1  0
M  ISO  7  20  14  21  14  22  14  23  14  26  14  27  14  28  14
M  END
>  <minimizedAffinity>  (1) 
-4.81469679

>  <minimizedRMSD>  (1) 
1.54081106

$$$$
