
     RDKit          3D

 24 26  0  0  0  0  0  0  0  0999 V2000
   45.8130   33.1730   46.2860 C   0  0  0  0  0  0  0  0  0  0  0  0
   45.3370   33.0140   47.5710 C   0  0  0  0  0  0  0  0  0  0  0  0
   46.0200   32.1960   48.4050 C   0  0  0  0  0  0  0  0  0  0  0  0
   47.1640   31.5700   47.8970 C   0  0  0  0  0  0  0  0  0  0  0  0
   47.2580   32.1580   46.2210 S   0  0  0  0  0  0  0  0  0  0  0  0
   44.3370   35.9570   44.4300 C   0  0  0  0  0  0  0  0  0  0  0  0
   44.3210   35.4110   43.1120 C   0  0  0  0  0  0  0  0  0  0  0  0
   44.8070   34.1200   42.8810 C   0  0  0  0  0  0  0  0  0  0  0  0
   45.2790   33.4460   43.9610 N   0  0  0  0  0  0  0  0  0  0  0  0
   45.2850   33.9790   45.2000 C   0  0  0  0  0  0  0  0  0  0  0  0
   44.8200   35.2200   45.4320 N   0  0  0  0  0  0  0  0  0  0  0  0
   48.1030   30.6380   48.5520 C   0  0  0  0  0  0  0  0  0  0  0  0
   48.9180   31.0030   49.5710 C   0  0  0  0  0  0  0  0  0  0  0  0
   49.5970   29.8090   49.8460 C   0  0  0  0  0  0  0  0  0  0  0  0
   49.1410   28.8480   48.9860 N   0  0  0  0  0  0  0  0  0  0  0  0
   48.2050   29.3780   48.1800 N   0  0  0  0  0  0  0  0  0  0  0  0
   44.4294   33.5365   47.9076 H   0  0  0  0  0  0  0  0  0  0  0  0
   45.6893   32.0297   49.4408 H   0  0  0  0  0  0  0  0  0  0  0  0
   43.9563   36.9718   44.6176 H   0  0  0  0  0  0  0  0  0  0  0  0
   43.9257   36.0065   42.2759 H   0  0  0  0  0  0  0  0  0  0  0  0
   44.8068   33.6735   41.8757 H   0  0  0  0  0  0  0  0  0  0  0  0
   49.0202   31.9844   50.0572 H   0  0  0  0  0  0  0  0  0  0  0  0
   50.3652   29.6683   50.6207 H   0  0  0  0  0  0  0  0  0  0  0  0
   49.4645   27.8705   48.9601 H   0  0  0  0  0  0  0  0  0  0  0  0
  1  2  2  0
  2  3  1  0
  4  3  2  0
  4 12  1  0
  5  1  1  0
  5  4  1  0
  6 11  2  0
  7  6  1  0
  8  7  2  0
  8  9  1  0
  9 10  2  0
 10 11  1  0
 10  1  1  0
 12 13  1  0
 13 14  2  0
 15 14  1  0
 16 12  2  0
 16 15  1  0
  2 17  1  0
  3 18  1  0
  6 19  1  0
  7 20  1  0
  8 21  1  0
 13 22  1  0
 14 23  1  0
 15 24  1  0
M  ISO  8  17  14  18  14  19  14  20  14  21  14  22  14  23  14  24   9
M  END
>  <minimizedAffinity>  (1) 
-4.63593006

>  <minimizedRMSD>  (1) 
1.05377388

$$$$
