
     RDKit          3D

 24 26  0  0  0  0  0  0  0  0999 V2000
   45.8280   33.2770   46.4260 C   0  0  0  0  0  0  0  0  0  0  0  0
   45.1320   33.0860   47.6010 C   0  0  0  0  0  0  0  0  0  0  0  0
   45.5580   32.1660   48.5020 C   0  0  0  0  0  0  0  0  0  0  0  0
   46.7130   31.4670   48.1350 C   0  0  0  0  0  0  0  0  0  0  0  0
   47.1560   32.1280   46.5430 S   0  0  0  0  0  0  0  0  0  0  0  0
   44.4490   36.0390   44.4490 C   0  0  0  0  0  0  0  0  0  0  0  0
   45.1400   35.8520   43.2170 C   0  0  0  0  0  0  0  0  0  0  0  0
   46.0630   34.7820   43.0950 C   0  0  0  0  0  0  0  0  0  0  0  0
   46.2380   33.9770   44.1890 N   0  0  0  0  0  0  0  0  0  0  0  0
   45.5630   34.1900   45.3370 C   0  0  0  0  0  0  0  0  0  0  0  0
   44.6880   35.1950   45.4690 N   0  0  0  0  0  0  0  0  0  0  0  0
   47.4320   30.4030   48.8880 C   0  0  0  0  0  0  0  0  0  0  0  0
   48.7730   30.7100   49.4480 C   0  0  0  0  0  0  0  0  0  0  0  0
   48.5640   29.7890   48.2030 C   0  0  0  0  0  0  0  0  0  0  0  0
   44.2300   33.6806   47.8079 H   0  0  0  0  0  0  0  0  0  0  0  0
   45.0338   31.9829   49.4516 H   0  0  0  0  0  0  0  0  0  0  0  0
   43.7294   36.8629   44.5646 H   0  0  0  0  0  0  0  0  0  0  0  0
   44.9596   36.5300   42.3698 H   0  0  0  0  0  0  0  0  0  0  0  0
   46.6155   34.6060   42.1602 H   0  0  0  0  0  0  0  0  0  0  0  0
   46.5107   30.0174   49.3490 H   0  0  0  0  0  0  0  0  0  0  0  0
   49.2093   31.7132   49.3328 H   0  0  0  0  0  0  0  0  0  0  0  0
   49.2638   30.6211   50.4284 H   0  0  0  0  0  0  0  0  0  0  0  0
   48.7365   28.7054   48.2810 H   0  0  0  0  0  0  0  0  0  0  0  0
   48.9393   29.7695   47.1692 H   0  0  0  0  0  0  0  0  0  0  0  0
  1  5  1  0
  1  2  2  0
  2  3  1  0
  4  3  2  0
  4 12  1  0
  5  4  1  0
  6 11  2  0
  7  6  1  0
  8  7  2  0
  8  9  1  0
  9 10  2  0
 10 11  1  0
 10  1  1  0
 12 13  1  0
 14 12  1  0
 14 13  1  0
  2 15  1  0
  3 16  1  0
  6 17  1  0
  7 18  1  0
  8 19  1  0
 12 20  1  0
 13 21  1  0
 13 22  1  0
 14 23  1  0
 14 24  1  0
M  ISO  8  15  14  16  14  17  14  18  14  19  14  20  13  21  13  22  13
M  ISO  2  23  13  24  13
M  END
>  <minimizedAffinity>  (1) 
-4.51782084

>  <minimizedRMSD>  (1) 
0.497174948

$$$$
