
     RDKit          3D

 18 19  0  0  0  0  0  0  0  0999 V2000
   44.5570   35.7700   44.7120 C   0  0  0  0  0  0  0  0  0  0  0  0
   45.2730   35.5400   43.5010 C   0  0  0  0  0  0  0  0  0  0  0  0
   46.1660   34.4390   43.4310 C   0  0  0  0  0  0  0  0  0  0  0  0
   46.2900   33.6540   44.5440 N   0  0  0  0  0  0  0  0  0  0  0  0
   45.5950   33.9060   45.6710 C   0  0  0  0  0  0  0  0  0  0  0  0
   44.7400   34.9450   45.7620 N   0  0  0  0  0  0  0  0  0  0  0  0
   45.8020   33.0130   46.7850 C   0  0  0  0  0  0  0  0  0  0  0  0
   45.0240   32.7900   47.8980 C   0  0  0  0  0  0  0  0  0  0  0  0
   45.4230   31.8870   48.8310 C   0  0  0  0  0  0  0  0  0  0  0  0
   46.6330   31.2400   48.5730 C   0  0  0  0  0  0  0  0  0  0  0  0
   47.1770   31.9220   47.0190 S   0  0  0  0  0  0  0  0  0  0  0  0
   47.2840   30.2860   49.3310 O   0  0  0  0  0  0  0  0  0  0  0  0
   43.8587   36.6164   44.7891 H   0  0  0  0  0  0  0  0  0  0  0  0
   45.1357   36.2046   42.6353 H   0  0  0  0  0  0  0  0  0  0  0  0
   46.7371   34.2251   42.5156 H   0  0  0  0  0  0  0  0  0  0  0  0
   44.0817   33.3415   48.0317 H   0  0  0  0  0  0  0  0  0  0  0  0
   44.8298   31.6785   49.7336 H   0  0  0  0  0  0  0  0  0  0  0  0
   48.1459   29.9107   49.0206 H   0  0  0  0  0  0  0  0  0  0  0  0
  1  6  2  0
  2  1  1  0
  3  2  2  0
  3  4  1  0
  4  5  2  0
  5  6  1  0
  5  7  1  0
  7 11  1  0
  7  8  2  0
  8  9  1  0
 10  9  2  0
 10 12  1  0
 11 10  1  0
  1 13  1  0
  2 14  1  0
  3 15  1  0
  8 16  1  0
  9 17  1  0
 12 18  1  0
M  ISO  6  13  14  14  14  15  14  16  14  17  14  18   3
M  END
>  <minimizedAffinity>  (1) 
-4.63534117

>  <minimizedRMSD>  (1) 
0.140668243

$$$$
