
     RDKit          3D

 26 27  0  0  0  0  0  0  0  0999 V2000
   45.8200   33.2530   46.3120 C   0  0  0  0  0  0  0  0  0  0  0  0
   45.1940   33.0850   47.5280 C   0  0  0  0  0  0  0  0  0  0  0  0
   45.6280   32.0970   48.3580 C   0  0  0  0  0  0  0  0  0  0  0  0
   46.6910   31.3260   47.8910 C   0  0  0  0  0  0  0  0  0  0  0  0
   47.0720   31.9960   46.2930 S   0  0  0  0  0  0  0  0  0  0  0  0
   44.4540   36.1070   44.4560 C   0  0  0  0  0  0  0  0  0  0  0  0
   45.1490   35.9540   43.2190 C   0  0  0  0  0  0  0  0  0  0  0  0
   46.0580   34.8990   43.0390 C   0  0  0  0  0  0  0  0  0  0  0  0
   46.2260   34.0570   44.0910 N   0  0  0  0  0  0  0  0  0  0  0  0
   45.5600   34.2170   45.2530 C   0  0  0  0  0  0  0  0  0  0  0  0
   44.6840   35.2230   45.4490 N   0  0  0  0  0  0  0  0  0  0  0  0
   47.3480   30.2020   48.5840 C   0  0  0  0  0  0  0  0  0  0  0  0
   48.5520   30.7590   49.3200 C   0  0  0  0  0  0  0  0  0  0  0  0
   47.7240   29.1890   47.5640 C   0  0  0  0  0  0  0  0  0  0  0  0
   44.3588   33.7373   47.8227 H   0  0  0  0  0  0  0  0  0  0  0  0
   45.1665   31.9176   49.3402 H   0  0  0  0  0  0  0  0  0  0  0  0
   43.7416   36.9331   44.5977 H   0  0  0  0  0  0  0  0  0  0  0  0
   44.9714   36.6675   42.4008 H   0  0  0  0  0  0  0  0  0  0  0  0
   46.6055   34.7618   42.0949 H   0  0  0  0  0  0  0  0  0  0  0  0
   46.6907   29.7127   49.3178 H   0  0  0  0  0  0  0  0  0  0  0  0
   48.3864   30.6824   50.4048 H   0  0  0  0  0  0  0  0  0  0  0  0
   49.4484   30.1841   49.0444 H   0  0  0  0  0  0  0  0  0  0  0  0
   48.6942   31.8144   49.0444 H   0  0  0  0  0  0  0  0  0  0  0  0
   48.0645   28.2716   48.0665 H   0  0  0  0  0  0  0  0  0  0  0  0
   46.8509   28.9602   46.9352 H   0  0  0  0  0  0  0  0  0  0  0  0
   48.5349   29.5853   46.9352 H   0  0  0  0  0  0  0  0  0  0  0  0
  1  2  2  0
  2  3  1  0
  4  3  2  0
  4 12  1  0
  5  1  1  0
  5  4  1  0
  6 11  2  0
  7  6  1  0
  8  7  2  0
  8  9  1  0
  9 10  2  0
 10 11  1  0
 10  1  1  0
 12 13  1  0
 14 12  1  0
  2 15  1  0
  3 16  1  0
  6 17  1  0
  7 18  1  0
  8 19  1  0
 12 20  1  0
 13 21  1  0
 13 22  1  0
 13 23  1  0
 14 24  1  0
 14 25  1  0
 14 26  1  0
M  ISO  8  15  14  16  14  17  14  18  14  19  14  20   8  21   8  22   8
M  ISO  4  23   8  24   8  25   8  26   8
M  END
>  <minimizedAffinity>  (1) 
-4.45396137

>  <minimizedRMSD>  (1) 
0.539532185

$$$$
