
     RDKit          3D

 29 30  0  0  0  0  0  0  0  0999 V2000
   46.3390   33.2990   45.0020 C   0  0  0  0  0  0  0  0  0  0  0  0
   45.5010   33.8450   45.9530 C   0  0  0  0  0  0  0  0  0  0  0  0
   45.3690   33.1710   47.1230 C   0  0  0  0  0  0  0  0  0  0  0  0
   46.0830   31.9780   47.2880 C   0  0  0  0  0  0  0  0  0  0  0  0
   46.9590   31.8150   45.7480 S   0  0  0  0  0  0  0  0  0  0  0  0
   45.9970   34.5740   41.5870 C   0  0  0  0  0  0  0  0  0  0  0  0
   47.3650   34.7640   41.2320 C   0  0  0  0  0  0  0  0  0  0  0  0
   48.3720   34.4480   42.1820 C   0  0  0  0  0  0  0  0  0  0  0  0
   47.9670   33.9750   43.3930 N   0  0  0  0  0  0  0  0  0  0  0  0
   46.6530   33.8100   43.6850 C   0  0  0  0  0  0  0  0  0  0  0  0
   45.6830   34.1050   42.7960 N   0  0  0  0  0  0  0  0  0  0  0  0
   46.1490   31.0450   48.4070 C   0  0  0  0  0  0  0  0  0  0  0  0
   45.2100   31.4430   49.4830 C   0  0  0  0  0  0  0  0  0  0  0  0
   45.6990   29.6880   47.8740 C   0  0  0  0  0  0  0  0  0  0  0  0
   47.5610   30.8820   48.9550 C   0  0  0  0  0  0  0  0  0  0  0  0
   44.9629   34.7868   45.7701 H   0  0  0  0  0  0  0  0  0  0  0  0
   44.7169   33.5525   47.9225 H   0  0  0  0  0  0  0  0  0  0  0  0
   45.2021   34.8137   40.8654 H   0  0  0  0  0  0  0  0  0  0  0  0
   47.6359   35.1493   40.2379 H   0  0  0  0  0  0  0  0  0  0  0  0
   49.4388   34.5803   41.9485 H   0  0  0  0  0  0  0  0  0  0  0  0
   45.6708   31.2477   50.4626 H   0  0  0  0  0  0  0  0  0  0  0  0
   44.9817   32.5152   49.3924 H   0  0  0  0  0  0  0  0  0  0  0  0
   44.2808   30.8614   49.3924 H   0  0  0  0  0  0  0  0  0  0  0  0
   45.4768   29.0180   48.7177 H   0  0  0  0  0  0  0  0  0  0  0  0
   44.7954   29.8165   47.2600 H   0  0  0  0  0  0  0  0  0  0  0  0
   46.5004   29.2511   47.2600 H   0  0  0  0  0  0  0  0  0  0  0  0
   47.5302   30.8856   50.0546 H   0  0  0  0  0  0  0  0  0  0  0  0
   47.9832   29.9292   48.6031 H   0  0  0  0  0  0  0  0  0  0  0  0
   48.1892   31.7136   48.6031 H   0  0  0  0  0  0  0  0  0  0  0  0
  1  5  1  0
  1  2  2  0
  2  3  1  0
  3  4  2  0
  4 12  1  0
  5  4  1  0
  6 11  2  0
  7  6  1  0
  7  8  2  0
  8  9  1  0
  9 10  2  0
 10  1  1  0
 11 10  1  0
 12 15  1  0
 12 13  1  0
 14 12  1  0
  2 16  1  0
  3 17  1  0
  6 18  1  0
  7 19  1  0
  8 20  1  0
 13 21  1  0
 13 22  1  0
 13 23  1  0
 14 24  1  0
 14 25  1  0
 14 26  1  0
 15 27  1  0
 15 28  1  0
 15 29  1  0
M  ISO  8  16  14  17  14  18  14  19  14  20  14  21   8  22   8  23   8
M  ISO  6  24   8  25   8  26   8  27   8  28   8  29   8
M  END
>  <minimizedAffinity>  (1) 
-4.53438854

>  <minimizedRMSD>  (1) 
2.29556417

$$$$
