
     RDKit          3D

 24 26  0  0  0  0  0  0  0  0999 V2000
   45.8390   33.1880   46.3200 C   0  0  0  0  0  0  0  0  0  0  0  0
   45.3440   33.0000   47.5930 C   0  0  0  0  0  0  0  0  0  0  0  0
   46.0330   32.2120   48.4630 C   0  0  0  0  0  0  0  0  0  0  0  0
   47.2130   31.6460   47.9830 C   0  0  0  0  0  0  0  0  0  0  0  0
   47.3340   32.2340   46.3090 S   0  0  0  0  0  0  0  0  0  0  0  0
   44.3100   35.9130   44.4000 C   0  0  0  0  0  0  0  0  0  0  0  0
   44.2850   35.3450   43.1100 C   0  0  0  0  0  0  0  0  0  0  0  0
   44.7940   34.0330   42.9140 C   0  0  0  0  0  0  0  0  0  0  0  0
   45.2830   33.3970   44.0130 N   0  0  0  0  0  0  0  0  0  0  0  0
   45.2910   33.9710   45.2320 C   0  0  0  0  0  0  0  0  0  0  0  0
   44.8100   35.2160   45.4310 N   0  0  0  0  0  0  0  0  0  0  0  0
   48.1660   30.7710   48.6500 C   0  0  0  0  0  0  0  0  0  0  0  0
   48.5960   29.5680   48.1370 C   0  0  0  0  0  0  0  0  0  0  0  0
   49.4540   29.1030   49.0620 N   0  0  0  0  0  0  0  0  0  0  0  0
   49.5160   29.9950   50.0640 C   0  0  0  0  0  0  0  0  0  0  0  0
   48.7110   31.0700   49.8380 N   0  0  0  0  0  0  0  0  0  0  0  0
   44.4040   33.4808   47.9017 H   0  0  0  0  0  0  0  0  0  0  0  0
   45.6782   32.0317   49.4885 H   0  0  0  0  0  0  0  0  0  0  0  0
   43.9192   36.9285   44.5611 H   0  0  0  0  0  0  0  0  0  0  0  0
   43.8747   35.9129   42.2620 H   0  0  0  0  0  0  0  0  0  0  0  0
   44.7928   33.5552   41.9232 H   0  0  0  0  0  0  0  0  0  0  0  0
   48.3044   29.0953   47.1875 H   0  0  0  0  0  0  0  0  0  0  0  0
   50.1421   29.8721   50.9601 H   0  0  0  0  0  0  0  0  0  0  0  0
   48.5596   31.9002   50.4285 H   0  0  0  0  0  0  0  0  0  0  0  0
  1  2  2  0
  2  3  1  0
  4  3  2  0
  4 12  1  0
  5  1  1  0
  5  4  1  0
  6 11  2  0
  7  6  1  0
  8  7  2  0
  8  9  1  0
  9 10  2  0
 10 11  1  0
 10  1  1  0
 12 16  1  0
 13 12  2  0
 13 14  1  0
 14 15  2  0
 16 15  1  0
  2 17  1  0
  3 18  1  0
  6 19  1  0
  7 20  1  0
  8 21  1  0
 13 22  1  0
 15 23  1  0
 16 24  1  0
M  ISO  8  17  14  18  14  19  14  20  14  21  14  22  14  23  14  24   9
M  END
>  <minimizedAffinity>  (1) 
-4.60349178

>  <minimizedRMSD>  (1) 
1.10683835

$$$$
