
     RDKit          3D

 23 24  0  0  0  0  0  0  0  0999 V2000
   45.7480   33.2550   46.5010 C   0  0  0  0  0  0  0  0  0  0  0  0
   45.1120   33.0870   47.7130 C   0  0  0  0  0  0  0  0  0  0  0  0
   45.6600   32.2680   48.6480 C   0  0  0  0  0  0  0  0  0  0  0  0
   46.8590   31.6440   48.2990 C   0  0  0  0  0  0  0  0  0  0  0  0
   47.1840   32.2290   46.6530 S   0  0  0  0  0  0  0  0  0  0  0  0
   44.4060   35.9640   44.4320 C   0  0  0  0  0  0  0  0  0  0  0  0
   44.7310   35.4960   43.1290 C   0  0  0  0  0  0  0  0  0  0  0  0
   45.3990   34.2690   42.9950 C   0  0  0  0  0  0  0  0  0  0  0  0
   45.7080   33.5770   44.1360 N   0  0  0  0  0  0  0  0  0  0  0  0
   45.3810   34.0560   45.3550 C   0  0  0  0  0  0  0  0  0  0  0  0
   44.7400   35.2320   45.5120 N   0  0  0  0  0  0  0  0  0  0  0  0
   47.6820   30.7160   49.0840 C   0  0  0  0  0  0  0  0  0  0  0  0
   49.0410   31.2920   49.3110 C   0  0  0  0  0  0  0  0  0  0  0  0
   44.1681   33.6122   47.9211 H   0  0  0  0  0  0  0  0  0  0  0  0
   45.1849   32.1054   49.6267 H   0  0  0  0  0  0  0  0  0  0  0  0
   43.8822   36.9231   44.5576 H   0  0  0  0  0  0  0  0  0  0  0  0
   44.4631   36.0863   42.2403 H   0  0  0  0  0  0  0  0  0  0  0  0
   45.6664   33.8749   42.0035 H   0  0  0  0  0  0  0  0  0  0  0  0
   47.1981   30.5346   50.0551 H   0  0  0  0  0  0  0  0  0  0  0  0
   47.7823   29.7710   48.5300 H   0  0  0  0  0  0  0  0  0  0  0  0
   49.2295   31.3719   50.3918 H   0  0  0  0  0  0  0  0  0  0  0  0
   49.7977   30.6372   48.8542 H   0  0  0  0  0  0  0  0  0  0  0  0
   49.0968   32.2911   48.8542 H   0  0  0  0  0  0  0  0  0  0  0  0
  1  5  1  0
  1  2  2  0
  2  3  1  0
  4  3  2  0
  4 12  1  0
  5  4  1  0
  6 11  2  0
  7  6  1  0
  8  7  2  0
  8  9  1  0
  9 10  2  0
 10 11  1  0
 10  1  1  0
 12 13  1  0
  2 14  1  0
  3 15  1  0
  6 16  1  0
  7 17  1  0
  8 18  1  0
 12 19  1  0
 12 20  1  0
 13 21  1  0
 13 22  1  0
 13 23  1  0
M  ISO  8  14  14  15  14  16  14  17  14  18  14  19   8  20   8  21   8
M  ISO  2  22   8  23   8
M  END
>  <minimizedAffinity>  (1) 
-4.30276346

>  <minimizedRMSD>  (1) 
1.01601923

$$$$
