
     RDKit          3D

 24 26  0  0  0  0  0  0  0  0999 V2000
   45.9050   33.1060   46.2020 C   0  0  0  0  0  0  0  0  0  0  0  0
   45.4930   32.9400   47.5070 C   0  0  0  0  0  0  0  0  0  0  0  0
   46.2020   32.0950   48.2950 C   0  0  0  0  0  0  0  0  0  0  0  0
   47.3040   31.4520   47.7260 C   0  0  0  0  0  0  0  0  0  0  0  0
   47.3270   32.0600   46.0450 S   0  0  0  0  0  0  0  0  0  0  0  0
   44.3360   35.9250   44.4510 C   0  0  0  0  0  0  0  0  0  0  0  0
   44.2780   35.4270   43.1380 C   0  0  0  0  0  0  0  0  0  0  0  0
   44.7800   34.1250   42.8670 C   0  0  0  0  0  0  0  0  0  0  0  0
   45.2960   33.4200   43.9070 N   0  0  0  0  0  0  0  0  0  0  0  0
   45.3370   33.9330   45.1640 C   0  0  0  0  0  0  0  0  0  0  0  0
   44.8620   35.1670   45.4210 N   0  0  0  0  0  0  0  0  0  0  0  0
   48.1960   30.5300   48.3430 N   0  0  0  0  0  0  0  0  0  0  0  0
   48.8500   30.8290   49.5040 C   0  0  0  0  0  0  0  0  0  0  0  0
   49.6200   29.7270   49.8140 C   0  0  0  0  0  0  0  0  0  0  0  0
   49.4140   28.8110   48.8530 N   0  0  0  0  0  0  0  0  0  0  0  0
   48.5400   29.2940   47.9420 C   0  0  0  0  0  0  0  0  0  0  0  0
   44.6157   33.4768   47.8970 H   0  0  0  0  0  0  0  0  0  0  0  0
   45.9199   31.9220   49.3440 H   0  0  0  0  0  0  0  0  0  0  0  0
   43.9521   36.9301   44.6799 H   0  0  0  0  0  0  0  0  0  0  0  0
   43.8492   36.0375   42.3297 H   0  0  0  0  0  0  0  0  0  0  0  0
   44.7516   33.7035   41.8514 H   0  0  0  0  0  0  0  0  0  0  0  0
   48.7772   31.7641   50.0787 H   0  0  0  0  0  0  0  0  0  0  0  0
   50.2806   29.6184   50.6868 H   0  0  0  0  0  0  0  0  0  0  0  0
   48.1786   28.7740   47.0426 H   0  0  0  0  0  0  0  0  0  0  0  0
  1  2  2  0
  2  3  1  0
  4  3  2  0
  4 12  1  0
  5  1  1  0
  5  4  1  0
  6 11  2  0
  7  6  1  0
  8  7  2  0
  8  9  1  0
  9 10  2  0
 10 11  1  0
 10  1  1  0
 12 13  1  0
 13 14  2  0
 15 14  1  0
 16 12  1  0
 16 15  2  0
  2 17  1  0
  3 18  1  0
  6 19  1  0
  7 20  1  0
  8 21  1  0
 13 22  1  0
 14 23  1  0
 16 24  1  0
M  ISO  8  17  14  18  14  19  14  20  14  21  14  22  14  23  14  24  14
M  END
>  <minimizedAffinity>  (1) 
-4.26737261

>  <minimizedRMSD>  (1) 
1.17659807

$$$$
