
     RDKit          3D

 30 32  0  0  0  0  0  0  0  0999 V2000
   45.9510   33.0070   46.2460 C   0  0  0  0  0  0  0  0  0  0  0  0
   45.5360   32.7800   47.5410 C   0  0  0  0  0  0  0  0  0  0  0  0
   46.2020   31.9050   48.3370 C   0  0  0  0  0  0  0  0  0  0  0  0
   47.3000   31.2860   47.7340 C   0  0  0  0  0  0  0  0  0  0  0  0
   47.3460   31.9620   46.0830 S   0  0  0  0  0  0  0  0  0  0  0  0
   44.3470   35.8730   44.5980 C   0  0  0  0  0  0  0  0  0  0  0  0
   44.3210   35.4460   43.2600 C   0  0  0  0  0  0  0  0  0  0  0  0
   44.8550   34.1880   42.9680 C   0  0  0  0  0  0  0  0  0  0  0  0
   45.3710   33.4430   43.9880 N   0  0  0  0  0  0  0  0  0  0  0  0
   45.3770   33.8900   45.2590 C   0  0  0  0  0  0  0  0  0  0  0  0
   44.8670   35.1000   45.5710 N   0  0  0  0  0  0  0  0  0  0  0  0
   48.2450   30.3060   48.2570 N   0  0  0  0  0  0  0  0  0  0  0  0
   48.9110   30.5930   49.5070 C   0  0  0  0  0  0  0  0  0  0  0  0
   50.0700   29.5950   49.5880 C   0  0  0  0  0  0  0  0  0  0  0  0
   49.5280   28.3400   49.4180 O   0  0  0  0  0  0  0  0  0  0  0  0
   49.2180   28.0610   48.0930 C   0  0  0  0  0  0  0  0  0  0  0  0
   48.4040   29.1490   47.4480 C   0  0  0  0  0  0  0  0  0  0  0  0
   44.6571   33.3129   47.9329 H   0  0  0  0  0  0  0  0  0  0  0  0
   45.9010   31.6995   49.3749 H   0  0  0  0  0  0  0  0  0  0  0  0
   43.9341   36.8592   44.8566 H   0  0  0  0  0  0  0  0  0  0  0  0
   43.8947   36.0804   42.4689 H   0  0  0  0  0  0  0  0  0  0  0  0
   44.8592   33.8060   41.9365 H   0  0  0  0  0  0  0  0  0  0  0  0
   49.2908   31.6253   49.5127 H   0  0  0  0  0  0  0  0  0  0  0  0
   48.2292   30.4991   50.3651 H   0  0  0  0  0  0  0  0  0  0  0  0
   50.8034   29.8013   48.7945 H   0  0  0  0  0  0  0  0  0  0  0  0
   50.5903   29.6724   50.5541 H   0  0  0  0  0  0  0  0  0  0  0  0
   50.1552   27.9411   47.5296 H   0  0  0  0  0  0  0  0  0  0  0  0
   48.6154   27.1409   48.0784 H   0  0  0  0  0  0  0  0  0  0  0  0
   48.9018   29.4459   46.5131 H   0  0  0  0  0  0  0  0  0  0  0  0
   47.3981   28.7373   47.2788 H   0  0  0  0  0  0  0  0  0  0  0  0
  1  2  2  0
  2  3  1  0
  4 12  1  0
  4  3  2  0
  5  1  1  0
  5  4  1  0
  6 11  2  0
  7  6  1  0
  8  7  2  0
  8  9  1  0
  9 10  2  0
 10 11  1  0
 10  1  1  0
 12 13  1  0
 13 14  1  0
 15 14  1  0
 16 15  1  0
 17 16  1  0
 17 12  1  0
  2 18  1  0
  3 19  1  0
  6 20  1  0
  7 21  1  0
  8 22  1  0
 13 23  1  0
 13 24  1  0
 14 25  1  0
 14 26  1  0
 16 27  1  0
 16 28  1  0
 17 29  1  0
 17 30  1  0
M  ISO  8  18  14  19  14  20  14  21  14  22  14  23  13  24  13  25  13
M  ISO  5  26  13  27  13  28  13  29  13  30  13
M  END
>  <minimizedAffinity>  (1) 
-4.31812811

>  <minimizedRMSD>  (1) 
1.22589409

$$$$
