
     RDKit          3D

 33 35  0  0  1  0  0  0  0  0999 V2000
   48.1160   30.3820   48.4180 N   0  0  0  0  0  0  0  0  0  0  0  0
   48.4140   29.0470   47.9940 C   0  0  0  0  0  0  0  0  0  0  0  0
   49.8970   28.7820   47.9260 C   0  0  0  0  0  0  0  0  0  0  0  0
   50.6330   29.4830   49.0520 C   0  0  0  0  0  0  0  0  0  0  0  0
   49.6780   29.8610   50.1730 C   0  0  0  0  0  0  0  0  0  0  0  0
   48.7710   30.9140   49.6050 C   0  0  1  0  0  0  0  0  0  0  0  0
   45.8700   33.0380   46.3280 C   0  0  0  0  0  0  0  0  0  0  0  0
   45.4490   32.8400   47.6160 C   0  0  0  0  0  0  0  0  0  0  0  0
   46.1300   31.9740   48.3990 C   0  0  0  0  0  0  0  0  0  0  0  0
   47.2190   31.3430   47.8250 C   0  0  0  0  0  0  0  0  0  0  0  0
   47.2820   31.9770   46.1730 S   0  0  0  0  0  0  0  0  0  0  0  0
   44.3640   35.9070   44.6090 C   0  0  0  0  0  0  0  0  0  0  0  0
   44.3710   35.4680   43.2620 C   0  0  0  0  0  0  0  0  0  0  0  0
   44.8930   34.1990   42.9850 C   0  0  0  0  0  0  0  0  0  0  0  0
   45.3770   33.4290   44.0140 N   0  0  0  0  0  0  0  0  0  0  0  0
   45.3500   33.8860   45.2780 C   0  0  0  0  0  0  0  0  0  0  0  0
   44.8500   35.1130   45.5820 N   0  0  0  0  0  0  0  0  0  0  0  0
   49.5520   32.0180   49.2590 O   0  0  0  0  0  0  0  0  0  0  0  0
   47.9615   28.3411   48.7060 H   0  0  0  0  0  0  0  0  0  0  0  0
   48.0038   28.9176   46.9816 H   0  0  0  0  0  0  0  0  0  0  0  0
   50.0716   27.6987   48.0033 H   0  0  0  0  0  0  0  0  0  0  0  0
   50.2759   29.1693   46.9687 H   0  0  0  0  0  0  0  0  0  0  0  0
   51.4069   28.8102   49.4500 H   0  0  0  0  0  0  0  0  0  0  0  0
   51.0892   30.4017   48.6548 H   0  0  0  0  0  0  0  0  0  0  0  0
   49.0944   28.9842   50.4901 H   0  0  0  0  0  0  0  0  0  0  0  0
   50.2193   30.2290   51.0571 H   0  0  0  0  0  0  0  0  0  0  0  0
   48.0062   31.2094   50.3384 H   0  0  0  0  0  0  0  0  0  0  0  0
   44.5717   33.3765   48.0066 H   0  0  0  0  0  0  0  0  0  0  0  0
   45.8332   31.7807   49.4404 H   0  0  0  0  0  0  0  0  0  0  0  0
   43.9606   36.8989   44.8607 H   0  0  0  0  0  0  0  0  0  0  0  0
   43.9775   36.1060   42.4569 H   0  0  0  0  0  0  0  0  0  0  0  0
   44.9153   33.8218   41.9519 H   0  0  0  0  0  0  0  0  0  0  0  0
   49.8702   32.4679   50.0815 H   0  0  0  0  0  0  0  0  0  0  0  0
  1  6  1  0
  2  1  1  0
  3  2  1  0
  3  4  1  0
  4  5  1  0
  6  5  1  0
  7  8  2  0
  8  9  1  0
 10  9  2  0
 10  1  1  0
 11  7  1  0
 11 10  1  0
 12 17  2  0
 13 12  1  0
 14 13  2  0
 14 15  1  0
 15 16  2  0
 16 17  1  0
 16  7  1  0
 18  6  1  0
  2 19  1  0
  2 20  1  0
  3 21  1  0
  3 22  1  0
  4 23  1  0
  4 24  1  0
  5 25  1  0
  5 26  1  0
  6 27  1  1
  8 28  1  0
  9 29  1  0
 12 30  1  0
 13 31  1  0
 14 32  1  0
 18 33  1  0
M  ISO  8  19  13  20  13  21  13  22  13  23  13  24  13  25  13  26  13
M  ISO  7  27  13  28  14  29  14  30  14  31  14  32  14  33   3
M  END
>  <minimizedAffinity>  (1) 
-4.86830902

>  <minimizedRMSD>  (1) 
0.37482819

$$$$
