
     RDKit          3D

 35 37  0  0  1  0  0  0  0  0999 V2000
   48.3160   29.7730   48.3370 N   0  0  0  0  0  0  0  0  0  0  0  0
   48.4660   28.4220   47.8170 C   0  0  0  0  0  0  0  0  0  0  0  0
   49.9110   28.0320   47.6520 C   0  0  0  0  0  0  0  0  0  0  0  0
   50.7590   28.5830   48.7750 C   0  0  0  0  0  0  0  0  0  0  0  0
   49.9400   29.0470   49.9550 C   0  0  0  0  0  0  0  0  0  0  0  0
   49.0450   30.1570   49.5100 C   0  0  1  0  0  0  0  0  0  0  0  0
   46.3030   32.7680   46.4860 C   0  0  0  0  0  0  0  0  0  0  0  0
   45.8240   32.4370   47.7240 C   0  0  0  0  0  0  0  0  0  0  0  0
   46.4160   31.4520   48.4310 C   0  0  0  0  0  0  0  0  0  0  0  0
   47.4980   30.8390   47.8210 C   0  0  0  0  0  0  0  0  0  0  0  0
   47.6730   31.6620   46.2430 S   0  0  0  0  0  0  0  0  0  0  0  0
   44.4970   35.5850   44.9910 C   0  0  0  0  0  0  0  0  0  0  0  0
   45.0400   35.6250   43.6930 C   0  0  0  0  0  0  0  0  0  0  0  0
   46.0170   34.6750   43.3650 C   0  0  0  0  0  0  0  0  0  0  0  0
   46.4040   33.7550   44.3120 N   0  0  0  0  0  0  0  0  0  0  0  0
   45.8450   33.7680   45.5480 C   0  0  0  0  0  0  0  0  0  0  0  0
   44.8930   34.6720   45.9040 N   0  0  0  0  0  0  0  0  0  0  0  0
   49.7100   31.4880   49.4620 C   0  0  0  0  0  0  0  0  0  0  0  0
   48.8550   32.4940   49.0260 F   0  0  0  0  0  0  0  0  0  0  0  0
   50.2290   31.8700   50.6790 F   0  0  0  0  0  0  0  0  0  0  0  0
   50.8050   31.3940   48.5940 F   0  0  0  0  0  0  0  0  0  0  0  0
   47.9870   27.7190   48.5144 H   0  0  0  0  0  0  0  0  0  0  0  0
   47.9922   28.3880   46.8249 H   0  0  0  0  0  0  0  0  0  0  0  0
   49.9882   26.9347   47.6496 H   0  0  0  0  0  0  0  0  0  0  0  0
   50.2775   28.4494   46.7026 H   0  0  0  0  0  0  0  0  0  0  0  0
   51.4480   27.7953   49.1138 H   0  0  0  0  0  0  0  0  0  0  0  0
   51.2988   29.4576   48.3830 H   0  0  0  0  0  0  0  0  0  0  0  0
   49.3332   28.2122   50.3356 H   0  0  0  0  0  0  0  0  0  0  0  0
   50.6049   29.4003   50.7570 H   0  0  0  0  0  0  0  0  0  0  0  0
   48.2868   30.3219   50.2897 H   0  0  0  0  0  0  0  0  0  0  0  0
   44.9587   32.9724   48.1418 H   0  0  0  0  0  0  0  0  0  0  0  0
   46.0617   31.1545   49.4290 H   0  0  0  0  0  0  0  0  0  0  0  0
   43.7271   36.3194   45.2701 H   0  0  0  0  0  0  0  0  0  0  0  0
   44.7089   36.3763   42.9609 H   0  0  0  0  0  0  0  0  0  0  0  0
   46.4690   34.6651   42.3622 H   0  0  0  0  0  0  0  0  0  0  0  0
  1  6  1  0
  2  1  1  0
  3  2  1  0
  3  4  1  0
  4  5  1  0
  6  5  1  0
  7  8  2  0
  8  9  1  0
 10  1  1  0
 10  9  2  0
 11  7  1  0
 11 10  1  0
 12 17  2  0
 13 12  1  0
 14 13  2  0
 14 15  1  0
 15 16  2  0
 16 17  1  0
 16  7  1  0
 18  6  1  0
 18 20  1  0
 19 18  1  0
 21 18  1  0
  2 22  1  0
  2 23  1  0
  3 24  1  0
  3 25  1  0
  4 26  1  0
  4 27  1  0
  5 28  1  0
  5 29  1  0
  6 30  1  1
  8 31  1  0
  9 32  1  0
 12 33  1  0
 13 34  1  0
 14 35  1  0
M  ISO  8  22  13  23  13  24  13  25  13  26  13  27  13  28  13  29  13
M  ISO  6  30  13  31  14  32  14  33  14  34  14  35  14
M  END
>  <minimizedAffinity>  (1) 
-4.79501629

>  <minimizedRMSD>  (1) 
1.05819976

$$$$
