
     RDKit          3D

 43 46  0  0  1  0  0  0  0  0999 V2000
   49.0960   28.3390   48.5740 N   0  0  0  0  0  0  0  0  0  0  0  0
   48.8650   27.0070   48.0630 C   0  0  0  0  0  0  0  0  0  0  0  0
   50.1520   26.3030   47.7150 C   0  0  0  0  0  0  0  0  0  0  0  0
   51.2580   26.6450   48.6690 C   0  0  0  0  0  0  0  0  0  0  0  0
   50.7270   27.2280   49.9610 C   0  0  0  0  0  0  0  0  0  0  0  0
   50.0700   28.5330   49.6280 C   0  0  1  0  0  0  0  0  0  0  0  0
   50.9630   29.6240   49.4210 N   0  0  0  0  0  0  0  0  0  0  0  0
   51.6570   29.8610   48.2980 C   0  0  0  0  0  0  0  0  0  0  0  0
   52.5120   30.9430   48.1600 C   0  0  0  0  0  0  0  0  0  0  0  0
   52.6760   31.8290   49.2050 C   0  0  0  0  0  0  0  0  0  0  0  0
   53.5090   32.9780   49.2190 N   0  0  0  0  0  0  0  0  0  0  0  0
   51.9900   31.6090   50.3340 N   0  0  0  0  0  0  0  0  0  0  0  0
   51.1750   30.5350   50.4020 C   0  0  0  0  0  0  0  0  0  0  0  0
   50.5360   30.3540   51.4940 O   0  0  0  0  0  0  0  0  0  0  0  0
   47.3310   31.6210   46.9850 C   0  0  0  0  0  0  0  0  0  0  0  0
   47.4970   31.6680   48.3440 C   0  0  0  0  0  0  0  0  0  0  0  0
   48.0770   30.6220   48.9760 C   0  0  0  0  0  0  0  0  0  0  0  0
   48.4640   29.5670   48.1700 C   0  0  0  0  0  0  0  0  0  0  0  0
   48.0080   30.0510   46.5140 S   0  0  0  0  0  0  0  0  0  0  0  0
   45.2010   34.2800   45.6300 C   0  0  0  0  0  0  0  0  0  0  0  0
   45.6930   34.3940   44.3150 C   0  0  0  0  0  0  0  0  0  0  0  0
   46.7610   33.5460   43.9160 C   0  0  0  0  0  0  0  0  0  0  0  0
   47.2620   32.6560   44.8330 N   0  0  0  0  0  0  0  0  0  0  0  0
   46.7460   32.5920   46.0880 C   0  0  0  0  0  0  0  0  0  0  0  0
   45.7360   33.3880   46.4800 N   0  0  0  0  0  0  0  0  0  0  0  0
   48.3352   26.4204   48.8280 H   0  0  0  0  0  0  0  0  0  0  0  0
   48.2674   27.0953   47.1437 H   0  0  0  0  0  0  0  0  0  0  0  0
   49.9813   25.2167   47.7445 H   0  0  0  0  0  0  0  0  0  0  0  0
   50.4572   26.6318   46.7106 H   0  0  0  0  0  0  0  0  0  0  0  0
   51.8259   25.7311   48.8978 H   0  0  0  0  0  0  0  0  0  0  0  0
   51.8993   27.4005   48.1916 H   0  0  0  0  0  0  0  0  0  0  0  0
   49.9937   26.5417   50.4096 H   0  0  0  0  0  0  0  0  0  0  0  0
   51.5429   27.3775   50.6835 H   0  0  0  0  0  0  0  0  0  0  0  0
   49.5281   28.8632   50.5265 H   0  0  0  0  0  0  0  0  0  0  0  0
   51.5428   29.1679   47.4515 H   0  0  0  0  0  0  0  0  0  0  0  0
   53.0594   31.0953   47.2181 H   0  0  0  0  0  0  0  0  0  0  0  0
   53.5538   33.5714   50.0597 H   0  0  0  0  0  0  0  0  0  0  0  0
   54.0688   33.2184   48.3885 H   0  0  0  0  0  0  0  0  0  0  0  0
   47.1624   32.5466   48.9150 H   0  0  0  0  0  0  0  0  0  0  0  0
   48.2314   30.6113   50.0651 H   0  0  0  0  0  0  0  0  0  0  0  0
   44.3743   34.9249   45.9626 H   0  0  0  0  0  0  0  0  0  0  0  0
   45.2605   35.1225   43.6134 H   0  0  0  0  0  0  0  0  0  0  0  0
   47.1755   33.6013   42.8986 H   0  0  0  0  0  0  0  0  0  0  0  0
  1  6  1  0
  2  1  1  0
  3  2  1  0
  3  4  1  0
  4  5  1  0
  6  5  1  0
  7  6  1  0
  7 13  1  0
  8  7  1  0
  9  8  2  0
  9 10  1  0
 10 11  1  0
 10 12  2  0
 12 13  1  0
 13 14  2  0
 15 16  2  0
 16 17  1  0
 18  1  1  0
 18 17  2  0
 19 15  1  0
 19 18  1  0
 20 25  2  0
 21 20  1  0
 22 21  2  0
 22 23  1  0
 23 24  2  0
 24 25  1  0
 24 15  1  0
  2 26  1  0
  2 27  1  0
  3 28  1  0
  3 29  1  0
  4 30  1  0
  4 31  1  0
  5 32  1  0
  5 33  1  0
  6 34  1  1
  8 35  1  0
  9 36  1  0
 11 37  1  0
 11 38  1  0
 16 39  1  0
 17 40  1  0
 20 41  1  0
 21 42  1  0
 22 43  1  0
M  ISO  8  26  13  27  13  28  13  29  13  30  13  31  13  32  13  33  13
M  ISO  8  34  13  35  14  36  14  39  14  40  14  41  14  42  14  43  14
M  END
>  <minimizedAffinity>  (1) 
-4.83777857

>  <minimizedRMSD>  (1) 
2.93412447

$$$$
