
     RDKit          3D

 38 40  0  0  1  0  0  0  0  0999 V2000
   48.0610   30.0110   48.2530 N   0  0  0  0  0  0  0  0  0  0  0  0
   48.2040   28.6610   47.8090 C   0  0  0  0  0  0  0  0  0  0  0  0
   49.6550   28.2680   47.6330 C   0  0  0  0  0  0  0  0  0  0  0  0
   50.5500   28.9010   48.6690 C   0  0  0  0  0  0  0  0  0  0  0  0
   49.7550   29.3810   49.8590 C   0  0  0  0  0  0  0  0  0  0  0  0
   48.8300   30.4570   49.4020 C   0  0  1  0  0  0  0  0  0  0  0  0
   45.9940   32.9340   46.3470 C   0  0  0  0  0  0  0  0  0  0  0  0
   45.5640   32.6830   47.6220 C   0  0  0  0  0  0  0  0  0  0  0  0
   46.1880   31.7260   48.3430 C   0  0  0  0  0  0  0  0  0  0  0  0
   47.2330   31.0630   47.7220 C   0  0  0  0  0  0  0  0  0  0  0  0
   47.3330   31.7960   46.1140 S   0  0  0  0  0  0  0  0  0  0  0  0
   44.3970   35.8790   44.8350 C   0  0  0  0  0  0  0  0  0  0  0  0
   44.6420   35.6490   43.4600 C   0  0  0  0  0  0  0  0  0  0  0  0
   45.3460   34.4950   43.0880 C   0  0  0  0  0  0  0  0  0  0  0  0
   45.7690   33.6360   44.0730 N   0  0  0  0  0  0  0  0  0  0  0  0
   45.5200   33.8850   45.3630 C   0  0  0  0  0  0  0  0  0  0  0  0
   44.8410   34.9950   45.7370 N   0  0  0  0  0  0  0  0  0  0  0  0
   49.4730   31.7920   49.2300 C   0  0  0  0  0  0  0  0  0  0  0  0
   50.4900   31.9690   50.3410 C   0  0  0  0  0  0  0  0  0  0  0  0
   47.7436   27.9930   48.5519 H   0  0  0  0  0  0  0  0  0  0  0  0
   47.7091   28.5730   46.8306 H   0  0  0  0  0  0  0  0  0  0  0  0
   49.7376   27.1742   47.7152 H   0  0  0  0  0  0  0  0  0  0  0  0
   49.9819   28.6228   46.6444 H   0  0  0  0  0  0  0  0  0  0  0  0
   51.2883   28.1588   49.0068 H   0  0  0  0  0  0  0  0  0  0  0  0
   51.0510   29.7676   48.2130 H   0  0  0  0  0  0  0  0  0  0  0  0
   49.1752   28.5463   50.2799 H   0  0  0  0  0  0  0  0  0  0  0  0
   50.4316   29.7679   50.6352 H   0  0  0  0  0  0  0  0  0  0  0  0
   48.1176   30.6396   50.2200 H   0  0  0  0  0  0  0  0  0  0  0  0
   44.7254   33.2504   48.0519 H   0  0  0  0  0  0  0  0  0  0  0  0
   45.8813   31.4856   49.3717 H   0  0  0  0  0  0  0  0  0  0  0  0
   43.8474   36.7750   45.1591 H   0  0  0  0  0  0  0  0  0  0  0  0
   44.2876   36.3604   42.6996 H   0  0  0  0  0  0  0  0  0  0  0  0
   45.5553   34.2819   42.0293 H   0  0  0  0  0  0  0  0  0  0  0  0
   49.9754   31.8412   48.2527 H   0  0  0  0  0  0  0  0  0  0  0  0
   48.7163   32.5891   49.2741 H   0  0  0  0  0  0  0  0  0  0  0  0
   49.9874   31.8815   51.3155 H   0  0  0  0  0  0  0  0  0  0  0  0
   51.2641   31.1921   50.2567 H   0  0  0  0  0  0  0  0  0  0  0  0
   50.9561   32.9618   50.2567 H   0  0  0  0  0  0  0  0  0  0  0  0
  1  6  1  0
  2  1  1  0
  3  2  1  0
  3  4  1  0
  4  5  1  0
  6  5  1  0
  7  8  2  0
  8  9  1  0
 10  1  1  0
 10  9  2  0
 11  7  1  0
 11 10  1  0
 12 17  2  0
 13 12  1  0
 14 13  2  0
 14 15  1  0
 15 16  2  0
 16 17  1  0
 16  7  1  0
 18  6  1  0
 18 19  1  0
  2 20  1  0
  2 21  1  0
  3 22  1  0
  3 23  1  0
  4 24  1  0
  4 25  1  0
  5 26  1  0
  5 27  1  0
  6 28  1  1
  8 29  1  0
  9 30  1  0
 12 31  1  0
 13 32  1  0
 14 33  1  0
 18 34  1  0
 18 35  1  0
 19 36  1  0
 19 37  1  0
 19 38  1  0
M  ISO  8  20  13  21  13  22  13  23  13  24  13  25  13  26  13  27  13
M  ISO  8  28  13  29  14  30  14  31  14  32  14  33  14  34   8  35   8
M  ISO  3  36   8  37   8  38   8
M  END
>  <minimizedAffinity>  (1) 
-4.78272247

>  <minimizedRMSD>  (1) 
0.682657599

$$$$
