
     RDKit          3D

 39 42  0  0  1  0  0  0  0  0999 V2000
   49.1680   29.1610   48.8710 N   0  0  0  0  0  0  0  0  0  0  0  0
   49.2860   27.8250   48.3650 C   0  0  0  0  0  0  0  0  0  0  0  0
   50.7240   27.3820   48.2330 C   0  0  0  0  0  0  0  0  0  0  0  0
   51.5820   27.9330   49.3360 C   0  0  0  0  0  0  0  0  0  0  0  0
   50.7500   28.3800   50.5170 C   0  0  0  0  0  0  0  0  0  0  0  0
   49.9020   29.5310   50.0670 C   0  0  1  0  0  0  0  0  0  0  0  0
   47.1340   32.1020   46.9630 C   0  0  0  0  0  0  0  0  0  0  0  0
   46.9720   32.0930   48.3230 C   0  0  0  0  0  0  0  0  0  0  0  0
   47.6070   31.1510   49.0560 C   0  0  0  0  0  0  0  0  0  0  0  0
   48.3890   30.2530   48.3500 C   0  0  0  0  0  0  0  0  0  0  0  0
   48.2240   30.7410   46.6490 S   0  0  0  0  0  0  0  0  0  0  0  0
   45.0100   34.5970   45.3090 C   0  0  0  0  0  0  0  0  0  0  0  0
   45.5700   34.6230   44.0100 C   0  0  0  0  0  0  0  0  0  0  0  0
   46.6670   33.7810   43.7350 C   0  0  0  0  0  0  0  0  0  0  0  0
   47.1360   32.9800   44.7390 N   0  0  0  0  0  0  0  0  0  0  0  0
   46.5780   32.9830   45.9550 C   0  0  0  0  0  0  0  0  0  0  0  0
   45.5230   33.7810   46.2460 N   0  0  0  0  0  0  0  0  0  0  0  0
   50.6800   30.7690   49.9440 C   0  0  0  0  0  0  0  0  0  0  0  0
   50.6690   31.8550   50.8270 C   0  0  0  0  0  0  0  0  0  0  0  0
   51.5040   32.8490   50.4290 C   0  0  0  0  0  0  0  0  0  0  0  0
   52.0410   32.3800   49.2860 N   0  0  0  0  0  0  0  0  0  0  0  0
   51.5640   31.1790   49.0110 N   0  0  0  0  0  0  0  0  0  0  0  0
   48.7675   27.1403   49.0523 H   0  0  0  0  0  0  0  0  0  0  0  0
   48.8369   27.8067   47.3610 H   0  0  0  0  0  0  0  0  0  0  0  0
   50.7625   26.2832   48.2674 H   0  0  0  0  0  0  0  0  0  0  0  0
   51.1119   27.7620   47.2764 H   0  0  0  0  0  0  0  0  0  0  0  0
   52.2823   27.1522   49.6676 H   0  0  0  0  0  0  0  0  0  0  0  0
   52.1245   28.8070   48.9464 H   0  0  0  0  0  0  0  0  0  0  0  0
   50.1093   27.5535   50.8583 H   0  0  0  0  0  0  0  0  0  0  0  0
   51.3982   28.6824   51.3527 H   0  0  0  0  0  0  0  0  0  0  0  0
   49.1522   29.7586   50.8390 H   0  0  0  0  0  0  0  0  0  0  0  0
   46.3333   32.8428   48.8127 H   0  0  0  0  0  0  0  0  0  0  0  0
   47.5080   31.1010   50.1504 H   0  0  0  0  0  0  0  0  0  0  0  0
   44.1547   35.2446   45.5522 H   0  0  0  0  0  0  0  0  0  0  0  0
   45.1593   35.2845   43.2330 H   0  0  0  0  0  0  0  0  0  0  0  0
   47.1333   33.7688   42.7388 H   0  0  0  0  0  0  0  0  0  0  0  0
   50.0546   31.8982   51.7384 H   0  0  0  0  0  0  0  0  0  0  0  0
   51.6969   33.8121   50.9242 H   0  0  0  0  0  0  0  0  0  0  0  0
   52.7268   32.8864   48.7079 H   0  0  0  0  0  0  0  0  0  0  0  0
  1  6  1  0
  2  1  1  0
  3  2  1  0
  3  4  1  0
  4  5  1  0
  6  5  1  0
  7  8  2  0
  8  9  1  0
 10  1  1  0
 10  9  2  0
 11  7  1  0
 11 10  1  0
 12 17  2  0
 13 12  1  0
 14 13  2  0
 14 15  1  0
 15 16  2  0
 16 17  1  0
 16  7  1  0
 18  6  1  0
 18 19  1  0
 20 19  2  0
 21 20  1  0
 22 21  1  0
 22 18  2  0
  2 23  1  0
  2 24  1  0
  3 25  1  0
  3 26  1  0
  4 27  1  0
  4 28  1  0
  5 29  1  0
  5 30  1  0
  6 31  1  1
  8 32  1  0
  9 33  1  0
 12 34  1  0
 13 35  1  0
 14 36  1  0
 19 37  1  0
 20 38  1  0
 21 39  1  0
M  ISO  8  23  13  24  13  25  13  26  13  27  13  28  13  29  13  30  13
M  ISO  8  31  13  32  14  33  14  34  14  35  14  36  14  37  14  38  14
M  ISO  1  39   9
M  END
>  <minimizedAffinity>  (1) 
-4.74268341

>  <minimizedRMSD>  (1) 
2.19142747

$$$$
