
     RDKit          3D

 39 42  0  0  1  0  0  0  0  0999 V2000
   49.1550   29.0880   48.8330 N   0  0  0  0  0  0  0  0  0  0  0  0
   49.2870   27.7680   48.3000 C   0  0  0  0  0  0  0  0  0  0  0  0
   50.7270   27.3330   48.1930 C   0  0  0  0  0  0  0  0  0  0  0  0
   51.5550   27.8340   49.3370 C   0  0  0  0  0  0  0  0  0  0  0  0
   50.6820   28.2620   50.5070 C   0  0  0  0  0  0  0  0  0  0  0  0
   49.8770   29.4340   50.0500 C   0  0  1  0  0  0  0  0  0  0  0  0
   47.1500   32.0640   46.9510 C   0  0  0  0  0  0  0  0  0  0  0  0
   46.9990   32.0710   48.3120 C   0  0  0  0  0  0  0  0  0  0  0  0
   47.6260   31.1190   49.0500 C   0  0  0  0  0  0  0  0  0  0  0  0
   48.3830   30.2010   48.3410 C   0  0  0  0  0  0  0  0  0  0  0  0
   48.2090   30.6840   46.6240 S   0  0  0  0  0  0  0  0  0  0  0  0
   45.0280   34.5790   45.3130 C   0  0  0  0  0  0  0  0  0  0  0  0
   45.5820   34.6120   44.0170 C   0  0  0  0  0  0  0  0  0  0  0  0
   46.6850   33.7610   43.7300 C   0  0  0  0  0  0  0  0  0  0  0  0
   47.1590   32.9470   44.7280 N   0  0  0  0  0  0  0  0  0  0  0  0
   46.5990   32.9520   45.9450 C   0  0  0  0  0  0  0  0  0  0  0  0
   45.5440   33.7590   46.2350 N   0  0  0  0  0  0  0  0  0  0  0  0
   50.6400   30.6350   49.9530 N   0  0  0  0  0  0  0  0  0  0  0  0
   50.5980   31.7350   50.7510 C   0  0  0  0  0  0  0  0  0  0  0  0
   51.5380   32.6260   50.2350 C   0  0  0  0  0  0  0  0  0  0  0  0
   52.1270   32.0890   49.1660 N   0  0  0  0  0  0  0  0  0  0  0  0
   51.5810   30.8900   49.0020 C   0  0  0  0  0  0  0  0  0  0  0  0
   48.7539   27.0662   48.9582 H   0  0  0  0  0  0  0  0  0  0  0  0
   48.8613   27.7715   47.2857 H   0  0  0  0  0  0  0  0  0  0  0  0
   50.7653   26.2337   48.1824 H   0  0  0  0  0  0  0  0  0  0  0  0
   51.1401   27.7564   47.2656 H   0  0  0  0  0  0  0  0  0  0  0  0
   52.2302   27.0315   49.6688 H   0  0  0  0  0  0  0  0  0  0  0  0
   52.1277   28.7082   48.9937 H   0  0  0  0  0  0  0  0  0  0  0  0
   50.0152   27.4381   50.8012 H   0  0  0  0  0  0  0  0  0  0  0  0
   51.2986   28.5270   51.3786 H   0  0  0  0  0  0  0  0  0  0  0  0
   49.1292   29.6669   50.8224 H   0  0  0  0  0  0  0  0  0  0  0  0
   46.3787   32.8369   48.8005 H   0  0  0  0  0  0  0  0  0  0  0  0
   47.5379   31.0793   50.1457 H   0  0  0  0  0  0  0  0  0  0  0  0
   44.1744   35.2254   45.5650 H   0  0  0  0  0  0  0  0  0  0  0  0
   45.1709   35.2801   43.2459 H   0  0  0  0  0  0  0  0  0  0  0  0
   47.1471   33.7555   42.7318 H   0  0  0  0  0  0  0  0  0  0  0  0
   49.9521   31.8907   51.6277 H   0  0  0  0  0  0  0  0  0  0  0  0
   51.7601   33.6213   50.6473 H   0  0  0  0  0  0  0  0  0  0  0  0
   51.8544   30.1901   48.1986 H   0  0  0  0  0  0  0  0  0  0  0  0
  1  6  1  0
  2  1  1  0
  3  2  1  0
  3  4  1  0
  4  5  1  0
  6  5  1  0
  7  8  2  0
  8  9  1  0
 10  1  1  0
 10  9  2  0
 11  7  1  0
 11 10  1  0
 12 17  2  0
 13 12  1  0
 14 13  2  0
 14 15  1  0
 15 16  2  0
 16 17  1  0
 16  7  1  0
 18  6  1  0
 18 19  1  0
 20 19  2  0
 21 20  1  0
 22 21  2  0
 22 18  1  0
  2 23  1  0
  2 24  1  0
  3 25  1  0
  3 26  1  0
  4 27  1  0
  4 28  1  0
  5 29  1  0
  5 30  1  0
  6 31  1  1
  8 32  1  0
  9 33  1  0
 12 34  1  0
 13 35  1  0
 14 36  1  0
 19 37  1  0
 20 38  1  0
 22 39  1  0
M  ISO  8  23  13  24  13  25  13  26  13  27  13  28  13  29  13  30  13
M  ISO  8  31  13  32  14  33  14  34  14  35  14  36  14  37  14  38  14
M  ISO  1  39  14
M  END
>  <minimizedAffinity>  (1) 
-4.61901808

>  <minimizedRMSD>  (1) 
2.28207922

$$$$
