
     RDKit          3D

 34 36  0  0  0  0  0  0  0  0999 V2000
   47.4950   34.0100   42.3460 C   0  0  0  0  0  0  0  0  0  0  0  0
   48.2870   35.1690   41.7740 C   0  0  0  0  0  0  0  0  0  0  0  0
   49.6520   35.3630   42.3120 C   0  0  0  0  0  0  0  0  0  0  0  0
   50.4290   34.0890   42.4610 C   0  0  0  0  0  0  0  0  0  0  0  0
   49.6140   32.8470   42.2150 C   0  0  0  0  0  0  0  0  0  0  0  0
   48.3290   32.9840   43.0120 C   0  0  0  0  0  0  0  0  0  0  0  0
   45.3410   34.3360   45.3480 C   0  0  0  0  0  0  0  0  0  0  0  0
   44.5640   35.4750   45.0520 C   0  0  0  0  0  0  0  0  0  0  0  0
   44.7960   36.1100   43.8250 C   0  0  0  0  0  0  0  0  0  0  0  0
   45.7390   35.6180   42.9850 N   0  0  0  0  0  0  0  0  0  0  0  0
   46.4670   34.5210   43.3040 C   0  0  0  0  0  0  0  0  0  0  0  0
   46.2640   33.8960   44.4720 N   0  0  0  0  0  0  0  0  0  0  0  0
   46.7040   33.3440   41.2690 C   0  0  0  0  0  0  0  0  0  0  0  0
   46.9100   33.8090   39.9710 C   0  0  0  0  0  0  0  0  0  0  0  0
   46.2070   33.2320   38.9270 C   0  0  0  0  0  0  0  0  0  0  0  0
   45.3140   32.2210   39.1330 N   0  0  0  0  0  0  0  0  0  0  0  0
   45.1690   31.8290   40.4000 C   0  0  0  0  0  0  0  0  0  0  0  0
   45.8200   32.3400   41.4760 N   0  0  0  0  0  0  0  0  0  0  0  0
   47.7176   36.0904   41.9660 H   0  0  0  0  0  0  0  0  0  0  0  0
   48.4241   34.9315   40.7087 H   0  0  0  0  0  0  0  0  0  0  0  0
   50.2026   36.0276   41.6301 H   0  0  0  0  0  0  0  0  0  0  0  0
   49.5422   35.7917   43.3190 H   0  0  0  0  0  0  0  0  0  0  0  0
   51.2620   34.1049   41.7428 H   0  0  0  0  0  0  0  0  0  0  0  0
   50.7734   34.0443   43.5048 H   0  0  0  0  0  0  0  0  0  0  0  0
   49.3840   32.7540   41.1433 H   0  0  0  0  0  0  0  0  0  0  0  0
   50.1697   31.9494   42.5240 H   0  0  0  0  0  0  0  0  0  0  0  0
   48.5579   33.2973   44.0413 H   0  0  0  0  0  0  0  0  0  0  0  0
   47.7969   32.0222   43.0543 H   0  0  0  0  0  0  0  0  0  0  0  0
   45.1923   33.8043   46.2994 H   0  0  0  0  0  0  0  0  0  0  0  0
   43.8064   35.8497   45.7560 H   0  0  0  0  0  0  0  0  0  0  0  0
   44.2166   37.0021   43.5451 H   0  0  0  0  0  0  0  0  0  0  0  0
   47.6226   34.6246   39.7785 H   0  0  0  0  0  0  0  0  0  0  0  0
   46.3729   33.5987   37.9033 H   0  0  0  0  0  0  0  0  0  0  0  0
   44.4544   31.0148   40.5907 H   0  0  0  0  0  0  0  0  0  0  0  0
  1  6  1  0
  1 11  1  0
  2  3  1  0
  2  1  1  0
  3  4  1  0
  5  4  1  0
  5  6  1  0
  8  7  2  0
  9  8  1  0
 10 11  1  0
 10  9  2  0
 11 12  2  0
 12  7  1  0
 13 18  1  0
 13  1  1  0
 14 13  2  0
 15 16  2  0
 15 14  1  0
 16 17  1  0
 17 18  2  0
  2 19  1  0
  2 20  1  0
  3 21  1  0
  3 22  1  0
  4 23  1  0
  4 24  1  0
  5 25  1  0
  5 26  1  0
  6 27  1  0
  6 28  1  0
  7 29  1  0
  8 30  1  0
  9 31  1  0
 14 32  1  0
 15 33  1  0
 17 34  1  0
M  ISO  8  19  13  20  13  21  13  22  13  23  13  24  13  25  13  26  13
M  ISO  8  27  13  28  13  29  14  30  14  31  14  32  14  33  14  34  14
M  END
>  <minimizedAffinity>  (1) 
-5.37287617

>  <minimizedRMSD>  (1) 
0.643573105

$$$$
