
     RDKit          3D

 41 43  0  0  0  0  0  0  0  0999 V2000
   47.4280   33.9860   42.4210 C   0  0  0  0  0  0  0  0  0  0  0  0
   48.2150   35.1430   41.8460 C   0  0  0  0  0  0  0  0  0  0  0  0
   49.5920   35.3200   42.3460 C   0  0  0  0  0  0  0  0  0  0  0  0
   50.3610   34.0400   42.4190 C   0  0  0  0  0  0  0  0  0  0  0  0
   49.5390   32.7970   42.2510 C   0  0  0  0  0  0  0  0  0  0  0  0
   48.2870   32.9800   43.0780 C   0  0  0  0  0  0  0  0  0  0  0  0
   45.3290   34.2490   45.4730 C   0  0  0  0  0  0  0  0  0  0  0  0
   44.5760   35.4250   45.2190 C   0  0  0  0  0  0  0  0  0  0  0  0
   44.8080   36.1170   44.0100 C   0  0  0  0  0  0  0  0  0  0  0  0
   45.7590   35.6060   43.1420 N   0  0  0  0  0  0  0  0  0  0  0  0
   46.4390   34.4950   43.4320 C   0  0  0  0  0  0  0  0  0  0  0  0
   46.2300   33.8130   44.5930 N   0  0  0  0  0  0  0  0  0  0  0  0
   46.6060   33.5440   41.3330 N   0  0  0  0  0  0  0  0  0  0  0  0
   46.9110   34.1260   40.0760 C   0  0  0  0  0  0  0  0  0  0  0  0
   46.4800   33.1170   39.0020 C   0  0  0  0  0  0  0  0  0  0  0  0
   45.0400   32.7520   39.1090 C   0  0  0  0  0  0  0  0  0  0  0  0
   44.4430   33.4500   40.3110 C   0  0  0  0  0  0  0  0  0  0  0  0
   45.2870   33.1810   41.5400 C   0  0  0  0  0  0  0  0  0  0  0  0
   47.6591   36.0664   42.0657 H   0  0  0  0  0  0  0  0  0  0  0  0
   48.3227   34.9161   40.7751 H   0  0  0  0  0  0  0  0  0  0  0  0
   50.1228   36.0088   41.6723 H   0  0  0  0  0  0  0  0  0  0  0  0
   49.5198   35.7168   43.3694 H   0  0  0  0  0  0  0  0  0  0  0  0
   51.1239   34.0544   41.6266 H   0  0  0  0  0  0  0  0  0  0  0  0
   50.7855   33.9935   43.4327 H   0  0  0  0  0  0  0  0  0  0  0  0
   49.2754   32.6587   41.1920 H   0  0  0  0  0  0  0  0  0  0  0  0
   50.0992   31.9087   42.5782 H   0  0  0  0  0  0  0  0  0  0  0  0
   48.5570   33.3259   44.0867 H   0  0  0  0  0  0  0  0  0  0  0  0
   47.7490   32.0240   43.1599 H   0  0  0  0  0  0  0  0  0  0  0  0
   45.1671   33.6910   46.4070 H   0  0  0  0  0  0  0  0  0  0  0  0
   43.8322   35.7874   45.9439 H   0  0  0  0  0  0  0  0  0  0  0  0
   44.2509   37.0333   43.7652 H   0  0  0  0  0  0  0  0  0  0  0  0
   46.3593   35.0695   39.9520 H   0  0  0  0  0  0  0  0  0  0  0  0
   47.9846   34.3518   39.9964 H   0  0  0  0  0  0  0  0  0  0  0  0
   47.0845   32.2046   39.1120 H   0  0  0  0  0  0  0  0  0  0  0  0
   46.6340   33.5875   38.0197 H   0  0  0  0  0  0  0  0  0  0  0  0
   44.5107   33.0685   38.1982 H   0  0  0  0  0  0  0  0  0  0  0  0
   44.9403   31.6626   39.2244 H   0  0  0  0  0  0  0  0  0  0  0  0
   44.4085   34.5333   40.1230 H   0  0  0  0  0  0  0  0  0  0  0  0
   43.4257   33.0678   40.4815 H   0  0  0  0  0  0  0  0  0  0  0  0
   45.2436   32.1076   41.7766 H   0  0  0  0  0  0  0  0  0  0  0  0
   44.8887   33.7793   42.3727 H   0  0  0  0  0  0  0  0  0  0  0  0
  1  6  1  0
  1 11  1  0
  2  3  1  0
  2  1  1  0
  3  4  1  0
  5  4  1  0
  5  6  1  0
  8  7  2  0
  9  8  1  0
 10 11  1  0
 10  9  2  0
 11 12  2  0
 12  7  1  0
 13 18  1  0
 13  1  1  0
 14 13  1  0
 15 16  1  0
 15 14  1  0
 16 17  1  0
 17 18  1  0
  2 19  1  0
  2 20  1  0
  3 21  1  0
  3 22  1  0
  4 23  1  0
  4 24  1  0
  5 25  1  0
  5 26  1  0
  6 27  1  0
  6 28  1  0
  7 29  1  0
  8 30  1  0
  9 31  1  0
 14 32  1  0
 14 33  1  0
 15 34  1  0
 15 35  1  0
 16 36  1  0
 16 37  1  0
 17 38  1  0
 17 39  1  0
 18 40  1  0
 18 41  1  0
M  ISO  8  19  13  20  13  21  13  22  13  23  13  24  13  25  13  26  13
M  ISO  8  27  13  28  13  29  14  30  14  31  14  32  13  33  13  34  13
M  ISO  7  35  13  36  13  37  13  38  13  39  13  40  13  41  13
M  END
>  <minimizedAffinity>  (1) 
-5.41047049

>  <minimizedRMSD>  (1) 
0.0646284148

$$$$
