
     RDKit          3D

 33 35  0  0  0  0  0  0  0  0999 V2000
   47.4270   34.1070   42.3140 C   0  0  0  0  0  0  0  0  0  0  0  0
   48.2000   35.2210   41.6950 C   0  0  0  0  0  0  0  0  0  0  0  0
   49.5850   35.4300   42.2420 C   0  0  0  0  0  0  0  0  0  0  0  0
   50.3690   34.1620   42.4090 C   0  0  0  0  0  0  0  0  0  0  0  0
   49.5470   32.9150   42.2130 C   0  0  0  0  0  0  0  0  0  0  0  0
   48.2880   33.0900   43.0330 C   0  0  0  0  0  0  0  0  0  0  0  0
   45.2150   34.3730   45.2570 C   0  0  0  0  0  0  0  0  0  0  0  0
   44.5370   35.5770   45.0340 C   0  0  0  0  0  0  0  0  0  0  0  0
   44.8200   36.3000   43.8840 C   0  0  0  0  0  0  0  0  0  0  0  0
   45.7640   35.7650   43.0390 N   0  0  0  0  0  0  0  0  0  0  0  0
   46.3970   34.6150   43.2750 C   0  0  0  0  0  0  0  0  0  0  0  0
   46.1230   33.9170   44.3860 N   0  0  0  0  0  0  0  0  0  0  0  0
   46.7820   33.3090   41.1810 C   0  0  0  0  0  0  0  0  0  0  0  0
   45.5860   33.8300   40.4990 C   0  0  0  0  0  0  0  0  0  0  0  0
   46.9290   33.6930   39.7790 C   0  0  0  0  0  0  0  0  0  0  0  0
   47.6325   36.1514   41.8447 H   0  0  0  0  0  0  0  0  0  0  0  0
   48.3310   34.9468   40.6378 H   0  0  0  0  0  0  0  0  0  0  0  0
   50.1340   36.0887   41.5530 H   0  0  0  0  0  0  0  0  0  0  0  0
   49.4703   35.8694   43.2439 H   0  0  0  0  0  0  0  0  0  0  0  0
   51.1865   34.1590   41.6730 H   0  0  0  0  0  0  0  0  0  0  0  0
   50.7389   34.1453   43.4448 H   0  0  0  0  0  0  0  0  0  0  0  0
   49.2928   32.7919   41.1499 H   0  0  0  0  0  0  0  0  0  0  0  0
   50.1038   32.0207   42.5295 H   0  0  0  0  0  0  0  0  0  0  0  0
   48.5408   33.4539   44.0398 H   0  0  0  0  0  0  0  0  0  0  0  0
   47.7558   32.1336   43.1427 H   0  0  0  0  0  0  0  0  0  0  0  0
   44.9976   33.7910   46.1647 H   0  0  0  0  0  0  0  0  0  0  0  0
   43.7935   35.9433   45.7571 H   0  0  0  0  0  0  0  0  0  0  0  0
   44.3156   37.2515   43.6599 H   0  0  0  0  0  0  0  0  0  0  0  0
   47.0167   32.3869   41.7329 H   0  0  0  0  0  0  0  0  0  0  0  0
   44.7519   33.1574   40.2502 H   0  0  0  0  0  0  0  0  0  0  0  0
   44.8675   34.6433   40.6790 H   0  0  0  0  0  0  0  0  0  0  0  0
   47.0660   32.9224   39.0060 H   0  0  0  0  0  0  0  0  0  0  0  0
   47.5896   34.3690   39.2162 H   0  0  0  0  0  0  0  0  0  0  0  0
  1  6  1  0
  1 11  1  0
  2  3  1  0
  2  1  1  0
  3  4  1  0
  5  4  1  0
  5  6  1  0
  8  7  2  0
  9  8  1  0
 10 11  1  0
 10  9  2  0
 11 12  2  0
 12  7  1  0
 13  1  1  0
 14 13  1  0
 15 14  1  0
 15 13  1  0
  2 16  1  0
  2 17  1  0
  3 18  1  0
  3 19  1  0
  4 20  1  0
  4 21  1  0
  5 22  1  0
  5 23  1  0
  6 24  1  0
  6 25  1  0
  7 26  1  0
  8 27  1  0
  9 28  1  0
 13 29  1  0
 14 30  1  0
 14 31  1  0
 15 32  1  0
 15 33  1  0
M  ISO  8  16  13  17  13  18  13  19  13  20  13  21  13  22  13  23  13
M  ISO  8  24  13  25  13  26  14  27  14  28  14  29  13  30  13  31  13
M  ISO  2  32  13  33  13
M  END
>  <minimizedAffinity>  (1) 
-5.19191313

>  <minimizedRMSD>  (1) 
0.443221927

$$$$
