
     RDKit          3D

 33 35  0  0  0  0  0  0  0  0999 V2000
   47.4290   34.0010   42.4200 C   0  0  0  0  0  0  0  0  0  0  0  0
   48.1600   35.1660   41.8000 C   0  0  0  0  0  0  0  0  0  0  0  0
   49.5470   35.3760   42.2610 C   0  0  0  0  0  0  0  0  0  0  0  0
   50.3500   34.1190   42.4360 C   0  0  0  0  0  0  0  0  0  0  0  0
   49.5550   32.8630   42.1970 C   0  0  0  0  0  0  0  0  0  0  0  0
   48.2930   32.9750   43.0430 C   0  0  0  0  0  0  0  0  0  0  0  0
   45.3650   34.2580   45.4870 C   0  0  0  0  0  0  0  0  0  0  0  0
   44.5790   35.4040   45.2300 C   0  0  0  0  0  0  0  0  0  0  0  0
   44.7680   36.0650   44.0200 C   0  0  0  0  0  0  0  0  0  0  0  0
   45.6950   35.5760   43.1530 N   0  0  0  0  0  0  0  0  0  0  0  0
   46.4330   34.4800   43.4220 C   0  0  0  0  0  0  0  0  0  0  0  0
   46.2580   33.8260   44.5990 N   0  0  0  0  0  0  0  0  0  0  0  0
   46.6020   33.4580   41.3280 N   0  0  0  0  0  0  0  0  0  0  0  0
   45.6990   32.4700   41.3850 C   0  0  0  0  0  0  0  0  0  0  0  0
   45.1290   32.2470   40.1500 C   0  0  0  0  0  0  0  0  0  0  0  0
   45.7070   33.1280   39.3310 N   0  0  0  0  0  0  0  0  0  0  0  0
   46.5910   33.8560   40.0330 C   0  0  0  0  0  0  0  0  0  0  0  0
   47.5889   36.0794   42.0227 H   0  0  0  0  0  0  0  0  0  0  0  0
   48.2347   34.9339   40.7274 H   0  0  0  0  0  0  0  0  0  0  0  0
   50.0605   36.0101   41.5232 H   0  0  0  0  0  0  0  0  0  0  0  0
   49.4756   35.8387   43.2564 H   0  0  0  0  0  0  0  0  0  0  0  0
   51.1900   34.1403   41.7261 H   0  0  0  0  0  0  0  0  0  0  0  0
   50.6898   34.0939   43.4819 H   0  0  0  0  0  0  0  0  0  0  0  0
   49.2913   32.7783   41.1324 H   0  0  0  0  0  0  0  0  0  0  0  0
   50.1358   31.9696   42.4699 H   0  0  0  0  0  0  0  0  0  0  0  0
   48.5538   33.2761   44.0683 H   0  0  0  0  0  0  0  0  0  0  0  0
   47.7720   32.0074   43.0911 H   0  0  0  0  0  0  0  0  0  0  0  0
   45.2371   33.7148   46.4349 H   0  0  0  0  0  0  0  0  0  0  0  0
   43.8412   35.7622   45.9631 H   0  0  0  0  0  0  0  0  0  0  0  0
   44.1816   36.9617   43.7707 H   0  0  0  0  0  0  0  0  0  0  0  0
   45.4457   31.9103   42.2975 H   0  0  0  0  0  0  0  0  0  0  0  0
   44.3614   31.5018   39.8941 H   0  0  0  0  0  0  0  0  0  0  0  0
   47.2160   34.6596   39.6164 H   0  0  0  0  0  0  0  0  0  0  0  0
  1  6  1  0
  1 11  1  0
  2  3  1  0
  2  1  1  0
  3  4  1  0
  5  4  1  0
  5  6  1  0
  8  7  2  0
  9  8  1  0
 10 11  1  0
 10  9  2  0
 11 12  2  0
 12  7  1  0
 13 14  1  0
 13  1  1  0
 15 14  2  0
 16 17  2  0
 16 15  1  0
 17 13  1  0
  2 18  1  0
  2 19  1  0
  3 20  1  0
  3 21  1  0
  4 22  1  0
  4 23  1  0
  5 24  1  0
  5 25  1  0
  6 26  1  0
  6 27  1  0
  7 28  1  0
  8 29  1  0
  9 30  1  0
 14 31  1  0
 15 32  1  0
 17 33  1  0
M  ISO  8  18  13  19  13  20  13  21  13  22  13  23  13  24  13  25  13
M  ISO  8  26  13  27  13  28  14  29  14  30  14  31  14  32  14  33  14
M  END
>  <minimizedAffinity>  (1) 
-5.16820097

>  <minimizedRMSD>  (1) 
0.416728765

$$$$
