
     RDKit          3D

 27 28  0  0  0  0  0  0  0  0999 V2000
   47.4070   33.9770   42.4320 C   0  0  0  0  0  0  0  0  0  0  0  0
   48.1440   35.1490   41.8110 C   0  0  0  0  0  0  0  0  0  0  0  0
   49.5280   35.3720   42.2820 C   0  0  0  0  0  0  0  0  0  0  0  0
   50.3330   34.1120   42.3940 C   0  0  0  0  0  0  0  0  0  0  0  0
   49.5320   32.8510   42.2030 C   0  0  0  0  0  0  0  0  0  0  0  0
   48.2840   32.9710   43.0630 C   0  0  0  0  0  0  0  0  0  0  0  0
   45.3510   34.2540   45.5060 C   0  0  0  0  0  0  0  0  0  0  0  0
   44.5740   35.4130   45.2350 C   0  0  0  0  0  0  0  0  0  0  0  0
   44.7710   36.0810   44.0080 C   0  0  0  0  0  0  0  0  0  0  0  0
   45.6930   35.5800   43.1490 N   0  0  0  0  0  0  0  0  0  0  0  0
   46.4150   34.4780   43.4320 C   0  0  0  0  0  0  0  0  0  0  0  0
   46.2420   33.8180   44.6100 N   0  0  0  0  0  0  0  0  0  0  0  0
   46.6510   33.3540   41.4400 O   0  0  0  0  0  0  0  0  0  0  0  0
   47.5658   36.0602   42.0240 H   0  0  0  0  0  0  0  0  0  0  0  0
   48.2316   34.9089   40.7411 H   0  0  0  0  0  0  0  0  0  0  0  0
   50.0325   36.0454   41.5735 H   0  0  0  0  0  0  0  0  0  0  0  0
   49.4602   35.8029   43.2918 H   0  0  0  0  0  0  0  0  0  0  0  0
   51.1235   34.1381   41.6295 H   0  0  0  0  0  0  0  0  0  0  0  0
   50.7330   34.0814   43.4182 H   0  0  0  0  0  0  0  0  0  0  0  0
   49.2507   32.7408   41.1453 H   0  0  0  0  0  0  0  0  0  0  0  0
   50.1210   31.9687   42.4939 H   0  0  0  0  0  0  0  0  0  0  0  0
   48.5569   33.2943   44.0784 H   0  0  0  0  0  0  0  0  0  0  0  0
   47.7703   32.0013   43.1388 H   0  0  0  0  0  0  0  0  0  0  0  0
   45.2187   33.7145   46.4555 H   0  0  0  0  0  0  0  0  0  0  0  0
   43.8369   35.7802   45.9643 H   0  0  0  0  0  0  0  0  0  0  0  0
   44.1933   36.9823   43.7554 H   0  0  0  0  0  0  0  0  0  0  0  0
   45.9595   32.7842   41.8610 H   0  0  0  0  0  0  0  0  0  0  0  0
  1  6  1  0
  1 11  1  0
  2  3  1  0
  2  1  1  0
  3  4  1  0
  5  4  1  0
  5  6  1  0
  8  7  2  0
  9  8  1  0
 10 11  1  0
 10  9  2  0
 11 12  2  0
 12  7  1  0
 13  1  1  0
  2 14  1  0
  2 15  1  0
  3 16  1  0
  3 17  1  0
  4 18  1  0
  4 19  1  0
  5 20  1  0
  5 21  1  0
  6 22  1  0
  6 23  1  0
  7 24  1  0
  8 25  1  0
  9 26  1  0
 13 27  1  0
M  ISO  8  14  13  15  13  16  13  17  13  18  13  19  13  20  13  21  13
M  ISO  6  22  13  23  13  24  14  25  14  26  14  27   3
M  END
>  <minimizedAffinity>  (1) 
-4.81521511

>  <minimizedRMSD>  (1) 
0.0328309312

$$$$
