
     RDKit          3D

 47 51  0  0  0  0  0  0  0  0999 V2000
   47.6130   34.1170   42.2200 C   0  0  0  0  0  0  0  0  0  0  0  0
   48.4450   35.2540   41.7000 C   0  0  0  0  0  0  0  0  0  0  0  0
   49.7780   35.4070   42.3290 C   0  0  0  0  0  0  0  0  0  0  0  0
   50.5340   34.1450   42.5200 C   0  0  0  0  0  0  0  0  0  0  0  0
   49.7270   32.8950   42.2470 C   0  0  0  0  0  0  0  0  0  0  0  0
   48.3960   33.0700   42.9580 C   0  0  0  0  0  0  0  0  0  0  0  0
   45.2640   34.4290   45.0730 C   0  0  0  0  0  0  0  0  0  0  0  0
   44.5400   35.5690   44.7520 C   0  0  0  0  0  0  0  0  0  0  0  0
   44.8550   36.2330   43.5600 C   0  0  0  0  0  0  0  0  0  0  0  0
   45.8490   35.7290   42.7820 N   0  0  0  0  0  0  0  0  0  0  0  0
   46.5370   34.6090   43.1300 C   0  0  0  0  0  0  0  0  0  0  0  0
   46.2280   33.9700   44.2870 N   0  0  0  0  0  0  0  0  0  0  0  0
   46.9830   33.4280   41.0380 C   0  0  0  0  0  0  0  0  0  0  0  0
   45.9820   32.4970   40.8120 C   0  0  0  0  0  0  0  0  0  0  0  0
   45.7370   32.1450   39.5380 C   0  0  0  0  0  0  0  0  0  0  0  0
   46.4270   32.6640   38.5060 C   0  0  0  0  0  0  0  0  0  0  0  0
   47.6070   33.8220   39.3740 S   0  0  0  0  0  0  0  0  0  0  0  0
   46.3790   32.4820   37.1550 N   0  0  0  0  0  0  0  0  0  0  0  0
   45.3400   32.6040   36.3080 C   0  0  0  0  0  0  0  0  0  0  0  0
   45.7550   32.3250   35.0380 N   0  0  0  0  0  0  0  0  0  0  0  0
   47.0760   32.0260   35.1000 C   0  0  0  0  0  0  0  0  0  0  0  0
   47.9980   31.6700   34.1260 C   0  0  0  0  0  0  0  0  0  0  0  0
   47.6650   31.5730   32.9110 O   0  0  0  0  0  0  0  0  0  0  0  0
   49.2810   31.4190   34.4700 N   0  0  0  0  0  0  0  0  0  0  0  0
   49.6140   31.5250   35.7590 C   0  0  0  0  0  0  0  0  0  0  0  0
   50.9490   31.2790   36.2210 N   0  0  0  0  0  0  0  0  0  0  0  0
   48.7610   31.8680   36.7560 N   0  0  0  0  0  0  0  0  0  0  0  0
   47.4760   32.1230   36.4370 C   0  0  0  0  0  0  0  0  0  0  0  0
   48.5947   35.0991   40.6213 H   0  0  0  0  0  0  0  0  0  0  0  0
   47.8889   36.1716   41.9424 H   0  0  0  0  0  0  0  0  0  0  0  0
   50.3805   36.0718   41.6926 H   0  0  0  0  0  0  0  0  0  0  0  0
   49.5962   35.8098   43.3363 H   0  0  0  0  0  0  0  0  0  0  0  0
   51.3984   34.1537   41.8398 H   0  0  0  0  0  0  0  0  0  0  0  0
   50.8278   34.1081   43.5794 H   0  0  0  0  0  0  0  0  0  0  0  0
   49.5661   32.7764   41.1653 H   0  0  0  0  0  0  0  0  0  0  0  0
   50.2528   31.9984   42.6071 H   0  0  0  0  0  0  0  0  0  0  0  0
   48.5662   33.3928   43.9957 H   0  0  0  0  0  0  0  0  0  0  0  0
   47.8430   32.1193   42.9756 H   0  0  0  0  0  0  0  0  0  0  0  0
   45.0317   33.8920   46.0045 H   0  0  0  0  0  0  0  0  0  0  0  0
   43.7432   35.9395   45.4137 H   0  0  0  0  0  0  0  0  0  0  0  0
   44.3109   37.1409   43.2604 H   0  0  0  0  0  0  0  0  0  0  0  0
   45.4091   32.0621   41.6442 H   0  0  0  0  0  0  0  0  0  0  0  0
   44.9464   31.4084   39.3324 H   0  0  0  0  0  0  0  0  0  0  0  0
   44.3158   32.8848   36.5947 H   0  0  0  0  0  0  0  0  0  0  0  0
   49.9794   31.1545   33.7607 H   0  0  0  0  0  0  0  0  0  0  0  0
   51.1723   31.3696   37.2224 H   0  0  0  0  0  0  0  0  0  0  0  0
   51.6846   31.0117   35.5514 H   0  0  0  0  0  0  0  0  0  0  0  0
  1  6  1  0
  1 11  1  0
  2  1  1  0
  2  3  1  0
  3  4  1  0
  5  4  1  0
  5  6  1  0
  8  7  2  0
  9  8  1  0
 10 11  1  0
 10  9  2  0
 11 12  2  0
 12  7  1  0
 13  1  1  0
 14 13  2  0
 15 14  1  0
 16 17  1  0
 16 15  2  0
 17 13  1  0
 18 16  1  0
 19 18  1  0
 20 21  1  0
 20 19  2  0
 21 28  2  0
 22 24  1  0
 22 21  1  0
 23 22  2  0
 24 25  1  0
 25 26  1  0
 25 27  2  0
 28 27  1  0
 28 18  1  0
  2 29  1  0
  2 30  1  0
  3 31  1  0
  3 32  1  0
  4 33  1  0
  4 34  1  0
  5 35  1  0
  5 36  1  0
  6 37  1  0
  6 38  1  0
  7 39  1  0
  8 40  1  0
  9 41  1  0
 14 42  1  0
 15 43  1  0
 19 44  1  0
 24 45  1  0
 26 46  1  0
 26 47  1  0
M  ISO  8  29  13  30  13  31  13  32  13  33  13  34  13  35  13  36  13
M  ISO  8  37  13  38  13  39  14  40  14  41  14  42  14  43  14  44  14
M  ISO  1  45   9
M  END
>  <minimizedAffinity>  (1) 
-6.93335962

>  <minimizedRMSD>  (1) 
0.322221488

$$$$
