
     RDKit          3D

 40 43  0  0  0  0  0  0  0  0999 V2000
   47.5540   34.1430   42.1990 C   0  0  0  0  0  0  0  0  0  0  0  0
   48.4180   35.2700   41.7070 C   0  0  0  0  0  0  0  0  0  0  0  0
   49.7540   35.3640   42.3280 C   0  0  0  0  0  0  0  0  0  0  0  0
   50.4740   34.0710   42.4720 C   0  0  0  0  0  0  0  0  0  0  0  0
   49.6210   32.8680   42.1700 C   0  0  0  0  0  0  0  0  0  0  0  0
   48.3010   33.0530   42.9020 C   0  0  0  0  0  0  0  0  0  0  0  0
   45.2470   34.4620   45.0800 C   0  0  0  0  0  0  0  0  0  0  0  0
   44.5390   35.6230   44.7930 C   0  0  0  0  0  0  0  0  0  0  0  0
   44.8560   36.2960   43.6080 C   0  0  0  0  0  0  0  0  0  0  0  0
   45.8290   35.7890   42.8080 N   0  0  0  0  0  0  0  0  0  0  0  0
   46.4960   34.6500   43.1280 C   0  0  0  0  0  0  0  0  0  0  0  0
   46.1860   33.9980   44.2780 N   0  0  0  0  0  0  0  0  0  0  0  0
   46.8910   33.5110   41.0040 C   0  0  0  0  0  0  0  0  0  0  0  0
   45.7850   32.7240   40.7430 C   0  0  0  0  0  0  0  0  0  0  0  0
   45.5570   32.3730   39.4640 C   0  0  0  0  0  0  0  0  0  0  0  0
   46.3610   32.7630   38.4620 C   0  0  0  0  0  0  0  0  0  0  0  0
   47.6510   33.7710   39.3630 S   0  0  0  0  0  0  0  0  0  0  0  0
   46.3560   32.5510   37.1040 N   0  0  0  0  0  0  0  0  0  0  0  0
   45.2530   32.4570   36.3340 C   0  0  0  0  0  0  0  0  0  0  0  0
   45.6670   32.2450   35.0430 C   0  0  0  0  0  0  0  0  0  0  0  0
   47.0210   32.2100   35.0120 N   0  0  0  0  0  0  0  0  0  0  0  0
   47.4270   32.4020   36.2960 C   0  0  0  0  0  0  0  0  0  0  0  0
   48.5562   35.1429   40.6231 H   0  0  0  0  0  0  0  0  0  0  0  0
   47.8916   36.1961   41.9811 H   0  0  0  0  0  0  0  0  0  0  0  0
   50.3717   36.0311   41.7087 H   0  0  0  0  0  0  0  0  0  0  0  0
   49.5920   35.7402   43.3489 H   0  0  0  0  0  0  0  0  0  0  0  0
   51.3307   34.0716   41.7821 H   0  0  0  0  0  0  0  0  0  0  0  0
   50.7836   33.9903   43.5244 H   0  0  0  0  0  0  0  0  0  0  0  0
   49.4436   32.7949   41.0869 H   0  0  0  0  0  0  0  0  0  0  0  0
   50.1211   31.9445   42.4972 H   0  0  0  0  0  0  0  0  0  0  0  0
   48.4869   33.3376   43.9482 H   0  0  0  0  0  0  0  0  0  0  0  0
   47.7202   32.1188   42.9020 H   0  0  0  0  0  0  0  0  0  0  0  0
   45.0172   33.9128   46.0049 H   0  0  0  0  0  0  0  0  0  0  0  0
   43.7590   35.9985   45.4717 H   0  0  0  0  0  0  0  0  0  0  0  0
   44.3266   37.2191   43.3295 H   0  0  0  0  0  0  0  0  0  0  0  0
   45.1152   32.3964   41.5518 H   0  0  0  0  0  0  0  0  0  0  0  0
   44.6834   31.7461   39.2319 H   0  0  0  0  0  0  0  0  0  0  0  0
   44.2112   32.5359   36.6781 H   0  0  0  0  0  0  0  0  0  0  0  0
   45.0055   32.1230   34.1727 H   0  0  0  0  0  0  0  0  0  0  0  0
   48.4754   32.4315   36.6276 H   0  0  0  0  0  0  0  0  0  0  0  0
  1  6  1  0
  1 11  1  0
  2  1  1  0
  2  3  1  0
  3  4  1  0
  5  4  1  0
  5  6  1  0
  8  7  2  0
  9  8  1  0
 10 11  1  0
 10  9  2  0
 11 12  2  0
 12  7  1  0
 13  1  1  0
 14 13  2  0
 15 14  1  0
 16 17  1  0
 16 15  2  0
 17 13  1  0
 18 16  1  0
 19 18  1  0
 20 19  2  0
 21 20  1  0
 21 22  2  0
 22 18  1  0
  2 23  1  0
  2 24  1  0
  3 25  1  0
  3 26  1  0
  4 27  1  0
  4 28  1  0
  5 29  1  0
  5 30  1  0
  6 31  1  0
  6 32  1  0
  7 33  1  0
  8 34  1  0
  9 35  1  0
 14 36  1  0
 15 37  1  0
 19 38  1  0
 20 39  1  0
 22 40  1  0
M  ISO  8  23  13  24  13  25  13  26  13  27  13  28  13  29  13  30  13
M  ISO  8  31  13  32  13  33  14  34  14  35  14  36  14  37  14  38  14
M  ISO  2  39  14  40  14
M  END
>  <minimizedAffinity>  (1) 
-5.87771559

>  <minimizedRMSD>  (1) 
0.27225098

$$$$
