
     RDKit          3D

 34 36  0  0  0  0  0  0  0  0999 V2000
   47.5700   34.1420   42.1640 C   0  0  0  0  0  0  0  0  0  0  0  0
   48.4980   35.2770   41.7790 C   0  0  0  0  0  0  0  0  0  0  0  0
   49.8250   35.2490   42.4290 C   0  0  0  0  0  0  0  0  0  0  0  0
   50.4730   33.8980   42.4760 C   0  0  0  0  0  0  0  0  0  0  0  0
   49.5620   32.7680   42.0770 C   0  0  0  0  0  0  0  0  0  0  0  0
   48.2460   32.9700   42.7860 C   0  0  0  0  0  0  0  0  0  0  0  0
   45.2850   34.4130   45.0670 C   0  0  0  0  0  0  0  0  0  0  0  0
   44.5730   35.5910   44.7980 C   0  0  0  0  0  0  0  0  0  0  0  0
   44.8760   36.2780   43.6390 C   0  0  0  0  0  0  0  0  0  0  0  0
   45.8470   35.7770   42.8240 N   0  0  0  0  0  0  0  0  0  0  0  0
   46.5190   34.6370   43.1080 C   0  0  0  0  0  0  0  0  0  0  0  0
   46.2210   33.9590   44.2480 N   0  0  0  0  0  0  0  0  0  0  0  0
   46.9040   33.6470   40.9090 C   0  0  0  0  0  0  0  0  0  0  0  0
   45.7650   32.9570   40.5500 C   0  0  0  0  0  0  0  0  0  0  0  0
   45.5340   32.7120   39.2550 C   0  0  0  0  0  0  0  0  0  0  0  0
   46.3920   33.1260   38.3030 C   0  0  0  0  0  0  0  0  0  0  0  0
   47.7060   33.9750   39.3150 S   0  0  0  0  0  0  0  0  0  0  0  0
   46.4080   33.0220   36.9760 O   0  0  0  0  0  0  0  0  0  0  0  0
   48.6508   35.2381   40.6904 H   0  0  0  0  0  0  0  0  0  0  0  0
   48.0092   36.2017   42.1196 H   0  0  0  0  0  0  0  0  0  0  0  0
   50.4908   35.9290   41.8773 H   0  0  0  0  0  0  0  0  0  0  0  0
   49.6646   35.5523   43.4741 H   0  0  0  0  0  0  0  0  0  0  0  0
   51.3358   33.9042   41.7936 H   0  0  0  0  0  0  0  0  0  0  0  0
   50.7619   33.7197   43.5223 H   0  0  0  0  0  0  0  0  0  0  0  0
   49.4067   32.7782   40.9881 H   0  0  0  0  0  0  0  0  0  0  0  0
   50.0045   31.7995   42.3531 H   0  0  0  0  0  0  0  0  0  0  0  0
   48.4222   33.1631   43.8545 H   0  0  0  0  0  0  0  0  0  0  0  0
   47.6184   32.0712   42.6953 H   0  0  0  0  0  0  0  0  0  0  0  0
   45.0593   33.8501   45.9847 H   0  0  0  0  0  0  0  0  0  0  0  0
   43.7981   35.9560   45.4881 H   0  0  0  0  0  0  0  0  0  0  0  0
   44.3467   37.2068   43.3798 H   0  0  0  0  0  0  0  0  0  0  0  0
   45.0563   32.6129   41.3177 H   0  0  0  0  0  0  0  0  0  0  0  0
   44.6270   32.1626   38.9627 H   0  0  0  0  0  0  0  0  0  0  0  0
   47.1571   33.4102   36.4581 H   0  0  0  0  0  0  0  0  0  0  0  0
  1  6  1  0
  1 11  1  0
  2  1  1  0
  2  3  1  0
  3  4  1  0
  5  4  1  0
  5  6  1  0
  8  7  2  0
  9  8  1  0
 10 11  1  0
 10  9  2  0
 11 12  2  0
 12  7  1  0
 13  1  1  0
 14 13  2  0
 15 14  1  0
 16 15  2  0
 16 17  1  0
 17 13  1  0
 18 16  1  0
  2 19  1  0
  2 20  1  0
  3 21  1  0
  3 22  1  0
  4 23  1  0
  4 24  1  0
  5 25  1  0
  5 26  1  0
  6 27  1  0
  6 28  1  0
  7 29  1  0
  8 30  1  0
  9 31  1  0
 14 32  1  0
 15 33  1  0
 18 34  1  0
M  ISO  8  19  13  20  13  21  13  22  13  23  13  24  13  25  13  26  13
M  ISO  8  27  13  28  13  29  14  30  14  31  14  32  14  33  14  34   3
M  END
>  <minimizedAffinity>  (1) 
-5.51486588

>  <minimizedRMSD>  (1) 
0.05081461

$$$$
