
     RDKit          3D

 34 37  0  0  0  0  0  0  0  0999 V2000
   45.1480   33.7900   40.7430 C   0  0  0  0  0  0  0  0  0  0  0  0
   45.9220   34.3550   41.7600 C   0  0  0  0  0  0  0  0  0  0  0  0
   47.1690   34.5590   41.3010 N   0  0  0  0  0  0  0  0  0  0  0  0
   47.2050   34.1380   40.0180 C   0  0  0  0  0  0  0  0  0  0  0  0
   48.2600   34.1380   39.1340 C   0  0  0  0  0  0  0  0  0  0  0  0
   48.0210   33.6370   37.8670 C   0  0  0  0  0  0  0  0  0  0  0  0
   46.8040   33.1360   37.4180 C   0  0  0  0  0  0  0  0  0  0  0  0
   45.8050   33.1760   38.3690 C   0  0  0  0  0  0  0  0  0  0  0  0
   45.9500   33.6490   39.6340 C   0  0  0  0  0  0  0  0  0  0  0  0
   41.4360   33.9210   40.4110 C   0  0  0  0  0  0  0  0  0  0  0  0
   42.7870   34.2840   40.3290 C   0  0  0  0  0  0  0  0  0  0  0  0
   43.7420   33.4110   40.8280 C   0  0  0  0  0  0  0  0  0  0  0  0
   43.3420   32.2190   41.3880 N   0  0  0  0  0  0  0  0  0  0  0  0
   42.0150   31.9160   41.4420 C   0  0  0  0  0  0  0  0  0  0  0  0
   41.0730   32.7470   40.9660 N   0  0  0  0  0  0  0  0  0  0  0  0
   45.4880   34.6860   43.1210 C   0  0  0  0  0  0  0  0  0  0  0  0
   44.8240   35.8510   43.4520 C   0  0  0  0  0  0  0  0  0  0  0  0
   44.4660   36.0430   44.7910 C   0  0  0  0  0  0  0  0  0  0  0  0
   44.7750   35.0860   45.7440 C   0  0  0  0  0  0  0  0  0  0  0  0
   45.4400   33.9240   45.4000 C   0  0  0  0  0  0  0  0  0  0  0  0
   45.7960   33.7240   44.0910 C   0  0  0  0  0  0  0  0  0  0  0  0
   47.9542   34.9629   41.8313 H   0  0  0  0  0  0  0  0  0  0  0  0
   49.2504   34.5199   39.4226 H   0  0  0  0  0  0  0  0  0  0  0  0
   48.8615   33.6347   37.1574 H   0  0  0  0  0  0  0  0  0  0  0  0
   46.6521   32.7449   36.4012 H   0  0  0  0  0  0  0  0  0  0  0  0
   44.8142   32.7953   38.0802 H   0  0  0  0  0  0  0  0  0  0  0  0
   40.6645   34.6001   40.0190 H   0  0  0  0  0  0  0  0  0  0  0  0
   43.0840   35.2422   39.8778 H   0  0  0  0  0  0  0  0  0  0  0  0
   41.7049   30.9603   41.8897 H   0  0  0  0  0  0  0  0  0  0  0  0
   44.5842   36.6042   42.6870 H   0  0  0  0  0  0  0  0  0  0  0  0
   43.9358   36.9596   45.0889 H   0  0  0  0  0  0  0  0  0  0  0  0
   44.4863   35.2537   46.7921 H   0  0  0  0  0  0  0  0  0  0  0  0
   45.6800   33.1709   46.1650 H   0  0  0  0  0  0  0  0  0  0  0  0
   46.3256   32.8043   43.8017 H   0  0  0  0  0  0  0  0  0  0  0  0
  1 12  1  0
  1  2  2  0
  2 16  1  0
  3  2  1  0
  4  3  1  0
  5  4  2  0
  6  5  1  0
  7  6  2  0
  7  8  1  0
  8  9  2  0
  9  4  1  0
  9  1  1  0
 10 15  2  0
 11 10  1  0
 11 12  2  0
 12 13  1  0
 13 14  2  0
 15 14  1  0
 16 17  2  0
 16 21  1  0
 17 18  1  0
 18 19  2  0
 20 19  1  0
 21 20  2  0
  3 22  1  0
  5 23  1  0
  6 24  1  0
  7 25  1  0
  8 26  1  0
 10 27  1  0
 11 28  1  0
 14 29  1  0
 17 30  1  0
 18 31  1  0
 19 32  1  0
 20 33  1  0
 21 34  1  0
M  ISO  8  22   9  23  14  24  14  25  14  26  14  27  14  28  14  29  14
M  ISO  5  30  14  31  14  32  14  33  14  34  14
M  END
>  <minimizedAffinity>  (1) 
-5.52311468

>  <minimizedRMSD>  (1) 
4.08603525

$$$$
