
     RDKit          3D

 31 34  0  0  0  0  0  0  0  0999 V2000
   45.1930   33.7970   41.5120 C   0  0  0  0  0  0  0  0  0  0  0  0
   45.8500   34.4800   42.5150 C   0  0  0  0  0  0  0  0  0  0  0  0
   47.0520   34.8750   42.0910 N   0  0  0  0  0  0  0  0  0  0  0  0
   47.1870   34.4570   40.8230 C   0  0  0  0  0  0  0  0  0  0  0  0
   48.2420   34.6120   39.9380 C   0  0  0  0  0  0  0  0  0  0  0  0
   48.1180   34.0800   38.6780 C   0  0  0  0  0  0  0  0  0  0  0  0
   46.9910   33.3820   38.2090 C   0  0  0  0  0  0  0  0  0  0  0  0
   45.9860   33.2700   39.1440 C   0  0  0  0  0  0  0  0  0  0  0  0
   46.0390   33.7760   40.4210 C   0  0  0  0  0  0  0  0  0  0  0  0
   41.5090   33.3460   41.1430 C   0  0  0  0  0  0  0  0  0  0  0  0
   42.7870   33.9300   41.0870 C   0  0  0  0  0  0  0  0  0  0  0  0
   43.8690   33.2040   41.5650 C   0  0  0  0  0  0  0  0  0  0  0  0
   43.6420   31.9430   42.0720 N   0  0  0  0  0  0  0  0  0  0  0  0
   42.3920   31.4190   42.1070 C   0  0  0  0  0  0  0  0  0  0  0  0
   41.3280   32.1080   41.6480 N   0  0  0  0  0  0  0  0  0  0  0  0
   45.3660   34.7530   43.8280 N   0  0  0  0  0  0  0  0  0  0  0  0
   44.6210   35.7400   44.3870 C   0  0  0  0  0  0  0  0  0  0  0  0
   44.4840   35.4410   45.7320 C   0  0  0  0  0  0  0  0  0  0  0  0
   45.1370   34.2870   45.9850 N   0  0  0  0  0  0  0  0  0  0  0  0
   45.6700   33.8780   44.8160 C   0  0  0  0  0  0  0  0  0  0  0  0
   47.7479   35.4033   42.6364 H   0  0  0  0  0  0  0  0  0  0  0  0
   49.1552   35.1474   40.2370 H   0  0  0  0  0  0  0  0  0  0  0  0
   48.9622   34.2094   37.9848 H   0  0  0  0  0  0  0  0  0  0  0  0
   46.9190   32.9656   37.1934 H   0  0  0  0  0  0  0  0  0  0  0  0
   45.0719   32.7353   38.8464 H   0  0  0  0  0  0  0  0  0  0  0  0
   40.6412   33.9086   40.7683 H   0  0  0  0  0  0  0  0  0  0  0  0
   42.9261   34.9398   40.6735 H   0  0  0  0  0  0  0  0  0  0  0  0
   42.2428   30.4100   42.5188 H   0  0  0  0  0  0  0  0  0  0  0  0
   44.2034   36.6153   43.8678 H   0  0  0  0  0  0  0  0  0  0  0  0
   43.9349   36.0432   46.4708 H   0  0  0  0  0  0  0  0  0  0  0  0
   46.2669   32.9636   44.6836 H   0  0  0  0  0  0  0  0  0  0  0  0
  1 12  1  0
  1  2  2  0
  2 16  1  0
  3  2  1  0
  4  3  1  0
  5  4  2  0
  6  5  1  0
  7  6  2  0
  7  8  1  0
  8  9  2  0
  9  4  1  0
  9  1  1  0
 10 15  2  0
 11 10  1  0
 11 12  2  0
 12 13  1  0
 13 14  2  0
 15 14  1  0
 16 17  1  0
 16 20  1  0
 17 18  2  0
 18 19  1  0
 20 19  2  0
  3 21  1  0
  5 22  1  0
  6 23  1  0
  7 24  1  0
  8 25  1  0
 10 26  1  0
 11 27  1  0
 14 28  1  0
 17 29  1  0
 18 30  1  0
 20 31  1  0
M  ISO  8  21   9  22  14  23  14  24  14  25  14  26  14  27  14  28  14
M  ISO  3  29  14  30  14  31  14
M  END
>  <minimizedAffinity>  (1) 
-5.469841

>  <minimizedRMSD>  (1) 
3.92876983

$$$$
