
     RDKit          3D

 30 33  0  0  0  0  0  0  0  0999 V2000
   45.0930   33.8100   41.2990 C   0  0  0  0  0  0  0  0  0  0  0  0
   45.8170   34.4500   42.3080 C   0  0  0  0  0  0  0  0  0  0  0  0
   47.0430   34.7460   41.8430 N   0  0  0  0  0  0  0  0  0  0  0  0
   47.1150   34.3110   40.5620 C   0  0  0  0  0  0  0  0  0  0  0  0
   48.1530   34.3770   39.6590 C   0  0  0  0  0  0  0  0  0  0  0  0
   47.9580   33.8510   38.4100 C   0  0  0  0  0  0  0  0  0  0  0  0
   46.7860   33.2480   37.9710 C   0  0  0  0  0  0  0  0  0  0  0  0
   45.7900   33.2160   38.9270 C   0  0  0  0  0  0  0  0  0  0  0  0
   45.9100   33.7160   40.1830 C   0  0  0  0  0  0  0  0  0  0  0  0
   41.3690   33.6710   41.0850 C   0  0  0  0  0  0  0  0  0  0  0  0
   42.6910   34.1630   40.9920 C   0  0  0  0  0  0  0  0  0  0  0  0
   43.7210   33.3220   41.3880 C   0  0  0  0  0  0  0  0  0  0  0  0
   43.4160   32.0600   41.8500 N   0  0  0  0  0  0  0  0  0  0  0  0
   42.1300   31.6400   41.9180 C   0  0  0  0  0  0  0  0  0  0  0  0
   41.1080   32.4300   41.5420 N   0  0  0  0  0  0  0  0  0  0  0  0
   45.3610   34.7520   43.6220 N   0  0  0  0  0  0  0  0  0  0  0  0
   44.8860   36.0220   43.7650 C   0  0  0  0  0  0  0  0  0  0  0  0
   44.4780   36.2070   45.0490 N   0  0  0  0  0  0  0  0  0  0  0  0
   44.7120   35.0320   45.6850 C   0  0  0  0  0  0  0  0  0  0  0  0
   45.2540   34.1480   44.7980 N   0  0  0  0  0  0  0  0  0  0  0  0
   47.7933   35.2188   42.3668 H   0  0  0  0  0  0  0  0  0  0  0  0
   49.1124   34.8396   39.9338 H   0  0  0  0  0  0  0  0  0  0  0  0
   48.7948   33.9105   37.6985 H   0  0  0  0  0  0  0  0  0  0  0  0
   46.6631   32.8355   36.9587 H   0  0  0  0  0  0  0  0  0  0  0  0
   44.8314   32.7524   38.6510 H   0  0  0  0  0  0  0  0  0  0  0  0
   40.5332   34.3164   40.7770 H   0  0  0  0  0  0  0  0  0  0  0  0
   42.8959   35.1772   40.6187 H   0  0  0  0  0  0  0  0  0  0  0  0
   41.9158   30.6272   42.2901 H   0  0  0  0  0  0  0  0  0  0  0  0
   44.8400   36.7780   42.9673 H   0  0  0  0  0  0  0  0  0  0  0  0
   44.4993   34.8252   46.7442 H   0  0  0  0  0  0  0  0  0  0  0  0
  1 12  1  0
  1  2  2  0
  2 16  1  0
  3  2  1  0
  4  3  1  0
  5  4  2  0
  6  5  1  0
  7  6  2  0
  7  8  1  0
  8  9  2  0
  9  4  1  0
  9  1  1  0
 10 15  2  0
 11 10  1  0
 11 12  2  0
 12 13  1  0
 13 14  2  0
 15 14  1  0
 16 17  1  0
 16 20  1  0
 17 18  2  0
 18 19  1  0
 20 19  2  0
  3 21  1  0
  5 22  1  0
  6 23  1  0
  7 24  1  0
  8 25  1  0
 10 26  1  0
 11 27  1  0
 14 28  1  0
 17 29  1  0
 19 30  1  0
M  ISO  8  21   9  22  14  23  14  24  14  25  14  26  14  27  14  28  14
M  ISO  2  29  14  30  14
M  END
>  <minimizedAffinity>  (1) 
-5.33413076

>  <minimizedRMSD>  (1) 
3.87276483

$$$$
