
     RDKit          3D

 30 32  0  0  0  0  0  0  0  0999 V2000
   46.9840   34.5180   41.3230 C   0  0  0  0  0  0  0  0  0  0  0  0
   48.2410   34.9730   40.9940 C   0  0  0  0  0  0  0  0  0  0  0  0
   48.5270   34.6630   39.7280 N   0  0  0  0  0  0  0  0  0  0  0  0
   47.4650   34.0090   39.2260 C   0  0  0  0  0  0  0  0  0  0  0  0
   47.2490   33.4740   37.9640 C   0  0  0  0  0  0  0  0  0  0  0  0
   46.0500   32.8490   37.7180 C   0  0  0  0  0  0  0  0  0  0  0  0
   45.0180   32.7030   38.6420 C   0  0  0  0  0  0  0  0  0  0  0  0
   45.2980   33.2560   39.8790 C   0  0  0  0  0  0  0  0  0  0  0  0
   46.4630   33.8950   40.2040 C   0  0  0  0  0  0  0  0  0  0  0  0
   44.7880   35.8520   44.0340 C   0  0  0  0  0  0  0  0  0  0  0  0
   45.4440   35.7290   42.7970 C   0  0  0  0  0  0  0  0  0  0  0  0
   46.3000   34.6520   42.6020 C   0  0  0  0  0  0  0  0  0  0  0  0
   46.4710   33.7470   43.6240 N   0  0  0  0  0  0  0  0  0  0  0  0
   45.8120   33.9100   44.8030 C   0  0  0  0  0  0  0  0  0  0  0  0
   44.9770   34.9490   45.0130 N   0  0  0  0  0  0  0  0  0  0  0  0
   49.1370   35.7010   41.9270 C   0  0  0  0  0  0  0  0  0  0  0  0
   50.0820   34.7500   42.6290 C   0  0  0  0  0  0  0  0  0  0  0  0
   49.3999   34.8839   39.2279 H   0  0  0  0  0  0  0  0  0  0  0  0
   48.0177   33.5482   37.1806 H   0  0  0  0  0  0  0  0  0  0  0  0
   45.8930   32.4313   36.7126 H   0  0  0  0  0  0  0  0  0  0  0  0
   44.0698   32.1959   38.4101 H   0  0  0  0  0  0  0  0  0  0  0  0
   44.5265   33.1758   40.6590 H   0  0  0  0  0  0  0  0  0  0  0  0
   44.1090   36.7005   44.2043 H   0  0  0  0  0  0  0  0  0  0  0  0
   45.2831   36.4699   42.0000 H   0  0  0  0  0  0  0  0  0  0  0  0
   45.9640   33.1748   45.6070 H   0  0  0  0  0  0  0  0  0  0  0  0
   49.7247   36.4375   41.3594 H   0  0  0  0  0  0  0  0  0  0  0  0
   48.5181   36.2020   42.6860 H   0  0  0  0  0  0  0  0  0  0  0  0
   49.9719   34.8608   43.7178 H   0  0  0  0  0  0  0  0  0  0  0  0
   49.8434   33.7159   42.3397 H   0  0  0  0  0  0  0  0  0  0  0  0
   51.1176   34.9820   42.3397 H   0  0  0  0  0  0  0  0  0  0  0  0
  1 12  1  0
  2  1  2  0
  2 16  1  0
  3  2  1  0
  4  3  1  0
  4  9  2  0
  5  4  1  0
  6  5  2  0
  6  7  1  0
  7  8  2  0
  8  9  1  0
  9  1  1  0
 10 15  2  0
 11 10  1  0
 12 11  2  0
 12 13  1  0
 13 14  2  0
 14 15  1  0
 16 17  1  0
  3 18  1  0
  5 19  1  0
  6 20  1  0
  7 21  1  0
  8 22  1  0
 10 23  1  0
 11 24  1  0
 14 25  1  0
 16 26  1  0
 16 27  1  0
 17 28  1  0
 17 29  1  0
 17 30  1  0
M  ISO  8  18   9  19  14  20  14  21  14  22  14  23  14  24  14  25  14
M  ISO  5  26   8  27   8  28   8  29   8  30   8
M  END
>  <minimizedAffinity>  (1) 
-5.59962845

>  <minimizedRMSD>  (1) 
0.880328894

$$$$
