
     RDKit          3D

 43 46  0  0  0  0  0  0  0  0999 V2000
   46.7740   34.4820   41.3050 C   0  0  0  0  0  0  0  0  0  0  0  0
   48.0660   34.8240   40.9590 C   0  0  0  0  0  0  0  0  0  0  0  0
   48.2920   34.4740   39.6900 N   0  0  0  0  0  0  0  0  0  0  0  0
   47.1700   33.9110   39.2120 C   0  0  0  0  0  0  0  0  0  0  0  0
   46.8800   33.3830   37.9650 C   0  0  0  0  0  0  0  0  0  0  0  0
   45.6320   32.8640   37.7430 C   0  0  0  0  0  0  0  0  0  0  0  0
   44.6130   32.8210   38.6830 C   0  0  0  0  0  0  0  0  0  0  0  0
   44.9580   33.3620   39.9120 C   0  0  0  0  0  0  0  0  0  0  0  0
   46.1820   33.8980   40.2080 C   0  0  0  0  0  0  0  0  0  0  0  0
   44.7500   36.0570   44.0220 C   0  0  0  0  0  0  0  0  0  0  0  0
   45.3730   35.8500   42.7850 C   0  0  0  0  0  0  0  0  0  0  0  0
   46.1270   34.6900   42.5960 C   0  0  0  0  0  0  0  0  0  0  0  0
   46.2240   33.8010   43.6320 N   0  0  0  0  0  0  0  0  0  0  0  0
   45.6010   34.0440   44.8130 C   0  0  0  0  0  0  0  0  0  0  0  0
   44.8680   35.1610   45.0130 N   0  0  0  0  0  0  0  0  0  0  0  0
   49.0330   35.4740   41.8580 C   0  0  0  0  0  0  0  0  0  0  0  0
   49.8620   34.4570   42.6160 C   0  0  0  0  0  0  0  0  0  0  0  0
   49.9250   33.1340   41.9400 C   0  0  0  0  0  0  0  0  0  0  0  0
   49.2110   32.1060   42.8080 C   0  0  0  0  0  0  0  0  0  0  0  0
   50.0600   30.8730   42.7860 C   0  0  0  0  0  0  0  0  0  0  0  0
   51.3130   31.1600   42.0240 C   0  0  0  0  0  0  0  0  0  0  0  0
   51.3720   32.6560   41.9470 C   0  0  0  0  0  0  0  0  0  0  0  0
   49.1706   34.6114   39.1702 H   0  0  0  0  0  0  0  0  0  0  0  0
   47.6378   33.3805   37.1677 H   0  0  0  0  0  0  0  0  0  0  0  0
   45.4224   32.4507   36.7454 H   0  0  0  0  0  0  0  0  0  0  0  0
   43.6205   32.3960   38.4724 H   0  0  0  0  0  0  0  0  0  0  0  0
   44.1949   33.3603   40.7043 H   0  0  0  0  0  0  0  0  0  0  0  0
   44.1550   36.9680   44.1833 H   0  0  0  0  0  0  0  0  0  0  0  0
   45.2702   36.5884   41.9762 H   0  0  0  0  0  0  0  0  0  0  0  0
   45.6954   33.3122   45.6288 H   0  0  0  0  0  0  0  0  0  0  0  0
   49.7048   36.1083   41.2610 H   0  0  0  0  0  0  0  0  0  0  0  0
   48.4724   36.0744   42.5896 H   0  0  0  0  0  0  0  0  0  0  0  0
   50.8856   34.8466   42.7187 H   0  0  0  0  0  0  0  0  0  0  0  0
   49.3794   34.3033   43.5924 H   0  0  0  0  0  0  0  0  0  0  0  0
   49.4956   33.2309   40.9319 H   0  0  0  0  0  0  0  0  0  0  0  0
   49.1108   32.4808   43.8373 H   0  0  0  0  0  0  0  0  0  0  0  0
   48.1982   31.9001   42.4315 H   0  0  0  0  0  0  0  0  0  0  0  0
   50.3131   30.5809   43.8158 H   0  0  0  0  0  0  0  0  0  0  0  0
   49.5106   30.0515   42.3030 H   0  0  0  0  0  0  0  0  0  0  0  0
   52.1906   30.7632   42.5554 H   0  0  0  0  0  0  0  0  0  0  0  0
   51.3144   30.6899   41.0295 H   0  0  0  0  0  0  0  0  0  0  0  0
   51.8831   32.9714   41.0254 H   0  0  0  0  0  0  0  0  0  0  0  0
   51.9325   33.0810   42.7927 H   0  0  0  0  0  0  0  0  0  0  0  0
  1 12  1  0
  2  1  2  0
  2 16  1  0
  3  2  1  0
  4  3  1  0
  4  9  2  0
  5  4  1  0
  6  5  2  0
  6  7  1  0
  7  8  2  0
  8  9  1  0
  9  1  1  0
 10 15  2  0
 11 10  1  0
 12 11  2  0
 12 13  1  0
 13 14  2  0
 14 15  1  0
 16 17  1  0
 18 22  1  0
 18 17  1  0
 18 19  1  0
 20 19  1  0
 21 20  1  0
 22 21  1  0
  3 23  1  0
  5 24  1  0
  6 25  1  0
  7 26  1  0
  8 27  1  0
 10 28  1  0
 11 29  1  0
 14 30  1  0
 16 31  1  0
 16 32  1  0
 17 33  1  0
 17 34  1  0
 18 35  1  0
 19 36  1  0
 19 37  1  0
 20 38  1  0
 20 39  1  0
 21 40  1  0
 21 41  1  0
 22 42  1  0
 22 43  1  0
M  ISO  8  23   9  24  14  25  14  26  14  27  14  28  14  29  14  30  14
M  ISO  8  31   8  32   8  33   8  34   8  35  13  36  13  37  13  38  13
M  ISO  5  39  13  40  13  41  13  42  13  43  13
M  END
>  <minimizedAffinity>  (1) 
-5.80038118

>  <minimizedRMSD>  (1) 
0.954794109

$$$$
