
     RDKit          3D

 31 33  0  0  0  0  0  0  0  0999 V2000
   46.9850   34.4920   41.1430 C   0  0  0  0  0  0  0  0  0  0  0  0
   48.2140   35.0290   40.7890 C   0  0  0  0  0  0  0  0  0  0  0  0
   48.4980   34.6900   39.5320 N   0  0  0  0  0  0  0  0  0  0  0  0
   47.4790   33.9460   39.0680 C   0  0  0  0  0  0  0  0  0  0  0  0
   47.2790   33.3480   37.8300 C   0  0  0  0  0  0  0  0  0  0  0  0
   46.1340   32.6360   37.6220 C   0  0  0  0  0  0  0  0  0  0  0  0
   45.1330   32.4540   38.5590 C   0  0  0  0  0  0  0  0  0  0  0  0
   45.3870   33.0720   39.7740 C   0  0  0  0  0  0  0  0  0  0  0  0
   46.4990   33.7970   40.0590 C   0  0  0  0  0  0  0  0  0  0  0  0
   44.6900   35.7480   43.8170 C   0  0  0  0  0  0  0  0  0  0  0  0
   45.3380   35.6270   42.5750 C   0  0  0  0  0  0  0  0  0  0  0  0
   46.3050   34.6260   42.4220 C   0  0  0  0  0  0  0  0  0  0  0  0
   46.5610   33.8230   43.4930 N   0  0  0  0  0  0  0  0  0  0  0  0
   45.9240   33.9600   44.6770 C   0  0  0  0  0  0  0  0  0  0  0  0
   44.9900   34.9180   44.8430 N   0  0  0  0  0  0  0  0  0  0  0  0
   49.0460   35.8420   41.6970 C   0  0  0  0  0  0  0  0  0  0  0  0
   50.0450   35.0100   42.4260 C   0  0  0  0  0  0  0  0  0  0  0  0
   49.5850   34.2240   43.4370 O   0  0  0  0  0  0  0  0  0  0  0  0
   49.3463   34.9512   39.0095 H   0  0  0  0  0  0  0  0  0  0  0  0
   48.0299   33.4468   37.0323 H   0  0  0  0  0  0  0  0  0  0  0  0
   45.9965   32.1715   36.6344 H   0  0  0  0  0  0  0  0  0  0  0  0
   44.2205   31.8732   38.3590 H   0  0  0  0  0  0  0  0  0  0  0  0
   44.6311   32.9670   40.5662 H   0  0  0  0  0  0  0  0  0  0  0  0
   43.9279   36.5288   43.9568 H   0  0  0  0  0  0  0  0  0  0  0  0
   45.0910   36.3029   41.7430 H   0  0  0  0  0  0  0  0  0  0  0  0
   46.1691   33.2855   45.5107 H   0  0  0  0  0  0  0  0  0  0  0  0
   49.5786   36.6023   41.1069 H   0  0  0  0  0  0  0  0  0  0  0  0
   48.3838   36.3105   42.4400 H   0  0  0  0  0  0  0  0  0  0  0  0
   50.5271   34.3512   41.6887 H   0  0  0  0  0  0  0  0  0  0  0  0
   50.7132   35.7348   42.9140 H   0  0  0  0  0  0  0  0  0  0  0  0
   49.8237   34.6319   44.3069 H   0  0  0  0  0  0  0  0  0  0  0  0
  1 12  1  0
  2  1  2  0
  2 16  1  0
  3  2  1  0
  4  3  1  0
  4  9  2  0
  5  4  1  0
  6  5  2  0
  6  7  1  0
  7  8  2  0
  8  9  1  0
  9  1  1  0
 10 15  2  0
 11 10  1  0
 12 11  2  0
 12 13  1  0
 13 14  2  0
 14 15  1  0
 16 17  1  0
 17 18  1  0
  3 19  1  0
  5 20  1  0
  6 21  1  0
  7 22  1  0
  8 23  1  0
 10 24  1  0
 11 25  1  0
 14 26  1  0
 16 27  1  0
 16 28  1  0
 17 29  1  0
 17 30  1  0
 18 31  1  0
M  ISO  8  19   9  20  14  21  14  22  14  23  14  24  14  25  14  26  14
M  ISO  5  27   8  28   8  29   8  30   8  31   3
M  END
>  <minimizedAffinity>  (1) 
-5.43982697

>  <minimizedRMSD>  (1) 
0.246679425

$$$$
