
     RDKit          3D

 37 40  0  0  0  0  0  0  0  0999 V2000
   46.9250   34.4820   41.2660 C   0  0  0  0  0  0  0  0  0  0  0  0
   48.1970   34.9020   40.9130 C   0  0  0  0  0  0  0  0  0  0  0  0
   48.4410   34.6000   39.6450 N   0  0  0  0  0  0  0  0  0  0  0  0
   47.3450   33.9870   39.1610 C   0  0  0  0  0  0  0  0  0  0  0  0
   47.0770   33.4700   37.8940 C   0  0  0  0  0  0  0  0  0  0  0  0
   45.8630   32.8900   37.6640 C   0  0  0  0  0  0  0  0  0  0  0  0
   44.8570   32.7690   38.6060 C   0  0  0  0  0  0  0  0  0  0  0  0
   45.1700   33.2950   39.8450 C   0  0  0  0  0  0  0  0  0  0  0  0
   46.3660   33.8940   40.1530 C   0  0  0  0  0  0  0  0  0  0  0  0
   44.8050   35.8420   44.0240 C   0  0  0  0  0  0  0  0  0  0  0  0
   45.4290   35.7230   42.7660 C   0  0  0  0  0  0  0  0  0  0  0  0
   46.2670   34.6220   42.5680 C   0  0  0  0  0  0  0  0  0  0  0  0
   46.4550   33.7080   43.5790 N   0  0  0  0  0  0  0  0  0  0  0  0
   45.8190   33.8870   44.7670 C   0  0  0  0  0  0  0  0  0  0  0  0
   45.0050   34.9310   45.0010 N   0  0  0  0  0  0  0  0  0  0  0  0
   49.1240   35.5860   41.8430 C   0  0  0  0  0  0  0  0  0  0  0  0
   49.9420   34.6050   42.6320 C   0  0  0  0  0  0  0  0  0  0  0  0
   50.2520   33.3310   41.9060 C   0  0  0  0  0  0  0  0  0  0  0  0
   51.0540   32.2550   42.4770 C   0  0  0  0  0  0  0  0  0  0  0  0
   49.5820   32.0880   42.5580 C   0  0  0  0  0  0  0  0  0  0  0  0
   49.3087   34.7979   39.1265 H   0  0  0  0  0  0  0  0  0  0  0  0
   47.8302   33.5285   37.0945 H   0  0  0  0  0  0  0  0  0  0  0  0
   45.6707   32.4901   36.6575 H   0  0  0  0  0  0  0  0  0  0  0  0
   43.8893   32.2940   38.3871 H   0  0  0  0  0  0  0  0  0  0  0  0
   44.4099   33.2293   40.6374 H   0  0  0  0  0  0  0  0  0  0  0  0
   44.1395   36.6968   44.2147 H   0  0  0  0  0  0  0  0  0  0  0  0
   45.2633   36.4663   41.9723 H   0  0  0  0  0  0  0  0  0  0  0  0
   45.9764   33.1493   45.5676 H   0  0  0  0  0  0  0  0  0  0  0  0
   49.8013   36.2295   41.2623 H   0  0  0  0  0  0  0  0  0  0  0  0
   48.5254   36.1801   42.5492 H   0  0  0  0  0  0  0  0  0  0  0  0
   50.8931   35.0879   42.9007 H   0  0  0  0  0  0  0  0  0  0  0  0
   49.3388   34.3274   43.5090 H   0  0  0  0  0  0  0  0  0  0  0  0
   50.3177   33.8455   40.9360 H   0  0  0  0  0  0  0  0  0  0  0  0
   51.6346   31.6023   41.8085 H   0  0  0  0  0  0  0  0  0  0  0  0
   51.8587   32.2297   43.2265 H   0  0  0  0  0  0  0  0  0  0  0  0
   49.0633   32.1769   43.5240 H   0  0  0  0  0  0  0  0  0  0  0  0
   48.8517   31.3262   42.2476 H   0  0  0  0  0  0  0  0  0  0  0  0
  1 12  1  0
  2  1  2  0
  2 16  1  0
  3  2  1  0
  4  3  1  0
  4  9  2  0
  5  4  1  0
  6  5  2  0
  6  7  1  0
  7  8  2  0
  8  9  1  0
  9  1  1  0
 10 15  2  0
 11 10  1  0
 12 11  2  0
 12 13  1  0
 13 14  2  0
 14 15  1  0
 16 17  1  0
 18 19  1  0
 18 20  1  0
 18 17  1  0
 19 20  1  0
  3 21  1  0
  5 22  1  0
  6 23  1  0
  7 24  1  0
  8 25  1  0
 10 26  1  0
 11 27  1  0
 14 28  1  0
 16 29  1  0
 16 30  1  0
 17 31  1  0
 17 32  1  0
 18 33  1  0
 19 34  1  0
 19 35  1  0
 20 36  1  0
 20 37  1  0
M  ISO  8  21   9  22  14  23  14  24  14  25  14  26  14  27  14  28  14
M  ISO  8  29   8  30   8  31   8  32   8  33  13  34  13  35  13  36  13
M  ISO  1  37  13
M  END
>  <minimizedAffinity>  (1) 
-5.60062313

>  <minimizedRMSD>  (1) 
0.554586768

$$$$
