
     RDKit          3D

 50 55  0  0  1  0  0  0  0  0999 V2000
   49.1620   35.6850   41.9000 C   0  0  0  0  0  0  0  0  0  0  0  0
   47.0070   34.5310   41.2520 C   0  0  0  0  0  0  0  0  0  0  0  0
   48.2760   34.9970   40.9410 C   0  0  0  0  0  0  0  0  0  0  0  0
   48.5560   34.7310   39.6770 N   0  0  0  0  0  0  0  0  0  0  0  0
   47.4860   34.0980   39.1590 C   0  0  0  0  0  0  0  0  0  0  0  0
   47.2730   33.6060   37.8680 C   0  0  0  0  0  0  0  0  0  0  0  0
   46.0800   32.9930   37.5960 C   0  0  0  0  0  0  0  0  0  0  0  0
   45.0530   32.8210   38.5130 C   0  0  0  0  0  0  0  0  0  0  0  0
   45.3220   33.3270   39.7700 C   0  0  0  0  0  0  0  0  0  0  0  0
   46.4880   33.9530   40.1210 C   0  0  0  0  0  0  0  0  0  0  0  0
   44.8120   35.8080   43.9950 C   0  0  0  0  0  0  0  0  0  0  0  0
   45.4670   35.7240   42.7570 C   0  0  0  0  0  0  0  0  0  0  0  0
   46.3180   34.6250   42.5460 C   0  0  0  0  0  0  0  0  0  0  0  0
   46.4830   33.6860   43.5300 N   0  0  0  0  0  0  0  0  0  0  0  0
   45.8110   33.8390   44.7060 C   0  0  0  0  0  0  0  0  0  0  0  0
   44.9910   34.8680   44.9510 N   0  0  0  0  0  0  0  0  0  0  0  0
   49.8870   34.7150   42.7780 C   0  0  0  0  0  0  0  0  0  0  0  0
   50.6220   33.6210   42.0420 C   0  0  1  0  0  0  0  0  0  0  0  0
   51.1750   32.4670   42.7200 C   0  0  0  0  0  0  0  0  0  0  0  0
   49.8720   32.2830   42.0160 C   0  0  2  0  0  0  0  0  0  0  0  0
   49.8750   31.5350   40.7890 N   0  0  0  0  0  0  0  0  0  0  0  0
   48.9040   30.9830   40.0420 C   0  0  0  0  0  0  0  0  0  0  0  0
   49.4010   30.3670   38.9540 N   0  0  0  0  0  0  0  0  0  0  0  0
   50.7320   30.5240   38.9990 C   0  0  0  0  0  0  0  0  0  0  0  0
   51.7720   30.1280   38.1840 C   0  0  0  0  0  0  0  0  0  0  0  0
   53.0570   30.4210   38.4590 N   0  0  0  0  0  0  0  0  0  0  0  0
   53.3240   31.1260   39.5710 C   0  0  0  0  0  0  0  0  0  0  0  0
   52.3090   31.5120   40.3650 N   0  0  0  0  0  0  0  0  0  0  0  0
   51.0110   31.2420   40.1300 C   0  0  0  0  0  0  0  0  0  0  0  0
   51.5410   29.3820   37.0010 N   0  0  0  0  0  0  0  0  0  0  0  0
   48.5555   36.3519   42.5304 H   0  0  0  0  0  0  0  0  0  0  0  0
   49.9094   36.2547   41.3283 H   0  0  0  0  0  0  0  0  0  0  0  0
   49.4283   34.9640   39.1814 H   0  0  0  0  0  0  0  0  0  0  0  0
   48.0445   33.7089   37.0907 H   0  0  0  0  0  0  0  0  0  0  0  0
   45.9241   32.6090   36.5771 H   0  0  0  0  0  0  0  0  0  0  0  0
   44.1048   32.3238   38.2605 H   0  0  0  0  0  0  0  0  0  0  0  0
   44.5459   33.2196   40.5421 H   0  0  0  0  0  0  0  0  0  0  0  0
   44.1392   36.6556   44.1921 H   0  0  0  0  0  0  0  0  0  0  0  0
   45.3202   36.4893   41.9807 H   0  0  0  0  0  0  0  0  0  0  0  0
   45.9492   33.0808   45.4909 H   0  0  0  0  0  0  0  0  0  0  0  0
   50.6195   35.2766   43.3763 H   0  0  0  0  0  0  0  0  0  0  0  0
   49.1193   34.2160   43.3876 H   0  0  0  0  0  0  0  0  0  0  0  0
   51.0701   34.3334   41.3337 H   0  0  0  0  0  0  0  0  0  0  0  0
   52.0796   31.9856   42.3202 H   0  0  0  0  0  0  0  0  0  0  0  0
   51.5165   32.2807   43.7489 H   0  0  0  0  0  0  0  0  0  0  0  0
   48.8649   31.9323   42.2856 H   0  0  0  0  0  0  0  0  0  0  0  0
   47.8333   31.0291   40.2898 H   0  0  0  0  0  0  0  0  0  0  0  0
   54.3614   31.3848   39.8295 H   0  0  0  0  0  0  0  0  0  0  0  0
   50.5801   29.1251   36.7335 H   0  0  0  0  0  0  0  0  0  0  0  0
   52.3341   29.0969   36.4089 H   0  0  0  0  0  0  0  0  0  0  0  0
  1 17  1  0
  2 13  1  0
  3  2  2  0
  3  1  1  0
  4  3  1  0
  5  4  1  0
  5 10  2  0
  6  5  1  0
  7  6  2  0
  7  8  1  0
  8  9  2  0
  9 10  1  0
 10  2  1  0
 11 16  2  0
 12 11  1  0
 13 12  2  0
 13 14  1  0
 14 15  2  0
 15 16  1  0
 18 19  1  0
 18 17  1  0
 20 18  1  0
 20 19  1  0
 21 20  1  0
 22 21  1  0
 23 24  1  0
 23 22  2  0
 24 29  2  0
 25 26  2  0
 25 24  1  0
 26 27  1  0
 27 28  2  0
 29 28  1  0
 29 21  1  0
 30 25  1  0
  1 31  1  0
  1 32  1  0
  4 33  1  0
  6 34  1  0
  7 35  1  0
  8 36  1  0
  9 37  1  0
 11 38  1  0
 12 39  1  0
 15 40  1  0
 17 41  1  0
 17 42  1  0
 18 43  1  6
 19 44  1  0
 19 45  1  0
 20 46  1  1
 22 47  1  0
 27 48  1  0
 30 49  1  0
 30 50  1  0
M  ISO  8  31   8  32   8  33   9  34  14  35  14  36  14  37  14  38  14
M  ISO  8  39  14  40  14  41   8  42   8  43  13  44  13  45  13  46  13
M  ISO  2  47  14  48  14
M  END
>  <minimizedAffinity>  (1) 
-6.30097198

>  <minimizedRMSD>  (1) 
1.87316799

$$$$
