
     RDKit          3D

 44 47  0  0  1  0  0  0  0  0999 V2000
   46.9270   34.4930   41.2800 C   0  0  0  0  0  0  0  0  0  0  0  0
   48.1950   34.9330   40.9240 C   0  0  0  0  0  0  0  0  0  0  0  0
   48.4490   34.6250   39.6540 N   0  0  0  0  0  0  0  0  0  0  0  0
   47.3610   33.9880   39.1790 C   0  0  0  0  0  0  0  0  0  0  0  0
   47.1080   33.4590   37.9220 C   0  0  0  0  0  0  0  0  0  0  0  0
   45.9000   32.8490   37.6840 C   0  0  0  0  0  0  0  0  0  0  0  0
   44.8950   32.7200   38.6310 C   0  0  0  0  0  0  0  0  0  0  0  0
   45.1950   33.2600   39.8620 C   0  0  0  0  0  0  0  0  0  0  0  0
   46.3860   33.8830   40.1600 C   0  0  0  0  0  0  0  0  0  0  0  0
   44.8030   35.8560   44.0220 C   0  0  0  0  0  0  0  0  0  0  0  0
   45.4320   35.7260   42.7770 C   0  0  0  0  0  0  0  0  0  0  0  0
   46.2680   34.6320   42.5770 C   0  0  0  0  0  0  0  0  0  0  0  0
   46.4560   33.7180   43.5840 N   0  0  0  0  0  0  0  0  0  0  0  0
   45.8150   33.9030   44.7670 C   0  0  0  0  0  0  0  0  0  0  0  0
   45.0030   34.9420   45.0020 N   0  0  0  0  0  0  0  0  0  0  0  0
   49.1090   35.6410   41.8460 C   0  0  0  0  0  0  0  0  0  0  0  0
   49.9010   34.6890   42.6800 C   0  0  0  0  0  0  0  0  0  0  0  0
   50.3480   33.4360   41.9670 C   0  0  1  0  0  0  0  0  0  0  0  0
   51.0230   32.3320   42.6310 C   0  0  0  0  0  0  0  0  0  0  0  0
   49.5610   32.1840   42.3900 C   0  0  2  0  0  0  0  0  0  0  0  0
   49.1520   31.2360   41.3960 N   0  0  0  0  0  0  0  0  0  0  0  0
   49.8280   31.1880   40.1450 C   0  0  0  0  0  0  0  0  0  0  0  0
   50.4160   32.2670   39.7120 N   0  0  0  0  0  0  0  0  0  0  0  0
   49.8930   30.0140   39.3400 N   0  0  0  0  0  0  0  0  0  0  0  0
   50.4210   33.1540   40.2230 H   0  0  0  0  0  0  0  0  0  0  0  0
   49.3129   34.8339   39.1336 H   0  0  0  0  0  0  0  0  0  0  0  0
   47.8644   33.5269   37.1262 H   0  0  0  0  0  0  0  0  0  0  0  0
   45.7188   32.4375   36.6801 H   0  0  0  0  0  0  0  0  0  0  0  0
   43.9358   32.2263   38.4163 H   0  0  0  0  0  0  0  0  0  0  0  0
   44.4366   33.1892   40.6556 H   0  0  0  0  0  0  0  0  0  0  0  0
   44.1374   36.7121   44.2065 H   0  0  0  0  0  0  0  0  0  0  0  0
   45.2696   36.4673   41.9807 H   0  0  0  0  0  0  0  0  0  0  0  0
   45.9698   33.1659   45.5687 H   0  0  0  0  0  0  0  0  0  0  0  0
   49.8017   36.2590   41.2560 H   0  0  0  0  0  0  0  0  0  0  0  0
   48.5013   36.2626   42.5200 H   0  0  0  0  0  0  0  0  0  0  0  0
   50.7975   35.2150   43.0400 H   0  0  0  0  0  0  0  0  0  0  0  0
   49.2329   34.3603   43.4897 H   0  0  0  0  0  0  0  0  0  0  0  0
   50.6077   33.9973   41.0573 H   0  0  0  0  0  0  0  0  0  0  0  0
   51.7311   31.7102   42.0635 H   0  0  0  0  0  0  0  0  0  0  0  0
   51.6567   32.2574   43.5270 H   0  0  0  0  0  0  0  0  0  0  0  0
   48.6597   31.9961   42.9919 H   0  0  0  0  0  0  0  0  0  0  0  0
   48.3714   30.5917   41.5866 H   0  0  0  0  0  0  0  0  0  0  0  0
   50.3959   30.0330   38.4413 H   0  0  0  0  0  0  0  0  0  0  0  0
   49.4371   29.1464   39.6568 H   0  0  0  0  0  0  0  0  0  0  0  0
  1 12  1  0
  2  1  2  0
  2 16  1  0
  3  2  1  0
  4  3  1  0
  4  9  2  0
  5  4  1  0
  6  5  2  0
  6  7  1  0
  7  8  2  0
  8  9  1  0
  9  1  1  0
 10 15  2  0
 11 10  1  0
 12 11  2  0
 12 13  1  0
 13 14  2  0
 14 15  1  0
 16 17  1  0
 18 20  1  0
 18 19  1  0
 18 17  1  0
 20 19  1  0
 21 20  1  0
 22 21  1  0
 23 22  2  0
 23 25  1  0
 24 22  1  0
  3 26  1  0
  5 27  1  0
  6 28  1  0
  7 29  1  0
  8 30  1  0
 10 31  1  0
 11 32  1  0
 14 33  1  0
 16 34  1  0
 16 35  1  0
 17 36  1  0
 17 37  1  0
 18 38  1  6
 19 39  1  0
 19 40  1  0
 20 41  1  1
 21 42  1  0
 24 43  1  0
 24 44  1  0
M  ISO  8  26   9  27  14  28  14  29  14  30  14  31  14  32  14  33  14
M  ISO  8  34   8  35   8  36   8  37   8  38  13  39  13  40  13  41  13
M  END
>  <minimizedAffinity>  (1) 
-5.91375971

>  <minimizedRMSD>  (1) 
0.287834227

$$$$
