
     RDKit          3D

 46 50  0  0  1  0  0  0  0  0999 V2000
   46.9540   34.5380   41.3750 C   0  0  0  0  0  0  0  0  0  0  0  0
   48.2350   34.9690   41.0480 C   0  0  0  0  0  0  0  0  0  0  0  0
   48.5190   34.6690   39.7830 N   0  0  0  0  0  0  0  0  0  0  0  0
   47.4490   34.0500   39.2750 C   0  0  0  0  0  0  0  0  0  0  0  0
   47.2010   33.5270   38.0110 C   0  0  0  0  0  0  0  0  0  0  0  0
   45.9930   32.9300   37.7430 C   0  0  0  0  0  0  0  0  0  0  0  0
   44.9810   32.8090   38.6650 C   0  0  0  0  0  0  0  0  0  0  0  0
   45.2510   33.3380   39.9200 C   0  0  0  0  0  0  0  0  0  0  0  0
   46.4390   33.9450   40.2400 C   0  0  0  0  0  0  0  0  0  0  0  0
   44.7690   35.8870   44.0770 C   0  0  0  0  0  0  0  0  0  0  0  0
   45.4220   35.7770   42.8310 C   0  0  0  0  0  0  0  0  0  0  0  0
   46.2680   34.6730   42.6570 C   0  0  0  0  0  0  0  0  0  0  0  0
   46.4330   33.7620   43.6690 N   0  0  0  0  0  0  0  0  0  0  0  0
   45.7670   33.9420   44.8410 C   0  0  0  0  0  0  0  0  0  0  0  0
   44.9410   34.9870   45.0570 N   0  0  0  0  0  0  0  0  0  0  0  0
   49.1360   35.6620   41.9960 C   0  0  0  0  0  0  0  0  0  0  0  0
   50.0590   34.7050   42.6970 C   0  0  0  0  0  0  0  0  0  0  0  0
   50.3660   33.4680   41.9230 C   0  0  1  0  0  0  0  0  0  0  0  0
   50.9350   32.2610   42.5180 C   0  0  0  0  0  0  0  0  0  0  0  0
   49.4730   32.2510   42.3080 C   0  0  2  0  0  0  0  0  0  0  0  0
   49.0300   31.3890   41.1620 C   0  0  0  0  0  0  0  0  0  0  0  0
   47.8980   30.5850   41.2350 C   0  0  0  0  0  0  0  0  0  0  0  0
   47.5550   29.8200   40.1380 C   0  0  0  0  0  0  0  0  0  0  0  0
   48.2940   29.8240   38.9730 C   0  0  0  0  0  0  0  0  0  0  0  0
   49.4210   30.6470   38.9520 C   0  0  0  0  0  0  0  0  0  0  0  0
   49.7540   31.3960   40.0290 N   0  0  0  0  0  0  0  0  0  0  0  0
   49.3985   34.8752   39.2882 H   0  0  0  0  0  0  0  0  0  0  0  0
   47.9702   33.5910   37.2273 H   0  0  0  0  0  0  0  0  0  0  0  0
   45.8264   32.5261   36.7335 H   0  0  0  0  0  0  0  0  0  0  0  0
   44.0223   32.3259   38.4250 H   0  0  0  0  0  0  0  0  0  0  0  0
   44.4743   33.2669   40.6957 H   0  0  0  0  0  0  0  0  0  0  0  0
   44.0961   36.7396   44.2507 H   0  0  0  0  0  0  0  0  0  0  0  0
   45.2743   36.5215   42.0348 H   0  0  0  0  0  0  0  0  0  0  0  0
   45.9074   33.2055   45.6459 H   0  0  0  0  0  0  0  0  0  0  0  0
   49.7395   36.3953   41.4410 H   0  0  0  0  0  0  0  0  0  0  0  0
   48.5139   36.1541   42.7581 H   0  0  0  0  0  0  0  0  0  0  0  0
   51.0055   35.2269   42.9014 H   0  0  0  0  0  0  0  0  0  0  0  0
   49.5413   34.3826   43.6124 H   0  0  0  0  0  0  0  0  0  0  0  0
   50.6594   34.0537   41.0393 H   0  0  0  0  0  0  0  0  0  0  0  0
   51.5716   31.6068   41.9043 H   0  0  0  0  0  0  0  0  0  0  0  0
   51.5709   32.0826   43.3977 H   0  0  0  0  0  0  0  0  0  0  0  0
   48.5741   32.0995   42.9237 H   0  0  0  0  0  0  0  0  0  0  0  0
   47.2872   30.5589   42.1495 H   0  0  0  0  0  0  0  0  0  0  0  0
   46.6594   29.1838   40.1950 H   0  0  0  0  0  0  0  0  0  0  0  0
   48.0097   29.2103   38.1055 H   0  0  0  0  0  0  0  0  0  0  0  0
   50.0468   30.6874   38.0483 H   0  0  0  0  0  0  0  0  0  0  0  0
  1 12  1  0
  2  1  2  0
  2 16  1  0
  3  2  1  0
  4  3  1  0
  4  9  2  0
  5  4  1  0
  6  5  2  0
  6  7  1  0
  7  8  2  0
  8  9  1  0
  9  1  1  0
 10 15  2  0
 11 10  1  0
 12 11  2  0
 12 13  1  0
 13 14  2  0
 14 15  1  0
 16 17  1  0
 18 20  1  0
 18 19  1  0
 18 17  1  0
 20 19  1  0
 21 22  2  0
 21 20  1  0
 23 22  1  0
 24 23  2  0
 25 24  1  0
 25 26  2  0
 26 21  1  0
  3 27  1  0
  5 28  1  0
  6 29  1  0
  7 30  1  0
  8 31  1  0
 10 32  1  0
 11 33  1  0
 14 34  1  0
 16 35  1  0
 16 36  1  0
 17 37  1  0
 17 38  1  0
 18 39  1  6
 19 40  1  0
 19 41  1  0
 20 42  1  1
 22 43  1  0
 23 44  1  0
 24 45  1  0
 25 46  1  0
M  ISO  8  27   9  28  14  29  14  30  14  31  14  32  14  33  14  34  14
M  ISO  8  35   8  36   8  37   8  38   8  39  13  40  13  41  13  42  13
M  ISO  4  43  14  44  14  45  14  46  14
M  END
>  <minimizedAffinity>  (1) 
-5.87650347

>  <minimizedRMSD>  (1) 
0.515534639

$$$$
