
     RDKit          3D

 43 47  0  0  1  0  0  0  0  0999 V2000
   46.9370   34.5180   41.3490 C   0  0  0  0  0  0  0  0  0  0  0  0
   48.2120   34.9580   41.0120 C   0  0  0  0  0  0  0  0  0  0  0  0
   48.4880   34.6510   39.7440 N   0  0  0  0  0  0  0  0  0  0  0  0
   47.4170   34.0200   39.2510 C   0  0  0  0  0  0  0  0  0  0  0  0
   47.1640   33.4870   37.9920 C   0  0  0  0  0  0  0  0  0  0  0  0
   45.9590   32.8780   37.7360 C   0  0  0  0  0  0  0  0  0  0  0  0
   44.9480   32.7520   38.6660 C   0  0  0  0  0  0  0  0  0  0  0  0
   45.2340   33.2950   39.9060 C   0  0  0  0  0  0  0  0  0  0  0  0
   46.4100   33.9130   40.2270 C   0  0  0  0  0  0  0  0  0  0  0  0
   44.7750   35.8860   44.0590 C   0  0  0  0  0  0  0  0  0  0  0  0
   45.4200   35.7580   42.8230 C   0  0  0  0  0  0  0  0  0  0  0  0
   46.2610   34.6590   42.6380 C   0  0  0  0  0  0  0  0  0  0  0  0
   46.4280   33.7550   43.6520 N   0  0  0  0  0  0  0  0  0  0  0  0
   45.7730   33.9410   44.8230 C   0  0  0  0  0  0  0  0  0  0  0  0
   44.9590   34.9740   45.0490 N   0  0  0  0  0  0  0  0  0  0  0  0
   49.1170   35.6640   41.9450 C   0  0  0  0  0  0  0  0  0  0  0  0
   50.0130   34.7070   42.6780 C   0  0  0  0  0  0  0  0  0  0  0  0
   50.3520   33.4530   41.9160 C   0  0  1  0  0  0  0  0  0  0  0  0
   50.9370   32.2830   42.5470 C   0  0  0  0  0  0  0  0  0  0  0  0
   49.4730   32.2520   42.3200 C   0  0  2  0  0  0  0  0  0  0  0  0
   48.9710   31.4030   41.2540 N   0  0  0  0  0  0  0  0  0  0  0  0
   47.9060   30.5840   41.3300 C   0  0  0  0  0  0  0  0  0  0  0  0
   47.7470   29.9560   40.1320 N   0  0  0  0  0  0  0  0  0  0  0  0
   48.7350   30.4040   39.3180 C   0  0  0  0  0  0  0  0  0  0  0  0
   49.4650   31.2830   40.0250 N   0  0  0  0  0  0  0  0  0  0  0  0
   49.3613   34.8604   39.2395 H   0  0  0  0  0  0  0  0  0  0  0  0
   47.9270   33.5527   37.2023 H   0  0  0  0  0  0  0  0  0  0  0  0
   45.7906   32.4666   36.7298 H   0  0  0  0  0  0  0  0  0  0  0  0
   43.9909   32.2592   38.4398 H   0  0  0  0  0  0  0  0  0  0  0  0
   44.4623   33.2245   40.6867 H   0  0  0  0  0  0  0  0  0  0  0  0
   44.1060   36.7419   44.2320 H   0  0  0  0  0  0  0  0  0  0  0  0
   45.2692   36.4988   42.0240 H   0  0  0  0  0  0  0  0  0  0  0  0
   45.9192   33.2046   45.6269 H   0  0  0  0  0  0  0  0  0  0  0  0
   49.7390   36.3689   41.3739 H   0  0  0  0  0  0  0  0  0  0  0  0
   48.5010   36.1943   42.6861 H   0  0  0  0  0  0  0  0  0  0  0  0
   50.9521   35.2291   42.9138 H   0  0  0  0  0  0  0  0  0  0  0  0
   49.4594   34.3866   43.5729 H   0  0  0  0  0  0  0  0  0  0  0  0
   50.6453   34.0150   41.0170 H   0  0  0  0  0  0  0  0  0  0  0  0
   51.5892   31.6210   41.9585 H   0  0  0  0  0  0  0  0  0  0  0  0
   51.5687   32.1383   43.4358 H   0  0  0  0  0  0  0  0  0  0  0  0
   48.5792   32.0934   42.9413 H   0  0  0  0  0  0  0  0  0  0  0  0
   47.2680   30.4445   42.2152 H   0  0  0  0  0  0  0  0  0  0  0  0
   48.9067   30.1038   38.2738 H   0  0  0  0  0  0  0  0  0  0  0  0
  1 12  1  0
  2  1  2  0
  2 16  1  0
  3  2  1  0
  4  3  1  0
  4  9  2  0
  5  4  1  0
  6  5  2  0
  6  7  1  0
  7  8  2  0
  8  9  1  0
  9  1  1  0
 10 15  2  0
 11 10  1  0
 12 11  2  0
 12 13  1  0
 13 14  2  0
 14 15  1  0
 16 17  1  0
 18 20  1  0
 18 19  1  0
 18 17  1  0
 20 19  1  0
 21 22  1  0
 21 20  1  0
 23 22  2  0
 24 25  2  0
 24 23  1  0
 25 21  1  0
  3 26  1  0
  5 27  1  0
  6 28  1  0
  7 29  1  0
  8 30  1  0
 10 31  1  0
 11 32  1  0
 14 33  1  0
 16 34  1  0
 16 35  1  0
 17 36  1  0
 17 37  1  0
 18 38  1  6
 19 39  1  0
 19 40  1  0
 20 41  1  1
 22 42  1  0
 24 43  1  0
M  ISO  8  26   9  27  14  28  14  29  14  30  14  31  14  32  14  33  14
M  ISO  8  34   8  35   8  36   8  37   8  38  13  39  13  40  13  41  13
M  ISO  2  42  14  43  14
M  END
>  <minimizedAffinity>  (1) 
-5.76236296

>  <minimizedRMSD>  (1) 
0.387935698

$$$$
