
     RDKit          3D

 39 42  0  0  1  0  0  0  0  0999 V2000
   46.9300   34.5010   41.2810 C   0  0  0  0  0  0  0  0  0  0  0  0
   48.2020   34.9380   40.9190 C   0  0  0  0  0  0  0  0  0  0  0  0
   48.4460   34.6350   39.6570 N   0  0  0  0  0  0  0  0  0  0  0  0
   47.3620   34.0050   39.1740 C   0  0  0  0  0  0  0  0  0  0  0  0
   47.1070   33.4820   37.9050 C   0  0  0  0  0  0  0  0  0  0  0  0
   45.9090   32.8840   37.6770 C   0  0  0  0  0  0  0  0  0  0  0  0
   44.8980   32.7490   38.6200 C   0  0  0  0  0  0  0  0  0  0  0  0
   45.2000   33.2840   39.8590 C   0  0  0  0  0  0  0  0  0  0  0  0
   46.3840   33.9010   40.1680 C   0  0  0  0  0  0  0  0  0  0  0  0
   44.8000   35.8400   44.0380 C   0  0  0  0  0  0  0  0  0  0  0  0
   45.4300   35.7260   42.7840 C   0  0  0  0  0  0  0  0  0  0  0  0
   46.2720   34.6340   42.5730 C   0  0  0  0  0  0  0  0  0  0  0  0
   46.4580   33.7200   43.5810 N   0  0  0  0  0  0  0  0  0  0  0  0
   45.8170   33.8910   44.7750 C   0  0  0  0  0  0  0  0  0  0  0  0
   44.9990   34.9320   45.0060 N   0  0  0  0  0  0  0  0  0  0  0  0
   49.1140   35.6420   41.8590 C   0  0  0  0  0  0  0  0  0  0  0  0
   49.9850   34.6830   42.6060 C   0  0  0  0  0  0  0  0  0  0  0  0
   50.2270   33.3770   41.9060 C   0  0  1  0  0  0  0  0  0  0  0  0
   51.0180   32.2940   42.4890 C   0  0  0  0  0  0  0  0  0  0  0  0
   49.5520   32.1650   42.5840 C   0  0  2  0  0  0  0  0  0  0  0  0
   48.9490   31.1400   41.6960 C   0  0  0  0  0  0  0  0  0  0  0  0
   49.0410   31.1930   40.4600 O   0  0  0  0  0  0  0  0  0  0  0  0
   49.3104   34.8437   39.1373 H   0  0  0  0  0  0  0  0  0  0  0  0
   47.8604   33.5527   37.1066 H   0  0  0  0  0  0  0  0  0  0  0  0
   45.7259   32.4767   36.6717 H   0  0  0  0  0  0  0  0  0  0  0  0
   43.9385   32.2582   38.3999 H   0  0  0  0  0  0  0  0  0  0  0  0
   44.4388   33.2093   40.6495 H   0  0  0  0  0  0  0  0  0  0  0  0
   44.1303   36.6916   44.2284 H   0  0  0  0  0  0  0  0  0  0  0  0
   45.2635   36.4746   41.9954 H   0  0  0  0  0  0  0  0  0  0  0  0
   45.9756   33.1520   45.5742 H   0  0  0  0  0  0  0  0  0  0  0  0
   49.7519   36.3322   41.2873 H   0  0  0  0  0  0  0  0  0  0  0  0
   48.4991   36.1879   42.5897 H   0  0  0  0  0  0  0  0  0  0  0  0
   50.9586   35.1659   42.7760 H   0  0  0  0  0  0  0  0  0  0  0  0
   49.4523   34.4414   43.5376 H   0  0  0  0  0  0  0  0  0  0  0  0
   50.2702   33.8708   40.9240 H   0  0  0  0  0  0  0  0  0  0  0  0
   51.5781   31.6172   41.8270 H   0  0  0  0  0  0  0  0  0  0  0  0
   51.8302   32.2640   43.2302 H   0  0  0  0  0  0  0  0  0  0  0  0
   48.8082   32.0331   43.3836 H   0  0  0  0  0  0  0  0  0  0  0  0
   48.4001   30.3022   42.1507 H   0  0  0  0  0  0  0  0  0  0  0  0
  1 12  1  0
  2  1  2  0
  2 16  1  0
  3  2  1  0
  4  3  1  0
  4  9  2  0
  5  4  1  0
  6  5  2  0
  6  7  1  0
  7  8  2  0
  8  9  1  0
  9  1  1  0
 10 15  2  0
 11 10  1  0
 12 11  2  0
 12 13  1  0
 13 14  2  0
 14 15  1  0
 16 17  1  0
 18 19  1  0
 18 20  1  0
 18 17  1  0
 19 20  1  0
 21 20  1  0
 22 21  2  0
  3 23  1  0
  5 24  1  0
  6 25  1  0
  7 26  1  0
  8 27  1  0
 10 28  1  0
 11 29  1  0
 14 30  1  0
 16 31  1  0
 16 32  1  0
 17 33  1  0
 17 34  1  0
 18 35  1  6
 19 36  1  0
 19 37  1  0
 20 38  1  1
 21 39  1  0
M  ISO  8  23   9  24  14  25  14  26  14  27  14  28  14  29  14  30  14
M  ISO  8  31   8  32   8  33   8  34   8  35  13  36  13  37  13  38  13
M  ISO  1  39   6
M  END
>  <minimizedAffinity>  (1) 
-5.57406616

>  <minimizedRMSD>  (1) 
0.0874149129

$$$$
