
     RDKit          3D

 51 55  0  0  1  0  0  0  0  0999 V2000
   46.8190   34.5290   41.3480 C   0  0  0  0  0  0  0  0  0  0  0  0
   48.0810   34.9290   40.9540 C   0  0  0  0  0  0  0  0  0  0  0  0
   48.3240   34.5750   39.7050 N   0  0  0  0  0  0  0  0  0  0  0  0
   47.2180   33.9350   39.2640 C   0  0  0  0  0  0  0  0  0  0  0  0
   46.9440   33.3580   38.0180 C   0  0  0  0  0  0  0  0  0  0  0  0
   45.7330   32.7660   37.8250 C   0  0  0  0  0  0  0  0  0  0  0  0
   44.7470   32.6860   38.7660 C   0  0  0  0  0  0  0  0  0  0  0  0
   45.0670   33.2680   39.9750 C   0  0  0  0  0  0  0  0  0  0  0  0
   46.2610   33.8870   40.2570 C   0  0  0  0  0  0  0  0  0  0  0  0
   44.7410   36.0170   44.0600 C   0  0  0  0  0  0  0  0  0  0  0  0
   45.3620   35.8480   42.8140 C   0  0  0  0  0  0  0  0  0  0  0  0
   46.1650   34.7210   42.6380 C   0  0  0  0  0  0  0  0  0  0  0  0
   46.3210   33.8240   43.6760 N   0  0  0  0  0  0  0  0  0  0  0  0
   45.6920   34.0470   44.8590 C   0  0  0  0  0  0  0  0  0  0  0  0
   44.9070   35.1310   45.0580 N   0  0  0  0  0  0  0  0  0  0  0  0
   49.0190   35.6610   41.8440 C   0  0  0  0  0  0  0  0  0  0  0  0
   49.9070   34.7370   42.6010 C   0  0  0  0  0  0  0  0  0  0  0  0
   50.1660   33.4270   41.9190 C   0  0  1  0  0  0  0  0  0  0  0  0
   51.0790   32.3960   42.4340 C   0  0  0  0  0  0  0  0  0  0  0  0
   49.6160   32.2090   42.6820 C   0  0  2  0  0  0  0  0  0  0  0  0
   49.0000   31.2050   41.9720 O   0  0  0  0  0  0  0  0  0  0  0  0
   48.4990   30.1900   42.7410 C   0  0  0  0  0  0  0  0  0  0  0  0
   48.0660   30.8260   44.0530 C   0  0  0  0  0  0  0  0  0  0  0  0
   47.8520   29.5960   44.9110 C   0  0  0  0  0  0  0  0  0  0  0  0
   49.1970   28.9100   44.6890 C   0  0  0  0  0  0  0  0  0  0  0  0
   49.5230   29.1850   43.2140 C   0  0  0  0  0  0  0  0  0  0  0  0
   49.1871   34.7519   39.1715 H   0  0  0  0  0  0  0  0  0  0  0  0
   47.6917   33.3824   37.2116 H   0  0  0  0  0  0  0  0  0  0  0  0
   45.5347   32.3198   36.8393 H   0  0  0  0  0  0  0  0  0  0  0  0
   43.7793   32.1987   38.5761 H   0  0  0  0  0  0  0  0  0  0  0  0
   44.3102   33.2341   40.7726 H   0  0  0  0  0  0  0  0  0  0  0  0
   44.1017   36.8968   44.2252 H   0  0  0  0  0  0  0  0  0  0  0  0
   45.2208   36.5786   42.0038 H   0  0  0  0  0  0  0  0  0  0  0  0
   45.8246   33.3257   45.6788 H   0  0  0  0  0  0  0  0  0  0  0  0
   49.6418   36.3289   41.2308 H   0  0  0  0  0  0  0  0  0  0  0  0
   48.4218   36.2298   42.5719 H   0  0  0  0  0  0  0  0  0  0  0  0
   50.8727   35.2398   42.7577 H   0  0  0  0  0  0  0  0  0  0  0  0
   49.3868   34.5030   43.5416 H   0  0  0  0  0  0  0  0  0  0  0  0
   50.0968   33.8987   40.9277 H   0  0  0  0  0  0  0  0  0  0  0  0
   51.5996   31.7308   41.7294 H   0  0  0  0  0  0  0  0  0  0  0  0
   51.9661   32.4185   43.0840 H   0  0  0  0  0  0  0  0  0  0  0  0
   48.9592   32.0710   43.5535 H   0  0  0  0  0  0  0  0  0  0  0  0
   47.7359   29.6928   42.1241 H   0  0  0  0  0  0  0  0  0  0  0  0
   48.8517   31.4755   44.4662 H   0  0  0  0  0  0  0  0  0  0  0  0
   47.1866   31.4818   43.9716 H   0  0  0  0  0  0  0  0  0  0  0  0
   47.6905   29.8540   45.9681 H   0  0  0  0  0  0  0  0  0  0  0  0
   46.9672   28.9929   44.6593 H   0  0  0  0  0  0  0  0  0  0  0  0
   49.9674   29.3408   45.3454 H   0  0  0  0  0  0  0  0  0  0  0  0
   49.1640   27.8349   44.9192 H   0  0  0  0  0  0  0  0  0  0  0  0
   49.4480   28.2579   42.6268 H   0  0  0  0  0  0  0  0  0  0  0  0
   50.5476   29.5664   43.0924 H   0  0  0  0  0  0  0  0  0  0  0  0
  1 12  1  0
  2  1  2  0
  2 16  1  0
  3  2  1  0
  4  3  1  0
  4  9  2  0
  5  4  1  0
  6  5  2  0
  6  7  1  0
  7  8  2  0
  8  9  1  0
  9  1  1  0
 10 15  2  0
 11 10  1  0
 12 11  2  0
 12 13  1  0
 13 14  2  0
 14 15  1  0
 16 17  1  0
 18 19  1  0
 18 17  1  0
 18 20  1  0
 19 20  1  0
 21 20  1  0
 21 22  1  0
 22 26  1  0
 22 23  1  0
 23 24  1  0
 25 24  1  0
 26 25  1  0
  3 27  1  0
  5 28  1  0
  6 29  1  0
  7 30  1  0
  8 31  1  0
 10 32  1  0
 11 33  1  0
 14 34  1  0
 16 35  1  0
 16 36  1  0
 17 37  1  0
 17 38  1  0
 18 39  1  6
 19 40  1  0
 19 41  1  0
 20 42  1  1
 22 43  1  0
 23 44  1  0
 23 45  1  0
 24 46  1  0
 24 47  1  0
 25 48  1  0
 25 49  1  0
 26 50  1  0
 26 51  1  0
M  ISO  8  27   9  28  14  29  14  30  14  31  14  32  14  33  14  34  14
M  ISO  8  35   8  36   8  37   8  38   8  39  13  40  13  41  13  42  13
M  ISO  8  43  13  44  13  45  13  46  13  47  13  48  13  49  13  50  13
M  ISO  1  51  13
M  END
>  <minimizedAffinity>  (1) 
-5.62996483

>  <minimizedRMSD>  (1) 
0.739418983

$$$$
