
     RDKit          3D

 50 54  0  0  1  0  0  0  0  0999 V2000
   46.8270   34.5220   41.3400 C   0  0  0  0  0  0  0  0  0  0  0  0
   48.0940   34.9260   40.9420 C   0  0  0  0  0  0  0  0  0  0  0  0
   48.3380   34.5770   39.6880 N   0  0  0  0  0  0  0  0  0  0  0  0
   47.2320   33.9380   39.2430 C   0  0  0  0  0  0  0  0  0  0  0  0
   46.9460   33.3660   38.0060 C   0  0  0  0  0  0  0  0  0  0  0  0
   45.7330   32.7740   37.8200 C   0  0  0  0  0  0  0  0  0  0  0  0
   44.7500   32.6910   38.7640 C   0  0  0  0  0  0  0  0  0  0  0  0
   45.0790   33.2680   39.9620 C   0  0  0  0  0  0  0  0  0  0  0  0
   46.2670   33.8840   40.2430 C   0  0  0  0  0  0  0  0  0  0  0  0
   44.7510   35.9920   44.0610 C   0  0  0  0  0  0  0  0  0  0  0  0
   45.3690   35.8280   42.8050 C   0  0  0  0  0  0  0  0  0  0  0  0
   46.1770   34.7090   42.6300 C   0  0  0  0  0  0  0  0  0  0  0  0
   46.3440   33.8150   43.6640 N   0  0  0  0  0  0  0  0  0  0  0  0
   45.7190   34.0280   44.8510 C   0  0  0  0  0  0  0  0  0  0  0  0
   44.9260   35.1080   45.0560 N   0  0  0  0  0  0  0  0  0  0  0  0
   49.0320   35.6550   41.8380 C   0  0  0  0  0  0  0  0  0  0  0  0
   49.9180   34.7230   42.6010 C   0  0  0  0  0  0  0  0  0  0  0  0
   50.1490   33.4040   41.9220 C   0  0  1  0  0  0  0  0  0  0  0  0
   51.0420   32.3590   42.4400 C   0  0  0  0  0  0  0  0  0  0  0  0
   49.5810   32.2010   42.7000 C   0  0  2  0  0  0  0  0  0  0  0  0
   48.9420   31.1980   42.0040 O   0  0  0  0  0  0  0  0  0  0  0  0
   49.5190   29.1790   43.1150 N   0  0  0  0  0  0  0  0  0  0  0  0
   49.4190   28.9310   44.5440 C   0  0  0  0  0  0  0  0  0  0  0  0
   48.0590   29.4960   44.9450 C   0  0  0  0  0  0  0  0  0  0  0  0
   48.0720   30.7600   44.1060 C   0  0  0  0  0  0  0  0  0  0  0  0
   48.5240   30.1470   42.7720 C   0  0  1  0  0  0  0  0  0  0  0  0
   49.2012   34.7570   39.1556 H   0  0  0  0  0  0  0  0  0  0  0  0
   47.6866   33.3917   37.1931 H   0  0  0  0  0  0  0  0  0  0  0  0
   45.5303   32.3292   36.8346 H   0  0  0  0  0  0  0  0  0  0  0  0
   43.7809   32.2045   38.5791 H   0  0  0  0  0  0  0  0  0  0  0  0
   44.3262   33.2330   40.7633 H   0  0  0  0  0  0  0  0  0  0  0  0
   44.1078   36.8681   44.2306 H   0  0  0  0  0  0  0  0  0  0  0  0
   45.2184   36.5564   41.9946 H   0  0  0  0  0  0  0  0  0  0  0  0
   45.8602   33.3048   45.6677 H   0  0  0  0  0  0  0  0  0  0  0  0
   49.6595   36.3216   41.2281 H   0  0  0  0  0  0  0  0  0  0  0  0
   48.4336   36.2249   42.5641 H   0  0  0  0  0  0  0  0  0  0  0  0
   50.8923   35.2128   42.7450 H   0  0  0  0  0  0  0  0  0  0  0  0
   49.4074   34.5059   43.5508 H   0  0  0  0  0  0  0  0  0  0  0  0
   50.0841   33.8698   40.9276 H   0  0  0  0  0  0  0  0  0  0  0  0
   51.5446   31.6779   41.7375 H   0  0  0  0  0  0  0  0  0  0  0  0
   51.9334   32.3698   43.0845 H   0  0  0  0  0  0  0  0  0  0  0  0
   48.9268   32.0836   43.5765 H   0  0  0  0  0  0  0  0  0  0  0  0
   50.4554   29.5421   42.8865 H   0  0  0  0  0  0  0  0  0  0  0  0
   49.4675   27.8524   44.7542 H   0  0  0  0  0  0  0  0  0  0  0  0
   50.2431   29.3968   45.1043 H   0  0  0  0  0  0  0  0  0  0  0  0
   47.2343   28.8238   44.6658 H   0  0  0  0  0  0  0  0  0  0  0  0
   47.9078   29.6455   46.0243 H   0  0  0  0  0  0  0  0  0  0  0  0
   47.0751   31.2192   44.0338 H   0  0  0  0  0  0  0  0  0  0  0  0
   48.6967   31.5801   44.4895 H   0  0  0  0  0  0  0  0  0  0  0  0
   47.7610   29.6175   42.1825 H   0  0  0  0  0  0  0  0  0  0  0  0
  1 12  1  0
  2  1  2  0
  2 16  1  0
  3  2  1  0
  4  3  1  0
  4  9  2  0
  5  4  1  0
  6  5  2  0
  6  7  1  0
  7  8  2  0
  8  9  1  0
  9  1  1  0
 10 15  2  0
 11 10  1  0
 12 11  2  0
 12 13  1  0
 13 14  2  0
 14 15  1  0
 16 17  1  0
 18 19  1  0
 18 17  1  0
 18 20  1  0
 19 20  1  0
 21 20  1  0
 22 23  1  0
 23 24  1  0
 25 24  1  0
 26 21  1  0
 26 22  1  0
 26 25  1  0
  3 27  1  0
  5 28  1  0
  6 29  1  0
  7 30  1  0
  8 31  1  0
 10 32  1  0
 11 33  1  0
 14 34  1  0
 16 35  1  0
 16 36  1  0
 17 37  1  0
 17 38  1  0
 18 39  1  6
 19 40  1  0
 19 41  1  0
 20 42  1  1
 22 43  1  0
 23 44  1  0
 23 45  1  0
 24 46  1  0
 24 47  1  0
 25 48  1  0
 25 49  1  0
 26 50  1  6
M  ISO  8  27   9  28  14  29  14  30  14  31  14  32  14  33  14  34  14
M  ISO  8  35   8  36   8  37   8  38   8  39  13  40  13  41  13  42  13
M  ISO  8  43   5  44  13  45  13  46  13  47  13  48  13  49  13  50  13
M  END
>  <minimizedAffinity>  (1) 
-5.58985758

>  <minimizedRMSD>  (1) 
0.728819013

$$$$
