
     RDKit          3D

 43 47  0  0  1  0  0  0  0  0999 V2000
   46.8740   34.5490   41.3490 C   0  0  0  0  0  0  0  0  0  0  0  0
   48.1600   34.9400   40.9880 C   0  0  0  0  0  0  0  0  0  0  0  0
   48.4130   34.6020   39.7290 N   0  0  0  0  0  0  0  0  0  0  0  0
   47.3100   33.9960   39.2650 C   0  0  0  0  0  0  0  0  0  0  0  0
   47.0390   33.4480   38.0070 C   0  0  0  0  0  0  0  0  0  0  0  0
   45.8170   32.8800   37.7870 C   0  0  0  0  0  0  0  0  0  0  0  0
   44.8130   32.7990   38.7110 C   0  0  0  0  0  0  0  0  0  0  0  0
   45.1280   33.3530   39.9360 C   0  0  0  0  0  0  0  0  0  0  0  0
   46.3270   33.9400   40.2390 C   0  0  0  0  0  0  0  0  0  0  0  0
   44.7400   35.9990   44.0460 C   0  0  0  0  0  0  0  0  0  0  0  0
   45.3750   35.8400   42.7900 C   0  0  0  0  0  0  0  0  0  0  0  0
   46.2100   34.7300   42.6380 C   0  0  0  0  0  0  0  0  0  0  0  0
   46.3820   33.8560   43.6770 N   0  0  0  0  0  0  0  0  0  0  0  0
   45.7410   34.0700   44.8540 C   0  0  0  0  0  0  0  0  0  0  0  0
   44.9250   35.1320   45.0420 N   0  0  0  0  0  0  0  0  0  0  0  0
   49.0970   35.6360   41.9040 C   0  0  0  0  0  0  0  0  0  0  0  0
   50.0180   34.6810   42.5990 C   0  0  0  0  0  0  0  0  0  0  0  0
   50.1330   33.3400   41.9240 C   0  0  1  0  0  0  0  0  0  0  0  0
   50.9900   32.2560   42.4100 C   0  0  0  0  0  0  0  0  0  0  0  0
   49.5390   32.1850   42.7480 C   0  0  2  0  0  0  0  0  0  0  0  0
   48.8070   31.2180   42.0900 O   0  0  0  0  0  0  0  0  0  0  0  0
   47.5810   30.8400   42.6050 C   0  0  0  0  0  0  0  0  0  0  0  0
   47.3990   30.5270   43.8940 N   0  0  0  0  0  0  0  0  0  0  0  0
   46.1520   30.2140   44.0820 O   0  0  0  0  0  0  0  0  0  0  0  0
   45.4920   30.3090   42.9480 C   0  0  0  0  0  0  0  0  0  0  0  0
   46.3830   30.7070   41.9930 N   0  0  0  0  0  0  0  0  0  0  0  0
   49.2862   34.7721   39.2099 H   0  0  0  0  0  0  0  0  0  0  0  0
   47.7963   33.4741   37.2096 H   0  0  0  0  0  0  0  0  0  0  0  0
   45.6260   32.4553   36.7904 H   0  0  0  0  0  0  0  0  0  0  0  0
   43.8396   32.3334   38.4975 H   0  0  0  0  0  0  0  0  0  0  0  0
   44.3613   33.3203   40.7241 H   0  0  0  0  0  0  0  0  0  0  0  0
   44.0759   36.8615   44.2042 H   0  0  0  0  0  0  0  0  0  0  0  0
   45.2180   36.5578   41.9714 H   0  0  0  0  0  0  0  0  0  0  0  0
   45.8896   33.3585   45.6796 H   0  0  0  0  0  0  0  0  0  0  0  0
   49.6989   36.3489   41.3214 H   0  0  0  0  0  0  0  0  0  0  0  0
   48.5008   36.1513   42.6715 H   0  0  0  0  0  0  0  0  0  0  0  0
   51.0194   35.1344   42.6404 H   0  0  0  0  0  0  0  0  0  0  0  0
   49.5936   34.4993   43.5974 H   0  0  0  0  0  0  0  0  0  0  0  0
   50.0402   33.7950   40.9268 H   0  0  0  0  0  0  0  0  0  0  0  0
   51.4157   31.5383   41.6933 H   0  0  0  0  0  0  0  0  0  0  0  0
   51.9135   32.2245   43.0068 H   0  0  0  0  0  0  0  0  0  0  0  0
   48.9289   32.1131   43.6605 H   0  0  0  0  0  0  0  0  0  0  0  0
   44.4215   30.1056   42.7972 H   0  0  0  0  0  0  0  0  0  0  0  0
  1 12  1  0
  2  1  2  0
  2 16  1  0
  3  2  1  0
  4  3  1  0
  4  9  2  0
  5  4  1  0
  6  5  2  0
  6  7  1  0
  7  8  2  0
  8  9  1  0
  9  1  1  0
 10 15  2  0
 11 10  1  0
 12 11  2  0
 12 13  1  0
 13 14  2  0
 14 15  1  0
 16 17  1  0
 18 19  1  0
 18 17  1  0
 18 20  1  0
 19 20  1  0
 21 22  1  0
 21 20  1  0
 22 23  2  0
 23 24  1  0
 25 24  1  0
 26 22  1  0
 26 25  2  0
  3 27  1  0
  5 28  1  0
  6 29  1  0
  7 30  1  0
  8 31  1  0
 10 32  1  0
 11 33  1  0
 14 34  1  0
 16 35  1  0
 16 36  1  0
 17 37  1  0
 17 38  1  0
 18 39  1  6
 19 40  1  0
 19 41  1  0
 20 42  1  1
 25 43  1  0
M  ISO  8  27   9  28  14  29  14  30  14  31  14  32  14  33  14  34  14
M  ISO  8  35   8  36   8  37   8  38   8  39  13  40  13  41  13  42  13
M  ISO  1  43  14
M  END
>  <minimizedAffinity>  (1) 
-5.53023195

>  <minimizedRMSD>  (1) 
0.600274861

$$$$
