
     RDKit          3D

 45 49  0  0  1  0  0  0  0  0999 V2000
   46.8820   34.5380   41.3450 C   0  0  0  0  0  0  0  0  0  0  0  0
   48.1700   34.9410   40.9790 C   0  0  0  0  0  0  0  0  0  0  0  0
   48.4240   34.6110   39.7190 N   0  0  0  0  0  0  0  0  0  0  0  0
   47.3120   33.9930   39.2520 C   0  0  0  0  0  0  0  0  0  0  0  0
   47.0580   33.4540   37.9890 C   0  0  0  0  0  0  0  0  0  0  0  0
   45.8450   32.8760   37.7600 C   0  0  0  0  0  0  0  0  0  0  0  0
   44.8340   32.7830   38.6950 C   0  0  0  0  0  0  0  0  0  0  0  0
   45.1440   33.3360   39.9270 C   0  0  0  0  0  0  0  0  0  0  0  0
   46.3420   33.9320   40.2290 C   0  0  0  0  0  0  0  0  0  0  0  0
   44.7670   35.9800   44.0440 C   0  0  0  0  0  0  0  0  0  0  0  0
   45.4000   35.8300   42.7950 C   0  0  0  0  0  0  0  0  0  0  0  0
   46.2210   34.7080   42.6250 C   0  0  0  0  0  0  0  0  0  0  0  0
   46.3800   33.8140   43.6470 N   0  0  0  0  0  0  0  0  0  0  0  0
   45.7370   34.0190   44.8330 C   0  0  0  0  0  0  0  0  0  0  0  0
   44.9370   35.0840   45.0400 N   0  0  0  0  0  0  0  0  0  0  0  0
   49.0970   35.6430   41.9090 C   0  0  0  0  0  0  0  0  0  0  0  0
   50.0080   34.6810   42.6070 C   0  0  0  0  0  0  0  0  0  0  0  0
   50.1740   33.3610   41.9130 C   0  0  1  0  0  0  0  0  0  0  0  0
   51.0260   32.2810   42.4220 C   0  0  0  0  0  0  0  0  0  0  0  0
   49.5650   32.1670   42.6960 C   0  0  2  0  0  0  0  0  0  0  0  0
   48.8880   31.2140   42.0070 O   0  0  0  0  0  0  0  0  0  0  0  0
   47.6670   30.7840   42.3710 C   0  0  0  0  0  0  0  0  0  0  0  0
   46.4040   30.5400   41.7960 C   0  0  0  0  0  0  0  0  0  0  0  0
   45.4050   30.0800   42.6050 C   0  0  0  0  0  0  0  0  0  0  0  0
   45.6540   29.8610   43.9630 C   0  0  0  0  0  0  0  0  0  0  0  0
   47.4180   30.3230   44.1930 S   0  0  0  0  0  0  0  0  0  0  0  0
   49.2947   34.7894   39.1985 H   0  0  0  0  0  0  0  0  0  0  0  0
   47.8199   33.4950   37.1966 H   0  0  0  0  0  0  0  0  0  0  0  0
   45.6590   32.4546   36.7611 H   0  0  0  0  0  0  0  0  0  0  0  0
   43.8644   32.3100   38.4803 H   0  0  0  0  0  0  0  0  0  0  0  0
   44.3783   33.2943   40.7156 H   0  0  0  0  0  0  0  0  0  0  0  0
   44.1164   36.8507   44.2129 H   0  0  0  0  0  0  0  0  0  0  0  0
   45.2558   36.5627   41.9874 H   0  0  0  0  0  0  0  0  0  0  0  0
   45.8760   33.2917   45.6464 H   0  0  0  0  0  0  0  0  0  0  0  0
   49.7046   36.3584   41.3354 H   0  0  0  0  0  0  0  0  0  0  0  0
   48.4950   36.1616   42.6697 H   0  0  0  0  0  0  0  0  0  0  0  0
   50.9994   35.1495   42.6945 H   0  0  0  0  0  0  0  0  0  0  0  0
   49.5450   34.4646   43.5811 H   0  0  0  0  0  0  0  0  0  0  0  0
   50.1152   33.8333   40.9213 H   0  0  0  0  0  0  0  0  0  0  0  0
   51.4989   31.5857   41.7129 H   0  0  0  0  0  0  0  0  0  0  0  0
   51.9209   32.2591   43.0613 H   0  0  0  0  0  0  0  0  0  0  0  0
   48.9193   32.0610   43.5802 H   0  0  0  0  0  0  0  0  0  0  0  0
   46.2277   30.7154   40.7245 H   0  0  0  0  0  0  0  0  0  0  0  0
   44.4061   29.8821   42.1890 H   0  0  0  0  0  0  0  0  0  0  0  0
   44.9505   29.4938   44.7247 H   0  0  0  0  0  0  0  0  0  0  0  0
  1 12  1  0
  2  1  2  0
  2 16  1  0
  3  2  1  0
  4  3  1  0
  4  9  2  0
  5  4  1  0
  6  5  2  0
  6  7  1  0
  7  8  2  0
  8  9  1  0
  9  1  1  0
 10 15  2  0
 11 10  1  0
 12 11  2  0
 12 13  1  0
 13 14  2  0
 14 15  1  0
 16 17  1  0
 18 19  1  0
 18 17  1  0
 18 20  1  0
 19 20  1  0
 21 22  1  0
 21 20  1  0
 22 26  1  0
 23 22  2  0
 23 24  1  0
 24 25  2  0
 25 26  1  0
  3 27  1  0
  5 28  1  0
  6 29  1  0
  7 30  1  0
  8 31  1  0
 10 32  1  0
 11 33  1  0
 14 34  1  0
 16 35  1  0
 16 36  1  0
 17 37  1  0
 17 38  1  0
 18 39  1  6
 19 40  1  0
 19 41  1  0
 20 42  1  1
 23 43  1  0
 24 44  1  0
 25 45  1  0
M  ISO  8  27   9  28  14  29  14  30  14  31  14  32  14  33  14  34  14
M  ISO  8  35   8  36   8  37   8  38   8  39  13  40  13  41  13  42  13
M  ISO  3  43  14  44  14  45  14
M  END
>  <minimizedAffinity>  (1) 
-5.51426029

>  <minimizedRMSD>  (1) 
0.491111249

$$$$
