
     RDKit          3D

 42 45  0  0  1  0  0  0  0  0999 V2000
   46.9330   34.5050   41.3050 C   0  0  0  0  0  0  0  0  0  0  0  0
   48.2030   34.9420   40.9410 C   0  0  0  0  0  0  0  0  0  0  0  0
   48.4620   34.6410   39.6710 N   0  0  0  0  0  0  0  0  0  0  0  0
   47.3730   34.0110   39.1980 C   0  0  0  0  0  0  0  0  0  0  0  0
   47.1130   33.4820   37.9270 C   0  0  0  0  0  0  0  0  0  0  0  0
   45.9100   32.8810   37.6940 C   0  0  0  0  0  0  0  0  0  0  0  0
   44.9100   32.7490   38.6310 C   0  0  0  0  0  0  0  0  0  0  0  0
   45.2120   33.2850   39.8720 C   0  0  0  0  0  0  0  0  0  0  0  0
   46.3920   33.9020   40.1800 C   0  0  0  0  0  0  0  0  0  0  0  0
   44.7930   35.8450   44.0430 C   0  0  0  0  0  0  0  0  0  0  0  0
   45.4300   35.7280   42.7830 C   0  0  0  0  0  0  0  0  0  0  0  0
   46.2750   34.6370   42.5900 C   0  0  0  0  0  0  0  0  0  0  0  0
   46.4560   33.7330   43.6020 N   0  0  0  0  0  0  0  0  0  0  0  0
   45.8130   33.9030   44.7920 C   0  0  0  0  0  0  0  0  0  0  0  0
   44.9900   34.9440   45.0160 N   0  0  0  0  0  0  0  0  0  0  0  0
   49.1250   35.6470   41.8680 C   0  0  0  0  0  0  0  0  0  0  0  0
   49.9900   34.6840   42.6270 C   0  0  0  0  0  0  0  0  0  0  0  0
   50.2580   33.3870   41.9090 C   0  0  1  0  0  0  0  0  0  0  0  0
   51.0410   32.2930   42.4730 C   0  0  0  0  0  0  0  0  0  0  0  0
   49.5560   32.1790   42.5530 C   0  0  2  0  0  0  0  0  0  0  0  0
   48.9690   31.2410   41.7290 O   0  0  0  0  0  0  0  0  0  0  0  0
   47.9060   30.5050   42.2720 C   0  0  0  0  0  0  0  0  0  0  0  0
   46.5420   30.9180   42.3100 N   0  0  0  0  0  0  0  0  0  0  0  0
   48.0720   29.3540   42.8030 O   0  0  0  0  0  0  0  0  0  0  0  0
   49.3270   34.8498   39.1523 H   0  0  0  0  0  0  0  0  0  0  0  0
   47.8670   33.5500   37.1290 H   0  0  0  0  0  0  0  0  0  0  0  0
   45.7268   32.4742   36.6886 H   0  0  0  0  0  0  0  0  0  0  0  0
   43.9502   32.2583   38.4121 H   0  0  0  0  0  0  0  0  0  0  0  0
   44.4511   33.2090   40.6627 H   0  0  0  0  0  0  0  0  0  0  0  0
   44.1205   36.6957   44.2274 H   0  0  0  0  0  0  0  0  0  0  0  0
   45.2640   36.4697   41.9878 H   0  0  0  0  0  0  0  0  0  0  0  0
   45.9717   33.1667   45.5937 H   0  0  0  0  0  0  0  0  0  0  0  0
   49.7690   36.3223   41.2856 H   0  0  0  0  0  0  0  0  0  0  0  0
   48.5190   36.2097   42.5934 H   0  0  0  0  0  0  0  0  0  0  0  0
   50.9553   35.1724   42.8263 H   0  0  0  0  0  0  0  0  0  0  0  0
   49.4413   34.4264   43.5449 H   0  0  0  0  0  0  0  0  0  0  0  0
   50.3318   33.8979   40.9377 H   0  0  0  0  0  0  0  0  0  0  0  0
   51.6005   31.6248   41.8018 H   0  0  0  0  0  0  0  0  0  0  0  0
   51.8491   32.2409   43.2175 H   0  0  0  0  0  0  0  0  0  0  0  0
   48.8000   32.0451   43.3407 H   0  0  0  0  0  0  0  0  0  0  0  0
   45.8299   30.3050   42.7320 H   0  0  0  0  0  0  0  0  0  0  0  0
   46.2687   31.8293   41.9155 H   0  0  0  0  0  0  0  0  0  0  0  0
  1 12  1  0
  2  1  2  0
  2 16  1  0
  3  2  1  0
  4  3  1  0
  4  9  2  0
  5  4  1  0
  6  5  2  0
  6  7  1  0
  7  8  2  0
  8  9  1  0
  9  1  1  0
 10 15  2  0
 11 10  1  0
 12 11  2  0
 12 13  1  0
 13 14  2  0
 14 15  1  0
 16 17  1  0
 18 19  1  0
 18 20  1  0
 18 17  1  0
 19 20  1  0
 21 22  1  0
 21 20  1  0
 22 23  1  0
 22 24  2  0
  3 25  1  0
  5 26  1  0
  6 27  1  0
  7 28  1  0
  8 29  1  0
 10 30  1  0
 11 31  1  0
 14 32  1  0
 16 33  1  0
 16 34  1  0
 17 35  1  0
 17 36  1  0
 18 37  1  6
 19 38  1  0
 19 39  1  0
 20 40  1  1
 23 41  1  0
 23 42  1  0
M  ISO  8  25   9  26  14  27  14  28  14  29  14  30  14  31  14  32  14
M  ISO  8  33   8  34   8  35   8  36   8  37  13  38  13  39  13  40  13
M  END
>  <minimizedAffinity>  (1) 
-5.39961481

>  <minimizedRMSD>  (1) 
0.0657884851

$$$$
