
     RDKit          3D

 40 43  0  0  1  0  0  0  0  0999 V2000
   46.9330   34.5100   41.3180 C   0  0  0  0  0  0  0  0  0  0  0  0
   48.2070   34.9450   40.9440 C   0  0  0  0  0  0  0  0  0  0  0  0
   48.4600   34.6430   39.6900 N   0  0  0  0  0  0  0  0  0  0  0  0
   47.3640   34.0050   39.2120 C   0  0  0  0  0  0  0  0  0  0  0  0
   47.1250   33.4800   37.9350 C   0  0  0  0  0  0  0  0  0  0  0  0
   45.9200   32.8800   37.7160 C   0  0  0  0  0  0  0  0  0  0  0  0
   44.9140   32.7480   38.6520 C   0  0  0  0  0  0  0  0  0  0  0  0
   45.2110   33.2830   39.8790 C   0  0  0  0  0  0  0  0  0  0  0  0
   46.3850   33.9010   40.1970 C   0  0  0  0  0  0  0  0  0  0  0  0
   44.7810   35.8510   44.0430 C   0  0  0  0  0  0  0  0  0  0  0  0
   45.4140   35.7370   42.7880 C   0  0  0  0  0  0  0  0  0  0  0  0
   46.2710   34.6440   42.6030 C   0  0  0  0  0  0  0  0  0  0  0  0
   46.4590   33.7480   43.6190 N   0  0  0  0  0  0  0  0  0  0  0  0
   45.8200   33.9130   44.8050 C   0  0  0  0  0  0  0  0  0  0  0  0
   44.9860   34.9560   45.0190 N   0  0  0  0  0  0  0  0  0  0  0  0
   49.1240   35.6540   41.8740 C   0  0  0  0  0  0  0  0  0  0  0  0
   49.9750   34.6940   42.6490 C   0  0  0  0  0  0  0  0  0  0  0  0
   50.2940   33.4200   41.9290 C   0  0  1  0  0  0  0  0  0  0  0  0
   51.0540   32.3170   42.5070 C   0  0  0  0  0  0  0  0  0  0  0  0
   49.5730   32.1860   42.5010 C   0  0  2  0  0  0  0  0  0  0  0  0
   49.0500   31.2600   41.6280 O   0  0  0  0  0  0  0  0  0  0  0  0
   47.9730   30.4540   41.9410 C   0  0  0  0  0  0  0  0  0  0  0  0
   46.7740   30.8180   41.8850 O   0  0  0  0  0  0  0  0  0  0  0  0
   49.3248   34.8512   39.1706 H   0  0  0  0  0  0  0  0  0  0  0  0
   47.8810   33.5492   37.1390 H   0  0  0  0  0  0  0  0  0  0  0  0
   45.7349   32.4682   36.7129 H   0  0  0  0  0  0  0  0  0  0  0  0
   43.9554   32.2554   38.4321 H   0  0  0  0  0  0  0  0  0  0  0  0
   44.4457   33.2084   40.6656 H   0  0  0  0  0  0  0  0  0  0  0  0
   44.1014   36.6965   44.2255 H   0  0  0  0  0  0  0  0  0  0  0  0
   45.2425   36.4738   41.9894 H   0  0  0  0  0  0  0  0  0  0  0  0
   45.9841   33.1819   45.6103 H   0  0  0  0  0  0  0  0  0  0  0  0
   49.7774   36.3205   41.2919 H   0  0  0  0  0  0  0  0  0  0  0  0
   48.5142   36.2268   42.5881 H   0  0  0  0  0  0  0  0  0  0  0  0
   50.9227   35.1962   42.8935 H   0  0  0  0  0  0  0  0  0  0  0  0
   49.3936   34.4112   43.5389 H   0  0  0  0  0  0  0  0  0  0  0  0
   50.4162   33.9587   40.9778 H   0  0  0  0  0  0  0  0  0  0  0  0
   51.6573   31.6726   41.8507 H   0  0  0  0  0  0  0  0  0  0  0  0
   51.8192   32.2521   43.2945 H   0  0  0  0  0  0  0  0  0  0  0  0
   48.7737   32.0263   43.2396 H   0  0  0  0  0  0  0  0  0  0  0  0
   48.1809   29.4224   42.2613 H   0  0  0  0  0  0  0  0  0  0  0  0
  1 12  1  0
  2  1  2  0
  2 16  1  0
  3  2  1  0
  4  3  1  0
  4  9  2  0
  5  4  1  0
  6  5  2  0
  6  7  1  0
  7  8  2  0
  8  9  1  0
  9  1  1  0
 10 15  2  0
 11 10  1  0
 12 11  2  0
 12 13  1  0
 13 14  2  0
 14 15  1  0
 16 17  1  0
 18 20  1  0
 18 19  1  0
 18 17  1  0
 20 19  1  0
 21 22  1  0
 21 20  1  0
 23 22  2  0
  3 24  1  0
  5 25  1  0
  6 26  1  0
  7 27  1  0
  8 28  1  0
 10 29  1  0
 11 30  1  0
 14 31  1  0
 16 32  1  0
 16 33  1  0
 17 34  1  0
 17 35  1  0
 18 36  1  6
 19 37  1  0
 19 38  1  0
 20 39  1  1
 22 40  1  0
M  ISO  8  24   9  25  14  26  14  27  14  28  14  29  14  30  14  31  14
M  ISO  8  32   8  33   8  34   8  35   8  36  13  37  13  38  13  39  13
M  ISO  1  40   6
M  END
>  <minimizedAffinity>  (1) 
-5.36756134

>  <minimizedRMSD>  (1) 
0.0934849679

$$$$
