
     RDKit          3D

 47 51  0  0  1  0  0  0  0  0999 V2000
   46.9210   34.5150   41.3300 C   0  0  0  0  0  0  0  0  0  0  0  0
   48.1870   34.9490   40.9510 C   0  0  0  0  0  0  0  0  0  0  0  0
   48.4430   34.6400   39.7000 N   0  0  0  0  0  0  0  0  0  0  0  0
   47.3520   33.9970   39.2270 C   0  0  0  0  0  0  0  0  0  0  0  0
   47.1150   33.4610   37.9550 C   0  0  0  0  0  0  0  0  0  0  0  0
   45.9120   32.8560   37.7410 C   0  0  0  0  0  0  0  0  0  0  0  0
   44.9070   32.7250   38.6750 C   0  0  0  0  0  0  0  0  0  0  0  0
   45.1990   33.2710   39.9080 C   0  0  0  0  0  0  0  0  0  0  0  0
   46.3700   33.8950   40.2170 C   0  0  0  0  0  0  0  0  0  0  0  0
   44.7680   35.8700   44.0610 C   0  0  0  0  0  0  0  0  0  0  0  0
   45.4020   35.7530   42.8030 C   0  0  0  0  0  0  0  0  0  0  0  0
   46.2560   34.6550   42.6170 C   0  0  0  0  0  0  0  0  0  0  0  0
   46.4360   33.7590   43.6410 N   0  0  0  0  0  0  0  0  0  0  0  0
   45.7980   33.9260   44.8260 C   0  0  0  0  0  0  0  0  0  0  0  0
   44.9680   34.9740   45.0380 N   0  0  0  0  0  0  0  0  0  0  0  0
   49.1000   35.6670   41.8720 C   0  0  0  0  0  0  0  0  0  0  0  0
   50.0110   34.7330   42.5890 C   0  0  0  0  0  0  0  0  0  0  0  0
   50.2170   33.3980   41.9100 C   0  0  1  0  0  0  0  0  0  0  0  0
   51.0590   32.3320   42.4460 C   0  0  0  0  0  0  0  0  0  0  0  0
   49.5900   32.2320   42.6690 C   0  0  2  0  0  0  0  0  0  0  0  0
   48.9360   31.2570   41.9500 O   0  0  0  0  0  0  0  0  0  0  0  0
   47.7340   30.6930   42.2580 C   0  0  0  0  0  0  0  0  0  0  0  0
   46.7950   30.5400   41.4230 O   0  0  0  0  0  0  0  0  0  0  0  0
   46.8580   30.0610   43.2890 C   0  0  0  0  0  0  0  0  0  0  0  0
   47.3810   29.0150   44.1940 C   0  0  0  0  0  0  0  0  0  0  0  0
   47.2330   30.3660   44.7320 C   0  0  0  0  0  0  0  0  0  0  0  0
   49.3077   34.8475   39.1802 H   0  0  0  0  0  0  0  0  0  0  0  0
   47.8710   33.5257   37.1585 H   0  0  0  0  0  0  0  0  0  0  0  0
   45.7284   32.4379   36.7402 H   0  0  0  0  0  0  0  0  0  0  0  0
   43.9513   32.2265   38.4556 H   0  0  0  0  0  0  0  0  0  0  0  0
   44.4342   33.1975   40.6952 H   0  0  0  0  0  0  0  0  0  0  0  0
   44.0925   36.7189   44.2432 H   0  0  0  0  0  0  0  0  0  0  0  0
   45.2333   36.4906   42.0045 H   0  0  0  0  0  0  0  0  0  0  0  0
   45.9584   33.1945   45.6317 H   0  0  0  0  0  0  0  0  0  0  0  0
   49.7052   36.3780   41.2904 H   0  0  0  0  0  0  0  0  0  0  0  0
   48.4873   36.1890   42.6217 H   0  0  0  0  0  0  0  0  0  0  0  0
   50.9919   35.2210   42.6879 H   0  0  0  0  0  0  0  0  0  0  0  0
   49.5327   34.5169   43.5557 H   0  0  0  0  0  0  0  0  0  0  0  0
   50.1946   33.8619   40.9128 H   0  0  0  0  0  0  0  0  0  0  0  0
   51.5531   31.6312   41.7569 H   0  0  0  0  0  0  0  0  0  0  0  0
   51.9357   32.3117   43.1101 H   0  0  0  0  0  0  0  0  0  0  0  0
   48.9111   32.1415   43.5298 H   0  0  0  0  0  0  0  0  0  0  0  0
   45.9722   30.1235   42.6398 H   0  0  0  0  0  0  0  0  0  0  0  0
   46.7122   28.2146   44.5434 H   0  0  0  0  0  0  0  0  0  0  0  0
   48.2178   28.3033   44.1360 H   0  0  0  0  0  0  0  0  0  0  0  0
   48.1237   30.9720   44.9543 H   0  0  0  0  0  0  0  0  0  0  0  0
   46.7177   30.8109   45.5960 H   0  0  0  0  0  0  0  0  0  0  0  0
  1 12  1  0
  2  1  2  0
  2 16  1  0
  3  2  1  0
  4  3  1  0
  4  9  2  0
  5  4  1  0
  6  5  2  0
  6  7  1  0
  7  8  2  0
  8  9  1  0
  9  1  1  0
 10 15  2  0
 11 10  1  0
 12 11  2  0
 12 13  1  0
 13 14  2  0
 14 15  1  0
 16 17  1  0
 18 19  1  0
 18 17  1  0
 18 20  1  0
 19 20  1  0
 21 22  1  0
 21 20  1  0
 22 24  1  0
 23 22  2  0
 24 25  1  0
 24 26  1  0
 25 26  1  0
  3 27  1  0
  5 28  1  0
  6 29  1  0
  7 30  1  0
  8 31  1  0
 10 32  1  0
 11 33  1  0
 14 34  1  0
 16 35  1  0
 16 36  1  0
 17 37  1  0
 17 38  1  0
 18 39  1  6
 19 40  1  0
 19 41  1  0
 20 42  1  1
 24 43  1  0
 25 44  1  0
 25 45  1  0
 26 46  1  0
 26 47  1  0
M  ISO  8  27   9  28  14  29  14  30  14  31  14  32  14  33  14  34  14
M  ISO  8  35   8  36   8  37   8  38   8  39  13  40  13  41  13  42  13
M  ISO  5  43  13  44  13  45  13  46  13  47  13
M  END
>  <minimizedAffinity>  (1) 
-5.33507061

>  <minimizedRMSD>  (1) 
0.741875291

$$$$
