
     RDKit          3D

 47 49  0  0  0  0  0  0  0  0999 V2000
   47.7220   33.2910   37.2390 C   0  0  0  0  0  0  0  0  0  0  0  0
   49.2270   32.1170   34.1230 C   0  0  0  0  0  0  0  0  0  0  0  0
   49.6440   30.8420   34.4250 C   0  0  0  0  0  0  0  0  0  0  0  0
   49.4210   30.3340   35.7250 C   0  0  0  0  0  0  0  0  0  0  0  0
   48.7960   31.1520   36.6140 N   0  0  0  0  0  0  0  0  0  0  0  0
   48.3990   32.4130   36.2650 C   0  0  0  0  0  0  0  0  0  0  0  0
   48.6220   32.8560   35.0480 N   0  0  0  0  0  0  0  0  0  0  0  0
   49.4660   32.6120   32.7920 C   0  0  0  0  0  0  0  0  0  0  0  0
   49.0370   33.7710   32.4670 O   0  0  0  0  0  0  0  0  0  0  0  0
   50.1740   31.7860   31.8900 O   0  0  0  0  0  0  0  0  0  0  0  0
   49.5410   31.3820   30.7090 C   0  0  0  0  0  0  0  0  0  0  0  0
   49.6420   32.3240   29.6790 F   0  0  0  0  0  0  0  0  0  0  0  0
   50.0750   30.1960   30.2830 F   0  0  0  0  0  0  0  0  0  0  0  0
   48.1930   31.2760   31.0080 F   0  0  0  0  0  0  0  0  0  0  0  0
   48.2810   34.6720   37.2710 C   0  0  0  0  0  0  0  0  0  0  0  0
   46.2670   33.3240   36.9240 C   0  0  0  0  0  0  0  0  0  0  0  0
   47.9080   32.6530   38.6110 C   0  0  0  0  0  0  0  0  0  0  0  0
   47.2810   33.4430   39.6820 C   0  0  0  0  0  0  0  0  0  0  0  0
   48.0710   34.1880   40.5570 C   0  0  0  0  0  0  0  0  0  0  0  0
   47.1820   34.8090   41.4380 C   0  0  0  0  0  0  0  0  0  0  0  0
   45.9410   34.4430   41.0920 N   0  0  0  0  0  0  0  0  0  0  0  0
   46.0050   33.6460   40.0660 N   0  0  0  0  0  0  0  0  0  0  0  0
   44.7290   34.8770   41.7640 C   0  0  0  0  0  0  0  0  0  0  0  0
   44.9100   34.6360   43.2210 C   0  0  0  0  0  0  0  0  0  0  0  0
   44.5200   35.5640   44.1860 C   0  0  0  0  0  0  0  0  0  0  0  0
   44.6900   35.3340   45.5420 C   0  0  0  0  0  0  0  0  0  0  0  0
   45.2730   34.1220   45.8520 C   0  0  0  0  0  0  0  0  0  0  0  0
   45.6760   33.1730   44.9350 C   0  0  0  0  0  0  0  0  0  0  0  0
   45.4680   33.4870   43.6470 N   0  0  0  0  0  0  0  0  0  0  0  0
   50.1449   30.2251   33.6644 H   0  0  0  0  0  0  0  0  0  0  0  0
   49.7396   29.3194   36.0061 H   0  0  0  0  0  0  0  0  0  0  0  0
   48.4102   34.9912   38.3157 H   0  0  0  0  0  0  0  0  0  0  0  0
   49.2553   34.6851   36.7604 H   0  0  0  0  0  0  0  0  0  0  0  0
   47.5902   35.3591   36.7604 H   0  0  0  0  0  0  0  0  0  0  0  0
   45.6894   33.3371   37.8601 H   0  0  0  0  0  0  0  0  0  0  0  0
   46.0388   34.2276   36.3396 H   0  0  0  0  0  0  0  0  0  0  0  0
   45.9980   32.4317   36.3396 H   0  0  0  0  0  0  0  0  0  0  0  0
   47.4557   31.6504   38.5995 H   0  0  0  0  0  0  0  0  0  0  0  0
   48.9875   32.6035   38.8163 H   0  0  0  0  0  0  0  0  0  0  0  0
   49.1679   34.2699   40.5542 H   0  0  0  0  0  0  0  0  0  0  0  0
   47.4529   35.4788   42.2675 H   0  0  0  0  0  0  0  0  0  0  0  0
   44.5610   35.9483   41.5793 H   0  0  0  0  0  0  0  0  0  0  0  0
   43.8582   34.3210   41.3863 H   0  0  0  0  0  0  0  0  0  0  0  0
   44.0624   36.5097   43.8602 H   0  0  0  0  0  0  0  0  0  0  0  0
   44.3846   36.0597   46.3102 H   0  0  0  0  0  0  0  0  0  0  0  0
   45.4291   33.8940   46.9167 H   0  0  0  0  0  0  0  0  0  0  0  0
   46.1373   32.2220   45.2396 H   0  0  0  0  0  0  0  0  0  0  0  0
  1 15  1  0
  1 17  1  0
  2  3  2  0
  2  7  1  0
  3  4  1  0
  4  5  2  0
  6  5  1  0
  6  1  1  0
  7  6  2  0
  8  2  1  0
  9  8  2  0
 10  8  1  0
 11 14  1  0
 11 10  1  0
 12 11  1  0
 13 11  1  0
 16  1  1  0
 17 18  1  0
 18 22  2  0
 18 19  1  0
 19 20  2  0
 21 20  1  0
 21 23  1  0
 22 21  1  0
 23 24  1  0
 24 29  1  0
 24 25  2  0
 25 26  1  0
 26 27  2  0
 28 27  1  0
 29 28  2  0
  3 30  1  0
  4 31  1  0
 15 32  1  0
 15 33  1  0
 15 34  1  0
 16 35  1  0
 16 36  1  0
 16 37  1  0
 17 38  1  0
 17 39  1  0
 19 40  1  0
 20 41  1  0
 23 42  1  0
 23 43  1  0
 25 44  1  0
 26 45  1  0
 27 46  1  0
 28 47  1  0
M  ISO  8  30  14  31  14  32   8  33   8  34   8  35   8  36   8  37   8
M  ISO  8  38   8  39   8  40  14  41  14  42   8  43   8  44  14  45  14
M  ISO  2  46  14  47  14
M  END
>  <minimizedAffinity>  (1) 
-5.95568991

>  <minimizedRMSD>  (1) 
10.3680849

$$$$
