
     RDKit          3D

 24 25  0  0  0  0  0  0  0  0999 V2000
   45.1660   34.5680   44.7810 C   0  0  0  0  0  0  0  0  0  0  0  0
   45.9830   34.1170   43.7270 C   0  0  0  0  0  0  0  0  0  0  0  0
   46.9390   33.1350   44.0120 C   0  0  0  0  0  0  0  0  0  0  0  0
   47.0330   32.6620   45.2930 N   0  0  0  0  0  0  0  0  0  0  0  0
   46.2150   33.1360   46.2700 C   0  0  0  0  0  0  0  0  0  0  0  0
   45.2950   34.0730   46.0240 N   0  0  0  0  0  0  0  0  0  0  0  0
   46.3460   32.6010   47.6430 C   0  0  0  0  0  0  0  0  0  0  0  0
   47.3530   31.5090   47.7900 C   0  0  0  0  0  0  0  0  0  0  0  0
   46.9910   30.9190   49.1360 C   0  0  0  0  0  0  0  0  0  0  0  0
   45.5430   31.3000   49.4010 C   0  0  0  0  0  0  0  0  0  0  0  0
   45.0680   31.8940   48.0910 C   0  0  0  0  0  0  0  0  0  0  0  0
   45.8230   34.7690   42.0610 S   0  0  0  0  0  0  0  0  0  0  0  0
   44.4077   35.3401   44.5836 H   0  0  0  0  0  0  0  0  0  0  0  0
   47.6015   32.7511   43.2222 H   0  0  0  0  0  0  0  0  0  0  0  0
   46.6157   33.4975   48.2205 H   0  0  0  0  0  0  0  0  0  0  0  0
   47.2526   30.7632   46.9877 H   0  0  0  0  0  0  0  0  0  0  0  0
   48.3944   31.8574   47.7264 H   0  0  0  0  0  0  0  0  0  0  0  0
   47.0973   29.8244   49.1118 H   0  0  0  0  0  0  0  0  0  0  0  0
   47.6531   31.2999   49.9276 H   0  0  0  0  0  0  0  0  0  0  0  0
   44.9485   30.4130   49.6652 H   0  0  0  0  0  0  0  0  0  0  0  0
   45.4395   32.0005   50.2428 H   0  0  0  0  0  0  0  0  0  0  0  0
   44.2400   32.6027   48.2403 H   0  0  0  0  0  0  0  0  0  0  0  0
   44.6637   31.1667   47.3715 H   0  0  0  0  0  0  0  0  0  0  0  0
   45.4968   36.0983   42.1202 H   0  0  0  0  0  0  0  0  0  0  0  0
  1  6  2  0
  2  3  2  0
  2  1  1  0
  3  4  1  0
  4  5  2  0
  5  7  1  0
  6  5  1  0
  7  8  1  0
  7 11  1  0
  8  9  1  0
  9 10  1  0
 11 10  1  0
 12  2  1  0
  1 13  1  0
  3 14  1  0
  7 15  1  0
  8 16  1  0
  8 17  1  0
  9 18  1  0
  9 19  1  0
 10 20  1  0
 10 21  1  0
 11 22  1  0
 11 23  1  0
 12 24  1  0
M  ISO  8  13  14  14  14  15  13  16  13  17  13  18  13  19  13  20  13
M  ISO  4  21  13  22  13  23  13  24  11
M  END
>  <minimizedAffinity>  (1) 
-4.15576267

>  <minimizedRMSD>  (1) 
1.72164309

$$$$
