
     RDKit          3D

 18 19  0  0  0  0  0  0  0  0999 V2000
   44.7720   34.9910   45.3620 C   0  0  0  0  0  0  0  0  0  0  0  0
   45.4400   34.8850   44.1190 C   0  0  0  0  0  0  0  0  0  0  0  0
   46.4360   33.9350   43.9530 C   0  0  0  0  0  0  0  0  0  0  0  0
   46.7380   33.1280   45.0110 N   0  0  0  0  0  0  0  0  0  0  0  0
   46.0860   33.2490   46.1830 C   0  0  0  0  0  0  0  0  0  0  0  0
   45.1210   34.1560   46.3740 N   0  0  0  0  0  0  0  0  0  0  0  0
   46.3490   32.4260   47.3590 C   0  0  0  0  0  0  0  0  0  0  0  0
   47.4250   31.7080   47.8800 C   0  0  0  0  0  0  0  0  0  0  0  0
   46.9260   31.1620   49.0610 C   0  0  0  0  0  0  0  0  0  0  0  0
   45.6130   31.5670   49.1910 C   0  0  0  0  0  0  0  0  0  0  0  0
   45.3030   32.3260   48.1470 O   0  0  0  0  0  0  0  0  0  0  0  0
   44.9860   35.9940   42.7560 S   0  0  0  0  0  0  0  0  0  0  0  0
   43.9799   35.7405   45.5064 H   0  0  0  0  0  0  0  0  0  0  0  0
   46.9678   33.8346   42.9953 H   0  0  0  0  0  0  0  0  0  0  0  0
   48.4343   31.5981   47.4566 H   0  0  0  0  0  0  0  0  0  0  0  0
   47.4797   30.5224   49.7641 H   0  0  0  0  0  0  0  0  0  0  0  0
   44.9380   31.3053   50.0192 H   0  0  0  0  0  0  0  0  0  0  0  0
   44.5043   37.1708   43.2659 H   0  0  0  0  0  0  0  0  0  0  0  0
  1  6  2  0
  2  1  1  0
  3  2  2  0
  3  4  1  0
  4  5  2  0
  5  6  1  0
  5  7  1  0
  7  8  2  0
  7 11  1  0
  8  9  1  0
  9 10  2  0
 11 10  1  0
 12  2  1  0
  1 13  1  0
  3 14  1  0
  8 15  1  0
  9 16  1  0
 10 17  1  0
 12 18  1  0
M  ISO  6  13  14  14  14  15  14  16  14  17  14  18  11
M  END
>  <minimizedAffinity>  (1) 
-4.04549265

>  <minimizedRMSD>  (1) 
1.71816421

$$$$
