
     RDKit          3D

 17 18  0  0  0  0  0  0  0  0999 V2000
   44.5920   35.3460   44.7770 C   0  0  0  0  0  0  0  0  0  0  0  0
   44.7540   34.7410   43.5140 C   0  0  0  0  0  0  0  0  0  0  0  0
   45.3540   33.4890   43.4470 C   0  0  0  0  0  0  0  0  0  0  0  0
   45.7630   32.8920   44.6090 N   0  0  0  0  0  0  0  0  0  0  0  0
   45.5840   33.5160   45.8000 C   0  0  0  0  0  0  0  0  0  0  0  0
   45.0080   34.7260   45.8950 N   0  0  0  0  0  0  0  0  0  0  0  0
   46.0920   32.7070   46.9360 C   0  0  0  0  0  0  0  0  0  0  0  0
   47.3520   31.9870   47.0280 C   0  0  0  0  0  0  0  0  0  0  0  0
   47.2030   31.3080   48.6390 S   0  0  0  0  0  0  0  0  0  0  0  0
   45.5500   32.0260   48.9980 C   0  0  0  0  0  0  0  0  0  0  0  0
   45.1660   32.7560   47.8860 N   0  0  0  0  0  0  0  0  0  0  0  0
   44.1910   35.5880   42.0270 S   0  0  0  0  0  0  0  0  0  0  0  0
   44.1197   36.3369   44.8485 H   0  0  0  0  0  0  0  0  0  0  0  0
   45.4975   32.9874   42.4786 H   0  0  0  0  0  0  0  0  0  0  0  0
   48.1673   31.8943   46.2954 H   0  0  0  0  0  0  0  0  0  0  0  0
   44.9722   31.8992   49.9254 H   0  0  0  0  0  0  0  0  0  0  0  0
   43.4581   36.6906   42.3793 H   0  0  0  0  0  0  0  0  0  0  0  0
  1  6  2  0
  2  1  1  0
  3  2  2  0
  3  4  1  0
  4  5  2  0
  5  6  1  0
  5  7  1  0
  7  8  2  0
  7 11  1  0
  8  9  1  0
  9 10  1  0
 11 10  2  0
 12  2  1  0
  1 13  1  0
  3 14  1  0
  8 15  1  0
 10 16  1  0
 12 17  1  0
M  ISO  5  13  14  14  14  15  14  16  14  17  11
M  END
>  <minimizedAffinity>  (1) 
-3.82526875

>  <minimizedRMSD>  (1) 
0.891531408

$$$$
