
     RDKit          3D

 45 47  0  0  0  0  0  0  0  0999 V2000
   47.9090   33.3510   37.3780 C   0  0  0  0  0  0  0  0  0  0  0  0
   48.7810   31.7760   34.2030 C   0  0  0  0  0  0  0  0  0  0  0  0
   49.8730   31.0030   34.5090 C   0  0  0  0  0  0  0  0  0  0  0  0
   50.3580   30.9940   35.8400 C   0  0  0  0  0  0  0  0  0  0  0  0
   49.7010   31.7630   36.7430 N   0  0  0  0  0  0  0  0  0  0  0  0
   48.6200   32.5160   36.3920 C   0  0  0  0  0  0  0  0  0  0  0  0
   48.1910   32.5040   35.1410 N   0  0  0  0  0  0  0  0  0  0  0  0
   48.3100   31.7660   32.8410 C   0  0  0  0  0  0  0  0  0  0  0  0
   47.6750   30.7470   32.4060 O   0  0  0  0  0  0  0  0  0  0  0  0
   48.5710   32.8960   32.0310 O   0  0  0  0  0  0  0  0  0  0  0  0
   49.2340   32.7040   30.8140 C   0  0  0  0  0  0  0  0  0  0  0  0
   48.3880   32.2440   29.8090 F   0  0  0  0  0  0  0  0  0  0  0  0
   49.7880   33.8950   30.3990 F   0  0  0  0  0  0  0  0  0  0  0  0
   50.1820   31.7280   31.0190 F   0  0  0  0  0  0  0  0  0  0  0  0
   48.4920   34.7150   37.5440 C   0  0  0  0  0  0  0  0  0  0  0  0
   46.4740   33.4590   36.9700 C   0  0  0  0  0  0  0  0  0  0  0  0
   47.9650   32.6120   38.7000 C   0  0  0  0  0  0  0  0  0  0  0  0
   47.1290   33.2290   39.7410 C   0  0  0  0  0  0  0  0  0  0  0  0
   45.8190   32.8170   39.9050 C   0  0  0  0  0  0  0  0  0  0  0  0
   45.3050   33.5810   40.9530 C   0  0  0  0  0  0  0  0  0  0  0  0
   46.2680   34.3950   41.3780 N   0  0  0  0  0  0  0  0  0  0  0  0
   47.3330   34.1850   40.6650 N   0  0  0  0  0  0  0  0  0  0  0  0
   46.1720   35.3770   42.4640 C   0  0  0  0  0  0  0  0  0  0  0  0
   46.1720   34.5470   43.7190 C   0  0  0  0  0  0  0  0  0  0  0  0
   45.2180   34.5080   44.6930 C   0  0  0  0  0  0  0  0  0  0  0  0
   45.6330   33.6310   45.6220 N   0  0  0  0  0  0  0  0  0  0  0  0
   46.8090   33.1200   45.2670 C   0  0  0  0  0  0  0  0  0  0  0  0
   47.1620   33.6800   44.0820 N   0  0  0  0  0  0  0  0  0  0  0  0
   50.3645   30.3992   33.7320 H   0  0  0  0  0  0  0  0  0  0  0  0
   51.2302   30.3891   36.1286 H   0  0  0  0  0  0  0  0  0  0  0  0
   48.5899   34.9440   38.6154 H   0  0  0  0  0  0  0  0  0  0  0  0
   49.4838   34.7501   37.0694 H   0  0  0  0  0  0  0  0  0  0  0  0
   47.8320   35.4561   37.0694 H   0  0  0  0  0  0  0  0  0  0  0  0
   45.8401   33.5067   37.8678 H   0  0  0  0  0  0  0  0  0  0  0  0
   46.3307   34.3705   36.3711 H   0  0  0  0  0  0  0  0  0  0  0  0
   46.1959   32.5792   36.3711 H   0  0  0  0  0  0  0  0  0  0  0  0
   47.6195   31.5801   38.5393 H   0  0  0  0  0  0  0  0  0  0  0  0
   49.0066   32.6471   39.0519 H   0  0  0  0  0  0  0  0  0  0  0  0
   45.2903   32.0446   39.3271 H   0  0  0  0  0  0  0  0  0  0  0  0
   44.2836   33.5211   41.3569 H   0  0  0  0  0  0  0  0  0  0  0  0
   47.0342   36.0599   42.4488 H   0  0  0  0  0  0  0  0  0  0  0  0
   45.2763   36.0099   42.3795 H   0  0  0  0  0  0  0  0  0  0  0  0
   44.2829   35.0869   44.7139 H   0  0  0  0  0  0  0  0  0  0  0  0
   47.3908   32.3771   45.8323 H   0  0  0  0  0  0  0  0  0  0  0  0
   48.0231   33.4855   43.5514 H   0  0  0  0  0  0  0  0  0  0  0  0
  1 15  1  0
  1 17  1  0
  2  3  2  0
  2  7  1  0
  3  4  1  0
  4  5  2  0
  6  5  1  0
  6  1  1  0
  7  6  2  0
  8  2  1  0
  9  8  2  0
 10  8  1  0
 11 14  1  0
 11 10  1  0
 12 11  1  0
 13 11  1  0
 16  1  1  0
 17 18  1  0
 18 19  1  0
 18 22  2  0
 19 20  2  0
 20 21  1  0
 21 23  1  0
 22 21  1  0
 23 24  1  0
 24 28  1  0
 24 25  2  0
 25 26  1  0
 27 26  2  0
 28 27  1  0
  3 29  1  0
  4 30  1  0
 15 31  1  0
 15 32  1  0
 15 33  1  0
 16 34  1  0
 16 35  1  0
 16 36  1  0
 17 37  1  0
 17 38  1  0
 19 39  1  0
 20 40  1  0
 23 41  1  0
 23 42  1  0
 25 43  1  0
 27 44  1  0
 28 45  1  0
M  ISO  8  29  14  30  14  31   8  32   8  33   8  34   8  35   8  36   8
M  ISO  8  37   8  38   8  39  14  40  14  41   8  42   8  43  14  44  14
M  ISO  1  45   9
M  END
>  <minimizedAffinity>  (1) 
-5.67784834

>  <minimizedRMSD>  (1) 
9.86694813

$$$$
