
     RDKit          3D

 16 17  0  0  0  0  0  0  0  0999 V2000
   44.4430   35.5670   44.4830 C   0  0  0  0  0  0  0  0  0  0  0  0
   44.5840   34.8490   43.2760 C   0  0  0  0  0  0  0  0  0  0  0  0
   45.1720   33.5930   43.3320 C   0  0  0  0  0  0  0  0  0  0  0  0
   45.5890   33.1060   44.5380 N   0  0  0  0  0  0  0  0  0  0  0  0
   45.4310   33.8400   45.6730 C   0  0  0  0  0  0  0  0  0  0  0  0
   44.8630   35.0600   45.6510 N   0  0  0  0  0  0  0  0  0  0  0  0
   45.9530   33.1050   46.8240 C   0  0  0  0  0  0  0  0  0  0  0  0
   47.1370   32.5820   47.1980 N   0  0  0  0  0  0  0  0  0  0  0  0
   47.0180   32.0230   48.3550 O   0  0  0  0  0  0  0  0  0  0  0  0
   45.7860   32.1370   48.8090 C   0  0  0  0  0  0  0  0  0  0  0  0
   45.1260   32.8210   47.8310 N   0  0  0  0  0  0  0  0  0  0  0  0
   44.0180   35.5340   41.7080 S   0  0  0  0  0  0  0  0  0  0  0  0
   43.9785   36.5640   44.4650 H   0  0  0  0  0  0  0  0  0  0  0  0
   45.3006   32.9971   42.4164 H   0  0  0  0  0  0  0  0  0  0  0  0
   45.3814   31.7645   49.7617 H   0  0  0  0  0  0  0  0  0  0  0  0
   43.1588   36.5739   41.9475 H   0  0  0  0  0  0  0  0  0  0  0  0
  1  6  2  0
  2  3  2  0
  2  1  1  0
  3  4  1  0
  4  5  2  0
  5  7  1  0
  6  5  1  0
  7  8  2  0
  7 11  1  0
  8  9  1  0
  9 10  1  0
 11 10  2  0
 12  2  1  0
  1 13  1  0
  3 14  1  0
 10 15  1  0
 12 16  1  0
M  ISO  4  13  14  14  14  15  14  16  11
M  END
>  <minimizedAffinity>  (1) 
-3.99529862

>  <minimizedRMSD>  (1) 
0.563548505

$$$$
