
     RDKit          3D

 50 52  0  0  0  0  0  0  0  0999 V2000
   47.4020   32.8080   38.1940 C   0  0  0  0  0  0  0  0  0  0  0  0
   46.2360   34.4600   41.2410 C   0  0  0  0  0  0  0  0  0  0  0  0
   47.3850   34.9730   41.7880 C   0  0  0  0  0  0  0  0  0  0  0  0
   48.6210   34.7740   41.1320 C   0  0  0  0  0  0  0  0  0  0  0  0
   48.5890   34.0680   39.9690 N   0  0  0  0  0  0  0  0  0  0  0  0
   47.4280   33.5770   39.4610 C   0  0  0  0  0  0  0  0  0  0  0  0
   46.3030   33.7840   40.1030 N   0  0  0  0  0  0  0  0  0  0  0  0
   44.9940   34.6800   41.9360 C   0  0  0  0  0  0  0  0  0  0  0  0
   43.9550   35.0070   41.2690 O   0  0  0  0  0  0  0  0  0  0  0  0
   44.9790   34.5250   43.3410 O   0  0  0  0  0  0  0  0  0  0  0  0
   44.6210   35.6420   44.1280 C   0  0  0  0  0  0  0  0  0  0  0  0
   43.2510   35.8780   44.0830 F   0  0  0  0  0  0  0  0  0  0  0  0
   44.9740   35.3920   45.4410 F   0  0  0  0  0  0  0  0  0  0  0  0
   45.2490   36.7320   43.5930 F   0  0  0  0  0  0  0  0  0  0  0  0
   47.1510   31.3570   38.3740 C   0  0  0  0  0  0  0  0  0  0  0  0
   46.3640   33.3970   37.2950 C   0  0  0  0  0  0  0  0  0  0  0  0
   48.7580   33.0020   37.5370 C   0  0  0  0  0  0  0  0  0  0  0  0
   48.7870   32.5350   36.1490 C   0  0  0  0  0  0  0  0  0  0  0  0
   49.5710   31.4320   35.8060 C   0  0  0  0  0  0  0  0  0  0  0  0
   49.3690   31.2600   34.4220 C   0  0  0  0  0  0  0  0  0  0  0  0
   48.5300   32.1900   33.9910 N   0  0  0  0  0  0  0  0  0  0  0  0
   48.2000   32.9240   35.0050 N   0  0  0  0  0  0  0  0  0  0  0  0
   48.0770   32.3420   32.6250 C   0  0  0  0  0  0  0  0  0  0  0  0
   48.9300   31.6080   31.7090 N   0  0  0  0  0  0  0  0  0  0  0  0
   49.5900   32.4310   30.7390 C   0  0  0  0  0  0  0  0  0  0  0  0
   48.8430   32.2570   29.4350 C   0  0  0  0  0  0  0  0  0  0  0  0
   48.3280   30.8510   29.5400 C   0  0  0  0  0  0  0  0  0  0  0  0
   48.2210   30.5820   31.0050 C   0  0  0  0  0  0  0  0  0  0  0  0
   47.3444   35.5361   42.7320 H   0  0  0  0  0  0  0  0  0  0  0  0
   49.5621   35.1701   41.5412 H   0  0  0  0  0  0  0  0  0  0  0  0
   47.1104   31.1224   39.4479 H   0  0  0  0  0  0  0  0  0  0  0  0
   46.1932   31.0895   37.9038 H   0  0  0  0  0  0  0  0  0  0  0  0
   47.9632   30.7833   37.9038 H   0  0  0  0  0  0  0  0  0  0  0  0
   45.5666   33.8495   37.9028 H   0  0  0  0  0  0  0  0  0  0  0  0
   46.8239   34.1687   36.6602 H   0  0  0  0  0  0  0  0  0  0  0  0
   45.9374   32.6064   36.6602 H   0  0  0  0  0  0  0  0  0  0  0  0
   49.0064   34.0735   37.5528 H   0  0  0  0  0  0  0  0  0  0  0  0
   49.4891   32.4059   38.1029 H   0  0  0  0  0  0  0  0  0  0  0  0
   50.2072   30.8291   36.4706 H   0  0  0  0  0  0  0  0  0  0  0  0
   49.8328   30.4799   33.8004 H   0  0  0  0  0  0  0  0  0  0  0  0
   47.0486   31.9605   32.5426 H   0  0  0  0  0  0  0  0  0  0  0  0
   48.1149   33.4090   32.3601 H   0  0  0  0  0  0  0  0  0  0  0  0
   49.5610   33.4845   31.0541 H   0  0  0  0  0  0  0  0  0  0  0  0
   50.6457   32.1420   30.6299 H   0  0  0  0  0  0  0  0  0  0  0  0
   49.5168   32.3701   28.5729 H   0  0  0  0  0  0  0  0  0  0  0  0
   48.0502   33.0038   29.2811 H   0  0  0  0  0  0  0  0  0  0  0  0
   47.3427   30.7641   29.0588 H   0  0  0  0  0  0  0  0  0  0  0  0
   48.9909   30.1315   29.0371 H   0  0  0  0  0  0  0  0  0  0  0  0
   47.1633   30.5880   31.3070 H   0  0  0  0  0  0  0  0  0  0  0  0
   48.6520   29.5975   31.2396 H   0  0  0  0  0  0  0  0  0  0  0  0
  1 15  1  0
  1  6  1  0
  2  3  2  0
  2  8  1  0
  4  3  1  0
  5  4  2  0
  6  5  1  0
  6  7  2  0
  7  2  1  0
  8 10  1  0
  9  8  2  0
 10 11  1  0
 11 13  1  0
 12 11  1  0
 14 11  1  0
 16  1  1  0
 17  1  1  0
 18 17  1  0
 19 18  1  0
 20 19  2  0
 21 20  1  0
 21 22  1  0
 22 18  2  0
 23 21  1  0
 24 23  1  0
 25 24  1  0
 26 27  1  0
 26 25  1  0
 27 28  1  0
 28 24  1  0
  3 29  1  0
  4 30  1  0
 15 31  1  0
 15 32  1  0
 15 33  1  0
 16 34  1  0
 16 35  1  0
 16 36  1  0
 17 37  1  0
 17 38  1  0
 19 39  1  0
 20 40  1  0
 23 41  1  0
 23 42  1  0
 25 43  1  0
 25 44  1  0
 26 45  1  0
 26 46  1  0
 27 47  1  0
 27 48  1  0
 28 49  1  0
 28 50  1  0
M  ISO  8  29  14  30  14  31   8  32   8  33   8  34   8  35   8  36   8
M  ISO  8  37   8  38   8  39  14  40  14  41   8  42   8  43  13  44  13
M  ISO  6  45  13  46  13  47  13  48  13  49  13  50  13
M  END
>  <minimizedAffinity>  (1) 
-5.5865078

>  <minimizedRMSD>  (1) 
1.40307045

$$$$
