
     RDKit          3D

 35 37  0  0  0  0  0  0  0  0999 V2000
   44.0130   35.4930   42.6320 C   0  0  0  0  0  0  0  0  0  0  0  0
   43.3270   35.0100   41.5060 C   0  0  0  0  0  0  0  0  0  0  0  0
   44.0340   34.3240   40.5460 C   0  0  0  0  0  0  0  0  0  0  0  0
   45.3720   34.1390   40.7190 N   0  0  0  0  0  0  0  0  0  0  0  0
   46.0080   34.6150   41.8120 C   0  0  0  0  0  0  0  0  0  0  0  0
   45.3380   35.2930   42.7750 N   0  0  0  0  0  0  0  0  0  0  0  0
   47.4420   34.4320   42.0330 C   0  0  0  0  0  0  0  0  0  0  0  0
   48.2980   35.4920   41.9430 C   0  0  0  0  0  0  0  0  0  0  0  0
   49.6630   35.3530   42.1480 C   0  0  0  0  0  0  0  0  0  0  0  0
   50.1910   34.1150   42.4540 C   0  0  0  0  0  0  0  0  0  0  0  0
   49.3000   33.0580   42.5390 C   0  0  0  0  0  0  0  0  0  0  0  0
   47.9830   33.2340   42.3330 N   0  0  0  0  0  0  0  0  0  0  0  0
   41.5450   35.3050   41.3750 S   0  0  0  0  0  0  0  0  0  0  0  0
   38.5620   33.7780   38.4040 N   0  0  0  0  0  0  0  0  0  0  0  0
   38.4600   33.9540   39.8220 C   0  0  0  0  0  0  0  0  0  0  0  0
   39.7240   33.5160   40.5340 C   0  0  0  0  0  0  0  0  0  0  0  0
   40.8670   34.3440   40.0130 C   0  0  0  0  0  0  0  0  0  0  0  0
   40.5010   35.2110   38.8500 C   0  0  0  0  0  0  0  0  0  0  0  0
   39.7070   34.4440   37.8120 C   0  0  0  0  0  0  0  0  0  0  0  0
   43.4609   36.0426   43.4086 H   0  0  0  0  0  0  0  0  0  0  0  0
   43.5266   33.9310   39.6526 H   0  0  0  0  0  0  0  0  0  0  0  0
   47.8932   36.4857   41.7007 H   0  0  0  0  0  0  0  0  0  0  0  0
   50.3239   36.2286   42.0668 H   0  0  0  0  0  0  0  0  0  0  0  0
   51.2689   33.9744   42.6225 H   0  0  0  0  0  0  0  0  0  0  0  0
   49.6777   32.0534   42.7801 H   0  0  0  0  0  0  0  0  0  0  0  0
   38.6348   32.7698   38.2063 H   0  0  0  0  0  0  0  0  0  0  0  0
   38.2801   35.0177   40.0371 H   0  0  0  0  0  0  0  0  0  0  0  0
   37.6288   33.3320   40.1856 H   0  0  0  0  0  0  0  0  0  0  0  0
   39.6144   33.6721   41.6173 H   0  0  0  0  0  0  0  0  0  0  0  0
   39.9133   32.4481   40.3504 H   0  0  0  0  0  0  0  0  0  0  0  0
   41.6307   33.6587   39.6166 H   0  0  0  0  0  0  0  0  0  0  0  0
   39.8954   36.0555   39.2107 H   0  0  0  0  0  0  0  0  0  0  0  0
   41.4296   35.5668   38.3798 H   0  0  0  0  0  0  0  0  0  0  0  0
   40.3595   33.6892   37.3488 H   0  0  0  0  0  0  0  0  0  0  0  0
   39.3402   35.1587   37.0605 H   0  0  0  0  0  0  0  0  0  0  0  0
  1  6  2  0
  2  1  1  0
  3  4  1  0
  3  2  2  0
  4  5  2  0
  5  7  1  0
  5  6  1  0
  7 12  1  0
  8  7  2  0
  8  9  1  0
  9 10  2  0
 10 11  1  0
 12 11  2  0
 13  2  1  0
 14 15  1  0
 15 16  1  0
 17 16  1  0
 17 13  1  0
 18 17  1  0
 19 14  1  0
 19 18  1  0
  1 20  1  0
  3 21  1  0
  8 22  1  0
  9 23  1  0
 10 24  1  0
 11 25  1  0
 14 26  1  0
 15 27  1  0
 15 28  1  0
 16 29  1  0
 16 30  1  0
 17 31  1  0
 18 32  1  0
 18 33  1  0
 19 34  1  0
 19 35  1  0
M  ISO  8  20  14  21  14  22  14  23  14  24  14  25  14  26   5  27  13
M  ISO  8  28  13  29  13  30  13  31  13  32  13  33  13  34  13  35  13
M  END
>  <minimizedAffinity>  (1) 
-5.65857935

>  <minimizedRMSD>  (1) 
2.18230844

$$$$
