
     RDKit          3D

 27 29  0  0  0  0  0  0  0  0999 V2000
   43.9900   35.6300   42.5310 C   0  0  0  0  0  0  0  0  0  0  0  0
   43.2830   35.0860   41.4320 C   0  0  0  0  0  0  0  0  0  0  0  0
   43.9680   34.3070   40.5260 C   0  0  0  0  0  0  0  0  0  0  0  0
   45.2960   34.0780   40.7050 N   0  0  0  0  0  0  0  0  0  0  0  0
   45.9380   34.6220   41.7770 C   0  0  0  0  0  0  0  0  0  0  0  0
   45.3020   35.3900   42.6850 N   0  0  0  0  0  0  0  0  0  0  0  0
   47.3750   34.4010   42.0100 C   0  0  0  0  0  0  0  0  0  0  0  0
   48.2450   35.4770   41.9190 C   0  0  0  0  0  0  0  0  0  0  0  0
   49.6090   35.3450   42.1250 C   0  0  0  0  0  0  0  0  0  0  0  0
   50.1320   34.0980   42.4330 C   0  0  0  0  0  0  0  0  0  0  0  0
   49.2320   33.0490   42.5150 C   0  0  0  0  0  0  0  0  0  0  0  0
   47.9100   33.2150   42.3080 N   0  0  0  0  0  0  0  0  0  0  0  0
   41.5170   35.4370   41.2640 S   0  0  0  0  0  0  0  0  0  0  0  0
   41.0190   35.2790   39.5550 C   0  0  0  0  0  0  0  0  0  0  0  0
   39.9000   34.5360   39.2350 C   0  0  0  0  0  0  0  0  0  0  0  0
   39.7470   34.5820   37.8500 C   0  0  0  0  0  0  0  0  0  0  0  0
   40.7710   35.3480   37.3820 N   0  0  0  0  0  0  0  0  0  0  0  0
   41.5250   35.7610   38.3980 N   0  0  0  0  0  0  0  0  0  0  0  0
   43.4600   36.2547   43.2651 H   0  0  0  0  0  0  0  0  0  0  0  0
   43.4434   33.8725   39.6623 H   0  0  0  0  0  0  0  0  0  0  0  0
   47.8384   36.4695   41.6749 H   0  0  0  0  0  0  0  0  0  0  0  0
   50.2702   36.2204   42.0450 H   0  0  0  0  0  0  0  0  0  0  0  0
   51.2085   33.9497   42.6037 H   0  0  0  0  0  0  0  0  0  0  0  0
   49.6089   32.0445   42.7576 H   0  0  0  0  0  0  0  0  0  0  0  0
   39.2480   34.0045   39.9438 H   0  0  0  0  0  0  0  0  0  0  0  0
   38.9585   34.0975   37.2555 H   0  0  0  0  0  0  0  0  0  0  0  0
   40.9370   35.5738   36.3909 H   0  0  0  0  0  0  0  0  0  0  0  0
  1  6  2  0
  2  1  1  0
  3  4  1  0
  3  2  2  0
  4  5  2  0
  5  7  1  0
  5  6  1  0
  7 12  1  0
  8  7  2  0
  8  9  1  0
  9 10  2  0
 10 11  1  0
 12 11  2  0
 13  2  1  0
 14 13  1  0
 15 14  1  0
 16 15  2  0
 17 16  1  0
 17 18  1  0
 18 14  2  0
  1 19  1  0
  3 20  1  0
  8 21  1  0
  9 22  1  0
 10 23  1  0
 11 24  1  0
 15 25  1  0
 16 26  1  0
 17 27  1  0
M  ISO  8  19  14  20  14  21  14  22  14  23  14  24  14  25  14  26  14
M  ISO  1  27   9
M  END
>  <minimizedAffinity>  (1) 
-5.52874899

>  <minimizedRMSD>  (1) 
0.908324182

$$$$
