
     RDKit          3D

 36 39  0  0  0  0  0  0  0  0999 V2000
   44.3860   31.9950   38.6490 C   0  0  0  0  0  0  0  0  0  0  0  0
   43.1970   31.3910   38.2130 C   0  0  0  0  0  0  0  0  0  0  0  0
   43.0890   31.0060   36.8740 C   0  0  0  0  0  0  0  0  0  0  0  0
   44.1410   31.2260   36.0220 N   0  0  0  0  0  0  0  0  0  0  0  0
   45.2770   31.8190   36.5060 C   0  0  0  0  0  0  0  0  0  0  0  0
   45.3860   32.1900   37.7870 N   0  0  0  0  0  0  0  0  0  0  0  0
   46.4310   32.0780   35.6430 C   0  0  0  0  0  0  0  0  0  0  0  0
   47.6080   32.5340   36.2010 C   0  0  0  0  0  0  0  0  0  0  0  0
   48.7290   32.7930   35.4190 C   0  0  0  0  0  0  0  0  0  0  0  0
   48.6830   32.5990   34.0580 C   0  0  0  0  0  0  0  0  0  0  0  0
   47.4780   32.1390   33.5320 C   0  0  0  0  0  0  0  0  0  0  0  0
   46.4110   31.8960   34.3110 N   0  0  0  0  0  0  0  0  0  0  0  0
   41.7940   31.0890   39.3150 S   0  0  0  0  0  0  0  0  0  0  0  0
   40.5900   32.4080   39.1680 C   0  0  0  0  0  0  0  0  0  0  0  0
   39.5040   32.1770   38.3200 C   0  0  0  0  0  0  0  0  0  0  0  0
   38.5580   33.1740   38.1840 C   0  0  0  0  0  0  0  0  0  0  0  0
   38.6590   34.3680   38.8540 C   0  0  0  0  0  0  0  0  0  0  0  0
   39.7170   34.5990   39.6830 C   0  0  0  0  0  0  0  0  0  0  0  0
   39.8410   35.8020   40.3720 C   0  0  0  0  0  0  0  0  0  0  0  0
   40.9230   36.0090   41.2060 C   0  0  0  0  0  0  0  0  0  0  0  0
   41.8630   35.0010   41.3310 C   0  0  0  0  0  0  0  0  0  0  0  0
   41.7760   33.7890   40.6620 C   0  0  0  0  0  0  0  0  0  0  0  0
   40.6790   33.6210   39.8390 C   0  0  0  0  0  0  0  0  0  0  0  0
   44.4936   32.3069   39.6983 H   0  0  0  0  0  0  0  0  0  0  0  0
   42.1678   30.5304   36.5063 H   0  0  0  0  0  0  0  0  0  0  0  0
   47.6609   32.6962   37.2877 H   0  0  0  0  0  0  0  0  0  0  0  0
   49.6550   33.1540   35.8904 H   0  0  0  0  0  0  0  0  0  0  0  0
   49.5545   32.7973   33.4168 H   0  0  0  0  0  0  0  0  0  0  0  0
   47.3979   31.9699   32.4480 H   0  0  0  0  0  0  0  0  0  0  0  0
   39.4050   31.2265   37.7752 H   0  0  0  0  0  0  0  0  0  0  0  0
   37.6980   33.0064   37.5190 H   0  0  0  0  0  0  0  0  0  0  0  0
   37.8858   35.1392   38.7221 H   0  0  0  0  0  0  0  0  0  0  0  0
   39.0791   36.5864   40.2528 H   0  0  0  0  0  0  0  0  0  0  0  0
   41.0347   36.9538   41.7582 H   0  0  0  0  0  0  0  0  0  0  0  0
   42.7235   35.1696   41.9951 H   0  0  0  0  0  0  0  0  0  0  0  0
   42.5383   33.0049   40.7802 H   0  0  0  0  0  0  0  0  0  0  0  0
  2  1  2  0
  2 13  1  0
  3  2  1  0
  4  5  1  0
  4  3  2  0
  5  6  2  0
  6  1  1  0
  7  8  2  0
  7  5  1  0
  9  8  1  0
 10  9  2  0
 11 10  1  0
 11 12  2  0
 12  7  1  0
 14 13  1  0
 14 23  1  0
 15 14  2  0
 16 15  1  0
 16 17  2  0
 17 18  1  0
 18 23  2  0
 18 19  1  0
 19 20  2  0
 20 21  1  0
 22 21  2  0
 23 22  1  0
  1 24  1  0
  3 25  1  0
  8 26  1  0
  9 27  1  0
 10 28  1  0
 11 29  1  0
 15 30  1  0
 16 31  1  0
 17 32  1  0
 19 33  1  0
 20 34  1  0
 21 35  1  0
 22 36  1  0
M  ISO  8  24  14  25  14  26  14  27  14  28  14  29  14  30  14  31  14
M  ISO  5  32  14  33  14  34  14  35  14  36  14
M  END
>  <minimizedAffinity>  (1) 
-5.28336573

>  <minimizedRMSD>  (1) 
5.97119713

$$$$
