
     RDKit          3D

 27 29  0  0  0  0  0  0  0  0999 V2000
   43.9510   35.5480   42.8240 C   0  0  0  0  0  0  0  0  0  0  0  0
   43.2440   35.1670   41.6600 C   0  0  0  0  0  0  0  0  0  0  0  0
   43.9210   34.5430   40.6290 C   0  0  0  0  0  0  0  0  0  0  0  0
   45.2710   34.3010   40.7480 N   0  0  0  0  0  0  0  0  0  0  0  0
   45.9060   34.6820   41.8790 C   0  0  0  0  0  0  0  0  0  0  0  0
   45.2600   35.2930   42.8960 N   0  0  0  0  0  0  0  0  0  0  0  0
   47.3500   34.4580   42.0830 C   0  0  0  0  0  0  0  0  0  0  0  0
   48.2410   35.4830   41.9370 C   0  0  0  0  0  0  0  0  0  0  0  0
   49.6010   35.3090   42.1200 C   0  0  0  0  0  0  0  0  0  0  0  0
   50.1040   34.0640   42.4650 C   0  0  0  0  0  0  0  0  0  0  0  0
   49.1640   33.0470   42.6030 C   0  0  0  0  0  0  0  0  0  0  0  0
   47.8400   33.2400   42.4180 N   0  0  0  0  0  0  0  0  0  0  0  0
   41.4650   35.4660   41.4640 S   0  0  0  0  0  0  0  0  0  0  0  0
   40.7460   33.8210   41.2690 C   0  0  0  0  0  0  0  0  0  0  0  0
   40.8050   32.8790   40.2480 C   0  0  0  0  0  0  0  0  0  0  0  0
   40.0760   31.8190   40.6360 N   0  0  0  0  0  0  0  0  0  0  0  0
   39.5740   32.0860   41.8620 C   0  0  0  0  0  0  0  0  0  0  0  0
   39.9770   33.3120   42.2630 N   0  0  0  0  0  0  0  0  0  0  0  0
   43.4316   36.0460   43.6560 H   0  0  0  0  0  0  0  0  0  0  0  0
   43.3837   34.2412   39.7178 H   0  0  0  0  0  0  0  0  0  0  0  0
   47.8644   36.4801   41.6648 H   0  0  0  0  0  0  0  0  0  0  0  0
   50.2852   36.1607   41.9915 H   0  0  0  0  0  0  0  0  0  0  0  0
   51.1792   33.8908   42.6200 H   0  0  0  0  0  0  0  0  0  0  0  0
   49.5151   32.0406   42.8750 H   0  0  0  0  0  0  0  0  0  0  0  0
   41.3486   32.9825   39.2973 H   0  0  0  0  0  0  0  0  0  0  0  0
   38.9340   31.4078   42.4454 H   0  0  0  0  0  0  0  0  0  0  0  0
   39.7442   33.7724   43.1545 H   0  0  0  0  0  0  0  0  0  0  0  0
  1  6  2  0
  2  1  1  0
  3  4  1  0
  3  2  2  0
  4  5  2  0
  5  7  1  0
  5  6  1  0
  7 12  1  0
  8  7  2  0
  8  9  1  0
  9 10  2  0
 10 11  1  0
 12 11  2  0
 13  2  1  0
 14 13  1  0
 14 18  1  0
 15 16  1  0
 15 14  2  0
 16 17  2  0
 17 18  1  0
  1 19  1  0
  3 20  1  0
  8 21  1  0
  9 22  1  0
 10 23  1  0
 11 24  1  0
 15 25  1  0
 17 26  1  0
 18 27  1  0
M  ISO  8  19  14  20  14  21  14  22  14  23  14  24  14  25  14  26  14
M  ISO  1  27   9
M  END
>  <minimizedAffinity>  (1) 
-5.27007437

>  <minimizedRMSD>  (1) 
0.859181404

$$$$
