
     RDKit          3D

 42 45  0  0  1  0  0  0  0  0999 V2000
   38.0500   33.4470   40.0600 N   0  0  0  0  0  0  0  0  0  0  0  0
   38.8050   32.9450   41.1100 C   0  0  0  0  0  0  0  0  0  0  0  0
   39.8890   33.7150   41.6990 C   0  0  0  0  0  0  0  0  0  0  0  0
   40.7180   34.3150   40.6220 C   0  0  1  0  0  0  0  0  0  0  0  0
   39.8230   34.8650   39.5850 C   0  0  0  0  0  0  0  0  0  0  0  0
   38.8920   33.8900   38.9670 C   0  0  1  0  0  0  0  0  0  0  0  0
   39.5250   32.7460   38.3010 C   0  0  0  0  0  0  0  0  0  0  0  0
   38.7410   31.7350   37.7780 C   0  0  0  0  0  0  0  0  0  0  0  0
   39.5560   30.7960   37.2170 C   0  0  0  0  0  0  0  0  0  0  0  0
   40.8200   31.2110   37.3880 N   0  0  0  0  0  0  0  0  0  0  0  0
   40.8050   32.3800   38.0370 N   0  0  0  0  0  0  0  0  0  0  0  0
   41.5490   35.6070   41.5370 S   0  0  0  0  0  0  0  0  0  0  0  0
   44.0410   35.6630   42.7830 C   0  0  0  0  0  0  0  0  0  0  0  0
   43.3220   35.2410   41.6670 C   0  0  0  0  0  0  0  0  0  0  0  0
   43.9780   34.5450   40.6700 C   0  0  0  0  0  0  0  0  0  0  0  0
   45.3090   34.2990   40.8170 N   0  0  0  0  0  0  0  0  0  0  0  0
   45.9830   34.7170   41.9060 C   0  0  0  0  0  0  0  0  0  0  0  0
   45.3640   35.4030   42.9030 N   0  0  0  0  0  0  0  0  0  0  0  0
   47.4130   34.4660   42.0920 C   0  0  0  0  0  0  0  0  0  0  0  0
   48.3120   35.4790   41.9850 C   0  0  0  0  0  0  0  0  0  0  0  0
   49.6700   35.2930   42.1520 C   0  0  0  0  0  0  0  0  0  0  0  0
   50.1520   34.0420   42.4390 C   0  0  0  0  0  0  0  0  0  0  0  0
   49.2160   33.0180   42.5440 C   0  0  0  0  0  0  0  0  0  0  0  0
   47.9000   33.2510   42.3730 N   0  0  0  0  0  0  0  0  0  0  0  0
   37.4185   32.7085   39.7184 H   0  0  0  0  0  0  0  0  0  0  0  0
   38.0988   32.7285   41.9251 H   0  0  0  0  0  0  0  0  0  0  0  0
   39.3379   32.1055   40.6396 H   0  0  0  0  0  0  0  0  0  0  0  0
   39.4703   34.5151   42.3271 H   0  0  0  0  0  0  0  0  0  0  0  0
   40.5148   33.0522   42.3147 H   0  0  0  0  0  0  0  0  0  0  0  0
   41.4056   33.6355   40.0970 H   0  0  0  0  0  0  0  0  0  0  0  0
   39.2223   35.6641   40.0440 H   0  0  0  0  0  0  0  0  0  0  0  0
   40.4780   35.2154   38.7737 H   0  0  0  0  0  0  0  0  0  0  0  0
   38.3454   34.3792   38.1473 H   0  0  0  0  0  0  0  0  0  0  0  0
   37.6422   31.6943   37.8090 H   0  0  0  0  0  0  0  0  0  0  0  0
   39.2359   29.8700   36.7170 H   0  0  0  0  0  0  0  0  0  0  0  0
   41.6633   30.7115   37.0715 H   0  0  0  0  0  0  0  0  0  0  0  0
   43.5246   36.2172   43.5807 H   0  0  0  0  0  0  0  0  0  0  0  0
   43.4371   34.1974   39.7775 H   0  0  0  0  0  0  0  0  0  0  0  0
   47.9427   36.4895   41.7558 H   0  0  0  0  0  0  0  0  0  0  0  0
   50.3610   36.1434   42.0554 H   0  0  0  0  0  0  0  0  0  0  0  0
   51.2272   33.8568   42.5795 H   0  0  0  0  0  0  0  0  0  0  0  0
   49.5573   31.9973   42.7713 H   0  0  0  0  0  0  0  0  0  0  0  0
  1  2  1  0
  2  3  1  0
  4 12  1  0
  4  3  1  0
  5  4  1  0
  6  5  1  0
  6  1  1  0
  7  6  1  0
  8  7  1  0
  9 10  1  0
  9  8  2  0
 10 11  1  0
 11  7  2  0
 12 14  1  0
 13 18  2  0
 14 13  1  0
 15 16  1  0
 15 14  2  0
 16 17  2  0
 17 19  1  0
 17 18  1  0
 19 24  1  0
 20 19  2  0
 20 21  1  0
 21 22  2  0
 22 23  1  0
 24 23  2  0
  1 25  1  0
  2 26  1  0
  2 27  1  0
  3 28  1  0
  3 29  1  0
  4 30  1  6
  5 31  1  0
  5 32  1  0
  6 33  1  6
  8 34  1  0
  9 35  1  0
 10 36  1  0
 13 37  1  0
 15 38  1  0
 20 39  1  0
 21 40  1  0
 22 41  1  0
 23 42  1  0
M  ISO  8  25   5  26  13  27  13  28  13  29  13  30  13  31  13  32  13
M  ISO  8  33  13  34  14  35  14  36   9  37  14  38  14  39  14  40  14
M  ISO  2  41  14  42  14
M  END
>  <minimizedAffinity>  (1) 
-6.48810339

>  <minimizedRMSD>  (1) 
1.01773548

$$$$
