
     RDKit          3D

 48 52  0  0  1  0  0  0  0  0999 V2000
   38.5670   33.3410   38.6860 N   0  0  0  0  0  0  0  0  0  0  0  0
   38.3920   34.0040   39.9530 C   0  0  0  0  0  0  0  0  0  0  0  0
   39.4820   33.6460   40.9370 C   0  0  0  0  0  0  0  0  0  0  0  0
   40.8070   34.0380   40.3310 C   0  0  1  0  0  0  0  0  0  0  0  0
   40.7090   34.5170   38.9130 C   0  0  0  0  0  0  0  0  0  0  0  0
   39.8570   33.5910   38.0740 C   0  0  1  0  0  0  0  0  0  0  0  0
   40.5100   32.3330   37.7870 N   0  0  0  0  0  0  0  0  0  0  0  0
   41.8440   32.1170   37.8220 C   0  0  0  0  0  0  0  0  0  0  0  0
   42.1400   30.8470   37.5080 N   0  0  0  0  0  0  0  0  0  0  0  0
   40.9710   30.1980   37.2560 C   0  0  0  0  0  0  0  0  0  0  0  0
   40.7100   28.8920   36.8940 C   0  0  0  0  0  0  0  0  0  0  0  0
   39.4040   28.5650   36.7180 N   0  0  0  0  0  0  0  0  0  0  0  0
   38.4370   29.4840   36.8940 C   0  0  0  0  0  0  0  0  0  0  0  0
   38.7110   30.7610   37.2490 N   0  0  0  0  0  0  0  0  0  0  0  0
   39.9660   31.1550   37.4390 C   0  0  0  0  0  0  0  0  0  0  0  0
   41.8190   28.0130   36.7380 N   0  0  0  0  0  0  0  0  0  0  0  0
   41.5560   35.2750   41.3850 S   0  0  0  0  0  0  0  0  0  0  0  0
   44.0170   35.4820   42.6660 C   0  0  0  0  0  0  0  0  0  0  0  0
   43.3270   35.0100   41.5500 C   0  0  0  0  0  0  0  0  0  0  0  0
   44.0340   34.3410   40.5940 C   0  0  0  0  0  0  0  0  0  0  0  0
   45.3790   34.1390   40.7240 N   0  0  0  0  0  0  0  0  0  0  0  0
   46.0190   34.6140   41.8260 C   0  0  0  0  0  0  0  0  0  0  0  0
   45.3480   35.2830   42.7950 N   0  0  0  0  0  0  0  0  0  0  0  0
   47.4510   34.4430   42.0430 C   0  0  0  0  0  0  0  0  0  0  0  0
   48.3030   35.5130   41.9400 C   0  0  0  0  0  0  0  0  0  0  0  0
   49.6660   35.3770   42.1420 C   0  0  0  0  0  0  0  0  0  0  0  0
   50.2070   34.1570   42.4550 C   0  0  0  0  0  0  0  0  0  0  0  0
   49.3270   33.1030   42.5510 C   0  0  0  0  0  0  0  0  0  0  0  0
   47.9950   33.2410   42.3520 N   0  0  0  0  0  0  0  0  0  0  0  0
   38.4673   32.3264   38.8328 H   0  0  0  0  0  0  0  0  0  0  0  0
   38.4053   35.0916   39.7891 H   0  0  0  0  0  0  0  0  0  0  0  0
   37.4315   33.6762   40.3772 H   0  0  0  0  0  0  0  0  0  0  0  0
   39.3272   34.1912   41.8797 H   0  0  0  0  0  0  0  0  0  0  0  0
   39.4643   32.5669   41.1497 H   0  0  0  0  0  0  0  0  0  0  0  0
   41.4365   33.1376   40.2767 H   0  0  0  0  0  0  0  0  0  0  0  0
   40.2603   35.5213   38.9049 H   0  0  0  0  0  0  0  0  0  0  0  0
   41.7219   34.5378   38.4844 H   0  0  0  0  0  0  0  0  0  0  0  0
   39.7040   34.1178   37.1205 H   0  0  0  0  0  0  0  0  0  0  0  0
   42.5906   32.8840   38.0754 H   0  0  0  0  0  0  0  0  0  0  0  0
   37.3884   29.1874   36.7443 H   0  0  0  0  0  0  0  0  0  0  0  0
   41.6639   27.0310   36.4686 H   0  0  0  0  0  0  0  0  0  0  0  0
   42.7764   28.3590   36.8945 H   0  0  0  0  0  0  0  0  0  0  0  0
   43.4708   36.0237   43.4523 H   0  0  0  0  0  0  0  0  0  0  0  0
   43.5128   33.9581   39.7042 H   0  0  0  0  0  0  0  0  0  0  0  0
   47.8935   36.5031   41.6909 H   0  0  0  0  0  0  0  0  0  0  0  0
   50.3208   36.2561   42.0505 H   0  0  0  0  0  0  0  0  0  0  0  0
   51.2867   34.0273   42.6206 H   0  0  0  0  0  0  0  0  0  0  0  0
   49.7224   32.1071   42.7998 H   0  0  0  0  0  0  0  0  0  0  0  0
  1  2  1  0
  2  3  1  0
  4  3  1  0
  4 17  1  0
  5  4  1  0
  6  1  1  0
  6  5  1  0
  7  8  1  0
  7  6  1  0
  9  8  2  0
 10 15  2  0
 10  9  1  0
 11 10  1  0
 12 13  1  0
 12 11  2  0
 13 14  2  0
 14 15  1  0
 15  7  1  0
 16 11  1  0
 17 19  1  0
 18 23  2  0
 19 18  1  0
 20 21  1  0
 20 19  2  0
 21 22  2  0
 22 24  1  0
 22 23  1  0
 24 29  1  0
 25 24  2  0
 25 26  1  0
 26 27  2  0
 27 28  1  0
 29 28  2  0
  1 30  1  0
  2 31  1  0
  2 32  1  0
  3 33  1  0
  3 34  1  0
  4 35  1  6
  5 36  1  0
  5 37  1  0
  6 38  1  6
  8 39  1  0
 13 40  1  0
 16 41  1  0
 16 42  1  0
 18 43  1  0
 20 44  1  0
 25 45  1  0
 26 46  1  0
 27 47  1  0
 28 48  1  0
M  ISO  8  30   5  31  13  32  13  33  13  34  13  35  13  36  13  37  13
M  ISO  8  38  13  39  14  40  14  43  14  44  14  45  14  46  14  47  14
M  ISO  1  48  14
M  END
>  <minimizedAffinity>  (1) 
-6.26867104

>  <minimizedRMSD>  (1) 
1.19478595

$$$$
