
     RDKit          3D

 49 53  0  0  1  0  0  0  0  0999 V2000
   38.6180   33.3510   38.6670 N   0  0  0  0  0  0  0  0  0  0  0  0
   38.4320   34.2070   39.8000 C   0  0  0  0  0  0  0  0  0  0  0  0
   39.4140   33.9070   40.9100 C   0  0  0  0  0  0  0  0  0  0  0  0
   40.8110   34.0820   40.3610 C   0  0  1  0  0  0  0  0  0  0  0  0
   40.8540   34.3480   38.8870 C   0  0  0  0  0  0  0  0  0  0  0  0
   39.9650   33.3970   38.1230 C   0  0  1  0  0  0  0  0  0  0  0  0
   40.5530   32.0390   37.9700 C   0  0  0  0  0  0  0  0  0  0  0  0
   41.8410   31.7010   37.6140 C   0  0  0  0  0  0  0  0  0  0  0  0
   41.8840   30.3380   37.6140 N   0  0  0  0  0  0  0  0  0  0  0  0
   40.6710   29.8320   37.9560 C   0  0  0  0  0  0  0  0  0  0  0  0
   40.1580   28.5600   38.1090 C   0  0  0  0  0  0  0  0  0  0  0  0
   38.8330   28.3480   38.4800 C   0  0  0  0  0  0  0  0  0  0  0  0
   37.9780   29.4020   38.7090 C   0  0  0  0  0  0  0  0  0  0  0  0
   38.4890   30.6730   38.5560 C   0  0  0  0  0  0  0  0  0  0  0  0
   39.8080   30.8790   38.1870 C   0  0  0  0  0  0  0  0  0  0  0  0
   41.6050   35.3960   41.2800 S   0  0  0  0  0  0  0  0  0  0  0  0
   44.0660   35.5990   42.5660 C   0  0  0  0  0  0  0  0  0  0  0  0
   43.3650   35.0870   41.4770 C   0  0  0  0  0  0  0  0  0  0  0  0
   44.0570   34.3420   40.5670 C   0  0  0  0  0  0  0  0  0  0  0  0
   45.3910   34.1070   40.7160 N   0  0  0  0  0  0  0  0  0  0  0  0
   46.0460   34.6230   41.7920 C   0  0  0  0  0  0  0  0  0  0  0  0
   45.3870   35.3700   42.7180 N   0  0  0  0  0  0  0  0  0  0  0  0
   47.4680   34.4180   42.0230 C   0  0  0  0  0  0  0  0  0  0  0  0
   48.3380   35.4800   41.9570 C   0  0  0  0  0  0  0  0  0  0  0  0
   49.6940   35.3370   42.1690 C   0  0  0  0  0  0  0  0  0  0  0  0
   50.2150   34.1040   42.4580 C   0  0  0  0  0  0  0  0  0  0  0  0
   49.3130   33.0420   42.5200 C   0  0  0  0  0  0  0  0  0  0  0  0
   47.9910   33.2170   42.3080 N   0  0  0  0  0  0  0  0  0  0  0  0
   38.4143   32.3826   38.9526 H   0  0  0  0  0  0  0  0  0  0  0  0
   38.5662   35.2511   39.4809 H   0  0  0  0  0  0  0  0  0  0  0  0
   37.4181   34.0348   40.1904 H   0  0  0  0  0  0  0  0  0  0  0  0
   39.2530   34.6012   41.7479 H   0  0  0  0  0  0  0  0  0  0  0  0
   39.2740   32.8788   41.2750 H   0  0  0  0  0  0  0  0  0  0  0  0
   41.3505   33.1319   40.4885 H   0  0  0  0  0  0  0  0  0  0  0  0
   40.5174   35.3785   38.7006 H   0  0  0  0  0  0  0  0  0  0  0  0
   41.8884   34.2032   38.5420 H   0  0  0  0  0  0  0  0  0  0  0  0
   39.8899   33.8084   37.1056 H   0  0  0  0  0  0  0  0  0  0  0  0
   42.6655   32.3898   37.3781 H   0  0  0  0  0  0  0  0  0  0  0  0
   42.7157   29.7742   37.3875 H   0  0  0  0  0  0  0  0  0  0  0  0
   40.8117   27.6929   37.9336 H   0  0  0  0  0  0  0  0  0  0  0  0
   38.4623   27.3184   38.5923 H   0  0  0  0  0  0  0  0  0  0  0  0
   36.9306   29.2370   39.0019 H   0  0  0  0  0  0  0  0  0  0  0  0
   37.8362   31.5410   38.7304 H   0  0  0  0  0  0  0  0  0  0  0  0
   43.5328   36.2013   43.3163 H   0  0  0  0  0  0  0  0  0  0  0  0
   43.5286   33.9237   39.6976 H   0  0  0  0  0  0  0  0  0  0  0  0
   47.9393   36.4791   41.7271 H   0  0  0  0  0  0  0  0  0  0  0  0
   50.3562   36.2131   42.1059 H   0  0  0  0  0  0  0  0  0  0  0  0
   51.2913   33.9584   42.6325 H   0  0  0  0  0  0  0  0  0  0  0  0
   49.6891   32.0337   42.7480 H   0  0  0  0  0  0  0  0  0  0  0  0
  1  2  1  0
  2  3  1  0
  4  3  1  0
  4 16  1  0
  5  4  1  0
  6  1  1  0
  6  5  1  0
  7  6  1  0
  7 15  1  0
  8  7  2  0
  9  8  1  0
  9 10  1  0
 10 11  2  0
 10 15  1  0
 11 12  1  0
 12 13  2  0
 14 13  1  0
 15 14  2  0
 16 18  1  0
 17 22  2  0
 18 17  1  0
 19 20  1  0
 19 18  2  0
 20 21  2  0
 21 23  1  0
 21 22  1  0
 23 28  1  0
 24 23  2  0
 24 25  1  0
 25 26  2  0
 26 27  1  0
 28 27  2  0
  1 29  1  0
  2 30  1  0
  2 31  1  0
  3 32  1  0
  3 33  1  0
  4 34  1  6
  5 35  1  0
  5 36  1  0
  6 37  1  6
  8 38  1  0
  9 39  1  0
 11 40  1  0
 12 41  1  0
 13 42  1  0
 14 43  1  0
 17 44  1  0
 19 45  1  0
 24 46  1  0
 25 47  1  0
 26 48  1  0
 27 49  1  0
M  ISO  8  29   5  30  13  31  13  32  13  33  13  34  13  35  13  36  13
M  ISO  8  37  13  38  14  39   9  40  14  41  14  42  14  43  14  44  14
M  ISO  5  45  14  46  14  47  14  48  14  49  14
M  END
>  <minimizedAffinity>  (1) 
-6.4195013

>  <minimizedRMSD>  (1) 
1.62521827

$$$$
