
     RDKit          3D

 38 40  0  0  1  0  0  0  0  0999 V2000
   41.5380   34.9940   41.3090 S   0  0  0  0  0  0  0  0  0  0  0  0
   38.4380   32.1430   39.8250 N   0  0  0  0  0  0  0  0  0  0  0  0
   38.6200   32.7240   41.1240 C   0  0  0  0  0  0  0  0  0  0  0  0
   40.0840   32.7600   41.5360 C   0  0  0  0  0  0  0  0  0  0  0  0
   40.8330   33.5630   40.4940 C   0  0  1  0  0  0  0  0  0  0  0  0
   39.9970   33.9600   39.3190 C   0  0  0  0  0  0  0  0  0  0  0  0
   39.2190   32.7690   38.7860 C   0  0  2  0  0  0  0  0  0  0  0  0
   38.4110   33.1750   37.5770 C   0  0  0  0  0  0  0  0  0  0  0  0
   37.1350   33.5730   37.8650 F   0  0  0  0  0  0  0  0  0  0  0  0
   38.3760   32.1360   36.6680 F   0  0  0  0  0  0  0  0  0  0  0  0
   39.0810   34.2620   37.0240 F   0  0  0  0  0  0  0  0  0  0  0  0
   43.9670   35.3310   42.6320 C   0  0  0  0  0  0  0  0  0  0  0  0
   43.3170   34.8240   41.5070 C   0  0  0  0  0  0  0  0  0  0  0  0
   44.0720   34.1950   40.5590 C   0  0  0  0  0  0  0  0  0  0  0  0
   45.4270   34.0740   40.7240 N   0  0  0  0  0  0  0  0  0  0  0  0
   46.0140   34.5860   41.8400 C   0  0  0  0  0  0  0  0  0  0  0  0
   45.2980   35.2100   42.7900 N   0  0  0  0  0  0  0  0  0  0  0  0
   47.4550   34.4820   42.0600 C   0  0  0  0  0  0  0  0  0  0  0  0
   48.2610   35.5810   41.8730 C   0  0  0  0  0  0  0  0  0  0  0  0
   49.6250   35.5520   42.0640 C   0  0  0  0  0  0  0  0  0  0  0  0
   50.2250   34.3650   42.4620 C   0  0  0  0  0  0  0  0  0  0  0  0
   49.3910   33.2780   42.6430 C   0  0  0  0  0  0  0  0  0  0  0  0
   48.0700   33.3580   42.4450 N   0  0  0  0  0  0  0  0  0  0  0  0
   38.7034   31.1490   39.8750 H   0  0  0  0  0  0  0  0  0  0  0  0
   38.2303   33.7526   41.1101 H   0  0  0  0  0  0  0  0  0  0  0  0
   38.0790   32.1014   41.8518 H   0  0  0  0  0  0  0  0  0  0  0  0
   40.1847   33.2379   42.5216 H   0  0  0  0  0  0  0  0  0  0  0  0
   40.4913   31.7405   41.6044 H   0  0  0  0  0  0  0  0  0  0  0  0
   41.6212   32.9256   40.0669 H   0  0  0  0  0  0  0  0  0  0  0  0
   39.2900   34.7443   39.6274 H   0  0  0  0  0  0  0  0  0  0  0  0
   40.6592   34.3339   38.5242 H   0  0  0  0  0  0  0  0  0  0  0  0
   39.9244   31.9954   38.4483 H   0  0  0  0  0  0  0  0  0  0  0  0
   43.3781   35.8416   43.4082 H   0  0  0  0  0  0  0  0  0  0  0  0
   43.5907   33.7838   39.6594 H   0  0  0  0  0  0  0  0  0  0  0  0
   47.7952   36.5259   41.5566 H   0  0  0  0  0  0  0  0  0  0  0  0
   50.2301   36.4565   41.9034 H   0  0  0  0  0  0  0  0  0  0  0  0
   51.3105   34.2933   42.6252 H   0  0  0  0  0  0  0  0  0  0  0  0
   49.8260   32.3185   42.9592 H   0  0  0  0  0  0  0  0  0  0  0  0
  1 13  1  0
  2  3  1  0
  3  4  1  0
  5  1  1  0
  5  4  1  0
  6  5  1  0
  7  6  1  0
  7  2  1  0
  8  9  1  0
  8  7  1  0
 10  8  1  0
 11  8  1  0
 12 17  2  0
 13 12  1  0
 14 15  1  0
 14 13  2  0
 15 16  2  0
 16 18  1  0
 16 17  1  0
 18 23  1  0
 19 18  2  0
 19 20  1  0
 20 21  2  0
 21 22  1  0
 23 22  2  0
  2 24  1  0
  3 25  1  0
  3 26  1  0
  4 27  1  0
  4 28  1  0
  5 29  1  6
  6 30  1  0
  6 31  1  0
  7 32  1  6
 12 33  1  0
 14 34  1  0
 19 35  1  0
 20 36  1  0
 21 37  1  0
 22 38  1  0
M  ISO  8  24   5  25  13  26  13  27  13  28  13  29  13  30  13  31  13
M  ISO  7  32  13  33  14  34  14  35  14  36  14  37  14  38  14
M  END
>  <minimizedAffinity>  (1) 
-6.03815126

>  <minimizedRMSD>  (1) 
1.42347324

$$$$
