
     RDKit          3D

 43 46  0  0  1  0  0  0  0  0999 V2000
   38.5940   33.2730   38.7120 N   0  0  0  0  0  0  0  0  0  0  0  0
   38.3960   34.0610   39.8970 C   0  0  0  0  0  0  0  0  0  0  0  0
   39.4260   33.7350   40.9690 C   0  0  0  0  0  0  0  0  0  0  0  0
   40.7820   34.0170   40.3880 C   0  0  1  0  0  0  0  0  0  0  0  0
   40.7500   34.4300   38.9390 C   0  0  0  0  0  0  0  0  0  0  0  0
   39.8990   33.4630   38.1300 C   0  0  1  0  0  0  0  0  0  0  0  0
   40.6500   32.1960   37.9310 C   0  0  0  0  0  0  0  0  0  0  0  0
   40.0220   30.9780   37.9980 C   0  0  0  0  0  0  0  0  0  0  0  0
   40.7830   29.8420   37.8030 C   0  0  0  0  0  0  0  0  0  0  0  0
   42.1050   29.8680   37.5500 N   0  0  0  0  0  0  0  0  0  0  0  0
   42.7060   31.0830   37.4880 C   0  0  0  0  0  0  0  0  0  0  0  0
   41.9770   32.1950   37.6770 N   0  0  0  0  0  0  0  0  0  0  0  0
   41.5650   35.2850   41.3830 S   0  0  0  0  0  0  0  0  0  0  0  0
   44.0180   35.5000   42.6500 C   0  0  0  0  0  0  0  0  0  0  0  0
   43.3280   35.0160   41.5380 C   0  0  0  0  0  0  0  0  0  0  0  0
   44.0290   34.3380   40.5830 C   0  0  0  0  0  0  0  0  0  0  0  0
   45.3760   34.1460   40.7270 N   0  0  0  0  0  0  0  0  0  0  0  0
   46.0180   34.6240   41.8100 C   0  0  0  0  0  0  0  0  0  0  0  0
   45.3470   35.3040   42.7820 N   0  0  0  0  0  0  0  0  0  0  0  0
   47.4490   34.4580   42.0300 C   0  0  0  0  0  0  0  0  0  0  0  0
   48.3080   35.5040   41.9430 C   0  0  0  0  0  0  0  0  0  0  0  0
   49.6710   35.3540   42.1520 C   0  0  0  0  0  0  0  0  0  0  0  0
   50.1930   34.1210   42.4560 C   0  0  0  0  0  0  0  0  0  0  0  0
   49.3000   33.0630   42.5400 C   0  0  0  0  0  0  0  0  0  0  0  0
   47.9830   33.2470   42.3320 N   0  0  0  0  0  0  0  0  0  0  0  0
   38.4832   32.2783   38.9553 H   0  0  0  0  0  0  0  0  0  0  0  0
   38.4794   35.1260   39.6348 H   0  0  0  0  0  0  0  0  0  0  0  0
   37.3983   33.8306   40.2990 H   0  0  0  0  0  0  0  0  0  0  0  0
   39.2583   34.3642   41.8555 H   0  0  0  0  0  0  0  0  0  0  0  0
   39.3464   32.6821   41.2774 H   0  0  0  0  0  0  0  0  0  0  0  0
   41.3571   33.0796   40.4109 H   0  0  0  0  0  0  0  0  0  0  0  0
   40.3241   35.4411   38.8597 H   0  0  0  0  0  0  0  0  0  0  0  0
   41.7760   34.4196   38.5425 H   0  0  0  0  0  0  0  0  0  0  0  0
   39.7016   33.8945   37.1376 H   0  0  0  0  0  0  0  0  0  0  0  0
   38.9432   30.9082   38.2012 H   0  0  0  0  0  0  0  0  0  0  0  0
   40.2823   28.8641   37.8573 H   0  0  0  0  0  0  0  0  0  0  0  0
   43.7844   31.1568   37.2841 H   0  0  0  0  0  0  0  0  0  0  0  0
   43.4710   36.0493   43.4304 H   0  0  0  0  0  0  0  0  0  0  0  0
   43.5101   33.9453   39.6961 H   0  0  0  0  0  0  0  0  0  0  0  0
   47.9120   36.5009   41.6995 H   0  0  0  0  0  0  0  0  0  0  0  0
   50.3364   36.2264   42.0739 H   0  0  0  0  0  0  0  0  0  0  0  0
   51.2705   33.9787   42.6253 H   0  0  0  0  0  0  0  0  0  0  0  0
   49.6743   32.0570   42.7806 H   0  0  0  0  0  0  0  0  0  0  0  0
  1  2  1  0
  2  3  1  0
  4  3  1  0
  4 13  1  0
  5  4  1  0
  6  1  1  0
  6  5  1  0
  7  8  2  0
  7  6  1  0
  9  8  1  0
 10  9  2  0
 11 10  1  0
 11 12  2  0
 12  7  1  0
 13 15  1  0
 14 19  2  0
 15 14  1  0
 16 17  1  0
 16 15  2  0
 17 18  2  0
 18 20  1  0
 18 19  1  0
 20 25  1  0
 21 20  2  0
 21 22  1  0
 22 23  2  0
 23 24  1  0
 25 24  2  0
  1 26  1  0
  2 27  1  0
  2 28  1  0
  3 29  1  0
  3 30  1  0
  4 31  1  6
  5 32  1  0
  5 33  1  0
  6 34  1  6
  8 35  1  0
  9 36  1  0
 11 37  1  0
 14 38  1  0
 16 39  1  0
 21 40  1  0
 22 41  1  0
 23 42  1  0
 24 43  1  0
M  ISO  8  26   5  27  13  28  13  29  13  30  13  31  13  32  13  33  13
M  ISO  8  34  13  35  14  36  14  37  14  38  14  39  14  40  14  41  14
M  ISO  2  42  14  43  14
M  END
>  <minimizedAffinity>  (1) 
-5.89467573

>  <minimizedRMSD>  (1) 
1.19246066

$$$$
