
     RDKit          3D

 42 45  0  0  1  0  0  0  0  0999 V2000
   38.5450   33.4080   38.6890 N   0  0  0  0  0  0  0  0  0  0  0  0
   38.3800   34.1110   39.9200 C   0  0  0  0  0  0  0  0  0  0  0  0
   39.4520   33.7500   40.9330 C   0  0  0  0  0  0  0  0  0  0  0  0
   40.7910   34.0470   40.3410 C   0  0  1  0  0  0  0  0  0  0  0  0
   40.7130   34.5180   38.9160 C   0  0  0  0  0  0  0  0  0  0  0  0
   39.8570   33.6040   38.0870 C   0  0  1  0  0  0  0  0  0  0  0  0
   40.5560   32.2920   37.8690 C   0  0  0  0  0  0  0  0  0  0  0  0
   41.8750   31.9020   37.7290 C   0  0  0  0  0  0  0  0  0  0  0  0
   42.1630   30.5930   37.5310 C   0  0  0  0  0  0  0  0  0  0  0  0
   41.1120   29.6320   37.4700 C   0  0  0  0  0  0  0  0  0  0  0  0
   39.6230   30.6960   37.7140 S   0  0  0  0  0  0  0  0  0  0  0  0
   41.5600   35.3080   41.3790 S   0  0  0  0  0  0  0  0  0  0  0  0
   44.0060   35.5050   42.6670 C   0  0  0  0  0  0  0  0  0  0  0  0
   43.3210   35.0290   41.5440 C   0  0  0  0  0  0  0  0  0  0  0  0
   44.0220   34.3520   40.5850 C   0  0  0  0  0  0  0  0  0  0  0  0
   45.3640   34.1540   40.7360 N   0  0  0  0  0  0  0  0  0  0  0  0
   46.0010   34.6310   41.8410 C   0  0  0  0  0  0  0  0  0  0  0  0
   45.3280   35.3060   42.8080 N   0  0  0  0  0  0  0  0  0  0  0  0
   47.4340   34.4470   42.0520 C   0  0  0  0  0  0  0  0  0  0  0  0
   48.2930   35.4920   41.9460 C   0  0  0  0  0  0  0  0  0  0  0  0
   49.6570   35.3700   42.1370 C   0  0  0  0  0  0  0  0  0  0  0  0
   50.1890   34.1420   42.4500 C   0  0  0  0  0  0  0  0  0  0  0  0
   49.2960   33.0950   42.5540 C   0  0  0  0  0  0  0  0  0  0  0  0
   47.9780   33.2630   42.3590 N   0  0  0  0  0  0  0  0  0  0  0  0
   38.4133   32.4020   38.8665 H   0  0  0  0  0  0  0  0  0  0  0  0
   38.4301   35.1916   39.7206 H   0  0  0  0  0  0  0  0  0  0  0  0
   37.4051   33.8276   40.3435 H   0  0  0  0  0  0  0  0  0  0  0  0
   39.3118   34.3445   41.8478 H   0  0  0  0  0  0  0  0  0  0  0  0
   39.3832   32.6818   41.1864 H   0  0  0  0  0  0  0  0  0  0  0  0
   41.3853   33.1217   40.3147 H   0  0  0  0  0  0  0  0  0  0  0  0
   40.2816   35.5297   38.8958 H   0  0  0  0  0  0  0  0  0  0  0  0
   41.7290   34.5206   38.4943 H   0  0  0  0  0  0  0  0  0  0  0  0
   39.6964   34.0802   37.1085 H   0  0  0  0  0  0  0  0  0  0  0  0
   42.6827   32.6472   37.7779 H   0  0  0  0  0  0  0  0  0  0  0  0
   43.2088   30.2715   37.4172 H   0  0  0  0  0  0  0  0  0  0  0  0
   41.1722   28.5442   37.3178 H   0  0  0  0  0  0  0  0  0  0  0  0
   43.4543   36.0506   43.4468 H   0  0  0  0  0  0  0  0  0  0  0  0
   43.5053   33.9675   39.6933 H   0  0  0  0  0  0  0  0  0  0  0  0
   47.8851   36.4826   41.6964 H   0  0  0  0  0  0  0  0  0  0  0  0
   50.3112   36.2489   42.0392 H   0  0  0  0  0  0  0  0  0  0  0  0
   51.2683   34.0013   42.6090 H   0  0  0  0  0  0  0  0  0  0  0  0
   49.6751   32.0931   42.8040 H   0  0  0  0  0  0  0  0  0  0  0  0
  1  2  1  0
  2  3  1  0
  4  3  1  0
  4 12  1  0
  5  4  1  0
  6  1  1  0
  6  5  1  0
  7  6  1  0
  8  7  2  0
  9  8  1  0
 10  9  2  0
 10 11  1  0
 11  7  1  0
 12 14  1  0
 13 18  2  0
 14 13  1  0
 15 16  1  0
 15 14  2  0
 16 17  2  0
 17 19  1  0
 17 18  1  0
 19 24  1  0
 20 19  2  0
 20 21  1  0
 21 22  2  0
 22 23  1  0
 24 23  2  0
  1 25  1  0
  2 26  1  0
  2 27  1  0
  3 28  1  0
  3 29  1  0
  4 30  1  6
  5 31  1  0
  5 32  1  0
  6 33  1  6
  8 34  1  0
  9 35  1  0
 10 36  1  0
 13 37  1  0
 15 38  1  0
 20 39  1  0
 21 40  1  0
 22 41  1  0
 23 42  1  0
M  ISO  8  25   5  26  13  27  13  28  13  29  13  30  13  31  13  32  13
M  ISO  8  33  13  34  14  35  14  36  14  37  14  38  14  39  14  40  14
M  ISO  2  41  14  42  14
M  END
>  <minimizedAffinity>  (1) 
-5.85336828

>  <minimizedRMSD>  (1) 
0.974075198

$$$$
