
     RDKit          3D

 41 43  0  0  1  0  0  0  0  0999 V2000
   41.6520   35.2380   41.4910 S   0  0  0  0  0  0  0  0  0  0  0  0
   38.4820   32.7410   39.5820 N   0  0  0  0  0  0  0  0  0  0  0  0
   38.7100   33.0580   40.9690 C   0  0  0  0  0  0  0  0  0  0  0  0
   40.1910   33.0000   41.3290 C   0  0  0  0  0  0  0  0  0  0  0  0
   40.9100   33.9880   40.4480 C   0  0  1  0  0  0  0  0  0  0  0  0
   40.0430   34.5990   39.3860 C   0  0  0  0  0  0  0  0  0  0  0  0
   39.2670   33.5110   38.6640 C   0  0  2  0  0  0  0  0  0  0  0  0
   38.4950   34.0630   37.4980 C   0  0  0  0  0  0  0  0  0  0  0  0
   37.6250   33.0810   36.7930 C   0  0  0  0  0  0  0  0  0  0  0  0
   44.1110   35.4560   42.7690 C   0  0  0  0  0  0  0  0  0  0  0  0
   43.4240   34.9970   41.6450 C   0  0  0  0  0  0  0  0  0  0  0  0
   44.1380   34.3650   40.6720 C   0  0  0  0  0  0  0  0  0  0  0  0
   45.4920   34.1870   40.8020 N   0  0  0  0  0  0  0  0  0  0  0  0
   46.1230   34.6500   41.9160 C   0  0  0  0  0  0  0  0  0  0  0  0
   45.4440   35.2790   42.8920 N   0  0  0  0  0  0  0  0  0  0  0  0
   47.5560   34.4950   42.1150 C   0  0  0  0  0  0  0  0  0  0  0  0
   48.3940   35.5770   41.9710 C   0  0  0  0  0  0  0  0  0  0  0  0
   49.7650   35.4840   42.1490 C   0  0  0  0  0  0  0  0  0  0  0  0
   50.3270   34.2590   42.4850 C   0  0  0  0  0  0  0  0  0  0  0  0
   49.4580   33.1990   42.6210 C   0  0  0  0  0  0  0  0  0  0  0  0
   48.1310   33.3310   42.4390 N   0  0  0  0  0  0  0  0  0  0  0  0
   38.7024   31.7452   39.4384 H   0  0  0  0  0  0  0  0  0  0  0  0
   38.3349   34.0727   41.1683 H   0  0  0  0  0  0  0  0  0  0  0  0
   38.1807   32.3126   41.5808 H   0  0  0  0  0  0  0  0  0  0  0  0
   40.3313   33.2683   42.3865 H   0  0  0  0  0  0  0  0  0  0  0  0
   40.5873   31.9852   41.1769 H   0  0  0  0  0  0  0  0  0  0  0  0
   41.6857   33.4429   39.8903 H   0  0  0  0  0  0  0  0  0  0  0  0
   39.3373   35.3029   39.8514 H   0  0  0  0  0  0  0  0  0  0  0  0
   40.6773   35.1325   38.6628 H   0  0  0  0  0  0  0  0  0  0  0  0
   39.9822   32.8020   38.2216 H   0  0  0  0  0  0  0  0  0  0  0  0
   37.8570   34.8792   37.8678 H   0  0  0  0  0  0  0  0  0  0  0  0
   39.2445   34.3907   36.7626 H   0  0  0  0  0  0  0  0  0  0  0  0
   37.0853   32.4718   37.5330 H   0  0  0  0  0  0  0  0  0  0  0  0
   36.9013   33.6186   36.1627 H   0  0  0  0  0  0  0  0  0  0  0  0
   38.2458   32.4274   36.1627 H   0  0  0  0  0  0  0  0  0  0  0  0
   43.5577   35.9706   43.5683 H   0  0  0  0  0  0  0  0  0  0  0  0
   43.6237   33.9938   39.7733 H   0  0  0  0  0  0  0  0  0  0  0  0
   47.9594   36.5518   41.7047 H   0  0  0  0  0  0  0  0  0  0  0  0
   50.4024   36.3720   42.0254 H   0  0  0  0  0  0  0  0  0  0  0  0
   51.4104   34.1414   42.6348 H   0  0  0  0  0  0  0  0  0  0  0  0
   49.8622   32.2112   42.8874 H   0  0  0  0  0  0  0  0  0  0  0  0
  1 11  1  0
  2  3  1  0
  3  4  1  0
  5  4  1  0
  5  1  1  0
  6  5  1  0
  7  6  1  0
  7  2  1  0
  8  7  1  0
  9  8  1  0
 10 15  2  0
 11 10  1  0
 12 13  1  0
 12 11  2  0
 13 14  2  0
 14 16  1  0
 14 15  1  0
 16 21  1  0
 17 16  2  0
 17 18  1  0
 18 19  2  0
 19 20  1  0
 21 20  2  0
  2 22  1  0
  3 23  1  0
  3 24  1  0
  4 25  1  0
  4 26  1  0
  5 27  1  6
  6 28  1  0
  6 29  1  0
  7 30  1  6
  8 31  1  0
  8 32  1  0
  9 33  1  0
  9 34  1  0
  9 35  1  0
 10 36  1  0
 12 37  1  0
 17 38  1  0
 18 39  1  0
 19 40  1  0
 20 41  1  0
M  ISO  8  22   5  23  13  24  13  25  13  26  13  27  13  28  13  29  13
M  ISO  8  30  13  31   8  32   8  33   8  34   8  35   8  36  14  37  14
M  ISO  4  38  14  39  14  40  14  41  14
M  END
>  <minimizedAffinity>  (1) 
-5.78440952

>  <minimizedRMSD>  (1) 
0.979285717

$$$$
