
     RDKit          3D

 44 46  0  0  1  0  0  0  0  0999 V2000
   41.5710   35.2920   41.3510 S   0  0  0  0  0  0  0  0  0  0  0  0
   38.5960   33.2350   38.7310 N   0  0  0  0  0  0  0  0  0  0  0  0
   38.4080   34.0010   39.9270 C   0  0  0  0  0  0  0  0  0  0  0  0
   39.4610   33.6950   40.9760 C   0  0  0  0  0  0  0  0  0  0  0  0
   40.8050   33.9980   40.3790 C   0  0  1  0  0  0  0  0  0  0  0  0
   40.7480   34.3890   38.9250 C   0  0  0  0  0  0  0  0  0  0  0  0
   39.8960   33.4110   38.1360 C   0  0  1  0  0  0  0  0  0  0  0  0
   40.5940   32.1180   37.8400 C   0  0  0  0  0  0  0  0  0  0  0  0
   42.0480   32.3070   38.2460 C   0  0  0  0  0  0  0  0  0  0  0  0
   40.0420   31.0550   38.7700 C   0  0  0  0  0  0  0  0  0  0  0  0
   44.0320   35.5060   42.6250 C   0  0  0  0  0  0  0  0  0  0  0  0
   43.3410   35.0230   41.5150 C   0  0  0  0  0  0  0  0  0  0  0  0
   44.0530   34.3430   40.5700 C   0  0  0  0  0  0  0  0  0  0  0  0
   45.3920   34.1420   40.7070 N   0  0  0  0  0  0  0  0  0  0  0  0
   46.0350   34.6270   41.8040 C   0  0  0  0  0  0  0  0  0  0  0  0
   45.3560   35.3100   42.7650 N   0  0  0  0  0  0  0  0  0  0  0  0
   47.4640   34.4580   42.0310 C   0  0  0  0  0  0  0  0  0  0  0  0
   48.3180   35.5050   41.9440 C   0  0  0  0  0  0  0  0  0  0  0  0
   49.6780   35.3610   42.1560 C   0  0  0  0  0  0  0  0  0  0  0  0
   50.2060   34.1290   42.4670 C   0  0  0  0  0  0  0  0  0  0  0  0
   49.3200   33.0720   42.5520 C   0  0  0  0  0  0  0  0  0  0  0  0
   47.9950   33.2460   42.3380 N   0  0  0  0  0  0  0  0  0  0  0  0
   38.4740   32.2381   38.9595 H   0  0  0  0  0  0  0  0  0  0  0  0
   38.4600   35.0704   39.6745 H   0  0  0  0  0  0  0  0  0  0  0  0
   37.4265   33.7357   40.3468 H   0  0  0  0  0  0  0  0  0  0  0  0
   39.2966   34.3215   41.8651 H   0  0  0  0  0  0  0  0  0  0  0  0
   39.4048   32.6394   41.2804 H   0  0  0  0  0  0  0  0  0  0  0  0
   41.4025   33.0749   40.4080 H   0  0  0  0  0  0  0  0  0  0  0  0
   40.3138   35.3960   38.8393 H   0  0  0  0  0  0  0  0  0  0  0  0
   41.7692   34.3759   38.5164 H   0  0  0  0  0  0  0  0  0  0  0  0
   39.7291   33.8680   37.1495 H   0  0  0  0  0  0  0  0  0  0  0  0
   40.4705   31.8377   36.7835 H   0  0  0  0  0  0  0  0  0  0  0  0
   42.1240   32.3169   39.3433 H   0  0  0  0  0  0  0  0  0  0  0  0
   42.6514   31.4797   37.8441 H   0  0  0  0  0  0  0  0  0  0  0  0
   42.4199   33.2610   37.8441 H   0  0  0  0  0  0  0  0  0  0  0  0
   40.2016   31.3624   39.8140 H   0  0  0  0  0  0  0  0  0  0  0  0
   38.9649   30.9297   38.5853 H   0  0  0  0  0  0  0  0  0  0  0  0
   40.5591   30.1018   38.5853 H   0  0  0  0  0  0  0  0  0  0  0  0
   43.4839   36.0586   43.4023 H   0  0  0  0  0  0  0  0  0  0  0  0
   43.5356   33.9505   39.6821 H   0  0  0  0  0  0  0  0  0  0  0  0
   47.9189   36.4999   41.6974 H   0  0  0  0  0  0  0  0  0  0  0  0
   50.3401   36.2357   42.0755 H   0  0  0  0  0  0  0  0  0  0  0  0
   51.2836   33.9919   42.6400 H   0  0  0  0  0  0  0  0  0  0  0  0
   49.6991   32.0693   42.7985 H   0  0  0  0  0  0  0  0  0  0  0  0
  1 12  1  0
  2  3  1  0
  3  4  1  0
  5  4  1  0
  5  1  1  0
  6  5  1  0
  7  2  1  0
  7  6  1  0
  8  7  1  0
  8  9  1  0
  8 10  1  0
 11 16  2  0
 12 11  1  0
 13 14  1  0
 13 12  2  0
 14 15  2  0
 15 17  1  0
 15 16  1  0
 17 22  1  0
 18 17  2  0
 18 19  1  0
 19 20  2  0
 20 21  1  0
 22 21  2  0
  2 23  1  0
  3 24  1  0
  3 25  1  0
  4 26  1  0
  4 27  1  0
  5 28  1  6
  6 29  1  0
  6 30  1  0
  7 31  1  6
  8 32  1  0
  9 33  1  0
  9 34  1  0
  9 35  1  0
 10 36  1  0
 10 37  1  0
 10 38  1  0
 11 39  1  0
 13 40  1  0
 18 41  1  0
 19 42  1  0
 20 43  1  0
 21 44  1  0
M  ISO  8  23   5  24  13  25  13  26  13  27  13  28  13  29  13  30  13
M  ISO  8  31  13  32   8  33   8  34   8  35   8  36   8  37   8  38   8
M  ISO  6  39  14  40  14  41  14  42  14  43  14  44  14
M  END
>  <minimizedAffinity>  (1) 
-5.69558334

>  <minimizedRMSD>  (1) 
0.748545706

$$$$
