
     RDKit          3D

 45 47  0  0  0  0  0  0  0  0999 V2000
   46.1670   32.3530   37.8060 C   0  0  0  0  0  0  0  0  0  0  0  0
   45.7900   34.2740   40.9020 C   0  0  0  0  0  0  0  0  0  0  0  0
   47.0890   34.6090   41.2360 C   0  0  0  0  0  0  0  0  0  0  0  0
   48.1420   34.1840   40.4050 C   0  0  0  0  0  0  0  0  0  0  0  0
   47.8180   33.4600   39.3080 N   0  0  0  0  0  0  0  0  0  0  0  0
   46.5180   33.1490   39.0120 C   0  0  0  0  0  0  0  0  0  0  0  0
   45.5500   33.5600   39.8070 N   0  0  0  0  0  0  0  0  0  0  0  0
   44.7290   34.7210   41.7670 C   0  0  0  0  0  0  0  0  0  0  0  0
   43.7860   35.4390   41.2900 O   0  0  0  0  0  0  0  0  0  0  0  0
   44.7810   34.3390   43.1270 O   0  0  0  0  0  0  0  0  0  0  0  0
   44.8170   35.3420   44.1120 C   0  0  0  0  0  0  0  0  0  0  0  0
   43.5360   35.8460   44.3720 F   0  0  0  0  0  0  0  0  0  0  0  0
   45.3300   34.8300   45.2770 F   0  0  0  0  0  0  0  0  0  0  0  0
   45.5550   36.3710   43.5970 F   0  0  0  0  0  0  0  0  0  0  0  0
   45.1840   31.2840   38.0720 C   0  0  0  0  0  0  0  0  0  0  0  0
   45.6430   33.2890   36.7610 C   0  0  0  0  0  0  0  0  0  0  0  0
   47.4580   31.7510   37.2940 C   0  0  0  0  0  0  0  0  0  0  0  0
   47.6540   31.9680   35.8560 C   0  0  0  0  0  0  0  0  0  0  0  0
   46.8440   31.3050   34.9370 C   0  0  0  0  0  0  0  0  0  0  0  0
   47.2710   31.7160   33.6700 C   0  0  0  0  0  0  0  0  0  0  0  0
   48.2860   32.5820   33.8350 N   0  0  0  0  0  0  0  0  0  0  0  0
   48.5000   32.7210   35.1140 N   0  0  0  0  0  0  0  0  0  0  0  0
   49.0360   33.2600   32.7990 C   0  0  0  0  0  0  0  0  0  0  0  0
   49.1900   32.3060   31.6670 C   0  0  0  0  0  0  0  0  0  0  0  0
   48.7810   32.4540   30.3650 C   0  0  0  0  0  0  0  0  0  0  0  0
   49.0420   31.4250   29.4970 C   0  0  0  0  0  0  0  0  0  0  0  0
   49.7040   30.2980   29.9950 C   0  0  0  0  0  0  0  0  0  0  0  0
   49.9680   30.7350   31.8040 S   0  0  0  0  0  0  0  0  0  0  0  0
   47.2968   35.2003   42.1400 H   0  0  0  0  0  0  0  0  0  0  0  0
   49.1884   34.4306   40.6379 H   0  0  0  0  0  0  0  0  0  0  0  0
   45.0663   31.1561   39.1582 H   0  0  0  0  0  0  0  0  0  0  0  0
   44.2155   31.5577   37.6280 H   0  0  0  0  0  0  0  0  0  0  0  0
   45.5378   30.3418   37.6280 H   0  0  0  0  0  0  0  0  0  0  0  0
   45.1612   34.1496   37.2480 H   0  0  0  0  0  0  0  0  0  0  0  0
   46.4752   33.6412   36.1337 H   0  0  0  0  0  0  0  0  0  0  0  0
   44.9078   32.7637   36.1337 H   0  0  0  0  0  0  0  0  0  0  0  0
   48.2987   32.2081   37.8365 H   0  0  0  0  0  0  0  0  0  0  0  0
   47.4072   30.6651   37.4618 H   0  0  0  0  0  0  0  0  0  0  0  0
   46.0310   30.5992   35.1626 H   0  0  0  0  0  0  0  0  0  0  0  0
   46.8503   31.3883   32.7079 H   0  0  0  0  0  0  0  0  0  0  0  0
   48.4915   34.1555   32.4650 H   0  0  0  0  0  0  0  0  0  0  0  0
   50.0190   33.5790   33.1756 H   0  0  0  0  0  0  0  0  0  0  0  0
   48.2628   33.3647   30.0302 H   0  0  0  0  0  0  0  0  0  0  0  0
   48.7399   31.4841   28.4410 H   0  0  0  0  0  0  0  0  0  0  0  0
   49.9975   29.3826   29.4604 H   0  0  0  0  0  0  0  0  0  0  0  0
  1 15  1  0
  1  6  1  0
  2  3  2  0
  2  8  1  0
  4  3  1  0
  5  4  2  0
  6  5  1  0
  6  7  2  0
  7  2  1  0
  8 10  1  0
  9  8  2  0
 10 11  1  0
 11 12  1  0
 11 13  1  0
 14 11  1  0
 16  1  1  0
 17  1  1  0
 18 17  1  0
 19 18  1  0
 20 21  1  0
 20 19  2  0
 21 22  1  0
 22 18  2  0
 23 21  1  0
 24 28  1  0
 24 23  1  0
 25 24  2  0
 26 27  2  0
 26 25  1  0
 27 28  1  0
  3 29  1  0
  4 30  1  0
 15 31  1  0
 15 32  1  0
 15 33  1  0
 16 34  1  0
 16 35  1  0
 16 36  1  0
 17 37  1  0
 17 38  1  0
 19 39  1  0
 20 40  1  0
 23 41  1  0
 23 42  1  0
 25 43  1  0
 26 44  1  0
 27 45  1  0
M  ISO  8  29  14  30  14  31   8  32   8  33   8  34   8  35   8  36   8
M  ISO  8  37   8  38   8  39  14  40  14  41   8  42   8  43  14  44  14
M  ISO  1  45  14
M  END
>  <minimizedAffinity>  (1) 
-5.36171675

>  <minimizedRMSD>  (1) 
1.33812594

$$$$
