
     RDKit          3D

 42 45  0  0  1  0  0  0  0  0999 V2000
   41.6760   34.9900   41.4960 S   0  0  0  0  0  0  0  0  0  0  0  0
   38.6320   32.2450   39.6950 N   0  0  0  0  0  0  0  0  0  0  0  0
   38.5220   33.1870   40.7830 C   0  0  0  0  0  0  0  0  0  0  0  0
   39.7640   33.1300   41.6600 C   0  0  0  0  0  0  0  0  0  0  0  0
   40.9500   33.4910   40.8170 C   0  0  1  0  0  0  0  0  0  0  0  0
   40.6060   33.6830   39.3610 C   0  0  0  0  0  0  0  0  0  0  0  0
   39.7800   32.5350   38.8500 C   0  0  2  0  0  0  0  0  0  0  0  0
   39.2190   32.9440   37.5010 C   0  0  0  0  0  0  0  0  0  0  0  0
   38.8260   34.3510   37.2520 C   0  0  0  0  0  0  0  0  0  0  0  0
   37.7550   33.2700   37.3590 C   0  0  0  0  0  0  0  0  0  0  0  0
   44.1180   35.2960   42.7730 C   0  0  0  0  0  0  0  0  0  0  0  0
   43.4610   34.8270   41.6310 C   0  0  0  0  0  0  0  0  0  0  0  0
   44.2100   34.2480   40.6310 C   0  0  0  0  0  0  0  0  0  0  0  0
   45.5570   34.1620   40.8110 N   0  0  0  0  0  0  0  0  0  0  0  0
   46.1690   34.6180   41.9150 C   0  0  0  0  0  0  0  0  0  0  0  0
   45.4590   35.1910   42.9090 N   0  0  0  0  0  0  0  0  0  0  0  0
   47.6170   34.5320   42.1200 C   0  0  0  0  0  0  0  0  0  0  0  0
   48.4070   35.6200   41.9480 C   0  0  0  0  0  0  0  0  0  0  0  0
   49.7780   35.5730   42.1330 C   0  0  0  0  0  0  0  0  0  0  0  0
   50.3770   34.3760   42.5070 C   0  0  0  0  0  0  0  0  0  0  0  0
   49.5520   33.2870   42.6740 C   0  0  0  0  0  0  0  0  0  0  0  0
   48.2230   33.3790   42.4830 N   0  0  0  0  0  0  0  0  0  0  0  0
   38.7337   31.2964   40.0831 H   0  0  0  0  0  0  0  0  0  0  0  0
   38.4131   34.2023   40.3740 H   0  0  0  0  0  0  0  0  0  0  0  0
   37.6427   32.9289   41.3915 H   0  0  0  0  0  0  0  0  0  0  0  0
   39.6663   33.8445   42.4907 H   0  0  0  0  0  0  0  0  0  0  0  0
   39.8881   32.1199   42.0776 H   0  0  0  0  0  0  0  0  0  0  0  0
   41.6646   32.6552   40.8466 H   0  0  0  0  0  0  0  0  0  0  0  0
   40.0359   34.6166   39.2455 H   0  0  0  0  0  0  0  0  0  0  0  0
   41.5401   33.7297   38.7819 H   0  0  0  0  0  0  0  0  0  0  0  0
   40.4290   31.6475   38.8164 H   0  0  0  0  0  0  0  0  0  0  0  0
   39.9024   32.2377   37.0070 H   0  0  0  0  0  0  0  0  0  0  0  0
   39.0406   34.8178   36.2794 H   0  0  0  0  0  0  0  0  0  0  0  0
   39.0141   35.3111   37.7548 H   0  0  0  0  0  0  0  0  0  0  0  0
   37.0914   33.2323   38.2355 H   0  0  0  0  0  0  0  0  0  0  0  0
   36.9284   32.9164   36.7252 H   0  0  0  0  0  0  0  0  0  0  0  0
   43.5306   35.7607   43.5786 H   0  0  0  0  0  0  0  0  0  0  0  0
   43.7349   33.8667   39.7151 H   0  0  0  0  0  0  0  0  0  0  0  0
   47.9430   36.5722   41.6514 H   0  0  0  0  0  0  0  0  0  0  0  0
   50.3886   36.4760   41.9852 H   0  0  0  0  0  0  0  0  0  0  0  0
   51.4634   34.3021   42.6628 H   0  0  0  0  0  0  0  0  0  0  0  0
   49.9880   32.3214   42.9697 H   0  0  0  0  0  0  0  0  0  0  0  0
  1 12  1  0
  2  3  1  0
  3  4  1  0
  5  1  1  0
  5  4  1  0
  6  5  1  0
  7  6  1  0
  7  2  1  0
  8  7  1  0
  9 10  1  0
  9  8  1  0
 10  8  1  0
 11 16  2  0
 12 11  1  0
 13 14  1  0
 13 12  2  0
 14 15  2  0
 15 17  1  0
 15 16  1  0
 17 22  1  0
 18 17  2  0
 18 19  1  0
 19 20  2  0
 20 21  1  0
 22 21  2  0
  2 23  1  0
  3 24  1  0
  3 25  1  0
  4 26  1  0
  4 27  1  0
  5 28  1  6
  6 29  1  0
  6 30  1  0
  7 31  1  6
  8 32  1  0
  9 33  1  0
  9 34  1  0
 10 35  1  0
 10 36  1  0
 11 37  1  0
 13 38  1  0
 18 39  1  0
 19 40  1  0
 20 41  1  0
 21 42  1  0
M  ISO  8  23   5  24  13  25  13  26  13  27  13  28  13  29  13  30  13
M  ISO  8  31  13  32  13  33  13  34  13  35  13  36  13  37  14  38  14
M  ISO  4  39  14  40  14  41  14  42  14
M  END
>  <minimizedAffinity>  (1) 
-5.59055996

>  <minimizedRMSD>  (1) 
1.31058025

$$$$
