
     RDKit          3D

 36 38  0  0  1  0  0  0  0  0999 V2000
   43.9570   35.3660   42.4820 C   0  0  0  0  0  0  0  0  0  0  0  0
   43.3240   34.8160   41.3610 C   0  0  0  0  0  0  0  0  0  0  0  0
   44.0860   34.1470   40.4470 C   0  0  0  0  0  0  0  0  0  0  0  0
   45.4330   34.0270   40.6380 N   0  0  0  0  0  0  0  0  0  0  0  0
   46.0170   34.5660   41.7260 C   0  0  0  0  0  0  0  0  0  0  0  0
   45.2890   35.2410   42.6610 N   0  0  0  0  0  0  0  0  0  0  0  0
   47.4490   34.4750   41.9900 C   0  0  0  0  0  0  0  0  0  0  0  0
   48.2520   35.5780   41.8310 C   0  0  0  0  0  0  0  0  0  0  0  0
   49.6150   35.5420   42.0690 C   0  0  0  0  0  0  0  0  0  0  0  0
   50.2010   34.3560   42.4830 C   0  0  0  0  0  0  0  0  0  0  0  0
   49.3700   33.2630   42.6340 C   0  0  0  0  0  0  0  0  0  0  0  0
   48.0440   33.3420   42.3910 N   0  0  0  0  0  0  0  0  0  0  0  0
   41.5470   34.9990   41.1520 S   0  0  0  0  0  0  0  0  0  0  0  0
   38.4400   32.0980   39.7610 N   0  0  0  0  0  0  0  0  0  0  0  0
   38.6490   32.6860   41.0390 C   0  0  0  0  0  0  0  0  0  0  0  0
   40.1270   32.7250   41.4090 C   0  0  0  0  0  0  0  0  0  0  0  0
   40.8330   33.5490   40.3740 C   0  0  1  0  0  0  0  0  0  0  0  0
   39.9550   33.9580   39.2180 C   0  0  0  0  0  0  0  0  0  0  0  0
   39.1730   32.7600   38.6940 C   0  0  2  0  0  0  0  0  0  0  0  0
   38.0640   33.3270   37.3740 S   0  0  0  0  0  0  0  0  0  0  0  0
   43.3592   35.9088   43.2290 H   0  0  0  0  0  0  0  0  0  0  0  0
   43.6151   33.7046   39.5567 H   0  0  0  0  0  0  0  0  0  0  0  0
   47.7956   36.5235   41.5029 H   0  0  0  0  0  0  0  0  0  0  0  0
   50.2271   36.4455   41.9310 H   0  0  0  0  0  0  0  0  0  0  0  0
   51.2806   34.2882   42.6826 H   0  0  0  0  0  0  0  0  0  0  0  0
   49.7991   32.3042   42.9604 H   0  0  0  0  0  0  0  0  0  0  0  0
   38.7403   31.1136   39.8015 H   0  0  0  0  0  0  0  0  0  0  0  0
   38.2579   33.7140   41.0263 H   0  0  0  0  0  0  0  0  0  0  0  0
   38.1252   32.0730   41.7873 H   0  0  0  0  0  0  0  0  0  0  0  0
   40.2530   33.1817   42.4017 H   0  0  0  0  0  0  0  0  0  0  0  0
   40.5435   31.7074   41.4420 H   0  0  0  0  0  0  0  0  0  0  0  0
   41.6202   32.9119   39.9444 H   0  0  0  0  0  0  0  0  0  0  0  0
   39.2496   34.7318   39.5549 H   0  0  0  0  0  0  0  0  0  0  0  0
   40.5897   34.3505   38.4098 H   0  0  0  0  0  0  0  0  0  0  0  0
   39.8713   32.0136   38.2874 H   0  0  0  0  0  0  0  0  0  0  0  0
   36.9485   33.8973   37.9283 H   0  0  0  0  0  0  0  0  0  0  0  0
  1  6  2  0
  2  1  1  0
  3  4  1  0
  3  2  2  0
  4  5  2  0
  5  7  1  0
  5  6  1  0
  7 12  1  0
  8  7  2  0
  8  9  1  0
  9 10  2  0
 10 11  1  0
 12 11  2  0
 13  2  1  0
 14 15  1  0
 15 16  1  0
 17 13  1  0
 17 16  1  0
 18 17  1  0
 19 18  1  0
 19 14  1  0
 20 19  1  0
  1 21  1  0
  3 22  1  0
  8 23  1  0
  9 24  1  0
 10 25  1  0
 11 26  1  0
 14 27  1  0
 15 28  1  0
 15 29  1  0
 16 30  1  0
 16 31  1  0
 17 32  1  6
 18 33  1  0
 18 34  1  0
 19 35  1  6
 20 36  1  0
M  ISO  8  21  14  22  14  23  14  24  14  25  14  26  14  27   5  28  13
M  ISO  8  29  13  30  13  31  13  32  13  33  13  34  13  35  13  36  11
M  END
>  <minimizedAffinity>  (1) 
-5.49476528

>  <minimizedRMSD>  (1) 
1.08346677

$$$$
