
     RDKit          3D

 33 35  0  0  0  0  0  0  0  0999 V2000
   46.4100   34.6670   42.1750 C   0  0  0  0  0  0  0  0  0  0  0  0
   47.7200   35.0230   42.0400 C   0  0  0  0  0  0  0  0  0  0  0  0
   48.4230   34.8250   40.8470 C   0  0  0  0  0  0  0  0  0  0  0  0
   47.7700   34.2440   39.7520 C   0  0  0  0  0  0  0  0  0  0  0  0
   46.4550   33.8900   39.8990 C   0  0  0  0  0  0  0  0  0  0  0  0
   45.7860   34.0980   41.0910 C   0  0  0  0  0  0  0  0  0  0  0  0
   44.4320   33.7180   41.1970 N   0  0  0  0  0  0  0  0  0  0  0  0
   43.6170   34.6740   40.6650 C   0  0  0  0  0  0  0  0  0  0  0  0
   42.2290   34.5070   40.6620 C   0  0  0  0  0  0  0  0  0  0  0  0
   41.3060   35.5250   40.0900 C   0  0  0  0  0  0  0  0  0  0  0  0
   41.7240   33.3450   41.2140 C   0  0  0  0  0  0  0  0  0  0  0  0
   40.4830   33.1260   41.2460 O   0  0  0  0  0  0  0  0  0  0  0  0
   42.5610   32.4260   41.7300 N   0  0  0  0  0  0  0  0  0  0  0  0
   43.8960   32.6010   41.7260 C   0  0  0  0  0  0  0  0  0  0  0  0
   44.7510   31.7990   42.1830 O   0  0  0  0  0  0  0  0  0  0  0  0
   44.4220   36.1410   45.0120 C   0  0  0  0  0  0  0  0  0  0  0  0
   44.9890   36.0210   43.7440 C   0  0  0  0  0  0  0  0  0  0  0  0
   45.7650   34.9130   43.4530 C   0  0  0  0  0  0  0  0  0  0  0  0
   45.9330   33.9940   44.4240 N   0  0  0  0  0  0  0  0  0  0  0  0
   45.3720   34.1310   45.6530 C   0  0  0  0  0  0  0  0  0  0  0  0
   44.6180   35.2070   45.9380 N   0  0  0  0  0  0  0  0  0  0  0  0
   48.2393   35.4797   42.8954 H   0  0  0  0  0  0  0  0  0  0  0  0
   49.4791   35.1228   40.7692 H   0  0  0  0  0  0  0  0  0  0  0  0
   48.2981   34.0770   38.8017 H   0  0  0  0  0  0  0  0  0  0  0  0
   45.9214   33.4318   39.0532 H   0  0  0  0  0  0  0  0  0  0  0  0
   44.0565   35.5856   40.2340 H   0  0  0  0  0  0  0  0  0  0  0  0
   40.8109   36.0710   40.9065 H   0  0  0  0  0  0  0  0  0  0  0  0
   41.8778   36.2314   39.4704 H   0  0  0  0  0  0  0  0  0  0  0  0
   40.5471   35.0249   39.4704 H   0  0  0  0  0  0  0  0  0  0  0  0
   42.1697   31.5655   42.1390 H   0  0  0  0  0  0  0  0  0  0  0  0
   43.8045   37.0198   45.2495 H   0  0  0  0  0  0  0  0  0  0  0  0
   44.8214   36.7981   42.9837 H   0  0  0  0  0  0  0  0  0  0  0  0
   45.5352   33.3583   46.4187 H   0  0  0  0  0  0  0  0  0  0  0  0
  1 18  1  0
  2  1  2  0
  3  2  1  0
  4  5  1  0
  4  3  2  0
  5  6  2  0
  6  7  1  0
  6  1  1  0
  7 14  1  0
  8  7  1  0
  9  8  2  0
  9 11  1  0
 10  9  1  0
 11 12  2  0
 11 13  1  0
 14 13  1  0
 14 15  2  0
 16 21  2  0
 17 16  1  0
 18 17  2  0
 18 19  1  0
 19 20  2  0
 20 21  1  0
  2 22  1  0
  3 23  1  0
  4 24  1  0
  5 25  1  0
  8 26  1  0
 10 27  1  0
 10 28  1  0
 10 29  1  0
 13 30  1  0
 16 31  1  0
 17 32  1  0
 20 33  1  0
M  ISO  8  22  14  23  14  24  14  25  14  26  14  27   8  28   8  29   8
M  ISO  4  30   9  31  14  32  14  33  14
M  END
>  <minimizedAffinity>  (1) 
-6.33814001

>  <minimizedRMSD>  (1) 
1.57952392

$$$$
