
     RDKit          3D

 46 49  0  0  0  0  0  0  0  0999 V2000
   45.8080   34.2250   41.2900 C   0  0  0  0  0  0  0  0  0  0  0  0
   47.1010   34.2990   40.8610 C   0  0  0  0  0  0  0  0  0  0  0  0
   47.5040   33.8470   39.6060 C   0  0  0  0  0  0  0  0  0  0  0  0
   46.5520   33.2940   38.7420 C   0  0  0  0  0  0  0  0  0  0  0  0
   45.2460   33.2150   39.1630 C   0  0  0  0  0  0  0  0  0  0  0  0
   44.8980   33.6820   40.4270 C   0  0  0  0  0  0  0  0  0  0  0  0
   44.6630   36.3260   44.1900 C   0  0  0  0  0  0  0  0  0  0  0  0
   44.9260   35.9640   42.8700 C   0  0  0  0  0  0  0  0  0  0  0  0
   45.4860   34.7220   42.6100 C   0  0  0  0  0  0  0  0  0  0  0  0
   45.7510   33.9230   43.6590 N   0  0  0  0  0  0  0  0  0  0  0  0
   45.4890   34.2890   44.9420 C   0  0  0  0  0  0  0  0  0  0  0  0
   44.9460   35.4920   45.1940 N   0  0  0  0  0  0  0  0  0  0  0  0
   45.7860   33.4080   46.0200 N   0  0  0  0  0  0  0  0  0  0  0  0
   46.7110   32.4450   45.9690 C   0  0  0  0  0  0  0  0  0  0  0  0
   46.9250   31.6390   47.0750 C   0  0  0  0  0  0  0  0  0  0  0  0
   47.9500   30.5650   47.0280 C   0  0  0  0  0  0  0  0  0  0  0  0
   46.2030   31.7940   48.2590 C   0  0  0  0  0  0  0  0  0  0  0  0
   46.3750   31.0800   49.2730 O   0  0  0  0  0  0  0  0  0  0  0  0
   45.2890   32.7700   48.2620 N   0  0  0  0  0  0  0  0  0  0  0  0
   45.0980   33.5370   47.1840 C   0  0  0  0  0  0  0  0  0  0  0  0
   44.2220   34.4360   47.2590 O   0  0  0  0  0  0  0  0  0  0  0  0
   43.5380   33.5850   40.8270 N   0  0  0  0  0  0  0  0  0  0  0  0
   42.8020   34.6290   40.3290 C   0  0  0  0  0  0  0  0  0  0  0  0
   41.4430   34.7350   40.5970 C   0  0  0  0  0  0  0  0  0  0  0  0
   40.8660   33.7480   41.3820 C   0  0  0  0  0  0  0  0  0  0  0  0
   39.6400   33.7830   41.6630 O   0  0  0  0  0  0  0  0  0  0  0  0
   41.6180   32.7450   41.8500 N   0  0  0  0  0  0  0  0  0  0  0  0
   42.9370   32.6570   41.5810 C   0  0  0  0  0  0  0  0  0  0  0  0
   43.7090   31.7590   41.9750 O   0  0  0  0  0  0  0  0  0  0  0  0
   40.6150   35.8550   40.0720 C   0  0  0  0  0  0  0  0  0  0  0  0
   47.8560   34.7331   41.5330 H   0  0  0  0  0  0  0  0  0  0  0  0
   48.5573   33.9239   39.2982 H   0  0  0  0  0  0  0  0  0  0  0  0
   46.8432   32.9298   37.7457 H   0  0  0  0  0  0  0  0  0  0  0  0
   44.4785   32.7842   38.5032 H   0  0  0  0  0  0  0  0  0  0  0  0
   44.2180   37.3083   44.4070 H   0  0  0  0  0  0  0  0  0  0  0  0
   44.6926   36.6539   42.0457 H   0  0  0  0  0  0  0  0  0  0  0  0
   47.3000   32.2930   45.0525 H   0  0  0  0  0  0  0  0  0  0  0  0
   48.2257   30.2761   48.0530 H   0  0  0  0  0  0  0  0  0  0  0  0
   47.5420   29.6917   46.4981 H   0  0  0  0  0  0  0  0  0  0  0  0
   48.8414   30.9318   46.4981 H   0  0  0  0  0  0  0  0  0  0  0  0
   44.7238   32.9332   49.1074 H   0  0  0  0  0  0  0  0  0  0  0  0
   43.2941   35.3928   39.7090 H   0  0  0  0  0  0  0  0  0  0  0  0
   41.1770   32.0190   42.4326 H   0  0  0  0  0  0  0  0  0  0  0  0
   40.1936   36.4250   40.9131 H   0  0  0  0  0  0  0  0  0  0  0  0
   41.2420   36.5177   39.4575 H   0  0  0  0  0  0  0  0  0  0  0  0
   39.7975   35.4499   39.4575 H   0  0  0  0  0  0  0  0  0  0  0  0
  1  9  1  0
  2  1  2  0
  3  2  1  0
  4  5  1  0
  4  3  2  0
  5  6  2  0
  6 22  1  0
  6  1  1  0
  7 12  2  0
  8  7  1  0
  9  8  2  0
  9 10  1  0
 10 11  2  0
 11 12  1  0
 11 13  1  0
 13 20  1  0
 14 13  1  0
 14 15  2  0
 15 17  1  0
 16 15  1  0
 17 19  1  0
 17 18  2  0
 20 21  2  0
 20 19  1  0
 22 28  1  0
 23 24  2  0
 23 22  1  0
 24 25  1  0
 25 26  2  0
 25 27  1  0
 28 27  1  0
 28 29  2  0
 30 24  1  0
  2 31  1  0
  3 32  1  0
  4 33  1  0
  5 34  1  0
  7 35  1  0
  8 36  1  0
 14 37  1  0
 16 38  1  0
 16 39  1  0
 16 40  1  0
 19 41  1  0
 23 42  1  0
 27 43  1  0
 30 44  1  0
 30 45  1  0
 30 46  1  0
M  ISO  8  31  14  32  14  33  14  34  14  35  14  36  14  37  14  38   8
M  ISO  8  39   8  40   8  41   9  42  14  43   9  44   8  45   8  46   8
M  END
>  <minimizedAffinity>  (1) 
-8.38870811

>  <minimizedRMSD>  (1) 
1.04703045

$$$$
