
     RDKit          3D

 37 40  0  0  0  0  0  0  0  0999 V2000
   47.5670   34.2800   41.8440 C   0  0  0  0  0  0  0  0  0  0  0  0
   48.5390   33.2140   42.2350 C   0  0  0  0  0  0  0  0  0  0  0  0
   49.8320   33.8740   42.6380 C   0  0  0  0  0  0  0  0  0  0  0  0
   49.6000   35.3600   42.5220 C   0  0  0  0  0  0  0  0  0  0  0  0
   48.3890   35.4860   41.6620 C   0  0  0  0  0  0  0  0  0  0  0  0
   46.7570   33.6630   40.8130 C   0  0  0  0  0  0  0  0  0  0  0  0
   45.6160   32.9740   41.1380 N   0  0  0  0  0  0  0  0  0  0  0  0
   44.8730   32.3720   40.2190 C   0  0  0  0  0  0  0  0  0  0  0  0
   45.1120   32.3460   38.8950 N   0  0  0  0  0  0  0  0  0  0  0  0
   46.2220   33.0060   38.4990 C   0  0  0  0  0  0  0  0  0  0  0  0
   46.5300   33.0360   37.1560 C   0  0  0  0  0  0  0  0  0  0  0  0
   47.6440   33.7090   36.7010 C   0  0  0  0  0  0  0  0  0  0  0  0
   48.4520   34.3570   37.6350 C   0  0  0  0  0  0  0  0  0  0  0  0
   48.0860   34.2840   38.9540 C   0  0  0  0  0  0  0  0  0  0  0  0
   46.9880   33.6280   39.4630 C   0  0  0  0  0  0  0  0  0  0  0  0
   46.6100   34.6050   42.9630 C   0  0  0  0  0  0  0  0  0  0  0  0
   46.5010   33.8120   44.1010 C   0  0  0  0  0  0  0  0  0  0  0  0
   45.5800   34.1500   45.0870 C   0  0  0  0  0  0  0  0  0  0  0  0
   44.8220   35.2570   44.8850 N   0  0  0  0  0  0  0  0  0  0  0  0
   44.9400   36.0160   43.7760 C   0  0  0  0  0  0  0  0  0  0  0  0
   45.8270   35.6950   42.8220 N   0  0  0  0  0  0  0  0  0  0  0  0
   48.1371   32.6369   43.0808 H   0  0  0  0  0  0  0  0  0  0  0  0
   48.7107   32.5308   41.3902 H   0  0  0  0  0  0  0  0  0  0  0  0
   50.0893   33.6079   43.6739 H   0  0  0  0  0  0  0  0  0  0  0  0
   50.6652   33.5473   41.9984 H   0  0  0  0  0  0  0  0  0  0  0  0
   49.4206   35.8034   43.5125 H   0  0  0  0  0  0  0  0  0  0  0  0
   50.4685   35.8858   42.0987 H   0  0  0  0  0  0  0  0  0  0  0  0
   48.6891   35.5761   40.6076 H   0  0  0  0  0  0  0  0  0  0  0  0
   47.8157   36.3818   41.9429 H   0  0  0  0  0  0  0  0  0  0  0  0
   43.9756   31.8434   40.5729 H   0  0  0  0  0  0  0  0  0  0  0  0
   45.8787   32.5163   36.4379 H   0  0  0  0  0  0  0  0  0  0  0  0
   47.8892   33.7342   35.6290 H   0  0  0  0  0  0  0  0  0  0  0  0
   49.3520   34.9077   37.3239 H   0  0  0  0  0  0  0  0  0  0  0  0
   48.7338   34.8008   39.6774 H   0  0  0  0  0  0  0  0  0  0  0  0
   47.1389   32.9238   44.2201 H   0  0  0  0  0  0  0  0  0  0  0  0
   45.4702   33.5421   45.9972 H   0  0  0  0  0  0  0  0  0  0  0  0
   44.3040   36.9050   43.6530 H   0  0  0  0  0  0  0  0  0  0  0  0
  1  2  1  0
  1 16  1  0
  2  3  1  0
  4  3  1  0
  5  1  1  0
  5  4  1  0
  6  7  2  0
  6  1  1  0
  8  7  1  0
  9  8  2  0
 10  9  1  0
 10 15  2  0
 11 10  1  0
 12 11  2  0
 12 13  1  0
 13 14  2  0
 14 15  1  0
 15  6  1  0
 16 17  2  0
 17 18  1  0
 19 18  2  0
 20 19  1  0
 21 16  1  0
 21 20  2  0
  2 22  1  0
  2 23  1  0
  3 24  1  0
  3 25  1  0
  4 26  1  0
  4 27  1  0
  5 28  1  0
  5 29  1  0
  8 30  1  0
 11 31  1  0
 12 32  1  0
 13 33  1  0
 14 34  1  0
 17 35  1  0
 18 36  1  0
 20 37  1  0
M  ISO  8  22  13  23  13  24  13  25  13  26  13  27  13  28  13  29  13
M  ISO  8  30  14  31  14  32  14  33  14  34  14  35  14  36  14  37  14
M  END
>  <minimizedAffinity>  (1) 
-6.23856592

>  <minimizedRMSD>  (1) 
3.27858686

$$$$
