
     RDKit          3D

 46 49  0  0  0  0  0  0  0  0999 V2000
   45.7080   34.1880   40.8020 C   0  0  0  0  0  0  0  0  0  0  0  0
   46.9760   34.2140   40.3140 C   0  0  0  0  0  0  0  0  0  0  0  0
   47.3220   33.6500   39.0890 C   0  0  0  0  0  0  0  0  0  0  0  0
   46.3260   33.0300   38.3230 C   0  0  0  0  0  0  0  0  0  0  0  0
   45.0450   32.9990   38.8070 C   0  0  0  0  0  0  0  0  0  0  0  0
   44.7500   33.5780   40.0370 C   0  0  0  0  0  0  0  0  0  0  0  0
   43.4120   33.5280   40.5070 N   0  0  0  0  0  0  0  0  0  0  0  0
   42.6760   34.5560   39.9760 C   0  0  0  0  0  0  0  0  0  0  0  0
   41.3240   34.7020   40.3050 C   0  0  0  0  0  0  0  0  0  0  0  0
   40.7720   33.7720   41.1790 C   0  0  0  0  0  0  0  0  0  0  0  0
   39.5630   33.8480   41.5140 O   0  0  0  0  0  0  0  0  0  0  0  0
   41.5400   32.7860   41.6690 N   0  0  0  0  0  0  0  0  0  0  0  0
   42.8310   32.6610   41.3450 C   0  0  0  0  0  0  0  0  0  0  0  0
   43.6140   31.7740   41.7540 O   0  0  0  0  0  0  0  0  0  0  0  0
   40.4840   35.7980   39.7560 C   0  0  0  0  0  0  0  0  0  0  0  0
   44.7800   36.5920   43.5460 C   0  0  0  0  0  0  0  0  0  0  0  0
   44.9900   36.1080   42.2570 C   0  0  0  0  0  0  0  0  0  0  0  0
   45.4510   34.8050   42.0890 C   0  0  0  0  0  0  0  0  0  0  0  0
   45.6690   34.0770   43.1970 N   0  0  0  0  0  0  0  0  0  0  0  0
   45.4560   34.5710   44.4360 C   0  0  0  0  0  0  0  0  0  0  0  0
   45.0150   35.8200   44.6040 N   0  0  0  0  0  0  0  0  0  0  0  0
   46.1280   32.1590   47.8470 C   0  0  0  0  0  0  0  0  0  0  0  0
   45.1200   33.0880   47.8520 C   0  0  0  0  0  0  0  0  0  0  0  0
   44.9380   33.8470   46.7280 C   0  0  0  0  0  0  0  0  0  0  0  0
   45.7140   33.7230   45.5960 C   0  0  0  0  0  0  0  0  0  0  0  0
   46.7280   32.7920   45.5850 C   0  0  0  0  0  0  0  0  0  0  0  0
   46.9240   32.0160   46.7190 C   0  0  0  0  0  0  0  0  0  0  0  0
   46.3280   31.2090   49.3040 S   0  0  0  0  0  0  0  0  0  0  0  0
   45.3320   30.1080   49.4000 O   0  0  0  0  0  0  0  0  0  0  0  0
   47.7470   30.6690   49.3930 O   0  0  0  0  0  0  0  0  0  0  0  0
   47.7612   34.7006   40.9113 H   0  0  0  0  0  0  0  0  0  0  0  0
   48.3604   33.6905   38.7284 H   0  0  0  0  0  0  0  0  0  0  0  0
   46.5684   32.5764   37.3506 H   0  0  0  0  0  0  0  0  0  0  0  0
   44.2485   32.5156   38.2223 H   0  0  0  0  0  0  0  0  0  0  0  0
   43.1514   35.2700   39.2874 H   0  0  0  0  0  0  0  0  0  0  0  0
   41.1207   32.1031   42.3161 H   0  0  0  0  0  0  0  0  0  0  0  0
   40.0437   36.3725   40.5843 H   0  0  0  0  0  0  0  0  0  0  0  0
   41.1061   36.4627   39.1387 H   0  0  0  0  0  0  0  0  0  0  0  0
   39.6804   35.3700   39.1387 H   0  0  0  0  0  0  0  0  0  0  0  0
   44.4171   37.6203   43.6905 H   0  0  0  0  0  0  0  0  0  0  0  0
   44.7942   36.7468   41.3832 H   0  0  0  0  0  0  0  0  0  0  0  0
   44.4760   33.2196   48.7341 H   0  0  0  0  0  0  0  0  0  0  0  0
   44.1309   34.5944   46.7281 H   0  0  0  0  0  0  0  0  0  0  0  0
   47.3675   32.6661   44.6989 H   0  0  0  0  0  0  0  0  0  0  0  0
   47.7309   31.2685   46.7239 H   0  0  0  0  0  0  0  0  0  0  0  0
   46.1035   32.0396   50.3701 H   0  0  0  0  0  0  0  0  0  0  0  0
  1 18  1  0
  2  1  2  0
  3  2  1  0
  4  5  1  0
  4  3  2  0
  5  6  2  0
  6  7  1  0
  6  1  1  0
  7 13  1  0
  8  9  2  0
  8  7  1  0
  9 10  1  0
 10 11  2  0
 10 12  1  0
 13 12  1  0
 13 14  2  0
 15  9  1  0
 16 21  2  0
 17 16  1  0
 18 17  2  0
 18 19  1  0
 19 20  2  0
 20 21  1  0
 20 25  1  0
 22 23  2  0
 22 28  1  0
 24 23  1  0
 25 24  2  0
 26 25  1  0
 26 27  2  0
 27 22  1  0
 28 30  2  0
 28 29  2  0
  2 31  1  0
  3 32  1  0
  4 33  1  0
  5 34  1  0
  8 35  1  0
 12 36  1  0
 15 37  1  0
 15 38  1  0
 15 39  1  0
 16 40  1  0
 17 41  1  0
 23 42  1  0
 24 43  1  0
 26 44  1  0
 27 45  1  0
 28 46  1  0
M  ISO  8  31  14  32  14  33  14  34  14  35  14  36   9  37   8  38   8
M  ISO  8  39   8  40  14  41  14  42  14  43  14  44  14  45  14  46  11
M  END
>  <minimizedAffinity>  (1) 
-6.77539587

>  <minimizedRMSD>  (1) 
1.51181173

$$$$
