
     RDKit          3D

 40 43  0  0  1  0  0  0  0  0999 V2000
   46.3670   33.5770   45.3350 C   0  0  2  0  0  0  0  0  0  0  0  0
   45.1350   34.4020   45.0330 C   0  0  0  0  0  0  0  0  0  0  0  0
   45.0920   35.1260   43.7680 C   0  0  0  0  0  0  0  0  0  0  0  0
   46.2250   35.0310   42.8250 C   0  0  1  0  0  0  0  0  0  0  0  0
   47.4060   34.3030   43.3050 C   0  0  0  0  0  0  0  0  0  0  0  0
   46.9930   33.0780   44.0730 C   0  0  0  0  0  0  0  0  0  0  0  0
   45.6370   34.4340   41.5720 C   0  0  0  0  0  0  0  0  0  0  0  0
   46.4410   33.6090   40.7840 C   0  0  0  0  0  0  0  0  0  0  0  0
   46.0670   32.9760   39.6170 C   0  0  0  0  0  0  0  0  0  0  0  0
   44.7720   33.1910   39.2010 C   0  0  0  0  0  0  0  0  0  0  0  0
   43.9370   33.9970   39.9410 C   0  0  0  0  0  0  0  0  0  0  0  0
   42.6360   34.2130   39.5210 C   0  0  0  0  0  0  0  0  0  0  0  0
   41.7630   35.0270   40.2500 C   0  0  0  0  0  0  0  0  0  0  0  0
   42.2440   35.6220   41.4210 C   0  0  0  0  0  0  0  0  0  0  0  0
   43.5370   35.4220   41.8610 C   0  0  0  0  0  0  0  0  0  0  0  0
   44.3530   34.6090   41.1030 C   0  0  0  0  0  0  0  0  0  0  0  0
   45.3290   32.8560   47.4650 C   0  0  0  0  0  0  0  0  0  0  0  0
   46.0090   32.4930   46.2870 C   0  0  0  0  0  0  0  0  0  0  0  0
   46.3310   31.1250   46.0680 C   0  0  0  0  0  0  0  0  0  0  0  0
   45.9590   30.2390   47.0160 N   0  0  0  0  0  0  0  0  0  0  0  0
   45.3050   30.6110   48.1440 C   0  0  0  0  0  0  0  0  0  0  0  0
   44.9950   31.9030   48.3630 N   0  0  0  0  0  0  0  0  0  0  0  0
   47.1324   34.2002   45.8206 H   0  0  0  0  0  0  0  0  0  0  0  0
   44.2983   34.4539   45.7452 H   0  0  0  0  0  0  0  0  0  0  0  0
   44.2165   35.7425   43.5161 H   0  0  0  0  0  0  0  0  0  0  0  0
   46.6515   36.0319   42.6628 H   0  0  0  0  0  0  0  0  0  0  0  0
   48.0197   34.0005   42.4437 H   0  0  0  0  0  0  0  0  0  0  0  0
   47.9842   34.9616   43.9697 H   0  0  0  0  0  0  0  0  0  0  0  0
   46.2672   32.4893   43.4927 H   0  0  0  0  0  0  0  0  0  0  0  0
   47.8519   32.4227   44.2801 H   0  0  0  0  0  0  0  0  0  0  0  0
   47.4736   33.4479   41.1271 H   0  0  0  0  0  0  0  0  0  0  0  0
   46.7620   32.3373   39.0521 H   0  0  0  0  0  0  0  0  0  0  0  0
   44.4051   32.7188   38.2777 H   0  0  0  0  0  0  0  0  0  0  0  0
   42.2817   33.7351   38.5957 H   0  0  0  0  0  0  0  0  0  0  0  0
   40.7294   35.1942   39.9127 H   0  0  0  0  0  0  0  0  0  0  0  0
   41.5733   36.2671   42.0075 H   0  0  0  0  0  0  0  0  0  0  0  0
   43.9036   35.8947   42.7841 H   0  0  0  0  0  0  0  0  0  0  0  0
   45.0712   33.9087   47.6533 H   0  0  0  0  0  0  0  0  0  0  0  0
   46.8627   30.8015   45.1610 H   0  0  0  0  0  0  0  0  0  0  0  0
   45.0250   29.8501   48.8874 H   0  0  0  0  0  0  0  0  0  0  0  0
  1 18  1  0
  2  1  1  0
  3  2  2  0
  4  5  1  0
  4  3  1  0
  5  6  1  0
  6  1  1  0
  7  4  1  0
  8  7  2  0
  9  8  1  0
 10  9  2  0
 10 11  1  0
 11 16  2  0
 12 11  1  0
 12 13  2  0
 13 14  1  0
 14 15  2  0
 16  7  1  0
 16 15  1  0
 17 22  2  0
 18 17  1  0
 19 18  2  0
 19 20  1  0
 20 21  2  0
 21 22  1  0
  1 23  1  1
  2 24  1  0
  3 25  1  0
  4 26  1  6
  5 27  1  0
  5 28  1  0
  6 29  1  0
  6 30  1  0
  8 31  1  0
  9 32  1  0
 10 33  1  0
 12 34  1  0
 13 35  1  0
 14 36  1  0
 15 37  1  0
 17 38  1  0
 19 39  1  0
 21 40  1  0
M  ISO  8  23  13  24  13  25  13  26  13  27  13  28  13  29  13  30  13
M  ISO  8  31  14  32  14  33  14  34  14  35  14  36  14  37  14  38  14
M  ISO  2  39  14  40  14
M  END
>  <minimizedAffinity>  (1) 
-6.38344193

>  <minimizedRMSD>  (1) 
1.71072316

$$$$
