
     RDKit          3D

 34 36  0  0  1  0  0  0  0  0999 V2000
   46.4990   33.2240   46.0450 C   0  0  2  0  0  0  0  0  0  0  0  0
   47.0560   32.0260   45.3040 C   0  0  0  0  0  0  0  0  0  0  0  0
   47.2380   30.8090   46.0710 C   0  0  0  0  0  0  0  0  0  0  0  0
   46.8940   30.7590   47.4930 C   0  0  2  0  0  0  0  0  0  0  0  0
   46.4750   32.0430   48.1220 C   0  0  0  0  0  0  0  0  0  0  0  0
   45.5970   32.8060   47.1630 C   0  0  0  0  0  0  0  0  0  0  0  0
   46.3530   34.1710   43.7570 C   0  0  0  0  0  0  0  0  0  0  0  0
   45.8730   34.1520   45.0680 C   0  0  0  0  0  0  0  0  0  0  0  0
   44.8120   35.0320   45.4180 C   0  0  0  0  0  0  0  0  0  0  0  0
   44.3160   35.8450   44.4620 N   0  0  0  0  0  0  0  0  0  0  0  0
   44.8020   35.8410   43.1960 C   0  0  0  0  0  0  0  0  0  0  0  0
   45.8130   35.0070   42.8560 N   0  0  0  0  0  0  0  0  0  0  0  0
   48.0240   30.1950   48.2770 C   0  0  0  0  0  0  0  0  0  0  0  0
   48.4890   30.8640   49.4120 C   0  0  0  0  0  0  0  0  0  0  0  0
   49.5440   30.3730   50.1750 C   0  0  0  0  0  0  0  0  0  0  0  0
   50.1140   29.1810   49.7510 C   0  0  0  0  0  0  0  0  0  0  0  0
   49.7100   28.4720   48.6480 C   0  0  0  0  0  0  0  0  0  0  0  0
   48.6590   28.9980   47.9210 C   0  0  0  0  0  0  0  0  0  0  0  0
   47.3119   33.7759   46.5396 H   0  0  0  0  0  0  0  0  0  0  0  0
   47.3103   32.0769   44.2350 H   0  0  0  0  0  0  0  0  0  0  0  0
   47.6398   29.9116   45.5779 H   0  0  0  0  0  0  0  0  0  0  0  0
   46.0031   30.1144   47.5202 H   0  0  0  0  0  0  0  0  0  0  0  0
   45.9151   31.8340   49.0455 H   0  0  0  0  0  0  0  0  0  0  0  0
   47.3653   32.6427   48.3624 H   0  0  0  0  0  0  0  0  0  0  0  0
   45.1626   33.6876   47.6571 H   0  0  0  0  0  0  0  0  0  0  0  0
   44.7562   32.1947   46.8034 H   0  0  0  0  0  0  0  0  0  0  0  0
   47.1739   33.5007   43.4623 H   0  0  0  0  0  0  0  0  0  0  0  0
   44.4066   35.0494   46.4404 H   0  0  0  0  0  0  0  0  0  0  0  0
   44.3732   36.5179   42.4424 H   0  0  0  0  0  0  0  0  0  0  0  0
   48.0070   31.8064   49.7112 H   0  0  0  0  0  0  0  0  0  0  0  0
   49.9074   30.9024   51.0681 H   0  0  0  0  0  0  0  0  0  0  0  0
   50.9491   28.7757   50.3412 H   0  0  0  0  0  0  0  0  0  0  0  0
   50.1989   27.5307   48.3566 H   0  0  0  0  0  0  0  0  0  0  0  0
   48.3081   28.4569   47.0299 H   0  0  0  0  0  0  0  0  0  0  0  0
  1  6  1  0
  2  1  1  0
  2  3  2  0
  3  4  1  0
  4  5  1  0
  4 13  1  0
  6  5  1  0
  7  8  2  0
  8  9  1  0
  8  1  1  0
 10  9  2  0
 11 10  1  0
 12 11  2  0
 12  7  1  0
 13 14  2  0
 14 15  1  0
 16 15  2  0
 17 16  1  0
 18 13  1  0
 18 17  2  0
  1 19  1  1
  2 20  1  0
  3 21  1  0
  4 22  1  6
  5 23  1  0
  5 24  1  0
  6 25  1  0
  6 26  1  0
  7 27  1  0
  9 28  1  0
 11 29  1  0
 14 30  1  0
 15 31  1  0
 16 32  1  0
 17 33  1  0
 18 34  1  0
M  ISO  8  19  13  20  13  21  13  22  13  23  13  24  13  25  13  26  13
M  ISO  8  27  14  28  14  29  14  30  14  31  14  32  14  33  14  34  14
M  END
>  <minimizedAffinity>  (1) 
-5.35486603

>  <minimizedRMSD>  (1) 
7.79206991

$$$$
