
     RDKit          3D

 39 41  0  0  1  0  0  0  0  0999 V2000
   46.3790   33.4180   45.8320 C   0  0  2  0  0  0  0  0  0  0  0  0
   45.1770   34.3300   45.8040 C   0  0  0  0  0  0  0  0  0  0  0  0
   44.9140   35.0920   44.6080 C   0  0  0  0  0  0  0  0  0  0  0  0
   45.8220   34.9560   43.4680 C   0  0  1  0  0  0  0  0  0  0  0  0
   46.9800   34.0720   43.5950 C   0  0  0  0  0  0  0  0  0  0  0  0
   46.6500   32.8810   44.4540 C   0  0  0  0  0  0  0  0  0  0  0  0
   45.2520   32.5940   47.8650 C   0  0  0  0  0  0  0  0  0  0  0  0
   46.1870   32.3870   46.8520 C   0  0  0  0  0  0  0  0  0  0  0  0
   46.9230   31.1720   46.8750 C   0  0  0  0  0  0  0  0  0  0  0  0
   46.6810   30.2820   47.8740 N   0  0  0  0  0  0  0  0  0  0  0  0
   45.7620   30.5200   48.8440 C   0  0  0  0  0  0  0  0  0  0  0  0
   45.0510   31.6710   48.8370 N   0  0  0  0  0  0  0  0  0  0  0  0
   45.0720   34.6690   42.2930 N   0  0  0  0  0  0  0  0  0  0  0  0
   45.7740   34.3930   41.0970 C   0  0  0  0  0  0  0  0  0  0  0  0
   44.9690   33.5720   40.1050 C   0  0  0  0  0  0  0  0  0  0  0  0
   43.5280   33.9980   40.0650 C   0  0  0  0  0  0  0  0  0  0  0  0
   43.3380   35.3550   40.7160 C   0  0  0  0  0  0  0  0  0  0  0  0
   43.8080   35.3090   42.1610 C   0  0  0  0  0  0  0  0  0  0  0  0
   47.2845   33.9722   46.1201 H   0  0  0  0  0  0  0  0  0  0  0  0
   44.5146   34.4120   46.6784 H   0  0  0  0  0  0  0  0  0  0  0  0
   44.0452   35.7644   44.5534 H   0  0  0  0  0  0  0  0  0  0  0  0
   46.3120   35.9393   43.4128 H   0  0  0  0  0  0  0  0  0  0  0  0
   47.2797   33.7241   42.5954 H   0  0  0  0  0  0  0  0  0  0  0  0
   47.8011   34.6313   44.0672 H   0  0  0  0  0  0  0  0  0  0  0  0
   45.7601   32.3650   44.0643 H   0  0  0  0  0  0  0  0  0  0  0  0
   47.4748   32.1533   44.4631 H   0  0  0  0  0  0  0  0  0  0  0  0
   44.6658   33.5247   47.8757 H   0  0  0  0  0  0  0  0  0  0  0  0
   47.6734   30.9557   46.1003 H   0  0  0  0  0  0  0  0  0  0  0  0
   45.5950   29.7761   49.6369 H   0  0  0  0  0  0  0  0  0  0  0  0
   46.0442   35.3478   40.6223 H   0  0  0  0  0  0  0  0  0  0  0  0
   46.6600   33.8001   41.3681 H   0  0  0  0  0  0  0  0  0  0  0  0
   45.4050   33.6973   39.1029 H   0  0  0  0  0  0  0  0  0  0  0  0
   45.0051   32.5199   40.4240 H   0  0  0  0  0  0  0  0  0  0  0  0
   43.1995   34.0540   39.0167 H   0  0  0  0  0  0  0  0  0  0  0  0
   42.9312   33.2592   40.6200 H   0  0  0  0  0  0  0  0  0  0  0  0
   43.9226   36.1076   40.1666 H   0  0  0  0  0  0  0  0  0  0  0  0
   42.2709   35.6208   40.6917 H   0  0  0  0  0  0  0  0  0  0  0  0
   43.8904   36.3383   42.5400 H   0  0  0  0  0  0  0  0  0  0  0  0
   43.0728   34.7287   42.7378 H   0  0  0  0  0  0  0  0  0  0  0  0
  1  8  1  0
  2  1  1  0
  3  2  2  0
  4  5  1  0
  4  3  1  0
  5  6  1  0
  6  1  1  0
  7 12  2  0
  8  9  2  0
  8  7  1  0
  9 10  1  0
 10 11  2  0
 12 11  1  0
 13  4  1  0
 14 13  1  0
 15 14  1  0
 16 15  1  0
 16 17  1  0
 17 18  1  0
 18 13  1  0
  1 19  1  1
  2 20  1  0
  3 21  1  0
  4 22  1  6
  5 23  1  0
  5 24  1  0
  6 25  1  0
  6 26  1  0
  7 27  1  0
  9 28  1  0
 11 29  1  0
 14 30  1  0
 14 31  1  0
 15 32  1  0
 15 33  1  0
 16 34  1  0
 16 35  1  0
 17 36  1  0
 17 37  1  0
 18 38  1  0
 18 39  1  0
M  ISO  8  19  13  20  13  21  13  22  13  23  13  24  13  25  13  26  13
M  ISO  8  27  14  28  14  29  14  30  13  31  13  32  13  33  13  34  13
M  ISO  5  35  13  36  13  37  13  38  13  39  13
M  END
>  <minimizedAffinity>  (1) 
-5.39213562

>  <minimizedRMSD>  (1) 
1.17533135

$$$$
