
     RDKit          3D

 37 40  0  0  0  0  0  0  0  0999 V2000
   46.4690   34.3220   41.7060 C   0  0  0  0  0  0  0  0  0  0  0  0
   46.7880   34.0970   40.2910 C   0  0  0  0  0  0  0  0  0  0  0  0
   48.1800   34.6770   40.0180 C   0  0  0  0  0  0  0  0  0  0  0  0
   48.7120   35.1740   41.3470 C   0  0  0  0  0  0  0  0  0  0  0  0
   47.4540   35.4080   42.1500 C   0  0  0  0  0  0  0  0  0  0  0  0
   45.0890   34.8110   41.9490 C   0  0  0  0  0  0  0  0  0  0  0  0
   44.6210   35.4910   43.0700 C   0  0  0  0  0  0  0  0  0  0  0  0
   43.3120   35.7720   42.9970 N   0  0  0  0  0  0  0  0  0  0  0  0
   42.8600   35.2900   41.8250 C   0  0  0  0  0  0  0  0  0  0  0  0
   41.6030   35.3050   41.2440 C   0  0  0  0  0  0  0  0  0  0  0  0
   41.4050   34.7330   40.0050 C   0  0  0  0  0  0  0  0  0  0  0  0
   42.4770   34.1360   39.3360 C   0  0  0  0  0  0  0  0  0  0  0  0
   43.6990   34.1560   39.9710 C   0  0  0  0  0  0  0  0  0  0  0  0
   43.9450   34.7080   41.1960 C   0  0  0  0  0  0  0  0  0  0  0  0
   46.6700   33.1730   42.5990 C   0  0  0  0  0  0  0  0  0  0  0  0
   46.4330   31.8680   42.1670 C   0  0  0  0  0  0  0  0  0  0  0  0
   46.6440   30.8200   43.0550 C   0  0  0  0  0  0  0  0  0  0  0  0
   47.0740   31.1140   44.3110 N   0  0  0  0  0  0  0  0  0  0  0  0
   47.2990   32.3830   44.7100 C   0  0  0  0  0  0  0  0  0  0  0  0
   47.0990   33.3990   43.8640 N   0  0  0  0  0  0  0  0  0  0  0  0
   46.7847   33.0184   40.0751 H   0  0  0  0  0  0  0  0  0  0  0  0
   46.0395   34.5852   39.6496 H   0  0  0  0  0  0  0  0  0  0  0  0
   48.8423   33.8984   39.6116 H   0  0  0  0  0  0  0  0  0  0  0  0
   48.1318   35.4921   39.2809 H   0  0  0  0  0  0  0  0  0  0  0  0
   49.3512   34.4171   41.8250 H   0  0  0  0  0  0  0  0  0  0  0  0
   49.3405   36.0720   41.2541 H   0  0  0  0  0  0  0  0  0  0  0  0
   47.0444   36.4067   41.9383 H   0  0  0  0  0  0  0  0  0  0  0  0
   47.6488   35.3610   43.2316 H   0  0  0  0  0  0  0  0  0  0  0  0
   45.2568   35.7680   43.9239 H   0  0  0  0  0  0  0  0  0  0  0  0
   42.7545   36.2664   43.7081 H   0  0  0  0  0  0  0  0  0  0  0  0
   40.7601   35.7745   41.7723 H   0  0  0  0  0  0  0  0  0  0  0  0
   40.4061   34.7466   39.5445 H   0  0  0  0  0  0  0  0  0  0  0  0
   42.3505   33.6712   38.3471 H   0  0  0  0  0  0  0  0  0  0  0  0
   44.5469   33.6889   39.4486 H   0  0  0  0  0  0  0  0  0  0  0  0
   46.0854   31.6720   41.1420 H   0  0  0  0  0  0  0  0  0  0  0  0
   46.4675   29.7782   42.7493 H   0  0  0  0  0  0  0  0  0  0  0  0
   47.6479   32.5824   45.7340 H   0  0  0  0  0  0  0  0  0  0  0  0
  1  6  1  0
  1  5  1  0
  1 15  1  0
  2  1  1  0
  3  2  1  0
  3  4  1  0
  4  5  1  0
  6  7  2  0
  8  7  1  0
  9  8  1  0
 10  9  2  0
 11 10  1  0
 12 13  1  0
 12 11  2  0
 13 14  2  0
 14  9  1  0
 14  6  1  0
 15 20  1  0
 16 15  2  0
 16 17  1  0
 17 18  2  0
 18 19  1  0
 20 19  2  0
  2 21  1  0
  2 22  1  0
  3 23  1  0
  3 24  1  0
  4 25  1  0
  4 26  1  0
  5 27  1  0
  5 28  1  0
  7 29  1  0
  8 30  1  0
 10 31  1  0
 11 32  1  0
 12 33  1  0
 13 34  1  0
 16 35  1  0
 17 36  1  0
 19 37  1  0
M  ISO  8  21  13  22  13  23  13  24  13  25  13  26  13  27  13  28  13
M  ISO  8  29  14  30   9  31  14  32  14  33  14  34  14  35  14  36  14
M  ISO  1  37  14
M  END
>  <minimizedAffinity>  (1) 
-5.89045429

>  <minimizedRMSD>  (1) 
2.16962099

$$$$
