
     RDKit          3D

 35 37  0  0  1  0  0  0  0  0999 V2000
   46.2020   33.4040   45.6700 C   0  0  2  0  0  0  0  0  0  0  0  0
   45.0990   34.4340   45.7440 C   0  0  0  0  0  0  0  0  0  0  0  0
   44.8880   35.2770   44.5850 C   0  0  0  0  0  0  0  0  0  0  0  0
   45.7180   35.1140   43.4020 C   0  0  1  0  0  0  0  0  0  0  0  0
   46.8310   34.1610   43.4850 C   0  0  0  0  0  0  0  0  0  0  0  0
   46.4300   32.9410   44.2660 C   0  0  0  0  0  0  0  0  0  0  0  0
   44.8410   34.9080   42.2490 N   0  0  0  0  0  0  0  0  0  0  0  0
   43.5270   35.2110   42.4540 C   0  0  0  0  0  0  0  0  0  0  0  0
   42.5610   35.0730   41.4680 C   0  0  0  0  0  0  0  0  0  0  0  0
   43.0150   34.6030   40.2450 C   0  0  0  0  0  0  0  0  0  0  0  0
   42.0120   34.4640   39.2330 N   0  0  0  0  0  0  0  0  0  0  0  0
   44.3260   34.3030   40.0510 N   0  0  0  0  0  0  0  0  0  0  0  0
   45.2010   34.4560   41.0320 C   0  0  0  0  0  0  0  0  0  0  0  0
   46.4270   34.1940   40.9060 O   0  0  0  0  0  0  0  0  0  0  0  0
   45.3170   32.6540   47.8460 C   0  0  0  0  0  0  0  0  0  0  0  0
   45.9470   32.3370   46.6410 C   0  0  0  0  0  0  0  0  0  0  0  0
   46.3250   30.9850   46.4180 C   0  0  0  0  0  0  0  0  0  0  0  0
   46.0550   30.0770   47.3890 N   0  0  0  0  0  0  0  0  0  0  0  0
   45.4420   30.4160   48.5490 C   0  0  0  0  0  0  0  0  0  0  0  0
   45.0760   31.6990   48.7740 N   0  0  0  0  0  0  0  0  0  0  0  0
   47.1610   33.8584   45.9594 H   0  0  0  0  0  0  0  0  0  0  0  0
   44.4783   34.5400   46.6459 H   0  0  0  0  0  0  0  0  0  0  0  0
   44.0980   36.0423   44.5997 H   0  0  0  0  0  0  0  0  0  0  0  0
   46.2859   36.0493   43.2889 H   0  0  0  0  0  0  0  0  0  0  0  0
   47.1239   33.8588   42.4687 H   0  0  0  0  0  0  0  0  0  0  0  0
   47.6745   34.6468   43.9973 H   0  0  0  0  0  0  0  0  0  0  0  0
   45.5071   32.5088   43.8519 H   0  0  0  0  0  0  0  0  0  0  0  0
   47.2052   32.1619   44.2205 H   0  0  0  0  0  0  0  0  0  0  0  0
   43.2201   35.5806   43.4436 H   0  0  0  0  0  0  0  0  0  0  0  0
   41.5038   35.3203   41.6448 H   0  0  0  0  0  0  0  0  0  0  0  0
   42.2693   34.1205   38.2967 H   0  0  0  0  0  0  0  0  0  0  0  0
   41.0331   34.7075   39.4412 H   0  0  0  0  0  0  0  0  0  0  0  0
   45.0129   33.6925   48.0434 H   0  0  0  0  0  0  0  0  0  0  0  0
   46.8224   30.6835   45.4844 H   0  0  0  0  0  0  0  0  0  0  0  0
   45.2416   29.6466   49.3092 H   0  0  0  0  0  0  0  0  0  0  0  0
  1  2  1  0
  1 16  1  0
  3  2  2  0
  4  5  1  0
  4  3  1  0
  5  6  1  0
  6  1  1  0
  7  8  1  0
  7  4  1  0
  9  8  2  0
 10  9  1  0
 11 10  1  0
 12 10  2  0
 12 13  1  0
 13  7  1  0
 14 13  2  0
 15 20  2  0
 16 15  1  0
 17 16  2  0
 17 18  1  0
 18 19  2  0
 19 20  1  0
  1 21  1  1
  2 22  1  0
  3 23  1  0
  4 24  1  6
  5 25  1  0
  5 26  1  0
  6 27  1  0
  6 28  1  0
  8 29  1  0
  9 30  1  0
 11 31  1  0
 11 32  1  0
 15 33  1  0
 17 34  1  0
 19 35  1  0
M  ISO  8  21  13  22  13  23  13  24  13  25  13  26  13  27  13  28  13
M  ISO  5  29  14  30  14  33  14  34  14  35  14
M  END
>  <minimizedAffinity>  (1) 
-5.63350153

>  <minimizedRMSD>  (1) 
0.804216743

$$$$
