
     RDKit          3D

 31 33  0  0  1  0  0  0  0  0999 V2000
   46.2330   33.5290   45.6940 C   0  0  2  0  0  0  0  0  0  0  0  0
   45.0650   34.4830   45.8210 C   0  0  0  0  0  0  0  0  0  0  0  0
   44.7850   35.3100   44.6680 C   0  0  0  0  0  0  0  0  0  0  0  0
   45.5950   35.2180   43.4540 C   0  0  1  0  0  0  0  0  0  0  0  0
   46.7340   34.2710   43.4700 C   0  0  0  0  0  0  0  0  0  0  0  0
   46.3830   33.0600   44.2810 C   0  0  0  0  0  0  0  0  0  0  0  0
   45.2710   32.6570   47.7930 C   0  0  0  0  0  0  0  0  0  0  0  0
   46.0790   32.4300   46.6780 C   0  0  0  0  0  0  0  0  0  0  0  0
   46.7280   31.1710   46.5380 C   0  0  0  0  0  0  0  0  0  0  0  0
   46.5260   30.2500   47.5050 N   0  0  0  0  0  0  0  0  0  0  0  0
   45.7350   30.4940   48.5790 C   0  0  0  0  0  0  0  0  0  0  0  0
   45.1130   31.6870   48.7240 N   0  0  0  0  0  0  0  0  0  0  0  0
   44.7180   35.0220   42.3160 N   0  0  0  0  0  0  0  0  0  0  0  0
   43.4400   35.4050   42.3480 N   0  0  0  0  0  0  0  0  0  0  0  0
   42.8280   35.1310   41.2040 C   0  0  0  0  0  0  0  0  0  0  0  0
   43.7390   34.5330   40.3580 C   0  0  0  0  0  0  0  0  0  0  0  0
   44.9010   34.4870   41.0940 C   0  0  0  0  0  0  0  0  0  0  0  0
   47.1750   34.0442   45.9333 H   0  0  0  0  0  0  0  0  0  0  0  0
   44.4625   34.5440   46.7393 H   0  0  0  0  0  0  0  0  0  0  0  0
   43.9470   36.0216   44.7050 H   0  0  0  0  0  0  0  0  0  0  0  0
   46.1223   36.1804   43.3780 H   0  0  0  0  0  0  0  0  0  0  0  0
   46.9672   33.9643   42.4397 H   0  0  0  0  0  0  0  0  0  0  0  0
   47.6081   34.7653   43.9191 H   0  0  0  0  0  0  0  0  0  0  0  0
   45.4395   32.6223   43.9229 H   0  0  0  0  0  0  0  0  0  0  0  0
   47.1589   32.2847   44.1976 H   0  0  0  0  0  0  0  0  0  0  0  0
   44.7623   33.6246   47.9154 H   0  0  0  0  0  0  0  0  0  0  0  0
   47.3717   30.9556   45.6724 H   0  0  0  0  0  0  0  0  0  0  0  0
   45.5973   29.7130   49.3413 H   0  0  0  0  0  0  0  0  0  0  0  0
   41.7746   35.3440   40.9697 H   0  0  0  0  0  0  0  0  0  0  0  0
   43.5744   34.1751   39.3310 H   0  0  0  0  0  0  0  0  0  0  0  0
   45.8521   34.0691   40.7323 H   0  0  0  0  0  0  0  0  0  0  0  0
  1  2  1  0
  1  8  1  0
  3  2  2  0
  4  5  1  0
  4  3  1  0
  5  6  1  0
  6  1  1  0
  7 12  2  0
  8  7  1  0
  9  8  2  0
  9 10  1  0
 10 11  2  0
 11 12  1  0
 13 14  1  0
 13  4  1  0
 15 14  2  0
 16 17  2  0
 16 15  1  0
 17 13  1  0
  1 18  1  1
  2 19  1  0
  3 20  1  0
  4 21  1  6
  5 22  1  0
  5 23  1  0
  6 24  1  0
  6 25  1  0
  7 26  1  0
  9 27  1  0
 11 28  1  0
 15 29  1  0
 16 30  1  0
 17 31  1  0
M  ISO  8  18  13  19  13  20  13  21  13  22  13  23  13  24  13  25  13
M  ISO  6  26  14  27  14  28  14  29  14  30  14  31  14
M  END
>  <minimizedAffinity>  (1) 
-5.11967516

>  <minimizedRMSD>  (1) 
0.796431363

$$$$
