
     RDKit          3D

 30 32  0  0  1  0  0  0  0  0999 V2000
   46.1700   33.7130   45.5030 C   0  0  2  0  0  0  0  0  0  0  0  0
   45.0080   34.6710   45.6220 C   0  0  0  0  0  0  0  0  0  0  0  0
   44.6770   35.4990   44.4670 C   0  0  0  0  0  0  0  0  0  0  0  0
   45.4580   35.3750   43.2450 C   0  0  1  0  0  0  0  0  0  0  0  0
   46.6430   34.5080   43.2880 C   0  0  0  0  0  0  0  0  0  0  0  0
   46.3630   33.2730   44.0870 C   0  0  0  0  0  0  0  0  0  0  0  0
   45.2560   32.8160   47.6260 C   0  0  0  0  0  0  0  0  0  0  0  0
   45.9860   32.6060   46.4580 C   0  0  0  0  0  0  0  0  0  0  0  0
   46.5380   31.3130   46.2390 C   0  0  0  0  0  0  0  0  0  0  0  0
   46.3320   30.3490   47.1680 N   0  0  0  0  0  0  0  0  0  0  0  0
   45.6140   30.5950   48.2920 C   0  0  0  0  0  0  0  0  0  0  0  0
   45.0850   31.8120   48.5160 N   0  0  0  0  0  0  0  0  0  0  0  0
   44.5350   35.0390   42.0960 C   0  0  0  0  0  0  0  0  0  0  0  0
   44.8860   34.3550   40.8780 C   0  0  0  0  0  0  0  0  0  0  0  0
   43.3350   34.3100   40.0080 S   0  0  0  0  0  0  0  0  0  0  0  0
   42.4180   35.2220   41.4090 C   0  0  0  0  0  0  0  0  0  0  0  0
   43.2520   35.4080   42.2060 N   0  0  0  0  0  0  0  0  0  0  0  0
   47.1091   34.2180   45.7732 H   0  0  0  0  0  0  0  0  0  0  0  0
   44.4275   34.7424   46.5536 H   0  0  0  0  0  0  0  0  0  0  0  0
   43.8418   36.2130   44.5195 H   0  0  0  0  0  0  0  0  0  0  0  0
   45.9201   36.3622   43.0974 H   0  0  0  0  0  0  0  0  0  0  0  0
   46.9182   34.2206   42.2625 H   0  0  0  0  0  0  0  0  0  0  0  0
   47.4684   35.0585   43.7631 H   0  0  0  0  0  0  0  0  0  0  0  0
   45.4527   32.7794   43.7158 H   0  0  0  0  0  0  0  0  0  0  0  0
   47.1902   32.5525   44.0054 H   0  0  0  0  0  0  0  0  0  0  0  0
   44.8161   33.8043   47.8255 H   0  0  0  0  0  0  0  0  0  0  0  0
   47.1217   31.1000   45.3313 H   0  0  0  0  0  0  0  0  0  0  0  0
   45.4625   29.7916   49.0280 H   0  0  0  0  0  0  0  0  0  0  0  0
   45.8642   33.9608   40.5653 H   0  0  0  0  0  0  0  0  0  0  0  0
   41.3562   35.5056   41.4558 H   0  0  0  0  0  0  0  0  0  0  0  0
  1  2  1  0
  1  8  1  0
  3  2  2  0
  4  5  1  0
  4  3  1  0
  5  6  1  0
  6  1  1  0
  7 12  2  0
  8  7  1  0
  9  8  2  0
  9 10  1  0
 10 11  2  0
 11 12  1  0
 13 17  1  0
 13  4  1  0
 14 13  2  0
 15 14  1  0
 15 16  1  0
 16 17  2  0
  1 18  1  1
  2 19  1  0
  3 20  1  0
  4 21  1  6
  5 22  1  0
  5 23  1  0
  6 24  1  0
  6 25  1  0
  7 26  1  0
  9 27  1  0
 11 28  1  0
 14 29  1  0
 16 30  1  0
M  ISO  8  18  13  19  13  20  13  21  13  22  13  23  13  24  13  25  13
M  ISO  5  26  14  27  14  28  14  29  14  30  14
M  END
>  <minimizedAffinity>  (1) 
-5.17049599

>  <minimizedRMSD>  (1) 
0.715218604

$$$$
