
     RDKit          3D

 28 29  0  0  1  0  0  0  0  0999 V2000
   46.1410   33.7200   45.4060 C   0  0  2  0  0  0  0  0  0  0  0  0
   44.9760   34.6920   45.5200 C   0  0  0  0  0  0  0  0  0  0  0  0
   44.7150   35.5490   44.3880 C   0  0  0  0  0  0  0  0  0  0  0  0
   45.5380   35.4730   43.1960 C   0  0  1  0  0  0  0  0  0  0  0  0
   46.6910   34.5470   43.2210 C   0  0  0  0  0  0  0  0  0  0  0  0
   46.3300   33.3080   43.9900 C   0  0  0  0  0  0  0  0  0  0  0  0
   45.2700   32.8830   47.5410 C   0  0  0  0  0  0  0  0  0  0  0  0
   45.9620   32.6470   46.3690 C   0  0  0  0  0  0  0  0  0  0  0  0
   46.4680   31.3550   46.1910 C   0  0  0  0  0  0  0  0  0  0  0  0
   46.2850   30.3920   47.1220 N   0  0  0  0  0  0  0  0  0  0  0  0
   45.5940   30.6640   48.2690 C   0  0  0  0  0  0  0  0  0  0  0  0
   45.0890   31.9100   48.4720 N   0  0  0  0  0  0  0  0  0  0  0  0
   45.3950   29.6890   49.2360 O   0  0  0  0  0  0  0  0  0  0  0  0
   44.6250   35.1210   42.0150 C   0  0  0  0  0  0  0  0  0  0  0  0
   43.6610   34.1900   42.3440 F   0  0  0  0  0  0  0  0  0  0  0  0
   43.9200   36.2880   41.6730 F   0  0  0  0  0  0  0  0  0  0  0  0
   45.3690   34.7510   40.9190 F   0  0  0  0  0  0  0  0  0  0  0  0
   47.0970   34.1929   45.6753 H   0  0  0  0  0  0  0  0  0  0  0  0
   44.3575   34.7398   46.4284 H   0  0  0  0  0  0  0  0  0  0  0  0
   43.8830   36.2674   44.4298 H   0  0  0  0  0  0  0  0  0  0  0  0
   46.0102   36.4629   43.1114 H   0  0  0  0  0  0  0  0  0  0  0  0
   46.9613   34.2720   42.1908 H   0  0  0  0  0  0  0  0  0  0  0  0
   47.5445   35.0416   43.7078 H   0  0  0  0  0  0  0  0  0  0  0  0
   45.3995   32.8746   43.5945 H   0  0  0  0  0  0  0  0  0  0  0  0
   47.1186   32.5461   43.9029 H   0  0  0  0  0  0  0  0  0  0  0  0
   44.8547   33.8847   47.7254 H   0  0  0  0  0  0  0  0  0  0  0  0
   47.0268   31.1175   45.2738 H   0  0  0  0  0  0  0  0  0  0  0  0
   44.8916   29.9051   50.0606 H   0  0  0  0  0  0  0  0  0  0  0  0
  1  2  1  0
  1  8  1  0
  3  2  2  0
  4  5  1  0
  4  3  1  0
  5  6  1  0
  6  1  1  0
  7 12  2  0
  8  7  1  0
  9  8  2  0
  9 10  1  0
 10 11  2  0
 11 12  1  0
 11 13  1  0
 14 15  1  0
 14  4  1  0
 16 14  1  0
 17 14  1  0
  1 18  1  1
  2 19  1  0
  3 20  1  0
  4 21  1  6
  5 22  1  0
  5 23  1  0
  6 24  1  0
  6 25  1  0
  7 26  1  0
  9 27  1  0
 13 28  1  0
M  ISO  8  18  13  19  13  20  13  21  13  22  13  23  13  24  13  25  13
M  ISO  3  26  14  27  14  28   3
M  END
>  <minimizedAffinity>  (1) 
-5.54397345

>  <minimizedRMSD>  (1) 
0.0340595506

$$$$
