
     RDKit          3D

 37 39  0  0  1  0  0  0  0  0999 V2000
   46.7280   33.6930   44.4790 C   0  0  2  0  0  0  0  0  0  0  0  0
   45.3890   34.2040   44.9830 C   0  0  0  0  0  0  0  0  0  0  0  0
   44.6820   35.1400   44.1400 C   0  0  0  0  0  0  0  0  0  0  0  0
   45.2390   35.5620   42.8690 C   0  0  1  0  0  0  0  0  0  0  0  0
   46.5920   35.0680   42.5200 C   0  0  0  0  0  0  0  0  0  0  0  0
   46.7510   33.6520   42.9930 C   0  0  0  0  0  0  0  0  0  0  0  0
   47.0190   32.3840   46.5410 C   0  0  0  0  0  0  0  0  0  0  0  0
   47.0570   32.4520   45.1600 C   0  0  0  0  0  0  0  0  0  0  0  0
   47.4330   31.2850   44.4850 C   0  0  0  0  0  0  0  0  0  0  0  0
   47.7360   30.1680   45.1720 N   0  0  0  0  0  0  0  0  0  0  0  0
   47.6910   30.1280   46.5350 C   0  0  0  0  0  0  0  0  0  0  0  0
   47.3260   31.2570   47.2050 N   0  0  0  0  0  0  0  0  0  0  0  0
   48.0210   28.9200   47.2080 N   0  0  0  0  0  0  0  0  0  0  0  0
   47.5030   27.7430   46.8160 C   0  0  0  0  0  0  0  0  0  0  0  0
   47.8070   26.5380   47.4550 C   0  0  0  0  0  0  0  0  0  0  0  0
   48.6820   26.6940   48.5100 C   0  0  0  0  0  0  0  0  0  0  0  0
   49.0070   25.6340   49.1440 O   0  0  0  0  0  0  0  0  0  0  0  0
   49.2250   27.8480   48.9390 N   0  0  0  0  0  0  0  0  0  0  0  0
   48.8700   28.9740   48.2530 C   0  0  0  0  0  0  0  0  0  0  0  0
   49.3990   30.0340   48.6840 O   0  0  0  0  0  0  0  0  0  0  0  0
   44.2420   35.1780   41.7670 C   0  0  0  0  0  0  0  0  0  0  0  0
   43.3200   34.2440   42.1840 F   0  0  0  0  0  0  0  0  0  0  0  0
   43.5070   36.3270   41.4520 F   0  0  0  0  0  0  0  0  0  0  0  0
   44.9150   34.8010   40.6230 F   0  0  0  0  0  0  0  0  0  0  0  0
   47.5426   34.3874   44.7327 H   0  0  0  0  0  0  0  0  0  0  0  0
   44.9758   33.8755   45.9480 H   0  0  0  0  0  0  0  0  0  0  0  0
   43.7095   35.5375   44.4659 H   0  0  0  0  0  0  0  0  0  0  0  0
   45.3888   36.6475   42.9648 H   0  0  0  0  0  0  0  0  0  0  0  0
   46.7250   35.1061   41.4287 H   0  0  0  0  0  0  0  0  0  0  0  0
   47.3480   35.7018   43.0065 H   0  0  0  0  0  0  0  0  0  0  0  0
   45.9235   33.0318   42.6180 H   0  0  0  0  0  0  0  0  0  0  0  0
   47.6903   33.2145   42.6237 H   0  0  0  0  0  0  0  0  0  0  0  0
   46.7291   33.2783   47.1121 H   0  0  0  0  0  0  0  0  0  0  0  0
   47.4812   31.2807   43.3861 H   0  0  0  0  0  0  0  0  0  0  0  0
   46.8133   27.7279   45.9592 H   0  0  0  0  0  0  0  0  0  0  0  0
   47.3919   25.5665   47.1487 H   0  0  0  0  0  0  0  0  0  0  0  0
   49.8720   27.8802   49.7398 H   0  0  0  0  0  0  0  0  0  0  0  0
  1  2  1  0
  1  8  1  0
  3  2  2  0
  4  3  1  0
  5  4  1  0
  5  6  1  0
  6  1  1  0
  7 12  2  0
  8  7  1  0
  9  8  2  0
  9 10  1  0
 10 11  2  0
 11 12  1  0
 11 13  1  0
 13 19  1  0
 14 13  1  0
 14 15  2  0
 15 16  1  0
 16 18  1  0
 16 17  2  0
 19 20  2  0
 19 18  1  0
 21 22  1  0
 21  4  1  0
 23 21  1  0
 24 21  1  0
  1 25  1  1
  2 26  1  0
  3 27  1  0
  4 28  1  1
  5 29  1  0
  5 30  1  0
  6 31  1  0
  6 32  1  0
  7 33  1  0
  9 34  1  0
 14 35  1  0
 15 36  1  0
 18 37  1  0
M  ISO  8  25  13  26  13  27  13  28  13  29  13  30  13  31  13  32  13
M  ISO  5  33  14  34  14  35  14  36  14  37   9
M  END
>  <minimizedAffinity>  (1) 
-5.74897194

>  <minimizedRMSD>  (1) 
2.65920925

$$$$
