
     RDKit          3D

 37 40  0  0  0  0  0  0  0  0999 V2000
   44.9620   33.9560   42.2490 C   0  0  0  0  0  0  0  0  0  0  0  0
   43.7880   33.9770   41.3710 C   0  0  0  0  0  0  0  0  0  0  0  0
   43.0630   35.3080   41.5770 C   0  0  0  0  0  0  0  0  0  0  0  0
   43.8730   36.0890   42.5640 C   0  0  0  0  0  0  0  0  0  0  0  0
   44.6810   35.0450   43.2950 C   0  0  0  0  0  0  0  0  0  0  0  0
   45.1730   32.6490   42.8930 N   0  0  0  0  0  0  0  0  0  0  0  0
   44.8650   31.4290   42.3570 C   0  0  0  0  0  0  0  0  0  0  0  0
   45.1690   30.4340   43.1720 N   0  0  0  0  0  0  0  0  0  0  0  0
   45.6900   30.9890   44.2750 C   0  0  0  0  0  0  0  0  0  0  0  0
   46.1670   30.3930   45.4260 C   0  0  0  0  0  0  0  0  0  0  0  0
   46.1410   29.1370   45.5320 O   0  0  0  0  0  0  0  0  0  0  0  0
   46.6410   31.2150   46.3900 N   0  0  0  0  0  0  0  0  0  0  0  0
   46.6350   32.5470   46.2040 C   0  0  0  0  0  0  0  0  0  0  0  0
   47.1760   33.2570   47.3290 N   0  0  0  0  0  0  0  0  0  0  0  0
   46.1620   33.0870   45.0680 N   0  0  0  0  0  0  0  0  0  0  0  0
   45.6830   32.3390   44.0820 C   0  0  0  0  0  0  0  0  0  0  0  0
   46.2620   34.3100   41.6620 C   0  0  0  0  0  0  0  0  0  0  0  0
   46.5480   33.8980   40.3540 C   0  0  0  0  0  0  0  0  0  0  0  0
   47.7880   34.2210   39.7810 C   0  0  0  0  0  0  0  0  0  0  0  0
   48.6610   34.9310   40.5490 N   0  0  0  0  0  0  0  0  0  0  0  0
   48.3550   35.3170   41.8150 C   0  0  0  0  0  0  0  0  0  0  0  0
   47.1640   35.0060   42.3620 N   0  0  0  0  0  0  0  0  0  0  0  0
   43.1169   33.1437   41.6262 H   0  0  0  0  0  0  0  0  0  0  0  0
   44.0963   33.8701   40.3205 H   0  0  0  0  0  0  0  0  0  0  0  0
   42.9954   35.8545   40.6248 H   0  0  0  0  0  0  0  0  0  0  0  0
   42.0381   35.1485   41.9434 H   0  0  0  0  0  0  0  0  0  0  0  0
   44.5333   36.8019   42.0485 H   0  0  0  0  0  0  0  0  0  0  0  0
   43.2459   36.6855   43.2429 H   0  0  0  0  0  0  0  0  0  0  0  0
   44.1074   34.6325   44.1381 H   0  0  0  0  0  0  0  0  0  0  0  0
   45.6074   35.4607   43.7179 H   0  0  0  0  0  0  0  0  0  0  0  0
   44.4160   31.2918   41.3622 H   0  0  0  0  0  0  0  0  0  0  0  0
   47.0072   30.8202   47.2680 H   0  0  0  0  0  0  0  0  0  0  0  0
   47.2278   34.2856   47.3124 H   0  0  0  0  0  0  0  0  0  0  0  0
   47.5122   32.7377   48.1525 H   0  0  0  0  0  0  0  0  0  0  0  0
   45.8054   33.3249   39.7795 H   0  0  0  0  0  0  0  0  0  0  0  0
   48.0438   33.9141   38.7561 H   0  0  0  0  0  0  0  0  0  0  0  0
   49.0887   35.8905   42.4005 H   0  0  0  0  0  0  0  0  0  0  0  0
  1  6  1  0
  1  5  1  0
  2  3  1  0
  2  1  1  0
  3  4  1  0
  4  5  1  0
  6 16  1  0
  7  6  1  0
  7  8  2  0
  8  9  1  0
  9 10  1  0
 10 11  2  0
 10 12  1  0
 13 12  1  0
 13 14  1  0
 15 13  2  0
 16  9  2  0
 16 15  1  0
 17  1  1  0
 17 22  1  0
 18 17  2  0
 19 18  1  0
 19 20  2  0
 20 21  1  0
 21 22  2  0
  2 23  1  0
  2 24  1  0
  3 25  1  0
  3 26  1  0
  4 27  1  0
  4 28  1  0
  5 29  1  0
  5 30  1  0
  7 31  1  0
 12 32  1  0
 14 33  1  0
 14 34  1  0
 18 35  1  0
 19 36  1  0
 21 37  1  0
M  ISO  8  23  13  24  13  25  13  26  13  27  13  28  13  29  13  30  13
M  ISO  5  31  14  32   9  35  14  36  14  37  14
M  END
>  <minimizedAffinity>  (1) 
-5.28439426

>  <minimizedRMSD>  (1) 
6.0670228

$$$$
