
     RDKit          3D

 41 44  0  0  1  0  0  0  0  0999 V2000
   45.9260   30.9330   46.6820 C   0  0  0  0  0  0  0  0  0  0  0  0
   46.3460   31.0780   45.3760 C   0  0  0  0  0  0  0  0  0  0  0  0
   46.5400   29.9050   44.6630 C   0  0  0  0  0  0  0  0  0  0  0  0
   46.3230   28.7060   45.2360 N   0  0  0  0  0  0  0  0  0  0  0  0
   45.9170   28.5740   46.4990 C   0  0  0  0  0  0  0  0  0  0  0  0
   45.7250   29.6930   47.2030 N   0  0  0  0  0  0  0  0  0  0  0  0
   46.5740   32.4030   44.8250 C   0  0  2  0  0  0  0  0  0  0  0  0
   45.5610   33.3740   45.4140 C   0  0  0  0  0  0  0  0  0  0  0  0
   45.3420   34.6010   44.6860 C   0  0  0  0  0  0  0  0  0  0  0  0
   46.0640   34.8700   43.4450 C   0  0  1  0  0  0  0  0  0  0  0  0
   47.0710   33.8930   43.0160 C   0  0  0  0  0  0  0  0  0  0  0  0
   46.6080   32.5050   43.3420 C   0  0  0  0  0  0  0  0  0  0  0  0
   45.0170   35.0620   42.3410 C   0  0  0  0  0  0  0  0  0  0  0  0
   43.8960   34.2820   42.5260 F   0  0  0  0  0  0  0  0  0  0  0  0
   44.5870   36.3890   42.3960 F   0  0  0  0  0  0  0  0  0  0  0  0
   45.6080   34.8690   41.0950 F   0  0  0  0  0  0  0  0  0  0  0  0
   45.6200   27.3900   47.3150 C   0  0  0  0  0  0  0  0  0  0  0  0
   44.3800   26.9390   47.5860 N   0  0  0  0  0  0  0  0  0  0  0  0
   44.0980   25.8750   48.3170 C   0  0  0  0  0  0  0  0  0  0  0  0
   45.0690   25.1280   48.8710 N   0  0  0  0  0  0  0  0  0  0  0  0
   46.3680   25.4900   48.6630 C   0  0  0  0  0  0  0  0  0  0  0  0
   47.3460   24.7130   49.2370 C   0  0  0  0  0  0  0  0  0  0  0  0
   48.6710   25.0440   49.0520 C   0  0  0  0  0  0  0  0  0  0  0  0
   48.9590   26.1680   48.2790 C   0  0  0  0  0  0  0  0  0  0  0  0
   47.9220   26.8950   47.7370 C   0  0  0  0  0  0  0  0  0  0  0  0
   46.5880   26.6040   47.8950 C   0  0  0  0  0  0  0  0  0  0  0  0
   45.7531   31.8235   47.3042 H   0  0  0  0  0  0  0  0  0  0  0  0
   46.8753   29.9544   43.6165 H   0  0  0  0  0  0  0  0  0  0  0  0
   47.6000   32.6663   45.1215 H   0  0  0  0  0  0  0  0  0  0  0  0
   45.0229   33.1520   46.3474 H   0  0  0  0  0  0  0  0  0  0  0  0
   44.6242   35.3410   45.0696 H   0  0  0  0  0  0  0  0  0  0  0  0
   46.6702   35.7656   43.6460 H   0  0  0  0  0  0  0  0  0  0  0  0
   48.0186   34.0932   43.5376 H   0  0  0  0  0  0  0  0  0  0  0  0
   47.2187   33.9792   41.9294 H   0  0  0  0  0  0  0  0  0  0  0  0
   45.6039   32.3331   42.9271 H   0  0  0  0  0  0  0  0  0  0  0  0
   47.2820   31.7512   42.9090 H   0  0  0  0  0  0  0  0  0  0  0  0
   43.0463   25.5944   48.4757 H   0  0  0  0  0  0  0  0  0  0  0  0
   47.0732   23.8339   49.8393 H   0  0  0  0  0  0  0  0  0  0  0  0
   49.4749   24.4412   49.4995 H   0  0  0  0  0  0  0  0  0  0  0  0
   50.0019   26.4707   48.1040 H   0  0  0  0  0  0  0  0  0  0  0  0
   48.1814   27.7759   47.1314 H   0  0  0  0  0  0  0  0  0  0  0  0
  1  6  2  0
  2  1  1  0
  3  4  1  0
  3  2  2  0
  4  5  2  0
  5  6  1  0
  5 17  1  0
  7  2  1  0
  7  8  1  0
  9  8  2  0
 10  9  1  0
 11 12  1  0
 11 10  1  0
 12  7  1  0
 13 15  1  0
 13 14  1  0
 13 10  1  0
 16 13  1  0
 17 18  2  0
 17 26  1  0
 18 19  1  0
 19 20  2  0
 21 20  1  0
 21 22  2  0
 23 22  1  0
 24 23  2  0
 25 26  2  0
 25 24  1  0
 26 21  1  0
  1 27  1  0
  3 28  1  0
  7 29  1  1
  8 30  1  0
  9 31  1  0
 10 32  1  1
 11 33  1  0
 11 34  1  0
 12 35  1  0
 12 36  1  0
 19 37  1  0
 22 38  1  0
 23 39  1  0
 24 40  1  0
 25 41  1  0
M  ISO  8  27  14  28  14  29  13  30  13  31  13  32  13  33  13  34  13
M  ISO  7  35  13  36  13  37  14  38  14  39  14  40  14  41  14
M  END
>  <minimizedAffinity>  (1) 
-5.13255358

>  <minimizedRMSD>  (1) 
2.81535268

$$$$
