
     RDKit          3D

 36 38  0  0  1  0  0  0  0  0999 V2000
   46.6440   32.7180   45.0180 C   0  0  2  0  0  0  0  0  0  0  0  0
   45.5160   33.6200   45.4920 C   0  0  0  0  0  0  0  0  0  0  0  0
   45.2160   34.7780   44.6840 C   0  0  0  0  0  0  0  0  0  0  0  0
   45.9680   35.0570   43.4750 C   0  0  1  0  0  0  0  0  0  0  0  0
   47.0810   34.1490   43.1450 C   0  0  0  0  0  0  0  0  0  0  0  0
   46.7440   32.7380   43.5330 C   0  0  0  0  0  0  0  0  0  0  0  0
   45.7850   31.2670   46.8090 C   0  0  0  0  0  0  0  0  0  0  0  0
   46.5000   31.4110   45.6350 C   0  0  0  0  0  0  0  0  0  0  0  0
   47.0700   30.2500   45.1020 C   0  0  0  0  0  0  0  0  0  0  0  0
   46.9150   29.0650   45.7210 N   0  0  0  0  0  0  0  0  0  0  0  0
   46.2020   28.9530   46.8810 C   0  0  0  0  0  0  0  0  0  0  0  0
   45.6420   30.0760   47.4100 N   0  0  0  0  0  0  0  0  0  0  0  0
   46.0260   27.6750   47.5640 C   0  0  0  0  0  0  0  0  0  0  0  0
   44.7750   27.4240   48.1220 C   0  0  0  0  0  0  0  0  0  0  0  0
   44.5280   26.2360   48.7860 C   0  0  0  0  0  0  0  0  0  0  0  0
   45.5790   25.3420   48.8540 C   0  0  0  0  0  0  0  0  0  0  0  0
   46.8360   25.5810   48.3000 C   0  0  0  0  0  0  0  0  0  0  0  0
   47.0190   26.7660   47.6590 N   0  0  0  0  0  0  0  0  0  0  0  0
   44.9740   35.0830   42.3050 C   0  0  0  0  0  0  0  0  0  0  0  0
   43.8990   34.2450   42.4990 F   0  0  0  0  0  0  0  0  0  0  0  0
   44.4420   36.3790   42.2330 F   0  0  0  0  0  0  0  0  0  0  0  0
   45.6350   34.8420   41.1160 F   0  0  0  0  0  0  0  0  0  0  0  0
   47.6251   33.0894   45.3489 H   0  0  0  0  0  0  0  0  0  0  0  0
   44.9528   33.3999   46.4109 H   0  0  0  0  0  0  0  0  0  0  0  0
   44.4067   35.4578   44.9889 H   0  0  0  0  0  0  0  0  0  0  0  0
   46.4672   36.0195   43.6606 H   0  0  0  0  0  0  0  0  0  0  0  0
   47.2727   34.1904   42.0626 H   0  0  0  0  0  0  0  0  0  0  0  0
   47.9749   34.4663   43.7019 H   0  0  0  0  0  0  0  0  0  0  0  0
   45.7852   32.4395   43.0839 H   0  0  0  0  0  0  0  0  0  0  0  0
   47.5113   32.0346   43.1774 H   0  0  0  0  0  0  0  0  0  0  0  0
   45.3199   32.1542   47.2636 H   0  0  0  0  0  0  0  0  0  0  0  0
   47.6499   30.3061   44.1689 H   0  0  0  0  0  0  0  0  0  0  0  0
   43.9772   28.1762   48.0340 H   0  0  0  0  0  0  0  0  0  0  0  0
   43.5485   26.0152   49.2352 H   0  0  0  0  0  0  0  0  0  0  0  0
   45.4148   24.3872   49.3749 H   0  0  0  0  0  0  0  0  0  0  0  0
   47.6463   24.8412   48.3783 H   0  0  0  0  0  0  0  0  0  0  0  0
  1  2  1  0
  1  8  1  0
  3  2  2  0
  4  3  1  0
  5  4  1  0
  5  6  1  0
  6  1  1  0
  7 12  2  0
  8  7  1  0
  9  8  2  0
  9 10  1  0
 10 11  2  0
 11 12  1  0
 11 13  1  0
 13 18  1  0
 13 14  2  0
 14 15  1  0
 15 16  2  0
 17 16  1  0
 18 17  2  0
 19 20  1  0
 19  4  1  0
 21 19  1  0
 22 19  1  0
  1 23  1  1
  2 24  1  0
  3 25  1  0
  4 26  1  1
  5 27  1  0
  5 28  1  0
  6 29  1  0
  6 30  1  0
  7 31  1  0
  9 32  1  0
 14 33  1  0
 15 34  1  0
 16 35  1  0
 17 36  1  0
M  ISO  8  23  13  24  13  25  13  26  13  27  13  28  13  29  13  30  13
M  ISO  6  31  14  32  14  33  14  34  14  35  14  36  14
M  END
>  <minimizedAffinity>  (1) 
-4.99432516

>  <minimizedRMSD>  (1) 
2.09432864

$$$$
