
     RDKit          3D

 41 43  0  0  1  0  0  0  0  0999 V2000
   46.3720   33.7560   44.5990 C   0  0  2  0  0  0  0  0  0  0  0  0
   45.1740   34.5270   45.1000 C   0  0  0  0  0  0  0  0  0  0  0  0
   44.6470   35.5530   44.2300 C   0  0  0  0  0  0  0  0  0  0  0  0
   45.2470   35.8240   42.9380 C   0  0  1  0  0  0  0  0  0  0  0  0
   46.4660   35.0630   42.5840 C   0  0  0  0  0  0  0  0  0  0  0  0
   46.3740   33.6620   43.1150 C   0  0  0  0  0  0  0  0  0  0  0  0
   45.7360   32.3080   46.4670 C   0  0  0  0  0  0  0  0  0  0  0  0
   46.4820   32.4970   45.3190 C   0  0  0  0  0  0  0  0  0  0  0  0
   47.3150   31.4460   44.9310 C   0  0  0  0  0  0  0  0  0  0  0  0
   47.3750   30.3130   45.6530 N   0  0  0  0  0  0  0  0  0  0  0  0
   46.6310   30.1510   46.7810 C   0  0  0  0  0  0  0  0  0  0  0  0
   45.8230   31.1470   47.1740 N   0  0  0  0  0  0  0  0  0  0  0  0
   46.6870   28.9580   47.5510 N   0  0  0  0  0  0  0  0  0  0  0  0
   47.8800   28.1280   47.6370 C   0  0  0  0  0  0  0  0  0  0  0  0
   47.5830   26.6740   47.5880 C   0  0  0  0  0  0  0  0  0  0  0  0
   46.3480   26.2970   48.2160 N   0  0  0  0  0  0  0  0  0  0  0  0
   45.2320   27.1010   47.8630 C   0  0  0  0  0  0  0  0  0  0  0  0
   45.4890   28.5440   48.2930 C   0  0  0  0  0  0  0  0  0  0  0  0
   44.1790   35.5980   41.8630 C   0  0  0  0  0  0  0  0  0  0  0  0
   43.0730   34.9260   42.3430 F   0  0  0  0  0  0  0  0  0  0  0  0
   43.7290   36.8610   41.4620 F   0  0  0  0  0  0  0  0  0  0  0  0
   44.7310   35.0010   40.7520 F   0  0  0  0  0  0  0  0  0  0  0  0
   47.3023   34.2992   44.8214 H   0  0  0  0  0  0  0  0  0  0  0  0
   44.7237   34.3172   46.0814 H   0  0  0  0  0  0  0  0  0  0  0  0
   43.7745   36.1394   44.5537 H   0  0  0  0  0  0  0  0  0  0  0  0
   45.5991   36.8643   42.9991 H   0  0  0  0  0  0  0  0  0  0  0  0
   46.5693   35.0308   41.4893 H   0  0  0  0  0  0  0  0  0  0  0  0
   47.3411   35.5591   43.0290 H   0  0  0  0  0  0  0  0  0  0  0  0
   45.4456   33.1864   42.7658 H   0  0  0  0  0  0  0  0  0  0  0  0
   47.2198   33.0534   42.7624 H   0  0  0  0  0  0  0  0  0  0  0  0
   45.0630   33.1058   46.8144 H   0  0  0  0  0  0  0  0  0  0  0  0
   47.9295   31.5458   44.0241 H   0  0  0  0  0  0  0  0  0  0  0  0
   48.5422   28.3786   46.7951 H   0  0  0  0  0  0  0  0  0  0  0  0
   48.3531   28.3335   48.6086 H   0  0  0  0  0  0  0  0  0  0  0  0
   47.5392   26.3677   46.5324 H   0  0  0  0  0  0  0  0  0  0  0  0
   48.3851   26.1718   48.1487 H   0  0  0  0  0  0  0  0  0  0  0  0
   46.1382   25.3237   47.9522 H   0  0  0  0  0  0  0  0  0  0  0  0
   45.0829   27.0638   46.7738 H   0  0  0  0  0  0  0  0  0  0  0  0
   44.3318   26.7220   48.3689 H   0  0  0  0  0  0  0  0  0  0  0  0
   45.6686   28.5976   49.3769 H   0  0  0  0  0  0  0  0  0  0  0  0
   44.6284   29.1959   48.0821 H   0  0  0  0  0  0  0  0  0  0  0  0
  1  2  1  0
  1  8  1  0
  3  2  2  0
  4  3  1  0
  5  4  1  0
  5  6  1  0
  6  1  1  0
  7 12  2  0
  8  7  1  0
  9  8  2  0
  9 10  1  0
 10 11  2  0
 11 12  1  0
 11 13  1  0
 13 14  1  0
 13 18  1  0
 15 14  1  0
 15 16  1  0
 17 16  1  0
 17 18  1  0
 19 20  1  0
 19  4  1  0
 21 19  1  0
 22 19  1  0
  1 23  1  6
  2 24  1  0
  3 25  1  0
  4 26  1  1
  5 27  1  0
  5 28  1  0
  6 29  1  0
  6 30  1  0
  7 31  1  0
  9 32  1  0
 14 33  1  0
 14 34  1  0
 15 35  1  0
 15 36  1  0
 16 37  1  0
 17 38  1  0
 17 39  1  0
 18 40  1  0
 18 41  1  0
M  ISO  8  23  13  24  13  25  13  26  13  27  13  28  13  29  13  30  13
M  ISO  8  31  14  32  14  33  13  34  13  35  13  36  13  37   5  38  13
M  ISO  3  39  13  40  13  41  13
M  END
>  <minimizedAffinity>  (1) 
-5.05190992

>  <minimizedRMSD>  (1) 
1.705176

$$$$
