
     RDKit          3D

 39 40  0  0  1  0  0  0  0  0999 V2000
   46.7020   33.7550   44.3760 C   0  0  2  0  0  0  0  0  0  0  0  0
   45.3780   34.2560   44.9060 C   0  0  0  0  0  0  0  0  0  0  0  0
   44.6540   35.1810   44.0780 C   0  0  0  0  0  0  0  0  0  0  0  0
   45.1700   35.6130   42.7910 C   0  0  1  0  0  0  0  0  0  0  0  0
   46.5120   35.1240   42.4120 C   0  0  0  0  0  0  0  0  0  0  0  0
   46.7050   33.7130   42.8870 C   0  0  0  0  0  0  0  0  0  0  0  0
   46.9260   32.4360   46.4240 C   0  0  0  0  0  0  0  0  0  0  0  0
   47.0670   32.5200   45.0510 C   0  0  0  0  0  0  0  0  0  0  0  0
   47.5720   31.3980   44.3960 C   0  0  0  0  0  0  0  0  0  0  0  0
   47.9030   30.2920   45.0880 N   0  0  0  0  0  0  0  0  0  0  0  0
   47.7560   30.2300   46.4450 C   0  0  0  0  0  0  0  0  0  0  0  0
   47.2720   31.2990   47.0930 N   0  0  0  0  0  0  0  0  0  0  0  0
   48.1340   28.9900   47.1740 C   0  0  0  0  0  0  0  0  0  0  0  0
   46.8960   28.1660   47.4380 C   0  0  0  0  0  0  0  0  0  0  0  0
   49.0280   28.1070   46.2950 C   0  0  0  0  0  0  0  0  0  0  0  0
   48.9140   29.2430   48.4290 C   0  0  0  0  0  0  0  0  0  0  0  0
   44.1580   35.2030   41.7060 C   0  0  0  0  0  0  0  0  0  0  0  0
   43.2590   34.2660   42.1420 F   0  0  0  0  0  0  0  0  0  0  0  0
   43.3990   36.3450   41.4010 F   0  0  0  0  0  0  0  0  0  0  0  0
   44.8250   34.8320   40.5560 F   0  0  0  0  0  0  0  0  0  0  0  0
   47.5093   34.4628   44.6154 H   0  0  0  0  0  0  0  0  0  0  0  0
   44.9868   33.9278   45.8803 H   0  0  0  0  0  0  0  0  0  0  0  0
   43.6865   35.5709   44.4272 H   0  0  0  0  0  0  0  0  0  0  0  0
   45.2973   36.7018   42.8825 H   0  0  0  0  0  0  0  0  0  0  0  0
   46.6140   35.1556   41.3172 H   0  0  0  0  0  0  0  0  0  0  0  0
   47.2725   35.7665   42.8797 H   0  0  0  0  0  0  0  0  0  0  0  0
   45.8846   33.0761   42.5246 H   0  0  0  0  0  0  0  0  0  0  0  0
   47.6482   33.2943   42.5062 H   0  0  0  0  0  0  0  0  0  0  0  0
   46.5301   33.2965   46.9833 H   0  0  0  0  0  0  0  0  0  0  0  0
   47.7012   31.4166   43.3038 H   0  0  0  0  0  0  0  0  0  0  0  0
   46.7464   28.0664   48.5232 H   0  0  0  0  0  0  0  0  0  0  0  0
   46.0224   28.6634   46.9915 H   0  0  0  0  0  0  0  0  0  0  0  0
   47.0177   27.1681   46.9915 H   0  0  0  0  0  0  0  0  0  0  0  0
   49.6647   27.4781   46.9346 H   0  0  0  0  0  0  0  0  0  0  0  0
   48.3991   27.4657   45.6599 H   0  0  0  0  0  0  0  0  0  0  0  0
   49.6614   28.7437   45.6599 H   0  0  0  0  0  0  0  0  0  0  0  0
   48.2789   29.0370   49.3032 H   0  0  0  0  0  0  0  0  0  0  0  0
   49.7948   28.5845   48.4523 H   0  0  0  0  0  0  0  0  0  0  0  0
   49.2406   30.2931   48.4523 H   0  0  0  0  0  0  0  0  0  0  0  0
  1  2  1  0
  1  8  1  0
  3  2  2  0
  4  3  1  0
  5  4  1  0
  5  6  1  0
  6  1  1  0
  7 12  2  0
  8  7  1  0
  9  8  2  0
  9 10  1  0
 10 11  2  0
 11 12  1  0
 11 13  1  0
 13 14  1  0
 13 16  1  0
 15 13  1  0
 17 18  1  0
 17  4  1  0
 19 17  1  0
 20 17  1  0
  1 21  1  6
  2 22  1  0
  3 23  1  0
  4 24  1  1
  5 25  1  0
  5 26  1  0
  6 27  1  0
  6 28  1  0
  7 29  1  0
  9 30  1  0
 14 31  1  0
 14 32  1  0
 14 33  1  0
 15 34  1  0
 15 35  1  0
 15 36  1  0
 16 37  1  0
 16 38  1  0
 16 39  1  0
M  ISO  8  21  13  22  13  23  13  24  13  25  13  26  13  27  13  28  13
M  ISO  8  29  14  30  14  31   8  32   8  33   8  34   8  35   8  36   8
M  ISO  3  37   8  38   8  39   8
M  END
>  <minimizedAffinity>  (1) 
-4.73058033

>  <minimizedRMSD>  (1) 
2.1594007

$$$$
