
     RDKit          3D

 37 39  0  0  1  0  0  0  0  0999 V2000
   46.1310   33.6520   45.2250 C   0  0  2  0  0  0  0  0  0  0  0  0
   45.0420   34.7820   45.4630 C   0  0  0  0  0  0  0  0  0  0  0  0
   44.7820   35.6760   44.3640 C   0  0  0  0  0  0  0  0  0  0  0  0
   45.4790   35.5340   43.1030 C   0  0  1  0  0  0  0  0  0  0  0  0
   46.5350   34.4960   43.0430 C   0  0  0  0  0  0  0  0  0  0  0  0
   46.0520   33.2980   43.8460 C   0  0  0  0  0  0  0  0  0  0  0  0
   45.1020   32.8920   47.3450 C   0  0  0  0  0  0  0  0  0  0  0  0
   45.9280   32.7040   46.2740 C   0  0  0  0  0  0  0  0  0  0  0  0
   46.5530   31.4580   46.2160 C   0  0  0  0  0  0  0  0  0  0  0  0
   46.3560   30.5060   47.1470 N   0  0  0  0  0  0  0  0  0  0  0  0
   45.5170   30.7340   48.2130 C   0  0  0  0  0  0  0  0  0  0  0  0
   44.9090   31.9130   48.2940 N   0  0  0  0  0  0  0  0  0  0  0  0
   45.3270   29.7420   49.2170 N   0  0  0  0  0  0  0  0  0  0  0  0
   47.5300   30.8940   45.2960 C   0  0  0  0  0  0  0  0  0  0  0  0
   48.3510   29.8430   45.6770 C   0  0  0  0  0  0  0  0  0  0  0  0
   49.3610   29.2690   44.9320 C   0  0  0  0  0  0  0  0  0  0  0  0
   49.5490   29.8030   43.7140 N   0  0  0  0  0  0  0  0  0  0  0  0
   48.7830   30.8210   43.2950 C   0  0  0  0  0  0  0  0  0  0  0  0
   47.8110   31.3470   44.0540 N   0  0  0  0  0  0  0  0  0  0  0  0
   44.4180   35.2510   42.0110 C   0  0  0  0  0  0  0  0  0  0  0  0
   43.3840   34.4650   42.4610 F   0  0  0  0  0  0  0  0  0  0  0  0
   43.8680   36.4860   41.6790 F   0  0  0  0  0  0  0  0  0  0  0  0
   45.0400   34.7650   40.8690 F   0  0  0  0  0  0  0  0  0  0  0  0
   47.1994   33.8939   45.3251 H   0  0  0  0  0  0  0  0  0  0  0  0
   44.5111   34.8778   46.4216 H   0  0  0  0  0  0  0  0  0  0  0  0
   44.0413   36.4802   44.4848 H   0  0  0  0  0  0  0  0  0  0  0  0
   46.0244   36.4773   42.9524 H   0  0  0  0  0  0  0  0  0  0  0  0
   46.7108   34.2004   41.9982 H   0  0  0  0  0  0  0  0  0  0  0  0
   47.4785   34.8819   43.4565 H   0  0  0  0  0  0  0  0  0  0  0  0
   45.0123   33.0594   43.5776 H   0  0  0  0  0  0  0  0  0  0  0  0
   46.6703   32.4130   43.6351 H   0  0  0  0  0  0  0  0  0  0  0  0
   44.5762   33.8522   47.4527 H   0  0  0  0  0  0  0  0  0  0  0  0
   44.6958   29.9260   50.0099 H   0  0  0  0  0  0  0  0  0  0  0  0
   45.8208   28.8405   49.1503 H   0  0  0  0  0  0  0  0  0  0  0  0
   48.1789   29.4226   46.6788 H   0  0  0  0  0  0  0  0  0  0  0  0
   49.9690   28.4334   45.3090 H   0  0  0  0  0  0  0  0  0  0  0  0
   48.9585   31.2393   42.2929 H   0  0  0  0  0  0  0  0  0  0  0  0
  1  2  1  0
  1  8  1  0
  3  2  2  0
  4  3  1  0
  5  4  1  0
  5  6  1  0
  6  1  1  0
  7 12  2  0
  8  7  1  0
  9  8  2  0
  9 10  1  0
 10 11  2  0
 11 12  1  0
 11 13  1  0
 14 15  2  0
 14  9  1  0
 16 15  1  0
 17 16  2  0
 18 17  1  0
 18 19  2  0
 19 14  1  0
 20 21  1  0
 20  4  1  0
 22 20  1  0
 23 20  1  0
  1 24  1  6
  2 25  1  0
  3 26  1  0
  4 27  1  6
  5 28  1  0
  5 29  1  0
  6 30  1  0
  6 31  1  0
  7 32  1  0
 13 33  1  0
 13 34  1  0
 15 35  1  0
 16 36  1  0
 18 37  1  0
M  ISO  8  24  13  25  13  26  13  27  13  28  13  29  13  30  13  31  13
M  ISO  4  32  14  35  14  36  14  37  14
M  END
>  <minimizedAffinity>  (1) 
-5.77411461

>  <minimizedRMSD>  (1) 
0.541460812

$$$$
