
     RDKit          3D

 36 38  0  0  1  0  0  0  0  0999 V2000
   46.1520   33.5400   45.2760 C   0  0  2  0  0  0  0  0  0  0  0  0
   45.0620   34.6780   45.5060 C   0  0  0  0  0  0  0  0  0  0  0  0
   44.8210   35.5810   44.4130 C   0  0  0  0  0  0  0  0  0  0  0  0
   45.5520   35.4440   43.1570 C   0  0  1  0  0  0  0  0  0  0  0  0
   46.5870   34.3950   43.1080 C   0  0  0  0  0  0  0  0  0  0  0  0
   46.0700   33.1940   43.8960 C   0  0  0  0  0  0  0  0  0  0  0  0
   45.1950   32.8020   47.4450 C   0  0  0  0  0  0  0  0  0  0  0  0
   45.9400   32.5840   46.3140 C   0  0  0  0  0  0  0  0  0  0  0  0
   46.4190   31.3030   46.1910 C   0  0  0  0  0  0  0  0  0  0  0  0
   46.1480   30.3560   47.1230 N   0  0  0  0  0  0  0  0  0  0  0  0
   45.4090   30.6050   48.2270 C   0  0  0  0  0  0  0  0  0  0  0  0
   44.9310   31.8320   48.3890 N   0  0  0  0  0  0  0  0  0  0  0  0
   45.1770   29.5840   49.1800 N   0  0  0  0  0  0  0  0  0  0  0  0
   47.4710   30.8050   45.2730 C   0  0  0  0  0  0  0  0  0  0  0  0
   48.3800   29.7930   45.5940 C   0  0  0  0  0  0  0  0  0  0  0  0
   49.2360   29.5350   44.5520 C   0  0  0  0  0  0  0  0  0  0  0  0
   48.7990   30.4280   43.6110 C   0  0  0  0  0  0  0  0  0  0  0  0
   47.8100   31.1070   44.0790 O   0  0  0  0  0  0  0  0  0  0  0  0
   44.5030   35.1820   42.0470 C   0  0  0  0  0  0  0  0  0  0  0  0
   43.4780   34.3660   42.4550 F   0  0  0  0  0  0  0  0  0  0  0  0
   43.9350   36.4200   41.7470 F   0  0  0  0  0  0  0  0  0  0  0  0
   45.1360   34.7300   40.9000 F   0  0  0  0  0  0  0  0  0  0  0  0
   47.2198   33.7776   45.3918 H   0  0  0  0  0  0  0  0  0  0  0  0
   44.5181   34.7692   46.4578 H   0  0  0  0  0  0  0  0  0  0  0  0
   44.0775   36.3839   44.5247 H   0  0  0  0  0  0  0  0  0  0  0  0
   46.1172   36.3785   43.0253 H   0  0  0  0  0  0  0  0  0  0  0  0
   46.7765   34.1045   42.0641 H   0  0  0  0  0  0  0  0  0  0  0  0
   47.5287   34.7630   43.5413 H   0  0  0  0  0  0  0  0  0  0  0  0
   45.0266   32.9812   43.6204 H   0  0  0  0  0  0  0  0  0  0  0  0
   46.6645   32.2943   43.6789 H   0  0  0  0  0  0  0  0  0  0  0  0
   44.7842   33.8092   47.6085 H   0  0  0  0  0  0  0  0  0  0  0  0
   44.6129   29.7811   50.0189 H   0  0  0  0  0  0  0  0  0  0  0  0
   45.5724   28.6441   49.0344 H   0  0  0  0  0  0  0  0  0  0  0  0
   48.4063   29.2687   46.5607 H   0  0  0  0  0  0  0  0  0  0  0  0
   50.0558   28.8042   44.4898 H   0  0  0  0  0  0  0  0  0  0  0  0
   49.2285   30.5477   42.6054 H   0  0  0  0  0  0  0  0  0  0  0  0
  1  2  1  0
  1  8  1  0
  3  2  2  0
  4  3  1  0
  5  4  1  0
  5  6  1  0
  6  1  1  0
  7 12  2  0
  8  7  1  0
  9  8  2  0
  9 10  1  0
 10 11  2  0
 11 12  1  0
 11 13  1  0
 14 15  2  0
 14  9  1  0
 16 15  1  0
 17 18  1  0
 17 16  2  0
 18 14  1  0
 19 20  1  0
 19  4  1  0
 21 19  1  0
 22 19  1  0
  1 23  1  6
  2 24  1  0
  3 25  1  0
  4 26  1  6
  5 27  1  0
  5 28  1  0
  6 29  1  0
  6 30  1  0
  7 31  1  0
 13 32  1  0
 13 33  1  0
 15 34  1  0
 16 35  1  0
 17 36  1  0
M  ISO  8  23  13  24  13  25  13  26  13  27  13  28  13  29  13  30  13
M  ISO  4  31  14  34  14  35  14  36  14
M  END
>  <minimizedAffinity>  (1) 
-5.78466082

>  <minimizedRMSD>  (1) 
0.296697676

$$$$
