
     RDKit          3D

 40 43  0  0  1  0  0  0  0  0999 V2000
   45.3650   32.9440   47.5890 C   0  0  0  0  0  0  0  0  0  0  0  0
   45.8720   32.6430   46.3630 C   0  0  0  0  0  0  0  0  0  0  0  0
   46.1450   31.2900   46.1080 C   0  0  0  0  0  0  0  0  0  0  0  0
   45.9170   30.3490   47.0280 N   0  0  0  0  0  0  0  0  0  0  0  0
   45.4050   30.6780   48.2620 C   0  0  0  0  0  0  0  0  0  0  0  0
   45.1380   31.9540   48.5210 N   0  0  0  0  0  0  0  0  0  0  0  0
   45.1920   29.6690   49.2520 N   0  0  0  0  0  0  0  0  0  0  0  0
   46.0830   33.6470   45.3640 C   0  0  2  0  0  0  0  0  0  0  0  0
   44.9350   34.7110   45.5320 C   0  0  0  0  0  0  0  0  0  0  0  0
   44.7190   35.6140   44.4300 C   0  0  0  0  0  0  0  0  0  0  0  0
   45.5210   35.5260   43.2190 C   0  0  1  0  0  0  0  0  0  0  0  0
   46.6150   34.5510   43.2190 C   0  0  0  0  0  0  0  0  0  0  0  0
   46.2160   33.3160   43.9790 C   0  0  0  0  0  0  0  0  0  0  0  0
   44.5570   35.2160   42.0520 C   0  0  0  0  0  0  0  0  0  0  0  0
   43.5460   34.3490   42.4080 F   0  0  0  0  0  0  0  0  0  0  0  0
   43.9330   36.4220   41.7170 F   0  0  0  0  0  0  0  0  0  0  0  0
   45.2620   34.8010   40.9440 F   0  0  0  0  0  0  0  0  0  0  0  0
   46.6500   30.5850   44.9780 N   0  0  0  0  0  0  0  0  0  0  0  0
   47.9850   30.4060   44.7000 C   0  0  0  0  0  0  0  0  0  0  0  0
   48.0890   29.7280   43.5360 N   0  0  0  0  0  0  0  0  0  0  0  0
   46.8550   29.4750   43.0740 C   0  0  0  0  0  0  0  0  0  0  0  0
   46.3420   28.8310   41.9540 C   0  0  0  0  0  0  0  0  0  0  0  0
   45.0070   28.7320   41.7540 N   0  0  0  0  0  0  0  0  0  0  0  0
   44.1170   29.2600   42.6410 C   0  0  0  0  0  0  0  0  0  0  0  0
   44.5980   29.8970   43.7490 N   0  0  0  0  0  0  0  0  0  0  0  0
   45.9230   30.0060   43.9660 C   0  0  0  0  0  0  0  0  0  0  0  0
   45.1334   33.9898   47.8396 H   0  0  0  0  0  0  0  0  0  0  0  0
   44.8083   29.9242   50.1732 H   0  0  0  0  0  0  0  0  0  0  0  0
   45.4222   28.6868   49.0441 H   0  0  0  0  0  0  0  0  0  0  0  0
   47.1083   33.9828   45.5786 H   0  0  0  0  0  0  0  0  0  0  0  0
   44.3267   34.7627   46.4470 H   0  0  0  0  0  0  0  0  0  0  0  0
   43.9353   36.3822   44.5054 H   0  0  0  0  0  0  0  0  0  0  0  0
   46.0358   36.4937   43.1266 H   0  0  0  0  0  0  0  0  0  0  0  0
   46.8557   34.2762   42.1814 H   0  0  0  0  0  0  0  0  0  0  0  0
   47.4939   35.0005   43.7043 H   0  0  0  0  0  0  0  0  0  0  0  0
   45.2560   32.9404   43.5953 H   0  0  0  0  0  0  0  0  0  0  0  0
   46.9829   32.5374   43.8539 H   0  0  0  0  0  0  0  0  0  0  0  0
   48.8244   30.7551   45.3193 H   0  0  0  0  0  0  0  0  0  0  0  0
   47.0328   28.3944   41.2177 H   0  0  0  0  0  0  0  0  0  0  0  0
   43.0340   29.1748   42.4680 H   0  0  0  0  0  0  0  0  0  0  0  0
  1  6  2  0
  2  1  1  0
  3  2  2  0
  3  4  1  0
  4  5  2  0
  5  6  1  0
  5  7  1  0
  8  9  1  0
  8  2  1  0
 10  9  2  0
 11 12  1  0
 11 10  1  0
 12 13  1  0
 13  8  1  0
 14 15  1  0
 14 11  1  0
 16 14  1  0
 17 14  1  0
 18  3  1  0
 19 18  1  0
 20 19  2  0
 21 20  1  0
 21 26  2  0
 22 21  1  0
 23 22  2  0
 23 24  1  0
 24 25  2  0
 25 26  1  0
 26 18  1  0
  1 27  1  0
  7 28  1  0
  7 29  1  0
  8 30  1  1
  9 31  1  0
 10 32  1  0
 11 33  1  6
 12 34  1  0
 12 35  1  0
 13 36  1  0
 13 37  1  0
 19 38  1  0
 22 39  1  0
 24 40  1  0
M  ISO  8  27  14  30  13  31  13  32  13  33  13  34  13  35  13  36  13
M  ISO  4  37  13  38  14  39  14  40  14
M  END
>  <minimizedAffinity>  (1) 
-5.79447985

>  <minimizedRMSD>  (1) 
0.700687408

$$$$
