
     RDKit          3D

 31 33  0  0  0  0  0  0  0  0999 V2000
   45.2500   34.5990   42.6850 C   0  0  0  0  0  0  0  0  0  0  0  0
   45.4720   33.7100   43.8360 C   0  0  0  0  0  0  0  0  0  0  0  0
   45.1450   34.4990   45.0990 C   0  0  0  0  0  0  0  0  0  0  0  0
   44.5710   35.8090   44.6700 C   0  0  0  0  0  0  0  0  0  0  0  0
   45.1630   36.0160   43.2970 C   0  0  0  0  0  0  0  0  0  0  0  0
   43.9980   34.4260   41.9330 C   0  0  0  0  0  0  0  0  0  0  0  0
   43.4080   33.1550   41.8780 C   0  0  0  0  0  0  0  0  0  0  0  0
   42.2190   32.9820   41.1690 C   0  0  0  0  0  0  0  0  0  0  0  0
   41.6940   34.0910   40.5580 N   0  0  0  0  0  0  0  0  0  0  0  0
   42.2740   35.3000   40.6210 C   0  0  0  0  0  0  0  0  0  0  0  0
   43.4210   35.4570   41.3080 N   0  0  0  0  0  0  0  0  0  0  0  0
   46.4150   34.6440   41.7520 C   0  0  0  0  0  0  0  0  0  0  0  0
   47.5080   35.3730   42.2310 C   0  0  0  0  0  0  0  0  0  0  0  0
   48.6280   35.4620   41.4270 C   0  0  0  0  0  0  0  0  0  0  0  0
   48.6800   34.8720   40.2190 N   0  0  0  0  0  0  0  0  0  0  0  0
   47.5880   34.1740   39.7970 C   0  0  0  0  0  0  0  0  0  0  0  0
   46.4790   34.0590   40.5400 N   0  0  0  0  0  0  0  0  0  0  0  0
   44.8152   32.8306   43.7627 H   0  0  0  0  0  0  0  0  0  0  0  0
   46.5148   33.3607   43.8583 H   0  0  0  0  0  0  0  0  0  0  0  0
   44.4123   33.9484   45.7073 H   0  0  0  0  0  0  0  0  0  0  0  0
   46.0488   34.6511   45.7073 H   0  0  0  0  0  0  0  0  0  0  0  0
   43.4731   35.7612   44.6224 H   0  0  0  0  0  0  0  0  0  0  0  0
   44.8027   36.6286   45.3661 H   0  0  0  0  0  0  0  0  0  0  0  0
   46.1631   36.4681   43.3707 H   0  0  0  0  0  0  0  0  0  0  0  0
   44.5559   36.6967   42.6821 H   0  0  0  0  0  0  0  0  0  0  0  0
   43.8784   32.3022   42.3892 H   0  0  0  0  0  0  0  0  0  0  0  0
   41.7257   32.0010   41.1033 H   0  0  0  0  0  0  0  0  0  0  0  0
   41.8134   36.1599   40.1127 H   0  0  0  0  0  0  0  0  0  0  0  0
   47.4770   35.8602   43.2168 H   0  0  0  0  0  0  0  0  0  0  0  0
   49.4998   36.0300   41.7838 H   0  0  0  0  0  0  0  0  0  0  0  0
   47.6183   33.6876   38.8109 H   0  0  0  0  0  0  0  0  0  0  0  0
  1  5  1  0
  1  2  1  0
  2  3  1  0
  4  3  1  0
  5  4  1  0
  6  1  1  0
  7  6  2  0
  8  7  1  0
  9 10  1  0
  9  8  2  0
 10 11  2  0
 11  6  1  0
 12 13  2  0
 12  1  1  0
 14 13  1  0
 15 14  2  0
 16 15  1  0
 16 17  2  0
 17 12  1  0
  2 18  1  0
  2 19  1  0
  3 20  1  0
  3 21  1  0
  4 22  1  0
  4 23  1  0
  5 24  1  0
  5 25  1  0
  7 26  1  0
  8 27  1  0
 10 28  1  0
 13 29  1  0
 14 30  1  0
 16 31  1  0
M  ISO  8  18  13  19  13  20  13  21  13  22  13  23  13  24  13  25  13
M  ISO  6  26  14  27  14  28  14  29  14  30  14  31  14
M  END
>  <minimizedAffinity>  (1) 
-5.08306646

>  <minimizedRMSD>  (1) 
3.76506019

$$$$
