
     RDKit          3D

 30 32  0  0  0  0  0  0  0  0999 V2000
   45.3840   34.7170   42.7730 C   0  0  0  0  0  0  0  0  0  0  0  0
   45.6170   33.8420   43.9230 C   0  0  0  0  0  0  0  0  0  0  0  0
   45.1230   34.5640   45.1730 C   0  0  0  0  0  0  0  0  0  0  0  0
   44.5290   35.8610   44.7140 C   0  0  0  0  0  0  0  0  0  0  0  0
   45.1860   36.1200   43.3830 C   0  0  0  0  0  0  0  0  0  0  0  0
   44.1940   34.4800   41.9490 C   0  0  0  0  0  0  0  0  0  0  0  0
   43.6130   33.2030   41.9590 C   0  0  0  0  0  0  0  0  0  0  0  0
   42.4680   32.9640   41.1640 C   0  0  0  0  0  0  0  0  0  0  0  0
   42.0050   34.0210   40.4290 N   0  0  0  0  0  0  0  0  0  0  0  0
   42.5890   35.2300   40.4460 C   0  0  0  0  0  0  0  0  0  0  0  0
   43.6780   35.4590   41.2010 N   0  0  0  0  0  0  0  0  0  0  0  0
   46.5470   34.7610   41.8800 N   0  0  0  0  0  0  0  0  0  0  0  0
   47.7470   35.3490   42.0130 C   0  0  0  0  0  0  0  0  0  0  0  0
   48.4390   35.0550   40.8610 C   0  0  0  0  0  0  0  0  0  0  0  0
   47.6620   34.3000   40.0480 N   0  0  0  0  0  0  0  0  0  0  0  0
   46.4830   34.1230   40.6940 C   0  0  0  0  0  0  0  0  0  0  0  0
   45.0643   32.8999   43.7932 H   0  0  0  0  0  0  0  0  0  0  0  0
   46.6881   33.6088   44.0147 H   0  0  0  0  0  0  0  0  0  0  0  0
   44.3609   33.9579   45.6847 H   0  0  0  0  0  0  0  0  0  0  0  0
   45.9458   34.7346   45.8829 H   0  0  0  0  0  0  0  0  0  0  0  0
   43.4386   35.7716   44.5997 H   0  0  0  0  0  0  0  0  0  0  0  0
   44.6964   36.6776   45.4317 H   0  0  0  0  0  0  0  0  0  0  0  0
   46.1535   36.6256   43.5184 H   0  0  0  0  0  0  0  0  0  0  0  0
   44.5826   36.7760   42.7383 H   0  0  0  0  0  0  0  0  0  0  0  0
   44.0417   32.3996   42.5760 H   0  0  0  0  0  0  0  0  0  0  0  0
   41.9759   31.9806   41.1380 H   0  0  0  0  0  0  0  0  0  0  0  0
   42.1713   36.0434   39.8346 H   0  0  0  0  0  0  0  0  0  0  0  0
   48.1033   35.9434   42.8673 H   0  0  0  0  0  0  0  0  0  0  0  0
   49.4646   35.3824   40.6350 H   0  0  0  0  0  0  0  0  0  0  0  0
   45.6206   33.5552   40.3147 H   0  0  0  0  0  0  0  0  0  0  0  0
  1  5  1  0
  1  2  1  0
  2  3  1  0
  4  3  1  0
  5  4  1  0
  6  7  2  0
  6  1  1  0
  8  7  1  0
  9 10  1  0
  9  8  2  0
 10 11  2  0
 11  6  1  0
 12 13  1  0
 12  1  1  0
 14 13  2  0
 15 16  2  0
 15 14  1  0
 16 12  1  0
  2 17  1  0
  2 18  1  0
  3 19  1  0
  3 20  1  0
  4 21  1  0
  4 22  1  0
  5 23  1  0
  5 24  1  0
  7 25  1  0
  8 26  1  0
 10 27  1  0
 13 28  1  0
 14 29  1  0
 16 30  1  0
M  ISO  8  17  13  18  13  19  13  20  13  21  13  22  13  23  13  24  13
M  ISO  6  25  14  26  14  27  14  28  14  29  14  30  14
M  END
>  <minimizedAffinity>  (1) 
-4.83697319

>  <minimizedRMSD>  (1) 
3.60629439

$$$$
