
     RDKit          3D

 39 41  0  0  1  0  0  0  0  0999 V2000
   45.3280   32.8610   47.5190 C   0  0  0  0  0  0  0  0  0  0  0  0
   45.9000   32.5870   46.3160 C   0  0  0  0  0  0  0  0  0  0  0  0
   46.2280   31.2420   46.0800 C   0  0  0  0  0  0  0  0  0  0  0  0
   45.9940   30.2850   46.9860 N   0  0  0  0  0  0  0  0  0  0  0  0
   45.4140   30.5960   48.1970 C   0  0  0  0  0  0  0  0  0  0  0  0
   45.0930   31.8640   48.4450 N   0  0  0  0  0  0  0  0  0  0  0  0
   45.1760   29.5780   49.1590 N   0  0  0  0  0  0  0  0  0  0  0  0
   46.1230   33.5780   45.3130 C   0  0  2  0  0  0  0  0  0  0  0  0
   44.9810   34.6540   45.4920 C   0  0  0  0  0  0  0  0  0  0  0  0
   44.7570   35.5630   44.4020 C   0  0  0  0  0  0  0  0  0  0  0  0
   45.5500   35.4760   43.1870 C   0  0  1  0  0  0  0  0  0  0  0  0
   46.6440   34.4950   43.1810 C   0  0  0  0  0  0  0  0  0  0  0  0
   46.2140   33.2530   43.9260 C   0  0  0  0  0  0  0  0  0  0  0  0
   44.5770   35.1790   42.0200 C   0  0  0  0  0  0  0  0  0  0  0  0
   43.5690   34.3080   42.3730 F   0  0  0  0  0  0  0  0  0  0  0  0
   43.9540   36.3880   41.7070 F   0  0  0  0  0  0  0  0  0  0  0  0
   45.2950   34.7820   40.8990 F   0  0  0  0  0  0  0  0  0  0  0  0
   46.8170   30.5580   44.9820 N   0  0  0  0  0  0  0  0  0  0  0  0
   48.1880   30.5060   44.9220 C   0  0  0  0  0  0  0  0  0  0  0  0
   48.7350   29.7920   43.8620 C   0  0  0  0  0  0  0  0  0  0  0  0
   47.8860   29.1890   42.9500 C   0  0  0  0  0  0  0  0  0  0  0  0
   48.4100   28.5520   42.0040 O   0  0  0  0  0  0  0  0  0  0  0  0
   46.5570   29.2760   43.0630 N   0  0  0  0  0  0  0  0  0  0  0  0
   45.9670   29.9590   44.0780 C   0  0  0  0  0  0  0  0  0  0  0  0
   44.7300   30.0900   44.2580 O   0  0  0  0  0  0  0  0  0  0  0  0
   45.0471   33.8971   47.7591 H   0  0  0  0  0  0  0  0  0  0  0  0
   44.7423   29.8147   50.0628 H   0  0  0  0  0  0  0  0  0  0  0  0
   45.4371   28.6032   48.9527 H   0  0  0  0  0  0  0  0  0  0  0  0
   47.1608   33.8841   45.5111 H   0  0  0  0  0  0  0  0  0  0  0  0
   44.3818   34.7055   46.4130 H   0  0  0  0  0  0  0  0  0  0  0  0
   43.9766   36.3334   44.4880 H   0  0  0  0  0  0  0  0  0  0  0  0
   46.0687   36.4415   43.0928 H   0  0  0  0  0  0  0  0  0  0  0  0
   46.8937   34.2312   42.1427 H   0  0  0  0  0  0  0  0  0  0  0  0
   47.5270   34.9290   43.6728 H   0  0  0  0  0  0  0  0  0  0  0  0
   45.2339   32.9170   43.5565 H   0  0  0  0  0  0  0  0  0  0  0  0
   46.9427   32.4437   43.7709 H   0  0  0  0  0  0  0  0  0  0  0  0
   48.8198   31.0030   45.6729 H   0  0  0  0  0  0  0  0  0  0  0  0
   49.8260   29.7075   43.7497 H   0  0  0  0  0  0  0  0  0  0  0  0
   45.9636   28.8120   42.3606 H   0  0  0  0  0  0  0  0  0  0  0  0
  1  6  2  0
  2  1  1  0
  3  2  2  0
  3  4  1  0
  4  5  2  0
  5  6  1  0
  5  7  1  0
  8  9  1  0
  8  2  1  0
 10  9  2  0
 11 10  1  0
 12 11  1  0
 12 13  1  0
 13  8  1  0
 14 15  1  0
 14 11  1  0
 16 14  1  0
 17 14  1  0
 18  3  1  0
 19 18  1  0
 20 19  2  0
 21 23  1  0
 21 20  1  0
 22 21  2  0
 23 24  1  0
 24 25  2  0
 24 18  1  0
  1 26  1  0
  7 27  1  0
  7 28  1  0
  8 29  1  1
  9 30  1  0
 10 31  1  0
 11 32  1  6
 12 33  1  0
 12 34  1  0
 13 35  1  0
 13 36  1  0
 19 37  1  0
 20 38  1  0
 23 39  1  0
M  ISO  8  26  14  29  13  30  13  31  13  32  13  33  13  34  13  35  13
M  ISO  4  36  13  37  14  38  14  39   9
M  END
>  <minimizedAffinity>  (1) 
-5.74714756

>  <minimizedRMSD>  (1) 
0.330281913

$$$$
