
     RDKit          3D

 43 45  0  0  1  0  0  0  0  0999 V2000
   46.0710   33.6400   45.3520 C   0  0  2  0  0  0  0  0  0  0  0  0
   44.9400   34.7010   45.5110 C   0  0  0  0  0  0  0  0  0  0  0  0
   44.7300   35.6020   44.4070 C   0  0  0  0  0  0  0  0  0  0  0  0
   45.5340   35.5090   43.1950 C   0  0  1  0  0  0  0  0  0  0  0  0
   46.6310   34.5330   43.2060 C   0  0  0  0  0  0  0  0  0  0  0  0
   46.2080   33.2980   43.9590 C   0  0  0  0  0  0  0  0  0  0  0  0
   45.3590   32.9250   47.5720 C   0  0  0  0  0  0  0  0  0  0  0  0
   45.8600   32.6320   46.3440 C   0  0  0  0  0  0  0  0  0  0  0  0
   46.1410   31.2840   46.0760 C   0  0  0  0  0  0  0  0  0  0  0  0
   45.9280   30.3350   46.9900 N   0  0  0  0  0  0  0  0  0  0  0  0
   45.4210   30.6550   48.2330 C   0  0  0  0  0  0  0  0  0  0  0  0
   45.1450   31.9280   48.5060 N   0  0  0  0  0  0  0  0  0  0  0  0
   45.2010   29.6340   49.2030 N   0  0  0  0  0  0  0  0  0  0  0  0
   46.5820   30.5570   44.9330 N   0  0  0  0  0  0  0  0  0  0  0  0
   45.7830   29.8980   43.8780 C   0  0  0  0  0  0  0  0  0  0  0  0
   46.7290   29.6710   42.7250 C   0  0  0  0  0  0  0  0  0  0  0  0
   47.6820   28.6240   43.1230 N   0  0  0  0  0  0  0  0  0  0  0  0
   48.2530   28.9390   44.3940 C   0  0  0  0  0  0  0  0  0  0  0  0
   48.0320   30.3950   44.7420 C   0  0  0  0  0  0  0  0  0  0  0  0
   44.5730   35.2050   42.0280 C   0  0  0  0  0  0  0  0  0  0  0  0
   43.5640   34.3250   42.3790 F   0  0  0  0  0  0  0  0  0  0  0  0
   43.9390   36.4050   41.7020 F   0  0  0  0  0  0  0  0  0  0  0  0
   45.2850   34.7940   40.9140 F   0  0  0  0  0  0  0  0  0  0  0  0
   47.0917   33.9833   45.5764 H   0  0  0  0  0  0  0  0  0  0  0  0
   44.3301   34.7589   46.4246 H   0  0  0  0  0  0  0  0  0  0  0  0
   43.9494   36.3735   44.4799 H   0  0  0  0  0  0  0  0  0  0  0  0
   46.0516   36.4745   43.0954 H   0  0  0  0  0  0  0  0  0  0  0  0
   46.8874   34.2602   42.1717 H   0  0  0  0  0  0  0  0  0  0  0  0
   47.5075   34.9773   43.7003 H   0  0  0  0  0  0  0  0  0  0  0  0
   45.2453   32.9363   43.5687 H   0  0  0  0  0  0  0  0  0  0  0  0
   46.9598   32.5044   43.8366 H   0  0  0  0  0  0  0  0  0  0  0  0
   45.1206   33.9682   47.8267 H   0  0  0  0  0  0  0  0  0  0  0  0
   44.8224   29.8769   50.1296 H   0  0  0  0  0  0  0  0  0  0  0  0
   45.4206   28.6533   48.9773 H   0  0  0  0  0  0  0  0  0  0  0  0
   45.3857   28.9389   44.2416 H   0  0  0  0  0  0  0  0  0  0  0  0
   44.9219   30.5138   43.5791 H   0  0  0  0  0  0  0  0  0  0  0  0
   47.2696   30.6013   42.4961 H   0  0  0  0  0  0  0  0  0  0  0  0
   46.1728   29.3625   41.8275 H   0  0  0  0  0  0  0  0  0  0  0  0
   47.1903   27.7210   43.1845 H   0  0  0  0  0  0  0  0  0  0  0  0
   47.7842   28.3097   45.1649 H   0  0  0  0  0  0  0  0  0  0  0  0
   49.3357   28.7501   44.3483 H   0  0  0  0  0  0  0  0  0  0  0  0
   48.5693   30.6516   45.6669 H   0  0  0  0  0  0  0  0  0  0  0  0
   48.4079   31.0578   43.9487 H   0  0  0  0  0  0  0  0  0  0  0  0
  1  2  1  0
  1  8  1  0
  3  2  2  0
  4  5  1  0
  4  3  1  0
  5  6  1  0
  6  1  1  0
  7 12  2  0
  8  7  1  0
  9  8  2  0
  9 10  1  0
 10 11  2  0
 11 12  1  0
 11 13  1  0
 14  9  1  0
 15 14  1  0
 16 17  1  0
 16 15  1  0
 17 18  1  0
 18 19  1  0
 19 14  1  0
 20 21  1  0
 20  4  1  0
 22 20  1  0
 23 20  1  0
  1 24  1  1
  2 25  1  0
  3 26  1  0
  4 27  1  6
  5 28  1  0
  5 29  1  0
  6 30  1  0
  6 31  1  0
  7 32  1  0
 13 33  1  0
 13 34  1  0
 15 35  1  0
 15 36  1  0
 16 37  1  0
 16 38  1  0
 17 39  1  0
 18 40  1  0
 18 41  1  0
 19 42  1  0
 19 43  1  0
M  ISO  8  24  13  25  13  26  13  27  13  28  13  29  13  30  13  31  13
M  ISO  8  32  14  35  13  36  13  37  13  38  13  39   5  40  13  41  13
M  ISO  2  42  13  43  13
M  END
>  <minimizedAffinity>  (1) 
-5.64215088

>  <minimizedRMSD>  (1) 
0.521540165

$$$$
