
     RDKit          3D

 35 36  0  0  1  0  0  0  0  0999 V2000
   46.2000   33.6650   45.3010 C   0  0  2  0  0  0  0  0  0  0  0  0
   44.9880   34.7100   45.4730 C   0  0  0  0  0  0  0  0  0  0  0  0
   44.7340   35.5940   44.3650 C   0  0  0  0  0  0  0  0  0  0  0  0
   45.5270   35.5190   43.1540 C   0  0  1  0  0  0  0  0  0  0  0  0
   46.6500   34.5830   43.1830 C   0  0  0  0  0  0  0  0  0  0  0  0
   46.2020   33.3330   43.9290 C   0  0  0  0  0  0  0  0  0  0  0  0
   45.1870   32.9140   47.4370 C   0  0  0  0  0  0  0  0  0  0  0  0
   45.9950   32.6900   46.3310 C   0  0  0  0  0  0  0  0  0  0  0  0
   46.5620   31.3960   46.2110 C   0  0  0  0  0  0  0  0  0  0  0  0
   46.2750   30.5100   47.1560 N   0  0  0  0  0  0  0  0  0  0  0  0
   45.4870   30.7390   48.2270 C   0  0  0  0  0  0  0  0  0  0  0  0
   44.9410   31.9380   48.3730 N   0  0  0  0  0  0  0  0  0  0  0  0
   45.3000   29.6810   49.1830 N   0  0  0  0  0  0  0  0  0  0  0  0
   47.4710   30.8620   45.1740 C   0  0  0  0  0  0  0  0  0  0  0  0
   48.3330   29.7250   45.5800 C   0  0  0  0  0  0  0  0  0  0  0  0
   44.5650   35.1670   41.9910 C   0  0  0  0  0  0  0  0  0  0  0  0
   43.5780   34.2810   42.3640 F   0  0  0  0  0  0  0  0  0  0  0  0
   43.9190   36.3550   41.6500 F   0  0  0  0  0  0  0  0  0  0  0  0
   45.2940   34.7600   40.8850 F   0  0  0  0  0  0  0  0  0  0  0  0
   47.2416   33.9750   45.4713 H   0  0  0  0  0  0  0  0  0  0  0  0
   44.3837   34.7471   46.3914 H   0  0  0  0  0  0  0  0  0  0  0  0
   43.9263   36.3371   44.4387 H   0  0  0  0  0  0  0  0  0  0  0  0
   46.0080   36.5002   43.0278 H   0  0  0  0  0  0  0  0  0  0  0  0
   46.9431   34.3198   42.1560 H   0  0  0  0  0  0  0  0  0  0  0  0
   47.5148   35.0393   43.6870 H   0  0  0  0  0  0  0  0  0  0  0  0
   45.1917   33.0399   43.6073 H   0  0  0  0  0  0  0  0  0  0  0  0
   46.8734   32.4858   43.7254 H   0  0  0  0  0  0  0  0  0  0  0  0
   44.7284   33.9051   47.5688 H   0  0  0  0  0  0  0  0  0  0  0  0
   44.7029   29.8324   50.0085 H   0  0  0  0  0  0  0  0  0  0  0  0
   45.7632   28.7719   49.0422 H   0  0  0  0  0  0  0  0  0  0  0  0
   48.1283   31.6821   44.8495 H   0  0  0  0  0  0  0  0  0  0  0  0
   46.8157   30.4666   44.3839 H   0  0  0  0  0  0  0  0  0  0  0  0
   48.3746   29.6702   46.6778 H   0  0  0  0  0  0  0  0  0  0  0  0
   47.9161   28.7883   45.1816 H   0  0  0  0  0  0  0  0  0  0  0  0
   49.3475   29.8735   45.1816 H   0  0  0  0  0  0  0  0  0  0  0  0
  1  2  1  0
  1  8  1  0
  3  2  2  0
  4  5  1  0
  4  3  1  0
  5  6  1  0
  6  1  1  0
  7 12  2  0
  8  7  1  0
  9  8  2  0
  9 10  1  0
 10 11  2  0
 11 12  1  0
 11 13  1  0
 14 15  1  0
 14  9  1  0
 16 17  1  0
 16  4  1  0
 18 16  1  0
 19 16  1  0
  1 20  1  1
  2 21  1  0
  3 22  1  0
  4 23  1  6
  5 24  1  0
  5 25  1  0
  6 26  1  0
  6 27  1  0
  7 28  1  0
 13 29  1  0
 13 30  1  0
 14 31  1  0
 14 32  1  0
 15 33  1  0
 15 34  1  0
 15 35  1  0
M  ISO  8  20  13  21  13  22  13  23  13  24  13  25  13  26  13  27  13
M  ISO  6  28  14  31   8  32   8  33   8  34   8  35   8
M  END
>  <minimizedAffinity>  (1) 
-5.56025887

>  <minimizedRMSD>  (1) 
0.37851271

$$$$
