
     RDKit          3D

 28 30  0  0  0  0  0  0  0  0999 V2000
   45.6060   34.7550   42.5980 C   0  0  0  0  0  0  0  0  0  0  0  0
   45.1190   36.0560   43.0700 C   0  0  0  0  0  0  0  0  0  0  0  0
   44.7560   35.9060   44.5500 C   0  0  0  0  0  0  0  0  0  0  0  0
   45.1630   34.5180   44.9700 C   0  0  0  0  0  0  0  0  0  0  0  0
   45.1420   33.7530   43.6830 C   0  0  0  0  0  0  0  0  0  0  0  0
   47.0620   34.5630   42.5060 C   0  0  0  0  0  0  0  0  0  0  0  0
   47.8330   35.5710   41.8960 C   0  0  0  0  0  0  0  0  0  0  0  0
   49.2130   35.4070   41.8050 C   0  0  0  0  0  0  0  0  0  0  0  0
   49.7450   34.2530   42.3260 N   0  0  0  0  0  0  0  0  0  0  0  0
   48.9860   33.3100   42.9020 C   0  0  0  0  0  0  0  0  0  0  0  0
   47.6580   33.4690   42.9890 N   0  0  0  0  0  0  0  0  0  0  0  0
   44.9460   34.3570   41.3200 C   0  0  0  0  0  0  0  0  0  0  0  0
   43.8390   34.8900   40.7590 N   0  0  0  0  0  0  0  0  0  0  0  0
   43.6210   34.2280   39.6700 O   0  0  0  0  0  0  0  0  0  0  0  0
   44.5350   33.2830   39.4900 C   0  0  0  0  0  0  0  0  0  0  0  0
   45.3740   33.3610   40.5290 N   0  0  0  0  0  0  0  0  0  0  0  0
   45.9054   36.8161   42.9519 H   0  0  0  0  0  0  0  0  0  0  0  0
   44.2417   36.3742   42.4877 H   0  0  0  0  0  0  0  0  0  0  0  0
   45.2963   36.6544   45.1483 H   0  0  0  0  0  0  0  0  0  0  0  0
   43.6780   36.0606   44.7052 H   0  0  0  0  0  0  0  0  0  0  0  0
   46.1701   34.5188   45.4123 H   0  0  0  0  0  0  0  0  0  0  0  0
   44.5038   34.0885   45.7387 H   0  0  0  0  0  0  0  0  0  0  0  0
   44.1250   33.3946   43.4655 H   0  0  0  0  0  0  0  0  0  0  0  0
   45.7923   32.8668   43.7246 H   0  0  0  0  0  0  0  0  0  0  0  0
   47.3518   36.4759   41.4967 H   0  0  0  0  0  0  0  0  0  0  0  0
   49.8506   36.1703   41.3352 H   0  0  0  0  0  0  0  0  0  0  0  0
   49.4557   32.4008   43.3054 H   0  0  0  0  0  0  0  0  0  0  0  0
   44.5917   32.5742   38.6507 H   0  0  0  0  0  0  0  0  0  0  0  0
  1  2  1  0
  1  5  1  0
  2  3  1  0
  3  4  1  0
  5  4  1  0
  6  1  1  0
  6 11  1  0
  7  6  2  0
  8  7  1  0
  8  9  2  0
  9 10  1  0
 10 11  2  0
 12  1  1  0
 13 12  2  0
 14 13  1  0
 15 14  1  0
 15 16  2  0
 16 12  1  0
  2 17  1  0
  2 18  1  0
  3 19  1  0
  3 20  1  0
  4 21  1  0
  4 22  1  0
  5 23  1  0
  5 24  1  0
  7 25  1  0
  8 26  1  0
 10 27  1  0
 15 28  1  0
M  ISO  8  17  13  18  13  19  13  20  13  21  13  22  13  23  13  24  13
M  ISO  4  25  14  26  14  27  14  28  14
M  END
>  <minimizedAffinity>  (1) 
-4.64555311

>  <minimizedRMSD>  (1) 
3.80689263

$$$$
