
     RDKit          3D

 34 36  0  0  0  0  0  0  0  0999 V2000
   41.7310   33.6790   40.5880 C   0  0  0  0  0  0  0  0  0  0  0  0
   41.6850   33.4400   39.1300 C   0  0  0  0  0  0  0  0  0  0  0  0
   40.9830   34.6310   38.4770 C   0  0  0  0  0  0  0  0  0  0  0  0
   40.6810   35.5990   39.5790 C   0  0  0  0  0  0  0  0  0  0  0  0
   40.6810   34.7800   40.8270 C   0  0  0  0  0  0  0  0  0  0  0  0
   41.2240   32.5000   41.2450 N   0  0  0  0  0  0  0  0  0  0  0  0
   39.8770   32.3850   41.1440 C   0  0  0  0  0  0  0  0  0  0  0  0
   39.2300   31.2960   41.7260 C   0  0  0  0  0  0  0  0  0  0  0  0
   39.9120   30.3050   42.4180 C   0  0  0  0  0  0  0  0  0  0  0  0
   39.2640   29.1890   43.0180 N   0  0  0  0  0  0  0  0  0  0  0  0
   41.2510   30.4800   42.4800 N   0  0  0  0  0  0  0  0  0  0  0  0
   41.8680   31.5320   41.9170 C   0  0  0  0  0  0  0  0  0  0  0  0
   43.1120   31.6780   41.9850 O   0  0  0  0  0  0  0  0  0  0  0  0
   42.9920   34.2180   41.1230 C   0  0  0  0  0  0  0  0  0  0  0  0
   44.1790   33.9480   40.4390 C   0  0  0  0  0  0  0  0  0  0  0  0
   45.3850   34.4650   40.9960 C   0  0  0  0  0  0  0  0  0  0  0  0
   45.3040   35.1910   42.1610 N   0  0  0  0  0  0  0  0  0  0  0  0
   44.1080   35.4210   42.7810 C   0  0  0  0  0  0  0  0  0  0  0  0
   42.9630   34.9250   42.2440 N   0  0  0  0  0  0  0  0  0  0  0  0
   42.7073   33.3468   38.7347 H   0  0  0  0  0  0  0  0  0  0  0  0
   41.1400   32.5095   38.9127 H   0  0  0  0  0  0  0  0  0  0  0  0
   41.6416   35.0981   37.7300 H   0  0  0  0  0  0  0  0  0  0  0  0
   40.0650   34.3178   37.9582 H   0  0  0  0  0  0  0  0  0  0  0  0
   41.4540   36.3800   39.6296 H   0  0  0  0  0  0  0  0  0  0  0  0
   39.7213   36.1137   39.4239 H   0  0  0  0  0  0  0  0  0  0  0  0
   39.6889   34.3364   40.9972 H   0  0  0  0  0  0  0  0  0  0  0  0
   40.9148   35.3849   41.7155 H   0  0  0  0  0  0  0  0  0  0  0  0
   39.2967   33.1482   40.6048 H   0  0  0  0  0  0  0  0  0  0  0  0
   38.1366   31.2192   41.6332 H   0  0  0  0  0  0  0  0  0  0  0  0
   39.8179   28.4810   43.5208 H   0  0  0  0  0  0  0  0  0  0  0  0
   38.2411   29.0893   42.9494 H   0  0  0  0  0  0  0  0  0  0  0  0
   44.1833   33.3607   39.5089 H   0  0  0  0  0  0  0  0  0  0  0  0
   46.3543   34.2880   40.5071 H   0  0  0  0  0  0  0  0  0  0  0  0
   44.0726   36.0059   43.7119 H   0  0  0  0  0  0  0  0  0  0  0  0
  1  5  1  0
  1 14  1  0
  1  6  1  0
  2  1  1  0
  3  2  1  0
  3  4  1  0
  4  5  1  0
  6 12  1  0
  7  6  1  0
  7  8  2  0
  8  9  1  0
  9 11  2  0
  9 10  1  0
 12 13  2  0
 12 11  1  0
 14 19  2  0
 15 16  2  0
 15 14  1  0
 16 17  1  0
 17 18  2  0
 19 18  1  0
  2 20  1  0
  2 21  1  0
  3 22  1  0
  3 23  1  0
  4 24  1  0
  4 25  1  0
  5 26  1  0
  5 27  1  0
  7 28  1  0
  8 29  1  0
 10 30  1  0
 10 31  1  0
 15 32  1  0
 16 33  1  0
 18 34  1  0
M  ISO  8  20  13  21  13  22  13  23  13  24  13  25  13  26  13  27  13
M  ISO  5  28  14  29  14  32  14  33  14  34  14
M  END
>  <minimizedAffinity>  (1) 
-4.60653734

>  <minimizedRMSD>  (1) 
6.15400553

$$$$
