
     RDKit          3D

 37 39  0  0  0  0  0  0  0  0999 V2000
   45.3700   34.4210   43.0960 C   0  0  0  0  0  0  0  0  0  0  0  0
   44.8260   35.6660   43.6310 C   0  0  0  0  0  0  0  0  0  0  0  0
   44.7330   35.5260   45.1500 C   0  0  0  0  0  0  0  0  0  0  0  0
   45.3660   34.2020   45.5140 C   0  0  0  0  0  0  0  0  0  0  0  0
   45.2310   33.4080   44.2680 C   0  0  0  0  0  0  0  0  0  0  0  0
   46.7990   34.3970   42.7430 C   0  0  0  0  0  0  0  0  0  0  0  0
   47.3390   35.4620   41.9990 C   0  0  0  0  0  0  0  0  0  0  0  0
   48.6980   35.4650   41.6740 C   0  0  0  0  0  0  0  0  0  0  0  0
   49.4320   34.3950   42.1190 N   0  0  0  0  0  0  0  0  0  0  0  0
   48.8840   33.3830   42.8340 C   0  0  0  0  0  0  0  0  0  0  0  0
   47.5860   33.3890   43.1390 N   0  0  0  0  0  0  0  0  0  0  0  0
   44.6230   33.9200   41.9610 N   0  0  0  0  0  0  0  0  0  0  0  0
   43.6360   34.8300   41.4840 C   0  0  0  0  0  0  0  0  0  0  0  0
   43.3220   34.4920   40.0400 C   0  0  0  0  0  0  0  0  0  0  0  0
   42.9000   33.1320   40.0010 N   0  0  0  0  0  0  0  0  0  0  0  0
   42.7570   32.5300   41.2840 C   0  0  0  0  0  0  0  0  0  0  0  0
   44.0040   32.6470   42.1630 C   0  0  0  0  0  0  0  0  0  0  0  0
   45.4896   36.5046   43.3733 H   0  0  0  0  0  0  0  0  0  0  0  0
   43.8318   35.8636   43.2037 H   0  0  0  0  0  0  0  0  0  0  0  0
   45.2738   36.3498   45.6387 H   0  0  0  0  0  0  0  0  0  0  0  0
   43.6854   35.5639   45.4833 H   0  0  0  0  0  0  0  0  0  0  0  0
   46.4238   34.3321   45.7862 H   0  0  0  0  0  0  0  0  0  0  0  0
   44.8938   33.7228   46.3843 H   0  0  0  0  0  0  0  0  0  0  0  0
   44.2478   32.9160   44.2331 H   0  0  0  0  0  0  0  0  0  0  0  0
   45.9939   32.6177   44.2096 H   0  0  0  0  0  0  0  0  0  0  0  0
   46.6927   36.2906   41.6738 H   0  0  0  0  0  0  0  0  0  0  0  0
   49.1541   36.2804   41.0934 H   0  0  0  0  0  0  0  0  0  0  0  0
   49.5170   32.5471   43.1666 H   0  0  0  0  0  0  0  0  0  0  0  0
   42.7240   34.7394   42.0923 H   0  0  0  0  0  0  0  0  0  0  0  0
   44.0113   35.8616   41.5548 H   0  0  0  0  0  0  0  0  0  0  0  0
   42.5193   35.1452   39.6673 H   0  0  0  0  0  0  0  0  0  0  0  0
   44.2081   34.6412   39.4055 H   0  0  0  0  0  0  0  0  0  0  0  0
   41.9899   33.0895   39.5206 H   0  0  0  0  0  0  0  0  0  0  0  0
   41.9190   33.0169   41.8042 H   0  0  0  0  0  0  0  0  0  0  0  0
   42.5821   31.4569   41.1169 H   0  0  0  0  0  0  0  0  0  0  0  0
   44.7138   31.8498   41.8973 H   0  0  0  0  0  0  0  0  0  0  0  0
   43.7135   32.5487   43.2194 H   0  0  0  0  0  0  0  0  0  0  0  0
  1  2  1  0
  1  5  1  0
  2  3  1  0
  3  4  1  0
  5  4  1  0
  6  1  1  0
  6 11  1  0
  7  6  2  0
  8  7  1  0
  8  9  2  0
  9 10  1  0
 10 11  2  0
 12 17  1  0
 12  1  1  0
 13 12  1  0
 14 13  1  0
 15 14  1  0
 15 16  1  0
 16 17  1  0
  2 18  1  0
  2 19  1  0
  3 20  1  0
  3 21  1  0
  4 22  1  0
  4 23  1  0
  5 24  1  0
  5 25  1  0
  7 26  1  0
  8 27  1  0
 10 28  1  0
 13 29  1  0
 13 30  1  0
 14 31  1  0
 14 32  1  0
 15 33  1  0
 16 34  1  0
 16 35  1  0
 17 36  1  0
 17 37  1  0
M  ISO  8  18  13  19  13  20  13  21  13  22  13  23  13  24  13  25  13
M  ISO  8  26  14  27  14  28  14  29  13  30  13  31  13  32  13  33   5
M  ISO  4  34  13  35  13  36  13  37  13
M  END
>  <minimizedAffinity>  (1) 
-4.58889627

>  <minimizedRMSD>  (1) 
3.88065505

$$$$
