
     RDKit          3D

 29 31  0  0  0  0  0  0  0  0999 V2000
   44.9680   34.3000   42.7310 C   0  0  0  0  0  0  0  0  0  0  0  0
   44.9050   35.1030   43.9560 C   0  0  0  0  0  0  0  0  0  0  0  0
   45.3480   34.2310   45.1290 C   0  0  0  0  0  0  0  0  0  0  0  0
   45.7600   32.9120   44.5490 C   0  0  0  0  0  0  0  0  0  0  0  0
   45.0140   32.8440   43.2380 C   0  0  0  0  0  0  0  0  0  0  0  0
   46.1570   34.4510   41.8790 C   0  0  0  0  0  0  0  0  0  0  0  0
   47.2230   35.2530   42.3200 C   0  0  0  0  0  0  0  0  0  0  0  0
   48.3520   35.3950   41.5050 C   0  0  0  0  0  0  0  0  0  0  0  0
   48.3530   34.7360   40.3110 N   0  0  0  0  0  0  0  0  0  0  0  0
   47.3170   33.9730   39.9140 C   0  0  0  0  0  0  0  0  0  0  0  0
   46.2350   33.8370   40.6930 N   0  0  0  0  0  0  0  0  0  0  0  0
   43.7400   34.4570   41.9290 N   0  0  0  0  0  0  0  0  0  0  0  0
   42.8630   33.5240   41.5160 C   0  0  0  0  0  0  0  0  0  0  0  0
   41.8860   34.1200   40.8080 N   0  0  0  0  0  0  0  0  0  0  0  0
   42.1540   35.4440   40.7740 C   0  0  0  0  0  0  0  0  0  0  0  0
   43.3010   35.6200   41.4740 N   0  0  0  0  0  0  0  0  0  0  0  0
   45.5741   35.9714   43.8655 H   0  0  0  0  0  0  0  0  0  0  0  0
   43.8782   35.4621   44.1194 H   0  0  0  0  0  0  0  0  0  0  0  0
   46.1965   34.6982   45.6503 H   0  0  0  0  0  0  0  0  0  0  0  0
   44.5359   34.1069   45.8605 H   0  0  0  0  0  0  0  0  0  0  0  0
   46.8469   32.8796   44.3831 H   0  0  0  0  0  0  0  0  0  0  0  0
   45.5298   32.0657   45.2129 H   0  0  0  0  0  0  0  0  0  0  0  0
   43.9964   32.4554   43.3915 H   0  0  0  0  0  0  0  0  0  0  0  0
   45.5023   32.1704   42.5184 H   0  0  0  0  0  0  0  0  0  0  0  0
   47.1710   35.7628   43.2933 H   0  0  0  0  0  0  0  0  0  0  0  0
   49.2061   36.0146   41.8158 H   0  0  0  0  0  0  0  0  0  0  0  0
   47.3591   33.4575   38.9432 H   0  0  0  0  0  0  0  0  0  0  0  0
   42.9333   32.4461   41.7239 H   0  0  0  0  0  0  0  0  0  0  0  0
   41.5591   36.2243   40.2767 H   0  0  0  0  0  0  0  0  0  0  0  0
  1  5  1  0
  1  2  1  0
  2  3  1  0
  4  3  1  0
  5  4  1  0
  6  7  2  0
  6  1  1  0
  8  7  1  0
  9  8  2  0
 10  9  1  0
 10 11  2  0
 11  6  1  0
 12  1  1  0
 13 12  1  0
 14 13  2  0
 15 14  1  0
 15 16  2  0
 16 12  1  0
  2 17  1  0
  2 18  1  0
  3 19  1  0
  3 20  1  0
  4 21  1  0
  4 22  1  0
  5 23  1  0
  5 24  1  0
  7 25  1  0
  8 26  1  0
 10 27  1  0
 13 28  1  0
 15 29  1  0
M  ISO  8  17  13  18  13  19  13  20  13  21  13  22  13  23  13  24  13
M  ISO  5  25  14  26  14  27  14  28  14  29  14
M  END
>  <minimizedAffinity>  (1) 
-4.43436527

>  <minimizedRMSD>  (1) 
3.7186749

$$$$
