
     RDKit          3D

 36 38  0  0  0  0  0  0  0  0999 V2000
   44.8900   34.0190   42.1070 C   0  0  0  0  0  0  0  0  0  0  0  0
   43.9140   33.4170   41.1570 C   0  0  0  0  0  0  0  0  0  0  0  0
   42.9640   34.5160   40.7120 C   0  0  0  0  0  0  0  0  0  0  0  0
   43.4340   35.7810   41.3630 C   0  0  0  0  0  0  0  0  0  0  0  0
   44.2370   35.3080   42.5570 C   0  0  0  0  0  0  0  0  0  0  0  0
   46.2010   34.3830   41.5550 C   0  0  0  0  0  0  0  0  0  0  0  0
   46.5700   33.8640   40.3150 C   0  0  0  0  0  0  0  0  0  0  0  0
   47.8510   34.2000   39.8010 C   0  0  0  0  0  0  0  0  0  0  0  0
   48.6400   35.0200   40.5740 N   0  0  0  0  0  0  0  0  0  0  0  0
   48.2290   35.4940   41.7680 C   0  0  0  0  0  0  0  0  0  0  0  0
   47.0310   35.1740   42.2400 N   0  0  0  0  0  0  0  0  0  0  0  0
   45.1570   33.1230   43.2960 C   0  0  0  0  0  0  0  0  0  0  0  0
   46.4380   32.3480   43.0770 C   0  0  0  0  0  0  0  0  0  0  0  0
   47.0710   32.1380   44.4240 C   0  0  0  0  0  0  0  0  0  0  0  0
   46.5820   33.2770   45.2580 C   0  0  0  0  0  0  0  0  0  0  0  0
   45.3510   33.8410   44.5850 C   0  0  0  0  0  0  0  0  0  0  0  0
   44.4445   33.0050   40.2859 H   0  0  0  0  0  0  0  0  0  0  0  0
   43.3584   32.6005   41.6415 H   0  0  0  0  0  0  0  0  0  0  0  0
   42.9911   34.6203   39.6173 H   0  0  0  0  0  0  0  0  0  0  0  0
   41.9280   34.2841   40.9999 H   0  0  0  0  0  0  0  0  0  0  0  0
   44.0644   36.3631   40.6747 H   0  0  0  0  0  0  0  0  0  0  0  0
   42.6025   36.4417   41.6494 H   0  0  0  0  0  0  0  0  0  0  0  0
   43.5776   35.1266   43.4186 H   0  0  0  0  0  0  0  0  0  0  0  0
   44.9777   36.0553   42.8778 H   0  0  0  0  0  0  0  0  0  0  0  0
   45.8878   33.2120   39.7498 H   0  0  0  0  0  0  0  0  0  0  0  0
   48.1968   33.8212   38.8279 H   0  0  0  0  0  0  0  0  0  0  0  0
   48.8905   36.1494   42.3536 H   0  0  0  0  0  0  0  0  0  0  0  0
   44.2591   32.4918   43.3685 H   0  0  0  0  0  0  0  0  0  0  0  0
   46.2151   31.3770   42.6106 H   0  0  0  0  0  0  0  0  0  0  0  0
   47.1169   32.8996   42.4101 H   0  0  0  0  0  0  0  0  0  0  0  0
   46.7534   31.1774   44.8557 H   0  0  0  0  0  0  0  0  0  0  0  0
   48.1691   32.1075   44.3662 H   0  0  0  0  0  0  0  0  0  0  0  0
   46.3278   32.9209   46.2672 H   0  0  0  0  0  0  0  0  0  0  0  0
   47.3596   34.0495   45.3510 H   0  0  0  0  0  0  0  0  0  0  0  0
   45.4893   34.9157   44.3957 H   0  0  0  0  0  0  0  0  0  0  0  0
   44.4702   33.7087   45.2305 H   0  0  0  0  0  0  0  0  0  0  0  0
  1  5  1  0
  1 12  1  0
  2  1  1  0
  3  2  1  0
  3  4  1  0
  4  5  1  0
  6  1  1  0
  6 11  1  0
  7  6  2  0
  8  7  1  0
  8  9  2  0
  9 10  1  0
 10 11  2  0
 12 16  1  0
 13 12  1  0
 13 14  1  0
 14 15  1  0
 16 15  1  0
  2 17  1  0
  2 18  1  0
  3 19  1  0
  3 20  1  0
  4 21  1  0
  4 22  1  0
  5 23  1  0
  5 24  1  0
  7 25  1  0
  8 26  1  0
 10 27  1  0
 12 28  1  0
 13 29  1  0
 13 30  1  0
 14 31  1  0
 14 32  1  0
 15 33  1  0
 15 34  1  0
 16 35  1  0
 16 36  1  0
M  ISO  8  17  13  18  13  19  13  20  13  21  13  22  13  23  13  24  13
M  ISO  8  25  14  26  14  27  14  28  13  29  13  30  13  31  13  32  13
M  ISO  4  33  13  34  13  35  13  36  13
M  END
>  <minimizedAffinity>  (1) 
-4.38779259

>  <minimizedRMSD>  (1) 
4.53356075

$$$$
