
     RDKit          3D

 26 27  0  0  0  0  0  0  0  0999 V2000
   45.3380   34.6240   42.6280 C   0  0  0  0  0  0  0  0  0  0  0  0
   45.5400   33.7610   43.7880 C   0  0  0  0  0  0  0  0  0  0  0  0
   45.1450   34.5630   45.0290 C   0  0  0  0  0  0  0  0  0  0  0  0
   44.5570   35.8730   44.5620 C   0  0  0  0  0  0  0  0  0  0  0  0
   45.1640   36.0560   43.2250 C   0  0  0  0  0  0  0  0  0  0  0  0
   44.1260   34.4020   41.8270 C   0  0  0  0  0  0  0  0  0  0  0  0
   43.4740   33.1410   41.8850 C   0  0  0  0  0  0  0  0  0  0  0  0
   42.3090   32.9390   41.1480 C   0  0  0  0  0  0  0  0  0  0  0  0
   41.8630   34.0010   40.3970 N   0  0  0  0  0  0  0  0  0  0  0  0
   42.5060   35.1900   40.3620 C   0  0  0  0  0  0  0  0  0  0  0  0
   43.6390   35.3920   41.0770 N   0  0  0  0  0  0  0  0  0  0  0  0
   46.5460   34.8120   41.7450 C   0  0  0  0  0  0  0  0  0  0  0  0
   47.6730   35.3070   42.0880 O   0  0  0  0  0  0  0  0  0  0  0  0
   46.4350   34.4100   40.4210 O   0  0  0  0  0  0  0  0  0  0  0  0
   44.9091   32.8639   43.7036 H   0  0  0  0  0  0  0  0  0  0  0  0
   46.5891   33.4367   43.8528 H   0  0  0  0  0  0  0  0  0  0  0  0
   44.3989   34.0049   45.6137 H   0  0  0  0  0  0  0  0  0  0  0  0
   46.0227   34.7410   45.6678 H   0  0  0  0  0  0  0  0  0  0  0  0
   43.4609   35.8115   44.4929 H   0  0  0  0  0  0  0  0  0  0  0  0
   44.7625   36.7080   45.2480 H   0  0  0  0  0  0  0  0  0  0  0  0
   46.1410   36.5536   43.3143 H   0  0  0  0  0  0  0  0  0  0  0  0
   44.5333   36.6859   42.5804 H   0  0  0  0  0  0  0  0  0  0  0  0
   43.8852   32.3316   42.5061 H   0  0  0  0  0  0  0  0  0  0  0  0
   41.7731   31.9785   41.1660 H   0  0  0  0  0  0  0  0  0  0  0  0
   42.1031   36.0057   39.7436 H   0  0  0  0  0  0  0  0  0  0  0  0
   45.5874   34.0183   40.0920 H   0  0  0  0  0  0  0  0  0  0  0  0
  1  5  1  0
  1  2  1  0
  2  3  1  0
  4  3  1  0
  5  4  1  0
  6  7  2  0
  6  1  1  0
  8  7  1  0
  9  8  2  0
 10  9  1  0
 10 11  2  0
 11  6  1  0
 12 13  2  0
 12  1  1  0
 14 12  1  0
  2 15  1  0
  2 16  1  0
  3 17  1  0
  3 18  1  0
  4 19  1  0
  4 20  1  0
  5 21  1  0
  5 22  1  0
  7 23  1  0
  8 24  1  0
 10 25  1  0
 14 26  1  0
M  ISO  8  15  13  16  13  17  13  18  13  19  13  20  13  21  13  22  13
M  ISO  4  23  14  24  14  25  14  26   3
M  END
>  <minimizedAffinity>  (1) 
-4.35127735

>  <minimizedRMSD>  (1) 
3.38332915

$$$$
