
     RDKit          3D

 32 34  0  0  0  0  0  0  0  0999 V2000
   43.1900   33.4130   40.5700 C   0  0  0  0  0  0  0  0  0  0  0  0
   43.7120   33.9930   39.3230 C   0  0  0  0  0  0  0  0  0  0  0  0
   44.0330   32.8370   38.3750 C   0  0  0  0  0  0  0  0  0  0  0  0
   43.5480   31.5710   39.0380 C   0  0  0  0  0  0  0  0  0  0  0  0
   43.5700   31.9180   40.4950 C   0  0  0  0  0  0  0  0  0  0  0  0
   41.7310   33.4330   40.7550 C   0  0  0  0  0  0  0  0  0  0  0  0
   40.9700   34.3860   40.0640 C   0  0  0  0  0  0  0  0  0  0  0  0
   39.5860   34.4050   40.2350 C   0  0  0  0  0  0  0  0  0  0  0  0
   39.0380   33.4840   41.0770 N   0  0  0  0  0  0  0  0  0  0  0  0
   39.7980   32.5720   41.7350 C   0  0  0  0  0  0  0  0  0  0  0  0
   41.1230   32.5530   41.5720 N   0  0  0  0  0  0  0  0  0  0  0  0
   43.8940   34.0380   41.7410 C   0  0  0  0  0  0  0  0  0  0  0  0
   43.9670   35.4330   41.8330 C   0  0  0  0  0  0  0  0  0  0  0  0
   44.6420   35.8610   42.9680 C   0  0  0  0  0  0  0  0  0  0  0  0
   45.1950   35.0400   43.9220 C   0  0  0  0  0  0  0  0  0  0  0  0
   45.0470   33.6770   43.7010 C   0  0  0  0  0  0  0  0  0  0  0  0
   44.4130   33.1770   42.6360 N   0  0  0  0  0  0  0  0  0  0  0  0
   42.9558   34.6509   38.8699 H   0  0  0  0  0  0  0  0  0  0  0  0
   44.6134   34.5910   39.5225 H   0  0  0  0  0  0  0  0  0  0  0  0
   45.1179   32.7807   38.2025 H   0  0  0  0  0  0  0  0  0  0  0  0
   43.5421   32.9816   37.4013 H   0  0  0  0  0  0  0  0  0  0  0  0
   42.5296   31.3181   38.7080 H   0  0  0  0  0  0  0  0  0  0  0  0
   44.1641   30.6929   38.7942 H   0  0  0  0  0  0  0  0  0  0  0  0
   42.8396   31.3077   41.0464 H   0  0  0  0  0  0  0  0  0  0  0  0
   44.5548   31.7246   40.9453 H   0  0  0  0  0  0  0  0  0  0  0  0
   41.4584   35.1099   39.3951 H   0  0  0  0  0  0  0  0  0  0  0  0
   38.9580   35.1385   39.7081 H   0  0  0  0  0  0  0  0  0  0  0  0
   39.3194   31.8441   42.4066 H   0  0  0  0  0  0  0  0  0  0  0  0
   43.5360   36.1163   41.0864 H   0  0  0  0  0  0  0  0  0  0  0  0
   44.7427   36.9463   43.1162 H   0  0  0  0  0  0  0  0  0  0  0  0
   45.7205   35.4369   44.8031 H   0  0  0  0  0  0  0  0  0  0  0  0
   45.4709   32.9770   44.4360 H   0  0  0  0  0  0  0  0  0  0  0  0
  1  6  1  0
  1 12  1  0
  2  1  1  0
  3  4  1  0
  3  2  1  0
  4  5  1  0
  5  1  1  0
  6 11  2  0
  7  8  2  0
  7  6  1  0
  8  9  1  0
  9 10  2  0
 11 10  1  0
 12 13  2  0
 12 17  1  0
 13 14  1  0
 14 15  2  0
 16 15  1  0
 17 16  2  0
  2 18  1  0
  2 19  1  0
  3 20  1  0
  3 21  1  0
  4 22  1  0
  4 23  1  0
  5 24  1  0
  5 25  1  0
  7 26  1  0
  8 27  1  0
 10 28  1  0
 13 29  1  0
 14 30  1  0
 15 31  1  0
 16 32  1  0
M  ISO  8  18  13  19  13  20  13  21  13  22  13  23  13  24  13  25  13
M  ISO  7  26  14  27  14  28  14  29  14  30  14  31  14  32  14
M  END
>  <minimizedAffinity>  (1) 
-4.10281754

>  <minimizedRMSD>  (1) 
4.8300519

$$$$
