
     RDKit          3D

 24 25  0  0  0  0  0  0  0  0999 V2000
   46.5540   34.1750   40.9900 C   0  0  0  0  0  0  0  0  0  0  0  0
   47.5980   34.3400   39.9770 C   0  0  0  0  0  0  0  0  0  0  0  0
   48.7060   35.1960   40.5940 C   0  0  0  0  0  0  0  0  0  0  0  0
   48.3500   35.4140   42.0470 C   0  0  0  0  0  0  0  0  0  0  0  0
   46.8730   35.2610   42.0570 C   0  0  0  0  0  0  0  0  0  0  0  0
   46.5230   32.8990   41.7240 C   0  0  0  0  0  0  0  0  0  0  0  0
   47.2610   31.8040   41.2350 C   0  0  0  0  0  0  0  0  0  0  0  0
   47.2450   30.6050   41.9410 C   0  0  0  0  0  0  0  0  0  0  0  0
   46.4990   30.5630   43.0880 N   0  0  0  0  0  0  0  0  0  0  0  0
   45.7960   31.6350   43.5360 C   0  0  0  0  0  0  0  0  0  0  0  0
   45.8120   32.7980   42.8510 N   0  0  0  0  0  0  0  0  0  0  0  0
   45.2620   34.4360   40.4950 O   0  0  0  0  0  0  0  0  0  0  0  0
   47.1848   34.8427   39.0902 H   0  0  0  0  0  0  0  0  0  0  0  0
   47.9926   33.3620   39.6643 H   0  0  0  0  0  0  0  0  0  0  0  0
   49.6714   34.6744   40.5172 H   0  0  0  0  0  0  0  0  0  0  0  0
   48.7946   36.1572   40.0665 H   0  0  0  0  0  0  0  0  0  0  0  0
   48.8297   34.6603   42.6887 H   0  0  0  0  0  0  0  0  0  0  0  0
   48.6871   36.3869   42.4341 H   0  0  0  0  0  0  0  0  0  0  0  0
   46.3873   36.2120   41.7931 H   0  0  0  0  0  0  0  0  0  0  0  0
   46.5018   34.9736   43.0518 H   0  0  0  0  0  0  0  0  0  0  0  0
   47.8431   31.8953   40.3061 H   0  0  0  0  0  0  0  0  0  0  0  0
   47.8085   29.7272   41.5918 H   0  0  0  0  0  0  0  0  0  0  0  0
   45.2096   31.5551   44.4632 H   0  0  0  0  0  0  0  0  0  0  0  0
   44.6375   34.5621   41.2528 H   0  0  0  0  0  0  0  0  0  0  0  0
  1  6  1  0
  1  5  1  0
  2  3  1  0
  2  1  1  0
  3  4  1  0
  4  5  1  0
  6 11  1  0
  7  6  2  0
  7  8  1  0
  8  9  2  0
  9 10  1  0
 11 10  2  0
 12  1  1  0
  2 13  1  0
  2 14  1  0
  3 15  1  0
  3 16  1  0
  4 17  1  0
  4 18  1  0
  5 19  1  0
  5 20  1  0
  7 21  1  0
  8 22  1  0
 10 23  1  0
 12 24  1  0
M  ISO  8  13  13  14  13  15  13  16  13  17  13  18  13  19  13  20  13
M  ISO  4  21  14  22  14  23  14  24   3
M  END
>  <minimizedAffinity>  (1) 
-3.19657516

>  <minimizedRMSD>  (1) 
1.31242752

$$$$
