
     RDKit          3D

 44 48  0  0  0  0  0  0  0  0999 V2000
   45.6250   34.0120   42.6380 C   0  0  0  0  0  0  0  0  0  0  0  0
   45.8650   34.5780   43.9810 C   0  0  0  0  0  0  0  0  0  0  0  0
   46.4620   33.4870   44.8480 C   0  0  0  0  0  0  0  0  0  0  0  0
   46.6100   32.2620   43.9710 C   0  0  0  0  0  0  0  0  0  0  0  0
   45.6520   32.4920   42.8580 C   0  0  0  0  0  0  0  0  0  0  0  0
   46.6340   34.2920   41.6010 C   0  0  0  0  0  0  0  0  0  0  0  0
   47.6990   35.1590   41.8860 C   0  0  0  0  0  0  0  0  0  0  0  0
   48.6490   35.4180   40.9050 C   0  0  0  0  0  0  0  0  0  0  0  0
   48.4830   34.7960   39.6910 N   0  0  0  0  0  0  0  0  0  0  0  0
   47.4390   33.9610   39.4520 C   0  0  0  0  0  0  0  0  0  0  0  0
   46.5260   33.7160   40.4020 N   0  0  0  0  0  0  0  0  0  0  0  0
   44.2630   34.3710   42.1470 C   0  0  0  0  0  0  0  0  0  0  0  0
   43.5060   35.4280   41.8110 C   0  0  0  0  0  0  0  0  0  0  0  0
   42.2320   35.2880   41.3900 C   0  0  0  0  0  0  0  0  0  0  0  0
   41.7110   34.0080   41.3110 C   0  0  0  0  0  0  0  0  0  0  0  0
   43.1090   32.9880   41.8610 S   0  0  0  0  0  0  0  0  0  0  0  0
   40.5230   33.3610   40.9020 C   0  0  0  0  0  0  0  0  0  0  0  0
   39.9890   32.3910   41.7060 N   0  0  0  0  0  0  0  0  0  0  0  0
   38.9320   31.6420   41.3850 C   0  0  0  0  0  0  0  0  0  0  0  0
   38.2970   31.7920   40.2130 N   0  0  0  0  0  0  0  0  0  0  0  0
   38.7280   32.7270   39.3220 C   0  0  0  0  0  0  0  0  0  0  0  0
   38.0840   32.9310   38.1220 C   0  0  0  0  0  0  0  0  0  0  0  0
   38.5130   33.9050   37.2450 C   0  0  0  0  0  0  0  0  0  0  0  0
   39.6220   34.6600   37.6450 C   0  0  0  0  0  0  0  0  0  0  0  0
   40.2250   34.4100   38.8540 C   0  0  0  0  0  0  0  0  0  0  0  0
   39.8140   33.4450   39.7360 C   0  0  0  0  0  0  0  0  0  0  0  0
   46.5648   35.4238   43.9103 H   0  0  0  0  0  0  0  0  0  0  0  0
   44.9227   34.9408   44.4173 H   0  0  0  0  0  0  0  0  0  0  0  0
   47.4451   33.8012   45.2283 H   0  0  0  0  0  0  0  0  0  0  0  0
   45.8186   33.2759   45.7149 H   0  0  0  0  0  0  0  0  0  0  0  0
   47.6382   32.1774   43.5894 H   0  0  0  0  0  0  0  0  0  0  0  0
   46.4073   31.3276   44.5149 H   0  0  0  0  0  0  0  0  0  0  0  0
   44.6513   32.1266   43.1320 H   0  0  0  0  0  0  0  0  0  0  0  0
   45.9537   31.9558   41.9462 H   0  0  0  0  0  0  0  0  0  0  0  0
   47.7817   35.6297   42.8768 H   0  0  0  0  0  0  0  0  0  0  0  0
   49.4977   36.0922   41.0925 H   0  0  0  0  0  0  0  0  0  0  0  0
   47.3416   33.4803   38.4674 H   0  0  0  0  0  0  0  0  0  0  0  0
   43.9373   36.4375   41.8811 H   0  0  0  0  0  0  0  0  0  0  0  0
   41.6256   36.1644   41.1178 H   0  0  0  0  0  0  0  0  0  0  0  0
   38.5735   30.8846   42.0976 H   0  0  0  0  0  0  0  0  0  0  0  0
   37.2158   32.3087   37.8595 H   0  0  0  0  0  0  0  0  0  0  0  0
   38.0104   34.0794   36.2822 H   0  0  0  0  0  0  0  0  0  0  0  0
   40.0110   35.4541   36.9907 H   0  0  0  0  0  0  0  0  0  0  0  0
   41.0941   35.0243   39.1320 H   0  0  0  0  0  0  0  0  0  0  0  0
  1  5  1  0
  1  2  1  0
  2  3  1  0
  4  3  1  0
  5  4  1  0
  6  7  2  0
  6  1  1  0
  8  7  1  0
  9  8  2  0
 10  9  1  0
 10 11  2  0
 11  6  1  0
 12  1  1  0
 13 12  2  0
 14 13  1  0
 15 14  2  0
 15 16  1  0
 16 12  1  0
 17 15  1  0
 17 18  2  0
 19 18  1  0
 20 19  2  0
 21 26  2  0
 21 20  1  0
 22 21  1  0
 23 24  1  0
 23 22  2  0
 24 25  2  0
 25 26  1  0
 26 17  1  0
  2 27  1  0
  2 28  1  0
  3 29  1  0
  3 30  1  0
  4 31  1  0
  4 32  1  0
  5 33  1  0
  5 34  1  0
  7 35  1  0
  8 36  1  0
 10 37  1  0
 13 38  1  0
 14 39  1  0
 19 40  1  0
 22 41  1  0
 23 42  1  0
 24 43  1  0
 25 44  1  0
M  ISO  8  27  13  28  13  29  13  30  13  31  13  32  13  33  13  34  13
M  ISO  8  35  14  36  14  37  14  38  14  39  14  40  14  41  14  42  14
M  ISO  2  43  14  44  14
M  END
>  <minimizedAffinity>  (1) 
-6.83086729

>  <minimizedRMSD>  (1) 
1.38767421

$$$$
