
     RDKit          3D

 46 49  0  0  0  0  0  0  0  0999 V2000
   45.0910   34.4260   42.7210 C   0  0  0  0  0  0  0  0  0  0  0  0
   45.0520   35.1030   44.0220 C   0  0  0  0  0  0  0  0  0  0  0  0
   45.4320   34.1080   45.1060 C   0  0  0  0  0  0  0  0  0  0  0  0
   45.7290   32.8040   44.4080 C   0  0  0  0  0  0  0  0  0  0  0  0
   45.0410   32.9140   43.0920 C   0  0  0  0  0  0  0  0  0  0  0  0
   46.3130   34.5810   41.9100 C   0  0  0  0  0  0  0  0  0  0  0  0
   47.3770   35.3490   42.3980 C   0  0  0  0  0  0  0  0  0  0  0  0
   48.5290   35.4860   41.6150 C   0  0  0  0  0  0  0  0  0  0  0  0
   48.5500   34.8550   40.4050 N   0  0  0  0  0  0  0  0  0  0  0  0
   47.4950   34.1170   39.9640 C   0  0  0  0  0  0  0  0  0  0  0  0
   46.3930   33.9830   40.7080 N   0  0  0  0  0  0  0  0  0  0  0  0
   43.8840   34.6980   41.9170 C   0  0  0  0  0  0  0  0  0  0  0  0
   43.1690   35.7310   41.4300 C   0  0  0  0  0  0  0  0  0  0  0  0
   42.0460   35.5760   40.6890 C   0  0  0  0  0  0  0  0  0  0  0  0
   41.6590   34.2500   40.4500 C   0  0  0  0  0  0  0  0  0  0  0  0
   42.9300   33.2530   41.3060 S   0  0  0  0  0  0  0  0  0  0  0  0
   40.5300   33.7810   39.7090 C   0  0  0  0  0  0  0  0  0  0  0  0
   40.1090   34.6970   38.6070 C   0  0  0  0  0  0  0  0  0  0  0  0
   39.1160   33.9050   37.7510 C   0  0  0  0  0  0  0  0  0  0  0  0
   37.9540   33.4170   38.5770 C   0  0  0  0  0  0  0  0  0  0  0  0
   38.3750   32.6870   39.8180 C   0  0  0  0  0  0  0  0  0  0  0  0
   39.3640   33.5460   40.6130 C   0  0  0  0  0  0  0  0  0  0  0  0
   45.7645   35.9410   44.0237 H   0  0  0  0  0  0  0  0  0  0  0  0
   44.0400   35.4909   44.2102 H   0  0  0  0  0  0  0  0  0  0  0  0
   46.3219   34.4594   45.6489 H   0  0  0  0  0  0  0  0  0  0  0  0
   44.6203   33.9901   45.8390 H   0  0  0  0  0  0  0  0  0  0  0  0
   46.8128   32.6762   44.2696 H   0  0  0  0  0  0  0  0  0  0  0  0
   45.3838   31.9344   44.9865 H   0  0  0  0  0  0  0  0  0  0  0  0
   43.9985   32.5725   43.1735 H   0  0  0  0  0  0  0  0  0  0  0  0
   45.5239   32.2897   42.3258 H   0  0  0  0  0  0  0  0  0  0  0  0
   47.3087   35.8371   43.3814 H   0  0  0  0  0  0  0  0  0  0  0  0
   49.3866   36.0808   41.9624 H   0  0  0  0  0  0  0  0  0  0  0  0
   47.5501   33.6242   38.9821 H   0  0  0  0  0  0  0  0  0  0  0  0
   43.5152   36.7527   41.6453 H   0  0  0  0  0  0  0  0  0  0  0  0
   41.4759   36.4329   40.3008 H   0  0  0  0  0  0  0  0  0  0  0  0
   40.8576   32.8387   39.2456 H   0  0  0  0  0  0  0  0  0  0  0  0
   39.6255   35.5944   39.0205 H   0  0  0  0  0  0  0  0  0  0  0  0
   40.9716   35.0337   38.0132 H   0  0  0  0  0  0  0  0  0  0  0  0
   39.6323   33.0391   37.3109 H   0  0  0  0  0  0  0  0  0  0  0  0
   38.7295   34.5675   36.9625 H   0  0  0  0  0  0  0  0  0  0  0  0
   37.3458   34.2849   38.8715 H   0  0  0  0  0  0  0  0  0  0  0  0
   37.3881   32.7065   37.9565 H   0  0  0  0  0  0  0  0  0  0  0  0
   37.4903   32.4797   40.4380 H   0  0  0  0  0  0  0  0  0  0  0  0
   38.8594   31.7403   39.5367 H   0  0  0  0  0  0  0  0  0  0  0  0
   39.6861   33.0154   41.5211 H   0  0  0  0  0  0  0  0  0  0  0  0
   38.9061   34.4938   40.9323 H   0  0  0  0  0  0  0  0  0  0  0  0
  1  5  1  0
  1  2  1  0
  2  3  1  0
  4  3  1  0
  5  4  1  0
  6  7  2  0
  6  1  1  0
  8  7  1  0
  9  8  2  0
 10  9  1  0
 10 11  2  0
 11  6  1  0
 12  1  1  0
 13 12  2  0
 14 13  1  0
 15 14  2  0
 15 16  1  0
 16 12  1  0
 17 15  1  0
 17 22  1  0
 18 17  1  0
 19 20  1  0
 19 18  1  0
 20 21  1  0
 21 22  1  0
  2 23  1  0
  2 24  1  0
  3 25  1  0
  3 26  1  0
  4 27  1  0
  4 28  1  0
  5 29  1  0
  5 30  1  0
  7 31  1  0
  8 32  1  0
 10 33  1  0
 13 34  1  0
 14 35  1  0
 17 36  1  0
 18 37  1  0
 18 38  1  0
 19 39  1  0
 19 40  1  0
 20 41  1  0
 20 42  1  0
 21 43  1  0
 21 44  1  0
 22 45  1  0
 22 46  1  0
M  ISO  8  23  13  24  13  25  13  26  13  27  13  28  13  29  13  30  13
M  ISO  8  31  14  32  14  33  14  34  14  35  14  36  13  37  13  38  13
M  ISO  8  39  13  40  13  41  13  42  13  43  13  44  13  45  13  46  13
M  END
>  <minimizedAffinity>  (1) 
-6.32883358

>  <minimizedRMSD>  (1) 
1.06894326

$$$$
