
     RDKit          3D

 40 43  0  0  0  0  0  0  0  0999 V2000
   45.0480   34.2430   42.6010 C   0  0  0  0  0  0  0  0  0  0  0  0
   45.1560   34.8060   43.9440 C   0  0  0  0  0  0  0  0  0  0  0  0
   45.4910   33.6640   44.9150 C   0  0  0  0  0  0  0  0  0  0  0  0
   45.6430   32.4230   44.0820 C   0  0  0  0  0  0  0  0  0  0  0  0
   44.8870   32.7140   42.8400 C   0  0  0  0  0  0  0  0  0  0  0  0
   46.2220   34.3720   41.7130 C   0  0  0  0  0  0  0  0  0  0  0  0
   47.3190   35.1420   42.1450 C   0  0  0  0  0  0  0  0  0  0  0  0
   48.4280   35.2590   41.2970 C   0  0  0  0  0  0  0  0  0  0  0  0
   48.3720   34.6130   40.0950 N   0  0  0  0  0  0  0  0  0  0  0  0
   47.2890   33.8770   39.7150 C   0  0  0  0  0  0  0  0  0  0  0  0
   46.2250   33.7560   40.5130 N   0  0  0  0  0  0  0  0  0  0  0  0
   43.8220   34.6860   41.9050 C   0  0  0  0  0  0  0  0  0  0  0  0
   43.1470   35.8130   41.6010 C   0  0  0  0  0  0  0  0  0  0  0  0
   41.9850   35.8220   40.9050 C   0  0  0  0  0  0  0  0  0  0  0  0
   41.5140   34.5600   40.5090 C   0  0  0  0  0  0  0  0  0  0  0  0
   42.7490   33.3940   41.1470 S   0  0  0  0  0  0  0  0  0  0  0  0
   40.3650   34.1690   39.7840 C   0  0  0  0  0  0  0  0  0  0  0  0
   39.3900   33.4370   40.4270 C   0  0  0  0  0  0  0  0  0  0  0  0
   38.2750   33.0760   39.6640 C   0  0  0  0  0  0  0  0  0  0  0  0
   38.1840   33.4550   38.3190 C   0  0  0  0  0  0  0  0  0  0  0  0
   39.1990   34.1980   37.7060 C   0  0  0  0  0  0  0  0  0  0  0  0
   40.3170   34.5620   38.4670 C   0  0  0  0  0  0  0  0  0  0  0  0
   45.9545   35.5622   43.9681 H   0  0  0  0  0  0  0  0  0  0  0  0
   44.2096   35.2864   44.2329 H   0  0  0  0  0  0  0  0  0  0  0  0
   46.4289   33.8811   45.4472 H   0  0  0  0  0  0  0  0  0  0  0  0
   44.7006   33.5406   45.6701 H   0  0  0  0  0  0  0  0  0  0  0  0
   46.7029   32.2335   43.8566 H   0  0  0  0  0  0  0  0  0  0  0  0
   45.2708   31.5253   44.5974 H   0  0  0  0  0  0  0  0  0  0  0  0
   43.8255   32.4548   42.9669 H   0  0  0  0  0  0  0  0  0  0  0  0
   45.2617   32.1271   41.9884 H   0  0  0  0  0  0  0  0  0  0  0  0
   47.3055   35.6401   43.1257 H   0  0  0  0  0  0  0  0  0  0  0  0
   49.3099   35.8485   41.5881 H   0  0  0  0  0  0  0  0  0  0  0  0
   47.2917   33.3752   38.7361 H   0  0  0  0  0  0  0  0  0  0  0  0
   43.5616   36.7753   41.9357 H   0  0  0  0  0  0  0  0  0  0  0  0
   41.4483   36.7522   40.6669 H   0  0  0  0  0  0  0  0  0  0  0  0
   39.4840   33.1516   41.4852 H   0  0  0  0  0  0  0  0  0  0  0  0
   37.4646   32.4908   40.1231 H   0  0  0  0  0  0  0  0  0  0  0  0
   37.2991   33.1635   37.7341 H   0  0  0  0  0  0  0  0  0  0  0  0
   39.1204   34.4901   36.6484 H   0  0  0  0  0  0  0  0  0  0  0  0
   41.1356   35.1472   38.0227 H   0  0  0  0  0  0  0  0  0  0  0  0
  1  5  1  0
  1  2  1  0
  2  3  1  0
  4  3  1  0
  5  4  1  0
  6  7  2  0
  6  1  1  0
  8  7  1  0
  9  8  2  0
 10  9  1  0
 10 11  2  0
 11  6  1  0
 12  1  1  0
 13 12  2  0
 14 13  1  0
 15 14  2  0
 15 16  1  0
 16 12  1  0
 17 18  2  0
 17 15  1  0
 19 18  1  0
 20 19  2  0
 21 20  1  0
 21 22  2  0
 22 17  1  0
  2 23  1  0
  2 24  1  0
  3 25  1  0
  3 26  1  0
  4 27  1  0
  4 28  1  0
  5 29  1  0
  5 30  1  0
  7 31  1  0
  8 32  1  0
 10 33  1  0
 13 34  1  0
 14 35  1  0
 18 36  1  0
 19 37  1  0
 20 38  1  0
 21 39  1  0
 22 40  1  0
M  ISO  8  23  13  24  13  25  13  26  13  27  13  28  13  29  13  30  13
M  ISO  8  31  14  32  14  33  14  34  14  35  14  36  14  37  14  38  14
M  ISO  2  39  14  40  14
M  END
>  <minimizedAffinity>  (1) 
-6.27576017

>  <minimizedRMSD>  (1) 
1.11594594

$$$$
