
     RDKit          3D

 41 45  0  0  0  0  0  0  0  0999 V2000
   45.9710   33.9480   42.7190 C   0  0  0  0  0  0  0  0  0  0  0  0
   46.1560   34.2180   44.1500 C   0  0  0  0  0  0  0  0  0  0  0  0
   46.7640   32.9850   44.8010 C   0  0  0  0  0  0  0  0  0  0  0  0
   46.9800   31.9780   43.7090 C   0  0  0  0  0  0  0  0  0  0  0  0
   46.0490   32.3970   42.6220 C   0  0  0  0  0  0  0  0  0  0  0  0
   47.0010   34.4390   41.7840 C   0  0  0  0  0  0  0  0  0  0  0  0
   47.9470   35.3610   42.2350 C   0  0  0  0  0  0  0  0  0  0  0  0
   48.9220   35.8260   41.3470 C   0  0  0  0  0  0  0  0  0  0  0  0
   48.8950   35.3500   40.0780 N   0  0  0  0  0  0  0  0  0  0  0  0
   47.9540   34.4500   39.6750 C   0  0  0  0  0  0  0  0  0  0  0  0
   47.0220   34.0030   40.5200 N   0  0  0  0  0  0  0  0  0  0  0  0
   44.6160   34.3230   42.2500 C   0  0  0  0  0  0  0  0  0  0  0  0
   43.8710   35.4220   42.0220 C   0  0  0  0  0  0  0  0  0  0  0  0
   42.6010   35.3590   41.5660 C   0  0  0  0  0  0  0  0  0  0  0  0
   42.0830   34.0810   41.3370 C   0  0  0  0  0  0  0  0  0  0  0  0
   43.4740   32.9630   41.7960 S   0  0  0  0  0  0  0  0  0  0  0  0
   40.8440   33.6840   40.8820 N   0  0  0  0  0  0  0  0  0  0  0  0
   40.0240   32.9650   41.6850 C   0  0  0  0  0  0  0  0  0  0  0  0
   38.8560   32.6820   41.0390 N   0  0  0  0  0  0  0  0  0  0  0  0
   38.9100   33.2140   39.8210 C   0  0  0  0  0  0  0  0  0  0  0  0
   38.1200   33.3170   38.6750 C   0  0  0  0  0  0  0  0  0  0  0  0
   38.5270   33.9690   37.5650 N   0  0  0  0  0  0  0  0  0  0  0  0
   39.7460   34.5570   37.5360 C   0  0  0  0  0  0  0  0  0  0  0  0
   40.5330   34.4720   38.6320 N   0  0  0  0  0  0  0  0  0  0  0  0
   40.1440   33.8290   39.7420 C   0  0  0  0  0  0  0  0  0  0  0  0
   46.8304   35.0771   44.2810 H   0  0  0  0  0  0  0  0  0  0  0  0
   45.1877   34.4512   44.6170 H   0  0  0  0  0  0  0  0  0  0  0  0
   47.7232   33.2412   45.2746 H   0  0  0  0  0  0  0  0  0  0  0  0
   46.1007   32.5838   45.5814 H   0  0  0  0  0  0  0  0  0  0  0  0
   48.0224   32.0026   43.3586 H   0  0  0  0  0  0  0  0  0  0  0  0
   46.7904   30.9486   44.0471 H   0  0  0  0  0  0  0  0  0  0  0  0
   45.0548   31.9515   42.7739 H   0  0  0  0  0  0  0  0  0  0  0  0
   46.3997   32.0663   41.6332 H   0  0  0  0  0  0  0  0  0  0  0  0
   47.9258   35.7172   43.2755 H   0  0  0  0  0  0  0  0  0  0  0  0
   49.6838   36.5522   41.6668 H   0  0  0  0  0  0  0  0  0  0  0  0
   47.9626   34.0862   38.6370 H   0  0  0  0  0  0  0  0  0  0  0  0
   44.3145   36.4100   42.2148 H   0  0  0  0  0  0  0  0  0  0  0  0
   42.0056   36.2659   41.3844 H   0  0  0  0  0  0  0  0  0  0  0  0
   40.2653   32.6535   42.7120 H   0  0  0  0  0  0  0  0  0  0  0  0
   37.1251   32.8478   38.6762 H   0  0  0  0  0  0  0  0  0  0  0  0
   40.0892   35.0931   36.6389 H   0  0  0  0  0  0  0  0  0  0  0  0
  1  2  1  0
  2  3  1  0
  4  3  1  0
  5  1  1  0
  5  4  1  0
  6  7  2  0
  6  1  1  0
  8  7  1  0
  9  8  2  0
 10  9  1  0
 10 11  2  0
 11  6  1  0
 12  1  1  0
 13 12  2  0
 14 13  1  0
 15 14  2  0
 15 16  1  0
 16 12  1  0
 17 15  1  0
 17 18  1  0
 19 18  2  0
 20 19  1  0
 21 20  2  0
 22 21  1  0
 23 22  2  0
 23 24  1  0
 24 25  2  0
 25 20  1  0
 25 17  1  0
  2 26  1  0
  2 27  1  0
  3 28  1  0
  3 29  1  0
  4 30  1  0
  4 31  1  0
  5 32  1  0
  5 33  1  0
  7 34  1  0
  8 35  1  0
 10 36  1  0
 13 37  1  0
 14 38  1  0
 18 39  1  0
 21 40  1  0
 23 41  1  0
M  ISO  8  26  13  27  13  28  13  29  13  30  13  31  13  32  13  33  13
M  ISO  8  34  14  35  14  36  14  37  14  38  14  39  14  40  14  41  14
M  END
>  <minimizedAffinity>  (1) 
-6.1999836

>  <minimizedRMSD>  (1) 
1.55530238

$$$$
