
     RDKit          3D

 43 46  0  0  0  0  0  0  0  0999 V2000
   45.1730   34.2950   42.6940 C   0  0  0  0  0  0  0  0  0  0  0  0
   45.1630   34.8780   44.0370 C   0  0  0  0  0  0  0  0  0  0  0  0
   45.5250   33.7850   45.0400 C   0  0  0  0  0  0  0  0  0  0  0  0
   45.7880   32.5270   44.2310 C   0  0  0  0  0  0  0  0  0  0  0  0
   45.0850   32.7730   42.9420 C   0  0  0  0  0  0  0  0  0  0  0  0
   46.3690   34.4930   41.8740 C   0  0  0  0  0  0  0  0  0  0  0  0
   47.4190   35.2690   42.3570 C   0  0  0  0  0  0  0  0  0  0  0  0
   48.5590   35.4570   41.5640 C   0  0  0  0  0  0  0  0  0  0  0  0
   48.5810   34.8610   40.3400 N   0  0  0  0  0  0  0  0  0  0  0  0
   47.5360   34.1080   39.8980 C   0  0  0  0  0  0  0  0  0  0  0  0
   46.4510   33.9350   40.6670 N   0  0  0  0  0  0  0  0  0  0  0  0
   43.9460   34.6780   41.9330 C   0  0  0  0  0  0  0  0  0  0  0  0
   43.2630   35.7570   41.5090 C   0  0  0  0  0  0  0  0  0  0  0  0
   42.1200   35.6640   40.8040 C   0  0  0  0  0  0  0  0  0  0  0  0
   41.6640   34.3800   40.5250 C   0  0  0  0  0  0  0  0  0  0  0  0
   42.9110   33.2880   41.2970 S   0  0  0  0  0  0  0  0  0  0  0  0
   40.6060   33.7640   39.8620 N   0  0  0  0  0  0  0  0  0  0  0  0
   40.8040   33.5610   38.4410 C   0  0  0  0  0  0  0  0  0  0  0  0
   39.6570   34.3480   37.7940 C   0  0  0  0  0  0  0  0  0  0  0  0
   38.4090   33.6020   38.1510 C   0  0  0  0  0  0  0  0  0  0  0  0
   38.1830   33.3700   39.6040 C   0  0  0  0  0  0  0  0  0  0  0  0
   39.3840   33.3550   40.4860 C   0  0  0  0  0  0  0  0  0  0  0  0
   45.8997   35.6929   44.0937 H   0  0  0  0  0  0  0  0  0  0  0  0
   44.1667   35.2849   44.2648 H   0  0  0  0  0  0  0  0  0  0  0  0
   46.4258   34.0696   45.6035 H   0  0  0  0  0  0  0  0  0  0  0  0
   44.7145   33.6281   45.7670 H   0  0  0  0  0  0  0  0  0  0  0  0
   46.8666   32.3860   44.0672 H   0  0  0  0  0  0  0  0  0  0  0  0
   45.4355   31.6167   44.7380 H   0  0  0  0  0  0  0  0  0  0  0  0
   44.0337   32.4574   43.0135 H   0  0  0  0  0  0  0  0  0  0  0  0
   45.5408   32.2032   42.1189 H   0  0  0  0  0  0  0  0  0  0  0  0
   47.3543   35.7309   43.3532 H   0  0  0  0  0  0  0  0  0  0  0  0
   49.4054   36.0641   41.9176 H   0  0  0  0  0  0  0  0  0  0  0  0
   47.5821   33.6388   38.9042 H   0  0  0  0  0  0  0  0  0  0  0  0
   43.6549   36.7566   41.7484 H   0  0  0  0  0  0  0  0  0  0  0  0
   41.5747   36.5575   40.4660 H   0  0  0  0  0  0  0  0  0  0  0  0
   41.7794   33.9563   38.1211 H   0  0  0  0  0  0  0  0  0  0  0  0
   40.8014   32.4977   38.1594 H   0  0  0  0  0  0  0  0  0  0  0  0
   39.7839   34.3847   36.7020 H   0  0  0  0  0  0  0  0  0  0  0  0
   39.6257   35.3890   38.1480 H   0  0  0  0  0  0  0  0  0  0  0  0
   37.5525   34.1733   37.7638 H   0  0  0  0  0  0  0  0  0  0  0  0
   38.5213   32.6031   37.7041 H   0  0  0  0  0  0  0  0  0  0  0  0
   37.1721   33.2161   40.0095 H   0  0  0  0  0  0  0  0  0  0  0  0
   39.3352   33.0511   41.5421 H   0  0  0  0  0  0  0  0  0  0  0  0
  1  5  1  0
  1  2  1  0
  2  3  1  0
  4  3  1  0
  5  4  1  0
  6  7  2  0
  6  1  1  0
  8  7  1  0
  9  8  2  0
 10  9  1  0
 10 11  2  0
 11  6  1  0
 12  1  1  0
 13 12  2  0
 14 13  1  0
 15 14  2  0
 15 16  1  0
 16 12  1  0
 17 22  1  0
 17 15  1  0
 18 17  1  0
 19 20  1  0
 19 18  1  0
 20 21  1  0
 21 22  2  0
  2 23  1  0
  2 24  1  0
  3 25  1  0
  3 26  1  0
  4 27  1  0
  4 28  1  0
  5 29  1  0
  5 30  1  0
  7 31  1  0
  8 32  1  0
 10 33  1  0
 13 34  1  0
 14 35  1  0
 18 36  1  0
 18 37  1  0
 19 38  1  0
 19 39  1  0
 20 40  1  0
 20 41  1  0
 21 42  1  0
 22 43  1  0
M  ISO  8  23  13  24  13  25  13  26  13  27  13  28  13  29  13  30  13
M  ISO  8  31  14  32  14  33  14  34  14  35  14  36  13  37  13  38  13
M  ISO  5  39  13  40  13  41  13  42  13  43  13
M  END
>  <minimizedAffinity>  (1) 
-6.18822622

>  <minimizedRMSD>  (1) 
0.925374508

$$$$
