
     RDKit          3D

 37 40  0  0  0  0  0  0  0  0999 V2000
   45.3720   34.1220   42.6020 C   0  0  0  0  0  0  0  0  0  0  0  0
   45.6080   34.6730   43.9310 C   0  0  0  0  0  0  0  0  0  0  0  0
   46.1110   33.5500   44.8390 C   0  0  0  0  0  0  0  0  0  0  0  0
   46.2120   32.3150   43.9780 C   0  0  0  0  0  0  0  0  0  0  0  0
   45.3090   32.5870   42.8210 C   0  0  0  0  0  0  0  0  0  0  0  0
   46.4380   34.3220   41.5960 C   0  0  0  0  0  0  0  0  0  0  0  0
   47.5280   35.1430   41.8950 C   0  0  0  0  0  0  0  0  0  0  0  0
   48.5280   35.3260   40.9370 C   0  0  0  0  0  0  0  0  0  0  0  0
   48.3740   34.6760   39.7410 N   0  0  0  0  0  0  0  0  0  0  0  0
   47.2970   33.8820   39.4860 C   0  0  0  0  0  0  0  0  0  0  0  0
   46.3370   33.7050   40.4000 N   0  0  0  0  0  0  0  0  0  0  0  0
   44.0510   34.5180   42.0580 C   0  0  0  0  0  0  0  0  0  0  0  0
   43.3930   35.6090   41.6150 C   0  0  0  0  0  0  0  0  0  0  0  0
   42.1160   35.5690   41.1710 C   0  0  0  0  0  0  0  0  0  0  0  0
   41.5060   34.3080   41.1980 C   0  0  0  0  0  0  0  0  0  0  0  0
   42.7890   33.2040   41.8660 S   0  0  0  0  0  0  0  0  0  0  0  0
   40.1710   33.9190   40.8000 C   0  0  0  0  0  0  0  0  0  0  0  0
   39.5340   34.4120   39.7170 C   0  0  0  0  0  0  0  0  0  0  0  0
   38.2940   33.7610   39.7270 C   0  0  0  0  0  0  0  0  0  0  0  0
   38.2290   32.9150   40.7970 N   0  0  0  0  0  0  0  0  0  0  0  0
   39.3990   33.0290   41.4470 N   0  0  0  0  0  0  0  0  0  0  0  0
   46.3636   35.4703   43.8734 H   0  0  0  0  0  0  0  0  0  0  0  0
   44.6762   35.0957   44.3349 H   0  0  0  0  0  0  0  0  0  0  0  0
   47.0979   33.8077   45.2509 H   0  0  0  0  0  0  0  0  0  0  0  0
   45.4291   33.3888   45.6870 H   0  0  0  0  0  0  0  0  0  0  0  0
   47.2465   32.1638   43.6359 H   0  0  0  0  0  0  0  0  0  0  0  0
   45.9282   31.4026   44.5229 H   0  0  0  0  0  0  0  0  0  0  0  0
   44.2806   32.2731   43.0532 H   0  0  0  0  0  0  0  0  0  0  0  0
   45.6167   32.0323   41.9223 H   0  0  0  0  0  0  0  0  0  0  0  0
   47.5980   35.6398   42.8739 H   0  0  0  0  0  0  0  0  0  0  0  0
   49.4016   35.9646   41.1345 H   0  0  0  0  0  0  0  0  0  0  0  0
   47.2155   33.3778   38.5117 H   0  0  0  0  0  0  0  0  0  0  0  0
   43.9189   36.5752   41.6148 H   0  0  0  0  0  0  0  0  0  0  0  0
   41.5913   36.4669   40.8125 H   0  0  0  0  0  0  0  0  0  0  0  0
   39.9034   35.1538   38.9936 H   0  0  0  0  0  0  0  0  0  0  0  0
   37.4945   33.9086   38.9861 H   0  0  0  0  0  0  0  0  0  0  0  0
   37.4377   32.3082   41.0551 H   0  0  0  0  0  0  0  0  0  0  0  0
  1  5  1  0
  1  2  1  0
  2  3  1  0
  4  3  1  0
  5  4  1  0
  6  7  2  0
  6  1  1  0
  8  7  1  0
  9  8  2  0
 10  9  1  0
 10 11  2  0
 11  6  1  0
 12  1  1  0
 13 12  2  0
 14 15  2  0
 14 13  1  0
 15 16  1  0
 16 12  1  0
 17 15  1  0
 17 21  2  0
 18 19  2  0
 18 17  1  0
 19 20  1  0
 20 21  1  0
  2 22  1  0
  2 23  1  0
  3 24  1  0
  3 25  1  0
  4 26  1  0
  4 27  1  0
  5 28  1  0
  5 29  1  0
  7 30  1  0
  8 31  1  0
 10 32  1  0
 13 33  1  0
 14 34  1  0
 18 35  1  0
 19 36  1  0
 20 37  1  0
M  ISO  8  22  13  23  13  24  13  25  13  26  13  27  13  28  13  29  13
M  ISO  8  30  14  31  14  32  14  33  14  34  14  35  14  36  14  37   9
M  END
>  <minimizedAffinity>  (1) 
-5.87259579

>  <minimizedRMSD>  (1) 
1.31215072

$$$$
