
     RDKit          3D

 38 41  0  0  0  0  0  0  0  0999 V2000
   44.9700   34.3560   42.4940 C   0  0  0  0  0  0  0  0  0  0  0  0
   44.9600   35.0370   43.7860 C   0  0  0  0  0  0  0  0  0  0  0  0
   45.3130   34.0240   44.8690 C   0  0  0  0  0  0  0  0  0  0  0  0
   45.5320   32.7040   44.1710 C   0  0  0  0  0  0  0  0  0  0  0  0
   44.8380   32.8470   42.8610 C   0  0  0  0  0  0  0  0  0  0  0  0
   46.1810   34.4510   41.6670 C   0  0  0  0  0  0  0  0  0  0  0  0
   47.2710   35.1900   42.1330 C   0  0  0  0  0  0  0  0  0  0  0  0
   48.4200   35.2810   41.3390 C   0  0  0  0  0  0  0  0  0  0  0  0
   48.4060   34.6300   40.1340 N   0  0  0  0  0  0  0  0  0  0  0  0
   47.3260   33.9220   39.7180 C   0  0  0  0  0  0  0  0  0  0  0  0
   46.2260   33.8310   40.4710 N   0  0  0  0  0  0  0  0  0  0  0  0
   43.7500   34.6730   41.6910 C   0  0  0  0  0  0  0  0  0  0  0  0
   43.0990   35.7460   41.1940 C   0  0  0  0  0  0  0  0  0  0  0  0
   41.9590   35.6290   40.4770 C   0  0  0  0  0  0  0  0  0  0  0  0
   41.4850   34.3260   40.2750 C   0  0  0  0  0  0  0  0  0  0  0  0
   42.7080   33.2750   41.1360 S   0  0  0  0  0  0  0  0  0  0  0  0
   40.3200   33.8670   39.5700 C   0  0  0  0  0  0  0  0  0  0  0  0
   39.9870   34.4930   38.4190 C   0  0  0  0  0  0  0  0  0  0  0  0
   38.8440   34.0060   37.7710 C   0  0  0  0  0  0  0  0  0  0  0  0
   38.1450   32.9790   38.2880 N   0  0  0  0  0  0  0  0  0  0  0  0
   38.5090   32.3840   39.4370 C   0  0  0  0  0  0  0  0  0  0  0  0
   39.6210   32.8430   40.0860 N   0  0  0  0  0  0  0  0  0  0  0  0
   45.7009   35.8501   43.7827 H   0  0  0  0  0  0  0  0  0  0  0  0
   43.9650   35.4643   43.9793 H   0  0  0  0  0  0  0  0  0  0  0  0
   46.2296   34.3327   45.3930 H   0  0  0  0  0  0  0  0  0  0  0  0
   44.5105   33.9482   45.6175 H   0  0  0  0  0  0  0  0  0  0  0  0
   46.6059   32.5177   44.0224 H   0  0  0  0  0  0  0  0  0  0  0  0
   45.1455   31.8560   44.7554 H   0  0  0  0  0  0  0  0  0  0  0  0
   43.7792   32.5629   42.9519 H   0  0  0  0  0  0  0  0  0  0  0  0
   45.2750   32.1956   42.0899 H   0  0  0  0  0  0  0  0  0  0  0  0
   47.2269   35.6933   43.1101 H   0  0  0  0  0  0  0  0  0  0  0  0
   49.2996   35.8528   41.6697 H   0  0  0  0  0  0  0  0  0  0  0  0
   47.3565   33.4136   38.7430 H   0  0  0  0  0  0  0  0  0  0  0  0
   43.5100   36.7495   41.3787 H   0  0  0  0  0  0  0  0  0  0  0  0
   41.4330   36.5074   40.0747 H   0  0  0  0  0  0  0  0  0  0  0  0
   40.5755   35.3309   38.0170 H   0  0  0  0  0  0  0  0  0  0  0  0
   38.5144   34.4685   36.8290 H   0  0  0  0  0  0  0  0  0  0  0  0
   37.9250   31.5463   39.8459 H   0  0  0  0  0  0  0  0  0  0  0  0
  1  5  1  0
  1  2  1  0
  2  3  1  0
  4  3  1  0
  5  4  1  0
  6  7  2  0
  6  1  1  0
  8  7  1  0
  9  8  2  0
 10  9  1  0
 10 11  2  0
 11  6  1  0
 12  1  1  0
 13 12  2  0
 14 13  1  0
 15 14  2  0
 15 16  1  0
 16 12  1  0
 17 22  1  0
 17 15  1  0
 18 17  2  0
 19 20  2  0
 19 18  1  0
 20 21  1  0
 21 22  2  0
  2 23  1  0
  2 24  1  0
  3 25  1  0
  3 26  1  0
  4 27  1  0
  4 28  1  0
  5 29  1  0
  5 30  1  0
  7 31  1  0
  8 32  1  0
 10 33  1  0
 13 34  1  0
 14 35  1  0
 18 36  1  0
 19 37  1  0
 21 38  1  0
M  ISO  8  23  13  24  13  25  13  26  13  27  13  28  13  29  13  30  13
M  ISO  8  31  14  32  14  33  14  34  14  35  14  36  14  37  14  38  14
M  END
>  <minimizedAffinity>  (1) 
-5.72327089

>  <minimizedRMSD>  (1) 
0.765459061

$$$$
