
     RDKit          3D

 42 44  0  0  0  0  0  0  0  0999 V2000
   44.8670   34.5460   42.3520 C   0  0  0  0  0  0  0  0  0  0  0  0
   44.8250   35.4410   43.5160 C   0  0  0  0  0  0  0  0  0  0  0  0
   45.1370   34.6240   44.7700 C   0  0  0  0  0  0  0  0  0  0  0  0
   45.4140   33.2250   44.3100 C   0  0  0  0  0  0  0  0  0  0  0  0
   44.7630   33.1240   42.9740 C   0  0  0  0  0  0  0  0  0  0  0  0
   46.1120   34.5240   41.5590 C   0  0  0  0  0  0  0  0  0  0  0  0
   47.2250   35.2440   42.0060 C   0  0  0  0  0  0  0  0  0  0  0  0
   48.4020   35.2140   41.2410 C   0  0  0  0  0  0  0  0  0  0  0  0
   48.3880   34.4750   40.0950 N   0  0  0  0  0  0  0  0  0  0  0  0
   47.2890   33.7950   39.7010 C   0  0  0  0  0  0  0  0  0  0  0  0
   46.1600   33.8150   40.4200 N   0  0  0  0  0  0  0  0  0  0  0  0
   43.6920   34.7140   41.4800 C   0  0  0  0  0  0  0  0  0  0  0  0
   43.0660   35.6410   40.7300 C   0  0  0  0  0  0  0  0  0  0  0  0
   41.9340   35.3990   40.0290 C   0  0  0  0  0  0  0  0  0  0  0  0
   41.4350   34.0960   40.1270 C   0  0  0  0  0  0  0  0  0  0  0  0
   42.6120   33.2430   41.2320 S   0  0  0  0  0  0  0  0  0  0  0  0
   40.2690   33.5600   39.5000 C   0  0  0  0  0  0  0  0  0  0  0  0
   40.0270   34.3440   38.2130 C   0  0  0  0  0  0  0  0  0  0  0  0
   39.0390   33.8370   40.3630 C   0  0  0  0  0  0  0  0  0  0  0  0
   40.4020   32.1200   39.1270 C   0  0  0  0  0  0  0  0  0  0  0  0
   45.5732   36.2386   43.3975 H   0  0  0  0  0  0  0  0  0  0  0  0
   43.8283   35.8981   43.6032 H   0  0  0  0  0  0  0  0  0  0  0  0
   46.0184   35.0367   45.2826 H   0  0  0  0  0  0  0  0  0  0  0  0
   44.2972   34.6497   45.4800 H   0  0  0  0  0  0  0  0  0  0  0  0
   46.4972   33.0525   44.2266 H   0  0  0  0  0  0  0  0  0  0  0  0
   45.0295   32.4737   45.0155 H   0  0  0  0  0  0  0  0  0  0  0  0
   43.7091   32.8276   43.0814 H   0  0  0  0  0  0  0  0  0  0  0  0
   45.2465   32.3655   42.3409 H   0  0  0  0  0  0  0  0  0  0  0  0
   47.1789   35.8232   42.9400 H   0  0  0  0  0  0  0  0  0  0  0  0
   49.3009   35.7654   41.5541 H   0  0  0  0  0  0  0  0  0  0  0  0
   47.3227   33.2120   38.7688 H   0  0  0  0  0  0  0  0  0  0  0  0
   43.4990   36.6512   40.6847 H   0  0  0  0  0  0  0  0  0  0  0  0
   41.4403   36.1736   39.4238 H   0  0  0  0  0  0  0  0  0  0  0  0
   39.7109   35.3679   38.4613 H   0  0  0  0  0  0  0  0  0  0  0  0
   40.9560   34.3794   37.6251 H   0  0  0  0  0  0  0  0  0  0  0  0
   39.2396   33.8496   37.6251 H   0  0  0  0  0  0  0  0  0  0  0  0
   39.3153   33.7748   41.4259 H   0  0  0  0  0  0  0  0  0  0  0  0
   38.6554   34.8440   40.1422 H   0  0  0  0  0  0  0  0  0  0  0  0
   38.2608   33.0916   40.1422 H   0  0  0  0  0  0  0  0  0  0  0  0
   40.4585   31.5085   40.0396 H   0  0  0  0  0  0  0  0  0  0  0  0
   39.5284   31.8128   38.5333 H   0  0  0  0  0  0  0  0  0  0  0  0
   41.3171   31.9780   38.5333 H   0  0  0  0  0  0  0  0  0  0  0  0
  1  5  1  0
  1  2  1  0
  2  3  1  0
  4  3  1  0
  5  4  1  0
  6  7  2  0
  6  1  1  0
  8  7  1  0
  9  8  2  0
 10  9  1  0
 10 11  2  0
 11  6  1  0
 12  1  1  0
 13 12  2  0
 14 15  2  0
 14 13  1  0
 15 16  1  0
 16 12  1  0
 17 15  1  0
 17 19  1  0
 18 17  1  0
 20 17  1  0
  2 21  1  0
  2 22  1  0
  3 23  1  0
  3 24  1  0
  4 25  1  0
  4 26  1  0
  5 27  1  0
  5 28  1  0
  7 29  1  0
  8 30  1  0
 10 31  1  0
 13 32  1  0
 14 33  1  0
 18 34  1  0
 18 35  1  0
 18 36  1  0
 19 37  1  0
 19 38  1  0
 19 39  1  0
 20 40  1  0
 20 41  1  0
 20 42  1  0
M  ISO  8  21  13  22  13  23  13  24  13  25  13  26  13  27  13  28  13
M  ISO  8  29  14  30  14  31  14  32  14  33  14  34   8  35   8  36   8
M  ISO  6  37   8  38   8  39   8  40   8  41   8  42   8
M  END
>  <minimizedAffinity>  (1) 
-5.52663422

>  <minimizedRMSD>  (1) 
0.371830553

$$$$
