
     RDKit          3D

 35 38  0  0  0  0  0  0  0  0999 V2000
   44.9800   34.3130   42.5350 C   0  0  0  0  0  0  0  0  0  0  0  0
   45.0650   35.0240   43.8040 C   0  0  0  0  0  0  0  0  0  0  0  0
   45.4440   34.0240   44.8980 C   0  0  0  0  0  0  0  0  0  0  0  0
   45.6350   32.6960   44.2120 C   0  0  0  0  0  0  0  0  0  0  0  0
   44.8830   32.8160   42.9330 C   0  0  0  0  0  0  0  0  0  0  0  0
   46.1610   34.3960   41.6420 C   0  0  0  0  0  0  0  0  0  0  0  0
   47.2750   35.1460   42.0490 C   0  0  0  0  0  0  0  0  0  0  0  0
   48.3860   35.2220   41.1970 C   0  0  0  0  0  0  0  0  0  0  0  0
   48.3050   34.5450   40.0040 N   0  0  0  0  0  0  0  0  0  0  0  0
   47.2050   33.8310   39.6520 C   0  0  0  0  0  0  0  0  0  0  0  0
   46.1430   33.7540   40.4580 N   0  0  0  0  0  0  0  0  0  0  0  0
   43.7380   34.6290   41.7950 C   0  0  0  0  0  0  0  0  0  0  0  0
   43.0720   35.6860   41.2870 C   0  0  0  0  0  0  0  0  0  0  0  0
   41.8940   35.5860   40.6340 C   0  0  0  0  0  0  0  0  0  0  0  0
   41.3910   34.2820   40.5120 C   0  0  0  0  0  0  0  0  0  0  0  0
   42.6370   33.2380   41.3470 S   0  0  0  0  0  0  0  0  0  0  0  0
   40.1680   33.7590   39.8880 C   0  0  0  0  0  0  0  0  0  0  0  0
   38.9120   33.9030   40.3510 N   0  0  0  0  0  0  0  0  0  0  0  0
   38.0810   33.3070   39.5350 O   0  0  0  0  0  0  0  0  0  0  0  0
   38.7510   32.7640   38.5320 C   0  0  0  0  0  0  0  0  0  0  0  0
   40.0450   33.0590   38.7710 N   0  0  0  0  0  0  0  0  0  0  0  0
   45.8319   35.8098   43.7381 H   0  0  0  0  0  0  0  0  0  0  0  0
   44.0970   35.4905   44.0395 H   0  0  0  0  0  0  0  0  0  0  0  0
   46.3766   34.3351   45.3914 H   0  0  0  0  0  0  0  0  0  0  0  0
   44.6646   33.9649   45.6720 H   0  0  0  0  0  0  0  0  0  0  0  0
   46.7017   32.5100   44.0182 H   0  0  0  0  0  0  0  0  0  0  0  0
   45.2774   31.8565   44.8263 H   0  0  0  0  0  0  0  0  0  0  0  0
   43.8323   32.5233   43.0757 H   0  0  0  0  0  0  0  0  0  0  0  0
   45.2954   32.1585   42.1535 H   0  0  0  0  0  0  0  0  0  0  0  0
   47.2766   35.6649   43.0189 H   0  0  0  0  0  0  0  0  0  0  0  0
   49.2822   35.7978   41.4713 H   0  0  0  0  0  0  0  0  0  0  0  0
   47.1883   33.3064   38.6853 H   0  0  0  0  0  0  0  0  0  0  0  0
   43.5131   36.6860   41.4115 H   0  0  0  0  0  0  0  0  0  0  0  0
   41.3677   36.4624   40.2278 H   0  0  0  0  0  0  0  0  0  0  0  0
   38.3409   32.1943   37.6851 H   0  0  0  0  0  0  0  0  0  0  0  0
  1  5  1  0
  1  2  1  0
  2  3  1  0
  4  3  1  0
  5  4  1  0
  6  7  2  0
  6  1  1  0
  8  7  1  0
  9  8  2  0
 10  9  1  0
 10 11  2  0
 11  6  1  0
 12  1  1  0
 13 12  2  0
 14 13  1  0
 15 14  2  0
 15 16  1  0
 16 12  1  0
 17 18  2  0
 17 15  1  0
 19 18  1  0
 20 21  2  0
 20 19  1  0
 21 17  1  0
  2 22  1  0
  2 23  1  0
  3 24  1  0
  3 25  1  0
  4 26  1  0
  4 27  1  0
  5 28  1  0
  5 29  1  0
  7 30  1  0
  8 31  1  0
 10 32  1  0
 13 33  1  0
 14 34  1  0
 20 35  1  0
M  ISO  8  22  13  23  13  24  13  25  13  26  13  27  13  28  13  29  13
M  ISO  6  30  14  31  14  32  14  33  14  34  14  35  14
M  END
>  <minimizedAffinity>  (1) 
-5.37905407

>  <minimizedRMSD>  (1) 
0.731469214

$$$$
