
     RDKit          3D

 37 40  0  0  0  0  0  0  0  0999 V2000
   44.9320   34.3360   42.5210 C   0  0  0  0  0  0  0  0  0  0  0  0
   44.9990   35.0710   43.7790 C   0  0  0  0  0  0  0  0  0  0  0  0
   45.3810   34.1010   44.8980 C   0  0  0  0  0  0  0  0  0  0  0  0
   45.5980   32.7660   44.2460 C   0  0  0  0  0  0  0  0  0  0  0  0
   44.8490   32.8440   42.9550 C   0  0  0  0  0  0  0  0  0  0  0  0
   46.1160   34.4040   41.6360 C   0  0  0  0  0  0  0  0  0  0  0  0
   47.2270   35.1530   42.0340 C   0  0  0  0  0  0  0  0  0  0  0  0
   48.3410   35.2200   41.1930 C   0  0  0  0  0  0  0  0  0  0  0  0
   48.2710   34.5350   40.0130 N   0  0  0  0  0  0  0  0  0  0  0  0
   47.1690   33.8140   39.6570 C   0  0  0  0  0  0  0  0  0  0  0  0
   46.1000   33.7460   40.4570 N   0  0  0  0  0  0  0  0  0  0  0  0
   43.6940   34.6190   41.7660 C   0  0  0  0  0  0  0  0  0  0  0  0
   43.0260   35.6510   41.2170 C   0  0  0  0  0  0  0  0  0  0  0  0
   41.8530   35.4980   40.5700 C   0  0  0  0  0  0  0  0  0  0  0  0
   41.3470   34.1980   40.4900 C   0  0  0  0  0  0  0  0  0  0  0  0
   42.5990   33.2060   41.3670 S   0  0  0  0  0  0  0  0  0  0  0  0
   40.1690   33.5440   39.9240 C   0  0  0  0  0  0  0  0  0  0  0  0
   38.9290   34.3750   39.9060 C   0  0  0  0  0  0  0  0  0  0  0  0
   39.0220   33.1870   40.7900 C   0  0  0  0  0  0  0  0  0  0  0  0
   45.7568   35.8647   43.7033 H   0  0  0  0  0  0  0  0  0  0  0  0
   44.0221   35.5269   43.9975 H   0  0  0  0  0  0  0  0  0  0  0  0
   46.3037   34.4367   45.3939 H   0  0  0  0  0  0  0  0  0  0  0  0
   44.5943   34.0471   45.6649 H   0  0  0  0  0  0  0  0  0  0  0  0
   46.6689   32.5940   44.0627 H   0  0  0  0  0  0  0  0  0  0  0  0
   45.2508   31.9348   44.8773 H   0  0  0  0  0  0  0  0  0  0  0  0
   43.8010   32.5424   43.0989 H   0  0  0  0  0  0  0  0  0  0  0  0
   45.2724   32.1717   42.1942 H   0  0  0  0  0  0  0  0  0  0  0  0
   47.2245   35.6834   42.9977 H   0  0  0  0  0  0  0  0  0  0  0  0
   49.2348   35.7987   41.4689 H   0  0  0  0  0  0  0  0  0  0  0  0
   47.1598   33.2796   38.6956 H   0  0  0  0  0  0  0  0  0  0  0  0
   43.4549   36.6606   41.2997 H   0  0  0  0  0  0  0  0  0  0  0  0
   41.3213   36.3533   40.1275 H   0  0  0  0  0  0  0  0  0  0  0  0
   40.7695   32.9705   39.2025 H   0  0  0  0  0  0  0  0  0  0  0  0
   38.9371   35.3861   40.3392 H   0  0  0  0  0  0  0  0  0  0  0  0
   38.2296   34.7153   39.1281 H   0  0  0  0  0  0  0  0  0  0  0  0
   38.4253   32.2899   40.5682 H   0  0  0  0  0  0  0  0  0  0  0  0
   38.8899   33.0106   41.8677 H   0  0  0  0  0  0  0  0  0  0  0  0
  1  5  1  0
  1  2  1  0
  2  3  1  0
  4  3  1  0
  5  4  1  0
  6  7  2  0
  6  1  1  0
  8  7  1  0
  9  8  2  0
 10  9  1  0
 10 11  2  0
 11  6  1  0
 12  1  1  0
 13 12  2  0
 14 13  1  0
 15 14  2  0
 15 16  1  0
 16 12  1  0
 17 15  1  0
 17 19  1  0
 18 17  1  0
 18 19  1  0
  2 20  1  0
  2 21  1  0
  3 22  1  0
  3 23  1  0
  4 24  1  0
  4 25  1  0
  5 26  1  0
  5 27  1  0
  7 28  1  0
  8 29  1  0
 10 30  1  0
 13 31  1  0
 14 32  1  0
 17 33  1  0
 18 34  1  0
 18 35  1  0
 19 36  1  0
 19 37  1  0
M  ISO  8  20  13  21  13  22  13  23  13  24  13  25  13  26  13  27  13
M  ISO  8  28  14  29  14  30  14  31  14  32  14  33  13  34  13  35  13
M  ISO  2  36  13  37  13
M  END
>  <minimizedAffinity>  (1) 
-5.33901262

>  <minimizedRMSD>  (1) 
1.08752942

$$$$
