
     RDKit          3D

 45 48  0  0  1  0  0  0  0  0999 V2000
   49.1000   30.4820   43.5540 C   0  0  0  0  0  0  0  0  0  0  0  0
   48.4350   31.6150   43.0740 C   0  0  0  0  0  0  0  0  0  0  0  0
   47.2320   32.0400   43.6540 C   0  0  0  0  0  0  0  0  0  0  0  0
   46.8200   31.2710   44.6710 N   0  0  0  0  0  0  0  0  0  0  0  0
   47.4260   30.1960   45.1470 C   0  0  0  0  0  0  0  0  0  0  0  0
   48.5560   29.8100   44.5900 N   0  0  0  0  0  0  0  0  0  0  0  0
   46.8320   29.5220   46.2250 N   0  0  0  0  0  0  0  0  0  0  0  0
   45.4740   29.6790   46.6720 C   0  0  0  0  0  0  0  0  0  0  0  0
   44.7320   28.3820   46.4170 C   0  0  0  0  0  0  0  0  0  0  0  0
   45.5720   27.2870   46.6400 O   0  0  0  0  0  0  0  0  0  0  0  0
   46.5560   27.5650   47.5830 C   0  0  0  0  0  0  0  0  0  0  0  0
   47.5240   28.5690   47.0340 C   0  0  2  0  0  0  0  0  0  0  0  0
   46.4710   33.2440   43.1870 C   0  0  0  0  0  0  0  0  0  0  0  0
   47.1020   34.3960   42.9250 C   0  0  0  0  0  0  0  0  0  0  0  0
   45.7240   35.4800   42.4090 S   0  0  0  0  0  0  0  0  0  0  0  0
   44.4730   34.0750   42.6620 C   0  0  0  0  0  0  0  0  0  0  0  0
   45.1820   33.2270   43.0150 N   0  0  0  0  0  0  0  0  0  0  0  0
   43.1030   34.3990   42.3760 N   0  0  0  0  0  0  0  0  0  0  0  0
   42.7070   35.3410   41.4270 C   0  0  0  0  0  0  0  0  0  0  0  0
   43.5560   35.5940   40.4760 N   0  0  0  0  0  0  0  0  0  0  0  0
   41.3950   35.9090   41.6400 N   0  0  0  0  0  0  0  0  0  0  0  0
   43.2200   36.2650   39.7400 H   0  0  0  0  0  0  0  0  0  0  0  0
   48.3010   29.2940   48.0360 C   0  0  0  0  0  0  0  0  0  0  0  0
   47.9940   30.5740   48.4460 C   0  0  0  0  0  0  0  0  0  0  0  0
   48.8000   31.1560   49.3990 C   0  0  0  0  0  0  0  0  0  0  0  0
   49.8830   30.4300   49.9040 C   0  0  0  0  0  0  0  0  0  0  0  0
   50.1710   29.1480   49.4790 C   0  0  0  0  0  0  0  0  0  0  0  0
   49.3600   28.5900   48.5350 N   0  0  0  0  0  0  0  0  0  0  0  0
   50.0434   30.1470   43.0981 H   0  0  0  0  0  0  0  0  0  0  0  0
   48.8612   32.1791   42.2313 H   0  0  0  0  0  0  0  0  0  0  0  0
   45.4614   29.9086   47.7477 H   0  0  0  0  0  0  0  0  0  0  0  0
   44.9905   30.5037   46.1278 H   0  0  0  0  0  0  0  0  0  0  0  0
   44.3821   28.3638   45.3743 H   0  0  0  0  0  0  0  0  0  0  0  0
   43.8757   28.3202   47.1047 H   0  0  0  0  0  0  0  0  0  0  0  0
   46.0860   27.9710   48.4909 H   0  0  0  0  0  0  0  0  0  0  0  0
   47.0962   26.6378   47.8249 H   0  0  0  0  0  0  0  0  0  0  0  0
   48.2429   27.9759   46.4498 H   0  0  0  0  0  0  0  0  0  0  0  0
   48.1742   34.6297   43.0009 H   0  0  0  0  0  0  0  0  0  0  0  0
   42.3688   33.9057   42.9038 H   0  0  0  0  0  0  0  0  0  0  0  0
   41.0259   36.6127   40.9847 H   0  0  0  0  0  0  0  0  0  0  0  0
   40.8292   35.6100   42.4471 H   0  0  0  0  0  0  0  0  0  0  0  0
   47.1325   31.1133   48.0252 H   0  0  0  0  0  0  0  0  0  0  0  0
   48.5951   32.1757   49.7572 H   0  0  0  0  0  0  0  0  0  0  0  0
   50.5268   30.8953   50.6649 H   0  0  0  0  0  0  0  0  0  0  0  0
   51.0281   28.5939   49.8892 H   0  0  0  0  0  0  0  0  0  0  0  0
  1  6  2  0
  2  1  1  0
  2  3  2  0
  3  4  1  0
  4  5  2  0
  5  7  1  0
  6  5  1  0
  7  8  1  0
  7 12  1  0
  9 10  1  0
  9  8  1  0
 10 11  1  0
 12 11  1  0
 12 23  1  0
 13  3  1  0
 14 13  2  0
 15 16  1  0
 15 14  1  0
 16 17  2  0
 17 13  1  0
 18 16  1  0
 19 21  1  0
 19 18  1  0
 20 19  2  0
 22 20  1  0
 23 24  2  0
 23 28  1  0
 24 25  1  0
 25 26  2  0
 27 26  1  0
 28 27  2  0
  1 29  1  0
  2 30  1  0
  8 31  1  0
  8 32  1  0
  9 33  1  0
  9 34  1  0
 11 35  1  0
 11 36  1  0
 12 37  1  6
 14 38  1  0
 18 39  1  0
 21 40  1  0
 21 41  1  0
 24 42  1  0
 25 43  1  0
 26 44  1  0
 27 45  1  0
M  ISO  8  29  14  30  14  31  13  32  13  33  13  34  13  35  13  36  13
M  ISO  6  37  13  38  14  42  14  43  14  44  14  45  14
M  END
>  <minimizedAffinity>  (1) 
-5.73777819

>  <minimizedRMSD>  (1) 
2.77075195

$$$$
