
     RDKit          3D

 33 35  0  0  0  0  0  0  0  0999 V2000
   44.9190   34.3100   42.4880 C   0  0  0  0  0  0  0  0  0  0  0  0
   45.0470   35.0310   43.7570 C   0  0  0  0  0  0  0  0  0  0  0  0
   45.4300   34.0260   44.8460 C   0  0  0  0  0  0  0  0  0  0  0  0
   45.5930   32.7040   44.1680 C   0  0  0  0  0  0  0  0  0  0  0  0
   44.8050   32.8250   42.9090 C   0  0  0  0  0  0  0  0  0  0  0  0
   46.0810   34.3600   41.5690 C   0  0  0  0  0  0  0  0  0  0  0  0
   47.2190   35.0880   41.9310 C   0  0  0  0  0  0  0  0  0  0  0  0
   48.3070   35.1270   41.0480 C   0  0  0  0  0  0  0  0  0  0  0  0
   48.1830   34.4340   39.8680 N   0  0  0  0  0  0  0  0  0  0  0  0
   47.0620   33.7370   39.5530 C   0  0  0  0  0  0  0  0  0  0  0  0
   46.0250   33.7010   40.3930 N   0  0  0  0  0  0  0  0  0  0  0  0
   43.6750   34.6520   41.7760 C   0  0  0  0  0  0  0  0  0  0  0  0
   43.0370   35.7130   41.2450 C   0  0  0  0  0  0  0  0  0  0  0  0
   41.8350   35.6090   40.6360 C   0  0  0  0  0  0  0  0  0  0  0  0
   41.2610   34.3290   40.5760 C   0  0  0  0  0  0  0  0  0  0  0  0
   42.5050   33.2920   41.4190 S   0  0  0  0  0  0  0  0  0  0  0  0
   40.0210   33.8900   40.0100 C   0  0  0  0  0  0  0  0  0  0  0  0
   39.2850   33.2200   40.9960 F   0  0  0  0  0  0  0  0  0  0  0  0
   40.1340   33.0130   38.9590 F   0  0  0  0  0  0  0  0  0  0  0  0
   39.2480   34.9970   39.6480 F   0  0  0  0  0  0  0  0  0  0  0  0
   45.8282   35.8006   43.6701 H   0  0  0  0  0  0  0  0  0  0  0  0
   44.0954   35.5205   44.0117 H   0  0  0  0  0  0  0  0  0  0  0  0
   46.3738   34.3261   45.3246 H   0  0  0  0  0  0  0  0  0  0  0  0
   44.6600   33.9777   45.6301 H   0  0  0  0  0  0  0  0  0  0  0  0
   46.6527   32.5103   43.9453 H   0  0  0  0  0  0  0  0  0  0  0  0
   45.2488   31.8690   44.7959 H   0  0  0  0  0  0  0  0  0  0  0  0
   43.7533   32.5559   43.0868 H   0  0  0  0  0  0  0  0  0  0  0  0
   45.1817   32.1499   42.1265 H   0  0  0  0  0  0  0  0  0  0  0  0
   47.2596   35.6210   42.8924 H   0  0  0  0  0  0  0  0  0  0  0  0
   49.2214   35.6887   41.2895 H   0  0  0  0  0  0  0  0  0  0  0  0
   47.0073   33.1966   38.5965 H   0  0  0  0  0  0  0  0  0  0  0  0
   43.5129   36.7026   41.3096 H   0  0  0  0  0  0  0  0  0  0  0  0
   41.3296   36.4868   40.2070 H   0  0  0  0  0  0  0  0  0  0  0  0
  1  5  1  0
  1  2  1  0
  2  3  1  0
  4  3  1  0
  5  4  1  0
  6  7  2  0
  6  1  1  0
  8  7  1  0
  9  8  2  0
 10  9  1  0
 10 11  2  0
 11  6  1  0
 12  1  1  0
 13 12  2  0
 14 13  1  0
 15 14  2  0
 15 16  1  0
 16 12  1  0
 17 15  1  0
 17 18  1  0
 19 17  1  0
 20 17  1  0
  2 21  1  0
  2 22  1  0
  3 23  1  0
  3 24  1  0
  4 25  1  0
  4 26  1  0
  5 27  1  0
  5 28  1  0
  7 29  1  0
  8 30  1  0
 10 31  1  0
 13 32  1  0
 14 33  1  0
M  ISO  8  21  13  22  13  23  13  24  13  25  13  26  13  27  13  28  13
M  ISO  5  29  14  30  14  31  14  32  14  33  14
M  END
>  <minimizedAffinity>  (1) 
-5.26373005

>  <minimizedRMSD>  (1) 
0.767074168

$$$$
