
     RDKit          3D

 36 38  0  0  0  0  0  0  0  0999 V2000
   44.8740   34.5170   42.3870 C   0  0  0  0  0  0  0  0  0  0  0  0
   44.8410   35.4190   43.5450 C   0  0  0  0  0  0  0  0  0  0  0  0
   45.1850   34.6220   44.7960 C   0  0  0  0  0  0  0  0  0  0  0  0
   45.4590   33.2130   44.3420 C   0  0  0  0  0  0  0  0  0  0  0  0
   44.7940   33.1030   43.0130 C   0  0  0  0  0  0  0  0  0  0  0  0
   46.1070   34.5100   41.5720 C   0  0  0  0  0  0  0  0  0  0  0  0
   47.2200   35.2410   42.0060 C   0  0  0  0  0  0  0  0  0  0  0  0
   48.3840   35.2230   41.2190 C   0  0  0  0  0  0  0  0  0  0  0  0
   48.3560   34.4910   40.0750 N   0  0  0  0  0  0  0  0  0  0  0  0
   47.2530   33.7930   39.6860 C   0  0  0  0  0  0  0  0  0  0  0  0
   46.1380   33.8000   40.4260 N   0  0  0  0  0  0  0  0  0  0  0  0
   43.6780   34.6700   41.5330 C   0  0  0  0  0  0  0  0  0  0  0  0
   43.0440   35.5980   40.7900 C   0  0  0  0  0  0  0  0  0  0  0  0
   41.9030   35.3450   40.1100 C   0  0  0  0  0  0  0  0  0  0  0  0
   41.4020   34.0430   40.2160 C   0  0  0  0  0  0  0  0  0  0  0  0
   42.6090   33.2030   41.3140 S   0  0  0  0  0  0  0  0  0  0  0  0
   40.2290   33.4670   39.6250 C   0  0  0  0  0  0  0  0  0  0  0  0
   39.1870   34.5430   39.4000 C   0  0  0  0  0  0  0  0  0  0  0  0
   45.5759   36.2257   43.4066 H   0  0  0  0  0  0  0  0  0  0  0  0
   43.8389   35.8612   43.6466 H   0  0  0  0  0  0  0  0  0  0  0  0
   46.0762   35.0446   45.2830 H   0  0  0  0  0  0  0  0  0  0  0  0
   44.3628   34.6523   45.5261 H   0  0  0  0  0  0  0  0  0  0  0  0
   46.5413   33.0398   44.2489 H   0  0  0  0  0  0  0  0  0  0  0  0
   45.0823   32.4666   45.0569 H   0  0  0  0  0  0  0  0  0  0  0  0
   43.7447   32.7955   43.1333 H   0  0  0  0  0  0  0  0  0  0  0  0
   45.2801   32.3488   42.3766 H   0  0  0  0  0  0  0  0  0  0  0  0
   47.1838   35.8167   42.9426 H   0  0  0  0  0  0  0  0  0  0  0  0
   49.2838   35.7806   41.5180 H   0  0  0  0  0  0  0  0  0  0  0  0
   47.2791   33.2153   38.7503 H   0  0  0  0  0  0  0  0  0  0  0  0
   43.4747   36.6086   40.7340 H   0  0  0  0  0  0  0  0  0  0  0  0
   41.3989   36.1166   39.5095 H   0  0  0  0  0  0  0  0  0  0  0  0
   40.4936   33.0076   38.6612 H   0  0  0  0  0  0  0  0  0  0  0  0
   39.8204   32.7012   40.3007 H   0  0  0  0  0  0  0  0  0  0  0  0
   38.8276   34.9141   40.3711 H   0  0  0  0  0  0  0  0  0  0  0  0
   39.6335   35.3730   38.8327 H   0  0  0  0  0  0  0  0  0  0  0  0
   38.3431   34.1233   38.8327 H   0  0  0  0  0  0  0  0  0  0  0  0
  1  5  1  0
  1  2  1  0
  2  3  1  0
  4  3  1  0
  5  4  1  0
  6  7  2  0
  6  1  1  0
  8  7  1  0
  9  8  2  0
 10  9  1  0
 10 11  2  0
 11  6  1  0
 12  1  1  0
 13 12  2  0
 14 15  2  0
 14 13  1  0
 15 16  1  0
 16 12  1  0
 17 15  1  0
 18 17  1  0
  2 19  1  0
  2 20  1  0
  3 21  1  0
  3 22  1  0
  4 23  1  0
  4 24  1  0
  5 25  1  0
  5 26  1  0
  7 27  1  0
  8 28  1  0
 10 29  1  0
 13 30  1  0
 14 31  1  0
 17 32  1  0
 17 33  1  0
 18 34  1  0
 18 35  1  0
 18 36  1  0
M  ISO  8  19  13  20  13  21  13  22  13  23  13  24  13  25  13  26  13
M  ISO  8  27  14  28  14  29  14  30  14  31  14  32   8  33   8  34   8
M  ISO  2  35   8  36   8
M  END
>  <minimizedAffinity>  (1) 
-5.03787756

>  <minimizedRMSD>  (1) 
0.452877223

$$$$
