
     RDKit          3D

 31 34  0  0  0  0  0  0  0  0999 V2000
   44.5580   35.9430   44.2800 C   0  0  0  0  0  0  0  0  0  0  0  0
   45.3470   35.8820   43.1120 C   0  0  0  0  0  0  0  0  0  0  0  0
   46.3500   34.9080   43.0490 C   0  0  0  0  0  0  0  0  0  0  0  0
   46.4970   34.0840   44.1200 N   0  0  0  0  0  0  0  0  0  0  0  0
   45.7380   34.1560   45.2210 C   0  0  0  0  0  0  0  0  0  0  0  0
   44.7700   35.0810   45.3090 N   0  0  0  0  0  0  0  0  0  0  0  0
   45.9610   33.2480   46.3040 N   0  0  0  0  0  0  0  0  0  0  0  0
   46.9590   32.3500   46.2260 C   0  0  0  0  0  0  0  0  0  0  0  0
   47.1630   31.4790   47.2760 C   0  0  0  0  0  0  0  0  0  0  0  0
   46.3920   31.4780   48.4220 C   0  0  0  0  0  0  0  0  0  0  0  0
   46.5180   30.7290   49.4020 O   0  0  0  0  0  0  0  0  0  0  0  0
   45.4110   32.4250   48.4040 N   0  0  0  0  0  0  0  0  0  0  0  0
   45.1720   33.3030   47.3910 C   0  0  0  0  0  0  0  0  0  0  0  0
   44.2260   34.1230   47.5160 O   0  0  0  0  0  0  0  0  0  0  0  0
   47.1320   34.8600   41.8710 N   0  0  0  0  0  0  0  0  0  0  0  0
   48.3450   35.4620   41.7270 C   0  0  0  0  0  0  0  0  0  0  0  0
   48.8300   35.2210   40.4720 N   0  0  0  0  0  0  0  0  0  0  0  0
   47.8930   34.4640   39.8550 C   0  0  0  0  0  0  0  0  0  0  0  0
   47.8670   33.9390   38.5800 C   0  0  0  0  0  0  0  0  0  0  0  0
   46.7720   33.2010   38.2230 N   0  0  0  0  0  0  0  0  0  0  0  0
   45.7590   32.9980   39.0920 C   0  0  0  0  0  0  0  0  0  0  0  0
   45.7530   33.5010   40.3520 N   0  0  0  0  0  0  0  0  0  0  0  0
   46.8360   34.2400   40.7280 C   0  0  0  0  0  0  0  0  0  0  0  0
   43.7615   36.6975   44.3587 H   0  0  0  0  0  0  0  0  0  0  0  0
   45.1791   36.5782   42.2770 H   0  0  0  0  0  0  0  0  0  0  0  0
   47.6045   32.3105   45.3362 H   0  0  0  0  0  0  0  0  0  0  0  0
   47.9812   30.7481   47.1966 H   0  0  0  0  0  0  0  0  0  0  0  0
   44.7969   32.4811   49.2290 H   0  0  0  0  0  0  0  0  0  0  0  0
   48.8562   36.0519   42.5020 H   0  0  0  0  0  0  0  0  0  0  0  0
   48.6957   34.1074   37.8765 H   0  0  0  0  0  0  0  0  0  0  0  0
   44.8985   32.3968   38.7632 H   0  0  0  0  0  0  0  0  0  0  0  0
  1  6  2  0
  2  1  1  0
  3  2  2  0
  3  4  1  0
  4  5  2  0
  5  6  1  0
  5  7  1  0
  7 13  1  0
  8  7  1  0
  8  9  2  0
  9 10  1  0
 10 11  2  0
 12 10  1  0
 13 14  2  0
 13 12  1  0
 15  3  1  0
 16 15  1  0
 17 16  2  0
 18 17  1  0
 18 23  2  0
 19 18  1  0
 20 19  2  0
 20 21  1  0
 21 22  2  0
 22 23  1  0
 23 15  1  0
  1 24  1  0
  2 25  1  0
  8 26  1  0
  9 27  1  0
 12 28  1  0
 16 29  1  0
 19 30  1  0
 21 31  1  0
M  ISO  8  24  14  25  14  26  14  27  14  28   9  29  14  30  14  31  14
M  END
>  <minimizedAffinity>  (1) 
-6.86764145

>  <minimizedRMSD>  (1) 
0.252372414

$$$$
