
     RDKit          3D

 28 30  0  0  0  0  0  0  0  0999 V2000
   44.5750   35.8350   44.3230 C   0  0  0  0  0  0  0  0  0  0  0  0
   45.3690   35.8310   43.1530 C   0  0  0  0  0  0  0  0  0  0  0  0
   46.4190   34.9190   43.0980 C   0  0  0  0  0  0  0  0  0  0  0  0
   46.6270   34.0870   44.1590 N   0  0  0  0  0  0  0  0  0  0  0  0
   45.8530   34.1220   45.2490 C   0  0  0  0  0  0  0  0  0  0  0  0
   44.8260   34.9870   45.3480 N   0  0  0  0  0  0  0  0  0  0  0  0
   46.0950   33.2360   46.3490 N   0  0  0  0  0  0  0  0  0  0  0  0
   45.1390   33.0190   47.3690 C   0  0  0  0  0  0  0  0  0  0  0  0
   44.3670   34.0320   47.6670 N   0  0  0  0  0  0  0  0  0  0  0  0
   45.0710   31.7280   48.0080 N   0  0  0  0  0  0  0  0  0  0  0  0
   43.6430   33.8900   48.4300 H   0  0  0  0  0  0  0  0  0  0  0  0
   47.2180   34.9130   41.9200 N   0  0  0  0  0  0  0  0  0  0  0  0
   48.3940   35.5430   41.7690 C   0  0  0  0  0  0  0  0  0  0  0  0
   48.8890   35.3270   40.5120 N   0  0  0  0  0  0  0  0  0  0  0  0
   47.9720   34.5350   39.8880 C   0  0  0  0  0  0  0  0  0  0  0  0
   47.9780   34.0240   38.6120 C   0  0  0  0  0  0  0  0  0  0  0  0
   46.9150   33.2510   38.2500 N   0  0  0  0  0  0  0  0  0  0  0  0
   45.9050   33.0080   39.1180 C   0  0  0  0  0  0  0  0  0  0  0  0
   45.8670   33.4950   40.3790 N   0  0  0  0  0  0  0  0  0  0  0  0
   46.9220   34.2720   40.7640 C   0  0  0  0  0  0  0  0  0  0  0  0
   43.7359   36.5419   44.4020 H   0  0  0  0  0  0  0  0  0  0  0  0
   45.1652   36.5204   42.3204 H   0  0  0  0  0  0  0  0  0  0  0  0
   46.9963   32.7399   46.3987 H   0  0  0  0  0  0  0  0  0  0  0  0
   44.3794   31.5574   48.7520 H   0  0  0  0  0  0  0  0  0  0  0  0
   45.7140   30.9765   47.7204 H   0  0  0  0  0  0  0  0  0  0  0  0
   48.8885   36.1462   42.5446 H   0  0  0  0  0  0  0  0  0  0  0  0
   48.8033   34.2295   37.9144 H   0  0  0  0  0  0  0  0  0  0  0  0
   45.0686   32.3793   38.7787 H   0  0  0  0  0  0  0  0  0  0  0  0
  1  6  2  0
  2  1  1  0
  3  2  2  0
  3  4  1  0
  4  5  2  0
  5  6  1  0
  5  7  1  0
  7  8  1  0
  8  9  2  0
  8 10  1  0
  9 11  1  0
 12  3  1  0
 13 12  1  0
 14 13  2  0
 15 14  1  0
 15 20  2  0
 16 15  1  0
 17 16  2  0
 17 18  1  0
 18 19  2  0
 19 20  1  0
 20 12  1  0
  1 21  1  0
  2 22  1  0
  7 23  1  0
 10 24  1  0
 10 25  1  0
 13 26  1  0
 16 27  1  0
 18 28  1  0
M  ISO  5  21  14  22  14  26  14  27  14  28  14
M  END
>  <minimizedAffinity>  (1) 
-6.75606632

>  <minimizedRMSD>  (1) 
0.208104163

$$$$
