
     RDKit          3D

 31 34  0  0  0  0  0  0  0  0999 V2000
   44.5210   35.7770   44.6390 C   0  0  0  0  0  0  0  0  0  0  0  0
   45.2790   35.7410   43.4590 C   0  0  0  0  0  0  0  0  0  0  0  0
   46.2820   34.7780   43.3270 C   0  0  0  0  0  0  0  0  0  0  0  0
   46.4800   33.9130   44.3580 N   0  0  0  0  0  0  0  0  0  0  0  0
   45.7330   33.9740   45.4830 C   0  0  0  0  0  0  0  0  0  0  0  0
   44.7670   34.8890   45.6280 N   0  0  0  0  0  0  0  0  0  0  0  0
   47.0290   34.7670   42.1260 N   0  0  0  0  0  0  0  0  0  0  0  0
   48.2180   35.4050   41.9420 C   0  0  0  0  0  0  0  0  0  0  0  0
   48.6710   35.1940   40.6740 N   0  0  0  0  0  0  0  0  0  0  0  0
   47.7380   34.4130   40.0780 C   0  0  0  0  0  0  0  0  0  0  0  0
   47.6920   33.9010   38.7970 C   0  0  0  0  0  0  0  0  0  0  0  0
   46.6180   33.1370   38.4660 N   0  0  0  0  0  0  0  0  0  0  0  0
   45.6360   32.8920   39.3630 C   0  0  0  0  0  0  0  0  0  0  0  0
   45.6410   33.3760   40.6310 N   0  0  0  0  0  0  0  0  0  0  0  0
   46.7090   34.1430   40.9790 C   0  0  0  0  0  0  0  0  0  0  0  0
   45.9860   33.0230   46.5600 C   0  0  0  0  0  0  0  0  0  0  0  0
   45.1490   32.9600   47.6590 C   0  0  0  0  0  0  0  0  0  0  0  0
   45.4280   32.0500   48.6440 C   0  0  0  0  0  0  0  0  0  0  0  0
   46.5230   31.1910   48.5760 C   0  0  0  0  0  0  0  0  0  0  0  0
   47.3800   31.2290   47.4880 C   0  0  0  0  0  0  0  0  0  0  0  0
   47.0580   32.1570   46.5290 C   0  0  0  0  0  0  0  0  0  0  0  0
   43.7263   36.5280   44.7594 H   0  0  0  0  0  0  0  0  0  0  0  0
   45.0862   36.4606   42.6497 H   0  0  0  0  0  0  0  0  0  0  0  0
   48.7370   36.0033   42.7053 H   0  0  0  0  0  0  0  0  0  0  0  0
   48.4939   34.1036   38.0719 H   0  0  0  0  0  0  0  0  0  0  0  0
   44.7875   32.2668   39.0480 H   0  0  0  0  0  0  0  0  0  0  0  0
   44.2777   33.6265   47.7404 H   0  0  0  0  0  0  0  0  0  0  0  0
   44.7643   31.9954   49.5195 H   0  0  0  0  0  0  0  0  0  0  0  0
   46.7084   30.4773   49.3923 H   0  0  0  0  0  0  0  0  0  0  0  0
   48.2528   30.5654   47.3993 H   0  0  0  0  0  0  0  0  0  0  0  0
   47.7189   32.2151   45.6516 H   0  0  0  0  0  0  0  0  0  0  0  0
  1  6  2  0
  2  1  1  0
  3  2  2  0
  3  4  1  0
  4  5  2  0
  5  6  1  0
  5 16  1  0
  7  3  1  0
  8  7  1  0
  9  8  2  0
 10  9  1  0
 10 15  2  0
 11 10  1  0
 12 11  2  0
 12 13  1  0
 13 14  2  0
 14 15  1  0
 15  7  1  0
 16 17  2  0
 17 18  1  0
 19 18  2  0
 20 19  1  0
 21 16  1  0
 21 20  2  0
  1 22  1  0
  2 23  1  0
  8 24  1  0
 11 25  1  0
 13 26  1  0
 17 27  1  0
 18 28  1  0
 19 29  1  0
 20 30  1  0
 21 31  1  0
M  ISO  8  22  14  23  14  24  14  25  14  26  14  27  14  28  14  29  14
M  ISO  2  30  14  31  14
M  END
>  <minimizedAffinity>  (1) 
-6.47653913

>  <minimizedRMSD>  (1) 
0.395067513

$$$$
