
     RDKit          3D

 28 31  0  0  0  0  0  0  0  0999 V2000
   44.4730   36.1020   44.3990 C   0  0  0  0  0  0  0  0  0  0  0  0
   45.2640   35.9690   43.2450 C   0  0  0  0  0  0  0  0  0  0  0  0
   46.1910   34.9400   43.1900 C   0  0  0  0  0  0  0  0  0  0  0  0
   46.3020   34.0920   44.2600 N   0  0  0  0  0  0  0  0  0  0  0  0
   45.5280   34.2490   45.3500 C   0  0  0  0  0  0  0  0  0  0  0  0
   44.6210   35.2320   45.4380 N   0  0  0  0  0  0  0  0  0  0  0  0
   46.9790   34.8270   42.0140 N   0  0  0  0  0  0  0  0  0  0  0  0
   48.2200   35.3540   41.8610 C   0  0  0  0  0  0  0  0  0  0  0  0
   48.7000   35.0640   40.6070 N   0  0  0  0  0  0  0  0  0  0  0  0
   47.7270   34.3510   40.0050 C   0  0  0  0  0  0  0  0  0  0  0  0
   47.6630   33.7940   38.7340 C   0  0  0  0  0  0  0  0  0  0  0  0
   46.5500   33.1190   38.3860 N   0  0  0  0  0  0  0  0  0  0  0  0
   45.5160   32.9860   39.2520 C   0  0  0  0  0  0  0  0  0  0  0  0
   45.5400   33.5160   40.5010 N   0  0  0  0  0  0  0  0  0  0  0  0
   46.6500   34.1980   40.8710 C   0  0  0  0  0  0  0  0  0  0  0  0
   45.6780   33.3230   46.4690 C   0  0  0  0  0  0  0  0  0  0  0  0
   46.6030   32.3120   46.5950 C   0  0  0  0  0  0  0  0  0  0  0  0
   46.4480   31.6610   47.7590 N   0  0  0  0  0  0  0  0  0  0  0  0
   45.4050   32.2640   48.3900 C   0  0  0  0  0  0  0  0  0  0  0  0
   44.9530   33.2650   47.5990 N   0  0  0  0  0  0  0  0  0  0  0  0
   43.7312   36.9116   44.4641 H   0  0  0  0  0  0  0  0  0  0  0  0
   45.1498   36.6672   42.4027 H   0  0  0  0  0  0  0  0  0  0  0  0
   48.7613   35.9282   42.6274 H   0  0  0  0  0  0  0  0  0  0  0  0
   48.5005   33.9014   38.0289 H   0  0  0  0  0  0  0  0  0  0  0  0
   44.6243   32.4278   38.9305 H   0  0  0  0  0  0  0  0  0  0  0  0
   47.3676   32.0695   45.8423 H   0  0  0  0  0  0  0  0  0  0  0  0
   44.9987   31.9861   49.3737 H   0  0  0  0  0  0  0  0  0  0  0  0
   44.1681   33.8908   47.8295 H   0  0  0  0  0  0  0  0  0  0  0  0
  1  6  2  0
  2  1  1  0
  3  2  2  0
  3  4  1  0
  4  5  2  0
  5  6  1  0
  5 16  1  0
  7  3  1  0
  8  7  1  0
  9  8  2  0
 10  9  1  0
 10 15  2  0
 11 10  1  0
 12 11  2  0
 12 13  1  0
 13 14  2  0
 14 15  1  0
 15  7  1  0
 16 17  2  0
 16 20  1  0
 17 18  1  0
 18 19  2  0
 20 19  1  0
  1 21  1  0
  2 22  1  0
  8 23  1  0
 11 24  1  0
 13 25  1  0
 17 26  1  0
 19 27  1  0
 20 28  1  0
M  ISO  8  21  14  22  14  23  14  24  14  25  14  26  14  27  14  28   9
M  END
>  <minimizedAffinity>  (1) 
-6.44388103

>  <minimizedRMSD>  (1) 
0.466279566

$$$$
