
     RDKit          3D

 28 31  0  0  0  0  0  0  0  0999 V2000
   44.4850   35.9260   44.4850 C   0  0  0  0  0  0  0  0  0  0  0  0
   45.2530   35.8710   43.2980 C   0  0  0  0  0  0  0  0  0  0  0  0
   46.2420   34.8760   43.2350 C   0  0  0  0  0  0  0  0  0  0  0  0
   46.4210   34.0220   44.2960 N   0  0  0  0  0  0  0  0  0  0  0  0
   45.6600   34.1230   45.3970 C   0  0  0  0  0  0  0  0  0  0  0  0
   44.7000   35.0550   45.5100 N   0  0  0  0  0  0  0  0  0  0  0  0
   45.8340   33.2440   46.5040 N   0  0  0  0  0  0  0  0  0  0  0  0
   45.0520   33.0760   47.5810 N   0  0  0  0  0  0  0  0  0  0  0  0
   45.5940   32.1390   48.3820 C   0  0  0  0  0  0  0  0  0  0  0  0
   46.7740   31.6680   47.8220 C   0  0  0  0  0  0  0  0  0  0  0  0
   46.8850   32.3870   46.6470 C   0  0  0  0  0  0  0  0  0  0  0  0
   47.0170   34.8170   42.0460 N   0  0  0  0  0  0  0  0  0  0  0  0
   48.2340   35.4020   41.8760 C   0  0  0  0  0  0  0  0  0  0  0  0
   48.7100   35.1600   40.6310 N   0  0  0  0  0  0  0  0  0  0  0  0
   47.7540   34.4030   40.0210 C   0  0  0  0  0  0  0  0  0  0  0  0
   47.7150   33.8720   38.7430 C   0  0  0  0  0  0  0  0  0  0  0  0
   46.6150   33.1450   38.4010 N   0  0  0  0  0  0  0  0  0  0  0  0
   45.6100   32.9560   39.2810 C   0  0  0  0  0  0  0  0  0  0  0  0
   45.6120   33.4600   40.5390 N   0  0  0  0  0  0  0  0  0  0  0  0
   46.6880   34.1850   40.9060 C   0  0  0  0  0  0  0  0  0  0  0  0
   43.6978   36.6881   44.5822 H   0  0  0  0  0  0  0  0  0  0  0  0
   45.0841   36.5717   42.4671 H   0  0  0  0  0  0  0  0  0  0  0  0
   45.1663   31.7980   49.3364 H   0  0  0  0  0  0  0  0  0  0  0  0
   47.4582   30.9038   48.2193 H   0  0  0  0  0  0  0  0  0  0  0  0
   47.7087   32.2823   45.9256 H   0  0  0  0  0  0  0  0  0  0  0  0
   48.7586   35.9900   42.6435 H   0  0  0  0  0  0  0  0  0  0  0  0
   48.5393   34.0308   38.0322 H   0  0  0  0  0  0  0  0  0  0  0  0
   44.7423   32.3608   38.9602 H   0  0  0  0  0  0  0  0  0  0  0  0
  1  6  2  0
  2  1  1  0
  3  2  2  0
  3  4  1  0
  4  5  2  0
  5  6  1  0
  5  7  1  0
  7 11  1  0
  7  8  1  0
  8  9  2  0
 10  9  1  0
 11 10  2  0
 12  3  1  0
 13 12  1  0
 14 13  2  0
 15 14  1  0
 15 20  2  0
 16 15  1  0
 17 16  2  0
 17 18  1  0
 18 19  2  0
 19 20  1  0
 20 12  1  0
  1 21  1  0
  2 22  1  0
  9 23  1  0
 10 24  1  0
 11 25  1  0
 13 26  1  0
 16 27  1  0
 18 28  1  0
M  ISO  8  21  14  22  14  23  14  24  14  25  14  26  14  27  14  28  14
M  END
>  <minimizedAffinity>  (1) 
-6.4004941

>  <minimizedRMSD>  (1) 
0.30431968

$$$$
