
     RDKit          3D

 30 33  0  0  0  0  0  0  0  0999 V2000
   44.5200   35.7910   44.6300 C   0  0  0  0  0  0  0  0  0  0  0  0
   45.2720   35.7690   43.4320 C   0  0  0  0  0  0  0  0  0  0  0  0
   46.2610   34.8020   43.3220 C   0  0  0  0  0  0  0  0  0  0  0  0
   46.4550   33.9380   44.3530 N   0  0  0  0  0  0  0  0  0  0  0  0
   45.7250   33.9830   45.4770 C   0  0  0  0  0  0  0  0  0  0  0  0
   44.7530   34.9100   45.6220 N   0  0  0  0  0  0  0  0  0  0  0  0
   47.0190   34.7770   42.1200 N   0  0  0  0  0  0  0  0  0  0  0  0
   48.2230   35.3870   41.9520 C   0  0  0  0  0  0  0  0  0  0  0  0
   48.6880   35.1730   40.6860 N   0  0  0  0  0  0  0  0  0  0  0  0
   47.7500   34.4230   40.0780 C   0  0  0  0  0  0  0  0  0  0  0  0
   47.6880   33.9070   38.7890 C   0  0  0  0  0  0  0  0  0  0  0  0
   46.6060   33.1760   38.4490 N   0  0  0  0  0  0  0  0  0  0  0  0
   45.6090   32.9520   39.3370 C   0  0  0  0  0  0  0  0  0  0  0  0
   45.6180   33.4310   40.6060 N   0  0  0  0  0  0  0  0  0  0  0  0
   46.7000   34.1710   40.9730 C   0  0  0  0  0  0  0  0  0  0  0  0
   45.9930   33.0150   46.5460 C   0  0  0  0  0  0  0  0  0  0  0  0
   45.1520   32.9810   47.6450 C   0  0  0  0  0  0  0  0  0  0  0  0
   45.4980   32.0280   48.5970 C   0  0  0  0  0  0  0  0  0  0  0  0
   46.5920   31.1820   48.4610 C   0  0  0  0  0  0  0  0  0  0  0  0
   47.3840   31.2790   47.3330 C   0  0  0  0  0  0  0  0  0  0  0  0
   47.0580   32.2040   46.3960 N   0  0  0  0  0  0  0  0  0  0  0  0
   43.7277   36.5439   44.7542 H   0  0  0  0  0  0  0  0  0  0  0  0
   45.0808   36.4881   42.6219 H   0  0  0  0  0  0  0  0  0  0  0  0
   48.7468   35.9689   42.7247 H   0  0  0  0  0  0  0  0  0  0  0  0
   48.4975   34.0892   38.0669 H   0  0  0  0  0  0  0  0  0  0  0  0
   44.7471   32.3505   39.0127 H   0  0  0  0  0  0  0  0  0  0  0  0
   44.2855   33.6495   47.7557 H   0  0  0  0  0  0  0  0  0  0  0  0
   44.8764   31.9398   49.5002 H   0  0  0  0  0  0  0  0  0  0  0  0
   46.8248   30.4436   49.2424 H   0  0  0  0  0  0  0  0  0  0  0  0
   48.2566   30.6229   47.1983 H   0  0  0  0  0  0  0  0  0  0  0  0
  1  6  2  0
  2  1  1  0
  3  2  2  0
  3  4  1  0
  4  5  2  0
  5  6  1  0
  5 16  1  0
  7  3  1  0
  8  7  1  0
  9  8  2  0
 10  9  1  0
 10 15  2  0
 11 10  1  0
 12 11  2  0
 12 13  1  0
 13 14  2  0
 14 15  1  0
 15  7  1  0
 16 17  2  0
 17 18  1  0
 19 18  2  0
 20 19  1  0
 21 16  1  0
 21 20  2  0
  1 22  1  0
  2 23  1  0
  8 24  1  0
 11 25  1  0
 13 26  1  0
 17 27  1  0
 18 28  1  0
 19 29  1  0
 20 30  1  0
M  ISO  8  22  14  23  14  24  14  25  14  26  14  27  14  28  14  29  14
M  ISO  1  30  14
M  END
>  <minimizedAffinity>  (1) 
-6.35993814

>  <minimizedRMSD>  (1) 
0.342034101

$$$$
