
     RDKit          3D

 29 32  0  0  0  0  0  0  0  0999 V2000
   44.5370   35.7700   44.6250 C   0  0  0  0  0  0  0  0  0  0  0  0
   45.2870   35.7540   43.4400 C   0  0  0  0  0  0  0  0  0  0  0  0
   46.2920   34.7860   43.3120 C   0  0  0  0  0  0  0  0  0  0  0  0
   46.4880   33.9160   44.3380 N   0  0  0  0  0  0  0  0  0  0  0  0
   45.7470   33.9600   45.4630 C   0  0  0  0  0  0  0  0  0  0  0  0
   44.7690   34.8860   45.6140 N   0  0  0  0  0  0  0  0  0  0  0  0
   47.0400   34.7810   42.1110 N   0  0  0  0  0  0  0  0  0  0  0  0
   48.2210   35.4210   41.9280 C   0  0  0  0  0  0  0  0  0  0  0  0
   48.6750   35.2100   40.6560 N   0  0  0  0  0  0  0  0  0  0  0  0
   47.7470   34.4270   40.0610 C   0  0  0  0  0  0  0  0  0  0  0  0
   47.7020   33.9130   38.7770 C   0  0  0  0  0  0  0  0  0  0  0  0
   46.6280   33.1420   38.4450 N   0  0  0  0  0  0  0  0  0  0  0  0
   45.6540   32.8970   39.3440 C   0  0  0  0  0  0  0  0  0  0  0  0
   45.6570   33.3780   40.6070 N   0  0  0  0  0  0  0  0  0  0  0  0
   46.7140   34.1480   40.9630 C   0  0  0  0  0  0  0  0  0  0  0  0
   45.9700   33.0180   46.5550 C   0  0  0  0  0  0  0  0  0  0  0  0
   47.0350   32.1420   46.5270 C   0  0  0  0  0  0  0  0  0  0  0  0
   47.3070   31.2180   47.5360 C   0  0  0  0  0  0  0  0  0  0  0  0
   46.4360   31.2310   48.5760 N   0  0  0  0  0  0  0  0  0  0  0  0
   45.3900   32.0780   48.6230 C   0  0  0  0  0  0  0  0  0  0  0  0
   45.1590   32.9630   47.6220 N   0  0  0  0  0  0  0  0  0  0  0  0
   43.7425   36.5205   44.7492 H   0  0  0  0  0  0  0  0  0  0  0  0
   45.0923   36.4789   42.6359 H   0  0  0  0  0  0  0  0  0  0  0  0
   48.7379   36.0217   42.6909 H   0  0  0  0  0  0  0  0  0  0  0  0
   48.5028   34.1188   38.0515 H   0  0  0  0  0  0  0  0  0  0  0  0
   44.8070   32.2687   39.0313 H   0  0  0  0  0  0  0  0  0  0  0  0
   47.7092   32.1739   45.6584 H   0  0  0  0  0  0  0  0  0  0  0  0
   48.1641   30.5299   47.4917 H   0  0  0  0  0  0  0  0  0  0  0  0
   44.7114   32.0514   49.4883 H   0  0  0  0  0  0  0  0  0  0  0  0
  1  6  2  0
  2  1  1  0
  3  2  2  0
  3  4  1  0
  4  5  2  0
  5  6  1  0
  5 16  1  0
  7  3  1  0
  8  7  1  0
  9  8  2  0
 10  9  1  0
 10 15  2  0
 11 10  1  0
 12 11  2  0
 12 13  1  0
 13 14  2  0
 14 15  1  0
 15  7  1  0
 16 21  1  0
 17 16  2  0
 17 18  1  0
 18 19  2  0
 19 20  1  0
 21 20  2  0
  1 22  1  0
  2 23  1  0
  8 24  1  0
 11 25  1  0
 13 26  1  0
 17 27  1  0
 18 28  1  0
 20 29  1  0
M  ISO  8  22  14  23  14  24  14  25  14  26  14  27  14  28  14  29  14
M  END
>  <minimizedAffinity>  (1) 
-6.25001001

>  <minimizedRMSD>  (1) 
0.384157419

$$$$
