
     RDKit          3D

 29 32  0  0  0  0  0  0  0  0999 V2000
   44.5210   35.7930   44.6250 C   0  0  0  0  0  0  0  0  0  0  0  0
   45.2720   35.7780   43.4220 C   0  0  0  0  0  0  0  0  0  0  0  0
   46.2580   34.8090   43.3220 C   0  0  0  0  0  0  0  0  0  0  0  0
   46.4640   33.9280   44.3550 N   0  0  0  0  0  0  0  0  0  0  0  0
   45.7270   33.9850   45.4690 C   0  0  0  0  0  0  0  0  0  0  0  0
   44.7580   34.9040   45.6190 N   0  0  0  0  0  0  0  0  0  0  0  0
   47.0230   34.7840   42.1130 N   0  0  0  0  0  0  0  0  0  0  0  0
   48.2250   35.3950   41.9400 C   0  0  0  0  0  0  0  0  0  0  0  0
   48.6900   35.1830   40.6850 N   0  0  0  0  0  0  0  0  0  0  0  0
   47.7480   34.4230   40.0770 C   0  0  0  0  0  0  0  0  0  0  0  0
   47.6960   33.9110   38.7900 C   0  0  0  0  0  0  0  0  0  0  0  0
   46.6080   33.1750   38.4510 N   0  0  0  0  0  0  0  0  0  0  0  0
   45.6050   32.9470   39.3380 C   0  0  0  0  0  0  0  0  0  0  0  0
   45.6270   33.4340   40.6060 N   0  0  0  0  0  0  0  0  0  0  0  0
   46.6980   34.1680   40.9660 C   0  0  0  0  0  0  0  0  0  0  0  0
   45.9840   33.0250   46.5400 C   0  0  0  0  0  0  0  0  0  0  0  0
   45.1870   32.9480   47.6590 C   0  0  0  0  0  0  0  0  0  0  0  0
   45.5420   31.9940   48.5980 C   0  0  0  0  0  0  0  0  0  0  0  0
   46.6080   31.1960   48.4140 N   0  0  0  0  0  0  0  0  0  0  0  0
   47.3740   31.2780   47.3230 C   0  0  0  0  0  0  0  0  0  0  0  0
   47.0400   32.2130   46.3860 N   0  0  0  0  0  0  0  0  0  0  0  0
   43.7277   36.5440   44.7538 H   0  0  0  0  0  0  0  0  0  0  0  0
   45.0821   36.4971   42.6115 H   0  0  0  0  0  0  0  0  0  0  0  0
   48.7474   35.9800   42.7113 H   0  0  0  0  0  0  0  0  0  0  0  0
   48.5071   34.0947   38.0700 H   0  0  0  0  0  0  0  0  0  0  0  0
   44.7419   32.3450   39.0174 H   0  0  0  0  0  0  0  0  0  0  0  0
   44.3174   33.6067   47.7997 H   0  0  0  0  0  0  0  0  0  0  0  0
   44.9399   31.8871   49.5123 H   0  0  0  0  0  0  0  0  0  0  0  0
   48.2420   30.6166   47.1845 H   0  0  0  0  0  0  0  0  0  0  0  0
  1  6  2  0
  2  1  1  0
  3  2  2  0
  3  4  1  0
  4  5  2  0
  5  6  1  0
  5 16  1  0
  7  3  1  0
  8  7  1  0
  9  8  2  0
 10  9  1  0
 10 15  2  0
 11 10  1  0
 12 11  2  0
 12 13  1  0
 13 14  2  0
 14 15  1  0
 15  7  1  0
 16 17  2  0
 17 18  1  0
 19 18  2  0
 20 19  1  0
 21 16  1  0
 21 20  2  0
  1 22  1  0
  2 23  1  0
  8 24  1  0
 11 25  1  0
 13 26  1  0
 17 27  1  0
 18 28  1  0
 20 29  1  0
M  ISO  8  22  14  23  14  24  14  25  14  26  14  27  14  28  14  29  14
M  END
>  <minimizedAffinity>  (1) 
-6.22736835

>  <minimizedRMSD>  (1) 
0.389079571

$$$$
