
     RDKit          3D

 34 37  0  0  0  0  0  0  0  0999 V2000
   44.6030   35.6100   44.8600 C   0  0  0  0  0  0  0  0  0  0  0  0
   45.3320   35.6440   43.6510 C   0  0  0  0  0  0  0  0  0  0  0  0
   46.2940   34.6590   43.4450 C   0  0  0  0  0  0  0  0  0  0  0  0
   46.4880   33.7130   44.4110 N   0  0  0  0  0  0  0  0  0  0  0  0
   45.7710   33.7150   45.5500 C   0  0  0  0  0  0  0  0  0  0  0  0
   44.8360   34.6500   45.7810 N   0  0  0  0  0  0  0  0  0  0  0  0
   45.9790   32.7260   46.5530 N   0  0  0  0  0  0  0  0  0  0  0  0
   45.0300   32.5030   47.6280 C   0  0  0  0  0  0  0  0  0  0  0  0
   45.8120   32.5040   48.9300 C   0  0  0  0  0  0  0  0  0  0  0  0
   46.8790   31.6070   48.8800 O   0  0  0  0  0  0  0  0  0  0  0  0
   47.7860   32.0880   47.9460 C   0  0  0  0  0  0  0  0  0  0  0  0
   47.1520   31.8710   46.5690 C   0  0  0  0  0  0  0  0  0  0  0  0
   47.0240   34.6980   42.2290 N   0  0  0  0  0  0  0  0  0  0  0  0
   48.1820   35.3690   42.0350 C   0  0  0  0  0  0  0  0  0  0  0  0
   48.6200   35.2000   40.7550 N   0  0  0  0  0  0  0  0  0  0  0  0
   47.6980   34.4040   40.1610 C   0  0  0  0  0  0  0  0  0  0  0  0
   47.6530   33.9230   38.8680 C   0  0  0  0  0  0  0  0  0  0  0  0
   46.5970   33.1320   38.5320 N   0  0  0  0  0  0  0  0  0  0  0  0
   45.6290   32.8350   39.4430 C   0  0  0  0  0  0  0  0  0  0  0  0
   45.6460   33.2920   40.7220 N   0  0  0  0  0  0  0  0  0  0  0  0
   46.6950   34.0830   41.0710 C   0  0  0  0  0  0  0  0  0  0  0  0
   43.8362   36.3745   45.0539 H   0  0  0  0  0  0  0  0  0  0  0  0
   45.1459   36.4230   42.8970 H   0  0  0  0  0  0  0  0  0  0  0  0
   44.2790   33.3067   47.6396 H   0  0  0  0  0  0  0  0  0  0  0  0
   44.5045   31.5464   47.4907 H   0  0  0  0  0  0  0  0  0  0  0  0
   46.2026   33.5159   49.1128 H   0  0  0  0  0  0  0  0  0  0  0  0
   45.1364   32.1957   49.7415 H   0  0  0  0  0  0  0  0  0  0  0  0
   47.9717   33.1591   48.1139 H   0  0  0  0  0  0  0  0  0  0  0  0
   48.7513   31.5665   48.0251 H   0  0  0  0  0  0  0  0  0  0  0  0
   46.8637   30.8175   46.4384 H   0  0  0  0  0  0  0  0  0  0  0  0
   47.8484   32.1119   45.7523 H   0  0  0  0  0  0  0  0  0  0  0  0
   48.6975   35.9665   42.8013 H   0  0  0  0  0  0  0  0  0  0  0  0
   48.4387   34.1688   38.1384 H   0  0  0  0  0  0  0  0  0  0  0  0
   44.7927   32.1938   39.1276 H   0  0  0  0  0  0  0  0  0  0  0  0
  1  6  2  0
  2  1  1  0
  3  2  2  0
  3  4  1  0
  4  5  2  0
  5  6  1  0
  5  7  1  0
  7 12  1  0
  7  8  1  0
  8  9  1  0
 10  9  1  0
 11 10  1  0
 12 11  1  0
 13  3  1  0
 14 13  1  0
 15 14  2  0
 16 15  1  0
 16 21  2  0
 17 16  1  0
 18 17  2  0
 18 19  1  0
 19 20  2  0
 20 21  1  0
 21 13  1  0
  1 22  1  0
  2 23  1  0
  8 24  1  0
  8 25  1  0
  9 26  1  0
  9 27  1  0
 11 28  1  0
 11 29  1  0
 12 30  1  0
 12 31  1  0
 14 32  1  0
 17 33  1  0
 19 34  1  0
M  ISO  8  22  14  23  14  24  13  25  13  26  13  27  13  28  13  29  13
M  ISO  5  30  13  31  13  32  14  33  14  34  14
M  END
>  <minimizedAffinity>  (1) 
-6.22470331

>  <minimizedRMSD>  (1) 
0.476776749

$$$$
