
     RDKit          3D

 28 31  0  0  0  0  0  0  0  0999 V2000
   44.4670   36.0540   44.4440 C   0  0  0  0  0  0  0  0  0  0  0  0
   45.2540   35.9500   43.2770 C   0  0  0  0  0  0  0  0  0  0  0  0
   46.1880   34.9280   43.2170 C   0  0  0  0  0  0  0  0  0  0  0  0
   46.3120   34.0750   44.2720 N   0  0  0  0  0  0  0  0  0  0  0  0
   45.5400   34.2060   45.3740 C   0  0  0  0  0  0  0  0  0  0  0  0
   44.6250   35.1810   45.4710 N   0  0  0  0  0  0  0  0  0  0  0  0
   46.9800   34.8270   42.0380 N   0  0  0  0  0  0  0  0  0  0  0  0
   48.2240   35.3650   41.8840 C   0  0  0  0  0  0  0  0  0  0  0  0
   48.7090   35.0890   40.6430 N   0  0  0  0  0  0  0  0  0  0  0  0
   47.7370   34.3640   40.0240 C   0  0  0  0  0  0  0  0  0  0  0  0
   47.6910   33.8210   38.7600 C   0  0  0  0  0  0  0  0  0  0  0  0
   46.5690   33.1330   38.4050 N   0  0  0  0  0  0  0  0  0  0  0  0
   45.5350   32.9880   39.2690 C   0  0  0  0  0  0  0  0  0  0  0  0
   45.5460   33.5080   40.5200 N   0  0  0  0  0  0  0  0  0  0  0  0
   46.6590   34.2020   40.8990 C   0  0  0  0  0  0  0  0  0  0  0  0
   45.7860   33.2180   46.4220 C   0  0  0  0  0  0  0  0  0  0  0  0
   46.8820   32.3790   46.2560 C   0  0  0  0  0  0  0  0  0  0  0  0
   46.8870   31.5470   47.3800 C   0  0  0  0  0  0  0  0  0  0  0  0
   45.7890   31.9360   48.1560 C   0  0  0  0  0  0  0  0  0  0  0  0
   45.1800   32.9260   47.5380 O   0  0  0  0  0  0  0  0  0  0  0  0
   43.7155   36.8534   44.5222 H   0  0  0  0  0  0  0  0  0  0  0  0
   45.1301   36.6565   42.4430 H   0  0  0  0  0  0  0  0  0  0  0  0
   48.7592   35.9403   42.6538 H   0  0  0  0  0  0  0  0  0  0  0  0
   48.5313   33.9383   38.0599 H   0  0  0  0  0  0  0  0  0  0  0  0
   44.6493   32.4243   38.9407 H   0  0  0  0  0  0  0  0  0  0  0  0
   47.5945   32.3712   45.4179 H   0  0  0  0  0  0  0  0  0  0  0  0
   47.6081   30.7483   47.6082 H   0  0  0  0  0  0  0  0  0  0  0  0
   45.4873   31.4915   49.1159 H   0  0  0  0  0  0  0  0  0  0  0  0
  1  6  2  0
  2  1  1  0
  3  2  2  0
  3  4  1  0
  4  5  2  0
  5  6  1  0
  5 16  1  0
  7  3  1  0
  8  7  1  0
  9  8  2  0
 10  9  1  0
 10 15  2  0
 11 10  1  0
 12 11  2  0
 12 13  1  0
 13 14  2  0
 14 15  1  0
 15  7  1  0
 16 20  1  0
 17 16  2  0
 17 18  1  0
 18 19  2  0
 20 19  1  0
  1 21  1  0
  2 22  1  0
  8 23  1  0
 11 24  1  0
 13 25  1  0
 17 26  1  0
 18 27  1  0
 19 28  1  0
M  ISO  8  21  14  22  14  23  14  24  14  25  14  26  14  27  14  28  14
M  END
>  <minimizedAffinity>  (1) 
-6.03662062

>  <minimizedRMSD>  (1) 
0.383547783

$$$$
