
     RDKit          3D

 28 31  0  0  0  0  0  0  0  0999 V2000
   44.5120   35.9770   44.5360 C   0  0  0  0  0  0  0  0  0  0  0  0
   45.2950   35.9170   43.3570 C   0  0  0  0  0  0  0  0  0  0  0  0
   46.2220   34.8880   43.2550 C   0  0  0  0  0  0  0  0  0  0  0  0
   46.3340   33.9870   44.2890 N   0  0  0  0  0  0  0  0  0  0  0  0
   45.5690   34.0850   45.3890 C   0  0  0  0  0  0  0  0  0  0  0  0
   44.6610   35.0640   45.5300 N   0  0  0  0  0  0  0  0  0  0  0  0
   47.0110   34.8220   42.0710 N   0  0  0  0  0  0  0  0  0  0  0  0
   48.2280   35.3890   41.9230 C   0  0  0  0  0  0  0  0  0  0  0  0
   48.7050   35.1340   40.6690 N   0  0  0  0  0  0  0  0  0  0  0  0
   47.7480   34.3940   40.0500 C   0  0  0  0  0  0  0  0  0  0  0  0
   47.7090   33.8650   38.7730 C   0  0  0  0  0  0  0  0  0  0  0  0
   46.6060   33.1560   38.4240 N   0  0  0  0  0  0  0  0  0  0  0  0
   45.5830   32.9750   39.2890 C   0  0  0  0  0  0  0  0  0  0  0  0
   45.5840   33.4820   40.5560 N   0  0  0  0  0  0  0  0  0  0  0  0
   46.6850   34.1980   40.9300 C   0  0  0  0  0  0  0  0  0  0  0  0
   45.7820   33.0750   46.4090 C   0  0  0  0  0  0  0  0  0  0  0  0
   45.2450   32.9350   47.6440 C   0  0  0  0  0  0  0  0  0  0  0  0
   45.6450   31.8570   48.4000 C   0  0  0  0  0  0  0  0  0  0  0  0
   46.5480   30.9910   47.8850 C   0  0  0  0  0  0  0  0  0  0  0  0
   46.9020   31.6810   46.2190 S   0  0  0  0  0  0  0  0  0  0  0  0
   43.7682   36.7795   44.6486 H   0  0  0  0  0  0  0  0  0  0  0  0
   45.1733   36.6575   42.5527 H   0  0  0  0  0  0  0  0  0  0  0  0
   48.7550   35.9683   42.6954 H   0  0  0  0  0  0  0  0  0  0  0  0
   48.5399   34.0132   38.0675 H   0  0  0  0  0  0  0  0  0  0  0  0
   44.7107   32.3930   38.9567 H   0  0  0  0  0  0  0  0  0  0  0  0
   44.5129   33.6593   48.0304 H   0  0  0  0  0  0  0  0  0  0  0  0
   45.2362   31.7015   49.4093 H   0  0  0  0  0  0  0  0  0  0  0  0
   46.9698   30.0889   48.3522 H   0  0  0  0  0  0  0  0  0  0  0  0
  1  6  2  0
  2  1  1  0
  3  2  2  0
  3  4  1  0
  4  5  2  0
  5  6  1  0
  5 16  1  0
  7  3  1  0
  8  7  1  0
  9  8  2  0
 10  9  1  0
 10 15  2  0
 11 10  1  0
 12 11  2  0
 12 13  1  0
 13 14  2  0
 14 15  1  0
 15  7  1  0
 16 17  2  0
 17 18  1  0
 19 18  2  0
 20 16  1  0
 20 19  1  0
  1 21  1  0
  2 22  1  0
  8 23  1  0
 11 24  1  0
 13 25  1  0
 17 26  1  0
 18 27  1  0
 19 28  1  0
M  ISO  8  21  14  22  14  23  14  24  14  25  14  26  14  27  14  28  14
M  END
>  <minimizedAffinity>  (1) 
-5.99059439

>  <minimizedRMSD>  (1) 
0.292653322

$$$$
