
     RDKit          3D

 34 37  0  0  0  0  0  0  0  0999 V2000
   44.8980   36.3570   43.2970 C   0  0  0  0  0  0  0  0  0  0  0  0
   44.2610   35.9150   42.1180 C   0  0  0  0  0  0  0  0  0  0  0  0
   44.1680   34.5470   41.8850 C   0  0  0  0  0  0  0  0  0  0  0  0
   44.6990   33.6970   42.8080 N   0  0  0  0  0  0  0  0  0  0  0  0
   45.3060   34.1430   43.9320 C   0  0  0  0  0  0  0  0  0  0  0  0
   45.4040   35.4620   44.1720 N   0  0  0  0  0  0  0  0  0  0  0  0
   43.5270   34.1210   40.7010 N   0  0  0  0  0  0  0  0  0  0  0  0
   44.1290   33.4610   39.6830 C   0  0  0  0  0  0  0  0  0  0  0  0
   43.2350   33.1970   38.6910 N   0  0  0  0  0  0  0  0  0  0  0  0
   42.0550   33.7120   39.1210 C   0  0  0  0  0  0  0  0  0  0  0  0
   40.8140   33.7270   38.5130 C   0  0  0  0  0  0  0  0  0  0  0  0
   39.7990   34.3200   39.1810 N   0  0  0  0  0  0  0  0  0  0  0  0
   39.9940   34.8810   40.4120 C   0  0  0  0  0  0  0  0  0  0  0  0
   41.1980   34.8830   41.0330 N   0  0  0  0  0  0  0  0  0  0  0  0
   42.2240   34.2970   40.3830 C   0  0  0  0  0  0  0  0  0  0  0  0
   46.9590   31.3910   46.7690 C   0  0  0  0  0  0  0  0  0  0  0  0
   47.1680   31.2360   45.4060 C   0  0  0  0  0  0  0  0  0  0  0  0
   46.6280   32.1320   44.4970 C   0  0  0  0  0  0  0  0  0  0  0  0
   45.8660   33.2080   44.9040 C   0  0  0  0  0  0  0  0  0  0  0  0
   45.6500   33.3760   46.2610 C   0  0  0  0  0  0  0  0  0  0  0  0
   46.1940   32.4730   47.1560 C   0  0  0  0  0  0  0  0  0  0  0  0
   47.6010   30.3070   47.9910 S   0  0  0  0  0  0  0  0  0  0  0  0
   48.9290   29.7930   47.5080 O   0  0  0  0  0  0  0  0  0  0  0  0
   47.8390   31.0500   49.2870 O   0  0  0  0  0  0  0  0  0  0  0  0
   44.9826   37.4341   43.5038 H   0  0  0  0  0  0  0  0  0  0  0  0
   43.8469   36.6369   41.3987 H   0  0  0  0  0  0  0  0  0  0  0  0
   45.1917   33.1779   39.6609 H   0  0  0  0  0  0  0  0  0  0  0  0
   40.6579   33.2736   37.5230 H   0  0  0  0  0  0  0  0  0  0  0  0
   39.1381   35.3502   40.9193 H   0  0  0  0  0  0  0  0  0  0  0  0
   47.7704   30.3906   45.0421 H   0  0  0  0  0  0  0  0  0  0  0  0
   46.8116   31.9815   43.4229 H   0  0  0  0  0  0  0  0  0  0  0  0
   45.0494   34.2225   46.6251 H   0  0  0  0  0  0  0  0  0  0  0  0
   46.0079   32.6244   48.2295 H   0  0  0  0  0  0  0  0  0  0  0  0
   46.7071   29.2909   48.2039 H   0  0  0  0  0  0  0  0  0  0  0  0
  1  6  2  0
  2  1  1  0
  3  2  2  0
  3  4  1  0
  4  5  2  0
  5  6  1  0
  5 19  1  0
  7  3  1  0
  8  7  1  0
  9 10  1  0
  9  8  2  0
 10 15  2  0
 11 10  1  0
 11 12  2  0
 12 13  1  0
 13 14  2  0
 15  7  1  0
 15 14  1  0
 16 21  2  0
 16 22  1  0
 17 16  1  0
 18 19  1  0
 18 17  2  0
 19 20  2  0
 20 21  1  0
 22 24  2  0
 23 22  2  0
  1 25  1  0
  2 26  1  0
  8 27  1  0
 11 28  1  0
 13 29  1  0
 17 30  1  0
 18 31  1  0
 20 32  1  0
 21 33  1  0
 22 34  1  0
M  ISO  8  25  14  26  14  27  14  28  14  29  14  30  14  31  14  32  14
M  ISO  2  33  14  34  11
M  END
>  <minimizedAffinity>  (1) 
-5.59669018

>  <minimizedRMSD>  (1) 
3.93896747

$$$$
