
     RDKit          3D

 18 19  0  0  0  0  0  0  0  0999 V2000
   44.5460   35.5130   44.9760 C   0  0  0  0  0  0  0  0  0  0  0  0
   45.2080   35.4290   43.7250 C   0  0  0  0  0  0  0  0  0  0  0  0
   46.1850   34.4450   43.5840 C   0  0  0  0  0  0  0  0  0  0  0  0
   46.4620   33.6130   44.6360 N   0  0  0  0  0  0  0  0  0  0  0  0
   45.8080   33.7300   45.8070 C   0  0  0  0  0  0  0  0  0  0  0  0
   44.8560   34.6700   45.9820 N   0  0  0  0  0  0  0  0  0  0  0  0
   46.0990   32.8420   46.9400 C   0  0  0  0  0  0  0  0  0  0  0  0
   45.1670   32.5760   47.9140 C   0  0  0  0  0  0  0  0  0  0  0  0
   45.4410   31.7390   48.9840 C   0  0  0  0  0  0  0  0  0  0  0  0
   46.6660   31.1730   49.0560 N   0  0  0  0  0  0  0  0  0  0  0  0
   47.6050   31.4230   48.1020 C   0  0  0  0  0  0  0  0  0  0  0  0
   47.2940   32.2420   47.0840 N   0  0  0  0  0  0  0  0  0  0  0  0
   43.7687   36.2764   45.1281 H   0  0  0  0  0  0  0  0  0  0  0  0
   44.9606   36.1125   42.8994 H   0  0  0  0  0  0  0  0  0  0  0  0
   46.7298   34.3374   42.6344 H   0  0  0  0  0  0  0  0  0  0  0  0
   44.1730   33.0417   47.8422 H   0  0  0  0  0  0  0  0  0  0  0  0
   44.6813   31.5406   49.7544 H   0  0  0  0  0  0  0  0  0  0  0  0
   48.6017   30.9618   48.1641 H   0  0  0  0  0  0  0  0  0  0  0  0
  1  6  2  0
  2  1  1  0
  3  2  2  0
  3  4  1  0
  4  5  2  0
  5  6  1  0
  5  7  1  0
  7 12  1  0
  7  8  2  0
  8  9  1  0
  9 10  2  0
 11 10  1  0
 12 11  2  0
  1 13  1  0
  2 14  1  0
  3 15  1  0
  8 16  1  0
  9 17  1  0
 11 18  1  0
M  ISO  6  13  14  14  14  15  14  16  14  17  14  18  14
M  END
>  <minimizedAffinity>  (1) 
-4.35013056

>  <minimizedRMSD>  (1) 
0.944909394

$$$$
