
     RDKit          3D

 23 25  0  0  0  0  0  0  0  0999 V2000
   47.1490   34.9380   41.9380 N   0  0  0  0  0  0  0  0  0  0  0  0
   48.3620   35.5320   41.8380 C   0  0  0  0  0  0  0  0  0  0  0  0
   48.8990   35.2930   40.6120 N   0  0  0  0  0  0  0  0  0  0  0  0
   47.9880   34.5300   39.9430 C   0  0  0  0  0  0  0  0  0  0  0  0
   48.0110   34.0010   38.6720 C   0  0  0  0  0  0  0  0  0  0  0  0
   46.9540   33.2720   38.2660 N   0  0  0  0  0  0  0  0  0  0  0  0
   45.8890   33.0660   39.0940 C   0  0  0  0  0  0  0  0  0  0  0  0
   45.8390   33.5700   40.3440 N   0  0  0  0  0  0  0  0  0  0  0  0
   46.8910   34.3060   40.7740 C   0  0  0  0  0  0  0  0  0  0  0  0
   44.5840   36.1070   44.3250 C   0  0  0  0  0  0  0  0  0  0  0  0
   45.4290   36.0460   43.1970 C   0  0  0  0  0  0  0  0  0  0  0  0
   46.3110   34.9800   43.0750 C   0  0  0  0  0  0  0  0  0  0  0  0
   46.3100   34.0410   44.0620 N   0  0  0  0  0  0  0  0  0  0  0  0
   45.4940   34.1190   45.1280 C   0  0  0  0  0  0  0  0  0  0  0  0
   44.6310   35.1420   45.2700 N   0  0  0  0  0  0  0  0  0  0  0  0
   45.5400   33.1070   46.1270 N   0  0  0  0  0  0  0  0  0  0  0  0
   48.8425   36.1217   42.6326 H   0  0  0  0  0  0  0  0  0  0  0  0
   48.8700   34.1694   38.0059 H   0  0  0  0  0  0  0  0  0  0  0  0
   45.0412   32.4676   38.7290 H   0  0  0  0  0  0  0  0  0  0  0  0
   43.8816   36.9462   44.4362 H   0  0  0  0  0  0  0  0  0  0  0  0
   45.3900   36.8301   42.4265 H   0  0  0  0  0  0  0  0  0  0  0  0
   44.9169   33.1624   46.9453 H   0  0  0  0  0  0  0  0  0  0  0  0
   46.1964   32.3189   46.0319 H   0  0  0  0  0  0  0  0  0  0  0  0
  1 12  1  0
  2  1  1  0
  3  2  2  0
  4  3  1  0
  4  9  2  0
  5  4  1  0
  6  5  2  0
  6  7  1  0
  7  8  2  0
  8  9  1  0
  9  1  1  0
 10 15  2  0
 11 10  1  0
 12 11  2  0
 12 13  1  0
 13 14  2  0
 14 15  1  0
 14 16  1  0
  2 17  1  0
  5 18  1  0
  7 19  1  0
 10 20  1  0
 11 21  1  0
 16 22  1  0
 16 23  1  0
M  ISO  5  17  14  18  14  19  14  20  14  21  14
M  END
>  <minimizedAffinity>  (1) 
-5.23185825

>  <minimizedRMSD>  (1) 
0.140108421

$$$$
