
     RDKit          3D

 33 35  0  0  0  0  0  0  0  0999 V2000
   47.0270   34.6690   42.2910 N   0  0  0  0  0  0  0  0  0  0  0  0
   48.2410   35.2330   42.1390 C   0  0  0  0  0  0  0  0  0  0  0  0
   48.6720   35.0460   40.8540 N   0  0  0  0  0  0  0  0  0  0  0  0
   47.6950   34.3580   40.2300 C   0  0  0  0  0  0  0  0  0  0  0  0
   47.6190   33.9080   38.9200 C   0  0  0  0  0  0  0  0  0  0  0  0
   46.4930   33.2270   38.5570 N   0  0  0  0  0  0  0  0  0  0  0  0
   45.4970   33.0060   39.4470 C   0  0  0  0  0  0  0  0  0  0  0  0
   45.5400   33.4330   40.7370 N   0  0  0  0  0  0  0  0  0  0  0  0
   46.6470   34.1100   41.1170 C   0  0  0  0  0  0  0  0  0  0  0  0
   44.5770   35.6830   44.8660 C   0  0  0  0  0  0  0  0  0  0  0  0
   45.3270   35.6910   43.6690 C   0  0  0  0  0  0  0  0  0  0  0  0
   46.2640   34.6680   43.5000 C   0  0  0  0  0  0  0  0  0  0  0  0
   46.4120   33.7280   44.4780 N   0  0  0  0  0  0  0  0  0  0  0  0
   45.6750   33.7630   45.6010 C   0  0  0  0  0  0  0  0  0  0  0  0
   44.7520   34.7370   45.8070 N   0  0  0  0  0  0  0  0  0  0  0  0
   45.9800   32.6480   46.5510 C   0  0  0  0  0  0  0  0  0  0  0  0
   45.8520   31.2930   45.8920 C   0  0  0  0  0  0  0  0  0  0  0  0
   44.9860   32.7640   47.7050 C   0  0  0  0  0  0  0  0  0  0  0  0
   47.3600   32.7420   47.1420 C   0  0  0  0  0  0  0  0  0  0  0  0
   48.7990   35.7617   42.9258 H   0  0  0  0  0  0  0  0  0  0  0  0
   48.4327   34.0924   38.2031 H   0  0  0  0  0  0  0  0  0  0  0  0
   44.6081   32.4530   39.1093 H   0  0  0  0  0  0  0  0  0  0  0  0
   43.8291   36.4720   45.0336 H   0  0  0  0  0  0  0  0  0  0  0  0
   45.1801   36.4677   42.9041 H   0  0  0  0  0  0  0  0  0  0  0  0
   45.7785   30.5145   46.6656 H   0  0  0  0  0  0  0  0  0  0  0  0
   44.9481   31.2739   45.2655 H   0  0  0  0  0  0  0  0  0  0  0  0
   46.7364   31.1050   45.2655 H   0  0  0  0  0  0  0  0  0  0  0  0
   45.5256   32.7010   48.6615 H   0  0  0  0  0  0  0  0  0  0  0  0
   44.4624   33.7293   47.6423 H   0  0  0  0  0  0  0  0  0  0  0  0
   44.2542   31.9452   47.6423 H   0  0  0  0  0  0  0  0  0  0  0  0
   47.2899   32.7372   48.2398 H   0  0  0  0  0  0  0  0  0  0  0  0
   47.9607   31.8827   46.8092 H   0  0  0  0  0  0  0  0  0  0  0  0
   47.8386   33.6748   46.8092 H   0  0  0  0  0  0  0  0  0  0  0  0
  1 12  1  0
  2  1  1  0
  3  2  2  0
  4  3  1  0
  4  9  2  0
  5  4  1  0
  6  5  2  0
  6  7  1  0
  7  8  2  0
  8  9  1  0
  9  1  1  0
 10 15  2  0
 11 10  1  0
 12 11  2  0
 12 13  1  0
 13 14  2  0
 14 15  1  0
 14 16  1  0
 16 19  1  0
 16 18  1  0
 17 16  1  0
  2 20  1  0
  5 21  1  0
  7 22  1  0
 10 23  1  0
 11 24  1  0
 17 25  1  0
 17 26  1  0
 17 27  1  0
 18 28  1  0
 18 29  1  0
 18 30  1  0
 19 31  1  0
 19 32  1  0
 19 33  1  0
M  ISO  8  20  14  21  14  22  14  23  14  24  14  25   8  26   8  27   8
M  ISO  6  28   8  29   8  30   8  31   8  32   8  33   8
M  END
>  <minimizedAffinity>  (1) 
-5.16072464

>  <minimizedRMSD>  (1) 
0.574529767

$$$$
