
     RDKit          3D

 22 24  0  0  0  0  0  0  0  0999 V2000
   47.1790   34.9070   41.9470 N   0  0  0  0  0  0  0  0  0  0  0  0
   48.3610   35.5360   41.8410 C   0  0  0  0  0  0  0  0  0  0  0  0
   48.8880   35.3280   40.5900 N   0  0  0  0  0  0  0  0  0  0  0  0
   47.9830   34.5540   39.9470 C   0  0  0  0  0  0  0  0  0  0  0  0
   48.0000   34.0390   38.6540 C   0  0  0  0  0  0  0  0  0  0  0  0
   46.9370   33.2800   38.2700 N   0  0  0  0  0  0  0  0  0  0  0  0
   45.9130   33.0400   39.1140 C   0  0  0  0  0  0  0  0  0  0  0  0
   45.8720   33.5280   40.3760 N   0  0  0  0  0  0  0  0  0  0  0  0
   46.9070   34.2840   40.7920 C   0  0  0  0  0  0  0  0  0  0  0  0
   44.5630   35.9060   44.3640 C   0  0  0  0  0  0  0  0  0  0  0  0
   45.3810   35.8930   43.2160 C   0  0  0  0  0  0  0  0  0  0  0  0
   46.3560   34.9110   43.1150 C   0  0  0  0  0  0  0  0  0  0  0  0
   46.4790   34.0000   44.1330 N   0  0  0  0  0  0  0  0  0  0  0  0
   45.6860   34.0340   45.2190 C   0  0  0  0  0  0  0  0  0  0  0  0
   44.7240   34.9870   45.3380 N   0  0  0  0  0  0  0  0  0  0  0  0
   45.9610   33.0310   46.1440 O   0  0  0  0  0  0  0  0  0  0  0  0
   48.8357   36.1288   42.6368 H   0  0  0  0  0  0  0  0  0  0  0  0
   48.8384   34.2372   37.9701 H   0  0  0  0  0  0  0  0  0  0  0  0
   45.0748   32.4209   38.7617 H   0  0  0  0  0  0  0  0  0  0  0  0
   43.7836   36.6754   44.4667 H   0  0  0  0  0  0  0  0  0  0  0  0
   45.2498   36.6418   42.4210 H   0  0  0  0  0  0  0  0  0  0  0  0
   45.4325   32.9691   46.9788 H   0  0  0  0  0  0  0  0  0  0  0  0
  1 12  1  0
  2  1  1  0
  3  2  2  0
  4  3  1  0
  4  9  2  0
  5  4  1  0
  6  5  2  0
  6  7  1  0
  7  8  2  0
  8  9  1  0
  9  1  1  0
 10 15  2  0
 11 10  1  0
 12 11  2  0
 12 13  1  0
 13 14  2  0
 14 15  1  0
 14 16  1  0
  2 17  1  0
  5 18  1  0
  7 19  1  0
 10 20  1  0
 11 21  1  0
 16 22  1  0
M  ISO  6  17  14  18  14  19  14  20  14  21  14  22   3
M  END
>  <minimizedAffinity>  (1) 
-5.07302475

>  <minimizedRMSD>  (1) 
0.0171055067

$$$$
