
     RDKit          3D

 37 41  0  0  0  0  0  0  0  0999 V2000
   44.5070   36.0740   44.5250 C   0  0  0  0  0  0  0  0  0  0  0  0
   45.2990   35.9590   43.3710 C   0  0  0  0  0  0  0  0  0  0  0  0
   46.1750   34.8820   43.3060 C   0  0  0  0  0  0  0  0  0  0  0  0
   46.2060   34.0240   44.3460 N   0  0  0  0  0  0  0  0  0  0  0  0
   45.4440   34.1390   45.4460 C   0  0  0  0  0  0  0  0  0  0  0  0
   44.5860   35.1730   45.5400 N   0  0  0  0  0  0  0  0  0  0  0  0
   46.9840   34.7490   42.1440 N   0  0  0  0  0  0  0  0  0  0  0  0
   48.2590   35.1850   42.0280 C   0  0  0  0  0  0  0  0  0  0  0  0
   48.7400   34.8990   40.7840 N   0  0  0  0  0  0  0  0  0  0  0  0
   47.7230   34.2720   40.1340 C   0  0  0  0  0  0  0  0  0  0  0  0
   47.6700   33.7700   38.8500 C   0  0  0  0  0  0  0  0  0  0  0  0
   46.5070   33.1860   38.4620 N   0  0  0  0  0  0  0  0  0  0  0  0
   45.4620   33.1090   39.3020 C   0  0  0  0  0  0  0  0  0  0  0  0
   45.4800   33.5920   40.5660 N   0  0  0  0  0  0  0  0  0  0  0  0
   46.6280   34.1790   40.9810 C   0  0  0  0  0  0  0  0  0  0  0  0
   45.5120   33.1850   46.5490 C   0  0  0  0  0  0  0  0  0  0  0  0
   44.8920   33.3790   47.6250 O   0  0  0  0  0  0  0  0  0  0  0  0
   46.3310   31.9830   46.3620 C   0  0  0  0  0  0  0  0  0  0  0  0
   46.2410   31.1060   45.2820 C   0  0  0  0  0  0  0  0  0  0  0  0
   47.1670   30.1580   45.5190 N   0  0  0  0  0  0  0  0  0  0  0  0
   47.8340   30.3700   46.6630 C   0  0  0  0  0  0  0  0  0  0  0  0
   48.8550   29.6390   47.2670 C   0  0  0  0  0  0  0  0  0  0  0  0
   49.3360   30.1440   48.4770 C   0  0  0  0  0  0  0  0  0  0  0  0
   48.8300   31.3000   49.0430 C   0  0  0  0  0  0  0  0  0  0  0  0
   47.8270   31.9990   48.4290 C   0  0  0  0  0  0  0  0  0  0  0  0
   47.3190   31.5280   47.2210 C   0  0  0  0  0  0  0  0  0  0  0  0
   43.8039   36.9157   44.6099 H   0  0  0  0  0  0  0  0  0  0  0  0
   45.2289   36.6908   42.5527 H   0  0  0  0  0  0  0  0  0  0  0  0
   48.8253   35.6956   42.8209 H   0  0  0  0  0  0  0  0  0  0  0  0
   48.5321   33.8398   38.1703 H   0  0  0  0  0  0  0  0  0  0  0  0
   44.5408   32.6268   38.9429 H   0  0  0  0  0  0  0  0  0  0  0  0
   45.5597   31.1740   44.4211 H   0  0  0  0  0  0  0  0  0  0  0  0
   47.3433   29.3598   44.8923 H   0  0  0  0  0  0  0  0  0  0  0  0
   49.2580   28.7193   46.8177 H   0  0  0  0  0  0  0  0  0  0  0  0
   50.1425   29.6055   48.9961 H   0  0  0  0  0  0  0  0  0  0  0  0
   49.2388   31.6616   49.9980 H   0  0  0  0  0  0  0  0  0  0  0  0
   47.4282   32.9185   48.8823 H   0  0  0  0  0  0  0  0  0  0  0  0
  1  6  2  0
  2  1  1  0
  3  2  2  0
  3  4  1  0
  4  5  2  0
  5  6  1  0
  5 16  1  0
  7  3  1  0
  8  7  1  0
  9  8  2  0
 10  9  1  0
 10 15  2  0
 11 10  1  0
 12 11  2  0
 12 13  1  0
 13 14  2  0
 14 15  1  0
 15  7  1  0
 16 17  2  0
 18 16  1  0
 18 26  1  0
 19 20  1  0
 19 18  2  0
 20 21  1  0
 21 26  2  0
 21 22  1  0
 22 23  2  0
 23 24  1  0
 25 24  2  0
 26 25  1  0
  1 27  1  0
  2 28  1  0
  8 29  1  0
 11 30  1  0
 13 31  1  0
 19 32  1  0
 20 33  1  0
 22 34  1  0
 23 35  1  0
 24 36  1  0
 25 37  1  0
M  ISO  8  27  14  28  14  29  14  30  14  31  14  32  14  33   9  34  14
M  ISO  3  35  14  36  14  37  14
M  END
>  <minimizedAffinity>  (1) 
-6.893507

>  <minimizedRMSD>  (1) 
0.515349984

$$$$
