
     RDKit          3D

 34 38  0  0  0  0  0  0  0  0999 V2000
   44.5260   36.1640   44.4670 C   0  0  0  0  0  0  0  0  0  0  0  0
   45.3230   36.0340   43.3120 C   0  0  0  0  0  0  0  0  0  0  0  0
   46.1890   34.9310   43.2400 C   0  0  0  0  0  0  0  0  0  0  0  0
   46.1990   34.0740   44.2810 N   0  0  0  0  0  0  0  0  0  0  0  0
   45.4240   34.2170   45.3830 C   0  0  0  0  0  0  0  0  0  0  0  0
   44.5920   35.2550   45.4770 N   0  0  0  0  0  0  0  0  0  0  0  0
   46.9850   34.8050   42.0830 N   0  0  0  0  0  0  0  0  0  0  0  0
   48.2480   35.2910   41.9560 C   0  0  0  0  0  0  0  0  0  0  0  0
   48.7350   34.9970   40.7120 N   0  0  0  0  0  0  0  0  0  0  0  0
   47.7390   34.3220   40.0860 C   0  0  0  0  0  0  0  0  0  0  0  0
   47.7010   33.7920   38.8130 C   0  0  0  0  0  0  0  0  0  0  0  0
   46.5630   33.1570   38.4390 N   0  0  0  0  0  0  0  0  0  0  0  0
   45.5200   33.0570   39.2910 C   0  0  0  0  0  0  0  0  0  0  0  0
   45.5220   33.5610   40.5400 N   0  0  0  0  0  0  0  0  0  0  0  0
   46.6480   34.1980   40.9310 C   0  0  0  0  0  0  0  0  0  0  0  0
   45.4750   33.2630   46.4740 C   0  0  0  0  0  0  0  0  0  0  0  0
   44.8870   33.4680   47.5700 O   0  0  0  0  0  0  0  0  0  0  0  0
   48.7930   30.3750   48.0310 N   0  0  0  0  0  0  0  0  0  0  0  0
   48.6790   31.4590   48.8450 C   0  0  0  0  0  0  0  0  0  0  0  0
   47.7040   32.2290   48.3170 N   0  0  0  0  0  0  0  0  0  0  0  0
   47.2110   31.6660   47.2120 C   0  0  0  0  0  0  0  0  0  0  0  0
   46.2280   32.0220   46.3110 C   0  0  0  0  0  0  0  0  0  0  0  0
   45.9840   31.1920   45.2800 N   0  0  0  0  0  0  0  0  0  0  0  0
   46.6690   30.0320   45.1050 C   0  0  0  0  0  0  0  0  0  0  0  0
   47.6310   29.6580   45.9640 N   0  0  0  0  0  0  0  0  0  0  0  0
   47.9020   30.4760   47.0190 C   0  0  0  0  0  0  0  0  0  0  0  0
   43.8371   37.0172   44.5535 H   0  0  0  0  0  0  0  0  0  0  0  0
   45.2686   36.7700   42.4963 H   0  0  0  0  0  0  0  0  0  0  0  0
   48.7963   35.8387   42.7366 H   0  0  0  0  0  0  0  0  0  0  0  0
   48.5584   33.8809   38.1297 H   0  0  0  0  0  0  0  0  0  0  0  0
   44.6165   32.5336   38.9449 H   0  0  0  0  0  0  0  0  0  0  0  0
   49.4554   29.5977   48.1649 H   0  0  0  0  0  0  0  0  0  0  0  0
   49.2647   31.6667   49.7527 H   0  0  0  0  0  0  0  0  0  0  0  0
   46.4316   29.3883   44.2452 H   0  0  0  0  0  0  0  0  0  0  0  0
  1  6  2  0
  2  1  1  0
  3  2  2  0
  3  4  1  0
  4  5  2  0
  5  6  1  0
  5 16  1  0
  7  3  1  0
  8  7  1  0
  9  8  2  0
 10  9  1  0
 10 15  2  0
 11 10  1  0
 12 11  2  0
 12 13  1  0
 13 14  2  0
 14 15  1  0
 15  7  1  0
 16 17  2  0
 18 19  1  0
 20 19  2  0
 21 20  1  0
 22 16  1  0
 22 21  2  0
 23 22  1  0
 24 23  2  0
 24 25  1  0
 25 26  2  0
 26 21  1  0
 26 18  1  0
  1 27  1  0
  2 28  1  0
  8 29  1  0
 11 30  1  0
 13 31  1  0
 18 32  1  0
 19 33  1  0
 24 34  1  0
M  ISO  8  27  14  28  14  29  14  30  14  31  14  32   9  33  14  34  14
M  END
>  <minimizedAffinity>  (1) 
-6.59511471

>  <minimizedRMSD>  (1) 
0.768158734

$$$$
