
     RDKit          3D

 36 39  0  0  0  0  0  0  0  0999 V2000
   44.5250   36.0940   44.5000 C   0  0  0  0  0  0  0  0  0  0  0  0
   45.3060   36.0120   43.3300 C   0  0  0  0  0  0  0  0  0  0  0  0
   46.1780   34.9330   43.2270 C   0  0  0  0  0  0  0  0  0  0  0  0
   46.2090   34.0530   44.2460 N   0  0  0  0  0  0  0  0  0  0  0  0
   45.4680   34.1290   45.3590 C   0  0  0  0  0  0  0  0  0  0  0  0
   44.6130   35.1690   45.4820 N   0  0  0  0  0  0  0  0  0  0  0  0
   46.9740   34.8300   42.0590 N   0  0  0  0  0  0  0  0  0  0  0  0
   48.2140   35.3600   41.9150 C   0  0  0  0  0  0  0  0  0  0  0  0
   48.7090   35.0850   40.6760 N   0  0  0  0  0  0  0  0  0  0  0  0
   47.7300   34.3670   40.0560 C   0  0  0  0  0  0  0  0  0  0  0  0
   47.7030   33.8320   38.7860 C   0  0  0  0  0  0  0  0  0  0  0  0
   46.5960   33.1600   38.4300 N   0  0  0  0  0  0  0  0  0  0  0  0
   45.5580   33.0190   39.2840 C   0  0  0  0  0  0  0  0  0  0  0  0
   45.5460   33.5270   40.5360 N   0  0  0  0  0  0  0  0  0  0  0  0
   46.6500   34.2100   40.9210 C   0  0  0  0  0  0  0  0  0  0  0  0
   45.5300   33.1620   46.4360 C   0  0  0  0  0  0  0  0  0  0  0  0
   44.9890   33.4060   47.5570 O   0  0  0  0  0  0  0  0  0  0  0  0
   46.2020   31.9210   46.2460 N   0  0  0  0  0  0  0  0  0  0  0  0
   47.1200   31.6570   45.1330 C   0  0  0  0  0  0  0  0  0  0  0  0
   47.7050   30.2820   45.3620 C   0  0  0  0  0  0  0  0  0  0  0  0
   48.2600   30.1630   46.6330 O   0  0  0  0  0  0  0  0  0  0  0  0
   47.3200   30.2470   47.6450 C   0  0  0  0  0  0  0  0  0  0  0  0
   46.0030   30.8240   47.1740 C   0  0  0  0  0  0  0  0  0  0  0  0
   43.8244   36.9338   44.6176 H   0  0  0  0  0  0  0  0  0  0  0  0
   45.2296   36.7672   42.5339 H   0  0  0  0  0  0  0  0  0  0  0  0
   48.7455   35.9318   42.6900 H   0  0  0  0  0  0  0  0  0  0  0  0
   48.5505   33.9502   38.0948 H   0  0  0  0  0  0  0  0  0  0  0  0
   44.6747   32.4602   38.9411 H   0  0  0  0  0  0  0  0  0  0  0  0
   47.9210   32.4108   45.1165 H   0  0  0  0  0  0  0  0  0  0  0  0
   46.5931   31.7047   44.1686 H   0  0  0  0  0  0  0  0  0  0  0  0
   46.9079   29.5324   45.2496 H   0  0  0  0  0  0  0  0  0  0  0  0
   48.5040   30.1222   44.6230 H   0  0  0  0  0  0  0  0  0  0  0  0
   47.1396   29.2372   48.0421 H   0  0  0  0  0  0  0  0  0  0  0  0
   47.7213   30.9220   48.4152 H   0  0  0  0  0  0  0  0  0  0  0  0
   45.4420   31.1914   48.0460 H   0  0  0  0  0  0  0  0  0  0  0  0
   45.4460   30.0305   46.6543 H   0  0  0  0  0  0  0  0  0  0  0  0
  1  6  2  0
  2  1  1  0
  3  2  2  0
  3  4  1  0
  4  5  2  0
  5  6  1  0
  5 16  1  0
  7  3  1  0
  8  7  1  0
  9  8  2  0
 10  9  1  0
 10 15  2  0
 11 10  1  0
 12 11  2  0
 12 13  1  0
 13 14  2  0
 14 15  1  0
 15  7  1  0
 16 17  2  0
 18 16  1  0
 18 23  1  0
 19 20  1  0
 19 18  1  0
 20 21  1  0
 21 22  1  0
 23 22  1  0
  1 24  1  0
  2 25  1  0
  8 26  1  0
 11 27  1  0
 13 28  1  0
 19 29  1  0
 19 30  1  0
 20 31  1  0
 20 32  1  0
 22 33  1  0
 22 34  1  0
 23 35  1  0
 23 36  1  0
M  ISO  8  24  14  25  14  26  14  27  14  28  14  29  13  30  13  31  13
M  ISO  5  32  13  33  13  34  13  35  13  36  13
M  END
>  <minimizedAffinity>  (1) 
-6.25976992

>  <minimizedRMSD>  (1) 
0.539744854

$$$$
