
     RDKit          3D

 30 32  0  0  0  0  0  0  0  0999 V2000
   44.5040   36.2480   44.3360 C   0  0  0  0  0  0  0  0  0  0  0  0
   45.3060   36.0890   43.1900 C   0  0  0  0  0  0  0  0  0  0  0  0
   46.1730   34.9810   43.1340 C   0  0  0  0  0  0  0  0  0  0  0  0
   46.1750   34.1390   44.1910 N   0  0  0  0  0  0  0  0  0  0  0  0
   45.3980   34.3170   45.2720 C   0  0  0  0  0  0  0  0  0  0  0  0
   44.5640   35.3590   45.3580 N   0  0  0  0  0  0  0  0  0  0  0  0
   46.9710   34.8340   41.9800 N   0  0  0  0  0  0  0  0  0  0  0  0
   48.2420   35.3310   41.8530 C   0  0  0  0  0  0  0  0  0  0  0  0
   48.7300   35.0150   40.6160 N   0  0  0  0  0  0  0  0  0  0  0  0
   47.7420   34.3230   39.9970 C   0  0  0  0  0  0  0  0  0  0  0  0
   47.7080   33.7670   38.7300 C   0  0  0  0  0  0  0  0  0  0  0  0
   46.5820   33.1240   38.3690 N   0  0  0  0  0  0  0  0  0  0  0  0
   45.5230   33.0280   39.2200 C   0  0  0  0  0  0  0  0  0  0  0  0
   45.5330   33.5620   40.4610 N   0  0  0  0  0  0  0  0  0  0  0  0
   46.6470   34.2080   40.8420 C   0  0  0  0  0  0  0  0  0  0  0  0
   45.4480   33.3720   46.3980 C   0  0  0  0  0  0  0  0  0  0  0  0
   44.8690   33.6110   47.4800 O   0  0  0  0  0  0  0  0  0  0  0  0
   46.1800   32.1510   46.2350 N   0  0  0  0  0  0  0  0  0  0  0  0
   47.2810   31.8720   47.1080 C   0  0  0  0  0  0  0  0  0  0  0  0
   47.5560   32.7500   48.0060 N   0  0  0  0  0  0  0  0  0  0  0  0
   47.9380   30.6330   46.8590 N   0  0  0  0  0  0  0  0  0  0  0  0
   48.3360   32.6390   48.6860 H   0  0  0  0  0  0  0  0  0  0  0  0
   43.8188   37.1059   44.4033 H   0  0  0  0  0  0  0  0  0  0  0  0
   45.2567   36.8105   42.3611 H   0  0  0  0  0  0  0  0  0  0  0  0
   48.7844   35.8957   42.6256 H   0  0  0  0  0  0  0  0  0  0  0  0
   48.5659   33.8473   38.0462 H   0  0  0  0  0  0  0  0  0  0  0  0
   44.6225   32.4937   38.8831 H   0  0  0  0  0  0  0  0  0  0  0  0
   45.9174   31.4811   45.4980 H   0  0  0  0  0  0  0  0  0  0  0  0
   48.7410   30.3502   47.4388 H   0  0  0  0  0  0  0  0  0  0  0  0
   47.6101   30.0198   46.0992 H   0  0  0  0  0  0  0  0  0  0  0  0
  1  6  2  0
  2  1  1  0
  3  2  2  0
  3  4  1  0
  4  5  2  0
  5  6  1  0
  5 16  1  0
  7  3  1  0
  8  7  1  0
  9  8  2  0
 10  9  1  0
 10 15  2  0
 11 10  1  0
 12 11  2  0
 12 13  1  0
 13 14  2  0
 14 15  1  0
 15  7  1  0
 16 17  2  0
 18 16  1  0
 18 19  1  0
 19 20  2  0
 20 22  1  0
 21 19  1  0
  1 23  1  0
  2 24  1  0
  8 25  1  0
 11 26  1  0
 13 27  1  0
 18 28  1  0
 21 29  1  0
 21 30  1  0
M  ISO  5  23  14  24  14  25  14  26  14  27  14
M  END
>  <minimizedAffinity>  (1) 
-6.2444768

>  <minimizedRMSD>  (1) 
0.516693115

$$$$
