
     RDKit          3D

 35 38  0  0  0  0  0  0  0  0999 V2000
   44.4850   36.0230   44.5000 C   0  0  0  0  0  0  0  0  0  0  0  0
   45.2660   35.9330   43.3320 C   0  0  0  0  0  0  0  0  0  0  0  0
   46.1910   34.8980   43.2610 C   0  0  0  0  0  0  0  0  0  0  0  0
   46.2830   34.0510   44.3060 N   0  0  0  0  0  0  0  0  0  0  0  0
   45.5230   34.1520   45.4230 C   0  0  0  0  0  0  0  0  0  0  0  0
   44.6230   35.1420   45.5160 N   0  0  0  0  0  0  0  0  0  0  0  0
   46.9780   34.8040   42.0880 N   0  0  0  0  0  0  0  0  0  0  0  0
   48.2270   35.3370   41.9430 C   0  0  0  0  0  0  0  0  0  0  0  0
   48.7090   35.0710   40.7000 N   0  0  0  0  0  0  0  0  0  0  0  0
   47.7400   34.3670   40.0830 C   0  0  0  0  0  0  0  0  0  0  0  0
   47.6920   33.8350   38.8040 C   0  0  0  0  0  0  0  0  0  0  0  0
   46.5750   33.1610   38.4380 N   0  0  0  0  0  0  0  0  0  0  0  0
   45.5530   33.0220   39.3040 C   0  0  0  0  0  0  0  0  0  0  0  0
   45.5470   33.5160   40.5540 N   0  0  0  0  0  0  0  0  0  0  0  0
   46.6550   34.1960   40.9430 C   0  0  0  0  0  0  0  0  0  0  0  0
   45.6560   33.2150   46.5280 C   0  0  0  0  0  0  0  0  0  0  0  0
   44.8910   33.3030   47.5370 O   0  0  0  0  0  0  0  0  0  0  0  0
   46.6670   32.1900   46.4550 N   0  0  0  0  0  0  0  0  0  0  0  0
   47.2070   31.2190   45.5240 C   0  0  0  0  0  0  0  0  0  0  0  0
   47.3760   29.9170   46.2860 C   0  0  0  0  0  0  0  0  0  0  0  0
   47.1820   30.3790   47.7340 C   0  0  0  0  0  0  0  0  0  0  0  0
   47.5540   31.8470   47.5690 C   0  0  0  0  0  0  0  0  0  0  0  0
   43.7436   36.8308   44.5881 H   0  0  0  0  0  0  0  0  0  0  0  0
   45.1488   36.6530   42.5086 H   0  0  0  0  0  0  0  0  0  0  0  0
   48.7652   35.9001   42.7197 H   0  0  0  0  0  0  0  0  0  0  0  0
   48.5348   33.9562   38.1075 H   0  0  0  0  0  0  0  0  0  0  0  0
   44.6649   32.4678   38.9662 H   0  0  0  0  0  0  0  0  0  0  0  0
   48.1801   31.5622   45.1428 H   0  0  0  0  0  0  0  0  0  0  0  0
   46.5347   31.0850   44.6637 H   0  0  0  0  0  0  0  0  0  0  0  0
   46.6136   29.1796   45.9945 H   0  0  0  0  0  0  0  0  0  0  0  0
   48.3362   29.4128   46.1023 H   0  0  0  0  0  0  0  0  0  0  0  0
   46.1427   30.2525   48.0714 H   0  0  0  0  0  0  0  0  0  0  0  0
   47.7617   29.8264   48.4881 H   0  0  0  0  0  0  0  0  0  0  0  0
   48.6142   31.9758   47.3056 H   0  0  0  0  0  0  0  0  0  0  0  0
   47.4387   32.4663   48.4708 H   0  0  0  0  0  0  0  0  0  0  0  0
  1  6  2  0
  2  1  1  0
  3  2  2  0
  3  4  1  0
  4  5  2  0
  5  6  1  0
  5 16  1  0
  7  3  1  0
  8  7  1  0
  9  8  2  0
 10  9  1  0
 10 15  2  0
 11 10  1  0
 12 11  2  0
 12 13  1  0
 13 14  2  0
 14 15  1  0
 15  7  1  0
 16 17  2  0
 18 16  1  0
 18 22  1  0
 19 20  1  0
 19 18  1  0
 20 21  1  0
 22 21  1  0
  1 23  1  0
  2 24  1  0
  8 25  1  0
 11 26  1  0
 13 27  1  0
 19 28  1  0
 19 29  1  0
 20 30  1  0
 20 31  1  0
 21 32  1  0
 21 33  1  0
 22 34  1  0
 22 35  1  0
M  ISO  8  23  14  24  14  25  14  26  14  27  14  28  13  29  13  30  13
M  ISO  5  31  13  32  13  33  13  34  13  35  13
M  END
>  <minimizedAffinity>  (1) 
-6.22723436

>  <minimizedRMSD>  (1) 
0.353142887

$$$$
