
     RDKit          3D

 30 33  0  0  0  0  0  0  0  0999 V2000
   44.5150   36.0210   44.4890 C   0  0  0  0  0  0  0  0  0  0  0  0
   45.3010   35.9400   43.3270 C   0  0  0  0  0  0  0  0  0  0  0  0
   46.2340   34.8880   43.2340 C   0  0  0  0  0  0  0  0  0  0  0  0
   46.3080   34.0320   44.2710 N   0  0  0  0  0  0  0  0  0  0  0  0
   45.5500   34.1170   45.3840 C   0  0  0  0  0  0  0  0  0  0  0  0
   44.6480   35.1170   45.4960 N   0  0  0  0  0  0  0  0  0  0  0  0
   47.0150   34.8170   42.0660 N   0  0  0  0  0  0  0  0  0  0  0  0
   48.2350   35.3780   41.9080 C   0  0  0  0  0  0  0  0  0  0  0  0
   48.7120   35.1260   40.6580 N   0  0  0  0  0  0  0  0  0  0  0  0
   47.7450   34.3860   40.0410 C   0  0  0  0  0  0  0  0  0  0  0  0
   47.7100   33.8630   38.7680 C   0  0  0  0  0  0  0  0  0  0  0  0
   46.6170   33.1620   38.4190 N   0  0  0  0  0  0  0  0  0  0  0  0
   45.5840   32.9790   39.2920 C   0  0  0  0  0  0  0  0  0  0  0  0
   45.5890   33.4800   40.5440 N   0  0  0  0  0  0  0  0  0  0  0  0
   46.6820   34.1880   40.9120 C   0  0  0  0  0  0  0  0  0  0  0  0
   45.6690   33.1650   46.4770 C   0  0  0  0  0  0  0  0  0  0  0  0
   44.9760   33.2950   47.5270 O   0  0  0  0  0  0  0  0  0  0  0  0
   46.5610   32.0300   46.4520 C   0  0  0  0  0  0  0  0  0  0  0  0
   47.2790   31.5680   47.5330 C   0  0  0  0  0  0  0  0  0  0  0  0
   48.0100   30.4880   47.1480 N   0  0  0  0  0  0  0  0  0  0  0  0
   47.7750   30.2470   45.8370 C   0  0  0  0  0  0  0  0  0  0  0  0
   46.9010   31.1950   45.4650 N   0  0  0  0  0  0  0  0  0  0  0  0
   43.7777   36.8316   44.5859 H   0  0  0  0  0  0  0  0  0  0  0  0
   45.1915   36.6746   42.5156 H   0  0  0  0  0  0  0  0  0  0  0  0
   48.7661   35.9554   42.6791 H   0  0  0  0  0  0  0  0  0  0  0  0
   48.5426   34.0126   38.0648 H   0  0  0  0  0  0  0  0  0  0  0  0
   44.7106   32.3984   38.9604 H   0  0  0  0  0  0  0  0  0  0  0  0
   47.2635   32.0022   48.5435 H   0  0  0  0  0  0  0  0  0  0  0  0
   48.2057   29.4495   45.2136 H   0  0  0  0  0  0  0  0  0  0  0  0
   46.5271   31.2720   44.5084 H   0  0  0  0  0  0  0  0  0  0  0  0
  1  6  2  0
  2  1  1  0
  3  2  2  0
  3  4  1  0
  4  5  2  0
  5  6  1  0
  5 16  1  0
  7  3  1  0
  8  7  1  0
  9  8  2  0
 10  9  1  0
 10 15  2  0
 11 10  1  0
 12 11  2  0
 12 13  1  0
 13 14  2  0
 14 15  1  0
 15  7  1  0
 16 17  2  0
 18 16  1  0
 18 19  2  0
 20 19  1  0
 21 20  2  0
 22 21  1  0
 22 18  1  0
  1 23  1  0
  2 24  1  0
  8 25  1  0
 11 26  1  0
 13 27  1  0
 19 28  1  0
 21 29  1  0
 22 30  1  0
M  ISO  8  23  14  24  14  25  14  26  14  27  14  28  14  29  14  30   9
M  END
>  <minimizedAffinity>  (1) 
-5.85866308

>  <minimizedRMSD>  (1) 
0.341415465

$$$$
