
     RDKit          3D

 39 41  0  0  1  0  0  0  0  0999 V2000
   47.7250   31.1930   43.6610 C   0  0  0  0  0  0  0  0  0  0  0  0
   46.8790   32.0020   42.9010 C   0  0  0  0  0  0  0  0  0  0  0  0
   45.9370   32.8290   43.5230 C   0  0  0  0  0  0  0  0  0  0  0  0
   45.9340   32.7630   44.8640 N   0  0  0  0  0  0  0  0  0  0  0  0
   46.7330   31.9960   45.6080 C   0  0  0  0  0  0  0  0  0  0  0  0
   47.6140   31.2250   45.0020 N   0  0  0  0  0  0  0  0  0  0  0  0
   46.5930   32.0510   47.0040 N   0  0  0  0  0  0  0  0  0  0  0  0
   45.4800   32.6230   47.7110 C   0  0  0  0  0  0  0  0  0  0  0  0
   44.7490   31.4920   48.4330 C   0  0  0  0  0  0  0  0  0  0  0  0
   45.6540   30.5450   48.9040 O   0  0  0  0  0  0  0  0  0  0  0  0
   46.8760   31.1000   49.1940 C   0  0  0  0  0  0  0  0  0  0  0  0
   47.5690   31.5310   47.9030 C   0  0  1  0  0  0  0  0  0  0  0  0
   44.9990   33.7220   42.7710 C   0  0  0  0  0  0  0  0  0  0  0  0
   45.1240   35.0550   42.8220 C   0  0  0  0  0  0  0  0  0  0  0  0
   43.7580   35.6220   41.7500 S   0  0  0  0  0  0  0  0  0  0  0  0
   43.2390   33.8250   41.4110 C   0  0  0  0  0  0  0  0  0  0  0  0
   44.0320   33.2540   42.0420 N   0  0  0  0  0  0  0  0  0  0  0  0
   42.1050   33.6430   40.5430 N   0  0  0  0  0  0  0  0  0  0  0  0
   41.7580   34.5400   39.5200 C   0  0  0  0  0  0  0  0  0  0  0  0
   42.7190   35.2630   39.0460 N   0  0  0  0  0  0  0  0  0  0  0  0
   40.3600   34.5180   39.1420 N   0  0  0  0  0  0  0  0  0  0  0  0
   42.4420   35.9170   38.2670 H   0  0  0  0  0  0  0  0  0  0  0  0
   48.1130   30.2880   47.2970 C   0  0  0  0  0  0  0  0  0  0  0  0
   49.0010   29.8170   48.0520 O   0  0  0  0  0  0  0  0  0  0  0  0
   48.6420   29.1260   46.7560 O   0  0  0  0  0  0  0  0  0  0  0  0
   48.4669   30.5429   43.1743 H   0  0  0  0  0  0  0  0  0  0  0  0
   46.9533   31.9894   41.8036 H   0  0  0  0  0  0  0  0  0  0  0  0
   45.8415   33.3608   48.4424 H   0  0  0  0  0  0  0  0  0  0  0  0
   44.8015   33.1308   47.0097 H   0  0  0  0  0  0  0  0  0  0  0  0
   44.1874   31.9088   49.2820 H   0  0  0  0  0  0  0  0  0  0  0  0
   44.0627   31.0047   47.7248 H   0  0  0  0  0  0  0  0  0  0  0  0
   46.7339   31.9772   49.8424 H   0  0  0  0  0  0  0  0  0  0  0  0
   47.4998   30.3548   49.7093 H   0  0  0  0  0  0  0  0  0  0  0  0
   48.3439   32.2872   48.0969 H   0  0  0  0  0  0  0  0  0  0  0  0
   45.8632   35.6566   43.3712 H   0  0  0  0  0  0  0  0  0  0  0  0
   41.5160   32.8092   40.6799 H   0  0  0  0  0  0  0  0  0  0  0  0
   40.0174   35.1440   38.3993 H   0  0  0  0  0  0  0  0  0  0  0  0
   39.7084   33.8763   39.6159 H   0  0  0  0  0  0  0  0  0  0  0  0
   48.2719   28.7586   45.9145 H   0  0  0  0  0  0  0  0  0  0  0  0
  1  6  2  0
  2  3  2  0
  2  1  1  0
  3  4  1  0
  4  5  2  0
  5  7  1  0
  6  5  1  0
  7  8  1  0
  7 12  1  0
  8  9  1  0
  9 10  1  0
 10 11  1  0
 12 11  1  0
 13 14  2  0
 13  3  1  0
 15 14  1  0
 16 15  1  0
 16 17  2  0
 17 13  1  0
 18 16  1  0
 19 18  1  0
 20 19  2  0
 21 19  1  0
 22 20  1  0
 23 12  1  0
 23 24  2  0
 25 23  1  0
  1 26  1  0
  2 27  1  0
  8 28  1  0
  8 29  1  0
  9 30  1  0
  9 31  1  0
 11 32  1  0
 11 33  1  0
 12 34  1  1
 14 35  1  0
 18 36  1  0
 21 37  1  0
 21 38  1  0
 25 39  1  0
M  ISO  8  26  14  27  14  28  13  29  13  30  13  31  13  32  13  33  13
M  ISO  3  34  13  35  14  39   3
M  END
>  <minimizedAffinity>  (1) 
-5.49710417

>  <minimizedRMSD>  (1) 
0.365052849

$$$$
