
     RDKit          3D

 30 33  0  0  0  0  0  0  0  0999 V2000
   44.5170   36.0790   44.5110 C   0  0  0  0  0  0  0  0  0  0  0  0
   45.2970   36.0110   43.3320 C   0  0  0  0  0  0  0  0  0  0  0  0
   46.1770   34.9420   43.2330 C   0  0  0  0  0  0  0  0  0  0  0  0
   46.2300   34.0420   44.2620 N   0  0  0  0  0  0  0  0  0  0  0  0
   45.4700   34.1410   45.3700 C   0  0  0  0  0  0  0  0  0  0  0  0
   44.6160   35.1560   45.4960 N   0  0  0  0  0  0  0  0  0  0  0  0
   46.9750   34.8400   42.0670 N   0  0  0  0  0  0  0  0  0  0  0  0
   48.2170   35.3640   41.9210 C   0  0  0  0  0  0  0  0  0  0  0  0
   48.7060   35.0790   40.6780 N   0  0  0  0  0  0  0  0  0  0  0  0
   47.7320   34.3660   40.0620 C   0  0  0  0  0  0  0  0  0  0  0  0
   47.6980   33.8280   38.7970 C   0  0  0  0  0  0  0  0  0  0  0  0
   46.5880   33.1590   38.4370 N   0  0  0  0  0  0  0  0  0  0  0  0
   45.5510   33.0260   39.2910 C   0  0  0  0  0  0  0  0  0  0  0  0
   45.5460   33.5410   40.5430 N   0  0  0  0  0  0  0  0  0  0  0  0
   46.6450   34.2110   40.9210 C   0  0  0  0  0  0  0  0  0  0  0  0
   45.5470   33.1650   46.4480 C   0  0  0  0  0  0  0  0  0  0  0  0
   44.9780   33.3610   47.5530 O   0  0  0  0  0  0  0  0  0  0  0  0
   46.2900   31.9200   46.2870 C   0  0  0  0  0  0  0  0  0  0  0  0
   47.3550   31.5640   47.1120 C   0  0  0  0  0  0  0  0  0  0  0  0
   47.8040   30.3210   46.6540 C   0  0  0  0  0  0  0  0  0  0  0  0
   46.9920   29.9910   45.5800 C   0  0  0  0  0  0  0  0  0  0  0  0
   46.1320   30.9550   45.4130 O   0  0  0  0  0  0  0  0  0  0  0  0
   43.8063   36.9100   44.6309 H   0  0  0  0  0  0  0  0  0  0  0  0
   45.2105   36.7654   42.5361 H   0  0  0  0  0  0  0  0  0  0  0  0
   48.7534   35.9361   42.6924 H   0  0  0  0  0  0  0  0  0  0  0  0
   48.5463   33.9404   38.1058 H   0  0  0  0  0  0  0  0  0  0  0  0
   44.6642   32.4704   38.9520 H   0  0  0  0  0  0  0  0  0  0  0  0
   47.7609   32.1438   47.9540 H   0  0  0  0  0  0  0  0  0  0  0  0
   48.6336   29.7258   47.0632 H   0  0  0  0  0  0  0  0  0  0  0  0
   47.0617   29.0752   44.9746 H   0  0  0  0  0  0  0  0  0  0  0  0
  1  6  2  0
  2  1  1  0
  3  2  2  0
  3  4  1  0
  4  5  2  0
  5  6  1  0
  5 16  1  0
  7  3  1  0
  8  7  1  0
  9  8  2  0
 10  9  1  0
 10 15  2  0
 11 10  1  0
 12 11  2  0
 12 13  1  0
 13 14  2  0
 14 15  1  0
 15  7  1  0
 16 17  2  0
 18 16  1  0
 18 19  2  0
 20 19  1  0
 21 20  2  0
 22 21  1  0
 22 18  1  0
  1 23  1  0
  2 24  1  0
  8 25  1  0
 11 26  1  0
 13 27  1  0
 19 28  1  0
 20 29  1  0
 21 30  1  0
M  ISO  8  23  14  24  14  25  14  26  14  27  14  28  14  29  14  30  14
M  END
>  <minimizedAffinity>  (1) 
-5.82119322

>  <minimizedRMSD>  (1) 
0.615307927

$$$$
