
     RDKit          3D

 30 33  0  0  0  0  0  0  0  0999 V2000
   44.7350   35.2760   44.8000 C   0  0  0  0  0  0  0  0  0  0  0  0
   45.4250   35.4210   43.5730 C   0  0  0  0  0  0  0  0  0  0  0  0
   46.4890   34.5640   43.3470 C   0  0  0  0  0  0  0  0  0  0  0  0
   46.8100   33.6420   44.3070 N   0  0  0  0  0  0  0  0  0  0  0  0
   46.1300   33.5390   45.4570 C   0  0  0  0  0  0  0  0  0  0  0  0
   45.1010   34.3370   45.7200 N   0  0  0  0  0  0  0  0  0  0  0  0
   47.2020   34.6940   42.1280 N   0  0  0  0  0  0  0  0  0  0  0  0
   48.3250   35.4680   41.9690 C   0  0  0  0  0  0  0  0  0  0  0  0
   48.7700   35.3740   40.6810 N   0  0  0  0  0  0  0  0  0  0  0  0
   47.8990   34.5290   40.0580 C   0  0  0  0  0  0  0  0  0  0  0  0
   47.8710   34.0680   38.7570 C   0  0  0  0  0  0  0  0  0  0  0  0
   46.8820   33.2170   38.4190 N   0  0  0  0  0  0  0  0  0  0  0  0
   45.9550   32.8310   39.3170 C   0  0  0  0  0  0  0  0  0  0  0  0
   45.9560   33.2650   40.5980 N   0  0  0  0  0  0  0  0  0  0  0  0
   46.9320   34.1130   40.9570 C   0  0  0  0  0  0  0  0  0  0  0  0
   46.5250   32.5870   46.4880 C   0  0  0  0  0  0  0  0  0  0  0  0
   47.3590   32.8580   47.3760 O   0  0  0  0  0  0  0  0  0  0  0  0
   45.8880   31.2200   46.4620 C   0  0  0  0  0  0  0  0  0  0  0  0
   45.3250   30.5750   47.4820 C   0  0  0  0  0  0  0  0  0  0  0  0
   44.8020   29.3500   47.2690 C   0  0  0  0  0  0  0  0  0  0  0  0
   44.8770   28.8370   46.0260 C   0  0  0  0  0  0  0  0  0  0  0  0
   45.7700   30.2240   45.0810 S   0  0  0  0  0  0  0  0  0  0  0  0
   43.8827   35.9365   45.0175 H   0  0  0  0  0  0  0  0  0  0  0  0
   45.1298   36.1794   42.8330 H   0  0  0  0  0  0  0  0  0  0  0  0
   48.7950   36.0721   42.7590 H   0  0  0  0  0  0  0  0  0  0  0  0
   48.6277   34.3835   38.0236 H   0  0  0  0  0  0  0  0  0  0  0  0
   45.1659   32.1352   38.9957 H   0  0  0  0  0  0  0  0  0  0  0  0
   45.2871   31.0334   48.4812 H   0  0  0  0  0  0  0  0  0  0  0  0
   44.3282   28.7867   48.0864 H   0  0  0  0  0  0  0  0  0  0  0  0
   44.5154   27.8670   45.6540 H   0  0  0  0  0  0  0  0  0  0  0  0
  1  6  2  0
  2  1  1  0
  3  2  2  0
  3  4  1  0
  4  5  2  0
  5  6  1  0
  5 16  1  0
  7  3  1  0
  8  7  1  0
  9  8  2  0
 10  9  1  0
 10 15  2  0
 11 10  1  0
 12 11  2  0
 12 13  1  0
 13 14  2  0
 14 15  1  0
 15  7  1  0
 16 17  2  0
 18 16  1  0
 18 19  2  0
 20 19  1  0
 21 20  2  0
 22 21  1  0
 22 18  1  0
  1 23  1  0
  2 24  1  0
  8 25  1  0
 11 26  1  0
 13 27  1  0
 19 28  1  0
 20 29  1  0
 21 30  1  0
M  ISO  8  23  14  24  14  25  14  26  14  27  14  28  14  29  14  30  14
M  END
>  <minimizedAffinity>  (1) 
-5.7511282

>  <minimizedRMSD>  (1) 
1.71980476

$$$$
