
     RDKit          3D

 24 26  0  0  0  0  0  0  0  0999 V2000
   47.1760   34.9120   41.9430 N   0  0  0  0  0  0  0  0  0  0  0  0
   48.3690   35.5330   41.8090 C   0  0  0  0  0  0  0  0  0  0  0  0
   48.8900   35.3180   40.5730 N   0  0  0  0  0  0  0  0  0  0  0  0
   47.9770   34.5350   39.9290 C   0  0  0  0  0  0  0  0  0  0  0  0
   47.9980   34.0220   38.6510 C   0  0  0  0  0  0  0  0  0  0  0  0
   46.9460   33.2720   38.2740 N   0  0  0  0  0  0  0  0  0  0  0  0
   45.9240   33.0400   39.1160 C   0  0  0  0  0  0  0  0  0  0  0  0
   45.8500   33.5180   40.3810 N   0  0  0  0  0  0  0  0  0  0  0  0
   46.9050   34.2790   40.7780 C   0  0  0  0  0  0  0  0  0  0  0  0
   44.4920   35.8390   44.2900 C   0  0  0  0  0  0  0  0  0  0  0  0
   45.3030   35.8250   43.1260 C   0  0  0  0  0  0  0  0  0  0  0  0
   46.3660   34.9300   43.1010 C   0  0  0  0  0  0  0  0  0  0  0  0
   46.5580   34.1340   44.1790 N   0  0  0  0  0  0  0  0  0  0  0  0
   45.7810   34.1540   45.2820 C   0  0  0  0  0  0  0  0  0  0  0  0
   44.7560   35.0020   45.3340 N   0  0  0  0  0  0  0  0  0  0  0  0
   46.0310   33.2700   46.4090 C   0  0  0  0  0  0  0  0  0  0  0  0
   45.1340   33.0320   47.2610 O   0  0  0  0  0  0  0  0  0  0  0  0
   47.2470   32.6390   46.6230 O   0  0  0  0  0  0  0  0  0  0  0  0
   48.8528   36.1317   42.5948 H   0  0  0  0  0  0  0  0  0  0  0  0
   48.8381   34.2168   37.9681 H   0  0  0  0  0  0  0  0  0  0  0  0
   45.0913   32.4198   38.7528 H   0  0  0  0  0  0  0  0  0  0  0  0
   43.6406   36.5328   44.3512 H   0  0  0  0  0  0  0  0  0  0  0  0
   45.0988   36.4951   42.2779 H   0  0  0  0  0  0  0  0  0  0  0  0
   47.3658   32.0460   47.4068 H   0  0  0  0  0  0  0  0  0  0  0  0
  1 12  1  0
  2  1  1  0
  3  2  2  0
  4  3  1  0
  4  9  2  0
  5  4  1  0
  6  5  2  0
  6  7  1  0
  7  8  2  0
  8  9  1  0
  9  1  1  0
 10 15  2  0
 11 10  1  0
 12 11  2  0
 12 13  1  0
 13 14  2  0
 14 15  1  0
 14 16  1  0
 16 18  1  0
 16 17  2  0
  2 19  1  0
  5 20  1  0
  7 21  1  0
 10 22  1  0
 11 23  1  0
 18 24  1  0
M  ISO  6  19  14  20  14  21  14  22  14  23  14  24   3
M  END
>  <minimizedAffinity>  (1) 
-5.50276566

>  <minimizedRMSD>  (1) 
0.236968666

$$$$
