
     RDKit          3D

 38 40  0  0  1  0  0  0  0  0999 V2000
   47.6030   31.0460   43.6280 C   0  0  0  0  0  0  0  0  0  0  0  0
   46.7760   31.8780   42.8600 C   0  0  0  0  0  0  0  0  0  0  0  0
   45.8890   32.7400   43.4850 C   0  0  0  0  0  0  0  0  0  0  0  0
   45.9100   32.6960   44.8380 N   0  0  0  0  0  0  0  0  0  0  0  0
   46.6860   31.9160   45.5770 C   0  0  0  0  0  0  0  0  0  0  0  0
   47.5240   31.1000   44.9660 N   0  0  0  0  0  0  0  0  0  0  0  0
   46.5740   32.0020   46.9710 N   0  0  0  0  0  0  0  0  0  0  0  0
   45.4840   32.6270   47.6900 C   0  0  0  0  0  0  0  0  0  0  0  0
   44.7330   31.5190   48.4370 C   0  0  0  0  0  0  0  0  0  0  0  0
   45.6130   30.5570   48.9100 O   0  0  0  0  0  0  0  0  0  0  0  0
   46.8660   31.0890   49.1730 C   0  0  0  0  0  0  0  0  0  0  0  0
   47.5510   31.4650   47.8700 C   0  0  1  0  0  0  0  0  0  0  0  0
   44.9720   33.6590   42.7450 C   0  0  0  0  0  0  0  0  0  0  0  0
   45.1250   34.9880   42.7860 C   0  0  0  0  0  0  0  0  0  0  0  0
   43.7690   35.5980   41.7330 S   0  0  0  0  0  0  0  0  0  0  0  0
   43.1970   33.8260   41.3990 C   0  0  0  0  0  0  0  0  0  0  0  0
   43.9830   33.2510   42.0220 N   0  0  0  0  0  0  0  0  0  0  0  0
   42.0470   33.6780   40.5430 N   0  0  0  0  0  0  0  0  0  0  0  0
   41.7360   34.5720   39.5140 C   0  0  0  0  0  0  0  0  0  0  0  0
   42.7140   35.2860   39.0290 N   0  0  0  0  0  0  0  0  0  0  0  0
   40.3520   34.5850   39.1180 N   0  0  0  0  0  0  0  0  0  0  0  0
   42.4540   35.9510   38.2610 H   0  0  0  0  0  0  0  0  0  0  0  0
   48.2720   30.3400   47.2910 N   0  0  0  0  0  0  0  0  0  0  0  0
   48.3080   30.3574   43.1393 H   0  0  0  0  0  0  0  0  0  0  0  0
   46.8313   31.8465   41.7618 H   0  0  0  0  0  0  0  0  0  0  0  0
   45.8788   33.3625   48.4063 H   0  0  0  0  0  0  0  0  0  0  0  0
   44.8115   33.1524   46.9960 H   0  0  0  0  0  0  0  0  0  0  0  0
   44.1914   31.9605   49.2865 H   0  0  0  0  0  0  0  0  0  0  0  0
   44.0295   31.0397   47.7403 H   0  0  0  0  0  0  0  0  0  0  0  0
   46.7572   31.9861   49.8002 H   0  0  0  0  0  0  0  0  0  0  0  0
   47.4749   30.3394   49.6995 H   0  0  0  0  0  0  0  0  0  0  0  0
   48.3116   32.2341   48.0700 H   0  0  0  0  0  0  0  0  0  0  0  0
   45.8859   35.5713   43.3253 H   0  0  0  0  0  0  0  0  0  0  0  0
   41.4229   32.8732   40.6970 H   0  0  0  0  0  0  0  0  0  0  0  0
   40.0373   35.2151   38.3664 H   0  0  0  0  0  0  0  0  0  0  0  0
   39.6765   33.9642   39.5863 H   0  0  0  0  0  0  0  0  0  0  0  0
   48.6503   29.7497   48.0455 H   0  0  0  0  0  0  0  0  0  0  0  0
   47.6298   29.7835   46.7090 H   0  0  0  0  0  0  0  0  0  0  0  0
  1  6  2  0
  2  3  2  0
  2  1  1  0
  3  4  1  0
  4  5  2  0
  5  7  1  0
  6  5  1  0
  7  8  1  0
  7 12  1  0
  8  9  1  0
  9 10  1  0
 10 11  1  0
 12 11  1  0
 13 14  2  0
 13  3  1  0
 15 14  1  0
 16 15  1  0
 16 17  2  0
 17 13  1  0
 18 16  1  0
 19 18  1  0
 20 19  2  0
 21 19  1  0
 22 20  1  0
 23 12  1  0
  1 24  1  0
  2 25  1  0
  8 26  1  0
  8 27  1  0
  9 28  1  0
  9 29  1  0
 11 30  1  0
 11 31  1  0
 12 32  1  1
 14 33  1  0
 18 34  1  0
 21 35  1  0
 21 36  1  0
 23 37  1  0
 23 38  1  0
M  ISO  8  24  14  25  14  26  13  27  13  28  13  29  13  30  13  31  13
M  ISO  4  32  13  33  14  37   5  38   5
M  END
>  <minimizedAffinity>  (1) 
-5.4702549

>  <minimizedRMSD>  (1) 
0.0412594005

$$$$
