
     RDKit          3D

 43 47  0  0  0  0  0  0  0  0999 V2000
   45.6630   32.8450   47.1330 C   0  0  0  0  0  0  0  0  0  0  0  0
   44.6910   32.8010   47.9290 O   0  0  0  0  0  0  0  0  0  0  0  0
   46.7560   31.9780   47.5180 C   0  0  0  0  0  0  0  0  0  0  0  0
   47.7830   32.4460   48.3300 C   0  0  0  0  0  0  0  0  0  0  0  0
   48.8330   31.5930   48.6900 C   0  0  0  0  0  0  0  0  0  0  0  0
   48.8830   30.2740   48.2570 C   0  0  0  0  0  0  0  0  0  0  0  0
   47.8500   29.8230   47.4470 C   0  0  0  0  0  0  0  0  0  0  0  0
   46.8280   30.6740   47.1050 C   0  0  0  0  0  0  0  0  0  0  0  0
   45.8360   30.0750   46.2810 N   0  0  0  0  0  0  0  0  0  0  0  0
   45.9690   30.1400   44.9410 C   0  0  0  0  0  0  0  0  0  0  0  0
   45.0140   29.5710   44.1020 C   0  0  0  0  0  0  0  0  0  0  0  0
   43.9270   28.9370   44.6660 C   0  0  0  0  0  0  0  0  0  0  0  0
   42.9850   28.3780   44.0250 O   0  0  0  0  0  0  0  0  0  0  0  0
   43.8950   28.9320   46.0130 N   0  0  0  0  0  0  0  0  0  0  0  0
   44.7890   29.4640   46.8650 C   0  0  0  0  0  0  0  0  0  0  0  0
   44.6160   29.3750   48.1080 O   0  0  0  0  0  0  0  0  0  0  0  0
   44.6950   35.4990   44.8230 C   0  0  0  0  0  0  0  0  0  0  0  0
   45.5700   35.3430   43.7180 C   0  0  0  0  0  0  0  0  0  0  0  0
   46.4910   34.2940   43.8140 C   0  0  0  0  0  0  0  0  0  0  0  0
   46.4670   33.5390   44.9250 N   0  0  0  0  0  0  0  0  0  0  0  0
   45.6290   33.7030   45.9620 C   0  0  0  0  0  0  0  0  0  0  0  0
   44.7440   34.6890   45.9020 N   0  0  0  0  0  0  0  0  0  0  0  0
   47.3840   34.1100   42.7230 N   0  0  0  0  0  0  0  0  0  0  0  0
   48.7430   34.2250   42.8030 C   0  0  0  0  0  0  0  0  0  0  0  0
   49.3090   33.9860   41.5840 N   0  0  0  0  0  0  0  0  0  0  0  0
   48.2560   33.7210   40.7480 C   0  0  0  0  0  0  0  0  0  0  0  0
   48.2470   33.4110   39.4000 C   0  0  0  0  0  0  0  0  0  0  0  0
   47.0330   33.1960   38.8360 N   0  0  0  0  0  0  0  0  0  0  0  0
   45.9020   33.2790   39.5520 C   0  0  0  0  0  0  0  0  0  0  0  0
   45.8860   33.5780   40.8640 N   0  0  0  0  0  0  0  0  0  0  0  0
   47.0680   33.8000   41.4650 C   0  0  0  0  0  0  0  0  0  0  0  0
   47.7705   33.4856   48.6892 H   0  0  0  0  0  0  0  0  0  0  0  0
   49.6392   31.9771   49.3323 H   0  0  0  0  0  0  0  0  0  0  0  0
   49.7116   29.6107   48.5457 H   0  0  0  0  0  0  0  0  0  0  0  0
   47.8500   28.7861   47.0798 H   0  0  0  0  0  0  0  0  0  0  0  0
   46.8418   30.6483   44.5053 H   0  0  0  0  0  0  0  0  0  0  0  0
   45.1248   29.6263   43.0090 H   0  0  0  0  0  0  0  0  0  0  0  0
   43.0855   28.4625   46.4434 H   0  0  0  0  0  0  0  0  0  0  0  0
   43.9503   36.3083   44.8002 H   0  0  0  0  0  0  0  0  0  0  0  0
   45.5274   36.0050   42.8406 H   0  0  0  0  0  0  0  0  0  0  0  0
   49.3007   34.4742   43.7178 H   0  0  0  0  0  0  0  0  0  0  0  0
   49.1766   33.3425   38.8159 H   0  0  0  0  0  0  0  0  0  0  0  0
   44.9441   33.0943   39.0438 H   0  0  0  0  0  0  0  0  0  0  0  0
  1  3  1  0
  1  2  2  0
  3  4  2  0
  4  5  1  0
  6  5  2  0
  7  6  1  0
  8  7  2  0
  8  3  1  0
  9 15  1  0
  9  8  1  0
 10  9  1  0
 11 12  1  0
 11 10  2  0
 12 14  1  0
 13 12  2  0
 14 15  1  0
 15 16  2  0
 17 22  2  0
 18 19  2  0
 18 17  1  0
 19 20  1  0
 20 21  2  0
 21  1  1  0
 22 21  1  0
 23 24  1  0
 23 19  1  0
 25 24  2  0
 26 31  2  0
 26 25  1  0
 27 26  1  0
 28 27  2  0
 28 29  1  0
 29 30  2  0
 30 31  1  0
 31 23  1  0
  4 32  1  0
  5 33  1  0
  6 34  1  0
  7 35  1  0
 10 36  1  0
 11 37  1  0
 14 38  1  0
 17 39  1  0
 18 40  1  0
 24 41  1  0
 27 42  1  0
 29 43  1  0
M  ISO  8  32  14  33  14  34  14  35  14  36  14  37  14  38   9  39  14
M  ISO  4  40  14  41  14  42  14  43  14
M  END
>  <minimizedAffinity>  (1) 
-6.5436492

>  <minimizedRMSD>  (1) 
1.77380025

$$$$
