
     RDKit          3D

 49 53  0  0  0  0  0  0  0  0999 V2000
   44.5990   35.6490   44.7740 C   0  0  0  0  0  0  0  0  0  0  0  0
   45.4570   35.4810   43.6600 C   0  0  0  0  0  0  0  0  0  0  0  0
   46.3870   34.4220   43.7400 C   0  0  0  0  0  0  0  0  0  0  0  0
   46.3770   33.6760   44.8530 N   0  0  0  0  0  0  0  0  0  0  0  0
   45.5500   33.8510   45.9050 C   0  0  0  0  0  0  0  0  0  0  0  0
   44.6610   34.8390   45.8620 N   0  0  0  0  0  0  0  0  0  0  0  0
   47.2440   34.2250   42.6400 N   0  0  0  0  0  0  0  0  0  0  0  0
   48.5800   34.3590   42.6570 C   0  0  0  0  0  0  0  0  0  0  0  0
   49.1150   34.0970   41.4310 N   0  0  0  0  0  0  0  0  0  0  0  0
   48.0530   33.7920   40.6400 C   0  0  0  0  0  0  0  0  0  0  0  0
   48.0190   33.4450   39.3060 C   0  0  0  0  0  0  0  0  0  0  0  0
   46.7830   33.1890   38.7790 N   0  0  0  0  0  0  0  0  0  0  0  0
   45.6670   33.2720   39.5270 C   0  0  0  0  0  0  0  0  0  0  0  0
   45.6840   33.6060   40.8180 N   0  0  0  0  0  0  0  0  0  0  0  0
   46.8820   33.8690   41.3910 C   0  0  0  0  0  0  0  0  0  0  0  0
   45.5890   32.9860   47.0820 C   0  0  0  0  0  0  0  0  0  0  0  0
   44.6660   33.0290   47.9340 O   0  0  0  0  0  0  0  0  0  0  0  0
   46.6290   32.0300   47.4020 C   0  0  0  0  0  0  0  0  0  0  0  0
   47.6550   32.3820   48.2740 C   0  0  0  0  0  0  0  0  0  0  0  0
   48.6620   31.4540   48.5610 C   0  0  0  0  0  0  0  0  0  0  0  0
   48.6710   30.1820   47.9960 C   0  0  0  0  0  0  0  0  0  0  0  0
   47.6310   29.8550   47.1250 C   0  0  0  0  0  0  0  0  0  0  0  0
   46.6350   30.7770   46.8470 C   0  0  0  0  0  0  0  0  0  0  0  0
   45.5950   30.1600   45.9810 C   0  0  0  0  0  0  0  0  0  0  0  0
   44.6620   29.3140   46.8660 C   0  0  0  0  0  0  0  0  0  0  0  0
   44.2000   28.1030   46.1130 C   0  0  0  0  0  0  0  0  0  0  0  0
   45.4130   27.2510   45.8180 C   0  0  0  0  0  0  0  0  0  0  0  0
   46.3070   27.9920   44.8570 C   0  0  0  0  0  0  0  0  0  0  0  0
   46.0970   29.4480   44.7870 C   0  0  0  0  0  0  0  0  0  0  0  0
   43.8583   36.4621   44.7574 H   0  0  0  0  0  0  0  0  0  0  0  0
   45.4018   36.1395   42.7806 H   0  0  0  0  0  0  0  0  0  0  0  0
   49.1657   34.6429   43.5438 H   0  0  0  0  0  0  0  0  0  0  0  0
   48.9343   33.3778   38.6997 H   0  0  0  0  0  0  0  0  0  0  0  0
   44.6986   33.0548   39.0527 H   0  0  0  0  0  0  0  0  0  0  0  0
   47.6741   33.3812   48.7336 H   0  0  0  0  0  0  0  0  0  0  0  0
   49.4691   31.7376   49.2525 H   0  0  0  0  0  0  0  0  0  0  0  0
   49.4687   29.4609   48.2276 H   0  0  0  0  0  0  0  0  0  0  0  0
   47.6018   28.8601   46.6567 H   0  0  0  0  0  0  0  0  0  0  0  0
   45.0217   30.9768   45.5182 H   0  0  0  0  0  0  0  0  0  0  0  0
   45.2049   28.9966   47.7685 H   0  0  0  0  0  0  0  0  0  0  0  0
   43.7876   29.9181   47.1497 H   0  0  0  0  0  0  0  0  0  0  0  0
   43.4828   27.5343   46.7230 H   0  0  0  0  0  0  0  0  0  0  0  0
   43.7022   28.3991   45.1779 H   0  0  0  0  0  0  0  0  0  0  0  0
   45.9595   27.0507   46.7514 H   0  0  0  0  0  0  0  0  0  0  0  0
   45.0984   26.2952   45.3735 H   0  0  0  0  0  0  0  0  0  0  0  0
   47.3497   27.8145   45.1592 H   0  0  0  0  0  0  0  0  0  0  0  0
   46.0617   27.6040   43.8574 H   0  0  0  0  0  0  0  0  0  0  0  0
   47.0649   29.9006   44.5256 H   0  0  0  0  0  0  0  0  0  0  0  0
   45.2856   29.5614   44.0530 H   0  0  0  0  0  0  0  0  0  0  0  0
  1  6  2  0
  2  3  2  0
  2  1  1  0
  3  4  1  0
  4  5  2  0
  5 16  1  0
  6  5  1  0
  7  8  1  0
  7  3  1  0
  9  8  2  0
 10 15  2  0
 10  9  1  0
 11 10  1  0
 12 11  2  0
 12 13  1  0
 13 14  2  0
 14 15  1  0
 15  7  1  0
 16 18  1  0
 16 17  2  0
 18 19  2  0
 19 20  1  0
 21 20  2  0
 22 21  1  0
 23 22  2  0
 23 18  1  0
 24 23  1  0
 24 25  1  0
 26 25  1  0
 27 26  1  0
 28 27  1  0
 29 28  1  0
 29 24  1  0
  1 30  1  0
  2 31  1  0
  8 32  1  0
 11 33  1  0
 13 34  1  0
 19 35  1  0
 20 36  1  0
 21 37  1  0
 22 38  1  0
 24 39  1  0
 25 40  1  0
 25 41  1  0
 26 42  1  0
 26 43  1  0
 27 44  1  0
 27 45  1  0
 28 46  1  0
 28 47  1  0
 29 48  1  0
 29 49  1  0
M  ISO  8  30  14  31  14  32  14  33  14  34  14  35  14  36  14  37  14
M  ISO  8  38  14  39  13  40  13  41  13  42  13  43  13  44  13  45  13
M  ISO  4  46  13  47  13  48  13  49  13
M  END
>  <minimizedAffinity>  (1) 
-6.35331583

>  <minimizedRMSD>  (1) 
1.91985512

$$$$
