
     RDKit          3D

 48 52  0  0  0  0  0  0  0  0999 V2000
   44.6860   35.5520   44.7280 C   0  0  0  0  0  0  0  0  0  0  0  0
   45.5720   35.3730   43.6380 C   0  0  0  0  0  0  0  0  0  0  0  0
   46.4980   34.3250   43.7560 C   0  0  0  0  0  0  0  0  0  0  0  0
   46.4550   33.5990   44.8820 N   0  0  0  0  0  0  0  0  0  0  0  0
   45.6160   33.7740   45.9070 C   0  0  0  0  0  0  0  0  0  0  0  0
   44.7250   34.7600   45.8260 N   0  0  0  0  0  0  0  0  0  0  0  0
   47.3970   34.1220   42.6750 N   0  0  0  0  0  0  0  0  0  0  0  0
   48.7380   34.2380   42.7440 C   0  0  0  0  0  0  0  0  0  0  0  0
   49.3040   33.9780   41.5270 N   0  0  0  0  0  0  0  0  0  0  0  0
   48.2490   33.6960   40.7000 C   0  0  0  0  0  0  0  0  0  0  0  0
   48.2380   33.3610   39.3530 C   0  0  0  0  0  0  0  0  0  0  0  0
   47.0330   33.1340   38.7900 N   0  0  0  0  0  0  0  0  0  0  0  0
   45.8910   33.2280   39.5110 C   0  0  0  0  0  0  0  0  0  0  0  0
   45.8850   33.5510   40.8140 N   0  0  0  0  0  0  0  0  0  0  0  0
   47.0630   33.7870   41.4160 C   0  0  0  0  0  0  0  0  0  0  0  0
   45.6380   32.9330   47.1010 C   0  0  0  0  0  0  0  0  0  0  0  0
   44.6860   32.9630   47.9230 O   0  0  0  0  0  0  0  0  0  0  0  0
   46.6910   32.0140   47.4700 C   0  0  0  0  0  0  0  0  0  0  0  0
   47.7180   32.4000   48.3020 C   0  0  0  0  0  0  0  0  0  0  0  0
   48.7300   31.4960   48.6340 C   0  0  0  0  0  0  0  0  0  0  0  0
   48.7510   30.2020   48.1570 C   0  0  0  0  0  0  0  0  0  0  0  0
   47.7090   29.8240   47.3200 C   0  0  0  0  0  0  0  0  0  0  0  0
   46.7140   30.7290   47.0000 C   0  0  0  0  0  0  0  0  0  0  0  0
   45.7240   30.1440   46.1760 N   0  0  0  0  0  0  0  0  0  0  0  0
   44.6540   29.4300   46.8920 C   0  0  0  0  0  0  0  0  0  0  0  0
   44.3180   28.1110   46.2630 C   0  0  0  0  0  0  0  0  0  0  0  0
   45.4460   27.6120   45.4230 C   0  0  0  0  0  0  0  0  0  0  0  0
   45.6240   28.5990   44.2780 C   0  0  0  0  0  0  0  0  0  0  0  0
   45.4400   30.0230   44.7700 C   0  0  0  0  0  0  0  0  0  0  0  0
   43.9418   36.3607   44.6815 H   0  0  0  0  0  0  0  0  0  0  0  0
   45.5365   36.0192   42.7485 H   0  0  0  0  0  0  0  0  0  0  0  0
   49.2985   34.5045   43.6522 H   0  0  0  0  0  0  0  0  0  0  0  0
   49.1686   33.2841   38.7715 H   0  0  0  0  0  0  0  0  0  0  0  0
   44.9315   33.0322   39.0101 H   0  0  0  0  0  0  0  0  0  0  0  0
   47.7416   33.4227   48.7063 H   0  0  0  0  0  0  0  0  0  0  0  0
   49.5398   31.8283   49.3002 H   0  0  0  0  0  0  0  0  0  0  0  0
   49.5555   29.5020   48.4269 H   0  0  0  0  0  0  0  0  0  0  0  0
   47.6754   28.8033   46.9112 H   0  0  0  0  0  0  0  0  0  0  0  0
   44.9805   29.2532   47.9275 H   0  0  0  0  0  0  0  0  0  0  0  0
   43.7512   30.0571   46.8519 H   0  0  0  0  0  0  0  0  0  0  0  0
   44.1093   27.3779   47.0561 H   0  0  0  0  0  0  0  0  0  0  0  0
   43.4367   28.2462   45.6188 H   0  0  0  0  0  0  0  0  0  0  0  0
   46.3672   27.5589   46.0217 H   0  0  0  0  0  0  0  0  0  0  0  0
   45.2317   26.6034   45.0399 H   0  0  0  0  0  0  0  0  0  0  0  0
   44.8784   28.3865   43.4977 H   0  0  0  0  0  0  0  0  0  0  0  0
   46.6402   28.4919   43.8708 H   0  0  0  0  0  0  0  0  0  0  0  0
   46.1197   30.6833   44.2114 H   0  0  0  0  0  0  0  0  0  0  0  0
   44.3900   30.3077   44.6077 H   0  0  0  0  0  0  0  0  0  0  0  0
  1  6  2  0
  2  3  2  0
  2  1  1  0
  3  4  1  0
  4  5  2  0
  5 16  1  0
  6  5  1  0
  7  8  1  0
  7  3  1  0
  9  8  2  0
 10 15  2  0
 10  9  1  0
 11 10  1  0
 12 11  2  0
 12 13  1  0
 13 14  2  0
 14 15  1  0
 15  7  1  0
 16 18  1  0
 16 17  2  0
 18 19  2  0
 19 20  1  0
 21 20  2  0
 22 21  1  0
 23 22  2  0
 23 18  1  0
 24 25  1  0
 24 23  1  0
 26 25  1  0
 27 26  1  0
 28 29  1  0
 28 27  1  0
 29 24  1  0
  1 30  1  0
  2 31  1  0
  8 32  1  0
 11 33  1  0
 13 34  1  0
 19 35  1  0
 20 36  1  0
 21 37  1  0
 22 38  1  0
 25 39  1  0
 25 40  1  0
 26 41  1  0
 26 42  1  0
 27 43  1  0
 27 44  1  0
 28 45  1  0
 28 46  1  0
 29 47  1  0
 29 48  1  0
M  ISO  8  30  14  31  14  32  14  33  14  34  14  35  14  36  14  37  14
M  ISO  8  38  14  39  13  40  13  41  13  42  13  43  13  44  13  45  13
M  ISO  3  46  13  47  13  48  13
M  END
>  <minimizedAffinity>  (1) 
-6.25354385

>  <minimizedRMSD>  (1) 
1.48925936

$$$$
