
     RDKit          3D

 46 50  0  0  0  0  0  0  0  0999 V2000
   44.6410   35.5840   44.7850 C   0  0  0  0  0  0  0  0  0  0  0  0
   45.5180   35.4330   43.6840 C   0  0  0  0  0  0  0  0  0  0  0  0
   46.4500   34.3760   43.7780 C   0  0  0  0  0  0  0  0  0  0  0  0
   46.4100   33.6290   44.8930 N   0  0  0  0  0  0  0  0  0  0  0  0
   45.5740   33.7870   45.9230 C   0  0  0  0  0  0  0  0  0  0  0  0
   44.6840   34.7740   45.8630 N   0  0  0  0  0  0  0  0  0  0  0  0
   47.3410   34.1980   42.6910 N   0  0  0  0  0  0  0  0  0  0  0  0
   48.6780   34.3340   42.7470 C   0  0  0  0  0  0  0  0  0  0  0  0
   49.2340   34.0960   41.5290 N   0  0  0  0  0  0  0  0  0  0  0  0
   48.1840   33.8030   40.7010 C   0  0  0  0  0  0  0  0  0  0  0  0
   48.1590   33.4820   39.3550 C   0  0  0  0  0  0  0  0  0  0  0  0
   46.9500   33.2400   38.7990 N   0  0  0  0  0  0  0  0  0  0  0  0
   45.8230   33.3110   39.5290 C   0  0  0  0  0  0  0  0  0  0  0  0
   45.8170   33.6190   40.8330 N   0  0  0  0  0  0  0  0  0  0  0  0
   46.9970   33.8690   41.4330 C   0  0  0  0  0  0  0  0  0  0  0  0
   45.5960   32.9260   47.1030 C   0  0  0  0  0  0  0  0  0  0  0  0
   44.6620   32.9380   47.9310 O   0  0  0  0  0  0  0  0  0  0  0  0
   46.6550   32.0010   47.4430 C   0  0  0  0  0  0  0  0  0  0  0  0
   47.6900   32.3660   48.2840 C   0  0  0  0  0  0  0  0  0  0  0  0
   48.7120   31.4800   48.6020 C   0  0  0  0  0  0  0  0  0  0  0  0
   48.7320   30.1900   48.0860 C   0  0  0  0  0  0  0  0  0  0  0  0
   47.6900   29.8240   47.2390 C   0  0  0  0  0  0  0  0  0  0  0  0
   46.6970   30.7250   46.9480 C   0  0  0  0  0  0  0  0  0  0  0  0
   45.7030   30.1680   46.1020 N   0  0  0  0  0  0  0  0  0  0  0  0
   44.6570   29.4020   46.8050 C   0  0  0  0  0  0  0  0  0  0  0  0
   44.3930   28.1090   46.0600 C   0  0  0  0  0  0  0  0  0  0  0  0
   45.3670   27.7920   45.1320 O   0  0  0  0  0  0  0  0  0  0  0  0
   45.5550   28.7390   44.1370 C   0  0  0  0  0  0  0  0  0  0  0  0
   45.4610   30.1560   44.6710 C   0  0  0  0  0  0  0  0  0  0  0  0
   43.8959   36.3928   44.7606 H   0  0  0  0  0  0  0  0  0  0  0  0
   45.4761   36.0982   42.8089 H   0  0  0  0  0  0  0  0  0  0  0  0
   49.2431   34.6007   43.6523 H   0  0  0  0  0  0  0  0  0  0  0  0
   49.0838   33.4260   38.7621 H   0  0  0  0  0  0  0  0  0  0  0  0
   44.8625   33.1070   39.0332 H   0  0  0  0  0  0  0  0  0  0  0  0
   47.7046   33.3798   48.7106 H   0  0  0  0  0  0  0  0  0  0  0  0
   49.5196   31.8056   49.2742 H   0  0  0  0  0  0  0  0  0  0  0  0
   49.5392   29.4861   48.3369 H   0  0  0  0  0  0  0  0  0  0  0  0
   47.6626   28.8142   46.8037 H   0  0  0  0  0  0  0  0  0  0  0  0
   44.9934   29.1744   47.8273 H   0  0  0  0  0  0  0  0  0  0  0  0
   43.7325   29.9966   46.8478 H   0  0  0  0  0  0  0  0  0  0  0  0
   44.3337   27.2916   46.7938 H   0  0  0  0  0  0  0  0  0  0  0  0
   43.4531   28.2448   45.5049 H   0  0  0  0  0  0  0  0  0  0  0  0
   44.7843   28.5994   43.3646 H   0  0  0  0  0  0  0  0  0  0  0  0
   46.5649   28.5996   43.7238 H   0  0  0  0  0  0  0  0  0  0  0  0
   46.2123   30.7840   44.1699 H   0  0  0  0  0  0  0  0  0  0  0  0
   44.4525   30.5484   44.4736 H   0  0  0  0  0  0  0  0  0  0  0  0
  1  6  2  0
  2  3  2  0
  2  1  1  0
  3  4  1  0
  4  5  2  0
  5 16  1  0
  6  5  1  0
  7  8  1  0
  7  3  1  0
  9  8  2  0
 10 15  2  0
 10  9  1  0
 11 10  1  0
 12 11  2  0
 12 13  1  0
 13 14  2  0
 14 15  1  0
 15  7  1  0
 16 18  1  0
 16 17  2  0
 18 19  2  0
 19 20  1  0
 21 20  2  0
 22 21  1  0
 23 22  2  0
 23 18  1  0
 24 25  1  0
 24 23  1  0
 26 25  1  0
 27 26  1  0
 28 29  1  0
 28 27  1  0
 29 24  1  0
  1 30  1  0
  2 31  1  0
  8 32  1  0
 11 33  1  0
 13 34  1  0
 19 35  1  0
 20 36  1  0
 21 37  1  0
 22 38  1  0
 25 39  1  0
 25 40  1  0
 26 41  1  0
 26 42  1  0
 28 43  1  0
 28 44  1  0
 29 45  1  0
 29 46  1  0
M  ISO  8  30  14  31  14  32  14  33  14  34  14  35  14  36  14  37  14
M  ISO  8  38  14  39  13  40  13  41  13  42  13  43  13  44  13  45  13
M  ISO  1  46  13
M  END
>  <minimizedAffinity>  (1) 
-6.19522047

>  <minimizedRMSD>  (1) 
1.64247453

$$$$
