
     RDKit          3D

 38 42  0  0  0  0  0  0  0  0999 V2000
   44.7200   35.4600   44.8000 C   0  0  0  0  0  0  0  0  0  0  0  0
   45.6120   35.2810   43.7040 C   0  0  0  0  0  0  0  0  0  0  0  0
   46.5410   34.2290   43.8180 C   0  0  0  0  0  0  0  0  0  0  0  0
   46.5050   33.4940   44.9410 N   0  0  0  0  0  0  0  0  0  0  0  0
   45.6510   33.6760   45.9710 C   0  0  0  0  0  0  0  0  0  0  0  0
   44.7600   34.6610   45.8950 N   0  0  0  0  0  0  0  0  0  0  0  0
   47.4200   34.0180   42.7370 N   0  0  0  0  0  0  0  0  0  0  0  0
   48.7590   34.0710   42.8140 C   0  0  0  0  0  0  0  0  0  0  0  0
   49.3150   33.8230   41.5820 N   0  0  0  0  0  0  0  0  0  0  0  0
   48.2570   33.6170   40.7490 C   0  0  0  0  0  0  0  0  0  0  0  0
   48.2560   33.3260   39.3970 C   0  0  0  0  0  0  0  0  0  0  0  0
   47.0250   33.1690   38.8210 N   0  0  0  0  0  0  0  0  0  0  0  0
   45.8960   33.2900   39.5350 C   0  0  0  0  0  0  0  0  0  0  0  0
   45.8810   33.5720   40.8450 N   0  0  0  0  0  0  0  0  0  0  0  0
   47.0780   33.7370   41.4610 C   0  0  0  0  0  0  0  0  0  0  0  0
   45.6510   32.8200   47.1550 C   0  0  0  0  0  0  0  0  0  0  0  0
   44.6760   32.8080   47.9370 O   0  0  0  0  0  0  0  0  0  0  0  0
   46.7240   31.9260   47.5480 C   0  0  0  0  0  0  0  0  0  0  0  0
   47.7540   32.4010   48.3580 C   0  0  0  0  0  0  0  0  0  0  0  0
   48.8070   31.5490   48.7140 C   0  0  0  0  0  0  0  0  0  0  0  0
   48.8660   30.2490   48.2910 C   0  0  0  0  0  0  0  0  0  0  0  0
   47.8310   29.8010   47.4890 C   0  0  0  0  0  0  0  0  0  0  0  0
   46.7720   30.6250   47.1240 C   0  0  0  0  0  0  0  0  0  0  0  0
   45.7110   29.9590   46.3370 C   0  0  0  0  0  0  0  0  0  0  0  0
   44.6110   29.3030   46.7410 N   0  0  0  0  0  0  0  0  0  0  0  0
   43.9410   28.8740   45.7190 O   0  0  0  0  0  0  0  0  0  0  0  0
   44.5760   29.2360   44.6330 C   0  0  0  0  0  0  0  0  0  0  0  0
   45.6710   29.9070   44.9970 N   0  0  0  0  0  0  0  0  0  0  0  0
   43.9770   36.2700   44.7569 H   0  0  0  0  0  0  0  0  0  0  0  0
   45.5770   35.9297   42.8163 H   0  0  0  0  0  0  0  0  0  0  0  0
   49.3289   34.2824   43.7308 H   0  0  0  0  0  0  0  0  0  0  0  0
   49.1875   33.2269   38.8203 H   0  0  0  0  0  0  0  0  0  0  0  0
   44.9343   33.1508   39.0195 H   0  0  0  0  0  0  0  0  0  0  0  0
   47.7399   33.4409   48.7162 H   0  0  0  0  0  0  0  0  0  0  0  0
   49.6127   31.9374   49.3543 H   0  0  0  0  0  0  0  0  0  0  0  0
   49.6990   29.5894   48.5758 H   0  0  0  0  0  0  0  0  0  0  0  0
   47.8465   28.7616   47.1293 H   0  0  0  0  0  0  0  0  0  0  0  0
   44.2619   29.0241   43.6003 H   0  0  0  0  0  0  0  0  0  0  0  0
  1  6  2  0
  2  3  2  0
  2  1  1  0
  3  4  1  0
  4  5  2  0
  5 16  1  0
  6  5  1  0
  7  8  1  0
  7  3  1  0
  9  8  2  0
 10 15  2  0
 10  9  1  0
 11 10  1  0
 12 11  2  0
 12 13  1  0
 13 14  2  0
 14 15  1  0
 15  7  1  0
 16 18  1  0
 16 17  2  0
 18 19  2  0
 19 20  1  0
 21 20  2  0
 22 21  1  0
 23 22  2  0
 23 18  1  0
 24 25  2  0
 24 23  1  0
 26 25  1  0
 27 28  2  0
 27 26  1  0
 28 24  1  0
  1 29  1  0
  2 30  1  0
  8 31  1  0
 11 32  1  0
 13 33  1  0
 19 34  1  0
 20 35  1  0
 21 36  1  0
 22 37  1  0
 27 38  1  0
M  ISO  8  29  14  30  14  31  14  32  14  33  14  34  14  35  14  36  14
M  ISO  2  37  14  38  14
M  END
>  <minimizedAffinity>  (1) 
-6.15374136

>  <minimizedRMSD>  (1) 
1.52447009

$$$$
