
     RDKit          3D

 40 44  0  0  0  0  0  0  0  0999 V2000
   44.7410   35.4100   44.8700 C   0  0  0  0  0  0  0  0  0  0  0  0
   45.6170   35.2500   43.7780 C   0  0  0  0  0  0  0  0  0  0  0  0
   46.5300   34.1950   43.8630 C   0  0  0  0  0  0  0  0  0  0  0  0
   46.4950   33.4300   44.9740 N   0  0  0  0  0  0  0  0  0  0  0  0
   45.6560   33.5980   46.0020 C   0  0  0  0  0  0  0  0  0  0  0  0
   44.7770   34.5870   45.9540 N   0  0  0  0  0  0  0  0  0  0  0  0
   47.4270   34.0120   42.7720 N   0  0  0  0  0  0  0  0  0  0  0  0
   48.7770   34.0920   42.8570 C   0  0  0  0  0  0  0  0  0  0  0  0
   49.3390   33.8660   41.6270 N   0  0  0  0  0  0  0  0  0  0  0  0
   48.2900   33.6440   40.7900 C   0  0  0  0  0  0  0  0  0  0  0  0
   48.2620   33.3660   39.4440 C   0  0  0  0  0  0  0  0  0  0  0  0
   47.0440   33.1890   38.8580 N   0  0  0  0  0  0  0  0  0  0  0  0
   45.9140   33.2850   39.5780 C   0  0  0  0  0  0  0  0  0  0  0  0
   45.9080   33.5560   40.8980 N   0  0  0  0  0  0  0  0  0  0  0  0
   47.0930   33.7380   41.5120 C   0  0  0  0  0  0  0  0  0  0  0  0
   45.6720   32.7310   47.1730 C   0  0  0  0  0  0  0  0  0  0  0  0
   44.6790   32.6490   47.9260 O   0  0  0  0  0  0  0  0  0  0  0  0
   46.7820   31.9040   47.5920 C   0  0  0  0  0  0  0  0  0  0  0  0
   47.7960   32.4080   48.3960 C   0  0  0  0  0  0  0  0  0  0  0  0
   48.8500   31.5940   48.7850 C   0  0  0  0  0  0  0  0  0  0  0  0
   48.9370   30.2660   48.3960 C   0  0  0  0  0  0  0  0  0  0  0  0
   47.9260   29.7670   47.5960 C   0  0  0  0  0  0  0  0  0  0  0  0
   46.8880   30.5840   47.2180 C   0  0  0  0  0  0  0  0  0  0  0  0
   45.9000   29.9690   46.3940 N   0  0  0  0  0  0  0  0  0  0  0  0
   44.9100   29.3020   46.9980 N   0  0  0  0  0  0  0  0  0  0  0  0
   44.0670   28.7840   46.0900 C   0  0  0  0  0  0  0  0  0  0  0  0
   44.5850   29.1650   44.8700 C   0  0  0  0  0  0  0  0  0  0  0  0
   45.7440   29.9130   45.0520 C   0  0  0  0  0  0  0  0  0  0  0  0
   44.0041   36.2263   44.8459 H   0  0  0  0  0  0  0  0  0  0  0  0
   45.5841   35.9193   42.9056 H   0  0  0  0  0  0  0  0  0  0  0  0
   49.3394   34.3067   43.7776 H   0  0  0  0  0  0  0  0  0  0  0  0
   49.1908   33.2890   38.8597 H   0  0  0  0  0  0  0  0  0  0  0  0
   44.9511   33.1358   39.0675 H   0  0  0  0  0  0  0  0  0  0  0  0
   47.7634   33.4569   48.7258 H   0  0  0  0  0  0  0  0  0  0  0  0
   49.6415   32.0154   49.4221 H   0  0  0  0  0  0  0  0  0  0  0  0
   49.7792   29.6330   48.7122 H   0  0  0  0  0  0  0  0  0  0  0  0
   47.9525   28.7189   47.2630 H   0  0  0  0  0  0  0  0  0  0  0  0
   43.1623   28.1871   46.2780 H   0  0  0  0  0  0  0  0  0  0  0  0
   44.1452   28.9137   43.8936 H   0  0  0  0  0  0  0  0  0  0  0  0
   46.3878   30.3581   44.2790 H   0  0  0  0  0  0  0  0  0  0  0  0
  1  6  2  0
  2  3  2  0
  2  1  1  0
  3  4  1  0
  4  5  2  0
  5 16  1  0
  6  5  1  0
  7  8  1  0
  7  3  1  0
  9  8  2  0
 10 15  2  0
 10  9  1  0
 11 10  1  0
 12 11  2  0
 12 13  1  0
 13 14  2  0
 14 15  1  0
 15  7  1  0
 16 18  1  0
 16 17  2  0
 18 19  2  0
 19 20  1  0
 21 20  2  0
 22 21  1  0
 23 18  1  0
 23 22  2  0
 24 25  1  0
 24 23  1  0
 26 25  2  0
 27 28  2  0
 27 26  1  0
 28 24  1  0
  1 29  1  0
  2 30  1  0
  8 31  1  0
 11 32  1  0
 13 33  1  0
 19 34  1  0
 20 35  1  0
 21 36  1  0
 22 37  1  0
 26 38  1  0
 27 39  1  0
 28 40  1  0
M  ISO  8  29  14  30  14  31  14  32  14  33  14  34  14  35  14  36  14
M  ISO  4  37  14  38  14  39  14  40  14
M  END
>  <minimizedAffinity>  (1) 
-6.14472151

>  <minimizedRMSD>  (1) 
1.61206841

$$$$
