
     RDKit          3D

 39 43  0  0  0  0  0  0  0  0999 V2000
   44.7350   35.4540   44.7950 C   0  0  0  0  0  0  0  0  0  0  0  0
   45.6240   35.2820   43.7040 C   0  0  0  0  0  0  0  0  0  0  0  0
   46.5590   34.2250   43.8120 C   0  0  0  0  0  0  0  0  0  0  0  0
   46.5220   33.4870   44.9260 N   0  0  0  0  0  0  0  0  0  0  0  0
   45.6680   33.6610   45.9580 C   0  0  0  0  0  0  0  0  0  0  0  0
   44.7730   34.6480   45.8900 N   0  0  0  0  0  0  0  0  0  0  0  0
   47.4370   34.0180   42.7260 N   0  0  0  0  0  0  0  0  0  0  0  0
   48.7740   34.0810   42.8020 C   0  0  0  0  0  0  0  0  0  0  0  0
   49.3270   33.8350   41.5650 N   0  0  0  0  0  0  0  0  0  0  0  0
   48.2690   33.6190   40.7370 C   0  0  0  0  0  0  0  0  0  0  0  0
   48.2510   33.3300   39.3870 C   0  0  0  0  0  0  0  0  0  0  0  0
   47.0330   33.1650   38.8130 N   0  0  0  0  0  0  0  0  0  0  0  0
   45.9050   33.2790   39.5280 C   0  0  0  0  0  0  0  0  0  0  0  0
   45.8900   33.5600   40.8430 N   0  0  0  0  0  0  0  0  0  0  0  0
   47.0750   33.7320   41.4560 C   0  0  0  0  0  0  0  0  0  0  0  0
   45.6590   32.7980   47.1400 C   0  0  0  0  0  0  0  0  0  0  0  0
   44.6870   32.7670   47.9120 O   0  0  0  0  0  0  0  0  0  0  0  0
   46.7340   31.9140   47.5360 C   0  0  0  0  0  0  0  0  0  0  0  0
   47.7280   32.3770   48.4030 C   0  0  0  0  0  0  0  0  0  0  0  0
   48.8040   31.5430   48.7600 C   0  0  0  0  0  0  0  0  0  0  0  0
   48.9110   30.2700   48.2750 C   0  0  0  0  0  0  0  0  0  0  0  0
   47.9120   29.8270   47.4150 C   0  0  0  0  0  0  0  0  0  0  0  0
   46.8490   30.6350   47.0600 C   0  0  0  0  0  0  0  0  0  0  0  0
   45.8060   30.0010   46.2040 C   0  0  0  0  0  0  0  0  0  0  0  0
   44.8210   29.1740   46.7320 C   0  0  0  0  0  0  0  0  0  0  0  0
   43.8210   28.6500   45.3530 S   0  0  0  0  0  0  0  0  0  0  0  0
   44.8990   29.6560   44.1600 C   0  0  0  0  0  0  0  0  0  0  0  0
   45.5920   30.0520   44.9190 N   0  0  0  0  0  0  0  0  0  0  0  0
   43.9919   36.2640   44.7547 H   0  0  0  0  0  0  0  0  0  0  0  0
   45.5889   35.9357   42.8200 H   0  0  0  0  0  0  0  0  0  0  0  0
   49.3449   34.2972   43.7171 H   0  0  0  0  0  0  0  0  0  0  0  0
   49.1798   33.2380   38.8048 H   0  0  0  0  0  0  0  0  0  0  0  0
   44.9434   33.1355   39.0134 H   0  0  0  0  0  0  0  0  0  0  0  0
   47.6689   33.3980   48.8081 H   0  0  0  0  0  0  0  0  0  0  0  0
   49.5759   31.9244   49.4446 H   0  0  0  0  0  0  0  0  0  0  0  0
   49.7543   29.6211   48.5539 H   0  0  0  0  0  0  0  0  0  0  0  0
   47.9696   28.8071   47.0069 H   0  0  0  0  0  0  0  0  0  0  0  0
   44.6860   28.8985   47.7884 H   0  0  0  0  0  0  0  0  0  0  0  0
   44.8487   29.7973   43.0703 H   0  0  0  0  0  0  0  0  0  0  0  0
  1  6  2  0
  2  3  2  0
  2  1  1  0
  3  4  1  0
  4  5  2  0
  5 16  1  0
  6  5  1  0
  7  8  1  0
  7  3  1  0
  9  8  2  0
 10 15  2  0
 10  9  1  0
 11 10  1  0
 12 11  2  0
 12 13  1  0
 13 14  2  0
 14 15  1  0
 15  7  1  0
 16 18  1  0
 16 17  2  0
 18 19  2  0
 19 20  1  0
 21 20  2  0
 22 21  1  0
 23 22  2  0
 23 18  1  0
 24 25  2  0
 24 23  1  0
 26 25  1  0
 27 28  2  0
 27 26  1  0
 28 24  1  0
  1 29  1  0
  2 30  1  0
  8 31  1  0
 11 32  1  0
 13 33  1  0
 19 34  1  0
 20 35  1  0
 21 36  1  0
 22 37  1  0
 25 38  1  0
 27 39  1  0
M  ISO  8  29  14  30  14  31  14  32  14  33  14  34  14  35  14  36  14
M  ISO  3  37  14  38  14  39  14
M  END
>  <minimizedAffinity>  (1) 
-6.1178441

>  <minimizedRMSD>  (1) 
1.48673689

$$$$
