
     RDKit          3D

 39 43  0  0  0  0  0  0  0  0999 V2000
   44.7320   35.3840   44.9220 C   0  0  0  0  0  0  0  0  0  0  0  0
   45.6180   35.2380   43.8220 C   0  0  0  0  0  0  0  0  0  0  0  0
   46.5420   34.1800   43.9130 C   0  0  0  0  0  0  0  0  0  0  0  0
   46.5010   33.4180   45.0150 N   0  0  0  0  0  0  0  0  0  0  0  0
   45.6650   33.5640   46.0410 C   0  0  0  0  0  0  0  0  0  0  0  0
   44.7710   34.5570   45.9940 N   0  0  0  0  0  0  0  0  0  0  0  0
   47.4400   34.0140   42.8230 N   0  0  0  0  0  0  0  0  0  0  0  0
   48.7780   34.1190   42.9020 C   0  0  0  0  0  0  0  0  0  0  0  0
   49.3470   33.9020   41.6760 N   0  0  0  0  0  0  0  0  0  0  0  0
   48.2980   33.6600   40.8380 C   0  0  0  0  0  0  0  0  0  0  0  0
   48.2910   33.3800   39.4890 C   0  0  0  0  0  0  0  0  0  0  0  0
   47.0820   33.1810   38.9050 N   0  0  0  0  0  0  0  0  0  0  0  0
   45.9420   33.2540   39.6250 C   0  0  0  0  0  0  0  0  0  0  0  0
   45.9140   33.5250   40.9440 N   0  0  0  0  0  0  0  0  0  0  0  0
   47.1070   33.7300   41.5560 C   0  0  0  0  0  0  0  0  0  0  0  0
   45.6760   32.6950   47.2110 C   0  0  0  0  0  0  0  0  0  0  0  0
   44.6850   32.6040   47.9560 O   0  0  0  0  0  0  0  0  0  0  0  0
   46.7980   31.8700   47.6290 C   0  0  0  0  0  0  0  0  0  0  0  0
   47.8080   32.3770   48.4170 C   0  0  0  0  0  0  0  0  0  0  0  0
   48.8750   31.5650   48.8060 C   0  0  0  0  0  0  0  0  0  0  0  0
   48.9620   30.2340   48.4230 C   0  0  0  0  0  0  0  0  0  0  0  0
   47.9400   29.7410   47.6330 C   0  0  0  0  0  0  0  0  0  0  0  0
   46.9000   30.5540   47.2610 C   0  0  0  0  0  0  0  0  0  0  0  0
   45.8890   29.9610   46.4440 N   0  0  0  0  0  0  0  0  0  0  0  0
   45.7250   29.9010   45.1090 C   0  0  0  0  0  0  0  0  0  0  0  0
   44.6020   29.2230   44.8060 N   0  0  0  0  0  0  0  0  0  0  0  0
   44.0570   28.8520   45.9780 C   0  0  0  0  0  0  0  0  0  0  0  0
   44.8400   29.3010   46.9610 N   0  0  0  0  0  0  0  0  0  0  0  0
   43.9895   36.1954   44.9029 H   0  0  0  0  0  0  0  0  0  0  0  0
   45.5844   35.9104   42.9521 H   0  0  0  0  0  0  0  0  0  0  0  0
   49.3366   34.3470   43.8218 H   0  0  0  0  0  0  0  0  0  0  0  0
   49.2246   33.3203   38.9104 H   0  0  0  0  0  0  0  0  0  0  0  0
   44.9865   33.0833   39.1074 H   0  0  0  0  0  0  0  0  0  0  0  0
   47.7735   33.4275   48.7415 H   0  0  0  0  0  0  0  0  0  0  0  0
   49.6700   31.9928   49.4345 H   0  0  0  0  0  0  0  0  0  0  0  0
   49.8056   29.6001   48.7338 H   0  0  0  0  0  0  0  0  0  0  0  0
   47.9611   28.6924   47.3015 H   0  0  0  0  0  0  0  0  0  0  0  0
   46.4107   30.3429   44.3711 H   0  0  0  0  0  0  0  0  0  0  0  0
   43.1272   28.2780   46.1045 H   0  0  0  0  0  0  0  0  0  0  0  0
  1  6  2  0
  2  3  2  0
  2  1  1  0
  3  4  1  0
  4  5  2  0
  5 16  1  0
  6  5  1  0
  7  8  1  0
  7  3  1  0
  9  8  2  0
 10 15  2  0
 10  9  1  0
 11 10  1  0
 12 11  2  0
 12 13  1  0
 13 14  2  0
 14 15  1  0
 15  7  1  0
 16 18  1  0
 16 17  2  0
 18 19  2  0
 19 20  1  0
 21 20  2  0
 22 21  1  0
 23 18  1  0
 23 22  2  0
 24 28  1  0
 24 23  1  0
 25 24  1  0
 26 25  2  0
 26 27  1  0
 27 28  2  0
  1 29  1  0
  2 30  1  0
  8 31  1  0
 11 32  1  0
 13 33  1  0
 19 34  1  0
 20 35  1  0
 21 36  1  0
 22 37  1  0
 25 38  1  0
 27 39  1  0
M  ISO  8  29  14  30  14  31  14  32  14  33  14  34  14  35  14  36  14
M  ISO  3  37  14  38  14  39  14
M  END
>  <minimizedAffinity>  (1) 
-6.10476112

>  <minimizedRMSD>  (1) 
1.65015757

$$$$
