
     RDKit          3D

 35 38  0  0  0  0  0  0  0  0999 V2000
   44.6090   35.6160   44.8350 C   0  0  0  0  0  0  0  0  0  0  0  0
   45.4620   35.4610   43.7080 C   0  0  0  0  0  0  0  0  0  0  0  0
   46.3880   34.3910   43.7680 C   0  0  0  0  0  0  0  0  0  0  0  0
   46.3710   33.6330   44.8740 N   0  0  0  0  0  0  0  0  0  0  0  0
   45.5520   33.7970   45.9330 C   0  0  0  0  0  0  0  0  0  0  0  0
   44.6700   34.7960   45.9050 N   0  0  0  0  0  0  0  0  0  0  0  0
   47.2420   34.2080   42.6640 N   0  0  0  0  0  0  0  0  0  0  0  0
   48.5790   34.3580   42.6870 C   0  0  0  0  0  0  0  0  0  0  0  0
   49.1040   34.1080   41.4470 N   0  0  0  0  0  0  0  0  0  0  0  0
   48.0350   33.8000   40.6640 C   0  0  0  0  0  0  0  0  0  0  0  0
   47.9840   33.4610   39.3160 C   0  0  0  0  0  0  0  0  0  0  0  0
   46.7570   33.2020   38.8010 N   0  0  0  0  0  0  0  0  0  0  0  0
   45.6510   33.2690   39.5550 C   0  0  0  0  0  0  0  0  0  0  0  0
   45.6550   33.5920   40.8600 N   0  0  0  0  0  0  0  0  0  0  0  0
   46.8750   33.8600   41.4120 C   0  0  0  0  0  0  0  0  0  0  0  0
   45.5920   32.9250   47.0980 C   0  0  0  0  0  0  0  0  0  0  0  0
   44.6450   32.9140   47.9250 O   0  0  0  0  0  0  0  0  0  0  0  0
   46.6610   32.0120   47.4380 C   0  0  0  0  0  0  0  0  0  0  0  0
   47.6790   32.3730   48.2800 C   0  0  0  0  0  0  0  0  0  0  0  0
   48.7000   31.4760   48.5840 C   0  0  0  0  0  0  0  0  0  0  0  0
   48.7360   30.1970   48.0590 C   0  0  0  0  0  0  0  0  0  0  0  0
   47.7150   29.8420   47.2170 C   0  0  0  0  0  0  0  0  0  0  0  0
   46.7180   30.7420   46.9300 C   0  0  0  0  0  0  0  0  0  0  0  0
   45.6960   30.1950   46.0470 C   0  0  0  0  0  0  0  0  0  0  0  0
   44.7080   29.4900   46.3640 O   0  0  0  0  0  0  0  0  0  0  0  0
   43.8731   36.4336   44.8347 H   0  0  0  0  0  0  0  0  0  0  0  0
   45.4059   36.1335   42.8394 H   0  0  0  0  0  0  0  0  0  0  0  0
   49.1656   34.6406   43.5736 H   0  0  0  0  0  0  0  0  0  0  0  0
   48.8931   33.4059   38.6991 H   0  0  0  0  0  0  0  0  0  0  0  0
   44.6846   33.0470   39.0788 H   0  0  0  0  0  0  0  0  0  0  0  0
   47.6903   33.3810   48.7203 H   0  0  0  0  0  0  0  0  0  0  0  0
   49.5039   31.7951   49.2637 H   0  0  0  0  0  0  0  0  0  0  0  0
   49.5474   29.4966   48.3062 H   0  0  0  0  0  0  0  0  0  0  0  0
   47.6938   28.8367   46.7711 H   0  0  0  0  0  0  0  0  0  0  0  0
   45.8034   30.4275   44.9772 H   0  0  0  0  0  0  0  0  0  0  0  0
  1  6  2  0
  2  3  2  0
  2  1  1  0
  3  4  1  0
  4  5  2  0
  5 16  1  0
  6  5  1  0
  7  8  1  0
  7  3  1  0
  9  8  2  0
 10 15  2  0
 10  9  1  0
 11 10  1  0
 12 11  2  0
 12 13  1  0
 13 14  2  0
 14 15  1  0
 15  7  1  0
 16 18  1  0
 16 17  2  0
 18 19  2  0
 19 20  1  0
 21 20  2  0
 22 21  1  0
 23 22  2  0
 23 18  1  0
 24 25  2  0
 24 23  1  0
  1 26  1  0
  2 27  1  0
  8 28  1  0
 11 29  1  0
 13 30  1  0
 19 31  1  0
 20 32  1  0
 21 33  1  0
 22 34  1  0
 24 35  1  0
M  ISO  8  26  14  27  14  28  14  29  14  30  14  31  14  32  14  33  14
M  ISO  2  34  14  35   6
M  END
>  <minimizedAffinity>  (1) 
-5.81360435

>  <minimizedRMSD>  (1) 
1.06308091

$$$$
