
     RDKit          3D

 11 11  0  0  0  0  0  0  0  0999 V2000
   45.6650   34.6310   44.0580 C   0  0  0  0  0  0  0  0  0  0  0  0
   46.7090   33.8630   43.5180 C   0  0  0  0  0  0  0  0  0  0  0  0
   47.2710   32.8690   44.3220 C   0  0  0  0  0  0  0  0  0  0  0  0
   46.7710   32.7040   45.5810 N   0  0  0  0  0  0  0  0  0  0  0  0
   45.7690   33.4560   46.0740 C   0  0  0  0  0  0  0  0  0  0  0  0
   45.2130   34.4200   45.3170 N   0  0  0  0  0  0  0  0  0  0  0  0
   44.8770   35.9400   43.0900 S   0  0  0  0  0  0  0  0  0  0  0  0
   47.0725   34.0386   42.4947 H   0  0  0  0  0  0  0  0  0  0  0  0
   48.0922   32.2379   43.9515 H   0  0  0  0  0  0  0  0  0  0  0  0
   45.4042   33.2823   47.0971 H   0  0  0  0  0  0  0  0  0  0  0  0
   44.3215   36.8627   43.9367 H   0  0  0  0  0  0  0  0  0  0  0  0
  1  6  2  0
  2  1  1  0
  2  3  2  0
  3  4  1  0
  4  5  2  0
  6  5  1  0
  7  1  1  0
  2  8  1  0
  3  9  1  0
  5 10  1  0
  7 11  1  0
M  ISO  4   8  14   9  14  10  14  11  11
M  END
>  <minimizedAffinity>  (1) 
-2.44006824

>  <minimizedRMSD>  (1) 
1.84467399

$$$$
