
     RDKit          3D

 24 25  0  0  0  0  0  0  0  0999 V2000
   45.0230   36.1130   42.9840 S   0  0  0  0  0  0  0  0  0  0  0  0
   45.6580   34.7900   44.0270 C   0  0  0  0  0  0  0  0  0  0  0  0
   46.7080   33.9690   43.5980 C   0  0  0  0  0  0  0  0  0  0  0  0
   47.1430   32.9700   44.4620 C   0  0  0  0  0  0  0  0  0  0  0  0
   46.5190   32.8540   45.6640 N   0  0  0  0  0  0  0  0  0  0  0  0
   45.5170   33.6520   46.0480 C   0  0  0  0  0  0  0  0  0  0  0  0
   45.0690   34.6280   45.2460 N   0  0  0  0  0  0  0  0  0  0  0  0
   42.4510   34.0000   39.9040 C   0  0  0  0  0  0  0  0  0  0  0  0
   43.8260   33.9060   39.8890 C   0  0  0  0  0  0  0  0  0  0  0  0
   44.5220   34.5900   40.8760 C   0  0  0  0  0  0  0  0  0  0  0  0
   43.8700   35.3470   41.8500 C   0  0  0  0  0  0  0  0  0  0  0  0
   42.4960   35.4220   41.8380 C   0  0  0  0  0  0  0  0  0  0  0  0
   41.8020   34.7430   40.8580 C   0  0  0  0  0  0  0  0  0  0  0  0
   41.5310   33.1500   38.6740 S   0  0  0  0  0  0  0  0  0  0  0  0
   40.7650   32.0220   39.2680 O   0  0  0  0  0  0  0  0  0  0  0  0
   40.6490   34.1190   37.9360 O   0  0  0  0  0  0  0  0  0  0  0  0
   47.1730   34.1095   42.6111 H   0  0  0  0  0  0  0  0  0  0  0  0
   47.9655   32.2954   44.1818 H   0  0  0  0  0  0  0  0  0  0  0  0
   45.0543   33.5055   47.0351 H   0  0  0  0  0  0  0  0  0  0  0  0
   44.3506   33.3128   39.1256 H   0  0  0  0  0  0  0  0  0  0  0  0
   45.6205   34.5336   40.8908 H   0  0  0  0  0  0  0  0  0  0  0  0
   41.9608   36.0126   42.5961 H   0  0  0  0  0  0  0  0  0  0  0  0
   40.7035   34.7984   40.8408 H   0  0  0  0  0  0  0  0  0  0  0  0
   42.3933   32.5973   37.7641 H   0  0  0  0  0  0  0  0  0  0  0  0
  1  2  1  0
  2  7  1  0
  3  2  2  0
  3  4  1  0
  4  5  2  0
  5  6  1  0
  7  6  2  0
  8 13  2  0
  9  8  1  0
  9 10  2  0
 10 11  1  0
 11  1  1  0
 12 11  2  0
 13 12  1  0
 14 15  2  0
 14  8  1  0
 16 14  2  0
  3 17  1  0
  4 18  1  0
  6 19  1  0
  9 20  1  0
 10 21  1  0
 12 22  1  0
 13 23  1  0
 14 24  1  0
M  ISO  8  17  14  18  14  19  14  20  14  21  14  22  14  23  14  24  11
M  END
>  <minimizedAffinity>  (1) 
-4.19673395

>  <minimizedRMSD>  (1) 
0.880413473

$$$$
