
     RDKit          3D

 18 19  0  0  0  0  0  0  0  0999 V2000
   45.6560   34.7050   44.1890 C   0  0  0  0  0  0  0  0  0  0  0  0
   46.6820   33.8410   43.7970 C   0  0  0  0  0  0  0  0  0  0  0  0
   47.0730   32.8700   44.7090 C   0  0  0  0  0  0  0  0  0  0  0  0
   46.4400   32.8180   45.9150 N   0  0  0  0  0  0  0  0  0  0  0  0
   45.4520   33.6700   46.2600 C   0  0  0  0  0  0  0  0  0  0  0  0
   45.0460   34.6310   45.3950 N   0  0  0  0  0  0  0  0  0  0  0  0
   45.0840   36.0040   43.0590 S   0  0  0  0  0  0  0  0  0  0  0  0
   44.0200   35.2550   41.8690 C   0  0  0  0  0  0  0  0  0  0  0  0
   42.7130   35.3540   41.6080 C   0  0  0  0  0  0  0  0  0  0  0  0
   42.1160   34.6620   40.6190 C   0  0  0  0  0  0  0  0  0  0  0  0
   42.9560   33.8260   39.8780 C   0  0  0  0  0  0  0  0  0  0  0  0
   44.6780   34.0490   40.6380 S   0  0  0  0  0  0  0  0  0  0  0  0
   47.1588   33.9265   42.8094 H   0  0  0  0  0  0  0  0  0  0  0  0
   47.8755   32.1587   44.4639 H   0  0  0  0  0  0  0  0  0  0  0  0
   44.9743   33.5841   47.2472 H   0  0  0  0  0  0  0  0  0  0  0  0
   42.1006   36.0275   42.2256 H   0  0  0  0  0  0  0  0  0  0  0  0
   41.0398   34.7488   40.4085 H   0  0  0  0  0  0  0  0  0  0  0  0
   42.6774   33.1775   39.0343 H   0  0  0  0  0  0  0  0  0  0  0  0
  1  6  1  0
  2  1  2  0
  2  3  1  0
  3  4  2  0
  4  5  1  0
  6  5  2  0
  7  1  1  0
  8  7  1  0
  9  8  2  0
 10  9  1  0
 11 10  2  0
 11 12  1  0
 12  8  1  0
  2 13  1  0
  3 14  1  0
  5 15  1  0
  9 16  1  0
 10 17  1  0
 11 18  1  0
M  ISO  6  13  14  14  14  15  14  16  14  17  14  18  14
M  END
>  <minimizedAffinity>  (1) 
-3.50059581

>  <minimizedRMSD>  (1) 
4.00975704

$$$$
