
     RDKit          3D

 17 18  0  0  0  0  0  0  0  0999 V2000
   45.6420   34.7240   44.1410 C   0  0  0  0  0  0  0  0  0  0  0  0
   46.6770   33.8650   43.7380 C   0  0  0  0  0  0  0  0  0  0  0  0
   47.1090   32.8730   44.6200 C   0  0  0  0  0  0  0  0  0  0  0  0
   46.4990   32.7900   45.8350 N   0  0  0  0  0  0  0  0  0  0  0  0
   45.5070   33.6260   46.2010 C   0  0  0  0  0  0  0  0  0  0  0  0
   45.0780   34.5910   45.3570 N   0  0  0  0  0  0  0  0  0  0  0  0
   45.0190   36.0300   43.0740 S   0  0  0  0  0  0  0  0  0  0  0  0
   43.8890   35.2650   41.8810 C   0  0  0  0  0  0  0  0  0  0  0  0
   44.4210   34.4620   40.8430 C   0  0  0  0  0  0  0  0  0  0  0  0
   42.9400   33.9470   39.9490 S   0  0  0  0  0  0  0  0  0  0  0  0
   41.8140   34.9150   41.1410 C   0  0  0  0  0  0  0  0  0  0  0  0
   42.5720   35.3530   41.8390 N   0  0  0  0  0  0  0  0  0  0  0  0
   47.1390   33.9718   42.7454 H   0  0  0  0  0  0  0  0  0  0  0  0
   47.9169   32.1799   44.3424 H   0  0  0  0  0  0  0  0  0  0  0  0
   45.0434   33.5223   47.1931 H   0  0  0  0  0  0  0  0  0  0  0  0
   45.4722   34.2144   40.6341 H   0  0  0  0  0  0  0  0  0  0  0  0
   40.7187   35.0162   41.1432 H   0  0  0  0  0  0  0  0  0  0  0  0
  1  6  1  0
  2  1  2  0
  2  3  1  0
  3  4  2  0
  4  5  1  0
  6  5  2  0
  7  1  1  0
  8  7  1  0
  9  8  2  0
 10  9  1  0
 10 11  1  0
 11 12  2  0
 12  8  1  0
  2 13  1  0
  3 14  1  0
  5 15  1  0
  9 16  1  0
 11 17  1  0
M  ISO  5  13  14  14  14  15  14  16  14  17  14
M  END
>  <minimizedAffinity>  (1) 
-3.48104453

>  <minimizedRMSD>  (1) 
0.679810762

$$$$
