
     RDKit          3D

 23 24  0  0  1  0  0  0  0  0999 V2000
   45.6920   34.6630   43.5880 C   0  0  0  0  0  0  0  0  0  0  0  0
   44.8370   35.5760   44.2190 C   0  0  0  0  0  0  0  0  0  0  0  0
   44.5670   35.3480   45.5670 C   0  0  0  0  0  0  0  0  0  0  0  0
   45.1320   34.2740   46.1930 N   0  0  0  0  0  0  0  0  0  0  0  0
   45.9520   33.4200   45.5390 C   0  0  0  0  0  0  0  0  0  0  0  0
   46.2410   33.6030   44.2320 N   0  0  0  0  0  0  0  0  0  0  0  0
   46.1130   34.8590   41.8400 S   0  0  0  0  0  0  0  0  0  0  0  0
   44.6400   32.7470   41.2980 N   0  0  0  0  0  0  0  0  0  0  0  0
   43.2540   32.7720   41.6280 C   0  0  0  0  0  0  0  0  0  0  0  0
   42.6960   34.1280   41.3440 C   0  0  0  0  0  0  0  0  0  0  0  0
   43.7160   34.7320   40.4260 C   0  0  0  0  0  0  0  0  0  0  0  0
   44.9920   34.0350   40.7480 C   0  0  1  0  0  0  0  0  0  0  0  0
   44.4012   36.4290   43.6782 H   0  0  0  0  0  0  0  0  0  0  0  0
   43.9040   36.0278   46.1223 H   0  0  0  0  0  0  0  0  0  0  0  0
   46.3888   32.5662   46.0777 H   0  0  0  0  0  0  0  0  0  0  0  0
   45.1975   32.5645   42.1446 H   0  0  0  0  0  0  0  0  0  0  0  0
   42.7204   32.0228   41.0247 H   0  0  0  0  0  0  0  0  0  0  0  0
   43.1285   32.5416   42.6963 H   0  0  0  0  0  0  0  0  0  0  0  0
   41.7152   34.0558   40.8512 H   0  0  0  0  0  0  0  0  0  0  0  0
   42.5265   34.7241   42.2528 H   0  0  0  0  0  0  0  0  0  0  0  0
   43.8094   35.8124   40.6105 H   0  0  0  0  0  0  0  0  0  0  0  0
   43.4384   34.6138   39.3682 H   0  0  0  0  0  0  0  0  0  0  0  0
   45.5552   33.9843   39.8045 H   0  0  0  0  0  0  0  0  0  0  0  0
  1  2  2  0
  1  6  1  0
  2  3  1  0
  3  4  2  0
  5  4  1  0
  6  5  2  0
  7  1  1  0
  8  9  1  0
 10  9  1  0
 11 12  1  0
 11 10  1  0
 12  8  1  0
 12  7  1  0
  2 13  1  0
  3 14  1  0
  5 15  1  0
  8 16  1  0
  9 17  1  0
  9 18  1  0
 10 19  1  0
 10 20  1  0
 11 21  1  0
 11 22  1  0
 12 23  1  6
M  ISO  8  13  14  14  14  15  14  16   5  17  13  18  13  19  13  20  13
M  ISO  3  21  13  22  13  23  13
M  END
>  <minimizedAffinity>  (1) 
-3.32175875

>  <minimizedRMSD>  (1) 
3.93644285

$$$$
