
     RDKit          3D

 20 20  0  0  0  0  0  0  0  0999 V2000
   45.7350   34.2840   44.5680 C   0  0  0  0  0  0  0  0  0  0  0  0
   46.7290   33.3330   44.2990 C   0  0  0  0  0  0  0  0  0  0  0  0
   47.0830   32.4190   45.2840 C   0  0  0  0  0  0  0  0  0  0  0  0
   46.4300   32.5020   46.4790 N   0  0  0  0  0  0  0  0  0  0  0  0
   45.4750   33.4250   46.7190 C   0  0  0  0  0  0  0  0  0  0  0  0
   45.1360   34.3040   45.7720 N   0  0  0  0  0  0  0  0  0  0  0  0
   45.2390   35.4890   43.3340 S   0  0  0  0  0  0  0  0  0  0  0  0
   44.5530   34.6880   41.8840 C   0  0  0  0  0  0  0  0  0  0  0  0
   43.4840   35.5670   41.2690 C   0  0  0  0  0  0  0  0  0  0  0  0
   45.6360   34.3030   40.9320 C   0  0  0  0  0  0  0  0  0  0  0  0
   47.2243   33.3104   43.3171 H   0  0  0  0  0  0  0  0  0  0  0  0
   47.8585   31.6591   45.1073 H   0  0  0  0  0  0  0  0  0  0  0  0
   44.9740   33.4535   47.6979 H   0  0  0  0  0  0  0  0  0  0  0  0
   44.0608   33.7473   42.1717 H   0  0  0  0  0  0  0  0  0  0  0  0
   42.8999   36.0473   42.0678 H   0  0  0  0  0  0  0  0  0  0  0  0
   43.9583   36.3398   40.6462 H   0  0  0  0  0  0  0  0  0  0  0  0
   42.8174   34.9523   40.6462 H   0  0  0  0  0  0  0  0  0  0  0  0
   46.5254   33.9868   41.4968 H   0  0  0  0  0  0  0  0  0  0  0  0
   45.2896   33.4729   40.2988 H   0  0  0  0  0  0  0  0  0  0  0  0
   45.8913   35.1655   40.2988 H   0  0  0  0  0  0  0  0  0  0  0  0
  1  6  2  0
  2  1  1  0
  2  3  2  0
  3  4  1  0
  4  5  2  0
  6  5  1  0
  7  1  1  0
  8  7  1  0
  9  8  1  0
 10  8  1  0
  2 11  1  0
  3 12  1  0
  5 13  1  0
  8 14  1  0
  9 15  1  0
  9 16  1  0
  9 17  1  0
 10 18  1  0
 10 19  1  0
 10 20  1  0
M  ISO  8  11  14  12  14  13  14  14   8  15   8  16   8  17   8  18   8
M  ISO  2  19   8  20   8
M  END
>  <minimizedAffinity>  (1) 
-2.96927571

>  <minimizedRMSD>  (1) 
1.38594913

$$$$
