
     RDKit          3D

 17 17  0  0  0  0  0  0  0  0999 V2000
   46.1030   32.5060   45.2970 C   0  0  0  0  0  0  0  0  0  0  0  0
   46.2110   31.1170   45.2020 C   0  0  0  0  0  0  0  0  0  0  0  0
   46.7860   30.4300   46.2630 C   0  0  0  0  0  0  0  0  0  0  0  0
   47.2120   31.1410   47.3380 N   0  0  0  0  0  0  0  0  0  0  0  0
   47.0940   32.4780   47.4020 C   0  0  0  0  0  0  0  0  0  0  0  0
   46.5430   33.1750   46.3900 N   0  0  0  0  0  0  0  0  0  0  0  0
   45.3790   33.5040   43.9760 S   0  0  0  0  0  0  0  0  0  0  0  0
   44.9030   35.1420   44.5780 C   0  0  0  0  0  0  0  0  0  0  0  0
   45.0070   36.1890   43.4940 C   0  0  0  0  0  0  0  0  0  0  0  0
   45.8505   30.5818   44.3112 H   0  0  0  0  0  0  0  0  0  0  0  0
   46.8937   29.3357   46.2330 H   0  0  0  0  0  0  0  0  0  0  0  0
   47.4529   33.0113   48.2946 H   0  0  0  0  0  0  0  0  0  0  0  0
   43.8636   35.1018   44.9359 H   0  0  0  0  0  0  0  0  0  0  0  0
   45.5899   35.4211   45.3906 H   0  0  0  0  0  0  0  0  0  0  0  0
   45.1058   37.1837   43.9532 H   0  0  0  0  0  0  0  0  0  0  0  0
   45.8892   35.9841   42.8697 H   0  0  0  0  0  0  0  0  0  0  0  0
   44.1017   36.1616   42.8697 H   0  0  0  0  0  0  0  0  0  0  0  0
  1  6  2  0
  2  1  1  0
  2  3  2  0
  3  4  1  0
  4  5  2  0
  6  5  1  0
  7  8  1  0
  7  1  1  0
  9  8  1  0
  2 10  1  0
  3 11  1  0
  5 12  1  0
  8 13  1  0
  8 14  1  0
  9 15  1  0
  9 16  1  0
  9 17  1  0
M  ISO  8  10  14  11  14  12  14  13   8  14   8  15   8  16   8  17   8
M  END
>  <minimizedAffinity>  (1) 
-2.5998559

>  <minimizedRMSD>  (1) 
2.64443755

$$$$
