
     RDKit          3D

 38 40  0  0  1  0  0  0  0  0999 V2000
   47.5750   31.0230   43.6490 C   0  0  0  0  0  0  0  0  0  0  0  0
   46.7510   31.8580   42.8910 C   0  0  0  0  0  0  0  0  0  0  0  0
   45.8690   32.7290   43.5050 C   0  0  0  0  0  0  0  0  0  0  0  0
   45.8800   32.6960   44.8530 N   0  0  0  0  0  0  0  0  0  0  0  0
   46.6550   31.9100   45.5990 C   0  0  0  0  0  0  0  0  0  0  0  0
   47.4920   31.0840   44.9900 N   0  0  0  0  0  0  0  0  0  0  0  0
   46.5470   31.9950   46.9900 N   0  0  0  0  0  0  0  0  0  0  0  0
   45.4870   32.6360   47.7060 C   0  0  0  0  0  0  0  0  0  0  0  0
   44.7110   31.5590   48.4610 C   0  0  0  0  0  0  0  0  0  0  0  0
   45.5810   30.5770   48.9440 O   0  0  0  0  0  0  0  0  0  0  0  0
   46.8360   31.1020   49.2070 C   0  0  0  0  0  0  0  0  0  0  0  0
   47.5190   31.4330   47.8860 C   0  0  1  0  0  0  0  0  0  0  0  0
   44.9580   33.6510   42.7520 C   0  0  0  0  0  0  0  0  0  0  0  0
   45.1400   34.9920   42.8030 C   0  0  0  0  0  0  0  0  0  0  0  0
   43.7840   35.5960   41.7320 S   0  0  0  0  0  0  0  0  0  0  0  0
   43.2000   33.8230   41.4040 C   0  0  0  0  0  0  0  0  0  0  0  0
   43.9750   33.2290   42.0320 N   0  0  0  0  0  0  0  0  0  0  0  0
   42.0540   33.6790   40.5420 N   0  0  0  0  0  0  0  0  0  0  0  0
   41.7360   34.5730   39.5210 C   0  0  0  0  0  0  0  0  0  0  0  0
   42.7240   35.2780   39.0330 N   0  0  0  0  0  0  0  0  0  0  0  0
   40.3450   34.6020   39.1350 N   0  0  0  0  0  0  0  0  0  0  0  0
   42.4710   35.9220   38.2530 H   0  0  0  0  0  0  0  0  0  0  0  0
   48.2000   30.2410   47.3170 C   0  0  0  0  0  0  0  0  0  0  0  0
   48.3220   29.0820   47.6800 O   0  0  0  0  0  0  0  0  0  0  0  0
   48.2763   30.3308   43.1600 H   0  0  0  0  0  0  0  0  0  0  0  0
   46.8040   31.8226   41.7928 H   0  0  0  0  0  0  0  0  0  0  0  0
   45.9036   33.3642   48.4174 H   0  0  0  0  0  0  0  0  0  0  0  0
   44.8229   33.1695   47.0101 H   0  0  0  0  0  0  0  0  0  0  0  0
   44.1807   32.0207   49.3069 H   0  0  0  0  0  0  0  0  0  0  0  0
   43.9918   31.0903   47.7732 H   0  0  0  0  0  0  0  0  0  0  0  0
   46.7348   32.0166   49.8097 H   0  0  0  0  0  0  0  0  0  0  0  0
   47.4375   30.3687   49.7642 H   0  0  0  0  0  0  0  0  0  0  0  0
   48.3105   32.1787   48.0517 H   0  0  0  0  0  0  0  0  0  0  0  0
   45.9035   35.5680   43.3463 H   0  0  0  0  0  0  0  0  0  0  0  0
   41.4346   32.8692   40.6888 H   0  0  0  0  0  0  0  0  0  0  0  0
   40.0312   35.2371   38.3873 H   0  0  0  0  0  0  0  0  0  0  0  0
   39.6665   33.9876   39.6074 H   0  0  0  0  0  0  0  0  0  0  0  0
   48.7035   30.4481   46.3612 H   0  0  0  0  0  0  0  0  0  0  0  0
  1  6  2  0
  2  3  2  0
  2  1  1  0
  3  4  1  0
  4  5  2  0
  5  7  1  0
  6  5  1  0
  7  8  1  0
  7 12  1  0
  8  9  1  0
  9 10  1  0
 10 11  1  0
 12 11  1  0
 13 14  2  0
 13  3  1  0
 15 14  1  0
 16 15  1  0
 16 17  2  0
 17 13  1  0
 18 16  1  0
 19 18  1  0
 20 19  2  0
 21 19  1  0
 22 20  1  0
 23 24  2  0
 23 12  1  0
  1 25  1  0
  2 26  1  0
  8 27  1  0
  8 28  1  0
  9 29  1  0
  9 30  1  0
 11 31  1  0
 11 32  1  0
 12 33  1  1
 14 34  1  0
 18 35  1  0
 21 36  1  0
 21 37  1  0
 23 38  1  0
M  ISO  8  25  14  26  14  27  13  28  13  29  13  30  13  31  13  32  13
M  ISO  3  33  13  34  14  38   6
M  END
>  <minimizedAffinity>  (1) 
-5.32707882

>  <minimizedRMSD>  (1) 
0.341543376

$$$$
