
     RDKit          3D

 29 32  0  0  0  0  0  0  0  0999 V2000
   43.9740   33.8830   40.8280 S   0  0  0  0  0  0  0  0  0  0  0  0
   44.4200   34.3000   42.5330 C   0  0  0  0  0  0  0  0  0  0  0  0
   44.1510   35.5870   43.0190 C   0  0  0  0  0  0  0  0  0  0  0  0
   44.5230   35.8340   44.3460 C   0  0  0  0  0  0  0  0  0  0  0  0
   45.1080   34.8370   45.0650 N   0  0  0  0  0  0  0  0  0  0  0  0
   45.3460   33.6140   44.5510 C   0  0  0  0  0  0  0  0  0  0  0  0
   44.9970   33.3660   43.2920 N   0  0  0  0  0  0  0  0  0  0  0  0
   45.9630   32.6060   45.3510 N   0  0  0  0  0  0  0  0  0  0  0  0
   45.7280   31.2790   45.2250 C   0  0  0  0  0  0  0  0  0  0  0  0
   46.5410   30.6940   46.2010 C   0  0  0  0  0  0  0  0  0  0  0  0
   47.2280   31.6360   46.8740 N   0  0  0  0  0  0  0  0  0  0  0  0
   46.8570   32.8110   46.3350 C   0  0  0  0  0  0  0  0  0  0  0  0
   39.1590   32.9280   41.4930 N   0  0  0  0  0  0  0  0  0  0  0  0
   39.9420   31.9860   42.0330 C   0  0  0  0  0  0  0  0  0  0  0  0
   41.2310   32.3540   41.7890 N   0  0  0  0  0  0  0  0  0  0  0  0
   41.1930   33.5060   41.1080 C   0  0  0  0  0  0  0  0  0  0  0  0
   42.2280   34.2670   40.6370 C   0  0  0  0  0  0  0  0  0  0  0  0
   42.0000   35.4100   39.9670 N   0  0  0  0  0  0  0  0  0  0  0  0
   40.6900   35.7710   39.7810 C   0  0  0  0  0  0  0  0  0  0  0  0
   39.6660   35.0300   40.2400 N   0  0  0  0  0  0  0  0  0  0  0  0
   39.9050   33.8990   40.9040 C   0  0  0  0  0  0  0  0  0  0  0  0
   43.6756   36.3577   42.3945 H   0  0  0  0  0  0  0  0  0  0  0  0
   44.3451   36.8195   44.8011 H   0  0  0  0  0  0  0  0  0  0  0  0
   45.0525   30.7761   44.5173 H   0  0  0  0  0  0  0  0  0  0  0  0
   46.6097   29.6130   46.3924 H   0  0  0  0  0  0  0  0  0  0  0  0
   47.2301   33.7959   46.6525 H   0  0  0  0  0  0  0  0  0  0  0  0
   38.1294   32.9181   41.5203 H   0  0  0  0  0  0  0  0  0  0  0  0
   39.6084   31.0865   42.5711 H   0  0  0  0  0  0  0  0  0  0  0  0
   40.4688   36.7008   39.2364 H   0  0  0  0  0  0  0  0  0  0  0  0
  1  2  1  0
  2  3  2  0
  2  7  1  0
  3  4  1  0
  4  5  2  0
  6  5  1  0
  6  8  1  0
  7  6  2  0
  8 12  1  0
  9  8  1  0
  9 10  2  0
 10 11  1  0
 12 11  2  0
 13 14  1  0
 15 14  2  0
 16 15  1  0
 17  1  1  0
 17 16  2  0
 18 17  1  0
 19 18  2  0
 19 20  1  0
 20 21  2  0
 21 16  1  0
 21 13  1  0
  3 22  1  0
  4 23  1  0
  9 24  1  0
 10 25  1  0
 12 26  1  0
 13 27  1  0
 14 28  1  0
 19 29  1  0
M  ISO  8  22  14  23  14  24  14  25  14  26  14  27   9  28  14  29  14
M  END
>  <minimizedAffinity>  (1) 
-5.82816601

>  <minimizedRMSD>  (1) 
3.61106253

$$$$
