
     RDKit          3D

 29 32  0  0  0  0  0  0  0  0999 V2000
   44.6550   33.4870   39.9740 C   0  0  0  0  0  0  0  0  0  0  0  0
   45.9650   33.4410   39.4880 C   0  0  0  0  0  0  0  0  0  0  0  0
   46.9910   33.7450   40.3950 C   0  0  0  0  0  0  0  0  0  0  0  0
   46.6360   34.0580   41.6710 N   0  0  0  0  0  0  0  0  0  0  0  0
   45.3720   34.0910   42.0940 C   0  0  0  0  0  0  0  0  0  0  0  0
   44.3740   33.8060   41.2510 N   0  0  0  0  0  0  0  0  0  0  0  0
   45.1760   34.4470   43.4940 C   0  0  0  0  0  0  0  0  0  0  0  0
   44.6350   35.7160   43.7190 C   0  0  0  0  0  0  0  0  0  0  0  0
   44.5320   35.8560   45.1010 C   0  0  0  0  0  0  0  0  0  0  0  0
   45.0180   34.6600   45.6290 C   0  0  0  0  0  0  0  0  0  0  0  0
   45.3900   33.8530   44.6420 O   0  0  0  0  0  0  0  0  0  0  0  0
   43.2690   33.1080   38.8660 S   0  0  0  0  0  0  0  0  0  0  0  0
   39.2270   33.1940   41.7260 N   0  0  0  0  0  0  0  0  0  0  0  0
   39.8800   32.0140   41.7830 C   0  0  0  0  0  0  0  0  0  0  0  0
   40.9610   32.1000   40.9700 N   0  0  0  0  0  0  0  0  0  0  0  0
   40.9400   33.3290   40.4380 C   0  0  0  0  0  0  0  0  0  0  0  0
   41.8150   33.9090   39.5520 C   0  0  0  0  0  0  0  0  0  0  0  0
   41.6390   35.1670   39.1160 N   0  0  0  0  0  0  0  0  0  0  0  0
   40.5520   35.8380   39.5960 C   0  0  0  0  0  0  0  0  0  0  0  0
   39.6800   35.2830   40.4690 N   0  0  0  0  0  0  0  0  0  0  0  0
   39.8610   34.0360   40.8960 C   0  0  0  0  0  0  0  0  0  0  0  0
   46.1814   33.1784   38.4420 H   0  0  0  0  0  0  0  0  0  0  0  0
   48.0465   33.7309   40.0855 H   0  0  0  0  0  0  0  0  0  0  0  0
   44.3481   36.4559   42.9573 H   0  0  0  0  0  0  0  0  0  0  0  0
   44.1491   36.7244   45.6572 H   0  0  0  0  0  0  0  0  0  0  0  0
   45.0833   34.4213   46.7008 H   0  0  0  0  0  0  0  0  0  0  0  0
   38.3656   33.4161   42.2452 H   0  0  0  0  0  0  0  0  0  0  0  0
   39.5872   31.1392   42.3821 H   0  0  0  0  0  0  0  0  0  0  0  0
   40.3779   36.8708   39.2599 H   0  0  0  0  0  0  0  0  0  0  0  0
  1  6  1  0
  2  1  2  0
  2  3  1  0
  3  4  2  0
  4  5  1  0
  5  7  1  0
  6  5  2  0
  7  8  2  0
  7 11  1  0
  8  9  1  0
  9 10  2  0
 11 10  1  0
 12 17  1  0
 12  1  1  0
 13 14  1  0
 15 14  2  0
 16 21  2  0
 16 15  1  0
 17 16  1  0
 18 17  2  0
 18 19  1  0
 19 20  2  0
 20 21  1  0
 21 13  1  0
  2 22  1  0
  3 23  1  0
  8 24  1  0
  9 25  1  0
 10 26  1  0
 13 27  1  0
 14 28  1  0
 19 29  1  0
M  ISO  8  22  14  23  14  24  14  25  14  26  14  27   9  28  14  29  14
M  END
>  <minimizedAffinity>  (1) 
-5.49814796

>  <minimizedRMSD>  (1) 
2.68334532

$$$$
