
     RDKit          3D

 25 27  0  0  0  0  0  0  0  0999 V2000
   43.8070   33.5990   39.9500 S   0  0  0  0  0  0  0  0  0  0  0  0
   39.1740   33.1420   41.6380 N   0  0  0  0  0  0  0  0  0  0  0  0
   39.9490   32.1080   42.0060 C   0  0  0  0  0  0  0  0  0  0  0  0
   41.1890   32.3470   41.4870 N   0  0  0  0  0  0  0  0  0  0  0  0
   41.1260   33.4990   40.8300 C   0  0  0  0  0  0  0  0  0  0  0  0
   42.1090   34.1620   40.1410 C   0  0  0  0  0  0  0  0  0  0  0  0
   41.8540   35.3400   39.5280 N   0  0  0  0  0  0  0  0  0  0  0  0
   40.5940   35.8340   39.6260 C   0  0  0  0  0  0  0  0  0  0  0  0
   39.6200   35.1900   40.3020 N   0  0  0  0  0  0  0  0  0  0  0  0
   39.8660   34.0410   40.8990 C   0  0  0  0  0  0  0  0  0  0  0  0
   44.5090   33.4760   41.6140 C   0  0  0  0  0  0  0  0  0  0  0  0
   45.1960   32.3180   41.9850 C   0  0  0  0  0  0  0  0  0  0  0  0
   45.7140   32.2970   43.2990 C   0  0  0  0  0  0  0  0  0  0  0  0
   45.5160   33.3750   44.0920 N   0  0  0  0  0  0  0  0  0  0  0  0
   44.8460   34.4660   43.6860 C   0  0  0  0  0  0  0  0  0  0  0  0
   44.3420   34.5210   42.4520 N   0  0  0  0  0  0  0  0  0  0  0  0
   44.6720   35.5900   44.5990 C   0  0  0  0  0  0  0  0  0  0  0  0
   44.4780   35.4920   45.8260 O   0  0  0  0  0  0  0  0  0  0  0  0
   44.7170   36.8930   44.1230 O   0  0  0  0  0  0  0  0  0  0  0  0
   38.1791   33.2386   41.8867 H   0  0  0  0  0  0  0  0  0  0  0  0
   39.6441   31.2390   42.6076 H   0  0  0  0  0  0  0  0  0  0  0  0
   40.3588   36.7914   39.1381 H   0  0  0  0  0  0  0  0  0  0  0  0
   45.3261   31.4718   41.2944 H   0  0  0  0  0  0  0  0  0  0  0  0
   46.2673   31.4217   43.6700 H   0  0  0  0  0  0  0  0  0  0  0  0
   44.5983   37.6523   44.7470 H   0  0  0  0  0  0  0  0  0  0  0  0
  1  6  1  0
  1 11  1  0
  2  3  1  0
  4  3  2  0
  5 10  2  0
  5  4  1  0
  6  5  1  0
  7  8  1  0
  7  6  2  0
  8  9  2  0
  9 10  1  0
 10  2  1  0
 11 12  2  0
 11 16  1  0
 12 13  1  0
 13 14  2  0
 15 14  1  0
 15 17  1  0
 16 15  2  0
 17 18  2  0
 19 17  1  0
  2 20  1  0
  3 21  1  0
  8 22  1  0
 12 23  1  0
 13 24  1  0
 19 25  1  0
M  ISO  6  20   9  21  14  22  14  23  14  24  14  25   3
M  END
>  <minimizedAffinity>  (1) 
-5.45239735

>  <minimizedRMSD>  (1) 
1.14677489

$$$$
