
     RDKit          3D

 28 30  0  0  0  0  0  0  0  0999 V2000
   43.7960   33.5480   39.7180 S   0  0  0  0  0  0  0  0  0  0  0  0
   39.3350   33.1690   41.8010 N   0  0  0  0  0  0  0  0  0  0  0  0
   40.1110   32.1080   42.0680 C   0  0  0  0  0  0  0  0  0  0  0  0
   41.2990   32.3240   41.4490 N   0  0  0  0  0  0  0  0  0  0  0  0
   41.2170   33.4970   40.8280 C   0  0  0  0  0  0  0  0  0  0  0  0
   42.1450   34.1550   40.0710 C   0  0  0  0  0  0  0  0  0  0  0  0
   41.8820   35.3570   39.5100 N   0  0  0  0  0  0  0  0  0  0  0  0
   40.6380   35.8820   39.7380 C   0  0  0  0  0  0  0  0  0  0  0  0
   39.7160   35.2410   40.4820 N   0  0  0  0  0  0  0  0  0  0  0  0
   39.9860   34.0680   41.0250 C   0  0  0  0  0  0  0  0  0  0  0  0
   44.8920   34.2570   40.9650 C   0  0  0  0  0  0  0  0  0  0  0  0
   46.2940   34.1730   40.7790 C   0  0  0  0  0  0  0  0  0  0  0  0
   47.0970   34.7400   41.7770 C   0  0  0  0  0  0  0  0  0  0  0  0
   46.4820   35.3160   42.8290 N   0  0  0  0  0  0  0  0  0  0  0  0
   45.1400   35.3850   42.9840 C   0  0  0  0  0  0  0  0  0  0  0  0
   44.3460   34.8530   42.0480 N   0  0  0  0  0  0  0  0  0  0  0  0
   44.5920   36.0570   44.2060 C   0  0  0  0  0  0  0  0  0  0  0  0
   44.7390   35.1560   45.4020 C   0  0  0  0  0  0  0  0  0  0  0  0
   38.3699   33.2849   42.1417 H   0  0  0  0  0  0  0  0  0  0  0  0
   39.8369   31.2310   42.6728 H   0  0  0  0  0  0  0  0  0  0  0  0
   40.3835   36.8583   39.2996 H   0  0  0  0  0  0  0  0  0  0  0  0
   46.7305   33.6864   39.8943 H   0  0  0  0  0  0  0  0  0  0  0  0
   48.1943   34.7159   41.7045 H   0  0  0  0  0  0  0  0  0  0  0  0
   45.1432   36.9920   44.3850 H   0  0  0  0  0  0  0  0  0  0  0  0
   43.5254   36.2752   44.0489 H   0  0  0  0  0  0  0  0  0  0  0  0
   44.6421   35.7501   46.3227 H   0  0  0  0  0  0  0  0  0  0  0  0
   43.9548   34.3850   45.3788 H   0  0  0  0  0  0  0  0  0  0  0  0
   45.7276   34.6742   45.3788 H   0  0  0  0  0  0  0  0  0  0  0  0
  1  6  1  0
  1 11  1  0
  2  3  1  0
  4  3  2  0
  5 10  2  0
  5  4  1  0
  6  5  1  0
  7  8  1  0
  7  6  2  0
  8  9  2  0
  9 10  1  0
 10  2  1  0
 11 16  1  0
 12 11  2  0
 12 13  1  0
 13 14  2  0
 14 15  1  0
 15 17  1  0
 16 15  2  0
 17 18  1  0
  2 19  1  0
  3 20  1  0
  8 21  1  0
 12 22  1  0
 13 23  1  0
 17 24  1  0
 17 25  1  0
 18 26  1  0
 18 27  1  0
 18 28  1  0
M  ISO  8  19   9  20  14  21  14  22  14  23  14  24   8  25   8  26   8
M  ISO  2  27   8  28   8
M  END
>  <minimizedAffinity>  (1) 
-5.37233925

>  <minimizedRMSD>  (1) 
1.55722594

$$$$
