
     RDKit          3D

 51 54  0  0  1  0  0  0  0  0999 V2000
   48.3280   30.8470   43.3840 C   0  0  0  0  0  0  0  0  0  0  0  0
   47.5180   31.8510   42.8370 C   0  0  0  0  0  0  0  0  0  0  0  0
   46.2700   32.1220   43.3890 C   0  0  0  0  0  0  0  0  0  0  0  0
   45.9290   31.3590   44.4540 N   0  0  0  0  0  0  0  0  0  0  0  0
   46.6840   30.4050   44.9840 C   0  0  0  0  0  0  0  0  0  0  0  0
   47.8710   30.1580   44.4460 N   0  0  0  0  0  0  0  0  0  0  0  0
   46.1960   29.6990   46.0870 N   0  0  0  0  0  0  0  0  0  0  0  0
   44.8270   29.7140   46.5340 C   0  0  0  0  0  0  0  0  0  0  0  0
   44.2680   28.3010   46.3380 C   0  0  0  0  0  0  0  0  0  0  0  0
   45.2420   27.3510   46.6340 O   0  0  0  0  0  0  0  0  0  0  0  0
   46.1530   27.8180   47.5730 C   0  0  0  0  0  0  0  0  0  0  0  0
   47.0210   28.8680   46.9070 C   0  0  2  0  0  0  0  0  0  0  0  0
   45.3410   33.1850   42.8570 C   0  0  0  0  0  0  0  0  0  0  0  0
   45.5860   34.4830   43.0750 C   0  0  0  0  0  0  0  0  0  0  0  0
   44.1830   35.2950   42.2350 S   0  0  0  0  0  0  0  0  0  0  0  0
   43.4870   33.6090   41.7150 C   0  0  0  0  0  0  0  0  0  0  0  0
   44.2800   32.8990   42.1790 N   0  0  0  0  0  0  0  0  0  0  0  0
   42.2690   33.6300   40.9520 N   0  0  0  0  0  0  0  0  0  0  0  0
   41.9010   34.6810   40.0930 C   0  0  0  0  0  0  0  0  0  0  0  0
   42.8680   35.4060   39.6360 N   0  0  0  0  0  0  0  0  0  0  0  0
   40.4930   34.7950   39.8490 N   0  0  0  0  0  0  0  0  0  0  0  0
   42.5970   36.1680   38.9660 H   0  0  0  0  0  0  0  0  0  0  0  0
   47.9160   29.5290   47.7850 N   0  0  0  0  0  0  0  0  0  0  0  0
   49.3010   29.2290   47.6000 C   0  0  0  0  0  0  0  0  0  0  0  0
   50.0670   29.9740   48.6880 C   0  0  0  0  0  0  0  0  0  0  0  0
   49.1210   30.4920   49.7630 C   0  0  0  0  0  0  0  0  0  0  0  0
   48.2460   31.5450   49.0870 C   0  0  0  0  0  0  0  0  0  0  0  0
   47.6970   30.9400   47.8050 C   0  0  0  0  0  0  0  0  0  0  0  0
   49.3164   30.6266   42.9546 H   0  0  0  0  0  0  0  0  0  0  0  0
   47.8700   32.4268   41.9683 H   0  0  0  0  0  0  0  0  0  0  0  0
   44.7812   29.9928   47.5971 H   0  0  0  0  0  0  0  0  0  0  0  0
   44.2391   30.4479   45.9633 H   0  0  0  0  0  0  0  0  0  0  0  0
   43.4053   28.1562   47.0049 H   0  0  0  0  0  0  0  0  0  0  0  0
   43.9578   28.1810   45.2895 H   0  0  0  0  0  0  0  0  0  0  0  0
   45.6162   28.2631   48.4237 H   0  0  0  0  0  0  0  0  0  0  0  0
   46.7746   26.9902   47.9448 H   0  0  0  0  0  0  0  0  0  0  0  0
   47.7390   28.3756   46.2347 H   0  0  0  0  0  0  0  0  0  0  0  0
   46.4216   34.9439   43.6221 H   0  0  0  0  0  0  0  0  0  0  0  0
   41.6282   32.8284   41.0395 H   0  0  0  0  0  0  0  0  0  0  0  0
   40.1359   35.5378   39.2312 H   0  0  0  0  0  0  0  0  0  0  0  0
   39.8385   34.1341   40.2915 H   0  0  0  0  0  0  0  0  0  0  0  0
   49.4689   28.1459   47.6938 H   0  0  0  0  0  0  0  0  0  0  0  0
   49.6396   29.5373   46.5999 H   0  0  0  0  0  0  0  0  0  0  0  0
   50.7949   29.2898   49.1485 H   0  0  0  0  0  0  0  0  0  0  0  0
   50.5813   30.8319   48.2302 H   0  0  0  0  0  0  0  0  0  0  0  0
   48.4995   29.6719   50.1518 H   0  0  0  0  0  0  0  0  0  0  0  0
   49.6741   30.9159   50.6141 H   0  0  0  0  0  0  0  0  0  0  0  0
   47.4169   31.8262   49.7530 H   0  0  0  0  0  0  0  0  0  0  0  0
   48.8339   32.4478   48.8647 H   0  0  0  0  0  0  0  0  0  0  0  0
   48.2040   31.3974   46.9426 H   0  0  0  0  0  0  0  0  0  0  0  0
   46.6153   31.1332   47.7547 H   0  0  0  0  0  0  0  0  0  0  0  0
  1  6  2  0
  2  1  1  0
  2  3  2  0
  3  4  1  0
  4  5  2  0
  5  7  1  0
  6  5  1  0
  7  8  1  0
  7 12  1  0
  9  8  1  0
  9 10  1  0
 10 11  1  0
 12 11  1  0
 12 23  1  0
 13 14  2  0
 13  3  1  0
 15 14  1  0
 16 17  2  0
 16 15  1  0
 17 13  1  0
 18 16  1  0
 19 18  1  0
 20 19  2  0
 21 19  1  0
 22 20  1  0
 23 28  1  0
 24 23  1  0
 24 25  1  0
 25 26  1  0
 27 26  1  0
 28 27  1  0
  1 29  1  0
  2 30  1  0
  8 31  1  0
  8 32  1  0
  9 33  1  0
  9 34  1  0
 11 35  1  0
 11 36  1  0
 12 37  1  6
 14 38  1  0
 18 39  1  0
 21 40  1  0
 21 41  1  0
 24 42  1  0
 24 43  1  0
 25 44  1  0
 25 45  1  0
 26 46  1  0
 26 47  1  0
 27 48  1  0
 27 49  1  0
 28 50  1  0
 28 51  1  0
M  ISO  8  29  14  30  14  31  13  32  13  33  13  34  13  35  13  36  13
M  ISO  8  37  13  38  14  42  13  43  13  44  13  45  13  46  13  47  13
M  ISO  4  48  13  49  13  50  13  51  13
M  END
>  <minimizedAffinity>  (1) 
-5.30145741

>  <minimizedRMSD>  (1) 
2.2181263

$$$$
