
     RDKit          3D

 31 33  0  0  0  0  0  0  0  0999 V2000
   43.9970   33.5540   39.8520 S   0  0  0  0  0  0  0  0  0  0  0  0
   39.6710   32.9060   42.1620 N   0  0  0  0  0  0  0  0  0  0  0  0
   40.4700   31.8240   42.2620 C   0  0  0  0  0  0  0  0  0  0  0  0
   41.6120   32.1270   41.5940 N   0  0  0  0  0  0  0  0  0  0  0  0
   41.4870   33.3560   41.1140 C   0  0  0  0  0  0  0  0  0  0  0  0
   42.3740   34.1060   40.3710 C   0  0  0  0  0  0  0  0  0  0  0  0
   42.0600   35.3540   39.9700 N   0  0  0  0  0  0  0  0  0  0  0  0
   40.8370   35.8400   40.3310 C   0  0  0  0  0  0  0  0  0  0  0  0
   39.9580   35.1130   41.0610 N   0  0  0  0  0  0  0  0  0  0  0  0
   40.2650   33.8860   41.4540 C   0  0  0  0  0  0  0  0  0  0  0  0
   45.1420   33.9690   41.1890 C   0  0  0  0  0  0  0  0  0  0  0  0
   46.4420   34.4120   40.8920 C   0  0  0  0  0  0  0  0  0  0  0  0
   47.2770   34.7170   41.9700 C   0  0  0  0  0  0  0  0  0  0  0  0
   46.7800   34.5660   43.2230 N   0  0  0  0  0  0  0  0  0  0  0  0
   45.5220   34.1370   43.4830 C   0  0  0  0  0  0  0  0  0  0  0  0
   44.7210   33.8450   42.4600 N   0  0  0  0  0  0  0  0  0  0  0  0
   45.1360   34.0270   44.9180 C   0  0  0  0  0  0  0  0  0  0  0  0
   44.6830   35.3220   45.5140 C   0  0  0  0  0  0  0  0  0  0  0  0
   46.3250   33.5290   45.7430 C   0  0  0  0  0  0  0  0  0  0  0  0
   38.7292   32.9741   42.5734 H   0  0  0  0  0  0  0  0  0  0  0  0
   40.2413   30.8821   42.7821 H   0  0  0  0  0  0  0  0  0  0  0  0
   40.5557   36.8565   40.0185 H   0  0  0  0  0  0  0  0  0  0  0  0
   46.7883   34.5145   39.8530 H   0  0  0  0  0  0  0  0  0  0  0  0
   48.3064   35.0690   41.8074 H   0  0  0  0  0  0  0  0  0  0  0  0
   44.2931   33.3208   44.9474 H   0  0  0  0  0  0  0  0  0  0  0  0
   44.7084   35.2494   46.6113 H   0  0  0  0  0  0  0  0  0  0  0  0
   45.3515   36.1310   45.1845 H   0  0  0  0  0  0  0  0  0  0  0  0
   43.6560   35.5379   45.1845 H   0  0  0  0  0  0  0  0  0  0  0  0
   46.0942   33.6257   46.8142 H   0  0  0  0  0  0  0  0  0  0  0  0
   46.5207   32.4733   45.5039 H   0  0  0  0  0  0  0  0  0  0  0  0
   47.2147   34.1301   45.5039 H   0  0  0  0  0  0  0  0  0  0  0  0
  1  6  1  0
  1 11  1  0
  2  3  1  0
  4  3  2  0
  5 10  2  0
  5  4  1  0
  6  5  1  0
  7  8  1  0
  7  6  2  0
  8  9  2  0
  9 10  1  0
 10  2  1  0
 11 16  1  0
 12 11  2  0
 12 13  1  0
 13 14  2  0
 14 15  1  0
 15 17  1  0
 16 15  2  0
 17 18  1  0
 17 19  1  0
  2 20  1  0
  3 21  1  0
  8 22  1  0
 12 23  1  0
 13 24  1  0
 17 25  1  0
 18 26  1  0
 18 27  1  0
 18 28  1  0
 19 29  1  0
 19 30  1  0
 19 31  1  0
M  ISO  8  20   9  21  14  22  14  23  14  24  14  25   8  26   8  27   8
M  ISO  4  28   8  29   8  30   8  31   8
M  END
>  <minimizedAffinity>  (1) 
-5.17593479

>  <minimizedRMSD>  (1) 
2.03151178

$$$$
