
     RDKit          3D

 44 47  0  0  1  0  0  0  0  0999 V2000
   49.2050   30.5930   43.3950 C   0  0  0  0  0  0  0  0  0  0  0  0
   48.4940   31.7050   42.9270 C   0  0  0  0  0  0  0  0  0  0  0  0
   47.3470   32.1440   43.5860 C   0  0  0  0  0  0  0  0  0  0  0  0
   47.0070   31.4250   44.6670 N   0  0  0  0  0  0  0  0  0  0  0  0
   47.6670   30.3690   45.1270 C   0  0  0  0  0  0  0  0  0  0  0  0
   48.7530   29.9590   44.4960 N   0  0  0  0  0  0  0  0  0  0  0  0
   47.1730   29.7270   46.2780 N   0  0  0  0  0  0  0  0  0  0  0  0
   45.8580   29.9210   46.8420 C   0  0  0  0  0  0  0  0  0  0  0  0
   45.1020   28.5950   46.6830 C   0  0  0  0  0  0  0  0  0  0  0  0
   45.9610   27.5230   46.8930 O   0  0  0  0  0  0  0  0  0  0  0  0
   47.0020   27.8450   47.7500 C   0  0  0  0  0  0  0  0  0  0  0  0
   47.9590   28.7800   47.0310 C   0  0  2  0  0  0  0  0  0  0  0  0
   46.5480   33.3200   43.1380 C   0  0  0  0  0  0  0  0  0  0  0  0
   47.1190   34.4990   42.8720 C   0  0  0  0  0  0  0  0  0  0  0  0
   45.7170   35.5460   42.3810 S   0  0  0  0  0  0  0  0  0  0  0  0
   44.5140   34.1030   42.6390 C   0  0  0  0  0  0  0  0  0  0  0  0
   45.2690   33.2960   42.9750 N   0  0  0  0  0  0  0  0  0  0  0  0
   43.1220   34.3670   42.3780 N   0  0  0  0  0  0  0  0  0  0  0  0
   42.6870   35.3180   41.4390 C   0  0  0  0  0  0  0  0  0  0  0  0
   43.5200   35.6230   40.4740 N   0  0  0  0  0  0  0  0  0  0  0  0
   41.3630   35.8370   41.6690 N   0  0  0  0  0  0  0  0  0  0  0  0
   43.1640   36.3390   39.7950 H   0  0  0  0  0  0  0  0  0  0  0  0
   48.9320   29.4160   47.9270 C   0  0  0  0  0  0  0  0  0  0  0  0
   50.3090   29.3220   47.7520 C   0  0  0  0  0  0  0  0  0  0  0  0
   51.2470   29.9030   48.5730 C   0  0  0  0  0  0  0  0  0  0  0  0
   50.7660   30.6150   49.6220 N   0  0  0  0  0  0  0  0  0  0  0  0
   49.4520   30.7110   49.8000 C   0  0  0  0  0  0  0  0  0  0  0  0
   48.5440   30.1340   48.9860 N   0  0  0  0  0  0  0  0  0  0  0  0
   50.1107   30.2449   42.8768 H   0  0  0  0  0  0  0  0  0  0  0  0
   48.8442   32.2373   42.0304 H   0  0  0  0  0  0  0  0  0  0  0  0
   45.9387   30.1846   47.9069 H   0  0  0  0  0  0  0  0  0  0  0  0
   45.3284   30.7387   46.3313 H   0  0  0  0  0  0  0  0  0  0  0  0
   44.2835   28.5535   47.4167 H   0  0  0  0  0  0  0  0  0  0  0  0
   44.6960   28.5342   45.6625 H   0  0  0  0  0  0  0  0  0  0  0  0
   46.6024   28.3428   48.6458 H   0  0  0  0  0  0  0  0  0  0  0  0
   47.5319   26.9300   48.0534 H   0  0  0  0  0  0  0  0  0  0  0  0
   48.5875   28.1978   46.3410 H   0  0  0  0  0  0  0  0  0  0  0  0
   48.1831   34.7706   42.9352 H   0  0  0  0  0  0  0  0  0  0  0  0
   42.4136   33.8348   42.9032 H   0  0  0  0  0  0  0  0  0  0  0  0
   40.9664   36.5387   41.0278 H   0  0  0  0  0  0  0  0  0  0  0  0
   40.8130   35.5063   42.4746 H   0  0  0  0  0  0  0  0  0  0  0  0
   50.6746   28.7398   46.8933 H   0  0  0  0  0  0  0  0  0  0  0  0
   52.3262   29.7962   48.3891 H   0  0  0  0  0  0  0  0  0  0  0  0
   49.0849   31.2930   50.6583 H   0  0  0  0  0  0  0  0  0  0  0  0
  1  6  2  0
  2  1  1  0
  2  3  2  0
  3  4  1  0
  4  5  2  0
  5  7  1  0
  6  5  1  0
  7  8  1  0
  7 12  1  0
  9  8  1  0
  9 10  1  0
 10 11  1  0
 12 11  1  0
 12 23  1  0
 13  3  1  0
 14 13  2  0
 15 16  1  0
 15 14  1  0
 16 17  2  0
 17 13  1  0
 18 16  1  0
 19 21  1  0
 19 18  1  0
 20 19  2  0
 22 20  1  0
 23 28  1  0
 24 23  2  0
 24 25  1  0
 25 26  2  0
 26 27  1  0
 28 27  2  0
  1 29  1  0
  2 30  1  0
  8 31  1  0
  8 32  1  0
  9 33  1  0
  9 34  1  0
 11 35  1  0
 11 36  1  0
 12 37  1  6
 14 38  1  0
 18 39  1  0
 21 40  1  0
 21 41  1  0
 24 42  1  0
 25 43  1  0
 27 44  1  0
M  ISO  8  29  14  30  14  31  13  32  13  33  13  34  13  35  13  36  13
M  ISO  5  37  13  38  14  42  14  43  14  44  14
M  END
>  <minimizedAffinity>  (1) 
-5.29005337

>  <minimizedRMSD>  (1) 
2.58212042

$$$$
