
     RDKit          3D

 30 33  0  0  0  0  0  0  0  0999 V2000
   46.8590   34.5960   41.8940 C   0  0  0  0  0  0  0  0  0  0  0  0
   46.9520   34.3590   43.2850 C   0  0  0  0  0  0  0  0  0  0  0  0
   45.7460   34.0480   43.9400 C   0  0  0  0  0  0  0  0  0  0  0  0
   44.6180   34.0010   43.2080 N   0  0  0  0  0  0  0  0  0  0  0  0
   44.5690   34.2330   41.8870 C   0  0  0  0  0  0  0  0  0  0  0  0
   45.6910   34.5320   41.2220 N   0  0  0  0  0  0  0  0  0  0  0  0
   43.2950   34.1600   41.1690 C   0  0  0  0  0  0  0  0  0  0  0  0
   42.9900   35.1380   40.2310 C   0  0  0  0  0  0  0  0  0  0  0  0
   41.8070   35.1430   39.5080 C   0  0  0  0  0  0  0  0  0  0  0  0
   40.9360   34.1260   39.7620 N   0  0  0  0  0  0  0  0  0  0  0  0
   41.2490   33.1790   40.6820 C   0  0  0  0  0  0  0  0  0  0  0  0
   42.3990   33.1670   41.3890 N   0  0  0  0  0  0  0  0  0  0  0  0
   48.3680   35.0020   40.9840 S   0  0  0  0  0  0  0  0  0  0  0  0
   48.8740   30.5520   38.9020 N   0  0  0  0  0  0  0  0  0  0  0  0
   48.9840   30.4940   40.2330 C   0  0  0  0  0  0  0  0  0  0  0  0
   48.8300   31.7700   40.6950 N   0  0  0  0  0  0  0  0  0  0  0  0
   48.6320   32.5480   39.6290 C   0  0  0  0  0  0  0  0  0  0  0  0
   48.4240   33.9040   39.5650 C   0  0  0  0  0  0  0  0  0  0  0  0
   48.2410   34.5260   38.3790 N   0  0  0  0  0  0  0  0  0  0  0  0
   48.2720   33.7390   37.2600 C   0  0  0  0  0  0  0  0  0  0  0  0
   48.4740   32.4190   37.3100 N   0  0  0  0  0  0  0  0  0  0  0  0
   48.6540   31.8050   38.4720 C   0  0  0  0  0  0  0  0  0  0  0  0
   47.9099   34.4144   43.8229 H   0  0  0  0  0  0  0  0  0  0  0  0
   45.7260   33.8486   45.0216 H   0  0  0  0  0  0  0  0  0  0  0  0
   43.7183   35.9431   40.0542 H   0  0  0  0  0  0  0  0  0  0  0  0
   41.5833   35.9262   38.7687 H   0  0  0  0  0  0  0  0  0  0  0  0
   40.5224   32.3731   40.8625 H   0  0  0  0  0  0  0  0  0  0  0  0
   48.9490   29.7338   38.2808 H   0  0  0  0  0  0  0  0  0  0  0  0
   49.1637   29.5934   40.8386 H   0  0  0  0  0  0  0  0  0  0  0  0
   48.1245   34.2127   36.2783 H   0  0  0  0  0  0  0  0  0  0  0  0
  1  2  2  0
  2  3  1  0
  4  3  2  0
  5  4  1  0
  6  5  2  0
  6  1  1  0
  7 12  1  0
  7  5  1  0
  8  7  2  0
  9 10  2  0
  9  8  1  0
 10 11  1  0
 11 12  2  0
 13  1  1  0
 14 15  1  0
 15 16  2  0
 17 16  1  0
 18 17  2  0
 18 13  1  0
 19 18  1  0
 20 21  1  0
 20 19  2  0
 21 22  2  0
 22 14  1  0
 22 17  1  0
  2 23  1  0
  3 24  1  0
  8 25  1  0
  9 26  1  0
 11 27  1  0
 14 28  1  0
 15 29  1  0
 20 30  1  0
M  ISO  8  23  14  24  14  25  14  26  14  27  14  28   9  29  14  30  14
M  END
>  <minimizedAffinity>  (1) 
-4.63373709

>  <minimizedRMSD>  (1) 
6.6893487

$$$$
