
     RDKit          3D

 41 44  0  0  1  0  0  0  0  0999 V2000
   48.9180   30.5430   43.6740 C   0  0  0  0  0  0  0  0  0  0  0  0
   48.2740   31.6760   43.1530 C   0  0  0  0  0  0  0  0  0  0  0  0
   47.0810   32.1130   43.7010 C   0  0  0  0  0  0  0  0  0  0  0  0
   46.6110   31.3860   44.7360 N   0  0  0  0  0  0  0  0  0  0  0  0
   47.2060   30.3120   45.2400 C   0  0  0  0  0  0  0  0  0  0  0  0
   48.3450   29.9030   44.7090 N   0  0  0  0  0  0  0  0  0  0  0  0
   46.5990   29.6500   46.3230 N   0  0  0  0  0  0  0  0  0  0  0  0
   45.2370   29.8620   46.7610 C   0  0  0  0  0  0  0  0  0  0  0  0
   44.4790   28.5560   46.4960 C   0  0  0  0  0  0  0  0  0  0  0  0
   45.2990   27.4580   46.7770 O   0  0  0  0  0  0  0  0  0  0  0  0
   46.2400   27.7510   47.7350 C   0  0  0  0  0  0  0  0  0  0  0  0
   47.2750   28.6790   47.1220 C   0  0  2  0  0  0  0  0  0  0  0  0
   46.3360   33.3140   43.2000 C   0  0  0  0  0  0  0  0  0  0  0  0
   46.9580   34.4660   42.9230 C   0  0  0  0  0  0  0  0  0  0  0  0
   45.6090   35.5490   42.3680 S   0  0  0  0  0  0  0  0  0  0  0  0
   44.3470   34.1470   42.6270 C   0  0  0  0  0  0  0  0  0  0  0  0
   45.0600   33.3160   43.0040 N   0  0  0  0  0  0  0  0  0  0  0  0
   42.9730   34.4590   42.3170 N   0  0  0  0  0  0  0  0  0  0  0  0
   42.5940   35.3880   41.3420 C   0  0  0  0  0  0  0  0  0  0  0  0
   43.4630   35.6350   40.3950 N   0  0  0  0  0  0  0  0  0  0  0  0
   41.2800   35.9520   41.5210 N   0  0  0  0  0  0  0  0  0  0  0  0
   43.1480   36.3000   39.6530 H   0  0  0  0  0  0  0  0  0  0  0  0
   48.1310   29.3120   48.1390 C   0  0  0  0  0  0  0  0  0  0  0  0
   49.2800   28.7510   48.5570 N   0  0  0  0  0  0  0  0  0  0  0  0
   49.8320   29.5160   49.4530 O   0  0  0  0  0  0  0  0  0  0  0  0
   49.0870   30.5860   49.6540 C   0  0  0  0  0  0  0  0  0  0  0  0
   48.0420   30.4560   48.8460 N   0  0  0  0  0  0  0  0  0  0  0  0
   49.8672   30.1874   43.2467 H   0  0  0  0  0  0  0  0  0  0  0  0
   48.7193   32.2185   42.3060 H   0  0  0  0  0  0  0  0  0  0  0  0
   45.2171   30.1004   47.8347 H   0  0  0  0  0  0  0  0  0  0  0  0
   44.7753   30.7029   46.2227 H   0  0  0  0  0  0  0  0  0  0  0  0
   43.5864   28.5169   47.1376 H   0  0  0  0  0  0  0  0  0  0  0  0
   44.1814   28.5212   45.4376 H   0  0  0  0  0  0  0  0  0  0  0  0
   45.7575   28.2460   48.5906 H   0  0  0  0  0  0  0  0  0  0  0  0
   46.7219   26.8269   48.0867 H   0  0  0  0  0  0  0  0  0  0  0  0
   47.9536   28.0881   46.4893 H   0  0  0  0  0  0  0  0  0  0  0  0
   48.0291   34.7009   43.0104 H   0  0  0  0  0  0  0  0  0  0  0  0
   42.2320   33.9721   42.8411 H   0  0  0  0  0  0  0  0  0  0  0  0
   40.9209   36.6446   40.8485 H   0  0  0  0  0  0  0  0  0  0  0  0
   40.7000   35.6625   42.3214 H   0  0  0  0  0  0  0  0  0  0  0  0
   49.2900   31.4149   50.3480 H   0  0  0  0  0  0  0  0  0  0  0  0
  1  6  2  0
  2  1  1  0
  2  3  2  0
  3  4  1  0
  4  5  2  0
  5  7  1  0
  6  5  1  0
  7  8  1  0
  7 12  1  0
  9  8  1  0
  9 10  1  0
 10 11  1  0
 12 11  1  0
 12 23  1  0
 13  3  1  0
 14 13  2  0
 15 16  1  0
 15 14  1  0
 16 17  2  0
 17 13  1  0
 18 16  1  0
 19 21  1  0
 19 18  1  0
 20 19  2  0
 22 20  1  0
 23 24  2  0
 23 27  1  0
 24 25  1  0
 25 26  1  0
 27 26  2  0
  1 28  1  0
  2 29  1  0
  8 30  1  0
  8 31  1  0
  9 32  1  0
  9 33  1  0
 11 34  1  0
 11 35  1  0
 12 36  1  6
 14 37  1  0
 18 38  1  0
 21 39  1  0
 21 40  1  0
 26 41  1  0
M  ISO  8  28  14  29  14  30  13  31  13  32  13  33  13  34  13  35  13
M  ISO  3  36  13  37  14  41  14
M  END
>  <minimizedAffinity>  (1) 
-5.24499941

>  <minimizedRMSD>  (1) 
2.59277463

$$$$
