
     RDKit          3D

 32 35  0  0  0  0  0  0  0  0999 V2000
   44.8030   33.7390   40.5060 C   0  0  0  0  0  0  0  0  0  0  0  0
   44.4460   33.8430   41.8730 C   0  0  0  0  0  0  0  0  0  0  0  0
   45.4660   34.2730   42.7210 C   0  0  0  0  0  0  0  0  0  0  0  0
   46.6880   34.5560   42.2150 N   0  0  0  0  0  0  0  0  0  0  0  0
   46.9860   34.4430   40.9010 C   0  0  0  0  0  0  0  0  0  0  0  0
   46.0430   34.0360   40.0580 N   0  0  0  0  0  0  0  0  0  0  0  0
   45.2170   34.4160   44.1390 C   0  0  0  0  0  0  0  0  0  0  0  0
   45.6800   33.6310   45.1580 C   0  0  0  0  0  0  0  0  0  0  0  0
   45.2230   34.0960   46.3340 N   0  0  0  0  0  0  0  0  0  0  0  0
   44.4630   35.1860   46.0540 C   0  0  0  0  0  0  0  0  0  0  0  0
   44.4730   35.3620   44.7220 N   0  0  0  0  0  0  0  0  0  0  0  0
   48.3400   34.7660   40.4020 C   0  0  0  0  0  0  0  0  0  0  0  0
   48.3150   34.7700   39.0110 F   0  0  0  0  0  0  0  0  0  0  0  0
   49.2310   33.7710   40.7760 F   0  0  0  0  0  0  0  0  0  0  0  0
   48.8460   35.9530   40.9110 F   0  0  0  0  0  0  0  0  0  0  0  0
   43.5540   33.1890   39.3150 S   0  0  0  0  0  0  0  0  0  0  0  0
   39.2860   33.2240   41.7950 N   0  0  0  0  0  0  0  0  0  0  0  0
   39.9890   32.0870   42.0040 C   0  0  0  0  0  0  0  0  0  0  0  0
   41.1220   32.2020   41.2770 N   0  0  0  0  0  0  0  0  0  0  0  0
   41.0900   33.3690   40.6600 C   0  0  0  0  0  0  0  0  0  0  0  0
   42.0050   33.9290   39.8180 C   0  0  0  0  0  0  0  0  0  0  0  0
   41.7930   35.1630   39.2700 N   0  0  0  0  0  0  0  0  0  0  0  0
   40.6410   35.7980   39.5980 C   0  0  0  0  0  0  0  0  0  0  0  0
   39.7300   35.2510   40.4310 N   0  0  0  0  0  0  0  0  0  0  0  0
   39.9480   34.0440   40.9610 C   0  0  0  0  0  0  0  0  0  0  0  0
   43.4371   33.6020   42.2390 H   0  0  0  0  0  0  0  0  0  0  0  0
   46.3288   32.7513   45.0345 H   0  0  0  0  0  0  0  0  0  0  0  0
   43.9337   35.8129   46.7868 H   0  0  0  0  0  0  0  0  0  0  0  0
   43.9795   36.1157   44.2227 H   0  0  0  0  0  0  0  0  0  0  0  0
   38.3698   33.4324   42.2169 H   0  0  0  0  0  0  0  0  0  0  0  0
   39.6964   31.2380   42.6393 H   0  0  0  0  0  0  0  0  0  0  0  0
   40.4418   36.7921   39.1712 H   0  0  0  0  0  0  0  0  0  0  0  0
  1  2  2  0
  2  3  1  0
  3  7  1  0
  4  3  2  0
  5  4  1  0
  6  1  1  0
  6  5  2  0
  7 11  1  0
  7  8  2  0
  8  9  1  0
 10  9  2  0
 11 10  1  0
 12 14  1  0
 12  5  1  0
 12 15  1  0
 13 12  1  0
 16 21  1  0
 16  1  1  0
 17 18  1  0
 19 18  2  0
 20 25  2  0
 20 19  1  0
 21 20  1  0
 22 23  1  0
 22 21  2  0
 23 24  2  0
 24 25  1  0
 25 17  1  0
  2 26  1  0
  8 27  1  0
 10 28  1  0
 11 29  1  0
 17 30  1  0
 18 31  1  0
 23 32  1  0
M  ISO  7  26  14  27  14  28  14  29   9  30   9  31  14  32  14
M  END
>  <minimizedAffinity>  (1) 
-6.80476379

>  <minimizedRMSD>  (1) 
0.872343242

$$$$
