
     RDKit          3D

 39 42  0  0  0  0  0  0  0  0999 V2000
   45.3660   33.4340   41.0970 C   0  0  0  0  0  0  0  0  0  0  0  0
   45.2370   32.8200   42.3560 C   0  0  0  0  0  0  0  0  0  0  0  0
   46.2870   33.0390   43.2600 C   0  0  0  0  0  0  0  0  0  0  0  0
   47.3300   33.8120   42.8580 N   0  0  0  0  0  0  0  0  0  0  0  0
   47.4110   34.3760   41.6500 C   0  0  0  0  0  0  0  0  0  0  0  0
   46.4270   34.1800   40.7840 N   0  0  0  0  0  0  0  0  0  0  0  0
   46.3010   32.4950   44.5490 N   0  0  0  0  0  0  0  0  0  0  0  0
   46.6610   33.2460   45.7180 C   0  0  0  0  0  0  0  0  0  0  0  0
   45.4680   33.1060   46.6670 C   0  0  0  0  0  0  0  0  0  0  0  0
   45.3260   31.7520   47.0900 N   0  0  0  0  0  0  0  0  0  0  0  0
   45.8460   30.7530   46.2200 C   0  0  0  0  0  0  0  0  0  0  0  0
   45.9460   31.1130   44.7790 C   0  0  0  0  0  0  0  0  0  0  0  0
   48.5760   35.2130   41.2640 C   0  0  0  0  0  0  0  0  0  0  0  0
   48.5860   35.3870   39.8970 F   0  0  0  0  0  0  0  0  0  0  0  0
   49.7480   34.5400   41.5850 F   0  0  0  0  0  0  0  0  0  0  0  0
   48.6330   36.4210   41.9380 F   0  0  0  0  0  0  0  0  0  0  0  0
   44.0420   33.1840   39.8950 S   0  0  0  0  0  0  0  0  0  0  0  0
   39.7160   33.0140   42.2450 N   0  0  0  0  0  0  0  0  0  0  0  0
   40.2770   31.8030   42.1440 C   0  0  0  0  0  0  0  0  0  0  0  0
   41.4420   31.9870   41.4900 N   0  0  0  0  0  0  0  0  0  0  0  0
   41.5600   33.2710   41.2130 C   0  0  0  0  0  0  0  0  0  0  0  0
   42.5660   33.9360   40.5630 C   0  0  0  0  0  0  0  0  0  0  0  0
   42.5130   35.2870   40.3670 N   0  0  0  0  0  0  0  0  0  0  0  0
   41.4230   35.9220   40.8470 C   0  0  0  0  0  0  0  0  0  0  0  0
   40.4240   35.2790   41.4900 N   0  0  0  0  0  0  0  0  0  0  0  0
   40.4830   33.9620   41.6770 C   0  0  0  0  0  0  0  0  0  0  0  0
   44.3636   32.2040   42.6164 H   0  0  0  0  0  0  0  0  0  0  0  0
   47.5705   32.8319   46.1778 H   0  0  0  0  0  0  0  0  0  0  0  0
   46.8769   34.2982   45.4808 H   0  0  0  0  0  0  0  0  0  0  0  0
   45.6280   33.7459   47.5473 H   0  0  0  0  0  0  0  0  0  0  0  0
   44.5534   33.4125   46.1383 H   0  0  0  0  0  0  0  0  0  0  0  0
   45.8051   31.6564   47.9968 H   0  0  0  0  0  0  0  0  0  0  0  0
   46.8565   30.4971   46.5713 H   0  0  0  0  0  0  0  0  0  0  0  0
   45.1234   29.9247   46.2634 H   0  0  0  0  0  0  0  0  0  0  0  0
   44.9723   30.9209   44.3046 H   0  0  0  0  0  0  0  0  0  0  0  0
   46.7507   30.4984   44.3491 H   0  0  0  0  0  0  0  0  0  0  0  0
   38.8105   33.1971   42.7005 H   0  0  0  0  0  0  0  0  0  0  0  0
   39.8707   30.8517   42.5181 H   0  0  0  0  0  0  0  0  0  0  0  0
   41.3447   37.0104   40.7086 H   0  0  0  0  0  0  0  0  0  0  0  0
  1  2  2  0
  2  3  1  0
  3  7  1  0
  4  3  2  0
  5  4  1  0
  6  1  1  0
  6  5  2  0
  7 12  1  0
  7  8  1  0
  8  9  1  0
  9 10  1  0
 11 10  1  0
 12 11  1  0
 13 15  1  0
 13  5  1  0
 13 16  1  0
 14 13  1  0
 17 22  1  0
 17  1  1  0
 19 18  1  0
 20 19  2  0
 21 20  1  0
 21 26  2  0
 22 21  1  0
 23 22  2  0
 23 24  1  0
 24 25  2  0
 25 26  1  0
 26 18  1  0
  2 27  1  0
  8 28  1  0
  8 29  1  0
  9 30  1  0
  9 31  1  0
 10 32  1  0
 11 33  1  0
 11 34  1  0
 12 35  1  0
 12 36  1  0
 18 37  1  0
 19 38  1  0
 24 39  1  0
M  ISO  8  27  14  28  13  29  13  30  13  31  13  32   5  33  13  34  13
M  ISO  5  35  13  36  13  37   9  38  14  39  14
M  END
>  <minimizedAffinity>  (1) 
-6.67674446

>  <minimizedRMSD>  (1) 
1.54388058

$$$$
