
     RDKit          3D

 38 41  0  0  0  0  0  0  0  0999 V2000
   45.1670   33.6560   40.9620 C   0  0  0  0  0  0  0  0  0  0  0  0
   44.8960   33.1780   42.2680 C   0  0  0  0  0  0  0  0  0  0  0  0
   45.9010   33.4070   43.2060 C   0  0  0  0  0  0  0  0  0  0  0  0
   47.0310   34.0460   42.8320 N   0  0  0  0  0  0  0  0  0  0  0  0
   47.2510   34.4880   41.5730 C   0  0  0  0  0  0  0  0  0  0  0  0
   46.3080   34.2840   40.6520 N   0  0  0  0  0  0  0  0  0  0  0  0
   45.7270   32.9550   44.5870 C   0  0  0  0  0  0  0  0  0  0  0  0
   46.9970   32.3720   45.1930 C   0  0  0  0  0  0  0  0  0  0  0  0
   46.8860   32.6190   46.6770 C   0  0  0  0  0  0  0  0  0  0  0  0
   45.5970   33.3670   46.8940 C   0  0  0  0  0  0  0  0  0  0  0  0
   45.3850   34.0560   45.5620 C   0  0  0  0  0  0  0  0  0  0  0  0
   48.5030   35.1810   41.2110 C   0  0  0  0  0  0  0  0  0  0  0  0
   48.5500   35.3600   39.8410 F   0  0  0  0  0  0  0  0  0  0  0  0
   49.5910   34.3670   41.5320 F   0  0  0  0  0  0  0  0  0  0  0  0
   48.7000   36.3660   41.8980 F   0  0  0  0  0  0  0  0  0  0  0  0
   43.9240   33.4110   39.6650 S   0  0  0  0  0  0  0  0  0  0  0  0
   39.7090   32.9820   42.1840 N   0  0  0  0  0  0  0  0  0  0  0  0
   40.4060   31.8400   42.1950 C   0  0  0  0  0  0  0  0  0  0  0  0
   41.5320   32.0800   41.4780 N   0  0  0  0  0  0  0  0  0  0  0  0
   41.4750   33.3420   41.0650 C   0  0  0  0  0  0  0  0  0  0  0  0
   42.3830   34.0470   40.3070 C   0  0  0  0  0  0  0  0  0  0  0  0
   42.1600   35.3420   39.9750 N   0  0  0  0  0  0  0  0  0  0  0  0
   41.0060   35.9010   40.4270 C   0  0  0  0  0  0  0  0  0  0  0  0
   40.1060   35.2200   41.1710 N   0  0  0  0  0  0  0  0  0  0  0  0
   40.3310   33.9440   41.4950 C   0  0  0  0  0  0  0  0  0  0  0  0
   43.9585   32.6625   42.5235 H   0  0  0  0  0  0  0  0  0  0  0  0
   44.9146   32.2219   44.4752 H   0  0  0  0  0  0  0  0  0  0  0  0
   47.0614   31.2935   44.9866 H   0  0  0  0  0  0  0  0  0  0  0  0
   47.9007   32.8341   44.7690 H   0  0  0  0  0  0  0  0  0  0  0  0
   46.8659   31.6628   47.2204 H   0  0  0  0  0  0  0  0  0  0  0  0
   47.7462   33.1953   47.0484 H   0  0  0  0  0  0  0  0  0  0  0  0
   44.7708   32.6768   47.1197 H   0  0  0  0  0  0  0  0  0  0  0  0
   45.6336   34.0630   47.7450 H   0  0  0  0  0  0  0  0  0  0  0  0
   46.0584   34.9179   45.4452 H   0  0  0  0  0  0  0  0  0  0  0  0
   44.3743   34.4697   45.4303 H   0  0  0  0  0  0  0  0  0  0  0  0
   38.7996   33.1055   42.6517 H   0  0  0  0  0  0  0  0  0  0  0  0
   40.1231   30.8973   42.6861 H   0  0  0  0  0  0  0  0  0  0  0  0
   40.7959   36.9514   40.1768 H   0  0  0  0  0  0  0  0  0  0  0  0
  1  2  2  0
  2  3  1  0
  3  7  1  0
  4  3  2  0
  5  4  1  0
  6  1  1  0
  6  5  2  0
  7  8  1  0
  7 11  1  0
  8  9  1  0
  9 10  1  0
 11 10  1  0
 12 14  1  0
 12  5  1  0
 12 15  1  0
 13 12  1  0
 16 21  1  0
 16  1  1  0
 17 18  1  0
 19 18  2  0
 20 19  1  0
 20 25  2  0
 21 20  1  0
 22 21  2  0
 22 23  1  0
 23 24  2  0
 24 25  1  0
 25 17  1  0
  2 26  1  0
  7 27  1  0
  8 28  1  0
  8 29  1  0
  9 30  1  0
  9 31  1  0
 10 32  1  0
 10 33  1  0
 11 34  1  0
 11 35  1  0
 17 36  1  0
 18 37  1  0
 23 38  1  0
M  ISO  8  26  14  27  13  28  13  29  13  30  13  31  13  32  13  33  13
M  ISO  5  34  13  35  13  36   9  37  14  38  14
M  END
>  <minimizedAffinity>  (1) 
-6.5699091

>  <minimizedRMSD>  (1) 
1.00059474

$$$$
