
     RDKit          3D

 34 36  0  0  0  0  0  0  0  0999 V2000
   44.9810   33.8830   40.9950 C   0  0  0  0  0  0  0  0  0  0  0  0
   44.5510   33.7870   42.3230 C   0  0  0  0  0  0  0  0  0  0  0  0
   45.4820   34.1770   43.3120 C   0  0  0  0  0  0  0  0  0  0  0  0
   46.7030   34.6090   42.8790 N   0  0  0  0  0  0  0  0  0  0  0  0
   47.0750   34.6850   41.5930 C   0  0  0  0  0  0  0  0  0  0  0  0
   46.2050   34.3200   40.6620 N   0  0  0  0  0  0  0  0  0  0  0  0
   48.4240   35.1660   41.2240 C   0  0  0  0  0  0  0  0  0  0  0  0
   48.4850   35.2960   39.8360 F   0  0  0  0  0  0  0  0  0  0  0  0
   49.3700   34.1870   41.5610 F   0  0  0  0  0  0  0  0  0  0  0  0
   48.8120   36.3170   41.8640 F   0  0  0  0  0  0  0  0  0  0  0  0
   45.1380   34.1180   44.7550 C   0  0  0  0  0  0  0  0  0  0  0  0
   46.2680   33.6850   45.6260 C   0  0  0  0  0  0  0  0  0  0  0  0
   44.6710   35.4900   45.2540 C   0  0  0  0  0  0  0  0  0  0  0  0
   43.8290   33.3950   39.6770 S   0  0  0  0  0  0  0  0  0  0  0  0
   39.4110   33.1640   41.8720 N   0  0  0  0  0  0  0  0  0  0  0  0
   40.1450   32.0420   42.0550 C   0  0  0  0  0  0  0  0  0  0  0  0
   41.3190   32.2370   41.4080 N   0  0  0  0  0  0  0  0  0  0  0  0
   41.2770   33.4390   40.8610 C   0  0  0  0  0  0  0  0  0  0  0  0
   42.2290   34.0790   40.1100 C   0  0  0  0  0  0  0  0  0  0  0  0
   42.0160   35.3230   39.6230 N   0  0  0  0  0  0  0  0  0  0  0  0
   40.8240   35.8980   39.9140 C   0  0  0  0  0  0  0  0  0  0  0  0
   39.8790   35.2840   40.6510 N   0  0  0  0  0  0  0  0  0  0  0  0
   40.0980   34.0480   41.1300 C   0  0  0  0  0  0  0  0  0  0  0  0
   43.5442   33.4279   42.5828 H   0  0  0  0  0  0  0  0  0  0  0  0
   44.3386   33.3659   44.8276 H   0  0  0  0  0  0  0  0  0  0  0  0
   45.9802   33.7953   46.6819 H   0  0  0  0  0  0  0  0  0  0  0  0
   46.5074   32.6314   45.4193 H   0  0  0  0  0  0  0  0  0  0  0  0
   47.1501   34.3088   45.4193 H   0  0  0  0  0  0  0  0  0  0  0  0
   44.6681   35.4986   46.3540 H   0  0  0  0  0  0  0  0  0  0  0  0
   45.3551   36.2674   44.8831 H   0  0  0  0  0  0  0  0  0  0  0  0
   43.6547   35.6886   44.8831 H   0  0  0  0  0  0  0  0  0  0  0  0
   38.4640   33.3176   42.2469 H   0  0  0  0  0  0  0  0  0  0  0  0
   39.8465   31.1461   42.6192 H   0  0  0  0  0  0  0  0  0  0  0  0
   40.6197   36.9091   39.5320 H   0  0  0  0  0  0  0  0  0  0  0  0
  1  2  2  0
  2  3  1  0
  3 11  1  0
  4  3  2  0
  5  4  1  0
  6  1  1  0
  6  5  2  0
  7  9  1  0
  7  5  1  0
  7 10  1  0
  8  7  1  0
 11 13  1  0
 11 12  1  0
 14 19  1  0
 14  1  1  0
 15 16  1  0
 17 16  2  0
 18 23  2  0
 18 17  1  0
 19 18  1  0
 20 21  1  0
 20 19  2  0
 21 22  2  0
 22 23  1  0
 23 15  1  0
  2 24  1  0
 11 25  1  0
 12 26  1  0
 12 27  1  0
 12 28  1  0
 13 29  1  0
 13 30  1  0
 13 31  1  0
 15 32  1  0
 16 33  1  0
 21 34  1  0
M  ISO  8  24  14  25   8  26   8  27   8  28   8  29   8  30   8  31   8
M  ISO  3  32   9  33  14  34  14
M  END
>  <minimizedAffinity>  (1) 
-6.52587509

>  <minimizedRMSD>  (1) 
0.461384535

$$$$
