
     RDKit          3D

 31 34  0  0  0  0  0  0  0  0999 V2000
   45.2660   33.8460   41.1200 C   0  0  0  0  0  0  0  0  0  0  0  0
   44.9640   33.5740   42.4580 C   0  0  0  0  0  0  0  0  0  0  0  0
   45.9390   33.9100   43.4170 C   0  0  0  0  0  0  0  0  0  0  0  0
   47.0880   34.4720   42.9400 N   0  0  0  0  0  0  0  0  0  0  0  0
   47.3460   34.7180   41.6550 C   0  0  0  0  0  0  0  0  0  0  0  0
   46.4260   34.4000   40.7570 N   0  0  0  0  0  0  0  0  0  0  0  0
   45.7310   33.6700   44.8450 C   0  0  0  0  0  0  0  0  0  0  0  0
   46.3150   32.5420   45.4760 C   0  0  0  0  0  0  0  0  0  0  0  0
   45.6990   32.7850   47.2470 S   0  0  0  0  0  0  0  0  0  0  0  0
   44.7770   34.3700   46.7500 C   0  0  0  0  0  0  0  0  0  0  0  0
   45.0120   34.4640   45.5980 N   0  0  0  0  0  0  0  0  0  0  0  0
   48.6310   35.3320   41.2510 C   0  0  0  0  0  0  0  0  0  0  0  0
   48.6420   35.4580   39.8590 F   0  0  0  0  0  0  0  0  0  0  0  0
   49.6800   34.4540   41.5390 F   0  0  0  0  0  0  0  0  0  0  0  0
   48.9210   36.5150   41.8840 F   0  0  0  0  0  0  0  0  0  0  0  0
   44.0370   33.4280   39.8500 S   0  0  0  0  0  0  0  0  0  0  0  0
   39.7120   32.9580   42.1780 N   0  0  0  0  0  0  0  0  0  0  0  0
   40.4400   31.8180   42.2130 C   0  0  0  0  0  0  0  0  0  0  0  0
   41.5860   32.0760   41.5500 N   0  0  0  0  0  0  0  0  0  0  0  0
   41.5370   33.3350   41.1330 C   0  0  0  0  0  0  0  0  0  0  0  0
   42.4650   34.0510   40.4180 C   0  0  0  0  0  0  0  0  0  0  0  0
   42.2430   35.3370   40.0790 N   0  0  0  0  0  0  0  0  0  0  0  0
   41.0640   35.8850   40.4770 C   0  0  0  0  0  0  0  0  0  0  0  0
   40.1470   35.1920   41.1780 N   0  0  0  0  0  0  0  0  0  0  0  0
   40.3770   33.9160   41.5100 C   0  0  0  0  0  0  0  0  0  0  0  0
   44.0064   33.1174   42.7488 H   0  0  0  0  0  0  0  0  0  0  0  0
   46.9487   31.7483   45.0535 H   0  0  0  0  0  0  0  0  0  0  0  0
   44.1721   35.0368   47.3819 H   0  0  0  0  0  0  0  0  0  0  0  0
   38.7810   33.0749   42.6027 H   0  0  0  0  0  0  0  0  0  0  0  0
   40.1538   30.8682   42.6883 H   0  0  0  0  0  0  0  0  0  0  0  0
   40.8517   36.9325   40.2168 H   0  0  0  0  0  0  0  0  0  0  0  0
  1  2  2  0
  2  3  1  0
  3  7  1  0
  4  3  2  0
  5  4  1  0
  6  1  1  0
  6  5  2  0
  7  8  2  0
  7 11  1  0
  8  9  1  0
 10  9  1  0
 11 10  2  0
 12 14  1  0
 12  5  1  0
 12 15  1  0
 13 12  1  0
 16 21  1  0
 16  1  1  0
 17 18  1  0
 19 18  2  0
 20 25  2  0
 20 19  1  0
 21 20  1  0
 22 21  2  0
 22 23  1  0
 23 24  2  0
 24 25  1  0
 25 17  1  0
  2 26  1  0
  8 27  1  0
 10 28  1  0
 17 29  1  0
 18 30  1  0
 23 31  1  0
M  ISO  6  26  14  27  14  28  14  29   9  30  14  31  14
M  END
>  <minimizedAffinity>  (1) 
-6.4889183

>  <minimizedRMSD>  (1) 
0.596400917

$$$$
