
     RDKit          3D

 28 30  0  0  0  0  0  0  0  0999 V2000
   43.9810   33.4580   39.9140 S   0  0  0  0  0  0  0  0  0  0  0  0
   39.6240   32.9390   42.1630 N   0  0  0  0  0  0  0  0  0  0  0  0
   40.3890   31.8310   42.2740 C   0  0  0  0  0  0  0  0  0  0  0  0
   41.5370   32.1100   41.6220 N   0  0  0  0  0  0  0  0  0  0  0  0
   41.4560   33.3420   41.1390 C   0  0  0  0  0  0  0  0  0  0  0  0
   42.3650   34.0530   40.4150 C   0  0  0  0  0  0  0  0  0  0  0  0
   42.1040   35.3210   40.0000 N   0  0  0  0  0  0  0  0  0  0  0  0
   40.8950   35.8290   40.3500 C   0  0  0  0  0  0  0  0  0  0  0  0
   39.9890   35.1360   41.0640 N   0  0  0  0  0  0  0  0  0  0  0  0
   40.2550   33.8910   41.4680 C   0  0  0  0  0  0  0  0  0  0  0  0
   45.1590   34.0230   41.1860 C   0  0  0  0  0  0  0  0  0  0  0  0
   44.7560   34.0200   42.5310 C   0  0  0  0  0  0  0  0  0  0  0  0
   45.7140   34.4680   43.4400 C   0  0  0  0  0  0  0  0  0  0  0  0
   46.9290   34.8590   42.9810 N   0  0  0  0  0  0  0  0  0  0  0  0
   47.2760   34.8460   41.6840 C   0  0  0  0  0  0  0  0  0  0  0  0
   46.3830   34.4250   40.7840 N   0  0  0  0  0  0  0  0  0  0  0  0
   48.6130   35.2850   41.2470 C   0  0  0  0  0  0  0  0  0  0  0  0
   48.6110   35.4070   39.8540 F   0  0  0  0  0  0  0  0  0  0  0  0
   49.5510   34.3120   41.5570 F   0  0  0  0  0  0  0  0  0  0  0  0
   49.0320   36.4590   41.8530 F   0  0  0  0  0  0  0  0  0  0  0  0
   45.3450   34.4880   44.8800 C   0  0  0  0  0  0  0  0  0  0  0  0
   38.6792   33.0373   42.5613 H   0  0  0  0  0  0  0  0  0  0  0  0
   40.1296   30.8946   42.7895 H   0  0  0  0  0  0  0  0  0  0  0  0
   40.6446   36.8530   40.0359 H   0  0  0  0  0  0  0  0  0  0  0  0
   43.7556   33.6878   42.8454 H   0  0  0  0  0  0  0  0  0  0  0  0
   46.2571   34.4386   45.4929 H   0  0  0  0  0  0  0  0  0  0  0  0
   44.8011   35.4169   45.1063 H   0  0  0  0  0  0  0  0  0  0  0  0
   44.7038   33.6233   45.1063 H   0  0  0  0  0  0  0  0  0  0  0  0
  1  6  1  0
  1 11  1  0
  2  3  1  0
  4  3  2  0
  5 10  2  0
  5  4  1  0
  6  5  1  0
  7  8  1  0
  7  6  2  0
  8  9  2  0
  9 10  1  0
 10  2  1  0
 11 12  2  0
 12 13  1  0
 13 21  1  0
 14 13  2  0
 15 14  1  0
 16 11  1  0
 16 15  2  0
 17 19  1  0
 17 15  1  0
 17 20  1  0
 18 17  1  0
  2 22  1  0
  3 23  1  0
  8 24  1  0
 12 25  1  0
 21 26  1  0
 21 27  1  0
 21 28  1  0
M  ISO  7  22   9  23  14  24  14  25  14  26   8  27   8  28   8
M  END
>  <minimizedAffinity>  (1) 
-6.25928593

>  <minimizedRMSD>  (1) 
0.0753798187

$$$$
