
     RDKit          3D

 27 29  0  0  0  0  0  0  0  0999 V2000
   45.1600   34.0170   41.1710 C   0  0  0  0  0  0  0  0  0  0  0  0
   44.7590   34.0080   42.5270 C   0  0  0  0  0  0  0  0  0  0  0  0
   45.7200   34.4540   43.4400 C   0  0  0  0  0  0  0  0  0  0  0  0
   46.9350   34.8540   42.9800 N   0  0  0  0  0  0  0  0  0  0  0  0
   47.2710   34.8450   41.6810 C   0  0  0  0  0  0  0  0  0  0  0  0
   46.3810   34.4270   40.7920 N   0  0  0  0  0  0  0  0  0  0  0  0
   45.4380   34.4930   44.8350 N   0  0  0  0  0  0  0  0  0  0  0  0
   48.6090   35.2920   41.2430 C   0  0  0  0  0  0  0  0  0  0  0  0
   48.6160   35.4130   39.8610 F   0  0  0  0  0  0  0  0  0  0  0  0
   49.5520   34.3230   41.5560 F   0  0  0  0  0  0  0  0  0  0  0  0
   49.0350   36.4580   41.8630 F   0  0  0  0  0  0  0  0  0  0  0  0
   43.9850   33.4560   39.9180 S   0  0  0  0  0  0  0  0  0  0  0  0
   39.6200   32.9560   42.1580 N   0  0  0  0  0  0  0  0  0  0  0  0
   40.3730   31.8480   42.2700 C   0  0  0  0  0  0  0  0  0  0  0  0
   41.5340   32.1100   41.6200 N   0  0  0  0  0  0  0  0  0  0  0  0
   41.4570   33.3430   41.1410 C   0  0  0  0  0  0  0  0  0  0  0  0
   42.3690   34.0570   40.4180 C   0  0  0  0  0  0  0  0  0  0  0  0
   42.1120   35.3180   40.0120 N   0  0  0  0  0  0  0  0  0  0  0  0
   40.9090   35.8420   40.3520 C   0  0  0  0  0  0  0  0  0  0  0  0
   39.9950   35.1530   41.0660 N   0  0  0  0  0  0  0  0  0  0  0  0
   40.2570   33.9050   41.4650 C   0  0  0  0  0  0  0  0  0  0  0  0
   43.7597   33.6732   42.8421 H   0  0  0  0  0  0  0  0  0  0  0  0
   46.1551   34.8237   45.4963 H   0  0  0  0  0  0  0  0  0  0  0  0
   44.5169   34.1905   45.1829 H   0  0  0  0  0  0  0  0  0  0  0  0
   38.6751   33.0601   42.5546 H   0  0  0  0  0  0  0  0  0  0  0  0
   40.1016   30.9151   42.7859 H   0  0  0  0  0  0  0  0  0  0  0  0
   40.6691   36.8673   40.0339 H   0  0  0  0  0  0  0  0  0  0  0  0
  1  2  2  0
  2  3  1  0
  3  7  1  0
  4  3  2  0
  5  4  1  0
  6  1  1  0
  6  5  2  0
  8 10  1  0
  8  5  1  0
  8 11  1  0
  9  8  1  0
 12 17  1  0
 12  1  1  0
 13 14  1  0
 15 14  2  0
 16 21  2  0
 16 15  1  0
 17 16  1  0
 18 19  1  0
 18 17  2  0
 19 20  2  0
 20 21  1  0
 21 13  1  0
  2 22  1  0
  7 23  1  0
  7 24  1  0
 13 25  1  0
 14 26  1  0
 19 27  1  0
M  ISO  4  22  14  25   9  26  14  27  14
M  END
>  <minimizedAffinity>  (1) 
-6.19717216

>  <minimizedRMSD>  (1) 
0.0702171996

$$$$
