
     RDKit          3D

 48 50  0  0  1  0  0  0  0  0999 V2000
   48.1180   32.4880   43.7920 C   0  0  0  0  0  0  0  0  0  0  0  0
   47.1920   33.1430   42.9680 C   0  0  0  0  0  0  0  0  0  0  0  0
   45.8350   32.9460   43.1410 C   0  0  0  0  0  0  0  0  0  0  0  0
   45.4930   32.0990   44.1370 N   0  0  0  0  0  0  0  0  0  0  0  0
   46.3410   31.4690   44.9270 C   0  0  0  0  0  0  0  0  0  0  0  0
   47.6390   31.6680   44.7490 N   0  0  0  0  0  0  0  0  0  0  0  0
   45.8590   30.6170   45.9280 N   0  0  0  0  0  0  0  0  0  0  0  0
   44.5080   30.1120   45.9780 C   0  0  0  0  0  0  0  0  0  0  0  0
   44.5700   28.5970   45.7530 C   0  0  0  0  0  0  0  0  0  0  0  0
   45.6880   28.0690   46.3770 O   0  0  0  0  0  0  0  0  0  0  0  0
   46.0840   28.7880   47.4690 C   0  0  0  0  0  0  0  0  0  0  0  0
   46.6340   30.1400   47.0180 C   0  0  2  0  0  0  0  0  0  0  0  0
   44.7810   33.6080   42.2980 C   0  0  0  0  0  0  0  0  0  0  0  0
   44.4000   34.8740   42.5120 C   0  0  0  0  0  0  0  0  0  0  0  0
   43.1290   35.1210   41.2190 S   0  0  0  0  0  0  0  0  0  0  0  0
   43.3630   33.3590   40.5900 C   0  0  0  0  0  0  0  0  0  0  0  0
   44.1860   32.9910   41.3230 N   0  0  0  0  0  0  0  0  0  0  0  0
   42.5370   32.9750   39.4750 N   0  0  0  0  0  0  0  0  0  0  0  0
   42.0750   33.8600   38.5020 C   0  0  0  0  0  0  0  0  0  0  0  0
   42.7840   34.9490   38.3330 N   0  0  0  0  0  0  0  0  0  0  0  0
   40.8800   33.4540   37.8140 N   0  0  0  0  0  0  0  0  0  0  0  0
   42.4120   35.6060   37.6020 H   0  0  0  0  0  0  0  0  0  0  0  0
   46.7930   31.0770   48.1800 C   0  0  0  0  0  0  0  0  0  0  0  0
   45.7120   30.8790   49.2200 C   0  0  0  0  0  0  0  0  0  0  0  0
   46.6750   32.5200   47.7360 C   0  0  0  0  0  0  0  0  0  0  0  0
   48.1000   30.8700   48.9430 C   0  0  0  0  0  0  0  0  0  0  0  0
   49.1999   32.6382   43.6620 H   0  0  0  0  0  0  0  0  0  0  0  0
   47.5485   33.8194   42.1772 H   0  0  0  0  0  0  0  0  0  0  0  0
   44.0634   30.3272   46.9609 H   0  0  0  0  0  0  0  0  0  0  0  0
   43.8878   30.5917   45.2065 H   0  0  0  0  0  0  0  0  0  0  0  0
   43.6657   28.1298   46.1702 H   0  0  0  0  0  0  0  0  0  0  0  0
   44.6311   28.3954   44.6734 H   0  0  0  0  0  0  0  0  0  0  0  0
   45.2232   28.9464   48.1353 H   0  0  0  0  0  0  0  0  0  0  0  0
   46.8680   28.2348   48.0070 H   0  0  0  0  0  0  0  0  0  0  0  0
   47.6593   30.0437   46.6313 H   0  0  0  0  0  0  0  0  0  0  0  0
   44.7594   35.5841   43.2713 H   0  0  0  0  0  0  0  0  0  0  0  0
   42.2706   31.9836   39.3909 H   0  0  0  0  0  0  0  0  0  0  0  0
   40.4778   34.0559   37.0813 H   0  0  0  0  0  0  0  0  0  0  0  0
   40.4259   32.5611   38.0537 H   0  0  0  0  0  0  0  0  0  0  0  0
   46.1512   30.9594   50.2253 H   0  0  0  0  0  0  0  0  0  0  0  0
   44.9376   31.6503   49.0954 H   0  0  0  0  0  0  0  0  0  0  0  0
   45.2613   29.8834   49.0954 H   0  0  0  0  0  0  0  0  0  0  0  0
   46.6216   33.1724   48.6200 H   0  0  0  0  0  0  0  0  0  0  0  0
   47.5540   32.7911   47.1327 H   0  0  0  0  0  0  0  0  0  0  0  0
   45.7637   32.6447   47.1327 H   0  0  0  0  0  0  0  0  0  0  0  0
   47.9021   30.9013   50.0246 H   0  0  0  0  0  0  0  0  0  0  0  0
   48.5291   29.8927   48.6769 H   0  0  0  0  0  0  0  0  0  0  0  0
   48.8101   31.6669   48.6769 H   0  0  0  0  0  0  0  0  0  0  0  0
  1  6  2  0
  2  3  2  0
  2  1  1  0
  3  4  1  0
  4  5  2  0
  5  7  1  0
  6  5  1  0
  7  8  1  0
  7 12  1  0
  9  8  1  0
  9 10  1  0
 10 11  1  0
 12 11  1  0
 12 23  1  0
 13 14  2  0
 13  3  1  0
 15 14  1  0
 16 15  1  0
 16 17  2  0
 17 13  1  0
 18 16  1  0
 19 18  1  0
 20 19  2  0
 21 19  1  0
 22 20  1  0
 23 26  1  0
 23 24  1  0
 25 23  1  0
  1 27  1  0
  2 28  1  0
  8 29  1  0
  8 30  1  0
  9 31  1  0
  9 32  1  0
 11 33  1  0
 11 34  1  0
 12 35  1  6
 14 36  1  0
 18 37  1  0
 21 38  1  0
 21 39  1  0
 24 40  1  0
 24 41  1  0
 24 42  1  0
 25 43  1  0
 25 44  1  0
 25 45  1  0
 26 46  1  0
 26 47  1  0
 26 48  1  0
M  ISO  8  27  14  28  14  29  13  30  13  31  13  32  13  33  13  34  13
M  ISO  8  35  13  36  14  40   8  41   8  42   8  43   8  44   8  45   8
M  ISO  3  46   8  47   8  48   8
M  END
>  <minimizedAffinity>  (1) 
-4.94969606

>  <minimizedRMSD>  (1) 
2.01347542

$$$$
