
     RDKit          3D

 38 41  0  0  0  0  0  0  0  0999 V2000
   45.1960   33.9810   41.1940 C   0  0  0  0  0  0  0  0  0  0  0  0
   44.8110   33.9220   42.5480 C   0  0  0  0  0  0  0  0  0  0  0  0
   45.7810   34.3530   43.4710 C   0  0  0  0  0  0  0  0  0  0  0  0
   46.9740   34.7780   43.0080 N   0  0  0  0  0  0  0  0  0  0  0  0
   47.3020   34.8190   41.7050 C   0  0  0  0  0  0  0  0  0  0  0  0
   46.3930   34.4140   40.8190 N   0  0  0  0  0  0  0  0  0  0  0  0
   48.6150   35.2920   41.2550 C   0  0  0  0  0  0  0  0  0  0  0  0
   48.6170   35.4210   39.8730 F   0  0  0  0  0  0  0  0  0  0  0  0
   49.5870   34.3500   41.5800 F   0  0  0  0  0  0  0  0  0  0  0  0
   49.0320   36.4590   41.8940 F   0  0  0  0  0  0  0  0  0  0  0  0
   45.5060   34.3420   44.9140 C   0  0  0  0  0  0  0  0  0  0  0  0
   46.3250   33.2490   45.5860 C   0  0  0  0  0  0  0  0  0  0  0  0
   45.7860   32.8580   46.9150 C   0  0  0  0  0  0  0  0  0  0  0  0
   46.7890   32.2520   47.8920 C   0  0  0  0  0  0  0  0  0  0  0  0
   45.7920   31.3660   47.2030 C   0  0  0  0  0  0  0  0  0  0  0  0
   44.0010   33.4430   39.9490 S   0  0  0  0  0  0  0  0  0  0  0  0
   39.6080   32.9750   42.1550 N   0  0  0  0  0  0  0  0  0  0  0  0
   40.3540   31.8630   42.2530 C   0  0  0  0  0  0  0  0  0  0  0  0
   41.5210   32.1130   41.6170 N   0  0  0  0  0  0  0  0  0  0  0  0
   41.4480   33.3540   41.1580 C   0  0  0  0  0  0  0  0  0  0  0  0
   42.4040   34.0420   40.4460 C   0  0  0  0  0  0  0  0  0  0  0  0
   42.1690   35.3230   40.0450 N   0  0  0  0  0  0  0  0  0  0  0  0
   40.9650   35.8690   40.3820 C   0  0  0  0  0  0  0  0  0  0  0  0
   40.0380   35.1760   41.0830 N   0  0  0  0  0  0  0  0  0  0  0  0
   40.2730   33.9340   41.4680 C   0  0  0  0  0  0  0  0  0  0  0  0
   43.8196   33.5634   42.8619 H   0  0  0  0  0  0  0  0  0  0  0  0
   45.7757   35.3176   45.3447 H   0  0  0  0  0  0  0  0  0  0  0  0
   44.4359   34.1475   45.0786 H   0  0  0  0  0  0  0  0  0  0  0  0
   46.3297   32.3628   44.9344 H   0  0  0  0  0  0  0  0  0  0  0  0
   47.3388   33.6455   45.7441 H   0  0  0  0  0  0  0  0  0  0  0  0
   45.0430   33.6678   46.9616 H   0  0  0  0  0  0  0  0  0  0  0  0
   47.8537   32.1950   47.6214 H   0  0  0  0  0  0  0  0  0  0  0  0
   47.0644   32.4426   48.9398 H   0  0  0  0  0  0  0  0  0  0  0  0
   44.9696   30.9154   47.7781 H   0  0  0  0  0  0  0  0  0  0  0  0
   45.8602   30.4588   46.5847 H   0  0  0  0  0  0  0  0  0  0  0  0
   38.6619   33.0835   42.5476 H   0  0  0  0  0  0  0  0  0  0  0  0
   40.0699   30.9265   42.7552 H   0  0  0  0  0  0  0  0  0  0  0  0
   40.7416   36.9015   40.0753 H   0  0  0  0  0  0  0  0  0  0  0  0
  1  2  2  0
  2  3  1  0
  3 11  1  0
  4  3  2  0
  5  4  1  0
  6  1  1  0
  6  5  2  0
  7  9  1  0
  7  5  1  0
  7 10  1  0
  8  7  1  0
 11 12  1  0
 12 13  1  0
 13 15  1  0
 13 14  1  0
 15 14  1  0
 16 21  1  0
 16  1  1  0
 17 18  1  0
 19 18  2  0
 20 25  2  0
 20 19  1  0
 21 20  1  0
 22 23  1  0
 22 21  2  0
 23 24  2  0
 24 25  1  0
 25 17  1  0
  2 26  1  0
 11 27  1  0
 11 28  1  0
 12 29  1  0
 12 30  1  0
 13 31  1  0
 14 32  1  0
 14 33  1  0
 15 34  1  0
 15 35  1  0
 17 36  1  0
 18 37  1  0
 23 38  1  0
M  ISO  8  26  14  27   8  28   8  29   8  30   8  31  13  32  13  33  13
M  ISO  5  34  13  35  13  36   9  37  14  38  14
M  END
>  <minimizedAffinity>  (1) 
-6.54277039

>  <minimizedRMSD>  (1) 
1.50114536

$$$$
