
     RDKit          3D

 13 13  0  0  0  0  0  0  0  0999 V2000
   44.4920   36.0220   44.5070 C   0  0  0  0  0  0  0  0  0  0  0  0
   45.1420   35.9950   43.2630 C   0  0  0  0  0  0  0  0  0  0  0  0
   46.0710   34.9850   43.0160 C   0  0  0  0  0  0  0  0  0  0  0  0
   46.3060   34.0700   43.9890 N   0  0  0  0  0  0  0  0  0  0  0  0
   45.6580   34.1220   45.1860 C   0  0  0  0  0  0  0  0  0  0  0  0
   44.7630   35.0890   45.4350 N   0  0  0  0  0  0  0  0  0  0  0  0
   45.9880   33.0680   46.1900 C   0  0  0  0  0  0  0  0  0  0  0  0
   43.7569   36.8112   44.7231 H   0  0  0  0  0  0  0  0  0  0  0  0
   44.9229   36.7551   42.4987 H   0  0  0  0  0  0  0  0  0  0  0  0
   46.6013   34.9316   42.0537 H   0  0  0  0  0  0  0  0  0  0  0  0
   45.8606   33.4748   47.2040 H   0  0  0  0  0  0  0  0  0  0  0  0
   45.3162   32.2078   46.0529 H   0  0  0  0  0  0  0  0  0  0  0  0
   47.0304   32.7446   46.0529 H   0  0  0  0  0  0  0  0  0  0  0  0
  1  6  2  0
  2  1  1  0
  3  2  2  0
  3  4  1  0
  4  5  2  0
  5  6  1  0
  5  7  1  0
  1  8  1  0
  2  9  1  0
  3 10  1  0
  7 11  1  0
  7 12  1  0
  7 13  1  0
M  ISO  6   8  14   9  14  10  14  11   8  12   8  13   8
M  END
>  <minimizedAffinity>  (1) 
-3.00225329

>  <minimizedRMSD>  (1) 
0.483375251

$$$$
