
     RDKit          3D

 23 24  0  0  0  0  0  0  0  0999 V2000
   44.9260   34.4640   42.8190 C   0  0  0  0  0  0  0  0  0  0  0  0
   48.3180   35.4130   41.6730 C   0  0  0  0  0  0  0  0  0  0  0  0
   48.3810   34.7930   40.4260 C   0  0  0  0  0  0  0  0  0  0  0  0
   47.2790   34.0560   39.9740 C   0  0  0  0  0  0  0  0  0  0  0  0
   46.2020   33.9840   40.7790 N   0  0  0  0  0  0  0  0  0  0  0  0
   46.1630   34.6000   41.9970 C   0  0  0  0  0  0  0  0  0  0  0  0
   47.2250   35.3090   42.4310 N   0  0  0  0  0  0  0  0  0  0  0  0
   45.2410   33.9430   44.1510 N   0  0  0  0  0  0  0  0  0  0  0  0
   45.7620   32.7050   44.2430 C   0  0  0  0  0  0  0  0  0  0  0  0
   46.0980   32.1120   45.4480 C   0  0  0  0  0  0  0  0  0  0  0  0
   45.8910   32.8230   46.6180 C   0  0  0  0  0  0  0  0  0  0  0  0
   46.1870   32.3080   47.7340 O   0  0  0  0  0  0  0  0  0  0  0  0
   45.3610   34.0730   46.4910 N   0  0  0  0  0  0  0  0  0  0  0  0
   45.0510   34.6090   45.3010 C   0  0  0  0  0  0  0  0  0  0  0  0
   44.5610   35.7730   45.2260 O   0  0  0  0  0  0  0  0  0  0  0  0
   44.2331   33.7733   42.3162 H   0  0  0  0  0  0  0  0  0  0  0  0
   44.4649   35.4566   42.9288 H   0  0  0  0  0  0  0  0  0  0  0  0
   49.1786   35.9941   42.0359 H   0  0  0  0  0  0  0  0  0  0  0  0
   49.2846   34.8814   39.8050 H   0  0  0  0  0  0  0  0  0  0  0  0
   47.2929   33.5536   38.9956 H   0  0  0  0  0  0  0  0  0  0  0  0
   45.9288   32.1372   43.3158 H   0  0  0  0  0  0  0  0  0  0  0  0
   46.5207   31.0968   45.4754 H   0  0  0  0  0  0  0  0  0  0  0  0
   45.1920   34.6275   47.3424 H   0  0  0  0  0  0  0  0  0  0  0  0
  1  8  1  0
  2  7  2  0
  3  2  1  0
  4  3  2  0
  4  5  1  0
  5  6  2  0
  6  7  1  0
  6  1  1  0
  8  9  1  0
  8 14  1  0
  9 10  2  0
 10 11  1  0
 11 12  2  0
 13 11  1  0
 14 13  1  0
 15 14  2  0
  1 16  1  0
  1 17  1  0
  2 18  1  0
  3 19  1  0
  4 20  1  0
  9 21  1  0
 10 22  1  0
 13 23  1  0
M  ISO  8  16   8  17   8  18  14  19  14  20  14  21  14  22  14  23   9
M  END
>  <minimizedAffinity>  (1) 
-4.78324318

>  <minimizedRMSD>  (1) 
3.85494494

$$$$
