
     RDKit          3D

 20 20  0  0  0  0  0  0  0  0999 V2000
   46.0120   32.9550   46.2320 C   0  0  0  0  0  0  0  0  0  0  0  0
   44.4650   35.9810   44.7390 C   0  0  0  0  0  0  0  0  0  0  0  0
   45.0600   36.0060   43.4760 C   0  0  0  0  0  0  0  0  0  0  0  0
   45.9670   35.0110   43.1480 C   0  0  0  0  0  0  0  0  0  0  0  0
   46.2340   34.0600   44.0680 N   0  0  0  0  0  0  0  0  0  0  0  0
   45.6350   34.0580   45.3000 C   0  0  0  0  0  0  0  0  0  0  0  0
   44.7640   35.0170   45.6140 N   0  0  0  0  0  0  0  0  0  0  0  0
   45.2280   33.0120   47.4670 N   0  0  0  0  0  0  0  0  0  0  0  0
   44.9900   31.7450   48.1110 C   0  0  0  0  0  0  0  0  0  0  0  0
   44.8610   30.7040   47.3240 N   0  0  0  0  0  0  0  0  0  0  0  0
   44.9050   31.6560   49.5490 N   0  0  0  0  0  0  0  0  0  0  0  0
   44.6890   29.8010   47.8180 H   0  0  0  0  0  0  0  0  0  0  0  0
   47.0797   33.0450   46.4807 H   0  0  0  0  0  0  0  0  0  0  0  0
   45.8083   31.9951   45.7350 H   0  0  0  0  0  0  0  0  0  0  0  0
   43.7428   36.7630   45.0162 H   0  0  0  0  0  0  0  0  0  0  0  0
   44.8136   36.7999   42.7556 H   0  0  0  0  0  0  0  0  0  0  0  0
   46.4568   34.9965   42.1632 H   0  0  0  0  0  0  0  0  0  0  0  0
   44.8703   33.8987   47.8501 H   0  0  0  0  0  0  0  0  0  0  0  0
   44.7346   30.7455   49.9995 H   0  0  0  0  0  0  0  0  0  0  0  0
   45.0148   32.5029   50.1248 H   0  0  0  0  0  0  0  0  0  0  0  0
  1  8  1  0
  2  7  2  0
  3  2  1  0
  4  3  2  0
  4  5  1  0
  5  6  2  0
  6  7  1  0
  6  1  1  0
  8  9  1  0
  9 11  1  0
 10 12  1  0
 10  9  2  0
  1 13  1  0
  1 14  1  0
  2 15  1  0
  3 16  1  0
  4 17  1  0
  8 18  1  0
 11 19  1  0
 11 20  1  0
M  ISO  5  13   8  14   8  15  14  16  14  17  14
M  END
>  <minimizedAffinity>  (1) 
-4.67522764

>  <minimizedRMSD>  (1) 
2.35608792

$$$$
