
     RDKit          3D

 23 24  0  0  0  0  0  0  0  0999 V2000
   46.9550   32.4370   45.6650 C   0  0  0  0  0  0  0  0  0  0  0  0
   44.5660   35.2710   45.5050 C   0  0  0  0  0  0  0  0  0  0  0  0
   44.7650   35.7420   44.2020 C   0  0  0  0  0  0  0  0  0  0  0  0
   45.7070   35.0900   43.3970 C   0  0  0  0  0  0  0  0  0  0  0  0
   46.3730   34.0420   43.9210 N   0  0  0  0  0  0  0  0  0  0  0  0
   46.1590   33.6110   45.1860 C   0  0  0  0  0  0  0  0  0  0  0  0
   45.2600   34.2210   45.9760 N   0  0  0  0  0  0  0  0  0  0  0  0
   46.3220   31.8880   46.8900 C   0  0  0  0  0  0  0  0  0  0  0  0
   46.4250   32.4410   48.1380 C   0  0  0  0  0  0  0  0  0  0  0  0
   45.8290   31.9140   49.2650 C   0  0  0  0  0  0  0  0  0  0  0  0
   45.0820   30.7470   49.0880 C   0  0  0  0  0  0  0  0  0  0  0  0
   44.9210   30.1110   47.8530 C   0  0  0  0  0  0  0  0  0  0  0  0
   45.5660   30.7360   46.8070 C   0  0  0  0  0  0  0  0  0  0  0  0
   47.9824   32.7570   45.8931 H   0  0  0  0  0  0  0  0  0  0  0  0
   46.9815   31.6636   44.8832 H   0  0  0  0  0  0  0  0  0  0  0  0
   43.8299   35.7682   46.1538 H   0  0  0  0  0  0  0  0  0  0  0  0
   44.1959   36.6024   43.8202 H   0  0  0  0  0  0  0  0  0  0  0  0
   45.8980   35.4236   42.3664 H   0  0  0  0  0  0  0  0  0  0  0  0
   47.0185   33.3605   48.2488 H   0  0  0  0  0  0  0  0  0  0  0  0
   45.9364   32.3881   50.2517 H   0  0  0  0  0  0  0  0  0  0  0  0
   44.5936   30.3039   49.9684 H   0  0  0  0  0  0  0  0  0  0  0  0
   44.3307   29.1914   47.7270 H   0  0  0  0  0  0  0  0  0  0  0  0
   45.4692   30.2735   45.8136 H   0  0  0  0  0  0  0  0  0  0  0  0
  1  8  1  0
  2  7  2  0
  3  2  1  0
  4  5  1  0
  4  3  2  0
  5  6  2  0
  6  1  1  0
  6  7  1  0
  8  9  2  0
  9 10  1  0
 11 10  2  0
 12 11  1  0
 13  8  1  0
 13 12  2  0
  1 14  1  0
  1 15  1  0
  2 16  1  0
  3 17  1  0
  4 18  1  0
  9 19  1  0
 10 20  1  0
 11 21  1  0
 12 22  1  0
 13 23  1  0
M  ISO  8  14   8  15   8  16  14  17  14  18  14  19  14  20  14  21  14
M  ISO  2  22  14  23  14
M  END
>  <minimizedAffinity>  (1) 
-4.58804798

>  <minimizedRMSD>  (1) 
2.25326061

$$$$
