
     RDKit          3D

 27 28  0  0  0  0  0  0  0  0999 V2000
   46.5180   32.8430   46.2380 C   0  0  0  0  0  0  0  0  0  0  0  0
   44.5380   35.6270   44.8110 C   0  0  0  0  0  0  0  0  0  0  0  0
   45.0930   35.7250   43.5110 C   0  0  0  0  0  0  0  0  0  0  0  0
   46.1110   34.8550   43.1600 C   0  0  0  0  0  0  0  0  0  0  0  0
   46.5420   33.9400   44.0680 N   0  0  0  0  0  0  0  0  0  0  0  0
   45.9820   33.8690   45.3230 C   0  0  0  0  0  0  0  0  0  0  0  0
   45.0020   34.7080   45.6640 N   0  0  0  0  0  0  0  0  0  0  0  0
   45.5790   32.2550   47.1280 N   0  0  0  0  0  0  0  0  0  0  0  0
   45.7860   32.4550   48.5190 C   0  0  0  0  0  0  0  0  0  0  0  0
   46.8280   31.4800   49.0150 C   0  0  0  0  0  0  0  0  0  0  0  0
   46.1800   30.1950   49.1720 N   0  0  0  0  0  0  0  0  0  0  0  0
   45.2330   30.0310   48.1060 C   0  0  0  0  0  0  0  0  0  0  0  0
   45.5900   30.8240   46.8720 C   0  0  0  0  0  0  0  0  0  0  0  0
   47.3089   33.3106   46.8429 H   0  0  0  0  0  0  0  0  0  0  0  0
   46.8714   32.0243   45.5939 H   0  0  0  0  0  0  0  0  0  0  0  0
   43.7278   36.3050   45.1175 H   0  0  0  0  0  0  0  0  0  0  0  0
   44.7233   36.4755   42.7968 H   0  0  0  0  0  0  0  0  0  0  0  0
   46.5652   34.9036   42.1593 H   0  0  0  0  0  0  0  0  0  0  0  0
   46.1328   33.4840   48.6945 H   0  0  0  0  0  0  0  0  0  0  0  0
   44.8418   32.2909   49.0590 H   0  0  0  0  0  0  0  0  0  0  0  0
   47.6468   31.4012   48.2847 H   0  0  0  0  0  0  0  0  0  0  0  0
   47.2531   31.8195   49.9710 H   0  0  0  0  0  0  0  0  0  0  0  0
   46.8833   29.4436   49.1310 H   0  0  0  0  0  0  0  0  0  0  0  0
   45.1891   28.9653   47.8371 H   0  0  0  0  0  0  0  0  0  0  0  0
   44.2633   30.4039   48.4674 H   0  0  0  0  0  0  0  0  0  0  0  0
   44.8604   30.5983   46.0803 H   0  0  0  0  0  0  0  0  0  0  0  0
   46.6072   30.5394   46.5651 H   0  0  0  0  0  0  0  0  0  0  0  0
  1  8  1  0
  2  7  2  0
  3  2  1  0
  4  3  2  0
  4  5  1  0
  5  6  2  0
  6  7  1  0
  6  1  1  0
  8  9  1  0
  9 10  1  0
 10 11  1  0
 12 11  1  0
 13  8  1  0
 13 12  1  0
  1 14  1  0
  1 15  1  0
  2 16  1  0
  3 17  1  0
  4 18  1  0
  9 19  1  0
  9 20  1  0
 10 21  1  0
 10 22  1  0
 11 23  1  0
 12 24  1  0
 12 25  1  0
 13 26  1  0
 13 27  1  0
M  ISO  8  14   8  15   8  16  14  17  14  18  14  19  13  20  13  21  13
M  ISO  6  22  13  23   5  24  13  25  13  26  13  27  13
M  END
>  <minimizedAffinity>  (1) 
-4.46491766

>  <minimizedRMSD>  (1) 
2.08506942

$$$$
