
     RDKit          3D

 26 27  0  0  0  0  0  0  0  0999 V2000
   44.5420   35.5450   44.9970 C   0  0  0  0  0  0  0  0  0  0  0  0
   44.9300   35.8900   43.6990 C   0  0  0  0  0  0  0  0  0  0  0  0
   45.9270   35.1320   43.1000 C   0  0  0  0  0  0  0  0  0  0  0  0
   46.4830   34.0980   43.7820 N   0  0  0  0  0  0  0  0  0  0  0  0
   46.0780   33.7920   45.0450 C   0  0  0  0  0  0  0  0  0  0  0  0
   45.1170   34.5070   45.6500 N   0  0  0  0  0  0  0  0  0  0  0  0
   46.7260   32.6510   45.7340 C   0  0  0  0  0  0  0  0  0  0  0  0
   45.9590   32.1670   46.8620 N   0  0  0  0  0  0  0  0  0  0  0  0
   45.7790   30.7130   46.7510 C   0  0  0  0  0  0  0  0  0  0  0  0
   44.9530   30.1860   47.8670 C   0  0  0  0  0  0  0  0  0  0  0  0
   44.9190   30.9160   49.0110 O   0  0  0  0  0  0  0  0  0  0  0  0
   45.7890   31.9220   49.2130 C   0  0  0  0  0  0  0  0  0  0  0  0
   46.6890   32.3190   48.1060 C   0  0  0  0  0  0  0  0  0  0  0  0
   43.7547   36.1277   45.4976 H   0  0  0  0  0  0  0  0  0  0  0  0
   44.4614   36.7332   43.1704 H   0  0  0  0  0  0  0  0  0  0  0  0
   46.2642   35.3675   42.0798 H   0  0  0  0  0  0  0  0  0  0  0  0
   46.8480   31.8289   45.0134 H   0  0  0  0  0  0  0  0  0  0  0  0
   47.6941   33.0037   46.1191 H   0  0  0  0  0  0  0  0  0  0  0  0
   45.2804   30.4852   45.7973 H   0  0  0  0  0  0  0  0  0  0  0  0
   46.7690   30.2357   46.7956 H   0  0  0  0  0  0  0  0  0  0  0  0
   43.9197   30.0965   47.5005 H   0  0  0  0  0  0  0  0  0  0  0  0
   45.4308   29.2365   48.1501 H   0  0  0  0  0  0  0  0  0  0  0  0
   45.1993   32.8099   49.4847 H   0  0  0  0  0  0  0  0  0  0  0  0
   46.4706   31.5338   49.9842 H   0  0  0  0  0  0  0  0  0  0  0  0
   47.5794   31.6731   48.0982 H   0  0  0  0  0  0  0  0  0  0  0  0
   47.0165   33.3614   48.2333 H   0  0  0  0  0  0  0  0  0  0  0  0
  1  6  2  0
  2  1  1  0
  3  2  2  0
  3  4  1  0
  4  5  2  0
  5  6  1  0
  5  7  1  0
  7  8  1  0
  8 13  1  0
  9  8  1  0
  9 10  1  0
 10 11  1  0
 11 12  1  0
 13 12  1  0
  1 14  1  0
  2 15  1  0
  3 16  1  0
  7 17  1  0
  7 18  1  0
  9 19  1  0
  9 20  1  0
 10 21  1  0
 10 22  1  0
 12 23  1  0
 12 24  1  0
 13 25  1  0
 13 26  1  0
M  ISO  8  14  14  15  14  16  14  17   8  18   8  19  13  20  13  21  13
M  ISO  5  22  13  23  13  24  13  25  13  26  13
M  END
>  <minimizedAffinity>  (1) 
-4.31488323

>  <minimizedRMSD>  (1) 
2.51996493

$$$$
