
     RDKit          3D

 20 21  0  0  0  0  0  0  0  0999 V2000
   44.5560   35.7420   44.8750 C   0  0  0  0  0  0  0  0  0  0  0  0
   44.9840   36.1650   43.6040 C   0  0  0  0  0  0  0  0  0  0  0  0
   45.9030   35.3980   42.9010 C   0  0  0  0  0  0  0  0  0  0  0  0
   46.3460   34.2650   43.4830 N   0  0  0  0  0  0  0  0  0  0  0  0
   45.9290   33.8640   44.7090 C   0  0  0  0  0  0  0  0  0  0  0  0
   45.0420   34.6070   45.3870 N   0  0  0  0  0  0  0  0  0  0  0  0
   46.4870   32.6000   45.2470 C   0  0  0  0  0  0  0  0  0  0  0  0
   46.2960   32.4160   46.6860 C   0  0  0  0  0  0  0  0  0  0  0  0
   47.3990   32.0950   47.4640 C   0  0  0  0  0  0  0  0  0  0  0  0
   46.9790   31.9730   48.7860 C   0  0  0  0  0  0  0  0  0  0  0  0
   45.6070   32.2360   48.7200 C   0  0  0  0  0  0  0  0  0  0  0  0
   45.2760   32.4830   47.4920 O   0  0  0  0  0  0  0  0  0  0  0  0
   43.8278   36.3398   45.4427 H   0  0  0  0  0  0  0  0  0  0  0  0
   44.5933   37.0971   43.1699 H   0  0  0  0  0  0  0  0  0  0  0  0
   46.2570   35.7033   41.9053 H   0  0  0  0  0  0  0  0  0  0  0  0
   46.0021   31.7613   44.7261 H   0  0  0  0  0  0  0  0  0  0  0  0
   47.5732   32.6410   45.0785 H   0  0  0  0  0  0  0  0  0  0  0  0
   48.4280   31.9601   47.0993 H   0  0  0  0  0  0  0  0  0  0  0  0
   47.5830   31.7279   49.6720 H   0  0  0  0  0  0  0  0  0  0  0  0
   44.9169   32.2335   49.5766 H   0  0  0  0  0  0  0  0  0  0  0  0
  1  6  2  0
  2  1  1  0
  3  4  1  0
  3  2  2  0
  4  5  2  0
  5  7  1  0
  5  6  1  0
  7  8  1  0
  8  9  2  0
  8 12  1  0
  9 10  1  0
 11 10  2  0
 12 11  1  0
  1 13  1  0
  2 14  1  0
  3 15  1  0
  7 16  1  0
  7 17  1  0
  9 18  1  0
 10 19  1  0
 11 20  1  0
M  ISO  8  13  14  14  14  15  14  16   8  17   8  18  14  19  14  20  14
M  END
>  <minimizedAffinity>  (1) 
-4.1200099

>  <minimizedRMSD>  (1) 
1.64321613

$$$$
