
     RDKit          3D

 20 21  0  0  0  0  0  0  0  0999 V2000
   44.5870   35.3520   45.4370 C   0  0  0  0  0  0  0  0  0  0  0  0
   44.7410   35.9500   44.1790 C   0  0  0  0  0  0  0  0  0  0  0  0
   45.6350   35.3870   43.2790 C   0  0  0  0  0  0  0  0  0  0  0  0
   46.3330   34.2750   43.6390 N   0  0  0  0  0  0  0  0  0  0  0  0
   46.1530   33.7190   44.8780 C   0  0  0  0  0  0  0  0  0  0  0  0
   45.2920   34.2560   45.7600 N   0  0  0  0  0  0  0  0  0  0  0  0
   46.9510   32.5030   45.2050 C   0  0  0  0  0  0  0  0  0  0  0  0
   46.7020   32.1020   46.5790 N   0  0  0  0  0  0  0  0  0  0  0  0
   47.2470   32.5030   47.7440 C   0  0  0  0  0  0  0  0  0  0  0  0
   46.6320   31.7820   48.7610 C   0  0  0  0  0  0  0  0  0  0  0  0
   45.7170   30.9470   48.2030 N   0  0  0  0  0  0  0  0  0  0  0  0
   45.7670   31.1500   46.8630 C   0  0  0  0  0  0  0  0  0  0  0  0
   43.8839   35.7834   46.1646 H   0  0  0  0  0  0  0  0  0  0  0  0
   44.1648   36.8477   43.9102 H   0  0  0  0  0  0  0  0  0  0  0  0
   45.7782   35.8349   42.2846 H   0  0  0  0  0  0  0  0  0  0  0  0
   46.6627   31.6849   44.5285 H   0  0  0  0  0  0  0  0  0  0  0  0
   48.0206   32.7283   45.0820 H   0  0  0  0  0  0  0  0  0  0  0  0
   48.0340   33.2615   47.8677 H   0  0  0  0  0  0  0  0  0  0  0  0
   46.8494   31.8722   49.8355 H   0  0  0  0  0  0  0  0  0  0  0  0
   45.1483   30.6270   46.1189 H   0  0  0  0  0  0  0  0  0  0  0  0
  1  6  2  0
  2  1  1  0
  3  4  1  0
  3  2  2  0
  4  5  2  0
  5  7  1  0
  5  6  1  0
  7  8  1  0
  8 12  1  0
  8  9  1  0
  9 10  2  0
 11 10  1  0
 12 11  2  0
  1 13  1  0
  2 14  1  0
  3 15  1  0
  7 16  1  0
  7 17  1  0
  9 18  1  0
 10 19  1  0
 12 20  1  0
M  ISO  8  13  14  14  14  15  14  16   8  17   8  18  14  19  14  20  14
M  END
>  <minimizedAffinity>  (1) 
-3.83786035

>  <minimizedRMSD>  (1) 
2.00652432

$$$$
