
     RDKit          3D

 20 21  0  0  0  0  0  0  0  0999 V2000
   46.8060   31.9520   46.5810 C   0  0  0  0  0  0  0  0  0  0  0  0
   45.1850   28.9250   47.9730 C   0  0  0  0  0  0  0  0  0  0  0  0
   44.6320   28.3440   46.8320 C   0  0  0  0  0  0  0  0  0  0  0  0
   44.8120   28.9790   45.6080 C   0  0  0  0  0  0  0  0  0  0  0  0
   45.5150   30.1300   45.5820 N   0  0  0  0  0  0  0  0  0  0  0  0
   46.0480   30.6830   46.7110 C   0  0  0  0  0  0  0  0  0  0  0  0
   45.8800   30.0780   47.8920 N   0  0  0  0  0  0  0  0  0  0  0  0
   45.8790   33.1060   46.4720 C   0  0  0  0  0  0  0  0  0  0  0  0
   45.6730   34.0190   45.4570 C   0  0  0  0  0  0  0  0  0  0  0  0
   44.6760   34.9130   45.8680 C   0  0  0  0  0  0  0  0  0  0  0  0
   44.3080   34.5160   47.1140 N   0  0  0  0  0  0  0  0  0  0  0  0
   45.0140   33.4680   47.4520 N   0  0  0  0  0  0  0  0  0  0  0  0
   47.4447   32.0839   47.4669 H   0  0  0  0  0  0  0  0  0  0  0  0
   47.4221   31.9052   45.6709 H   0  0  0  0  0  0  0  0  0  0  0  0
   45.0528   28.4373   48.9501 H   0  0  0  0  0  0  0  0  0  0  0  0
   44.0655   27.4035   46.8989 H   0  0  0  0  0  0  0  0  0  0  0  0
   44.3919   28.5536   44.6847 H   0  0  0  0  0  0  0  0  0  0  0  0
   46.2007   34.0406   44.4921 H   0  0  0  0  0  0  0  0  0  0  0  0
   44.2732   35.7632   45.2980 H   0  0  0  0  0  0  0  0  0  0  0  0
   43.5894   34.9672   47.6980 H   0  0  0  0  0  0  0  0  0  0  0  0
  1  6  1  0
  3  2  2  0
  4  3  1  0
  5  4  2  0
  5  6  1  0
  6  7  2  0
  7  2  1  0
  8  1  1  0
  8 12  2  0
  9 10  2  0
  9  8  1  0
 10 11  1  0
 11 12  1  0
  1 13  1  0
  1 14  1  0
  2 15  1  0
  3 16  1  0
  4 17  1  0
  9 18  1  0
 10 19  1  0
 11 20  1  0
M  ISO  8  13   8  14   8  15  14  16  14  17  14  18  14  19  14  20   9
M  END
>  <minimizedAffinity>  (1) 
-3.72464037

>  <minimizedRMSD>  (1) 
5.06535435

$$$$
