
     RDKit          3D

 15 15  0  0  0  0  0  0  0  0999 V2000
   44.5310   36.0000   44.5470 C   0  0  0  0  0  0  0  0  0  0  0  0
   45.2140   35.9110   43.3350 C   0  0  0  0  0  0  0  0  0  0  0  0
   46.1180   34.8570   43.1370 C   0  0  0  0  0  0  0  0  0  0  0  0
   46.2810   33.9640   44.1530 N   0  0  0  0  0  0  0  0  0  0  0  0
   45.6000   34.0820   45.3200 C   0  0  0  0  0  0  0  0  0  0  0  0
   44.7300   35.0980   45.5090 N   0  0  0  0  0  0  0  0  0  0  0  0
   45.8470   33.0570   46.3710 C   0  0  0  0  0  0  0  0  0  0  0  0
   47.0550   33.2720   47.1120 N   0  0  0  0  0  0  0  0  0  0  0  0
   43.8202   36.8232   44.7117 H   0  0  0  0  0  0  0  0  0  0  0  0
   45.0462   36.6573   42.5445 H   0  0  0  0  0  0  0  0  0  0  0  0
   46.6758   34.7550   42.1944 H   0  0  0  0  0  0  0  0  0  0  0  0
   45.0012   33.0696   47.0742 H   0  0  0  0  0  0  0  0  0  0  0  0
   45.9518   32.0894   45.8585 H   0  0  0  0  0  0  0  0  0  0  0  0
   46.8501   33.2355   48.1208 H   0  0  0  0  0  0  0  0  0  0  0  0
   47.7388   32.5395   46.8739 H   0  0  0  0  0  0  0  0  0  0  0  0
  1  6  2  0
  2  1  1  0
  3  2  2  0
  3  4  1  0
  4  5  2  0
  5  6  1  0
  5  7  1  0
  7  8  1  0
  1  9  1  0
  2 10  1  0
  3 11  1  0
  7 12  1  0
  7 13  1  0
  8 14  1  0
  8 15  1  0
M  ISO  7   9  14  10  14  11  14  12   8  13   8  14   5  15   5
M  END
>  <minimizedAffinity>  (1) 
-3.60891294

>  <minimizedRMSD>  (1) 
0.158427581

$$$$
