
     RDKit          3D

 19 20  0  0  0  0  0  0  0  0999 V2000
   44.8200   34.9660   44.9530 C   0  0  0  0  0  0  0  0  0  0  0  0
   45.4680   34.9720   43.7210 C   0  0  0  0  0  0  0  0  0  0  0  0
   46.5960   34.1520   43.5550 C   0  0  0  0  0  0  0  0  0  0  0  0
   47.0000   33.3980   44.5970 N   0  0  0  0  0  0  0  0  0  0  0  0
   46.3480   33.4170   45.7860 C   0  0  0  0  0  0  0  0  0  0  0  0
   45.2720   34.1920   45.9590 N   0  0  0  0  0  0  0  0  0  0  0  0
   46.8670   32.5510   46.8820 C   0  0  0  0  0  0  0  0  0  0  0  0
   46.0740   31.3340   46.8320 N   0  0  0  0  0  0  0  0  0  0  0  0
   45.3150   30.9000   47.8560 C   0  0  0  0  0  0  0  0  0  0  0  0
   44.7070   29.7520   47.5020 N   0  0  0  0  0  0  0  0  0  0  0  0
   45.0870   29.4560   46.2350 C   0  0  0  0  0  0  0  0  0  0  0  0
   45.9220   30.4610   45.8840 N   0  0  0  0  0  0  0  0  0  0  0  0
   43.9326   35.5977   45.1063 H   0  0  0  0  0  0  0  0  0  0  0  0
   45.1052   35.6040   42.8970 H   0  0  0  0  0  0  0  0  0  0  0  0
   47.1370   34.1256   42.5976 H   0  0  0  0  0  0  0  0  0  0  0  0
   47.9306   32.3225   46.7190 H   0  0  0  0  0  0  0  0  0  0  0  0
   46.7891   33.0459   47.8613 H   0  0  0  0  0  0  0  0  0  0  0  0
   45.2085   31.4037   48.8281 H   0  0  0  0  0  0  0  0  0  0  0  0
   44.7838   28.5908   45.6271 H   0  0  0  0  0  0  0  0  0  0  0  0
  1  6  2  0
  2  1  1  0
  3  2  2  0
  3  4  1  0
  4  5  2  0
  5  6  1  0
  5  7  1  0
  8  7  1  0
  8  9  1  0
 10  9  2  0
 11 10  1  0
 12 11  2  0
 12  8  1  0
  1 13  1  0
  2 14  1  0
  3 15  1  0
  7 16  1  0
  7 17  1  0
  9 18  1  0
 11 19  1  0
M  ISO  7  13  14  14  14  15  14  16   8  17   8  18  14  19  14
M  END
>  <minimizedAffinity>  (1) 
-3.44361377

>  <minimizedRMSD>  (1) 
1.42759073

$$$$
