
     RDKit          3D

 20 21  0  0  0  0  0  0  0  0999 V2000
   46.1260   31.1370   45.5320 C   0  0  0  0  0  0  0  0  0  0  0  0
   45.5090   34.3620   43.8120 C   0  0  0  0  0  0  0  0  0  0  0  0
   46.7400   34.5870   43.1960 C   0  0  0  0  0  0  0  0  0  0  0  0
   47.7660   33.6450   43.3700 C   0  0  0  0  0  0  0  0  0  0  0  0
   47.5120   32.5500   44.1330 N   0  0  0  0  0  0  0  0  0  0  0  0
   46.2880   32.3750   44.7170 C   0  0  0  0  0  0  0  0  0  0  0  0
   45.3100   33.2660   44.5550 N   0  0  0  0  0  0  0  0  0  0  0  0
   45.9390   31.4460   46.9230 N   0  0  0  0  0  0  0  0  0  0  0  0
   45.0500   30.7730   47.6570 N   0  0  0  0  0  0  0  0  0  0  0  0
   45.0260   31.2060   48.9180 C   0  0  0  0  0  0  0  0  0  0  0  0
   45.9750   32.2310   48.9710 C   0  0  0  0  0  0  0  0  0  0  0  0
   46.5310   32.3650   47.7260 C   0  0  0  0  0  0  0  0  0  0  0  0
   47.0266   30.5152   45.4214 H   0  0  0  0  0  0  0  0  0  0  0  0
   45.2351   30.6005   45.1736 H   0  0  0  0  0  0  0  0  0  0  0  0
   44.6949   35.0910   43.6864 H   0  0  0  0  0  0  0  0  0  0  0  0
   46.9039   35.4867   42.5847 H   0  0  0  0  0  0  0  0  0  0  0  0
   48.7503   33.7897   42.9007 H   0  0  0  0  0  0  0  0  0  0  0  0
   44.3951   30.8362   49.7397 H   0  0  0  0  0  0  0  0  0  0  0  0
   46.2312   32.8272   49.8592 H   0  0  0  0  0  0  0  0  0  0  0  0
   47.3110   33.0830   47.4327 H   0  0  0  0  0  0  0  0  0  0  0  0
  1  8  1  0
  2  7  2  0
  3  4  2  0
  3  2  1  0
  4  5  1  0
  5  6  2  0
  6  1  1  0
  7  6  1  0
  8  9  1  0
  8 12  1  0
  9 10  2  0
 10 11  1  0
 12 11  2  0
  1 13  1  0
  1 14  1  0
  2 15  1  0
  3 16  1  0
  4 17  1  0
 10 18  1  0
 11 19  1  0
 12 20  1  0
M  ISO  8  13   8  14   8  15  14  16  14  17  14  18  14  19  14  20  14
M  END
>  <minimizedAffinity>  (1) 
-3.30453897

>  <minimizedRMSD>  (1) 
2.64054608

$$$$
