
     RDKit          3D

 14 14  0  0  0  0  0  0  0  0999 V2000
   44.5140   36.0170   44.5220 C   0  0  0  0  0  0  0  0  0  0  0  0
   45.2080   35.9050   43.2980 C   0  0  0  0  0  0  0  0  0  0  0  0
   46.1030   34.8550   43.1400 C   0  0  0  0  0  0  0  0  0  0  0  0
   46.2730   33.9880   44.1600 N   0  0  0  0  0  0  0  0  0  0  0  0
   45.5930   34.1120   45.3390 C   0  0  0  0  0  0  0  0  0  0  0  0
   44.7210   35.1250   45.5070 N   0  0  0  0  0  0  0  0  0  0  0  0
   45.8400   33.1120   46.4100 C   0  0  0  0  0  0  0  0  0  0  0  0
   46.6350   31.6190   45.7760 S   0  0  0  0  0  0  0  0  0  0  0  0
   43.7990   36.8395   44.6713 H   0  0  0  0  0  0  0  0  0  0  0  0
   45.0439   36.6319   42.4888 H   0  0  0  0  0  0  0  0  0  0  0  0
   46.6628   34.7323   42.2011 H   0  0  0  0  0  0  0  0  0  0  0  0
   46.4907   33.5634   47.1734 H   0  0  0  0  0  0  0  0  0  0  0  0
   44.8672   32.8233   46.8346 H   0  0  0  0  0  0  0  0  0  0  0  0
   47.0491   30.8414   46.8252 H   0  0  0  0  0  0  0  0  0  0  0  0
  1  6  2  0
  2  1  1  0
  3  2  2  0
  3  4  1  0
  4  5  2  0
  5  6  1  0
  5  7  1  0
  8  7  1  0
  1  9  1  0
  2 10  1  0
  3 11  1  0
  7 12  1  0
  7 13  1  0
  8 14  1  0
M  ISO  6   9  14  10  14  11  14  12   8  13   8  14  11
M  END
>  <minimizedAffinity>  (1) 
-3.02701545

>  <minimizedRMSD>  (1) 
0.636325359

$$$$
