
     RDKit          3D

 37 40  0  0  0  0  0  0  0  0999 V2000
   44.6630   35.2990   44.4800 C   0  0  0  0  0  0  0  0  0  0  0  0
   45.4010   35.4130   43.3040 C   0  0  0  0  0  0  0  0  0  0  0  0
   46.5720   34.6740   43.1660 C   0  0  0  0  0  0  0  0  0  0  0  0
   46.9520   33.8660   44.1840 N   0  0  0  0  0  0  0  0  0  0  0  0
   46.2160   33.7750   45.3180 C   0  0  0  0  0  0  0  0  0  0  0  0
   45.0800   34.4890   45.4590 N   0  0  0  0  0  0  0  0  0  0  0  0
   47.3050   34.8100   41.9530 N   0  0  0  0  0  0  0  0  0  0  0  0
   48.4050   35.5800   41.8430 C   0  0  0  0  0  0  0  0  0  0  0  0
   48.8900   35.5190   40.5820 N   0  0  0  0  0  0  0  0  0  0  0  0
   48.1180   34.7150   39.8680 C   0  0  0  0  0  0  0  0  0  0  0  0
   48.0480   34.2320   38.5620 C   0  0  0  0  0  0  0  0  0  0  0  0
   47.0840   33.3940   38.1640 N   0  0  0  0  0  0  0  0  0  0  0  0
   46.1380   32.9850   39.0310 C   0  0  0  0  0  0  0  0  0  0  0  0
   46.1590   33.4250   40.3140 N   0  0  0  0  0  0  0  0  0  0  0  0
   47.1190   34.2690   40.7330 C   0  0  0  0  0  0  0  0  0  0  0  0
   49.0960   34.7160   37.6990 N   0  0  0  0  0  0  0  0  0  0  0  0
   46.7220   32.8650   46.3660 C   0  0  0  0  0  0  0  0  0  0  0  0
   46.0590   31.5960   46.4090 N   0  0  0  0  0  0  0  0  0  0  0  0
   45.9790   30.7640   45.3420 C   0  0  0  0  0  0  0  0  0  0  0  0
   45.3220   29.5550   45.4590 C   0  0  0  0  0  0  0  0  0  0  0  0
   44.7260   29.1500   46.6640 C   0  0  0  0  0  0  0  0  0  0  0  0
   44.0950   27.8770   46.6020 N   0  0  0  0  0  0  0  0  0  0  0  0
   44.8060   29.9820   47.7310 N   0  0  0  0  0  0  0  0  0  0  0  0
   45.4710   31.1500   47.5250 C   0  0  0  0  0  0  0  0  0  0  0  0
   45.5310   31.9080   48.5400 O   0  0  0  0  0  0  0  0  0  0  0  0
   43.7351   35.8766   44.6036 H   0  0  0  0  0  0  0  0  0  0  0  0
   45.0628   36.0780   42.4957 H   0  0  0  0  0  0  0  0  0  0  0  0
   48.8444   36.1718   42.6595 H   0  0  0  0  0  0  0  0  0  0  0  0
   45.3487   32.2945   38.6989 H   0  0  0  0  0  0  0  0  0  0  0  0
   49.1315   34.4166   36.7141 H   0  0  0  0  0  0  0  0  0  0  0  0
   49.8094   35.3613   38.0671 H   0  0  0  0  0  0  0  0  0  0  0  0
   47.7925   32.6894   46.1836 H   0  0  0  0  0  0  0  0  0  0  0  0
   46.5303   33.3558   47.3316 H   0  0  0  0  0  0  0  0  0  0  0  0
   46.4369   31.0515   44.3840 H   0  0  0  0  0  0  0  0  0  0  0  0
   45.2640   28.8909   44.5840 H   0  0  0  0  0  0  0  0  0  0  0  0
   43.6290   27.4920   47.4360 H   0  0  0  0  0  0  0  0  0  0  0  0
   44.1040   27.3400   45.7231 H   0  0  0  0  0  0  0  0  0  0  0  0
  1  6  2  0
  2  1  1  0
  3  2  2  0
  3  4  1  0
  4  5  2  0
  5  6  1  0
  5 17  1  0
  7  3  1  0
  8  7  1  0
  9  8  2  0
 10  9  1  0
 10 15  2  0
 11 10  1  0
 12 11  2  0
 12 13  1  0
 13 14  2  0
 14 15  1  0
 15  7  1  0
 16 11  1  0
 17 18  1  0
 18 24  1  0
 19 20  2  0
 19 18  1  0
 20 21  1  0
 21 23  2  0
 22 21  1  0
 24 23  1  0
 24 25  2  0
  1 26  1  0
  2 27  1  0
  8 28  1  0
 13 29  1  0
 16 30  1  0
 16 31  1  0
 17 32  1  0
 17 33  1  0
 19 34  1  0
 20 35  1  0
 22 36  1  0
 22 37  1  0
M  ISO  8  26  14  27  14  28  14  29  14  32   8  33   8  34  14  35  14
M  END
>  <minimizedAffinity>  (1) 
-6.66388655

>  <minimizedRMSD>  (1) 
0.634582758

$$$$
