
     RDKit          3D

 33 35  0  0  0  0  0  0  0  0999 V2000
   46.6280   32.9140   46.6160 C   0  0  0  0  0  0  0  0  0  0  0  0
   46.0200   31.6200   46.6410 N   0  0  0  0  0  0  0  0  0  0  0  0
   45.9750   30.7950   45.5690 C   0  0  0  0  0  0  0  0  0  0  0  0
   45.3690   29.5560   45.6740 C   0  0  0  0  0  0  0  0  0  0  0  0
   44.7890   29.1210   46.8740 C   0  0  0  0  0  0  0  0  0  0  0  0
   44.2020   27.8190   46.8230 N   0  0  0  0  0  0  0  0  0  0  0  0
   44.8400   29.9570   47.9440 N   0  0  0  0  0  0  0  0  0  0  0  0
   45.4470   31.1490   47.7690 C   0  0  0  0  0  0  0  0  0  0  0  0
   45.4730   31.8930   48.7820 O   0  0  0  0  0  0  0  0  0  0  0  0
   44.5790   35.3960   44.7850 C   0  0  0  0  0  0  0  0  0  0  0  0
   45.2240   35.4050   43.5390 C   0  0  0  0  0  0  0  0  0  0  0  0
   46.3280   34.5790   43.3490 C   0  0  0  0  0  0  0  0  0  0  0  0
   46.7410   33.7980   44.3660 N   0  0  0  0  0  0  0  0  0  0  0  0
   46.0940   33.8120   45.5590 C   0  0  0  0  0  0  0  0  0  0  0  0
   45.0150   34.6060   45.7750 N   0  0  0  0  0  0  0  0  0  0  0  0
   46.9930   34.5960   42.0470 C   0  0  0  0  0  0  0  0  0  0  0  0
   48.1400   35.3450   41.8730 C   0  0  0  0  0  0  0  0  0  0  0  0
   48.6520   35.2650   40.5970 C   0  0  0  0  0  0  0  0  0  0  0  0
   48.1330   34.5340   39.5450 C   0  0  0  0  0  0  0  0  0  0  0  0
   46.9770   33.8150   39.8240 C   0  0  0  0  0  0  0  0  0  0  0  0
   46.4370   33.8630   41.0660 N   0  0  0  0  0  0  0  0  0  0  0  0
   46.4630   33.3927   47.5925 H   0  0  0  0  0  0  0  0  0  0  0  0
   47.6945   32.7605   46.3946 H   0  0  0  0  0  0  0  0  0  0  0  0
   46.4205   31.1099   44.6138 H   0  0  0  0  0  0  0  0  0  0  0  0
   45.3415   28.8959   44.7945 H   0  0  0  0  0  0  0  0  0  0  0  0
   43.7540   27.4229   47.6616 H   0  0  0  0  0  0  0  0  0  0  0  0
   44.2269   27.2768   45.9476 H   0  0  0  0  0  0  0  0  0  0  0  0
   43.7061   36.0445   44.9506 H   0  0  0  0  0  0  0  0  0  0  0  0
   44.8636   36.0533   42.7268 H   0  0  0  0  0  0  0  0  0  0  0  0
   48.5985   35.9450   42.6729 H   0  0  0  0  0  0  0  0  0  0  0  0
   49.5668   35.8413   40.3945 H   0  0  0  0  0  0  0  0  0  0  0  0
   48.6045   34.5221   38.5512 H   0  0  0  0  0  0  0  0  0  0  0  0
   46.5016   33.2086   39.0389 H   0  0  0  0  0  0  0  0  0  0  0  0
  1  2  1  0
  2  8  1  0
  3  4  2  0
  3  2  1  0
  4  5  1  0
  5  7  2  0
  6  5  1  0
  8  7  1  0
  8  9  2  0
 10 15  2  0
 11 10  1  0
 12 11  2  0
 12 13  1  0
 13 14  2  0
 14 15  1  0
 14  1  1  0
 16 12  1  0
 17 16  2  0
 18 17  1  0
 19 20  1  0
 19 18  2  0
 20 21  2  0
 21 16  1  0
  1 22  1  0
  1 23  1  0
  3 24  1  0
  4 25  1  0
  6 26  1  0
  6 27  1  0
 10 28  1  0
 11 29  1  0
 17 30  1  0
 18 31  1  0
 19 32  1  0
 20 33  1  0
M  ISO  8  22   8  23   8  24  14  25  14  28  14  29  14  30  14  31  14
M  ISO  2  32  14  33  14
M  END
>  <minimizedAffinity>  (1) 
-6.06957197

>  <minimizedRMSD>  (1) 
0.570435882

$$$$
