
     RDKit          3D

 37 39  0  0  0  0  0  0  0  0999 V2000
   46.7890   32.6030   47.0110 C   0  0  0  0  0  0  0  0  0  0  0  0
   46.1880   31.3110   47.0800 N   0  0  0  0  0  0  0  0  0  0  0  0
   46.1020   30.4800   46.0160 C   0  0  0  0  0  0  0  0  0  0  0  0
   45.5040   29.2340   46.1480 C   0  0  0  0  0  0  0  0  0  0  0  0
   44.9780   28.8090   47.3770 C   0  0  0  0  0  0  0  0  0  0  0  0
   44.3950   27.5060   47.3570 N   0  0  0  0  0  0  0  0  0  0  0  0
   45.0620   29.6460   48.4570 N   0  0  0  0  0  0  0  0  0  0  0  0
   45.6640   30.8430   48.2280 C   0  0  0  0  0  0  0  0  0  0  0  0
   45.7340   31.6030   49.2320 O   0  0  0  0  0  0  0  0  0  0  0  0
   44.7960   34.9340   44.9500 C   0  0  0  0  0  0  0  0  0  0  0  0
   45.5170   34.9380   43.7590 C   0  0  0  0  0  0  0  0  0  0  0  0
   46.6660   34.1580   43.6660 C   0  0  0  0  0  0  0  0  0  0  0  0
   47.0390   33.4190   44.7450 N   0  0  0  0  0  0  0  0  0  0  0  0
   46.3090   33.4420   45.8860 C   0  0  0  0  0  0  0  0  0  0  0  0
   45.1890   34.1930   45.9970 N   0  0  0  0  0  0  0  0  0  0  0  0
   47.5460   34.0500   42.4720 C   0  0  0  0  0  0  0  0  0  0  0  0
   47.5550   35.3300   41.6940 C   0  0  0  0  0  0  0  0  0  0  0  0
   48.9700   35.6040   41.2860 C   0  0  0  0  0  0  0  0  0  0  0  0
   49.7930   34.9500   42.3500 C   0  0  0  0  0  0  0  0  0  0  0  0
   48.9910   33.7950   42.9020 C   0  0  0  0  0  0  0  0  0  0  0  0
   46.5752   33.1327   47.9510 H   0  0  0  0  0  0  0  0  0  0  0  0
   47.8643   32.4409   46.8456 H   0  0  0  0  0  0  0  0  0  0  0  0
   46.5075   30.7927   45.0424 H   0  0  0  0  0  0  0  0  0  0  0  0
   45.4416   28.5688   45.2741 H   0  0  0  0  0  0  0  0  0  0  0  0
   43.9839   27.1125   48.2155 H   0  0  0  0  0  0  0  0  0  0  0  0
   44.3855   26.9594   46.4840 H   0  0  0  0  0  0  0  0  0  0  0  0
   43.8881   35.5493   45.0340 H   0  0  0  0  0  0  0  0  0  0  0  0
   45.1842   35.5474   42.9058 H   0  0  0  0  0  0  0  0  0  0  0  0
   47.1558   33.2243   41.8588 H   0  0  0  0  0  0  0  0  0  0  0  0
   46.9201   35.2304   40.8013 H   0  0  0  0  0  0  0  0  0  0  0  0
   47.1633   36.1559   42.3059 H   0  0  0  0  0  0  0  0  0  0  0  0
   49.1842   35.1632   40.3012 H   0  0  0  0  0  0  0  0  0  0  0  0
   49.1804   36.6797   41.1928 H   0  0  0  0  0  0  0  0  0  0  0  0
   50.7361   34.5807   41.9209 H   0  0  0  0  0  0  0  0  0  0  0  0
   50.0354   35.6681   43.1472 H   0  0  0  0  0  0  0  0  0  0  0  0
   49.0651   33.7666   43.9991 H   0  0  0  0  0  0  0  0  0  0  0  0
   49.3609   32.8290   42.5278 H   0  0  0  0  0  0  0  0  0  0  0  0
  1  2  1  0
  2  8  1  0
  3  4  2  0
  3  2  1  0
  4  5  1  0
  5  7  2  0
  6  5  1  0
  8  7  1  0
  8  9  2  0
 10 15  2  0
 11 10  1  0
 12 11  2  0
 12 13  1  0
 13 14  2  0
 14 15  1  0
 14  1  1  0
 16 20  1  0
 16 12  1  0
 17 16  1  0
 18 17  1  0
 18 19  1  0
 19 20  1  0
  1 21  1  0
  1 22  1  0
  3 23  1  0
  4 24  1  0
  6 25  1  0
  6 26  1  0
 10 27  1  0
 11 28  1  0
 16 29  1  0
 17 30  1  0
 17 31  1  0
 18 32  1  0
 18 33  1  0
 19 34  1  0
 19 35  1  0
 20 36  1  0
 20 37  1  0
M  ISO  8  21   8  22   8  23  14  24  14  27  14  28  14  29  13  30  13
M  ISO  7  31  13  32  13  33  13  34  13  35  13  36  13  37  13
M  END
>  <minimizedAffinity>  (1) 
-5.91728258

>  <minimizedRMSD>  (1) 
0.91311568

$$$$
