
     RDKit          3D

 30 32  0  0  0  0  0  0  0  0999 V2000
   46.6100   32.9560   46.5010 C   0  0  0  0  0  0  0  0  0  0  0  0
   45.9950   31.6720   46.5110 N   0  0  0  0  0  0  0  0  0  0  0  0
   45.9370   30.8540   45.4190 C   0  0  0  0  0  0  0  0  0  0  0  0
   45.3180   29.6130   45.5140 C   0  0  0  0  0  0  0  0  0  0  0  0
   44.7450   29.1690   46.7060 C   0  0  0  0  0  0  0  0  0  0  0  0
   44.1550   27.8790   46.6260 N   0  0  0  0  0  0  0  0  0  0  0  0
   44.8000   29.9790   47.7910 N   0  0  0  0  0  0  0  0  0  0  0  0
   45.4200   31.1710   47.6190 C   0  0  0  0  0  0  0  0  0  0  0  0
   45.4550   31.9030   48.6520 O   0  0  0  0  0  0  0  0  0  0  0  0
   44.5920   35.4560   44.6390 C   0  0  0  0  0  0  0  0  0  0  0  0
   45.2550   35.4690   43.4190 C   0  0  0  0  0  0  0  0  0  0  0  0
   46.3630   34.6450   43.2390 C   0  0  0  0  0  0  0  0  0  0  0  0
   46.7650   33.8530   44.2560 N   0  0  0  0  0  0  0  0  0  0  0  0
   46.0970   33.8590   45.4400 C   0  0  0  0  0  0  0  0  0  0  0  0
   45.0330   34.6520   45.6120 N   0  0  0  0  0  0  0  0  0  0  0  0
   47.0280   34.6760   41.9770 N   0  0  0  0  0  0  0  0  0  0  0  0
   46.9220   34.2160   40.7320 C   0  0  0  0  0  0  0  0  0  0  0  0
   47.9880   34.6880   40.0490 N   0  0  0  0  0  0  0  0  0  0  0  0
   48.7550   35.4330   40.8390 C   0  0  0  0  0  0  0  0  0  0  0  0
   48.1430   35.4190   42.0510 N   0  0  0  0  0  0  0  0  0  0  0  0
   46.4337   33.4324   47.4767 H   0  0  0  0  0  0  0  0  0  0  0  0
   47.6791   32.7971   46.2965 H   0  0  0  0  0  0  0  0  0  0  0  0
   46.3797   31.1768   44.4652 H   0  0  0  0  0  0  0  0  0  0  0  0
   45.2790   28.9643   44.6265 H   0  0  0  0  0  0  0  0  0  0  0  0
   43.7064   27.4655   47.4559 H   0  0  0  0  0  0  0  0  0  0  0  0
   44.1759   27.3573   45.7381 H   0  0  0  0  0  0  0  0  0  0  0  0
   43.7148   36.0992   44.8029 H   0  0  0  0  0  0  0  0  0  0  0  0
   44.9091   36.1224   42.6045 H   0  0  0  0  0  0  0  0  0  0  0  0
   46.1207   33.5750   40.3357 H   0  0  0  0  0  0  0  0  0  0  0  0
   49.6871   35.9506   40.5684 H   0  0  0  0  0  0  0  0  0  0  0  0
  1  2  1  0
  2  8  1  0
  3  4  2  0
  3  2  1  0
  4  5  1  0
  5  7  2  0
  6  5  1  0
  8  7  1  0
  8  9  2  0
 10 15  2  0
 11 10  1  0
 12 11  2  0
 12 13  1  0
 13 14  2  0
 14 15  1  0
 14  1  1  0
 16 20  1  0
 16 12  1  0
 17 16  1  0
 18 17  2  0
 18 19  1  0
 19 20  2  0
  1 21  1  0
  1 22  1  0
  3 23  1  0
  4 24  1  0
  6 25  1  0
  6 26  1  0
 10 27  1  0
 11 28  1  0
 17 29  1  0
 19 30  1  0
M  ISO  8  21   8  22   8  23  14  24  14  27  14  28  14  29  14  30  14
M  END
>  <minimizedAffinity>  (1) 
-5.47180557

>  <minimizedRMSD>  (1) 
0.304759592

$$$$
