
     RDKit          3D

 36 38  0  0  0  0  0  0  0  0999 V2000
   46.6660   32.7800   46.7390 C   0  0  0  0  0  0  0  0  0  0  0  0
   46.0580   31.4920   46.7570 N   0  0  0  0  0  0  0  0  0  0  0  0
   45.9430   30.6930   45.6610 C   0  0  0  0  0  0  0  0  0  0  0  0
   45.3420   29.4560   45.7490 C   0  0  0  0  0  0  0  0  0  0  0  0
   44.8340   28.9810   46.9620 C   0  0  0  0  0  0  0  0  0  0  0  0
   44.2380   27.6870   46.9130 N   0  0  0  0  0  0  0  0  0  0  0  0
   44.9420   29.7690   48.0690 N   0  0  0  0  0  0  0  0  0  0  0  0
   45.5480   30.9700   47.8860 C   0  0  0  0  0  0  0  0  0  0  0  0
   45.6370   31.6820   48.9270 O   0  0  0  0  0  0  0  0  0  0  0  0
   44.6610   35.2550   44.8510 C   0  0  0  0  0  0  0  0  0  0  0  0
   45.3180   35.2660   43.6250 C   0  0  0  0  0  0  0  0  0  0  0  0
   46.4220   34.4380   43.4670 C   0  0  0  0  0  0  0  0  0  0  0  0
   46.8300   33.6530   44.4820 N   0  0  0  0  0  0  0  0  0  0  0  0
   46.1550   33.6720   45.6710 C   0  0  0  0  0  0  0  0  0  0  0  0
   45.0910   34.4650   45.8390 N   0  0  0  0  0  0  0  0  0  0  0  0
   47.1020   34.4350   42.2280 N   0  0  0  0  0  0  0  0  0  0  0  0
   46.9270   33.4710   41.1590 C   0  0  0  0  0  0  0  0  0  0  0  0
   47.4220   34.1950   39.9500 C   0  0  0  0  0  0  0  0  0  0  0  0
   48.6100   34.9660   40.4840 C   0  0  0  0  0  0  0  0  0  0  0  0
   48.1060   35.4200   41.8190 C   0  0  0  0  0  0  0  0  0  0  0  0
   46.4828   33.2628   47.7103 H   0  0  0  0  0  0  0  0  0  0  0  0
   47.7364   32.6243   46.5392 H   0  0  0  0  0  0  0  0  0  0  0  0
   46.3346   31.0390   44.6931 H   0  0  0  0  0  0  0  0  0  0  0  0
   45.2604   28.8304   44.8479 H   0  0  0  0  0  0  0  0  0  0  0  0
   43.8415   27.2699   47.7673 H   0  0  0  0  0  0  0  0  0  0  0  0
   44.2039   27.1691   46.0233 H   0  0  0  0  0  0  0  0  0  0  0  0
   43.7835   35.8996   45.0078 H   0  0  0  0  0  0  0  0  0  0  0  0
   44.9731   35.9119   42.8041 H   0  0  0  0  0  0  0  0  0  0  0  0
   47.5223   32.5650   41.3456 H   0  0  0  0  0  0  0  0  0  0  0  0
   45.8863   33.1295   41.0570 H   0  0  0  0  0  0  0  0  0  0  0  0
   46.6539   34.8753   39.5534 H   0  0  0  0  0  0  0  0  0  0  0  0
   47.6768   33.5254   39.1153 H   0  0  0  0  0  0  0  0  0  0  0  0
   49.4933   34.3188   40.5884 H   0  0  0  0  0  0  0  0  0  0  0  0
   48.9389   35.7867   39.8296 H   0  0  0  0  0  0  0  0  0  0  0  0
   48.9294   35.4517   42.5477 H   0  0  0  0  0  0  0  0  0  0  0  0
   47.6788   36.4322   41.7653 H   0  0  0  0  0  0  0  0  0  0  0  0
  1  2  1  0
  2  8  1  0
  3  4  2  0
  3  2  1  0
  4  5  1  0
  5  7  2  0
  6  5  1  0
  8  7  1  0
  8  9  2  0
 10 15  2  0
 11 10  1  0
 12 11  2  0
 12 13  1  0
 13 14  2  0
 14 15  1  0
 14  1  1  0
 16 12  1  0
 17 16  1  0
 18 19  1  0
 18 17  1  0
 19 20  1  0
 20 16  1  0
  1 21  1  0
  1 22  1  0
  3 23  1  0
  4 24  1  0
  6 25  1  0
  6 26  1  0
 10 27  1  0
 11 28  1  0
 17 29  1  0
 17 30  1  0
 18 31  1  0
 18 32  1  0
 19 33  1  0
 19 34  1  0
 20 35  1  0
 20 36  1  0
M  ISO  8  21   8  22   8  23  14  24  14  27  14  28  14  29  13  30  13
M  ISO  6  31  13  32  13  33  13  34  13  35  13  36  13
M  END
>  <minimizedAffinity>  (1) 
-5.43828344

>  <minimizedRMSD>  (1) 
0.55963105

$$$$
