
     RDKit          3D

 31 33  0  0  0  0  0  0  0  0999 V2000
   46.6540   32.9020   46.4810 C   0  0  0  0  0  0  0  0  0  0  0  0
   46.0220   31.6280   46.4850 N   0  0  0  0  0  0  0  0  0  0  0  0
   45.9470   30.8200   45.3960 C   0  0  0  0  0  0  0  0  0  0  0  0
   45.3150   29.5910   45.4750 C   0  0  0  0  0  0  0  0  0  0  0  0
   44.7380   29.1460   46.6720 C   0  0  0  0  0  0  0  0  0  0  0  0
   44.1220   27.8600   46.6050 N   0  0  0  0  0  0  0  0  0  0  0  0
   44.8060   29.9470   47.7750 N   0  0  0  0  0  0  0  0  0  0  0  0
   45.4460   31.1330   47.5970 C   0  0  0  0  0  0  0  0  0  0  0  0
   45.4990   31.8620   48.6320 O   0  0  0  0  0  0  0  0  0  0  0  0
   44.5620   35.4330   44.7710 C   0  0  0  0  0  0  0  0  0  0  0  0
   45.2000   35.5300   43.5210 C   0  0  0  0  0  0  0  0  0  0  0  0
   46.3160   34.7320   43.3090 C   0  0  0  0  0  0  0  0  0  0  0  0
   46.7530   33.9020   44.2770 N   0  0  0  0  0  0  0  0  0  0  0  0
   46.0980   33.8450   45.4780 C   0  0  0  0  0  0  0  0  0  0  0  0
   45.0110   34.6030   45.7200 N   0  0  0  0  0  0  0  0  0  0  0  0
   47.0510   34.7520   42.0500 C   0  0  0  0  0  0  0  0  0  0  0  0
   46.7490   34.1290   40.8570 C   0  0  0  0  0  0  0  0  0  0  0  0
   47.7330   34.4440   39.9700 N   0  0  0  0  0  0  0  0  0  0  0  0
   48.6280   35.2500   40.6100 C   0  0  0  0  0  0  0  0  0  0  0  0
   48.1950   35.4290   41.8830 N   0  0  0  0  0  0  0  0  0  0  0  0
   46.5380   33.3496   47.4791 H   0  0  0  0  0  0  0  0  0  0  0  0
   47.7079   32.7353   46.2135 H   0  0  0  0  0  0  0  0  0  0  0  0
   46.3919   31.1447   44.4438 H   0  0  0  0  0  0  0  0  0  0  0  0
   45.2647   28.9516   44.5813 H   0  0  0  0  0  0  0  0  0  0  0  0
   43.6743   27.4592   47.4416 H   0  0  0  0  0  0  0  0  0  0  0  0
   44.1252   27.3329   45.7201 H   0  0  0  0  0  0  0  0  0  0  0  0
   43.6755   36.0523   44.9726 H   0  0  0  0  0  0  0  0  0  0  0  0
   44.8289   36.2118   42.7416 H   0  0  0  0  0  0  0  0  0  0  0  0
   45.8732   33.4937   40.6584 H   0  0  0  0  0  0  0  0  0  0  0  0
   49.5406   35.6794   40.1710 H   0  0  0  0  0  0  0  0  0  0  0  0
   48.6682   35.9930   42.6033 H   0  0  0  0  0  0  0  0  0  0  0  0
  1  2  1  0
  2  8  1  0
  3  4  2  0
  3  2  1  0
  4  5  1  0
  5  7  2  0
  6  5  1  0
  8  7  1  0
  8  9  2  0
 10 15  2  0
 11 10  1  0
 12 11  2  0
 12 13  1  0
 13 14  2  0
 14 15  1  0
 14  1  1  0
 16 12  1  0
 17 16  2  0
 18 19  2  0
 18 17  1  0
 19 20  1  0
 20 16  1  0
  1 21  1  0
  1 22  1  0
  3 23  1  0
  4 24  1  0
  6 25  1  0
  6 26  1  0
 10 27  1  0
 11 28  1  0
 17 29  1  0
 19 30  1  0
 20 31  1  0
M  ISO  8  21   8  22   8  23  14  24  14  27  14  28  14  29  14  30  14
M  ISO  1  31   9
M  END
>  <minimizedAffinity>  (1) 
-5.43599653

>  <minimizedRMSD>  (1) 
0.345209867

$$$$
