
     RDKit          3D

 37 39  0  0  0  0  0  0  0  0999 V2000
   46.7770   32.6300   46.9850 C   0  0  0  0  0  0  0  0  0  0  0  0
   46.1820   31.3400   47.0410 N   0  0  0  0  0  0  0  0  0  0  0  0
   46.0810   30.5040   45.9780 C   0  0  0  0  0  0  0  0  0  0  0  0
   45.4840   29.2580   46.1180 C   0  0  0  0  0  0  0  0  0  0  0  0
   44.9740   28.8300   47.3430 C   0  0  0  0  0  0  0  0  0  0  0  0
   44.3900   27.5300   47.3380 N   0  0  0  0  0  0  0  0  0  0  0  0
   45.0720   29.6690   48.4240 N   0  0  0  0  0  0  0  0  0  0  0  0
   45.6690   30.8610   48.1880 C   0  0  0  0  0  0  0  0  0  0  0  0
   45.7450   31.6150   49.2020 O   0  0  0  0  0  0  0  0  0  0  0  0
   44.7360   35.0200   45.0270 C   0  0  0  0  0  0  0  0  0  0  0  0
   45.4040   35.0110   43.8110 C   0  0  0  0  0  0  0  0  0  0  0  0
   46.5310   34.2080   43.6570 C   0  0  0  0  0  0  0  0  0  0  0  0
   46.9220   33.4660   44.7130 N   0  0  0  0  0  0  0  0  0  0  0  0
   46.2540   33.4920   45.8850 C   0  0  0  0  0  0  0  0  0  0  0  0
   45.1690   34.2610   46.0450 N   0  0  0  0  0  0  0  0  0  0  0  0
   47.3170   34.0940   42.4760 N   0  0  0  0  0  0  0  0  0  0  0  0
   48.7180   34.5220   42.4080 C   0  0  0  0  0  0  0  0  0  0  0  0
   48.7370   35.6040   41.3470 C   0  0  0  0  0  0  0  0  0  0  0  0
   48.6050   34.9350   40.1430 O   0  0  0  0  0  0  0  0  0  0  0  0
   47.4510   34.2210   40.0050 C   0  0  0  0  0  0  0  0  0  0  0  0
   46.8910   33.5700   41.2210 C   0  0  0  0  0  0  0  0  0  0  0  0
   46.5901   33.1390   47.9421 H   0  0  0  0  0  0  0  0  0  0  0  0
   47.8486   32.4781   46.7884 H   0  0  0  0  0  0  0  0  0  0  0  0
   46.4744   30.8147   44.9989 H   0  0  0  0  0  0  0  0  0  0  0  0
   45.4119   28.5945   45.2436 H   0  0  0  0  0  0  0  0  0  0  0  0
   43.9907   27.1415   48.2043 H   0  0  0  0  0  0  0  0  0  0  0  0
   44.3672   26.9790   46.4681 H   0  0  0  0  0  0  0  0  0  0  0  0
   43.8460   35.6532   45.1572 H   0  0  0  0  0  0  0  0  0  0  0  0
   45.0467   35.6323   42.9766 H   0  0  0  0  0  0  0  0  0  0  0  0
   49.0489   34.9230   43.3774 H   0  0  0  0  0  0  0  0  0  0  0  0
   49.3967   33.6904   42.1675 H   0  0  0  0  0  0  0  0  0  0  0  0
   47.9001   36.3026   41.4937 H   0  0  0  0  0  0  0  0  0  0  0  0
   49.6599   36.2013   41.3860 H   0  0  0  0  0  0  0  0  0  0  0  0
   46.6841   34.9076   39.6171 H   0  0  0  0  0  0  0  0  0  0  0  0
   47.7182   33.3861   39.3405 H   0  0  0  0  0  0  0  0  0  0  0  0
   45.7958   33.6617   41.1749 H   0  0  0  0  0  0  0  0  0  0  0  0
   47.2642   32.5356   41.1956 H   0  0  0  0  0  0  0  0  0  0  0  0
  1  2  1  0
  2  8  1  0
  3  4  2  0
  3  2  1  0
  4  5  1  0
  5  7  2  0
  6  5  1  0
  8  7  1  0
  8  9  2  0
 10 15  2  0
 11 10  1  0
 12 11  2  0
 12 13  1  0
 13 14  2  0
 14 15  1  0
 14  1  1  0
 16 12  1  0
 17 16  1  0
 18 17  1  0
 19 18  1  0
 20 19  1  0
 20 21  1  0
 21 16  1  0
  1 22  1  0
  1 23  1  0
  3 24  1  0
  4 25  1  0
  6 26  1  0
  6 27  1  0
 10 28  1  0
 11 29  1  0
 17 30  1  0
 17 31  1  0
 18 32  1  0
 18 33  1  0
 20 34  1  0
 20 35  1  0
 21 36  1  0
 21 37  1  0
M  ISO  8  22   8  23   8  24  14  25  14  28  14  29  14  30  13  31  13
M  ISO  6  32  13  33  13  34  13  35  13  36  13  37  13
M  END
>  <minimizedAffinity>  (1) 
-5.43345737

>  <minimizedRMSD>  (1) 
0.848439038

$$$$
