
     RDKit          3D

 31 33  0  0  0  0  0  0  0  0999 V2000
   46.6670   33.0420   46.2180 C   0  0  0  0  0  0  0  0  0  0  0  0
   46.0560   31.7570   46.3360 N   0  0  0  0  0  0  0  0  0  0  0  0
   46.0130   30.8510   45.3260 C   0  0  0  0  0  0  0  0  0  0  0  0
   45.4010   29.6180   45.5110 C   0  0  0  0  0  0  0  0  0  0  0  0
   44.8180   29.2820   46.7330 C   0  0  0  0  0  0  0  0  0  0  0  0
   44.2280   27.9750   46.7630 N   0  0  0  0  0  0  0  0  0  0  0  0
   44.8540   30.1920   47.7630 N   0  0  0  0  0  0  0  0  0  0  0  0
   45.4730   31.3560   47.4740 C   0  0  0  0  0  0  0  0  0  0  0  0
   45.4920   32.1770   48.4390 O   0  0  0  0  0  0  0  0  0  0  0  0
   44.9290   34.9080   43.5300 C   0  0  0  0  0  0  0  0  0  0  0  0
   45.9230   34.9860   42.5660 C   0  0  0  0  0  0  0  0  0  0  0  0
   47.1640   34.4080   42.8380 C   0  0  0  0  0  0  0  0  0  0  0  0
   47.3690   33.7920   44.0200 N   0  0  0  0  0  0  0  0  0  0  0  0
   46.3650   33.7350   44.9470 C   0  0  0  0  0  0  0  0  0  0  0  0
   45.1590   34.2900   44.6980 N   0  0  0  0  0  0  0  0  0  0  0  0
   48.2220   34.4860   41.8230 C   0  0  0  0  0  0  0  0  0  0  0  0
   48.9410   35.8230   41.6590 C   0  0  0  0  0  0  0  0  0  0  0  0
   49.6430   34.6650   42.2650 C   0  0  0  0  0  0  0  0  0  0  0  0
   46.3132   33.6712   47.0480 H   0  0  0  0  0  0  0  0  0  0  0  0
   47.7550   32.8816   46.2434 H   0  0  0  0  0  0  0  0  0  0  0  0
   46.4662   31.0952   44.3539 H   0  0  0  0  0  0  0  0  0  0  0  0
   45.3756   28.8958   44.6817 H   0  0  0  0  0  0  0  0  0  0  0  0
   43.7723   27.6353   47.6220 H   0  0  0  0  0  0  0  0  0  0  0  0
   44.2600   27.3762   45.9256 H   0  0  0  0  0  0  0  0  0  0  0  0
   43.9438   35.3567   43.3351 H   0  0  0  0  0  0  0  0  0  0  0  0
   45.7373   35.4926   41.6074 H   0  0  0  0  0  0  0  0  0  0  0  0
   47.6978   33.7789   41.1633 H   0  0  0  0  0  0  0  0  0  0  0  0
   49.2250   36.1764   40.6568 H   0  0  0  0  0  0  0  0  0  0  0  0
   48.7387   36.8598   41.9660 H   0  0  0  0  0  0  0  0  0  0  0  0
   49.8835   34.6736   43.3384 H   0  0  0  0  0  0  0  0  0  0  0  0
   50.5860   34.1405   42.0514 H   0  0  0  0  0  0  0  0  0  0  0  0
  1  2  1  0
  2  8  1  0
  3  4  2  0
  3  2  1  0
  4  5  1  0
  5  6  1  0
  5  7  2  0
  8  7  1  0
  8  9  2  0
 10 15  2  0
 11 12  2  0
 11 10  1  0
 12 13  1  0
 13 14  2  0
 14  1  1  0
 15 14  1  0
 16 18  1  0
 16 12  1  0
 17 16  1  0
 17 18  1  0
  1 19  1  0
  1 20  1  0
  3 21  1  0
  4 22  1  0
  6 23  1  0
  6 24  1  0
 10 25  1  0
 11 26  1  0
 16 27  1  0
 17 28  1  0
 17 29  1  0
 18 30  1  0
 18 31  1  0
M  ISO  8  19   8  20   8  21  14  22  14  25  14  26  14  27  13  28  13
M  ISO  3  29  13  30  13  31  13
M  END
>  <minimizedAffinity>  (1) 
-5.12009764

>  <minimizedRMSD>  (1) 
1.12617695

$$$$
