
     RDKit          3D

 26 27  0  0  0  0  0  0  0  0999 V2000
   46.7130   32.9540   46.3660 C   0  0  0  0  0  0  0  0  0  0  0  0
   46.0670   31.6770   46.4380 N   0  0  0  0  0  0  0  0  0  0  0  0
   46.0170   30.8130   45.3950 C   0  0  0  0  0  0  0  0  0  0  0  0
   45.3760   29.5950   45.5350 C   0  0  0  0  0  0  0  0  0  0  0  0
   44.7690   29.2230   46.7420 C   0  0  0  0  0  0  0  0  0  0  0  0
   44.1470   27.9390   46.7380 N   0  0  0  0  0  0  0  0  0  0  0  0
   44.8220   30.0920   47.7840 N   0  0  0  0  0  0  0  0  0  0  0  0
   45.4670   31.2660   47.5700 C   0  0  0  0  0  0  0  0  0  0  0  0
   45.5000   32.0460   48.5470 O   0  0  0  0  0  0  0  0  0  0  0  0
   44.5100   35.4910   44.8080 C   0  0  0  0  0  0  0  0  0  0  0  0
   45.0570   35.5760   43.5270 C   0  0  0  0  0  0  0  0  0  0  0  0
   46.1540   34.7760   43.2200 C   0  0  0  0  0  0  0  0  0  0  0  0
   46.6560   33.9450   44.1660 N   0  0  0  0  0  0  0  0  0  0  0  0
   46.0910   33.8970   45.3990 C   0  0  0  0  0  0  0  0  0  0  0  0
   45.0300   34.6590   45.7210 N   0  0  0  0  0  0  0  0  0  0  0  0
   46.7280   34.8470   41.9170 N   0  0  0  0  0  0  0  0  0  0  0  0
   46.6817   33.4135   47.3650 H   0  0  0  0  0  0  0  0  0  0  0  0
   47.7388   32.7704   46.0139 H   0  0  0  0  0  0  0  0  0  0  0  0
   46.4863   31.0803   44.4367 H   0  0  0  0  0  0  0  0  0  0  0  0
   45.3421   28.9035   44.6802 H   0  0  0  0  0  0  0  0  0  0  0  0
   43.6783   27.5912   47.5867 H   0  0  0  0  0  0  0  0  0  0  0  0
   44.1666   27.3599   45.8864 H   0  0  0  0  0  0  0  0  0  0  0  0
   43.6424   36.1138   45.0713 H   0  0  0  0  0  0  0  0  0  0  0  0
   44.6312   36.2592   42.7774 H   0  0  0  0  0  0  0  0  0  0  0  0
   47.5399   34.2595   41.6792 H   0  0  0  0  0  0  0  0  0  0  0  0
   46.3308   35.4858   41.2134 H   0  0  0  0  0  0  0  0  0  0  0  0
  1  2  1  0
  2  8  1  0
  3  4  2  0
  3  2  1  0
  4  5  1  0
  5  7  2  0
  6  5  1  0
  8  7  1  0
  8  9  2  0
 10 15  2  0
 11 10  1  0
 12 11  2  0
 12 13  1  0
 13 14  2  0
 14 15  1  0
 14  1  1  0
 16 12  1  0
  1 17  1  0
  1 18  1  0
  3 19  1  0
  4 20  1  0
  6 21  1  0
  6 22  1  0
 10 23  1  0
 11 24  1  0
 16 25  1  0
 16 26  1  0
M  ISO  6  17   8  18   8  19  14  20  14  23  14  24  14
M  END
>  <minimizedAffinity>  (1) 
-4.50643969

>  <minimizedRMSD>  (1) 
0.016912058

$$$$
