
     RDKit          3D

 25 26  0  0  0  0  0  0  0  0999 V2000
   46.7470   32.9540   46.3060 C   0  0  0  0  0  0  0  0  0  0  0  0
   46.0860   31.6800   46.3920 N   0  0  0  0  0  0  0  0  0  0  0  0
   46.0140   30.8120   45.3560 C   0  0  0  0  0  0  0  0  0  0  0  0
   45.3600   29.6040   45.5160 C   0  0  0  0  0  0  0  0  0  0  0  0
   44.7640   29.2510   46.7290 C   0  0  0  0  0  0  0  0  0  0  0  0
   44.1260   27.9640   46.7270 N   0  0  0  0  0  0  0  0  0  0  0  0
   44.8370   30.1270   47.7680 N   0  0  0  0  0  0  0  0  0  0  0  0
   45.4920   31.2770   47.5240 C   0  0  0  0  0  0  0  0  0  0  0  0
   45.5450   32.0730   48.5070 O   0  0  0  0  0  0  0  0  0  0  0  0
   44.4930   35.4910   44.8320 C   0  0  0  0  0  0  0  0  0  0  0  0
   45.0150   35.6060   43.5510 C   0  0  0  0  0  0  0  0  0  0  0  0
   46.1160   34.8340   43.1940 C   0  0  0  0  0  0  0  0  0  0  0  0
   46.6390   33.9920   44.1210 N   0  0  0  0  0  0  0  0  0  0  0  0
   46.0990   33.9070   45.3670 C   0  0  0  0  0  0  0  0  0  0  0  0
   45.0370   34.6480   45.7190 N   0  0  0  0  0  0  0  0  0  0  0  0
   46.7500   34.8400   41.9520 O   0  0  0  0  0  0  0  0  0  0  0  0
   46.7564   33.4076   47.3081 H   0  0  0  0  0  0  0  0  0  0  0  0
   47.7589   32.7631   45.9192 H   0  0  0  0  0  0  0  0  0  0  0  0
   46.4742   31.0666   44.3899 H   0  0  0  0  0  0  0  0  0  0  0  0
   45.3079   28.9049   44.6683 H   0  0  0  0  0  0  0  0  0  0  0  0
   43.6596   27.6191   47.5781 H   0  0  0  0  0  0  0  0  0  0  0  0
   44.1350   27.3861   45.8745 H   0  0  0  0  0  0  0  0  0  0  0  0
   43.6232   36.0988   45.1217 H   0  0  0  0  0  0  0  0  0  0  0  0
   44.5634   36.2995   42.8264 H   0  0  0  0  0  0  0  0  0  0  0  0
   47.5305   34.2524   41.7918 H   0  0  0  0  0  0  0  0  0  0  0  0
  1  2  1  0
  2  8  1  0
  3  4  2  0
  3  2  1  0
  4  5  1  0
  5  7  2  0
  6  5  1  0
  8  7  1  0
  8  9  2  0
 10 15  2  0
 11 10  1  0
 12 11  2  0
 12 13  1  0
 13 14  2  0
 14 15  1  0
 14  1  1  0
 16 12  1  0
  1 17  1  0
  1 18  1  0
  3 19  1  0
  4 20  1  0
  6 21  1  0
  6 22  1  0
 10 23  1  0
 11 24  1  0
 16 25  1  0
M  ISO  7  17   8  18   8  19  14  20  14  23  14  24  14  25   3
M  END
>  <minimizedAffinity>  (1) 
-4.47412252

>  <minimizedRMSD>  (1) 
0.0439626873

$$$$
