
     RDKit          3D

 22 23  0  0  0  0  0  0  0  0999 V2000
   44.5440   35.7240   44.8320 C   0  0  0  0  0  0  0  0  0  0  0  0
   45.2020   35.5750   43.5880 C   0  0  0  0  0  0  0  0  0  0  0  0
   46.1030   34.5010   43.4530 C   0  0  0  0  0  0  0  0  0  0  0  0
   46.2780   33.6860   44.5240 N   0  0  0  0  0  0  0  0  0  0  0  0
   45.6360   33.8590   45.6910 C   0  0  0  0  0  0  0  0  0  0  0  0
   44.7720   34.8740   45.8420 N   0  0  0  0  0  0  0  0  0  0  0  0
   45.9010   32.9500   46.7220 N   0  0  0  0  0  0  0  0  0  0  0  0
   44.9850   32.5400   47.7690 C   0  0  0  0  0  0  0  0  0  0  0  0
   45.9480   32.3360   48.9210 C   0  0  0  0  0  0  0  0  0  0  0  0
   46.9980   31.4720   48.2090 C   0  0  0  0  0  0  0  0  0  0  0  0
   47.1700   32.2440   46.9270 C   0  0  0  0  0  0  0  0  0  0  0  0
   43.8333   36.5518   44.9720 H   0  0  0  0  0  0  0  0  0  0  0  0
   45.0166   36.2720   42.7575 H   0  0  0  0  0  0  0  0  0  0  0  0
   46.6461   34.3287   42.5121 H   0  0  0  0  0  0  0  0  0  0  0  0
   44.2469   33.3245   47.9919 H   0  0  0  0  0  0  0  0  0  0  0  0
   44.3749   31.6585   47.5224 H   0  0  0  0  0  0  0  0  0  0  0  0
   46.3703   33.2868   49.2784 H   0  0  0  0  0  0  0  0  0  0  0  0
   45.5111   31.8955   49.8294 H   0  0  0  0  0  0  0  0  0  0  0  0
   47.9364   31.4209   48.7806 H   0  0  0  0  0  0  0  0  0  0  0  0
   46.7083   30.4195   48.0735 H   0  0  0  0  0  0  0  0  0  0  0  0
   47.3687   31.5591   46.0894 H   0  0  0  0  0  0  0  0  0  0  0  0
   48.0203   32.9398   46.9804 H   0  0  0  0  0  0  0  0  0  0  0  0
  1  6  2  0
  2  1  1  0
  3  2  2  0
  3  4  1  0
  4  5  2  0
  5  6  1  0
  5  7  1  0
  7 11  1  0
  7  8  1  0
  8  9  1  0
 10  9  1  0
 11 10  1  0
  1 12  1  0
  2 13  1  0
  3 14  1  0
  8 15  1  0
  8 16  1  0
  9 17  1  0
  9 18  1  0
 10 19  1  0
 10 20  1  0
 11 21  1  0
 11 22  1  0
M  ISO  8  12  14  13  14  14  14  15  13  16  13  17  13  18  13  19  13
M  ISO  3  20  13  21  13  22  13
M  END
>  <minimizedAffinity>  (1) 
-4.25541592

>  <minimizedRMSD>  (1) 
0.461220205

$$$$
