
     RDKit          3D

 40 44  0  0  0  0  0  0  0  0999 V2000
   44.6870   35.7180   44.8900 C   0  0  0  0  0  0  0  0  0  0  0  0
   44.2300   35.6930   43.5820 C   0  0  0  0  0  0  0  0  0  0  0  0
   44.3410   34.5720   42.7650 C   0  0  0  0  0  0  0  0  0  0  0  0
   44.9420   33.5140   43.3870 N   0  0  0  0  0  0  0  0  0  0  0  0
   45.3880   33.5250   44.6450 C   0  0  0  0  0  0  0  0  0  0  0  0
   45.2530   34.6260   45.3800 N   0  0  0  0  0  0  0  0  0  0  0  0
   45.9970   32.3390   45.1590 N   0  0  0  0  0  0  0  0  0  0  0  0
   46.6440   31.4250   44.3780 C   0  0  0  0  0  0  0  0  0  0  0  0
   47.1260   30.4100   45.0810 N   0  0  0  0  0  0  0  0  0  0  0  0
   46.8010   30.6390   46.3640 C   0  0  0  0  0  0  0  0  0  0  0  0
   47.0270   29.9450   47.5340 C   0  0  0  0  0  0  0  0  0  0  0  0
   47.6650   28.8480   47.5190 O   0  0  0  0  0  0  0  0  0  0  0  0
   46.5510   30.4690   48.6780 N   0  0  0  0  0  0  0  0  0  0  0  0
   45.8660   31.6470   48.6990 C   0  0  0  0  0  0  0  0  0  0  0  0
   45.4470   32.0330   50.0060 N   0  0  0  0  0  0  0  0  0  0  0  0
   45.6330   32.3480   47.5500 N   0  0  0  0  0  0  0  0  0  0  0  0
   46.1000   31.8450   46.3840 C   0  0  0  0  0  0  0  0  0  0  0  0
   43.9240   34.3670   41.4040 C   0  0  0  0  0  0  0  0  0  0  0  0
   44.7980   33.7040   40.5590 C   0  0  0  0  0  0  0  0  0  0  0  0
   44.5360   33.4310   39.2390 C   0  0  0  0  0  0  0  0  0  0  0  0
   43.3360   33.8330   38.7030 C   0  0  0  0  0  0  0  0  0  0  0  0
   42.4170   34.4990   39.4870 C   0  0  0  0  0  0  0  0  0  0  0  0
   41.2160   34.9110   38.9590 C   0  0  0  0  0  0  0  0  0  0  0  0
   40.2750   35.5860   39.7110 C   0  0  0  0  0  0  0  0  0  0  0  0
   40.6230   35.8180   41.0300 C   0  0  0  0  0  0  0  0  0  0  0  0
   41.8180   35.4000   41.5270 C   0  0  0  0  0  0  0  0  0  0  0  0
   42.7480   34.7360   40.7930 C   0  0  0  0  0  0  0  0  0  0  0  0
   44.5821   36.6231   45.5062 H   0  0  0  0  0  0  0  0  0  0  0  0
   43.7591   36.5985   43.1718 H   0  0  0  0  0  0  0  0  0  0  0  0
   46.7530   31.5203   43.2876 H   0  0  0  0  0  0  0  0  0  0  0  0
   46.7087   29.9658   49.5628 H   0  0  0  0  0  0  0  0  0  0  0  0
   44.9204   32.9079   50.1406 H   0  0  0  0  0  0  0  0  0  0  0  0
   45.6709   31.4369   50.8156 H   0  0  0  0  0  0  0  0  0  0  0  0
   45.7633   33.3752   40.9713 H   0  0  0  0  0  0  0  0  0  0  0  0
   45.2744   32.8993   38.6208 H   0  0  0  0  0  0  0  0  0  0  0  0
   43.1081   33.6234   37.6475 H   0  0  0  0  0  0  0  0  0  0  0  0
   40.9977   34.6957   37.9026 H   0  0  0  0  0  0  0  0  0  0  0  0
   39.3140   35.9168   39.2901 H   0  0  0  0  0  0  0  0  0  0  0  0
   39.9205   36.3500   41.6884 H   0  0  0  0  0  0  0  0  0  0  0  0
   42.0439   35.6116   42.5826 H   0  0  0  0  0  0  0  0  0  0  0  0
  1  6  2  0
  2  1  1  0
  3  4  1  0
  3  2  2  0
  4  5  2  0
  5  7  1  0
  5  6  1  0
  7 17  1  0
  8  9  2  0
  8  7  1  0
  9 10  1  0
 10 17  2  0
 10 11  1  0
 11 13  1  0
 12 11  2  0
 13 14  1  0
 14 15  1  0
 16 14  2  0
 17 16  1  0
 18  3  1  0
 19 18  2  0
 20 19  1  0
 21 20  2  0
 21 22  1  0
 22 27  2  0
 23 22  1  0
 23 24  2  0
 24 25  1  0
 25 26  2  0
 27 18  1  0
 27 26  1  0
  1 28  1  0
  2 29  1  0
  8 30  1  0
 13 31  1  0
 15 32  1  0
 15 33  1  0
 19 34  1  0
 20 35  1  0
 21 36  1  0
 23 37  1  0
 24 38  1  0
 25 39  1  0
 26 40  1  0
M  ISO  8  28  14  29  14  30  14  31   9  34  14  35  14  36  14  37  14
M  ISO  3  38  14  39  14  40  14
M  END
>  <minimizedAffinity>  (1) 
-8.23431015

>  <minimizedRMSD>  (1) 
3.23089457

$$$$
