
     RDKit          3D

 42 46  0  0  1  0  0  0  0  0999 V2000
   44.6480   35.3980   44.2780 C   0  0  0  0  0  0  0  0  0  0  0  0
   45.3260   35.2860   43.0780 C   0  0  0  0  0  0  0  0  0  0  0  0
   46.4230   34.4460   43.0210 C   0  0  0  0  0  0  0  0  0  0  0  0
   46.8210   33.7520   44.1200 N   0  0  0  0  0  0  0  0  0  0  0  0
   46.1310   33.8860   45.2810 C   0  0  0  0  0  0  0  0  0  0  0  0
   45.0580   34.7010   45.3550 N   0  0  0  0  0  0  0  0  0  0  0  0
   47.1360   34.3100   41.7320 C   0  0  1  0  0  0  0  0  0  0  0  0
   48.3060   35.2860   41.4890 C   0  0  0  0  0  0  0  0  0  0  0  0
   48.5420   33.8410   41.7220 C   0  0  2  0  0  0  0  0  0  0  0  0
   48.9440   32.9710   40.6340 N   0  0  0  0  0  0  0  0  0  0  0  0
   49.5170   31.7730   40.7000 C   0  0  0  0  0  0  0  0  0  0  0  0
   49.7250   31.3040   39.4400 N   0  0  0  0  0  0  0  0  0  0  0  0
   49.2790   32.2130   38.5620 C   0  0  0  0  0  0  0  0  0  0  0  0
   49.1890   32.3610   37.1820 C   0  0  0  0  0  0  0  0  0  0  0  0
   48.6460   33.4800   36.6270 N   0  0  0  0  0  0  0  0  0  0  0  0
   48.1770   34.4830   37.4000 C   0  0  0  0  0  0  0  0  0  0  0  0
   48.2530   34.3610   38.7390 N   0  0  0  0  0  0  0  0  0  0  0  0
   48.7910   33.2520   39.3270 C   0  0  0  0  0  0  0  0  0  0  0  0
   46.6050   33.0970   46.4380 C   0  0  0  0  0  0  0  0  0  0  0  0
   46.0170   31.7920   46.5210 N   0  0  0  0  0  0  0  0  0  0  0  0
   45.9870   30.8980   45.4860 C   0  0  0  0  0  0  0  0  0  0  0  0
   45.3990   29.6560   45.6550 C   0  0  0  0  0  0  0  0  0  0  0  0
   44.8260   29.2820   46.8680 C   0  0  0  0  0  0  0  0  0  0  0  0
   44.2640   27.9620   46.8770 N   0  0  0  0  0  0  0  0  0  0  0  0
   44.8470   30.1640   47.9110 N   0  0  0  0  0  0  0  0  0  0  0  0
   45.4410   31.3450   47.6470 C   0  0  0  0  0  0  0  0  0  0  0  0
   45.4490   32.1470   48.6290 O   0  0  0  0  0  0  0  0  0  0  0  0
   43.7714   36.0582   44.3531 H   0  0  0  0  0  0  0  0  0  0  0  0
   45.0011   35.8506   42.1916 H   0  0  0  0  0  0  0  0  0  0  0  0
   46.2207   34.0051   41.2036 H   0  0  0  0  0  0  0  0  0  0  0  0
   48.5811   36.0231   42.2578 H   0  0  0  0  0  0  0  0  0  0  0  0
   48.5757   36.0100   40.7060 H   0  0  0  0  0  0  0  0  0  0  0  0
   49.1915   33.3006   42.4264 H   0  0  0  0  0  0  0  0  0  0  0  0
   49.7813   31.2442   41.6276 H   0  0  0  0  0  0  0  0  0  0  0  0
   49.5630   31.5601   36.5272 H   0  0  0  0  0  0  0  0  0  0  0  0
   47.7405   35.3839   36.9440 H   0  0  0  0  0  0  0  0  0  0  0  0
   47.6961   32.9826   46.3576 H   0  0  0  0  0  0  0  0  0  0  0  0
   46.3080   33.6435   47.3452 H   0  0  0  0  0  0  0  0  0  0  0  0
   46.4315   31.1668   44.5164 H   0  0  0  0  0  0  0  0  0  0  0  0
   45.3841   28.9489   44.8125 H   0  0  0  0  0  0  0  0  0  0  0  0
   43.8179   27.5980   47.7311 H   0  0  0  0  0  0  0  0  0  0  0  0
   44.3066   27.3783   46.0294 H   0  0  0  0  0  0  0  0  0  0  0  0
  1  6  2  0
  2  1  1  0
  3  2  2  0
  3  4  1  0
  4  5  2  0
  5  6  1  0
  5 19  1  0
  7  3  1  0
  8  9  1  0
  8  7  1  0
  9  7  1  0
 10 11  1  0
 10  9  1  0
 12 11  2  0
 13 18  2  0
 13 12  1  0
 14 13  1  0
 15 14  2  0
 15 16  1  0
 16 17  2  0
 17 18  1  0
 18 10  1  0
 19 20  1  0
 20 26  1  0
 21 22  2  0
 21 20  1  0
 22 23  1  0
 23 24  1  0
 23 25  2  0
 26 25  1  0
 26 27  2  0
  1 28  1  0
  2 29  1  0
  7 30  1  6
  8 31  1  0
  8 32  1  0
  9 33  1  1
 11 34  1  0
 14 35  1  0
 16 36  1  0
 19 37  1  0
 19 38  1  0
 21 39  1  0
 22 40  1  0
 24 41  1  0
 24 42  1  0
M  ISO  8  28  14  29  14  30  13  31  13  32  13  33  13  34  14  35  14
M  ISO  5  36  14  37   8  38   8  39  14  40  14
M  END
>  <minimizedAffinity>  (1) 
-6.42144251

>  <minimizedRMSD>  (1) 
1.54428649

$$$$
