
     RDKit          3D

 38 41  0  0  1  0  0  0  0  0999 V2000
   44.6960   35.3040   44.5950 C   0  0  0  0  0  0  0  0  0  0  0  0
   45.3250   35.5260   43.3770 C   0  0  0  0  0  0  0  0  0  0  0  0
   46.4580   34.7910   43.0830 C   0  0  0  0  0  0  0  0  0  0  0  0
   46.9410   33.8770   43.9670 N   0  0  0  0  0  0  0  0  0  0  0  0
   46.2990   33.6870   45.1480 C   0  0  0  0  0  0  0  0  0  0  0  0
   45.1870   34.3980   45.4550 N   0  0  0  0  0  0  0  0  0  0  0  0
   47.1150   35.0100   41.7800 C   0  0  1  0  0  0  0  0  0  0  0  0
   48.5520   35.5620   41.8090 C   0  0  0  0  0  0  0  0  0  0  0  0
   48.2720   34.1680   41.3910 C   0  0  2  0  0  0  0  0  0  0  0  0
   48.2870   33.8080   39.9340 C   0  0  0  0  0  0  0  0  0  0  0  0
   48.2820   32.5730   39.3190 C   0  0  0  0  0  0  0  0  0  0  0  0
   48.3000   32.7630   37.9810 N   0  0  0  0  0  0  0  0  0  0  0  0
   48.3170   34.1110   37.7700 C   0  0  0  0  0  0  0  0  0  0  0  0
   48.3090   34.7350   38.9590 N   0  0  0  0  0  0  0  0  0  0  0  0
   46.8590   32.6750   46.0620 C   0  0  0  0  0  0  0  0  0  0  0  0
   46.1040   31.4600   46.1110 N   0  0  0  0  0  0  0  0  0  0  0  0
   45.8990   30.6490   45.0420 C   0  0  0  0  0  0  0  0  0  0  0  0
   45.1580   29.4810   45.1690 C   0  0  0  0  0  0  0  0  0  0  0  0
   44.6070   29.1120   46.3940 C   0  0  0  0  0  0  0  0  0  0  0  0
   43.8740   27.8760   46.3590 N   0  0  0  0  0  0  0  0  0  0  0  0
   44.8060   29.9240   47.4820 N   0  0  0  0  0  0  0  0  0  0  0  0
   45.5410   31.0340   47.2470 C   0  0  0  0  0  0  0  0  0  0  0  0
   45.7030   31.7510   48.2660 O   0  0  0  0  0  0  0  0  0  0  0  0
   43.7916   35.8731   44.8561 H   0  0  0  0  0  0  0  0  0  0  0  0
   44.9321   36.2670   42.6653 H   0  0  0  0  0  0  0  0  0  0  0  0
   46.1625   35.2786   41.2997 H   0  0  0  0  0  0  0  0  0  0  0  0
   48.8733   36.3082   41.0674 H   0  0  0  0  0  0  0  0  0  0  0  0
   49.1937   36.0418   42.5627 H   0  0  0  0  0  0  0  0  0  0  0  0
   48.7102   33.2116   41.7124 H   0  0  0  0  0  0  0  0  0  0  0  0
   48.2661   31.5993   39.8306 H   0  0  0  0  0  0  0  0  0  0  0  0
   48.3344   34.6053   36.7874 H   0  0  0  0  0  0  0  0  0  0  0  0
   48.3182   35.7551   39.1012 H   0  0  0  0  0  0  0  0  0  0  0  0
   47.8802   32.4356   45.7306 H   0  0  0  0  0  0  0  0  0  0  0  0
   46.8351   33.1081   47.0729 H   0  0  0  0  0  0  0  0  0  0  0  0
   46.3244   30.9197   44.0644 H   0  0  0  0  0  0  0  0  0  0  0  0
   45.0041   28.8383   44.2897 H   0  0  0  0  0  0  0  0  0  0  0  0
   43.4282   27.5172   47.2154 H   0  0  0  0  0  0  0  0  0  0  0  0
   43.7945   27.3492   45.4775 H   0  0  0  0  0  0  0  0  0  0  0  0
  1  6  2  0
  2  1  1  0
  3  2  2  0
  3  4  1  0
  4  5  2  0
  5  6  1  0
  5 15  1  0
  7  8  1  0
  7  3  1  0
  9  7  1  0
  9  8  1  0
 10  9  1  0
 11 10  2  0
 12 11  1  0
 13 12  2  0
 13 14  1  0
 14 10  1  0
 15 16  1  0
 16 22  1  0
 17 18  2  0
 17 16  1  0
 18 19  1  0
 19 21  2  0
 20 19  1  0
 22 21  1  0
 22 23  2  0
  1 24  1  0
  2 25  1  0
  7 26  1  6
  8 27  1  0
  8 28  1  0
  9 29  1  1
 11 30  1  0
 13 31  1  0
 14 32  1  0
 15 33  1  0
 15 34  1  0
 17 35  1  0
 18 36  1  0
 20 37  1  0
 20 38  1  0
M  ISO  8  24  14  25  14  26  13  27  13  28  13  29  13  30  14  31  14
M  ISO  5  32   9  33   8  34   8  35  14  36  14
M  END
>  <minimizedAffinity>  (1) 
-5.9508934

>  <minimizedRMSD>  (1) 
1.87047398

$$$$
