
     RDKit          3D

 47 50  0  0  1  0  0  0  0  0999 V2000
   44.7490   35.2700   44.3010 C   0  0  0  0  0  0  0  0  0  0  0  0
   45.5660   35.1860   43.1810 C   0  0  0  0  0  0  0  0  0  0  0  0
   46.6840   34.3770   43.2560 C   0  0  0  0  0  0  0  0  0  0  0  0
   46.9720   33.6890   44.3900 N   0  0  0  0  0  0  0  0  0  0  0  0
   46.1520   33.7950   45.4650 C   0  0  0  0  0  0  0  0  0  0  0  0
   45.0520   34.5810   45.4140 N   0  0  0  0  0  0  0  0  0  0  0  0
   47.5510   34.2610   42.0630 C   0  0  1  0  0  0  0  0  0  0  0  0
   48.5120   35.4360   41.7930 C   0  0  0  0  0  0  0  0  0  0  0  0
   49.0180   34.1200   42.2440 C   0  0  2  0  0  0  0  0  0  0  0  0
   49.7230   33.1890   41.2940 C   0  0  0  0  0  0  0  0  0  0  0  0
   48.7390   32.2230   40.6610 C   0  0  0  0  0  0  0  0  0  0  0  0
   49.4930   31.0930   40.0430 C   0  0  0  0  0  0  0  0  0  0  0  0
   50.8880   31.4760   39.6120 C   0  0  0  0  0  0  0  0  0  0  0  0
   51.6950   31.7940   40.8450 C   0  0  0  0  0  0  0  0  0  0  0  0
   50.8760   32.4620   41.9350 C   0  0  0  0  0  0  0  0  0  0  0  0
   46.5150   33.0140   46.6660 C   0  0  0  0  0  0  0  0  0  0  0  0
   45.9630   31.6960   46.6830 N   0  0  0  0  0  0  0  0  0  0  0  0
   45.9370   30.8700   45.5950 C   0  0  0  0  0  0  0  0  0  0  0  0
   45.3810   29.5990   45.6850 C   0  0  0  0  0  0  0  0  0  0  0  0
   44.8400   29.1340   46.8810 C   0  0  0  0  0  0  0  0  0  0  0  0
   44.3050   27.8070   46.8160 N   0  0  0  0  0  0  0  0  0  0  0  0
   44.8600   29.9500   47.9760 N   0  0  0  0  0  0  0  0  0  0  0  0
   45.4190   31.1590   47.7820 C   0  0  0  0  0  0  0  0  0  0  0  0
   45.4240   31.8930   48.8130 O   0  0  0  0  0  0  0  0  0  0  0  0
   43.8500   35.9034   44.2768 H   0  0  0  0  0  0  0  0  0  0  0  0
   45.3308   35.7455   42.2636 H   0  0  0  0  0  0  0  0  0  0  0  0
   46.7862   33.7048   41.5011 H   0  0  0  0  0  0  0  0  0  0  0  0
   48.6949   35.7756   40.7629 H   0  0  0  0  0  0  0  0  0  0  0  0
   48.6011   36.4740   42.1461 H   0  0  0  0  0  0  0  0  0  0  0  0
   49.6890   33.8353   43.0678 H   0  0  0  0  0  0  0  0  0  0  0  0
   50.1597   33.8116   40.4992 H   0  0  0  0  0  0  0  0  0  0  0  0
   48.0577   31.8334   41.4317 H   0  0  0  0  0  0  0  0  0  0  0  0
   48.1530   32.7435   39.8892 H   0  0  0  0  0  0  0  0  0  0  0  0
   49.5653   30.2774   40.7776 H   0  0  0  0  0  0  0  0  0  0  0  0
   48.9436   30.7876   39.1403 H   0  0  0  0  0  0  0  0  0  0  0  0
   51.3523   30.6394   39.0694 H   0  0  0  0  0  0  0  0  0  0  0  0
   50.8518   32.3515   38.9471 H   0  0  0  0  0  0  0  0  0  0  0  0
   52.1102   30.8565   41.2434 H   0  0  0  0  0  0  0  0  0  0  0  0
   52.4847   32.4998   40.5480 H   0  0  0  0  0  0  0  0  0  0  0  0
   51.5050   33.1773   42.4852 H   0  0  0  0  0  0  0  0  0  0  0  0
   50.4982   31.7049   42.6379 H   0  0  0  0  0  0  0  0  0  0  0  0
   47.6111   32.9319   46.7086 H   0  0  0  0  0  0  0  0  0  0  0  0
   46.0998   33.5475   47.5338 H   0  0  0  0  0  0  0  0  0  0  0  0
   46.3597   31.2137   44.6394 H   0  0  0  0  0  0  0  0  0  0  0  0
   45.3682   28.9500   44.7970 H   0  0  0  0  0  0  0  0  0  0  0  0
   43.8839   27.3799   47.6533 H   0  0  0  0  0  0  0  0  0  0  0  0
   44.3414   27.2798   45.9319 H   0  0  0  0  0  0  0  0  0  0  0  0
  1  6  2  0
  2  3  2  0
  2  1  1  0
  3  4  1  0
  4  5  2  0
  5 16  1  0
  6  5  1  0
  7  9  1  0
  7  3  1  0
  8  7  1  0
  8  9  1  0
 10 15  1  0
 10  9  1  0
 11 10  1  0
 12 11  1  0
 13 12  1  0
 13 14  1  0
 14 15  1  0
 16 17  1  0
 17 23  1  0
 18 19  2  0
 18 17  1  0
 19 20  1  0
 20 22  2  0
 21 20  1  0
 23 22  1  0
 23 24  2  0
  1 25  1  0
  2 26  1  0
  7 27  1  6
  8 28  1  0
  8 29  1  0
  9 30  1  1
 10 31  1  0
 11 32  1  0
 11 33  1  0
 12 34  1  0
 12 35  1  0
 13 36  1  0
 13 37  1  0
 14 38  1  0
 14 39  1  0
 15 40  1  0
 15 41  1  0
 16 42  1  0
 16 43  1  0
 18 44  1  0
 19 45  1  0
 21 46  1  0
 21 47  1  0
M  ISO  8  25  14  26  14  27  13  28  13  29  13  30  13  31  13  32  13
M  ISO  8  33  13  34  13  35  13  36  13  37  13  38  13  39  13  40  13
M  ISO  5  41  13  42   8  43   8  44  14  45  14
M  END
>  <minimizedAffinity>  (1) 
-5.94661379

>  <minimizedRMSD>  (1) 
0.91548413

$$$$
