
     RDKit          3D

 34 36  0  0  1  0  0  0  0  0999 V2000
   44.9450   35.0440   43.7780 C   0  0  0  0  0  0  0  0  0  0  0  0
   45.6130   34.7250   42.6030 C   0  0  0  0  0  0  0  0  0  0  0  0
   46.6630   33.8300   42.6710 C   0  0  0  0  0  0  0  0  0  0  0  0
   47.0320   33.2750   43.8560 N   0  0  0  0  0  0  0  0  0  0  0  0
   46.3490   33.6150   44.9920 C   0  0  0  0  0  0  0  0  0  0  0  0
   45.3160   34.4920   44.9430 N   0  0  0  0  0  0  0  0  0  0  0  0
   47.3700   33.4630   41.4330 C   0  0  1  0  0  0  0  0  0  0  0  0
   47.7680   34.6110   40.4970 C   0  0  0  0  0  0  0  0  0  0  0  0
   48.7950   33.8320   41.2500 C   0  0  1  0  0  0  0  0  0  0  0  0
   49.5090   34.6430   42.2690 C   0  0  0  0  0  0  0  0  0  0  0  0
   49.4690   35.8780   41.9740 O   0  0  0  0  0  0  0  0  0  0  0  0
   50.1850   35.3120   43.2500 O   0  0  0  0  0  0  0  0  0  0  0  0
   46.7850   32.9720   46.2480 C   0  0  0  0  0  0  0  0  0  0  0  0
   46.2090   31.6850   46.4650 N   0  0  0  0  0  0  0  0  0  0  0  0
   46.3280   30.6390   45.5930 C   0  0  0  0  0  0  0  0  0  0  0  0
   45.7390   29.4120   45.8710 C   0  0  0  0  0  0  0  0  0  0  0  0
   45.0120   29.2150   47.0440 C   0  0  0  0  0  0  0  0  0  0  0  0
   44.4650   27.8970   47.1860 N   0  0  0  0  0  0  0  0  0  0  0  0
   44.8820   30.2580   47.9310 N   0  0  0  0  0  0  0  0  0  0  0  0
   45.4920   31.3950   47.5600 C   0  0  0  0  0  0  0  0  0  0  0  0
   45.3570   32.3370   48.3930 O   0  0  0  0  0  0  0  0  0  0  0  0
   44.1056   35.7545   43.7532 H   0  0  0  0  0  0  0  0  0  0  0  0
   45.3140   35.1730   41.6439 H   0  0  0  0  0  0  0  0  0  0  0  0
   46.8101   32.5197   41.3518 H   0  0  0  0  0  0  0  0  0  0  0  0
   47.5498   35.6528   40.7747 H   0  0  0  0  0  0  0  0  0  0  0  0
   47.5902   34.8608   39.4406 H   0  0  0  0  0  0  0  0  0  0  0  0
   49.6757   33.2143   41.0200 H   0  0  0  0  0  0  0  0  0  0  0  0
   50.2627   36.2983   43.2133 H   0  0  0  0  0  0  0  0  0  0  0  0
   47.8792   32.8622   46.2200 H   0  0  0  0  0  0  0  0  0  0  0  0
   46.4481   33.6174   47.0726 H   0  0  0  0  0  0  0  0  0  0  0  0
   46.8966   30.7704   44.6606 H   0  0  0  0  0  0  0  0  0  0  0  0
   45.8478   28.5839   45.1552 H   0  0  0  0  0  0  0  0  0  0  0  0
   43.9119   27.6562   48.0208 H   0  0  0  0  0  0  0  0  0  0  0  0
   44.6252   27.1912   46.4531 H   0  0  0  0  0  0  0  0  0  0  0  0
  1  6  2  0
  2  3  2  0
  2  1  1  0
  3  4  1  0
  4  5  2  0
  5 13  1  0
  6  5  1  0
  7  3  1  0
  8  9  1  0
  8  7  1  0
  9  7  1  0
  9 10  1  0
 10 12  1  0
 11 10  2  0
 13 14  1  0
 14 20  1  0
 15 16  2  0
 15 14  1  0
 16 17  1  0
 17 18  1  0
 17 19  2  0
 20 19  1  0
 20 21  2  0
  1 22  1  0
  2 23  1  0
  7 24  1  6
  8 25  1  0
  8 26  1  0
  9 27  1  6
 12 28  1  0
 13 29  1  0
 13 30  1  0
 15 31  1  0
 16 32  1  0
 18 33  1  0
 18 34  1  0
M  ISO  8  22  14  23  14  24  13  25  13  26  13  27  13  28   3  29   8
M  ISO  3  30   8  31  14  32  14
M  END
>  <minimizedAffinity>  (1) 
-5.78201246

>  <minimizedRMSD>  (1) 
1.00720906

$$$$
