
     RDKit          3D

 34 36  0  0  1  0  0  0  0  0999 V2000
   44.9460   35.0120   44.3770 C   0  0  0  0  0  0  0  0  0  0  0  0
   45.8580   34.8620   43.3380 C   0  0  0  0  0  0  0  0  0  0  0  0
   46.9560   34.0470   43.5440 C   0  0  0  0  0  0  0  0  0  0  0  0
   47.1340   33.4090   44.7310 N   0  0  0  0  0  0  0  0  0  0  0  0
   46.2230   33.5770   45.7220 C   0  0  0  0  0  0  0  0  0  0  0  0
   45.1420   34.3740   45.5390 N   0  0  0  0  0  0  0  0  0  0  0  0
   47.9070   33.8830   42.4230 C   0  0  1  0  0  0  0  0  0  0  0  0
   48.9490   35.0110   42.2400 C   0  0  0  0  0  0  0  0  0  0  0  0
   49.3430   33.6640   42.7080 C   0  0  2  0  0  0  0  0  0  0  0  0
   50.0560   32.7560   41.7030 C   0  0  0  0  0  0  0  0  0  0  0  0
   49.5170   32.9970   40.4620 F   0  0  0  0  0  0  0  0  0  0  0  0
   51.4080   33.0520   41.7230 F   0  0  0  0  0  0  0  0  0  0  0  0
   49.8910   31.4280   42.0040 F   0  0  0  0  0  0  0  0  0  0  0  0
   46.4720   32.8470   46.9830 C   0  0  0  0  0  0  0  0  0  0  0  0
   45.9500   31.5130   46.9870 N   0  0  0  0  0  0  0  0  0  0  0  0
   45.8540   30.7340   45.8680 C   0  0  0  0  0  0  0  0  0  0  0  0
   45.3350   29.4490   45.9540 C   0  0  0  0  0  0  0  0  0  0  0  0
   44.9060   28.9330   47.1800 C   0  0  0  0  0  0  0  0  0  0  0  0
   44.4050   27.5790   47.0860 N   0  0  0  0  0  0  0  0  0  0  0  0
   44.9970   29.7000   48.3060 N   0  0  0  0  0  0  0  0  0  0  0  0
   45.5140   30.9310   48.1150 C   0  0  0  0  0  0  0  0  0  0  0  0
   45.5900   31.6250   49.1720 O   0  0  0  0  0  0  0  0  0  0  0  0
   44.0632   35.6548   44.2449 H   0  0  0  0  0  0  0  0  0  0  0  0
   45.7099   35.3779   42.3778 H   0  0  0  0  0  0  0  0  0  0  0  0
   47.1602   33.3664   41.8022 H   0  0  0  0  0  0  0  0  0  0  0  0
   49.2268   35.3503   41.2312 H   0  0  0  0  0  0  0  0  0  0  0  0
   49.0686   36.0391   42.6125 H   0  0  0  0  0  0  0  0  0  0  0  0
   49.9186   33.3165   43.5786 H   0  0  0  0  0  0  0  0  0  0  0  0
   47.5586   32.7955   47.1461 H   0  0  0  0  0  0  0  0  0  0  0  0
   45.9542   33.3980   47.7819 H   0  0  0  0  0  0  0  0  0  0  0  0
   46.1889   31.1262   44.8964 H   0  0  0  0  0  0  0  0  0  0  0  0
   45.2607   28.8304   45.0474 H   0  0  0  0  0  0  0  0  0  0  0  0
   44.0614   27.0973   47.9291 H   0  0  0  0  0  0  0  0  0  0  0  0
   44.3919   27.0967   46.1760 H   0  0  0  0  0  0  0  0  0  0  0  0
  1  6  2  0
  2  3  2  0
  2  1  1  0
  3  4  1  0
  4  5  2  0
  5 14  1  0
  6  5  1  0
  7  9  1  0
  7  3  1  0
  8  7  1  0
  8  9  1  0
 10 12  1  0
 10 13  1  0
 10  9  1  0
 11 10  1  0
 14 15  1  0
 15 21  1  0
 16 17  2  0
 16 15  1  0
 17 18  1  0
 18 20  2  0
 19 18  1  0
 21 20  1  0
 21 22  2  0
  1 23  1  0
  2 24  1  0
  7 25  1  6
  8 26  1  0
  8 27  1  0
  9 28  1  1
 14 29  1  0
 14 30  1  0
 16 31  1  0
 17 32  1  0
 19 33  1  0
 19 34  1  0
M  ISO  8  23  14  24  14  25  13  26  13  27  13  28  13  29   8  30   8
M  ISO  2  31  14  32  14
M  END
>  <minimizedAffinity>  (1) 
-5.47309589

>  <minimizedRMSD>  (1) 
1.00778198

$$$$
