
     RDKit          3D

 40 42  0  0  1  0  0  0  0  0999 V2000
   44.6810   35.2860   44.4020 C   0  0  0  0  0  0  0  0  0  0  0  0
   45.4670   35.1940   43.2660 C   0  0  0  0  0  0  0  0  0  0  0  0
   46.5910   34.3900   43.3060 C   0  0  0  0  0  0  0  0  0  0  0  0
   46.9150   33.7030   44.4340 N   0  0  0  0  0  0  0  0  0  0  0  0
   46.1190   33.8170   45.5300 C   0  0  0  0  0  0  0  0  0  0  0  0
   45.0160   34.5990   45.5120 N   0  0  0  0  0  0  0  0  0  0  0  0
   47.4190   34.2800   42.0870 C   0  0  1  0  0  0  0  0  0  0  0  0
   48.3990   35.4400   41.8150 C   0  0  0  0  0  0  0  0  0  0  0  0
   48.8820   34.0810   42.1990 C   0  0  2  0  0  0  0  0  0  0  0  0
   49.6550   33.2200   41.2510 C   0  0  0  0  0  0  0  0  0  0  0  0
   48.8720   31.9900   40.8630 C   0  0  0  0  0  0  0  0  0  0  0  0
   50.9170   32.7360   41.9500 C   0  0  0  0  0  0  0  0  0  0  0  0
   46.5120   33.0410   46.7230 C   0  0  0  0  0  0  0  0  0  0  0  0
   45.9690   31.7130   46.7600 N   0  0  0  0  0  0  0  0  0  0  0  0
   45.9430   30.8780   45.6850 C   0  0  0  0  0  0  0  0  0  0  0  0
   45.4050   29.6050   45.8040 C   0  0  0  0  0  0  0  0  0  0  0  0
   44.8830   29.1530   47.0130 C   0  0  0  0  0  0  0  0  0  0  0  0
   44.3740   27.8090   46.9600 N   0  0  0  0  0  0  0  0  0  0  0  0
   44.9090   30.0000   48.1070 N   0  0  0  0  0  0  0  0  0  0  0  0
   45.4500   31.2040   47.8820 C   0  0  0  0  0  0  0  0  0  0  0  0
   45.4560   31.9440   48.8970 O   0  0  0  0  0  0  0  0  0  0  0  0
   43.7823   35.9203   44.3986 H   0  0  0  0  0  0  0  0  0  0  0  0
   45.2033   35.7477   42.3528 H   0  0  0  0  0  0  0  0  0  0  0  0
   46.6184   33.7589   41.5415 H   0  0  0  0  0  0  0  0  0  0  0  0
   48.5471   35.8121   40.7905 H   0  0  0  0  0  0  0  0  0  0  0  0
   48.5356   36.4617   42.1991 H   0  0  0  0  0  0  0  0  0  0  0  0
   49.5362   33.6948   42.9945 H   0  0  0  0  0  0  0  0  0  0  0  0
   49.8763   33.8180   40.3546 H   0  0  0  0  0  0  0  0  0  0  0  0
   48.5385   31.4661   41.7709 H   0  0  0  0  0  0  0  0  0  0  0  0
   47.9957   32.2859   40.2676 H   0  0  0  0  0  0  0  0  0  0  0  0
   49.5110   31.3213   40.2676 H   0  0  0  0  0  0  0  0  0  0  0  0
   50.7763   32.7900   43.0396 H   0  0  0  0  0  0  0  0  0  0  0  0
   51.1219   31.6955   41.6578 H   0  0  0  0  0  0  0  0  0  0  0  0
   51.7651   33.3727   41.6578 H   0  0  0  0  0  0  0  0  0  0  0  0
   47.6093   32.9667   46.7414 H   0  0  0  0  0  0  0  0  0  0  0  0
   46.1091   33.5742   47.5967 H   0  0  0  0  0  0  0  0  0  0  0  0
   46.3497   31.2137   44.7196 H   0  0  0  0  0  0  0  0  0  0  0  0
   45.3905   28.9407   44.9274 H   0  0  0  0  0  0  0  0  0  0  0  0
   43.9656   27.3794   47.8023 H   0  0  0  0  0  0  0  0  0  0  0  0
   44.4179   27.2760   46.0797 H   0  0  0  0  0  0  0  0  0  0  0  0
  1  6  2  0
  2  3  2  0
  2  1  1  0
  3  4  1  0
  4  5  2  0
  5 13  1  0
  6  5  1  0
  7  9  1  0
  7  3  1  0
  8  7  1  0
  8  9  1  0
 10 12  1  0
 10  9  1  0
 11 10  1  0
 13 14  1  0
 14 20  1  0
 15 16  2  0
 15 14  1  0
 16 17  1  0
 17 19  2  0
 18 17  1  0
 20 19  1  0
 20 21  2  0
  1 22  1  0
  2 23  1  0
  7 24  1  6
  8 25  1  0
  8 26  1  0
  9 27  1  1
 10 28  1  0
 11 29  1  0
 11 30  1  0
 11 31  1  0
 12 32  1  0
 12 33  1  0
 12 34  1  0
 13 35  1  0
 13 36  1  0
 15 37  1  0
 16 38  1  0
 18 39  1  0
 18 40  1  0
M  ISO  8  22  14  23  14  24  13  25  13  26  13  27  13  28   8  29   8
M  ISO  8  30   8  31   8  32   8  33   8  34   8  35   8  36   8  37  14
M  ISO  1  38  14
M  END
>  <minimizedAffinity>  (1) 
-5.4265666

>  <minimizedRMSD>  (1) 
1.06132782

$$$$
