
     RDKit          3D

 32 34  0  0  1  0  0  0  0  0999 V2000
   44.9720   34.8570   43.5450 C   0  0  0  0  0  0  0  0  0  0  0  0
   46.0270   34.8500   42.6390 C   0  0  0  0  0  0  0  0  0  0  0  0
   47.2140   34.2610   43.0300 C   0  0  0  0  0  0  0  0  0  0  0  0
   47.3430   33.7050   44.2640 N   0  0  0  0  0  0  0  0  0  0  0  0
   46.2890   33.7330   45.1210 C   0  0  0  0  0  0  0  0  0  0  0  0
   45.1180   34.3020   44.7650 N   0  0  0  0  0  0  0  0  0  0  0  0
   48.3300   34.2310   42.0670 C   0  0  1  0  0  0  0  0  0  0  0  0
   49.0810   35.5530   41.8340 C   0  0  0  0  0  0  0  0  0  0  0  0
   49.7270   34.4010   42.5300 C   0  0  2  0  0  0  0  0  0  0  0  0
   50.7910   33.7560   41.9270 O   0  0  0  0  0  0  0  0  0  0  0  0
   46.4890   33.1040   46.4430 C   0  0  0  0  0  0  0  0  0  0  0  0
   45.9630   31.7690   46.5320 N   0  0  0  0  0  0  0  0  0  0  0  0
   45.9500   30.8860   45.4990 C   0  0  0  0  0  0  0  0  0  0  0  0
   45.4200   29.6150   45.6700 C   0  0  0  0  0  0  0  0  0  0  0  0
   44.8930   29.2120   46.8940 C   0  0  0  0  0  0  0  0  0  0  0  0
   44.3830   27.8710   46.9060 N   0  0  0  0  0  0  0  0  0  0  0  0
   44.9030   30.0990   47.9420 N   0  0  0  0  0  0  0  0  0  0  0  0
   45.4370   31.2990   47.6720 C   0  0  0  0  0  0  0  0  0  0  0  0
   45.4330   32.0900   48.6560 O   0  0  0  0  0  0  0  0  0  0  0  0
   44.0133   35.3178   43.2648 H   0  0  0  0  0  0  0  0  0  0  0  0
   45.9196   35.2999   41.6410 H   0  0  0  0  0  0  0  0  0  0  0  0
   47.8190   33.4773   41.4499 H   0  0  0  0  0  0  0  0  0  0  0  0
   49.4002   35.8378   40.8206 H   0  0  0  0  0  0  0  0  0  0  0  0
   48.8999   36.6124   42.0684 H   0  0  0  0  0  0  0  0  0  0  0  0
   50.2133   34.2482   43.5047 H   0  0  0  0  0  0  0  0  0  0  0  0
   51.3930   33.3910   42.6230 H   0  0  0  0  0  0  0  0  0  0  0  0
   47.5686   33.0667   46.6503 H   0  0  0  0  0  0  0  0  0  0  0  0
   45.9424   33.7150   47.1764 H   0  0  0  0  0  0  0  0  0  0  0  0
   46.3617   31.1803   44.5223 H   0  0  0  0  0  0  0  0  0  0  0  0
   45.4162   28.9131   44.8231 H   0  0  0  0  0  0  0  0  0  0  0  0
   43.9729   27.4837   47.7678 H   0  0  0  0  0  0  0  0  0  0  0  0
   44.4270   27.2956   46.0528 H   0  0  0  0  0  0  0  0  0  0  0  0
  1  6  2  0
  2  3  2  0
  2  1  1  0
  3  4  1  0
  4  5  2  0
  5 11  1  0
  6  5  1  0
  7  9  1  0
  7  3  1  0
  8  7  1  0
  8  9  1  0
 10  9  1  0
 11 12  1  0
 12 18  1  0
 13 14  2  0
 13 12  1  0
 14 15  1  0
 15 16  1  0
 15 17  2  0
 18 17  1  0
 18 19  2  0
  1 20  1  0
  2 21  1  0
  7 22  1  6
  8 23  1  0
  8 24  1  0
  9 25  1  1
 10 26  1  0
 11 27  1  0
 11 28  1  0
 13 29  1  0
 14 30  1  0
 16 31  1  0
 16 32  1  0
M  ISO  8  20  14  21  14  22  13  23  13  24  13  25  13  26   3  27   8
M  ISO  3  28   8  29  14  30  14
M  END
>  <minimizedAffinity>  (1) 
-5.29217672

>  <minimizedRMSD>  (1) 
0.263401449

$$$$
