
     RDKit          3D

 34 36  0  0  1  0  0  0  0  0999 V2000
   45.0380   34.7980   43.5520 C   0  0  0  0  0  0  0  0  0  0  0  0
   46.1210   34.7190   42.6870 C   0  0  0  0  0  0  0  0  0  0  0  0
   47.2790   34.1050   43.1290 C   0  0  0  0  0  0  0  0  0  0  0  0
   47.3490   33.5920   44.3850 N   0  0  0  0  0  0  0  0  0  0  0  0
   46.2700   33.6860   45.2060 C   0  0  0  0  0  0  0  0  0  0  0  0
   45.1270   34.2850   44.7870 N   0  0  0  0  0  0  0  0  0  0  0  0
   48.4160   34.0100   42.1980 C   0  0  1  0  0  0  0  0  0  0  0  0
   49.2920   35.2680   42.0360 C   0  0  0  0  0  0  0  0  0  0  0  0
   49.8040   34.0490   42.7160 C   0  0  2  0  0  0  0  0  0  0  0  0
   50.7890   33.1450   41.9850 C   0  0  0  0  0  0  0  0  0  0  0  0
   46.3970   33.1030   46.5500 C   0  0  0  0  0  0  0  0  0  0  0  0
   45.9140   31.7540   46.6460 N   0  0  0  0  0  0  0  0  0  0  0  0
   45.9010   30.8760   45.6090 C   0  0  0  0  0  0  0  0  0  0  0  0
   45.4210   29.5940   45.8030 C   0  0  0  0  0  0  0  0  0  0  0  0
   44.9480   29.1770   47.0410 C   0  0  0  0  0  0  0  0  0  0  0  0
   44.5040   27.8000   47.0540 N   0  0  0  0  0  0  0  0  0  0  0  0
   44.9520   30.0450   48.0930 N   0  0  0  0  0  0  0  0  0  0  0  0
   45.4390   31.2760   47.8090 C   0  0  0  0  0  0  0  0  0  0  0  0
   45.4360   32.0670   48.7960 O   0  0  0  0  0  0  0  0  0  0  0  0
   44.1063   35.2819   43.2236 H   0  0  0  0  0  0  0  0  0  0  0  0
   46.0595   35.1361   41.6710 H   0  0  0  0  0  0  0  0  0  0  0  0
   47.8635   33.3261   41.5369 H   0  0  0  0  0  0  0  0  0  0  0  0
   49.6757   35.5519   41.0450 H   0  0  0  0  0  0  0  0  0  0  0  0
   49.1955   36.3321   42.2974 H   0  0  0  0  0  0  0  0  0  0  0  0
   50.2858   33.8969   43.6931 H   0  0  0  0  0  0  0  0  0  0  0  0
   51.3926   32.5911   42.7191 H   0  0  0  0  0  0  0  0  0  0  0  0
   50.2355   32.4340   41.3541 H   0  0  0  0  0  0  0  0  0  0  0  0
   51.4500   33.7574   41.3541 H   0  0  0  0  0  0  0  0  0  0  0  0
   47.4601   33.1114   46.8323 H   0  0  0  0  0  0  0  0  0  0  0  0
   45.7770   33.7133   47.2232 H   0  0  0  0  0  0  0  0  0  0  0  0
   46.2707   31.1838   44.6197 H   0  0  0  0  0  0  0  0  0  0  0  0
   45.4134   28.8888   44.9588 H   0  0  0  0  0  0  0  0  0  0  0  0
   44.1337   27.3865   47.9216 H   0  0  0  0  0  0  0  0  0  0  0  0
   44.5582   27.2333   46.1956 H   0  0  0  0  0  0  0  0  0  0  0  0
  1  6  2  0
  2  3  2  0
  2  1  1  0
  3  4  1  0
  4  5  2  0
  5 11  1  0
  6  5  1  0
  7  9  1  0
  7  3  1  0
  8  7  1  0
  8  9  1  0
 10  9  1  0
 11 12  1  0
 12 18  1  0
 13 14  2  0
 13 12  1  0
 14 15  1  0
 15 16  1  0
 15 17  2  0
 18 17  1  0
 18 19  2  0
  1 20  1  0
  2 21  1  0
  7 22  1  6
  8 23  1  0
  8 24  1  0
  9 25  1  1
 10 26  1  0
 10 27  1  0
 10 28  1  0
 11 29  1  0
 11 30  1  0
 13 31  1  0
 14 32  1  0
 16 33  1  0
 16 34  1  0
M  ISO  8  20  14  21  14  22  13  23  13  24  13  25  13  26   8  27   8
M  ISO  5  28   8  29   8  30   8  31  14  32  14
M  END
>  <minimizedAffinity>  (1) 
-5.2089572

>  <minimizedRMSD>  (1) 
0.474999636

$$$$
