
     RDKit          3D

 32 34  0  0  1  0  0  0  0  0999 V2000
   44.1080   35.3910   41.7940 C   0  0  0  0  0  0  0  0  0  0  0  0
   42.7280   35.4910   41.6780 C   0  0  0  0  0  0  0  0  0  0  0  0
   42.0630   34.5720   40.8870 C   0  0  0  0  0  0  0  0  0  0  0  0
   42.7550   33.5980   40.2420 N   0  0  0  0  0  0  0  0  0  0  0  0
   44.1080   33.5280   40.3790 C   0  0  0  0  0  0  0  0  0  0  0  0
   44.7740   34.4200   41.1490 N   0  0  0  0  0  0  0  0  0  0  0  0
   40.6000   34.6580   40.7780 C   0  0  1  0  0  0  0  0  0  0  0  0
   40.0080   36.0640   40.5590 C   0  0  0  0  0  0  0  0  0  0  0  0
   39.9640   35.0220   39.4900 C   0  0  1  0  0  0  0  0  0  0  0  0
   40.9830   35.3950   38.0430 S   0  0  0  0  0  0  0  0  0  0  0  0
   44.7960   32.4350   39.6570 C   0  0  0  0  0  0  0  0  0  0  0  0
   46.0370   32.8270   39.0600 N   0  0  0  0  0  0  0  0  0  0  0  0
   47.2170   32.8650   39.7350 C   0  0  0  0  0  0  0  0  0  0  0  0
   48.3880   33.2700   39.0930 C   0  0  0  0  0  0  0  0  0  0  0  0
   48.3650   33.6420   37.7440 C   0  0  0  0  0  0  0  0  0  0  0  0
   49.6260   34.0490   37.2280 N   0  0  0  0  0  0  0  0  0  0  0  0
   47.1870   33.6060   37.0540 N   0  0  0  0  0  0  0  0  0  0  0  0
   46.1100   33.2000   37.7710 C   0  0  0  0  0  0  0  0  0  0  0  0
   45.0300   33.1720   37.1190 O   0  0  0  0  0  0  0  0  0  0  0  0
   44.6584   36.1110   42.4175 H   0  0  0  0  0  0  0  0  0  0  0  0
   42.1758   36.2838   42.2038 H   0  0  0  0  0  0  0  0  0  0  0  0
   40.4623   33.8274   41.4860 H   0  0  0  0  0  0  0  0  0  0  0  0
   39.0861   36.3644   41.0786 H   0  0  0  0  0  0  0  0  0  0  0  0
   40.3811   37.0958   40.6372 H   0  0  0  0  0  0  0  0  0  0  0  0
   39.1871   34.5216   38.8933 H   0  0  0  0  0  0  0  0  0  0  0  0
   42.2107   35.8444   38.4526 H   0  0  0  0  0  0  0  0  0  0  0  0
   44.9959   31.6210   40.3694 H   0  0  0  0  0  0  0  0  0  0  0  0
   44.1309   32.1244   38.8378 H   0  0  0  0  0  0  0  0  0  0  0  0
   47.2487   32.5742   40.7954 H   0  0  0  0  0  0  0  0  0  0  0  0
   49.3356   33.2970   39.6510 H   0  0  0  0  0  0  0  0  0  0  0  0
   49.7097   34.3413   36.2439 H   0  0  0  0  0  0  0  0  0  0  0  0
   50.4557   34.0515   37.8383 H   0  0  0  0  0  0  0  0  0  0  0  0
  2  1  2  0
  3  2  1  0
  4  5  1  0
  4  3  2  0
  5  6  2  0
  6  1  1  0
  7  3  1  0
  8  7  1  0
  9  8  1  0
  9  7  1  0
 10  9  1  0
 11  5  1  0
 12 11  1  0
 12 13  1  0
 14 13  2  0
 15 14  1  0
 16 15  1  0
 17 15  2  0
 17 18  1  0
 18 12  1  0
 19 18  2  0
  1 20  1  0
  2 21  1  0
  7 22  1  1
  8 23  1  0
  8 24  1  0
  9 25  1  6
 10 26  1  0
 11 27  1  0
 11 28  1  0
 13 29  1  0
 14 30  1  0
 16 31  1  0
 16 32  1  0
M  ISO  8  20  14  21  14  22  13  23  13  24  13  25  13  26  11  27   8
M  ISO  3  28   8  29  14  30  14
M  END
>  <minimizedAffinity>  (1) 
-4.79910278

>  <minimizedRMSD>  (1) 
8.29992008

$$$$
