
     RDKit          3D

 33 35  0  0  1  0  0  0  0  0999 V2000
   45.0840   34.8750   43.7240 C   0  0  0  0  0  0  0  0  0  0  0  0
   46.1440   34.7890   42.8220 C   0  0  0  0  0  0  0  0  0  0  0  0
   47.2840   34.1100   43.2110 C   0  0  0  0  0  0  0  0  0  0  0  0
   47.3580   33.5480   44.4440 N   0  0  0  0  0  0  0  0  0  0  0  0
   46.3080   33.6480   45.3020 C   0  0  0  0  0  0  0  0  0  0  0  0
   45.1850   34.3070   44.9390 N   0  0  0  0  0  0  0  0  0  0  0  0
   48.3910   33.9990   42.2550 C   0  0  1  0  0  0  0  0  0  0  0  0
   49.3260   35.2150   42.1300 C   0  0  0  0  0  0  0  0  0  0  0  0
   49.7900   33.9310   42.7380 C   0  0  2  0  0  0  0  0  0  0  0  0
   50.8040   33.1320   41.9790 C   0  0  0  0  0  0  0  0  0  0  0  0
   50.4150   32.3410   41.1080 O   0  0  0  0  0  0  0  0  0  0  0  0
   46.4530   33.0010   46.6240 C   0  0  0  0  0  0  0  0  0  0  0  0
   45.9340   31.6720   46.6710 N   0  0  0  0  0  0  0  0  0  0  0  0
   45.9100   30.8250   45.5980 C   0  0  0  0  0  0  0  0  0  0  0  0
   45.3900   29.5430   45.7200 C   0  0  0  0  0  0  0  0  0  0  0  0
   44.8800   29.0850   46.9330 C   0  0  0  0  0  0  0  0  0  0  0  0
   44.3800   27.7420   46.8980 N   0  0  0  0  0  0  0  0  0  0  0  0
   44.8970   29.9220   48.0250 N   0  0  0  0  0  0  0  0  0  0  0  0
   45.4240   31.1420   47.7900 C   0  0  0  0  0  0  0  0  0  0  0  0
   45.4260   31.8910   48.8070 O   0  0  0  0  0  0  0  0  0  0  0  0
   44.1642   35.4080   43.4415 H   0  0  0  0  0  0  0  0  0  0  0  0
   46.0750   35.2499   41.8256 H   0  0  0  0  0  0  0  0  0  0  0  0
   47.7876   33.3783   41.5763 H   0  0  0  0  0  0  0  0  0  0  0  0
   49.6993   35.5280   41.1438 H   0  0  0  0  0  0  0  0  0  0  0  0
   49.2933   36.2683   42.4453 H   0  0  0  0  0  0  0  0  0  0  0  0
   50.2383   33.6426   43.7002 H   0  0  0  0  0  0  0  0  0  0  0  0
   51.8773   33.2455   42.1913 H   0  0  0  0  0  0  0  0  0  0  0  0
   47.5227   32.9656   46.8781 H   0  0  0  0  0  0  0  0  0  0  0  0
   45.8716   33.5994   47.3409 H   0  0  0  0  0  0  0  0  0  0  0  0
   46.3063   31.1622   44.6289 H   0  0  0  0  0  0  0  0  0  0  0  0
   45.3806   28.8778   44.8440 H   0  0  0  0  0  0  0  0  0  0  0  0
   43.9833   27.3178   47.7486 H   0  0  0  0  0  0  0  0  0  0  0  0
   44.4175   27.2012   46.0222 H   0  0  0  0  0  0  0  0  0  0  0  0
  1  6  2  0
  2  3  2  0
  2  1  1  0
  3  4  1  0
  4  5  2  0
  5 12  1  0
  6  5  1  0
  7  9  1  0
  7  3  1  0
  8  7  1  0
  8  9  1  0
 10  9  1  0
 11 10  2  0
 12 13  1  0
 13 19  1  0
 14 15  2  0
 14 13  1  0
 15 16  1  0
 16 18  2  0
 17 16  1  0
 19 18  1  0
 19 20  2  0
  1 21  1  0
  2 22  1  0
  7 23  1  6
  8 24  1  0
  8 25  1  0
  9 26  1  1
 10 27  1  0
 12 28  1  0
 12 29  1  0
 14 30  1  0
 15 31  1  0
 17 32  1  0
 17 33  1  0
M  ISO  8  21  14  22  14  23  13  24  13  25  13  26  13  27   6  28   8
M  ISO  3  29   8  30  14  31  14
M  END
>  <minimizedAffinity>  (1) 
-5.05524778

>  <minimizedRMSD>  (1) 
0.643933296

$$$$
