
     RDKit          3D

 49 54  0  0  1  0  0  0  0  0999 V2000
   45.9140   31.9450   46.7270 N   0  0  0  0  0  0  0  0  0  0  0  0
   45.8710   30.8530   45.9280 C   0  0  0  0  0  0  0  0  0  0  0  0
   45.6540   29.5900   46.4330 C   0  0  0  0  0  0  0  0  0  0  0  0
   45.4690   29.4120   47.8030 C   0  0  0  0  0  0  0  0  0  0  0  0
   45.2760   28.0600   48.2290 N   0  0  0  0  0  0  0  0  0  0  0  0
   45.5050   30.4910   48.6380 N   0  0  0  0  0  0  0  0  0  0  0  0
   45.7280   31.6840   48.0210 C   0  0  0  0  0  0  0  0  0  0  0  0
   45.7580   32.6700   48.8120 O   0  0  0  0  0  0  0  0  0  0  0  0
   45.3800   28.4170   45.6820 C   0  0  2  0  0  0  0  0  0  0  0  0
   45.7880   27.4490   44.9540 N   0  0  0  0  0  0  0  0  0  0  0  0
   46.1700   26.5610   44.2870 C   0  0  0  0  0  0  0  0  0  0  0  0
   44.8890   26.2680   43.8640 N   0  0  0  0  0  0  0  0  0  0  0  0
   43.8450   27.0140   44.3140 C   0  0  0  0  0  0  0  0  0  0  0  0
   42.5370   26.7400   43.7990 C   0  0  0  0  0  0  0  0  0  0  0  0
   41.4840   27.5400   44.1730 C   0  0  0  0  0  0  0  0  0  0  0  0
   41.6380   28.6260   45.0520 C   0  0  0  0  0  0  0  0  0  0  0  0
   42.9320   28.7830   45.4750 C   0  0  0  0  0  0  0  0  0  0  0  0
   44.1170   28.0660   45.2040 C   0  0  1  0  0  0  0  0  0  0  0  0
   46.1320   33.2820   46.2580 C   0  0  0  0  0  0  0  0  0  0  0  0
   44.8410   33.5230   42.7720 C   0  0  0  0  0  0  0  0  0  0  0  0
   46.0230   33.6370   42.0580 C   0  0  0  0  0  0  0  0  0  0  0  0
   47.2150   33.6360   42.7550 C   0  0  0  0  0  0  0  0  0  0  0  0
   47.2400   33.5250   44.1210 N   0  0  0  0  0  0  0  0  0  0  0  0
   46.0500   33.4130   44.7880 C   0  0  0  0  0  0  0  0  0  0  0  0
   44.8780   33.4140   44.1120 N   0  0  0  0  0  0  0  0  0  0  0  0
   48.4970   33.7410   42.0340 C   0  0  1  0  0  0  0  0  0  0  0  0
   49.0680   35.1260   41.8170 C   0  0  0  0  0  0  0  0  0  0  0  0
   49.7360   34.0930   42.7100 C   0  0  2  0  0  0  0  0  0  0  0  0
   51.0470   33.5110   42.2320 C   0  0  0  0  0  0  0  0  0  0  0  0
   51.0580   32.3050   41.8780 O   0  0  0  0  0  0  0  0  0  0  0  0
   46.0134   30.9779   44.8444 H   0  0  0  0  0  0  0  0  0  0  0  0
   45.1328   27.8500   49.2271 H   0  0  0  0  0  0  0  0  0  0  0  0
   45.2802   27.2966   47.5376 H   0  0  0  0  0  0  0  0  0  0  0  0
   46.1273   28.7643   46.4107 H   0  0  0  0  0  0  0  0  0  0  0  0
   47.1611   26.1309   44.0802 H   0  0  0  0  0  0  0  0  0  0  0  0
   42.3767   25.8972   43.1106 H   0  0  0  0  0  0  0  0  0  0  0  0
   41.0702   27.9559   43.2425 H   0  0  0  0  0  0  0  0  0  0  0  0
   40.8755   26.8475   44.7731 H   0  0  0  0  0  0  0  0  0  0  0  0
   40.8101   29.2787   45.3661 H   0  0  0  0  0  0  0  0  0  0  0  0
   43.0748   29.6330   46.1585 H   0  0  0  0  0  0  0  0  0  0  0  0
   45.3719   33.9371   46.7087 H   0  0  0  0  0  0  0  0  0  0  0  0
   47.1539   33.5646   46.5510 H   0  0  0  0  0  0  0  0  0  0  0  0
   43.8757   33.5217   42.2446 H   0  0  0  0  0  0  0  0  0  0  0  0
   46.0120   33.7262   40.9617 H   0  0  0  0  0  0  0  0  0  0  0  0
   48.2148   32.8889   41.3981 H   0  0  0  0  0  0  0  0  0  0  0  0
   49.5152   35.3992   40.8499 H   0  0  0  0  0  0  0  0  0  0  0  0
   48.7082   36.1592   41.9309 H   0  0  0  0  0  0  0  0  0  0  0  0
   50.0614   34.0526   43.7600 H   0  0  0  0  0  0  0  0  0  0  0  0
   51.9606   34.1225   42.1953 H   0  0  0  0  0  0  0  0  0  0  0  0
  1  7  1  0
  2  3  2  0
  2  1  1  0
  3  4  1  0
  4  5  1  0
  4  6  2  0
  7  6  1  0
  7  8  2  0
  9  3  1  0
 10 18  1  0
 10  9  1  0
 11 10  1  0
 12 11  2  0
 12 13  1  0
 13 18  1  0
 14 15  1  0
 14 13  2  0
 15 16  1  0
 16 17  2  0
 18 17  1  6
 18  9  1  0
 19  1  1  0
 20 25  2  0
 21 22  2  0
 21 20  1  0
 22 23  1  0
 23 24  2  0
 24 19  1  0
 25 24  1  0
 26 28  1  0
 26 22  1  0
 27 26  1  0
 27 28  1  0
 29 28  1  0
 30 29  2  0
  2 31  1  0
  5 32  1  0
  5 33  1  0
  9 34  1  1
 11 35  1  0
 14 36  1  0
 15 37  1  0
 15 38  1  0
 16 39  1  0
 17 40  1  0
 19 41  1  0
 19 42  1  0
 20 43  1  0
 21 44  1  0
 26 45  1  6
 27 46  1  0
 27 47  1  0
 28 48  1  1
 29 49  1  0
M  ISO  8  31  14  34  13  35  13  36  13  37  13  38  13  39  13  40  13
M  ISO  8  41   8  42   8  43  14  44  14  45  13  46  13  47  13  48  13
M  ISO  1  49   6
M  END
>  <minimizedAffinity>  (1) 
-5.59339142

>  <minimizedRMSD>  (1) 
1.05038679

$$$$
