
     RDKit          3D

 49 53  0  0  1  0  0  0  0  0999 V2000
   46.3560   33.1790   46.8020 C   0  0  0  0  0  0  0  0  0  0  0  0
   45.9570   31.8280   47.0550 N   0  0  0  0  0  0  0  0  0  0  0  0
   45.7660   30.8870   46.0700 C   0  0  0  0  0  0  0  0  0  0  0  0
   45.3810   29.5940   46.3870 C   0  0  0  0  0  0  0  0  0  0  0  0
   45.1760   29.2060   47.7030 C   0  0  0  0  0  0  0  0  0  0  0  0
   44.7790   27.8400   47.8750 N   0  0  0  0  0  0  0  0  0  0  0  0
   45.3590   30.1250   48.7050 N   0  0  0  0  0  0  0  0  0  0  0  0
   45.7360   31.3610   48.2880 C   0  0  0  0  0  0  0  0  0  0  0  0
   45.9000   32.1930   49.2250 O   0  0  0  0  0  0  0  0  0  0  0  0
   45.2070   28.6760   45.2560 C   0  0  0  0  0  0  0  0  0  0  0  0
   46.3290   28.1300   44.6680 C   0  0  0  0  0  0  0  0  0  0  0  0
   46.2490   27.2480   43.5880 C   0  0  0  0  0  0  0  0  0  0  0  0
   44.9800   26.9250   43.1060 C   0  0  0  0  0  0  0  0  0  0  0  0
   43.8380   27.4560   43.6740 C   0  0  0  0  0  0  0  0  0  0  0  0
   42.5810   27.1230   43.1810 C   0  0  0  0  0  0  0  0  0  0  0  0
   41.4230   27.6510   43.7440 C   0  0  0  0  0  0  0  0  0  0  0  0
   41.6020   28.5120   44.8050 C   0  0  0  0  0  0  0  0  0  0  0  0
   42.8400   28.8580   45.3130 C   0  0  0  0  0  0  0  0  0  0  0  0
   43.9800   28.3180   44.7350 C   0  0  0  0  0  0  0  0  0  0  0  0
   44.9100   34.4360   43.6070 C   0  0  0  0  0  0  0  0  0  0  0  0
   45.9920   34.2780   42.7450 C   0  0  0  0  0  0  0  0  0  0  0  0
   47.1660   33.7630   43.2540 C   0  0  0  0  0  0  0  0  0  0  0  0
   47.2650   33.4170   44.5730 N   0  0  0  0  0  0  0  0  0  0  0  0
   46.1840   33.5870   45.3820 C   0  0  0  0  0  0  0  0  0  0  0  0
   45.0250   34.0900   44.8990 N   0  0  0  0  0  0  0  0  0  0  0  0
   48.3190   33.5540   42.3650 C   0  0  1  0  0  0  0  0  0  0  0  0
   48.8190   34.7560   41.5770 C   0  0  0  0  0  0  0  0  0  0  0  0
   49.6330   34.0790   42.6730 C   0  0  2  0  0  0  0  0  0  0  0  0
   50.8830   33.3430   42.2620 C   0  0  0  0  0  0  0  0  0  0  0  0
   50.9280   32.1130   42.5150 O   0  0  0  0  0  0  0  0  0  0  0  0
   45.7500   33.8460   47.4328 H   0  0  0  0  0  0  0  0  0  0  0  0
   47.4288   33.2508   47.0340 H   0  0  0  0  0  0  0  0  0  0  0  0
   45.9209   31.1645   45.0169 H   0  0  0  0  0  0  0  0  0  0  0  0
   44.6058   27.4691   48.8202 H   0  0  0  0  0  0  0  0  0  0  0  0
   44.6668   27.2289   47.0535 H   0  0  0  0  0  0  0  0  0  0  0  0
   47.3200   28.3982   45.0629 H   0  0  0  0  0  0  0  0  0  0  0  0
   47.1555   26.8225   43.1329 H   0  0  0  0  0  0  0  0  0  0  0  0
   44.8869   26.2331   42.2560 H   0  0  0  0  0  0  0  0  0  0  0  0
   42.5006   26.4298   42.3307 H   0  0  0  0  0  0  0  0  0  0  0  0
   40.4227   27.3958   43.3641 H   0  0  0  0  0  0  0  0  0  0  0  0
   40.7084   28.9490   45.2746 H   0  0  0  0  0  0  0  0  0  0  0  0
   42.9203   29.5514   46.1632 H   0  0  0  0  0  0  0  0  0  0  0  0
   43.9610   34.8443   43.2293 H   0  0  0  0  0  0  0  0  0  0  0  0
   45.9125   34.5571   41.6840 H   0  0  0  0  0  0  0  0  0  0  0  0
   47.9647   32.5394   42.1304 H   0  0  0  0  0  0  0  0  0  0  0  0
   49.1077   34.6508   40.5208 H   0  0  0  0  0  0  0  0  0  0  0  0
   48.4606   35.7741   41.3650 H   0  0  0  0  0  0  0  0  0  0  0  0
   50.1104   34.3958   43.6120 H   0  0  0  0  0  0  0  0  0  0  0  0
   51.7170   33.8589   41.7637 H   0  0  0  0  0  0  0  0  0  0  0  0
  1  2  1  0
  2  8  1  0
  3  4  2  0
  3  2  1  0
  4  5  1  0
  5  6  1  0
  5  7  2  0
  8  7  1  0
  8  9  2  0
 10  4  1  0
 11 10  2  0
 12 11  1  0
 13 12  2  0
 13 14  1  0
 14 19  2  0
 15 14  1  0
 15 16  2  0
 16 17  1  0
 17 18  2  0
 19 10  1  0
 19 18  1  0
 20 25  2  0
 21 22  2  0
 21 20  1  0
 22 23  1  0
 23 24  2  0
 24  1  1  0
 25 24  1  0
 26 28  1  0
 26 22  1  0
 27 26  1  0
 27 28  1  0
 29 30  2  0
 29 28  1  0
  1 31  1  0
  1 32  1  0
  3 33  1  0
  6 34  1  0
  6 35  1  0
 11 36  1  0
 12 37  1  0
 13 38  1  0
 15 39  1  0
 16 40  1  0
 17 41  1  0
 18 42  1  0
 20 43  1  0
 21 44  1  0
 26 45  1  6
 27 46  1  0
 27 47  1  0
 28 48  1  1
 29 49  1  0
M  ISO  8  31   8  32   8  33  14  36  14  37  14  38  14  39  14  40  14
M  ISO  8  41  14  42  14  43  14  44  14  45  13  46  13  47  13  48  13
M  ISO  1  49   6
M  END
>  <minimizedAffinity>  (1) 
-5.45909452

>  <minimizedRMSD>  (1) 
1.01186228

$$$$
