
     RDKit          3D

 46 50  0  0  1  0  0  0  0  0999 V2000
   45.9520   31.3100   47.2040 N   0  0  0  0  0  0  0  0  0  0  0  0
   45.8010   30.5810   46.0510 C   0  0  0  0  0  0  0  0  0  0  0  0
   45.2770   29.3000   46.0890 C   0  0  0  0  0  0  0  0  0  0  0  0
   44.8890   28.7120   47.2890 C   0  0  0  0  0  0  0  0  0  0  0  0
   44.3690   27.3820   47.1550 N   0  0  0  0  0  0  0  0  0  0  0  0
   45.0300   29.4220   48.4540 N   0  0  0  0  0  0  0  0  0  0  0  0
   45.5520   30.6640   48.3070 C   0  0  0  0  0  0  0  0  0  0  0  0
   45.6730   31.2990   49.3910 O   0  0  0  0  0  0  0  0  0  0  0  0
   45.1660   28.6360   44.8240 N   0  0  0  0  0  0  0  0  0  0  0  0
   46.2160   28.0030   44.2460 C   0  0  0  0  0  0  0  0  0  0  0  0
   45.8010   27.4770   43.0650 N   0  0  0  0  0  0  0  0  0  0  0  0
   44.5080   27.7900   42.9280 C   0  0  0  0  0  0  0  0  0  0  0  0
   43.5200   27.5680   41.9860 C   0  0  0  0  0  0  0  0  0  0  0  0
   42.2460   28.0260   42.1240 N   0  0  0  0  0  0  0  0  0  0  0  0
   41.8930   28.7350   43.2210 C   0  0  0  0  0  0  0  0  0  0  0  0
   42.8200   28.9760   44.1630 N   0  0  0  0  0  0  0  0  0  0  0  0
   44.0810   28.5280   44.0350 C   0  0  0  0  0  0  0  0  0  0  0  0
   43.8550   26.8310   40.8300 N   0  0  0  0  0  0  0  0  0  0  0  0
   46.4890   32.6410   47.2480 C   0  0  0  0  0  0  0  0  0  0  0  0
   44.7980   34.9830   44.8950 C   0  0  0  0  0  0  0  0  0  0  0  0
   45.6180   34.8700   43.7780 C   0  0  0  0  0  0  0  0  0  0  0  0
   46.7040   34.0280   43.8400 C   0  0  0  0  0  0  0  0  0  0  0  0
   46.9740   33.3170   44.9740 N   0  0  0  0  0  0  0  0  0  0  0  0
   46.1520   33.4480   46.0510 C   0  0  0  0  0  0  0  0  0  0  0  0
   45.0770   34.2750   46.0050 N   0  0  0  0  0  0  0  0  0  0  0  0
   47.5760   33.8630   42.6660 C   0  0  1  0  0  0  0  0  0  0  0  0
   47.9550   35.1170   41.8930 C   0  0  0  0  0  0  0  0  0  0  0  0
   48.9650   34.2830   42.6690 C   0  0  2  0  0  0  0  0  0  0  0  0
   49.9960   33.5210   41.8710 C   0  0  0  0  0  0  0  0  0  0  0  0
   51.1610   33.4540   42.3400 O   0  0  0  0  0  0  0  0  0  0  0  0
   46.0993   31.0189   45.0870 H   0  0  0  0  0  0  0  0  0  0  0  0
   44.0557   26.8651   47.9890 H   0  0  0  0  0  0  0  0  0  0  0  0
   44.3089   26.9438   46.2248 H   0  0  0  0  0  0  0  0  0  0  0  0
   47.2313   27.9282   44.6627 H   0  0  0  0  0  0  0  0  0  0  0  0
   40.8648   29.1076   43.3395 H   0  0  0  0  0  0  0  0  0  0  0  0
   44.8136   26.4752   40.7059 H   0  0  0  0  0  0  0  0  0  0  0  0
   43.1409   26.6489   40.1104 H   0  0  0  0  0  0  0  0  0  0  0  0
   46.0881   33.1502   48.1368 H   0  0  0  0  0  0  0  0  0  0  0  0
   47.5847   32.5498   47.2821 H   0  0  0  0  0  0  0  0  0  0  0  0
   43.9232   35.6495   44.8716 H   0  0  0  0  0  0  0  0  0  0  0  0
   45.4028   35.4421   42.8635 H   0  0  0  0  0  0  0  0  0  0  0  0
   47.0943   32.9009   42.4372 H   0  0  0  0  0  0  0  0  0  0  0  0
   47.9573   35.1154   40.7930 H   0  0  0  0  0  0  0  0  0  0  0  0
   47.6360   36.1696   41.8793 H   0  0  0  0  0  0  0  0  0  0  0  0
   49.6905   34.4735   43.4736 H   0  0  0  0  0  0  0  0  0  0  0  0
   49.7376   33.0423   40.9149 H   0  0  0  0  0  0  0  0  0  0  0  0
  1 19  1  0
  1  7  1  0
  2  3  2  0
  2  1  1  0
  3  4  1  0
  4  6  2  0
  5  4  1  0
  7  6  1  0
  7  8  2  0
  9  3  1  0
 10  9  1  0
 11 10  2  0
 12 11  1  0
 12 17  2  0
 13 14  2  0
 13 12  1  0
 14 15  1  0
 15 16  2  0
 17 16  1  0
 17  9  1  0
 18 13  1  0
 20 25  2  0
 21 22  2  0
 21 20  1  0
 22 23  1  0
 23 24  2  0
 24 19  1  0
 25 24  1  0
 26 28  1  0
 26 22  1  0
 27 26  1  0
 27 28  1  0
 29 30  2  0
 29 28  1  0
  2 31  1  0
  5 32  1  0
  5 33  1  0
 10 34  1  0
 15 35  1  0
 18 36  1  0
 18 37  1  0
 19 38  1  0
 19 39  1  0
 20 40  1  0
 21 41  1  0
 26 42  1  6
 27 43  1  0
 27 44  1  0
 28 45  1  1
 29 46  1  0
M  ISO  8  31  14  34  14  35  14  38   8  39   8  40  14  41  14  42  13
M  ISO  4  43  13  44  13  45  13  46   6
M  END
>  <minimizedAffinity>  (1) 
-5.44201279

>  <minimizedRMSD>  (1) 
1.82088149

$$$$
