
     RDKit          3D

 46 49  0  0  1  0  0  0  0  0999 V2000
   46.2550   32.7530   47.2370 C   0  0  0  0  0  0  0  0  0  0  0  0
   45.7600   31.4110   47.1630 N   0  0  0  0  0  0  0  0  0  0  0  0
   45.5200   30.7500   45.9790 C   0  0  0  0  0  0  0  0  0  0  0  0
   45.0460   29.4480   45.9820 C   0  0  0  0  0  0  0  0  0  0  0  0
   44.7980   28.7710   47.1810 C   0  0  0  0  0  0  0  0  0  0  0  0
   44.3160   27.4310   46.9990 N   0  0  0  0  0  0  0  0  0  0  0  0
   45.0300   29.4120   48.3650 N   0  0  0  0  0  0  0  0  0  0  0  0
   45.4910   30.6780   48.2450 C   0  0  0  0  0  0  0  0  0  0  0  0
   45.6980   31.2490   49.3560 O   0  0  0  0  0  0  0  0  0  0  0  0
   44.8280   28.8430   44.6980 N   0  0  0  0  0  0  0  0  0  0  0  0
   45.6910   27.8130   44.1260 C   0  0  0  0  0  0  0  0  0  0  0  0
   44.8230   26.8450   43.3800 C   0  0  0  0  0  0  0  0  0  0  0  0
   43.5150   26.7780   43.8050 O   0  0  0  0  0  0  0  0  0  0  0  0
   42.8220   27.9580   43.8360 C   0  0  0  0  0  0  0  0  0  0  0  0
   43.7160   29.1780   43.7980 C   0  0  0  0  0  0  0  0  0  0  0  0
   44.8000   35.1100   44.7500 C   0  0  0  0  0  0  0  0  0  0  0  0
   45.6550   34.9180   43.6690 C   0  0  0  0  0  0  0  0  0  0  0  0
   46.6890   34.0130   43.8070 C   0  0  0  0  0  0  0  0  0  0  0  0
   46.8710   33.3240   44.9740 N   0  0  0  0  0  0  0  0  0  0  0  0
   46.0130   33.5400   46.0060 C   0  0  0  0  0  0  0  0  0  0  0  0
   44.9940   34.4240   45.8870 N   0  0  0  0  0  0  0  0  0  0  0  0
   47.5960   33.7610   42.6740 C   0  0  1  0  0  0  0  0  0  0  0  0
   47.9090   34.9350   41.7580 C   0  0  0  0  0  0  0  0  0  0  0  0
   48.9540   34.2730   42.6460 C   0  0  2  0  0  0  0  0  0  0  0  0
   50.0530   33.4920   41.9690 C   0  0  0  0  0  0  0  0  0  0  0  0
   51.2250   33.6530   42.3960 O   0  0  0  0  0  0  0  0  0  0  0  0
   45.7602   33.2609   48.0780 H   0  0  0  0  0  0  0  0  0  0  0  0
   47.3449   32.6892   47.3715 H   0  0  0  0  0  0  0  0  0  0  0  0
   45.7062   31.2601   45.0224 H   0  0  0  0  0  0  0  0  0  0  0  0
   44.1021   26.8449   47.8185 H   0  0  0  0  0  0  0  0  0  0  0  0
   44.1841   27.0557   46.0489 H   0  0  0  0  0  0  0  0  0  0  0  0
   46.4153   28.2726   43.4374 H   0  0  0  0  0  0  0  0  0  0  0  0
   46.2467   27.2944   44.9212 H   0  0  0  0  0  0  0  0  0  0  0  0
   45.2653   25.8431   43.4829 H   0  0  0  0  0  0  0  0  0  0  0  0
   44.7870   27.2069   42.3419 H   0  0  0  0  0  0  0  0  0  0  0  0
   42.1493   27.9908   42.9663 H   0  0  0  0  0  0  0  0  0  0  0  0
   42.2709   27.9874   44.7875 H   0  0  0  0  0  0  0  0  0  0  0  0
   44.0827   29.3605   42.7771 H   0  0  0  0  0  0  0  0  0  0  0  0
   43.1894   30.0939   44.1043 H   0  0  0  0  0  0  0  0  0  0  0  0
   43.9661   35.8232   44.6726 H   0  0  0  0  0  0  0  0  0  0  0  0
   45.5111   35.4722   42.7298 H   0  0  0  0  0  0  0  0  0  0  0  0
   47.1848   32.7473   42.5583 H   0  0  0  0  0  0  0  0  0  0  0  0
   47.5337   35.9419   41.9930 H   0  0  0  0  0  0  0  0  0  0  0  0
   47.8022   35.1579   40.6861 H   0  0  0  0  0  0  0  0  0  0  0  0
   49.6466   34.6107   43.4310 H   0  0  0  0  0  0  0  0  0  0  0  0
   49.8377   32.8084   41.1345 H   0  0  0  0  0  0  0  0  0  0  0  0
  2  1  1  0
  2  8  1  0
  3  4  2  0
  3  2  1  0
  4  5  1  0
  5  7  2  0
  6  5  1  0
  8  7  1  0
  8  9  2  0
 10  4  1  0
 11 10  1  0
 12 13  1  0
 12 11  1  0
 13 14  1  0
 15 14  1  0
 15 10  1  0
 16 21  2  0
 17 18  2  0
 17 16  1  0
 18 19  1  0
 19 20  2  0
 20  1  1  0
 21 20  1  0
 22 18  1  0
 23 24  1  0
 23 22  1  0
 24 22  1  0
 25 26  2  0
 25 24  1  0
  1 27  1  0
  1 28  1  0
  3 29  1  0
  6 30  1  0
  6 31  1  0
 11 32  1  0
 11 33  1  0
 12 34  1  0
 12 35  1  0
 14 36  1  0
 14 37  1  0
 15 38  1  0
 15 39  1  0
 16 40  1  0
 17 41  1  0
 22 42  1  6
 23 43  1  0
 23 44  1  0
 24 45  1  1
 25 46  1  0
M  ISO  8  27   8  28   8  29  14  32  13  33  13  34  13  35  13  36  13
M  ISO  8  37  13  38  13  39  13  40  14  41  14  42  13  43  13  44  13
M  ISO  2  45  13  46   6
M  END
>  <minimizedAffinity>  (1) 
-5.25448561

>  <minimizedRMSD>  (1) 
1.16833246

$$$$
