
     RDKit          3D

 40 43  0  0  1  0  0  0  0  0999 V2000
   46.5060   32.6280   47.2340 C   0  0  0  0  0  0  0  0  0  0  0  0
   45.9600   31.3050   47.1900 N   0  0  0  0  0  0  0  0  0  0  0  0
   45.8000   30.5810   46.0430 C   0  0  0  0  0  0  0  0  0  0  0  0
   45.2650   29.3010   46.0610 C   0  0  0  0  0  0  0  0  0  0  0  0
   44.8720   28.7140   47.2600 C   0  0  0  0  0  0  0  0  0  0  0  0
   44.3330   27.3940   47.1490 N   0  0  0  0  0  0  0  0  0  0  0  0
   45.0210   29.4160   48.4230 N   0  0  0  0  0  0  0  0  0  0  0  0
   45.5550   30.6580   48.2910 C   0  0  0  0  0  0  0  0  0  0  0  0
   45.6840   31.2900   49.3730 O   0  0  0  0  0  0  0  0  0  0  0  0
   45.1210   28.5820   44.7960 C   0  0  0  0  0  0  0  0  0  0  0  0
   46.1120   28.2120   43.9420 C   0  0  0  0  0  0  0  0  0  0  0  0
   45.5600   27.5540   42.8670 C   0  0  0  0  0  0  0  0  0  0  0  0
   44.2070   27.5500   43.1180 C   0  0  0  0  0  0  0  0  0  0  0  0
   43.9850   28.1680   44.2710 O   0  0  0  0  0  0  0  0  0  0  0  0
   44.7980   34.9830   44.9040 C   0  0  0  0  0  0  0  0  0  0  0  0
   45.6150   34.8840   43.7850 C   0  0  0  0  0  0  0  0  0  0  0  0
   46.7090   34.0420   43.8410 C   0  0  0  0  0  0  0  0  0  0  0  0
   46.9820   33.3260   44.9650 N   0  0  0  0  0  0  0  0  0  0  0  0
   46.1590   33.4460   46.0440 C   0  0  0  0  0  0  0  0  0  0  0  0
   45.0810   34.2670   46.0070 N   0  0  0  0  0  0  0  0  0  0  0  0
   47.5810   33.8950   42.6600 C   0  0  1  0  0  0  0  0  0  0  0  0
   47.9710   35.1620   41.9170 C   0  0  0  0  0  0  0  0  0  0  0  0
   48.9730   34.3090   42.6780 C   0  0  2  0  0  0  0  0  0  0  0  0
   49.9970   33.5470   41.8660 C   0  0  0  0  0  0  0  0  0  0  0  0
   51.1590   33.4470   42.3360 O   0  0  0  0  0  0  0  0  0  0  0  0
   46.1207   33.1352   48.1308 H   0  0  0  0  0  0  0  0  0  0  0  0
   47.6013   32.5282   47.2529 H   0  0  0  0  0  0  0  0  0  0  0  0
   46.1024   31.0232   45.0823 H   0  0  0  0  0  0  0  0  0  0  0  0
   44.0197   26.8930   47.9927 H   0  0  0  0  0  0  0  0  0  0  0  0
   44.2581   26.9443   46.2254 H   0  0  0  0  0  0  0  0  0  0  0  0
   47.1847   28.4076   44.0873 H   0  0  0  0  0  0  0  0  0  0  0  0
   46.0839   27.1262   41.9996 H   0  0  0  0  0  0  0  0  0  0  0  0
   43.4365   27.1074   42.4696 H   0  0  0  0  0  0  0  0  0  0  0  0
   43.9205   35.6462   44.8882 H   0  0  0  0  0  0  0  0  0  0  0  0
   45.3961   35.4625   42.8754 H   0  0  0  0  0  0  0  0  0  0  0  0
   47.0930   32.9423   42.4067 H   0  0  0  0  0  0  0  0  0  0  0  0
   47.9785   35.1839   40.8172 H   0  0  0  0  0  0  0  0  0  0  0  0
   47.6571   36.2162   41.9249 H   0  0  0  0  0  0  0  0  0  0  0  0
   49.6977   34.4843   43.4867 H   0  0  0  0  0  0  0  0  0  0  0  0
   49.7341   33.0959   40.8978 H   0  0  0  0  0  0  0  0  0  0  0  0
  2  1  1  0
  2  8  1  0
  3  4  2  0
  3  2  1  0
  4  5  1  0
  5  7  2  0
  6  5  1  0
  8  7  1  0
  8  9  2  0
 10  4  1  0
 11 10  2  0
 12 13  2  0
 12 11  1  0
 13 14  1  0
 14 10  1  0
 15 20  2  0
 16 17  2  0
 16 15  1  0
 17 18  1  0
 18 19  2  0
 19  1  1  0
 20 19  1  0
 21 23  1  0
 21 17  1  0
 22 21  1  0
 22 23  1  0
 24 25  2  0
 24 23  1  0
  1 26  1  0
  1 27  1  0
  3 28  1  0
  6 29  1  0
  6 30  1  0
 11 31  1  0
 12 32  1  0
 13 33  1  0
 15 34  1  0
 16 35  1  0
 21 36  1  6
 22 37  1  0
 22 38  1  0
 23 39  1  1
 24 40  1  0
M  ISO  8  26   8  27   8  28  14  31  14  32  14  33  14  34  14  35  14
M  ISO  5  36  13  37  13  38  13  39  13  40   6
M  END
>  <minimizedAffinity>  (1) 
-5.18339825

>  <minimizedRMSD>  (1) 
1.05683756

$$$$
