
     RDKit          3D

 38 41  0  0  1  0  0  0  0  0999 V2000
   46.5070   32.6370   47.2340 C   0  0  0  0  0  0  0  0  0  0  0  0
   45.9570   31.3100   47.1940 N   0  0  0  0  0  0  0  0  0  0  0  0
   45.7690   30.5870   46.0370 C   0  0  0  0  0  0  0  0  0  0  0  0
   45.2320   29.3120   46.0880 C   0  0  0  0  0  0  0  0  0  0  0  0
   44.8710   28.7240   47.2860 C   0  0  0  0  0  0  0  0  0  0  0  0
   44.3270   27.4030   47.1820 N   0  0  0  0  0  0  0  0  0  0  0  0
   45.0480   29.4270   48.4590 N   0  0  0  0  0  0  0  0  0  0  0  0
   45.5790   30.6630   48.3020 C   0  0  0  0  0  0  0  0  0  0  0  0
   45.7340   31.2910   49.3890 O   0  0  0  0  0  0  0  0  0  0  0  0
   45.0640   28.6080   44.8110 C   0  0  0  0  0  0  0  0  0  0  0  0
   45.9900   28.1600   43.9470 N   0  0  0  0  0  0  0  0  0  0  0  0
   45.3660   27.5900   42.9360 O   0  0  0  0  0  0  0  0  0  0  0  0
   44.0710   27.6410   43.0930 C   0  0  0  0  0  0  0  0  0  0  0  0
   43.8750   28.2750   44.2590 N   0  0  0  0  0  0  0  0  0  0  0  0
   44.7990   34.9840   44.9010 C   0  0  0  0  0  0  0  0  0  0  0  0
   45.6160   34.8810   43.7800 C   0  0  0  0  0  0  0  0  0  0  0  0
   46.7090   34.0390   43.8390 C   0  0  0  0  0  0  0  0  0  0  0  0
   46.9830   33.3270   44.9640 N   0  0  0  0  0  0  0  0  0  0  0  0
   46.1650   33.4470   46.0430 C   0  0  0  0  0  0  0  0  0  0  0  0
   45.0820   34.2700   46.0100 N   0  0  0  0  0  0  0  0  0  0  0  0
   47.5740   33.8910   42.6540 C   0  0  1  0  0  0  0  0  0  0  0  0
   47.9840   35.1630   41.9250 C   0  0  0  0  0  0  0  0  0  0  0  0
   48.9710   34.2760   42.6750 C   0  0  2  0  0  0  0  0  0  0  0  0
   49.9980   33.5340   41.8610 C   0  0  0  0  0  0  0  0  0  0  0  0
   51.1580   33.4590   42.3440 O   0  0  0  0  0  0  0  0  0  0  0  0
   46.1202   33.1488   48.1275 H   0  0  0  0  0  0  0  0  0  0  0  0
   47.6021   32.5360   47.2567 H   0  0  0  0  0  0  0  0  0  0  0  0
   46.0471   31.0250   45.0670 H   0  0  0  0  0  0  0  0  0  0  0  0
   44.0343   26.8983   48.0308 H   0  0  0  0  0  0  0  0  0  0  0  0
   44.2285   26.9578   46.2584 H   0  0  0  0  0  0  0  0  0  0  0  0
   43.3020   27.2469   42.4123 H   0  0  0  0  0  0  0  0  0  0  0  0
   43.9220   35.6478   44.8832 H   0  0  0  0  0  0  0  0  0  0  0  0
   45.3968   35.4564   42.8685 H   0  0  0  0  0  0  0  0  0  0  0  0
   47.0681   32.9510   42.3886 H   0  0  0  0  0  0  0  0  0  0  0  0
   47.9896   35.1997   40.8256 H   0  0  0  0  0  0  0  0  0  0  0  0
   47.6905   36.2229   41.9468 H   0  0  0  0  0  0  0  0  0  0  0  0
   49.6955   34.4135   43.4912 H   0  0  0  0  0  0  0  0  0  0  0  0
   49.7466   33.0796   40.8913 H   0  0  0  0  0  0  0  0  0  0  0  0
  2  1  1  0
  2  8  1  0
  3  4  2  0
  3  2  1  0
  4  5  1  0
  5  7  2  0
  6  5  1  0
  8  7  1  0
  8  9  2  0
 10  4  1  0
 11 10  2  0
 12 13  1  0
 12 11  1  0
 13 14  2  0
 14 10  1  0
 15 20  2  0
 16 17  2  0
 16 15  1  0
 17 18  1  0
 18 19  2  0
 19  1  1  0
 20 19  1  0
 21 23  1  0
 21 17  1  0
 22 21  1  0
 22 23  1  0
 24 25  2  0
 24 23  1  0
  1 26  1  0
  1 27  1  0
  3 28  1  0
  6 29  1  0
  6 30  1  0
 13 31  1  0
 15 32  1  0
 16 33  1  0
 21 34  1  6
 22 35  1  0
 22 36  1  0
 23 37  1  1
 24 38  1  0
M  ISO  8  26   8  27   8  28  14  31  14  32  14  33  14  34  13  35  13
M  ISO  3  36  13  37  13  38   6
M  END
>  <minimizedAffinity>  (1) 
-5.1815486

>  <minimizedRMSD>  (1) 
0.937110007

$$$$
