
     RDKit          3D

 44 47  0  0  1  0  0  0  0  0999 V2000
   46.3140   32.9240   46.8900 C   0  0  0  0  0  0  0  0  0  0  0  0
   45.8440   31.5680   46.8550 N   0  0  0  0  0  0  0  0  0  0  0  0
   45.8390   30.7800   45.7260 C   0  0  0  0  0  0  0  0  0  0  0  0
   45.3680   29.4790   45.7820 C   0  0  0  0  0  0  0  0  0  0  0  0
   44.8890   28.9290   46.9570 C   0  0  0  0  0  0  0  0  0  0  0  0
   44.4330   27.5760   46.8620 N   0  0  0  0  0  0  0  0  0  0  0  0
   44.8830   29.6940   48.0970 N   0  0  0  0  0  0  0  0  0  0  0  0
   45.3640   30.9540   47.9440 C   0  0  0  0  0  0  0  0  0  0  0  0
   45.3490   31.6400   49.0060 O   0  0  0  0  0  0  0  0  0  0  0  0
   45.3960   28.7250   44.5660 N   0  0  0  0  0  0  0  0  0  0  0  0
   46.4360   28.1210   43.9930 C   0  0  0  0  0  0  0  0  0  0  0  0
   46.2720   27.4320   42.8070 C   0  0  0  0  0  0  0  0  0  0  0  0
   45.0670   27.3220   42.1540 C   0  0  0  0  0  0  0  0  0  0  0  0
   44.9260   26.6050   40.9310 N   0  0  0  0  0  0  0  0  0  0  0  0
   44.0400   27.9440   42.7610 N   0  0  0  0  0  0  0  0  0  0  0  0
   44.1920   28.6260   43.9310 C   0  0  0  0  0  0  0  0  0  0  0  0
   43.1170   29.1260   44.3240 O   0  0  0  0  0  0  0  0  0  0  0  0
   44.9490   34.9810   44.0990 C   0  0  0  0  0  0  0  0  0  0  0  0
   45.9700   34.8660   43.1650 C   0  0  0  0  0  0  0  0  0  0  0  0
   47.0810   34.1110   43.4980 C   0  0  0  0  0  0  0  0  0  0  0  0
   47.1760   33.4960   44.7030 N   0  0  0  0  0  0  0  0  0  0  0  0
   46.1600   33.6280   45.5970 C   0  0  0  0  0  0  0  0  0  0  0  0
   45.0610   34.3630   45.2910 N   0  0  0  0  0  0  0  0  0  0  0  0
   48.1640   33.9500   42.5080 C   0  0  1  0  0  0  0  0  0  0  0  0
   48.6850   35.2080   41.8310 C   0  0  0  0  0  0  0  0  0  0  0  0
   49.5210   34.3720   42.7890 C   0  0  2  0  0  0  0  0  0  0  0  0
   50.6980   33.6230   42.2100 C   0  0  0  0  0  0  0  0  0  0  0  0
   50.7520   32.3830   42.4290 O   0  0  0  0  0  0  0  0  0  0  0  0
   45.7453   33.4715   47.6561 H   0  0  0  0  0  0  0  0  0  0  0  0
   47.3895   32.8914   47.1184 H   0  0  0  0  0  0  0  0  0  0  0  0
   46.2113   31.1862   44.7740 H   0  0  0  0  0  0  0  0  0  0  0  0
   44.0621   27.0978   47.6955 H   0  0  0  0  0  0  0  0  0  0  0  0
   44.4757   27.0803   45.9602 H   0  0  0  0  0  0  0  0  0  0  0  0
   47.4280   28.1711   44.4656 H   0  0  0  0  0  0  0  0  0  0  0  0
   47.1522   26.9455   42.3613 H   0  0  0  0  0  0  0  0  0  0  0  0
   45.7441   26.1455   40.5061 H   0  0  0  0  0  0  0  0  0  0  0  0
   44.0060   26.5461   40.4717 H   0  0  0  0  0  0  0  0  0  0  0  0
   44.0523   35.5743   43.8667 H   0  0  0  0  0  0  0  0  0  0  0  0
   45.8977   35.3621   42.1859 H   0  0  0  0  0  0  0  0  0  0  0  0
   47.7375   32.9905   42.1802 H   0  0  0  0  0  0  0  0  0  0  0  0
   48.9066   35.2115   40.7536 H   0  0  0  0  0  0  0  0  0  0  0  0
   48.3723   36.2601   41.7580 H   0  0  0  0  0  0  0  0  0  0  0  0
   50.0691   34.5564   43.7247 H   0  0  0  0  0  0  0  0  0  0  0  0
   51.4736   34.1370   41.6232 H   0  0  0  0  0  0  0  0  0  0  0  0
  2  1  1  0
  2  8  1  0
  3  4  2  0
  3  2  1  0
  4  5  1  0
  5  7  2  0
  6  5  1  0
  8  7  1  0
  8  9  2  0
 10  4  1  0
 11 10  1  0
 12 11  2  0
 13 15  2  0
 13 12  1  0
 14 13  1  0
 15 16  1  0
 16 17  2  0
 16 10  1  0
 18 23  2  0
 19 20  2  0
 19 18  1  0
 20 21  1  0
 21 22  2  0
 22  1  1  0
 23 22  1  0
 24 26  1  0
 24 20  1  0
 25 24  1  0
 25 26  1  0
 27 28  2  0
 27 26  1  0
  1 29  1  0
  1 30  1  0
  3 31  1  0
  6 32  1  0
  6 33  1  0
 11 34  1  0
 12 35  1  0
 14 36  1  0
 14 37  1  0
 18 38  1  0
 19 39  1  0
 24 40  1  6
 25 41  1  0
 25 42  1  0
 26 43  1  1
 27 44  1  0
M  ISO  8  29   8  30   8  31  14  34  14  35  14  38  14  39  14  40  13
M  ISO  4  41  13  42  13  43  13  44   6
M  END
>  <minimizedAffinity>  (1) 
-5.1773243

>  <minimizedRMSD>  (1) 
0.869097769

$$$$
