
     RDKit          3D

 47 50  0  0  1  0  0  0  0  0999 V2000
   46.4020   32.8720   47.0180 C   0  0  0  0  0  0  0  0  0  0  0  0
   45.8990   31.5320   47.0090 N   0  0  0  0  0  0  0  0  0  0  0  0
   45.7710   30.7680   45.8770 C   0  0  0  0  0  0  0  0  0  0  0  0
   45.2780   29.4740   45.9390 C   0  0  0  0  0  0  0  0  0  0  0  0
   44.8960   28.9090   47.1520 C   0  0  0  0  0  0  0  0  0  0  0  0
   44.4070   27.5650   47.0550 N   0  0  0  0  0  0  0  0  0  0  0  0
   45.0140   29.6510   48.2980 N   0  0  0  0  0  0  0  0  0  0  0  0
   45.5080   30.9040   48.1220 C   0  0  0  0  0  0  0  0  0  0  0  0
   45.6070   31.5700   49.1920 O   0  0  0  0  0  0  0  0  0  0  0  0
   45.1940   28.7860   44.6870 N   0  0  0  0  0  0  0  0  0  0  0  0
   46.2680   27.9800   44.2120 C   0  0  0  0  0  0  0  0  0  0  0  0
   45.7990   27.0150   43.1370 C   0  0  0  0  0  0  0  0  0  0  0  0
   45.0040   27.8100   42.2230 N   0  0  0  0  0  0  0  0  0  0  0  0
   43.7340   28.1250   42.8040 C   0  0  0  0  0  0  0  0  0  0  0  0
   43.9470   29.0070   44.0040 C   0  0  0  0  0  0  0  0  0  0  0  0
   44.9910   34.9480   44.2650 C   0  0  0  0  0  0  0  0  0  0  0  0
   45.9830   34.8120   43.3000 C   0  0  0  0  0  0  0  0  0  0  0  0
   47.0880   34.0440   43.5920 C   0  0  0  0  0  0  0  0  0  0  0  0
   47.2070   33.4260   44.8040 N   0  0  0  0  0  0  0  0  0  0  0  0
   46.2170   33.5790   45.7260 C   0  0  0  0  0  0  0  0  0  0  0  0
   45.1230   34.3300   45.4590 N   0  0  0  0  0  0  0  0  0  0  0  0
   48.1390   33.8580   42.5810 C   0  0  1  0  0  0  0  0  0  0  0  0
   48.5880   35.0870   41.8050 C   0  0  0  0  0  0  0  0  0  0  0  0
   49.4910   34.3420   42.7770 C   0  0  2  0  0  0  0  0  0  0  0  0
   50.6700   33.5950   42.2020 C   0  0  0  0  0  0  0  0  0  0  0  0
   50.7360   32.3600   42.4330 O   0  0  0  0  0  0  0  0  0  0  0  0
   45.8770   33.4364   47.8028 H   0  0  0  0  0  0  0  0  0  0  0  0
   47.4846   32.8116   47.2034 H   0  0  0  0  0  0  0  0  0  0  0  0
   46.0644   31.1891   44.9041 H   0  0  0  0  0  0  0  0  0  0  0  0
   44.1011   27.0659   47.9024 H   0  0  0  0  0  0  0  0  0  0  0  0
   44.3616   27.0984   46.1379 H   0  0  0  0  0  0  0  0  0  0  0  0
   47.0477   28.6327   43.7924 H   0  0  0  0  0  0  0  0  0  0  0  0
   46.6632   27.3952   45.0557 H   0  0  0  0  0  0  0  0  0  0  0  0
   46.6604   26.5742   42.6138 H   0  0  0  0  0  0  0  0  0  0  0  0
   45.2207   26.1811   43.5614 H   0  0  0  0  0  0  0  0  0  0  0  0
   44.8560   27.2789   41.3530 H   0  0  0  0  0  0  0  0  0  0  0  0
   43.1115   28.6516   42.0656 H   0  0  0  0  0  0  0  0  0  0  0  0
   43.2265   27.1984   43.1104 H   0  0  0  0  0  0  0  0  0  0  0  0
   43.9176   30.0550   43.6710 H   0  0  0  0  0  0  0  0  0  0  0  0
   43.1481   28.7635   44.7199 H   0  0  0  0  0  0  0  0  0  0  0  0
   44.0998   35.5581   44.0563 H   0  0  0  0  0  0  0  0  0  0  0  0
   45.8869   35.3080   42.3229 H   0  0  0  0  0  0  0  0  0  0  0  0
   47.7369   32.8639   42.3358 H   0  0  0  0  0  0  0  0  0  0  0  0
   48.7658   35.0288   40.7210 H   0  0  0  0  0  0  0  0  0  0  0  0
   48.2356   36.1215   41.6798 H   0  0  0  0  0  0  0  0  0  0  0  0
   50.0700   34.6055   43.6744 H   0  0  0  0  0  0  0  0  0  0  0  0
   51.4389   34.1087   41.6062 H   0  0  0  0  0  0  0  0  0  0  0  0
  2  1  1  0
  2  8  1  0
  3  4  2  0
  3  2  1  0
  4  5  1  0
  5  7  2  0
  6  5  1  0
  8  7  1  0
  8  9  2  0
 10  4  1  0
 11 10  1  0
 12 11  1  0
 13 14  1  0
 13 12  1  0
 14 15  1  0
 15 10  1  0
 16 21  2  0
 17 18  2  0
 17 16  1  0
 18 19  1  0
 19 20  2  0
 20  1  1  0
 21 20  1  0
 22 24  1  0
 22 18  1  0
 23 22  1  0
 23 24  1  0
 25 26  2  0
 25 24  1  0
  1 27  1  0
  1 28  1  0
  3 29  1  0
  6 30  1  0
  6 31  1  0
 11 32  1  0
 11 33  1  0
 12 34  1  0
 12 35  1  0
 13 36  1  0
 14 37  1  0
 14 38  1  0
 15 39  1  0
 15 40  1  0
 16 41  1  0
 17 42  1  0
 22 43  1  6
 23 44  1  0
 23 45  1  0
 24 46  1  1
 25 47  1  0
M  ISO  8  27   8  28   8  29  14  32  13  33  13  34  13  35  13  36   5
M  ISO  8  37  13  38  13  39  13  40  13  41  14  42  14  43  13  44  13
M  ISO  3  45  13  46  13  47   6
M  END
>  <minimizedAffinity>  (1) 
-5.14390421

>  <minimizedRMSD>  (1) 
0.734699011

$$$$
