
     RDKit          3D

 43 46  0  0  1  0  0  0  0  0999 V2000
   46.4220   32.8790   47.0250 C   0  0  0  0  0  0  0  0  0  0  0  0
   45.9150   31.5360   47.0240 N   0  0  0  0  0  0  0  0  0  0  0  0
   45.7680   30.7680   45.8890 C   0  0  0  0  0  0  0  0  0  0  0  0
   45.2720   29.4770   45.9770 C   0  0  0  0  0  0  0  0  0  0  0  0
   44.9090   28.9200   47.1880 C   0  0  0  0  0  0  0  0  0  0  0  0
   44.4110   27.5790   47.1210 N   0  0  0  0  0  0  0  0  0  0  0  0
   45.0450   29.6660   48.3390 N   0  0  0  0  0  0  0  0  0  0  0  0
   45.5390   30.9160   48.1490 C   0  0  0  0  0  0  0  0  0  0  0  0
   45.6560   31.5830   49.2140 O   0  0  0  0  0  0  0  0  0  0  0  0
   45.1540   28.7410   44.7130 C   0  0  0  0  0  0  0  0  0  0  0  0
   43.9600   28.8120   43.9900 C   0  0  0  0  0  0  0  0  0  0  0  0
   43.8060   28.1330   42.7950 C   0  0  0  0  0  0  0  0  0  0  0  0
   44.8240   27.3670   42.2780 C   0  0  0  0  0  0  0  0  0  0  0  0
   45.9850   27.3340   43.0360 C   0  0  0  0  0  0  0  0  0  0  0  0
   46.1990   27.9800   44.2230 C   0  0  0  0  0  0  0  0  0  0  0  0
   44.9870   34.9340   44.2690 C   0  0  0  0  0  0  0  0  0  0  0  0
   45.9780   34.8020   43.3020 C   0  0  0  0  0  0  0  0  0  0  0  0
   47.0900   34.0390   43.6010 C   0  0  0  0  0  0  0  0  0  0  0  0
   47.2160   33.4310   44.8080 N   0  0  0  0  0  0  0  0  0  0  0  0
   46.2290   33.5780   45.7330 C   0  0  0  0  0  0  0  0  0  0  0  0
   45.1270   34.3240   45.4620 N   0  0  0  0  0  0  0  0  0  0  0  0
   48.1390   33.8580   42.5800 C   0  0  1  0  0  0  0  0  0  0  0  0
   48.5890   35.0920   41.8120 C   0  0  0  0  0  0  0  0  0  0  0  0
   49.4910   34.3380   42.7810 C   0  0  2  0  0  0  0  0  0  0  0  0
   50.6700   33.5980   42.1990 C   0  0  0  0  0  0  0  0  0  0  0  0
   50.7470   32.3650   42.4380 O   0  0  0  0  0  0  0  0  0  0  0  0
   45.9032   33.4477   47.8108 H   0  0  0  0  0  0  0  0  0  0  0  0
   47.5055   32.8186   47.2047 H   0  0  0  0  0  0  0  0  0  0  0  0
   46.0458   31.1819   44.9084 H   0  0  0  0  0  0  0  0  0  0  0  0
   44.1194   27.0943   47.9818 H   0  0  0  0  0  0  0  0  0  0  0  0
   44.3444   27.0992   46.2120 H   0  0  0  0  0  0  0  0  0  0  0  0
   43.1284   29.4184   44.3781 H   0  0  0  0  0  0  0  0  0  0  0  0
   42.8537   28.2070   42.2494 H   0  0  0  0  0  0  0  0  0  0  0  0
   44.7246   26.8187   41.3296 H   0  0  0  0  0  0  0  0  0  0  0  0
   46.8158   26.7287   42.6442 H   0  0  0  0  0  0  0  0  0  0  0  0
   47.1551   27.8979   44.7607 H   0  0  0  0  0  0  0  0  0  0  0  0
   44.0902   35.5356   44.0599 H   0  0  0  0  0  0  0  0  0  0  0  0
   45.8786   35.2933   42.3228 H   0  0  0  0  0  0  0  0  0  0  0  0
   47.7337   32.8678   42.3247 H   0  0  0  0  0  0  0  0  0  0  0  0
   48.7675   35.0409   40.7278 H   0  0  0  0  0  0  0  0  0  0  0  0
   48.2378   36.1276   41.6932 H   0  0  0  0  0  0  0  0  0  0  0  0
   50.0686   34.5918   43.6821 H   0  0  0  0  0  0  0  0  0  0  0  0
   51.4290   34.1137   41.5924 H   0  0  0  0  0  0  0  0  0  0  0  0
  2  1  1  0
  2  8  1  0
  3  4  2  0
  3  2  1  0
  4  5  1  0
  5  7  2  0
  6  5  1  0
  8  7  1  0
  8  9  2  0
 10  4  1  0
 11 10  2  0
 12 11  1  0
 13 12  2  0
 13 14  1  0
 14 15  2  0
 15 10  1  0
 16 21  2  0
 17 18  2  0
 17 16  1  0
 18 19  1  0
 19 20  2  0
 20  1  1  0
 21 20  1  0
 22 24  1  0
 22 18  1  0
 23 22  1  0
 23 24  1  0
 25 26  2  0
 25 24  1  0
  1 27  1  0
  1 28  1  0
  3 29  1  0
  6 30  1  0
  6 31  1  0
 11 32  1  0
 12 33  1  0
 13 34  1  0
 14 35  1  0
 15 36  1  0
 16 37  1  0
 17 38  1  0
 22 39  1  6
 23 40  1  0
 23 41  1  0
 24 42  1  1
 25 43  1  0
M  ISO  8  27   8  28   8  29  14  32  14  33  14  34  14  35  14  36  14
M  ISO  7  37  14  38  14  39  13  40  13  41  13  42  13  43   6
M  END
>  <minimizedAffinity>  (1) 
-5.13922787

>  <minimizedRMSD>  (1) 
0.873588085

$$$$
