
     RDKit          3D

 46 49  0  0  1  0  0  0  0  0999 V2000
   46.4910   33.0230   46.7220 C   0  0  0  0  0  0  0  0  0  0  0  0
   45.9720   31.7020   46.8560 N   0  0  0  0  0  0  0  0  0  0  0  0
   45.8690   30.8290   45.8180 C   0  0  0  0  0  0  0  0  0  0  0  0
   45.3620   29.5440   45.9890 C   0  0  0  0  0  0  0  0  0  0  0  0
   44.9410   29.1200   47.2550 C   0  0  0  0  0  0  0  0  0  0  0  0
   44.4350   27.7820   47.3060 N   0  0  0  0  0  0  0  0  0  0  0  0
   45.0350   29.9900   48.3260 N   0  0  0  0  0  0  0  0  0  0  0  0
   45.5450   31.2050   48.0210 C   0  0  0  0  0  0  0  0  0  0  0  0
   45.6250   31.9850   49.0110 O   0  0  0  0  0  0  0  0  0  0  0  0
   45.2800   28.6480   44.8110 C   0  0  0  0  0  0  0  0  0  0  0  0
   46.5610   27.8860   44.5850 C   0  0  0  0  0  0  0  0  0  0  0  0
   46.2040   26.4330   44.7410 C   0  0  0  0  0  0  0  0  0  0  0  0
   44.7550   26.3900   44.3280 C   0  0  0  0  0  0  0  0  0  0  0  0
   44.1350   27.7180   44.7710 C   0  0  0  0  0  0  0  0  0  0  0  0
   45.0080   34.7400   43.7860 C   0  0  0  0  0  0  0  0  0  0  0  0
   46.0540   34.6560   42.8730 C   0  0  0  0  0  0  0  0  0  0  0  0
   47.2230   34.0320   43.2720 C   0  0  0  0  0  0  0  0  0  0  0  0
   47.3490   33.5140   44.5240 N   0  0  0  0  0  0  0  0  0  0  0  0
   46.3010   33.6160   45.3850 C   0  0  0  0  0  0  0  0  0  0  0  0
   45.1530   34.2210   45.0160 N   0  0  0  0  0  0  0  0  0  0  0  0
   48.3370   33.9010   42.3150 C   0  0  1  0  0  0  0  0  0  0  0  0
   49.1020   35.1680   41.9580 C   0  0  0  0  0  0  0  0  0  0  0  0
   49.7200   34.0150   42.7340 C   0  0  2  0  0  0  0  0  0  0  0  0
   50.8020   33.2120   42.0500 C   0  0  0  0  0  0  0  0  0  0  0  0
   50.4340   32.3860   41.1750 O   0  0  0  0  0  0  0  0  0  0  0  0
   45.9891   33.6669   47.4592 H   0  0  0  0  0  0  0  0  0  0  0  0
   47.5767   32.9534   46.8848 H   0  0  0  0  0  0  0  0  0  0  0  0
   46.1951   31.1470   44.8167 H   0  0  0  0  0  0  0  0  0  0  0  0
   44.1037   27.3904   48.1992 H   0  0  0  0  0  0  0  0  0  0  0  0
   44.4022   27.2108   46.4495 H   0  0  0  0  0  0  0  0  0  0  0  0
   45.1078   29.3564   43.9873 H   0  0  0  0  0  0  0  0  0  0  0  0
   47.3168   28.1772   45.3293 H   0  0  0  0  0  0  0  0  0  0  0  0
   46.9876   28.0947   43.5928 H   0  0  0  0  0  0  0  0  0  0  0  0
   46.8207   25.8022   44.0838 H   0  0  0  0  0  0  0  0  0  0  0  0
   46.3746   26.0530   45.7591 H   0  0  0  0  0  0  0  0  0  0  0  0
   44.6744   26.2787   43.2366 H   0  0  0  0  0  0  0  0  0  0  0  0
   44.2361   25.5364   44.7886 H   0  0  0  0  0  0  0  0  0  0  0  0
   43.3796   28.0580   44.0473 H   0  0  0  0  0  0  0  0  0  0  0  0
   43.6158   27.6423   45.7378 H   0  0  0  0  0  0  0  0  0  0  0  0
   44.0651   35.2299   43.5014 H   0  0  0  0  0  0  0  0  0  0  0  0
   45.9546   35.0745   41.8606 H   0  0  0  0  0  0  0  0  0  0  0  0
   47.7898   33.1207   41.7658 H   0  0  0  0  0  0  0  0  0  0  0  0
   49.4014   35.3652   40.9181 H   0  0  0  0  0  0  0  0  0  0  0  0
   48.9672   36.2488   42.1118 H   0  0  0  0  0  0  0  0  0  0  0  0
   50.2206   33.9000   43.7067 H   0  0  0  0  0  0  0  0  0  0  0  0
   51.8638   33.3436   42.3056 H   0  0  0  0  0  0  0  0  0  0  0  0
  1  2  1  0
  2  8  1  0
  3  4  2  0
  3  2  1  0
  4  5  1  0
  5  6  1  0
  5  7  2  0
  8  7  1  0
  8  9  2  0
 10  4  1  0
 11 12  1  0
 11 10  1  0
 13 12  1  0
 13 14  1  0
 14 10  1  0
 15 20  2  0
 16 17  2  0
 16 15  1  0
 17 18  1  0
 18 19  2  0
 19  1  1  0
 20 19  1  0
 21 23  1  0
 21 17  1  0
 22 21  1  0
 22 23  1  0
 24 23  1  0
 25 24  2  0
  1 26  1  0
  1 27  1  0
  3 28  1  0
  6 29  1  0
  6 30  1  0
 10 31  1  0
 11 32  1  0
 11 33  1  0
 12 34  1  0
 12 35  1  0
 13 36  1  0
 13 37  1  0
 14 38  1  0
 14 39  1  0
 15 40  1  0
 16 41  1  0
 21 42  1  6
 22 43  1  0
 22 44  1  0
 23 45  1  1
 24 46  1  0
M  ISO  8  26   8  27   8  28  14  31  13  32  13  33  13  34  13  35  13
M  ISO  8  36  13  37  13  38  13  39  13  40  14  41  14  42  13  43  13
M  ISO  3  44  13  45  13  46   6
M  END
>  <minimizedAffinity>  (1) 
-5.06325817

>  <minimizedRMSD>  (1) 
0.71095103

$$$$
