
     RDKit          3D

 40 44  0  0  0  0  0  0  0  0999 V2000
   44.4290   35.9790   44.8730 C   0  0  0  0  0  0  0  0  0  0  0  0
   45.0820   35.9770   43.6470 C   0  0  0  0  0  0  0  0  0  0  0  0
   45.9940   34.9910   43.2710 C   0  0  0  0  0  0  0  0  0  0  0  0
   46.1740   34.0380   44.2320 N   0  0  0  0  0  0  0  0  0  0  0  0
   45.5490   34.0290   45.4210 C   0  0  0  0  0  0  0  0  0  0  0  0
   44.6940   34.9940   45.7160 N   0  0  0  0  0  0  0  0  0  0  0  0
   46.7410   34.8350   42.0610 C   0  0  0  0  0  0  0  0  0  0  0  0
   47.9910   35.4270   41.9890 C   0  0  0  0  0  0  0  0  0  0  0  0
   48.8210   35.3560   40.8920 C   0  0  0  0  0  0  0  0  0  0  0  0
   48.4050   34.6580   39.7830 C   0  0  0  0  0  0  0  0  0  0  0  0
   47.1760   34.0470   39.7860 C   0  0  0  0  0  0  0  0  0  0  0  0
   46.7440   33.3470   38.6780 C   0  0  0  0  0  0  0  0  0  0  0  0
   45.5130   32.7220   38.6380 C   0  0  0  0  0  0  0  0  0  0  0  0
   44.7420   32.8440   39.7860 C   0  0  0  0  0  0  0  0  0  0  0  0
   45.1900   33.5360   40.8590 C   0  0  0  0  0  0  0  0  0  0  0  0
   46.4150   34.1640   40.9110 C   0  0  0  0  0  0  0  0  0  0  0  0
   45.8340   32.9480   46.3600 C   0  0  0  0  0  0  0  0  0  0  0  0
   45.3890   32.8450   47.6610 C   0  0  0  0  0  0  0  0  0  0  0  0
   45.8740   31.6920   48.1930 N   0  0  0  0  0  0  0  0  0  0  0  0
   46.6170   31.0740   47.2490 C   0  0  0  0  0  0  0  0  0  0  0  0
   47.3030   29.8790   47.3320 C   0  0  0  0  0  0  0  0  0  0  0  0
   47.9730   29.5280   46.1590 C   0  0  0  0  0  0  0  0  0  0  0  0
   47.9940   30.2530   44.9840 C   0  0  0  0  0  0  0  0  0  0  0  0
   47.2860   31.4360   44.9740 C   0  0  0  0  0  0  0  0  0  0  0  0
   46.6070   31.8350   46.0980 C   0  0  0  0  0  0  0  0  0  0  0  0
   43.7148   36.7736   45.1346 H   0  0  0  0  0  0  0  0  0  0  0  0
   44.8698   36.7917   42.9391 H   0  0  0  0  0  0  0  0  0  0  0  0
   48.3440   35.9907   42.8651 H   0  0  0  0  0  0  0  0  0  0  0  0
   49.8033   35.8510   40.9031 H   0  0  0  0  0  0  0  0  0  0  0  0
   49.0540   34.5895   38.8975 H   0  0  0  0  0  0  0  0  0  0  0  0
   47.4013   33.2848   37.7982 H   0  0  0  0  0  0  0  0  0  0  0  0
   45.1665   32.1646   37.7552 H   0  0  0  0  0  0  0  0  0  0  0  0
   43.7501   32.3701   39.8240 H   0  0  0  0  0  0  0  0  0  0  0  0
   44.5374   33.6009   41.7421 H   0  0  0  0  0  0  0  0  0  0  0  0
   44.7492   33.5733   48.1809 H   0  0  0  0  0  0  0  0  0  0  0  0
   45.7045   31.3492   49.1494 H   0  0  0  0  0  0  0  0  0  0  0  0
   47.3201   29.2593   48.2407 H   0  0  0  0  0  0  0  0  0  0  0  0
   48.5379   28.5842   46.1718 H   0  0  0  0  0  0  0  0  0  0  0  0
   48.5480   29.9041   44.1000 H   0  0  0  0  0  0  0  0  0  0  0  0
   47.2654   32.0585   44.0674 H   0  0  0  0  0  0  0  0  0  0  0  0
  1  6  2  0
  2  1  1  0
  3  2  2  0
  3  4  1  0
  4  5  2  0
  5  6  1  0
  5 17  1  0
  7  3  1  0
  8  7  2  0
  9  8  1  0
 10 11  1  0
 10  9  2  0
 11 16  2  0
 12 11  1  0
 13 12  2  0
 13 14  1  0
 14 15  2  0
 15 16  1  0
 16  7  1  0
 17 18  2  0
 18 19  1  0
 20 21  2  0
 20 19  1  0
 22 21  1  0
 23 22  2  0
 24 23  1  0
 24 25  2  0
 25 17  1  0
 25 20  1  0
  1 26  1  0
  2 27  1  0
  8 28  1  0
  9 29  1  0
 10 30  1  0
 12 31  1  0
 13 32  1  0
 14 33  1  0
 15 34  1  0
 18 35  1  0
 19 36  1  0
 21 37  1  0
 22 38  1  0
 23 39  1  0
 24 40  1  0
M  ISO  8  26  14  27  14  28  14  29  14  30  14  31  14  32  14  33  14
M  ISO  7  34  14  35  14  36   9  37  14  38  14  39  14  40  14
M  END
>  <minimizedAffinity>  (1) 
-7.34896612

>  <minimizedRMSD>  (1) 
0.17899324

$$$$
