
     RDKit          3D

 40 43  0  0  1  0  0  0  0  0999 V2000
   45.0290   34.8230   43.7210 C   0  0  0  0  0  0  0  0  0  0  0  0
   46.0870   34.7450   42.8190 C   0  0  0  0  0  0  0  0  0  0  0  0
   47.2450   34.1060   43.2310 C   0  0  0  0  0  0  0  0  0  0  0  0
   47.3480   33.5710   44.4700 N   0  0  0  0  0  0  0  0  0  0  0  0
   46.2970   33.6620   45.3270 C   0  0  0  0  0  0  0  0  0  0  0  0
   45.1510   34.2850   44.9470 N   0  0  0  0  0  0  0  0  0  0  0  0
   48.3710   33.9830   42.2840 C   0  0  1  0  0  0  0  0  0  0  0  0
   49.2070   35.2260   42.0230 C   0  0  0  0  0  0  0  0  0  0  0  0
   49.7490   33.9950   42.7310 C   0  0  2  0  0  0  0  0  0  0  0  0
   50.8010   33.1810   42.0150 C   0  0  0  0  0  0  0  0  0  0  0  0
   50.4020   32.3740   41.1360 O   0  0  0  0  0  0  0  0  0  0  0  0
   46.4610   33.0490   46.6600 C   0  0  0  0  0  0  0  0  0  0  0  0
   45.9390   31.7180   46.7420 N   0  0  0  0  0  0  0  0  0  0  0  0
   45.8620   30.8580   45.6710 C   0  0  0  0  0  0  0  0  0  0  0  0
   45.3460   29.5740   45.8310 C   0  0  0  0  0  0  0  0  0  0  0  0
   44.8970   29.1390   47.0870 C   0  0  0  0  0  0  0  0  0  0  0  0
   44.4160   27.7790   47.0640 N   0  0  0  0  0  0  0  0  0  0  0  0
   44.9650   29.9830   48.1590 N   0  0  0  0  0  0  0  0  0  0  0  0
   45.4820   31.1990   47.8880 C   0  0  0  0  0  0  0  0  0  0  0  0
   45.5320   31.9560   48.8970 O   0  0  0  0  0  0  0  0  0  0  0  0
   45.2800   28.6830   44.6380 C   0  0  0  0  0  0  0  0  0  0  0  0
   45.7400   29.0940   43.3050 C   0  0  0  0  0  0  0  0  0  0  0  0
   44.2540   29.1000   43.6140 C   0  0  0  0  0  0  0  0  0  0  0  0
   44.0940   35.3245   43.4306 H   0  0  0  0  0  0  0  0  0  0  0  0
   46.0058   35.1773   41.8108 H   0  0  0  0  0  0  0  0  0  0  0  0
   47.7934   33.2719   41.6751 H   0  0  0  0  0  0  0  0  0  0  0  0
   49.5360   35.4736   41.0030 H   0  0  0  0  0  0  0  0  0  0  0  0
   49.1259   36.3003   42.2451 H   0  0  0  0  0  0  0  0  0  0  0  0
   50.2244   33.7907   43.7017 H   0  0  0  0  0  0  0  0  0  0  0  0
   51.8697   33.2891   42.2519 H   0  0  0  0  0  0  0  0  0  0  0  0
   47.5341   33.0181   46.8999 H   0  0  0  0  0  0  0  0  0  0  0  0
   45.8931   33.6650   47.3728 H   0  0  0  0  0  0  0  0  0  0  0  0
   46.2105   31.1867   44.6808 H   0  0  0  0  0  0  0  0  0  0  0  0
   44.0590   27.3443   47.9269 H   0  0  0  0  0  0  0  0  0  0  0  0
   44.4296   27.2427   46.1847 H   0  0  0  0  0  0  0  0  0  0  0  0
   45.5277   27.7972   45.2413 H   0  0  0  0  0  0  0  0  0  0  0  0
   46.1530   28.3456   42.6127 H   0  0  0  0  0  0  0  0  0  0  0  0
   46.4554   29.8402   42.9291 H   0  0  0  0  0  0  0  0  0  0  0  0
   43.7138   30.0518   43.7250 H   0  0  0  0  0  0  0  0  0  0  0  0
   43.3540   28.6494   43.1701 H   0  0  0  0  0  0  0  0  0  0  0  0
  1  6  2  0
  2  3  2  0
  2  1  1  0
  3  4  1  0
  4  5  2  0
  5 12  1  0
  6  5  1  0
  7  9  1  0
  7  3  1  0
  8  7  1  0
  8  9  1  0
 10  9  1  0
 11 10  2  0
 12 13  1  0
 13 19  1  0
 14 15  2  0
 14 13  1  0
 15 16  1  0
 16 18  2  0
 17 16  1  0
 19 18  1  0
 19 20  2  0
 21 15  1  0
 22 23  1  0
 22 21  1  0
 23 21  1  0
  1 24  1  0
  2 25  1  0
  7 26  1  6
  8 27  1  0
  8 28  1  0
  9 29  1  1
 10 30  1  0
 12 31  1  0
 12 32  1  0
 14 33  1  0
 17 34  1  0
 17 35  1  0
 21 36  1  0
 22 37  1  0
 22 38  1  0
 23 39  1  0
 23 40  1  0
M  ISO  8  24  14  25  14  26  13  27  13  28  13  29  13  30   6  31   8
M  ISO  7  32   8  33  14  36  13  37  13  38  13  39  13  40  13
M  END
>  <minimizedAffinity>  (1) 
-4.96325254

>  <minimizedRMSD>  (1) 
0.505014181

$$$$
