
     RDKit          3D

 17 18  0  0  0  0  0  0  0  0999 V2000
   44.5390   35.7190   44.6790 C   0  0  0  0  0  0  0  0  0  0  0  0
   45.2380   35.5450   43.4520 C   0  0  0  0  0  0  0  0  0  0  0  0
   46.1870   34.5140   43.3750 C   0  0  0  0  0  0  0  0  0  0  0  0
   46.3920   33.7360   44.4700 N   0  0  0  0  0  0  0  0  0  0  0  0
   45.7120   33.9270   45.6220 C   0  0  0  0  0  0  0  0  0  0  0  0
   44.7960   34.9040   45.7300 N   0  0  0  0  0  0  0  0  0  0  0  0
   45.9070   33.1120   46.8160 C   0  0  0  0  0  0  0  0  0  0  0  0
   45.1330   32.6180   47.8560 C   0  0  0  0  0  0  0  0  0  0  0  0
   45.9940   31.8970   48.6670 C   0  0  0  0  0  0  0  0  0  0  0  0
   47.2480   31.9810   48.0910 C   0  0  0  0  0  0  0  0  0  0  0  0
   47.1530   32.7120   46.9930 O   0  0  0  0  0  0  0  0  0  0  0  0
   43.7882   36.5172   44.7744 H   0  0  0  0  0  0  0  0  0  0  0  0
   45.0405   36.1989   42.5898 H   0  0  0  0  0  0  0  0  0  0  0  0
   46.7528   34.3394   42.4480 H   0  0  0  0  0  0  0  0  0  0  0  0
   44.0537   32.7684   48.0062 H   0  0  0  0  0  0  0  0  0  0  0  0
   45.7308   31.3611   49.5909 H   0  0  0  0  0  0  0  0  0  0  0  0
   48.1675   31.5189   48.4795 H   0  0  0  0  0  0  0  0  0  0  0  0
  1  6  2  0
  2  1  1  0
  3  2  2  0
  3  4  1  0
  4  5  2  0
  5  6  1  0
  5  7  1  0
  7 11  1  0
  7  8  2  0
  8  9  1  0
 10  9  2  0
 11 10  1  0
  1 12  1  0
  2 13  1  0
  3 14  1  0
  8 15  1  0
  9 16  1  0
 10 17  1  0
M  ISO  6  12  14  13  14  14  14  15  14  16  14  17  14
M  END
>  <minimizedAffinity>  (1) 
-4.16569662

>  <minimizedRMSD>  (1) 
0.693774641

$$$$
