
     RDKit          3D

 36 39  0  0  0  0  0  0  0  0999 V2000
   46.7540   34.8320   42.0780 C   0  0  0  0  0  0  0  0  0  0  0  0
   47.9990   35.4300   42.0010 C   0  0  0  0  0  0  0  0  0  0  0  0
   48.8260   35.3630   40.9000 C   0  0  0  0  0  0  0  0  0  0  0  0
   48.4090   34.6620   39.7960 C   0  0  0  0  0  0  0  0  0  0  0  0
   47.1810   34.0410   39.8040 C   0  0  0  0  0  0  0  0  0  0  0  0
   46.7550   33.3340   38.6980 C   0  0  0  0  0  0  0  0  0  0  0  0
   45.5290   32.6980   38.6660 C   0  0  0  0  0  0  0  0  0  0  0  0
   44.7610   32.8190   39.8130 C   0  0  0  0  0  0  0  0  0  0  0  0
   45.2080   33.5180   40.8800 C   0  0  0  0  0  0  0  0  0  0  0  0
   46.4140   34.1530   40.9320 C   0  0  0  0  0  0  0  0  0  0  0  0
   44.4150   35.9270   44.8890 C   0  0  0  0  0  0  0  0  0  0  0  0
   45.0560   35.9380   43.6520 C   0  0  0  0  0  0  0  0  0  0  0  0
   46.0090   34.9890   43.2910 C   0  0  0  0  0  0  0  0  0  0  0  0
   46.2390   34.0640   44.2700 N   0  0  0  0  0  0  0  0  0  0  0  0
   45.6330   34.0390   45.4530 C   0  0  0  0  0  0  0  0  0  0  0  0
   44.7310   34.9650   45.7530 N   0  0  0  0  0  0  0  0  0  0  0  0
   45.9710   32.9890   46.4130 C   0  0  0  0  0  0  0  0  0  0  0  0
   46.9660   32.0800   46.1660 C   0  0  0  0  0  0  0  0  0  0  0  0
   47.2370   31.1120   47.1150 C   0  0  0  0  0  0  0  0  0  0  0  0
   46.5000   31.0840   48.2850 C   0  0  0  0  0  0  0  0  0  0  0  0
   45.4850   32.0000   48.5560 C   0  0  0  0  0  0  0  0  0  0  0  0
   45.2390   32.9480   47.5970 C   0  0  0  0  0  0  0  0  0  0  0  0
   48.3523   35.9960   42.8755 H   0  0  0  0  0  0  0  0  0  0  0  0
   49.8054   35.8638   40.9062 H   0  0  0  0  0  0  0  0  0  0  0  0
   49.0544   34.5968   38.9076 H   0  0  0  0  0  0  0  0  0  0  0  0
   47.4105   33.2752   37.8166 H   0  0  0  0  0  0  0  0  0  0  0  0
   45.1850   32.1325   37.7874 H   0  0  0  0  0  0  0  0  0  0  0  0
   43.7723   32.3388   39.8558 H   0  0  0  0  0  0  0  0  0  0  0  0
   44.5566   33.5787   41.7643 H   0  0  0  0  0  0  0  0  0  0  0  0
   43.6678   36.6927   45.1448 H   0  0  0  0  0  0  0  0  0  0  0  0
   44.7989   36.7283   42.9314 H   0  0  0  0  0  0  0  0  0  0  0  0
   47.5396   32.1198   45.2282 H   0  0  0  0  0  0  0  0  0  0  0  0
   48.0312   30.3711   46.9412 H   0  0  0  0  0  0  0  0  0  0  0  0
   46.7238   30.3078   49.0316 H   0  0  0  0  0  0  0  0  0  0  0  0
   44.9099   31.9639   49.4930 H   0  0  0  0  0  0  0  0  0  0  0  0
   44.4467   33.6921   47.7662 H   0  0  0  0  0  0  0  0  0  0  0  0
  1 13  1  0
  2  1  2  0
  3  2  1  0
  4  5  1  0
  4  3  2  0
  5 10  2  0
  6  5  1  0
  7  6  2  0
  7  8  1  0
  8  9  2  0
  9 10  1  0
 10  1  1  0
 11 16  2  0
 12 11  1  0
 13 12  2  0
 13 14  1  0
 14 15  2  0
 15 16  1  0
 15 17  1  0
 17 22  1  0
 18 17  2  0
 18 19  1  0
 19 20  2  0
 20 21  1  0
 22 21  2  0
  2 23  1  0
  3 24  1  0
  4 25  1  0
  6 26  1  0
  7 27  1  0
  8 28  1  0
  9 29  1  0
 11 30  1  0
 12 31  1  0
 18 32  1  0
 19 33  1  0
 20 34  1  0
 21 35  1  0
 22 36  1  0
M  ISO  8  23  14  24  14  25  14  26  14  27  14  28  14  29  14  30  14
M  ISO  6  31  14  32  14  33  14  34  14  35  14  36  14
M  END
>  <minimizedAffinity>  (1) 
-7.21743345

>  <minimizedRMSD>  (1) 
0.348144799

$$$$
