
     RDKit          3D

 29 30  0  0  0  0  0  0  0  0999 V2000
   42.5080   33.5020   39.8300 N   0  0  0  0  0  0  0  0  0  0  0  0
   42.9360   32.8470   38.7310 C   0  0  0  0  0  0  0  0  0  0  0  0
   41.7890   32.6720   37.9360 C   0  0  0  0  0  0  0  0  0  0  0  0
   40.7410   33.2140   38.5720 N   0  0  0  0  0  0  0  0  0  0  0  0
   41.1560   33.7360   39.7520 C   0  0  0  0  0  0  0  0  0  0  0  0
   43.5320   35.2950   40.9800 C   0  0  0  0  0  0  0  0  0  0  0  0
   43.2700   33.9190   40.9210 C   0  0  0  0  0  0  0  0  0  0  0  0
   43.7780   33.0900   41.9480 C   0  0  0  0  0  0  0  0  0  0  0  0
   44.4970   33.6880   42.9430 N   0  0  0  0  0  0  0  0  0  0  0  0
   44.7240   35.0340   42.9570 C   0  0  0  0  0  0  0  0  0  0  0  0
   44.2380   35.8470   41.9650 N   0  0  0  0  0  0  0  0  0  0  0  0
   40.0370   34.3510   40.5050 C   0  0  0  0  0  0  0  0  0  0  0  0
   38.6590   34.0460   39.8380 C   0  0  0  0  0  0  0  0  0  0  0  0
   39.8630   33.8680   41.9090 C   0  0  0  0  0  0  0  0  0  0  0  0
   40.0660   35.8810   40.4690 C   0  0  0  0  0  0  0  0  0  0  0  0
   43.9617   32.5200   38.5052 H   0  0  0  0  0  0  0  0  0  0  0  0
   41.7573   32.1735   36.9559 H   0  0  0  0  0  0  0  0  0  0  0  0
   43.1396   35.9431   40.1825 H   0  0  0  0  0  0  0  0  0  0  0  0
   43.6006   32.0044   41.9454 H   0  0  0  0  0  0  0  0  0  0  0  0
   45.3074   35.4747   43.7789 H   0  0  0  0  0  0  0  0  0  0  0  0
   37.9027   33.8786   40.6190 H   0  0  0  0  0  0  0  0  0  0  0  0
   38.3576   34.8992   39.2125 H   0  0  0  0  0  0  0  0  0  0  0  0
   38.7457   33.1453   39.2125 H   0  0  0  0  0  0  0  0  0  0  0  0
   40.1504   34.6659   42.6095 H   0  0  0  0  0  0  0  0  0  0  0  0
   38.8103   33.5958   42.0753 H   0  0  0  0  0  0  0  0  0  0  0  0
   40.5002   32.9869   42.0753 H   0  0  0  0  0  0  0  0  0  0  0  0
   40.0734   36.2719   41.4972 H   0  0  0  0  0  0  0  0  0  0  0  0
   40.9707   36.2183   39.9420 H   0  0  0  0  0  0  0  0  0  0  0  0
   39.1747   36.2523   39.9420 H   0  0  0  0  0  0  0  0  0  0  0  0
  1  7  1  0
  2  1  1  0
  3  4  1  0
  3  2  2  0
  4  5  2  0
  5  1  1  0
  5 12  1  0
  6 11  2  0
  7  6  1  0
  7  8  2  0
  8  9  1  0
  9 10  2  0
 11 10  1  0
 12 14  1  0
 13 12  1  0
 15 12  1  0
  2 16  1  0
  3 17  1  0
  6 18  1  0
  8 19  1  0
 10 20  1  0
 13 21  1  0
 13 22  1  0
 13 23  1  0
 14 24  1  0
 14 25  1  0
 14 26  1  0
 15 27  1  0
 15 28  1  0
 15 29  1  0
M  ISO  8  16  14  17  14  18  14  19  14  20  14  21   8  22   8  23   8
M  ISO  6  24   8  25   8  26   8  27   8  28   8  29   8
M  END
>  <minimizedAffinity>  (1) 
-4.14844942

>  <minimizedRMSD>  (1) 
2.51347756

$$$$
