
     RDKit          3D

 27 29  0  0  0  0  0  0  0  0999 V2000
   41.3510   33.4590   40.1310 N   0  0  0  0  0  0  0  0  0  0  0  0
   40.7950   34.0140   39.0440 C   0  0  0  0  0  0  0  0  0  0  0  0
   41.5230   35.1930   38.7880 C   0  0  0  0  0  0  0  0  0  0  0  0
   42.4820   35.3150   39.7150 N   0  0  0  0  0  0  0  0  0  0  0  0
   42.3850   34.2430   40.5540 C   0  0  0  0  0  0  0  0  0  0  0  0
   41.4560   31.0680   40.2290 C   0  0  0  0  0  0  0  0  0  0  0  0
   40.9940   32.2750   40.7900 C   0  0  0  0  0  0  0  0  0  0  0  0
   40.2140   32.2120   41.9650 C   0  0  0  0  0  0  0  0  0  0  0  0
   39.9520   30.9750   42.4960 N   0  0  0  0  0  0  0  0  0  0  0  0
   40.4270   29.8370   41.9110 C   0  0  0  0  0  0  0  0  0  0  0  0
   41.1810   29.8920   40.7740 N   0  0  0  0  0  0  0  0  0  0  0  0
   43.3550   34.2580   41.6120 C   0  0  0  0  0  0  0  0  0  0  0  0
   44.0270   33.1480   42.1120 C   0  0  0  0  0  0  0  0  0  0  0  0
   44.9460   33.1650   43.1250 C   0  0  0  0  0  0  0  0  0  0  0  0
   45.2230   34.3800   43.6920 C   0  0  0  0  0  0  0  0  0  0  0  0
   44.6380   35.5490   43.3000 C   0  0  0  0  0  0  0  0  0  0  0  0
   43.7250   35.4390   42.2710 C   0  0  0  0  0  0  0  0  0  0  0  0
   39.9418   33.6265   38.4679 H   0  0  0  0  0  0  0  0  0  0  0  0
   41.3349   35.8965   37.9636 H   0  0  0  0  0  0  0  0  0  0  0  0
   42.0626   31.1030   39.3120 H   0  0  0  0  0  0  0  0  0  0  0  0
   39.8285   33.1264   42.4397 H   0  0  0  0  0  0  0  0  0  0  0  0
   40.1988   28.8603   42.3626 H   0  0  0  0  0  0  0  0  0  0  0  0
   43.8004   32.1738   41.6541 H   0  0  0  0  0  0  0  0  0  0  0  0
   45.4401   32.2442   43.4685 H   0  0  0  0  0  0  0  0  0  0  0  0
   45.9583   34.4160   44.5093 H   0  0  0  0  0  0  0  0  0  0  0  0
   44.8779   36.5132   43.7720 H   0  0  0  0  0  0  0  0  0  0  0  0
   43.2406   36.3678   41.9353 H   0  0  0  0  0  0  0  0  0  0  0  0
  1  5  1  0
  1  7  1  0
  2  1  1  0
  3  2  2  0
  3  4  1  0
  4  5  2  0
  5 12  1  0
  6 11  2  0
  6  7  1  0
  7  8  2  0
  8  9  1  0
 10  9  2  0
 11 10  1  0
 12 13  2  0
 12 17  1  0
 13 14  1  0
 14 15  2  0
 16 15  1  0
 17 16  2  0
  2 18  1  0
  3 19  1  0
  6 20  1  0
  8 21  1  0
 10 22  1  0
 13 23  1  0
 14 24  1  0
 15 25  1  0
 16 26  1  0
 17 27  1  0
M  ISO  8  18  14  19  14  20  14  21  14  22  14  23  14  24  14  25  14
M  ISO  2  26  14  27  14
M  END
>  <minimizedAffinity>  (1) 
-4.00650311

>  <minimizedRMSD>  (1) 
4.9141221

$$$$
