
     RDKit          3D

 24 26  0  0  0  0  0  0  0  0999 V2000
   43.0080   32.8630   39.2470 N   0  0  0  0  0  0  0  0  0  0  0  0
   43.7650   32.2340   38.3370 C   0  0  0  0  0  0  0  0  0  0  0  0
   42.9100   31.6350   37.4010 C   0  0  0  0  0  0  0  0  0  0  0  0
   41.6520   31.9150   37.7660 N   0  0  0  0  0  0  0  0  0  0  0  0
   41.7040   32.6670   38.8970 C   0  0  0  0  0  0  0  0  0  0  0  0
   43.1880   34.9930   40.3120 C   0  0  0  0  0  0  0  0  0  0  0  0
   43.3840   33.5980   40.3790 C   0  0  0  0  0  0  0  0  0  0  0  0
   43.9240   33.0300   41.5500 C   0  0  0  0  0  0  0  0  0  0  0  0
   44.2300   33.8770   42.5670 N   0  0  0  0  0  0  0  0  0  0  0  0
   44.0250   35.2230   42.4650 C   0  0  0  0  0  0  0  0  0  0  0  0
   43.5020   35.7770   41.3320 N   0  0  0  0  0  0  0  0  0  0  0  0
   40.4010   33.0350   39.4170 C   0  0  0  0  0  0  0  0  0  0  0  0
   39.7190   32.1630   40.2430 C   0  0  0  0  0  0  0  0  0  0  0  0
   38.5200   32.7640   40.5850 C   0  0  0  0  0  0  0  0  0  0  0  0
   38.5490   33.9950   39.9280 C   0  0  0  0  0  0  0  0  0  0  0  0
   39.6470   34.1230   39.2630 O   0  0  0  0  0  0  0  0  0  0  0  0
   44.8642   32.1947   38.3264 H   0  0  0  0  0  0  0  0  0  0  0  0
   43.2165   31.0429   36.5261 H   0  0  0  0  0  0  0  0  0  0  0  0
   42.7675   35.4370   39.3977 H   0  0  0  0  0  0  0  0  0  0  0  0
   44.0908   31.9462   41.6370 H   0  0  0  0  0  0  0  0  0  0  0  0
   44.2864   35.8739   43.3123 H   0  0  0  0  0  0  0  0  0  0  0  0
   40.0656   31.1714   40.5696 H   0  0  0  0  0  0  0  0  0  0  0  0
   37.7240   32.3622   41.2292 H   0  0  0  0  0  0  0  0  0  0  0  0
   37.7492   34.7490   39.9711 H   0  0  0  0  0  0  0  0  0  0  0  0
  1  7  1  0
  2  1  1  0
  3  4  1  0
  3  2  2  0
  4  5  2  0
  5  1  1  0
  5 12  1  0
  6  7  2  0
  6 11  1  0
  7  8  1  0
  8  9  2  0
 10  9  1  0
 11 10  2  0
 12 13  2  0
 13 14  1  0
 15 14  2  0
 16 12  1  0
 16 15  1  0
  2 17  1  0
  3 18  1  0
  6 19  1  0
  8 20  1  0
 10 21  1  0
 13 22  1  0
 14 23  1  0
 15 24  1  0
M  ISO  8  17  14  18  14  19  14  20  14  21  14  22  14  23  14  24  14
M  END
>  <minimizedAffinity>  (1) 
-3.62719584

>  <minimizedRMSD>  (1) 
3.75359941

$$$$
