
     RDKit          3D

 45 49  0  0  0  0  0  0  0  0999 V2000
   43.3710   32.8010   41.2590 N   0  0  0  0  0  0  0  0  0  0  0  0
   42.6950   33.0660   40.1450 C   0  0  0  0  0  0  0  0  0  0  0  0
   42.8240   34.4360   39.8620 C   0  0  0  0  0  0  0  0  0  0  0  0
   43.5870   34.9630   40.8300 N   0  0  0  0  0  0  0  0  0  0  0  0
   43.9170   33.9640   41.6780 C   0  0  0  0  0  0  0  0  0  0  0  0
   44.7360   34.4460   42.7400 N   0  0  0  0  0  0  0  0  0  0  0  0
   45.4410   35.7370   42.8210 C   0  0  0  0  0  0  0  0  0  0  0  0
   44.9740   36.5670   43.9480 C   0  0  0  0  0  0  0  0  0  0  0  0
   44.2870   35.7720   44.9410 N   0  0  0  0  0  0  0  0  0  0  0  0
   44.9810   34.5200   45.1800 C   0  0  0  0  0  0  0  0  0  0  0  0
   44.9820   33.6560   43.9360 C   0  0  0  0  0  0  0  0  0  0  0  0
   44.8410   31.0500   41.9380 C   0  0  0  0  0  0  0  0  0  0  0  0
   43.5330   31.5890   41.9330 C   0  0  0  0  0  0  0  0  0  0  0  0
   42.5020   30.8930   42.6190 C   0  0  0  0  0  0  0  0  0  0  0  0
   42.8430   29.7350   43.2470 N   0  0  0  0  0  0  0  0  0  0  0  0
   44.0970   29.2630   43.2260 C   0  0  0  0  0  0  0  0  0  0  0  0
   45.1090   29.9200   42.5690 N   0  0  0  0  0  0  0  0  0  0  0  0
   44.4340   28.0180   43.9110 C   0  0  0  0  0  0  0  0  0  0  0  0
   44.6060   26.7690   43.3500 C   0  0  0  0  0  0  0  0  0  0  0  0
   44.9060   25.8860   44.3070 N   0  0  0  0  0  0  0  0  0  0  0  0
   44.9330   26.5370   45.4850 C   0  0  0  0  0  0  0  0  0  0  0  0
   45.1860   26.1060   46.7540 C   0  0  0  0  0  0  0  0  0  0  0  0
   45.1670   26.9360   47.8550 C   0  0  0  0  0  0  0  0  0  0  0  0
   44.8710   28.2620   47.6030 C   0  0  0  0  0  0  0  0  0  0  0  0
   44.6070   28.7510   46.3290 C   0  0  0  0  0  0  0  0  0  0  0  0
   44.6390   27.8810   45.2670 C   0  0  0  0  0  0  0  0  0  0  0  0
   42.1304   32.3361   39.5464 H   0  0  0  0  0  0  0  0  0  0  0  0
   42.3833   34.9734   39.0093 H   0  0  0  0  0  0  0  0  0  0  0  0
   46.5166   35.5441   42.9471 H   0  0  0  0  0  0  0  0  0  0  0  0
   45.2348   36.2888   41.8920 H   0  0  0  0  0  0  0  0  0  0  0  0
   45.8416   37.0538   44.4173 H   0  0  0  0  0  0  0  0  0  0  0  0
   44.2696   37.3160   43.5570 H   0  0  0  0  0  0  0  0  0  0  0  0
   44.2383   36.3031   45.8222 H   0  0  0  0  0  0  0  0  0  0  0  0
   46.0201   34.7341   45.4705 H   0  0  0  0  0  0  0  0  0  0  0  0
   44.4610   33.9780   45.9836 H   0  0  0  0  0  0  0  0  0  0  0  0
   44.1946   32.8936   44.0293 H   0  0  0  0  0  0  0  0  0  0  0  0
   45.9720   33.1859   43.8423 H   0  0  0  0  0  0  0  0  0  0  0  0
   45.6471   31.5793   41.4088 H   0  0  0  0  0  0  0  0  0  0  0  0
   41.4705   31.2744   42.6416 H   0  0  0  0  0  0  0  0  0  0  0  0
   44.5107   26.5360   42.2792 H   0  0  0  0  0  0  0  0  0  0  0  0
   45.0855   24.8814   44.1675 H   0  0  0  0  0  0  0  0  0  0  0  0
   45.4171   25.0415   46.9071 H   0  0  0  0  0  0  0  0  0  0  0  0
   45.3744   26.5659   48.8699 H   0  0  0  0  0  0  0  0  0  0  0  0
   44.8430   28.9632   48.4501 H   0  0  0  0  0  0  0  0  0  0  0  0
   44.3766   29.8154   46.1743 H   0  0  0  0  0  0  0  0  0  0  0  0
  1  5  1  0
  1 13  1  0
  2  1  1  0
  3  2  2  0
  3  4  1  0
  4  5  2  0
  5  6  1  0
  6  7  1  0
  6 11  1  0
  7  8  1  0
  8  9  1  0
  9 10  1  0
 11 10  1  0
 12 17  2  0
 13 12  1  0
 13 14  2  0
 14 15  1  0
 16 15  2  0
 16 18  1  0
 17 16  1  0
 18 26  1  0
 19 18  2  0
 19 20  1  0
 20 21  1  0
 21 22  2  0
 22 23  1  0
 24 23  2  0
 25 24  1  0
 26 21  1  0
 26 25  2  0
  2 27  1  0
  3 28  1  0
  7 29  1  0
  7 30  1  0
  8 31  1  0
  8 32  1  0
  9 33  1  0
 10 34  1  0
 10 35  1  0
 11 36  1  0
 11 37  1  0
 12 38  1  0
 14 39  1  0
 19 40  1  0
 20 41  1  0
 22 42  1  0
 23 43  1  0
 24 44  1  0
 25 45  1  0
M  ISO  8  27  14  28  14  29  13  30  13  31  13  32  13  33   5  34  13
M  ISO  8  35  13  36  13  37  13  38  14  39  14  40  14  41   9  42  14
M  ISO  3  43  14  44  14  45  14
M  END
>  <minimizedAffinity>  (1) 
-4.73414564

>  <minimizedRMSD>  (1) 
3.16508484

$$$$
