
     RDKit          3D

 42 46  0  0  0  0  0  0  0  0999 V2000
   43.2950   33.2790   41.0970 N   0  0  0  0  0  0  0  0  0  0  0  0
   42.5150   33.6790   40.0980 C   0  0  0  0  0  0  0  0  0  0  0  0
   42.5290   35.0810   40.0560 C   0  0  0  0  0  0  0  0  0  0  0  0
   43.3320   35.4820   41.0490 N   0  0  0  0  0  0  0  0  0  0  0  0
   43.7950   34.3840   41.6790 C   0  0  0  0  0  0  0  0  0  0  0  0
   44.6620   34.7390   42.7510 N   0  0  0  0  0  0  0  0  0  0  0  0
   45.2760   36.0590   43.0200 C   0  0  0  0  0  0  0  0  0  0  0  0
   44.8400   36.6330   44.3090 C   0  0  0  0  0  0  0  0  0  0  0  0
   44.2810   35.6260   45.1780 N   0  0  0  0  0  0  0  0  0  0  0  0
   45.0680   34.4090   45.1500 C   0  0  0  0  0  0  0  0  0  0  0  0
   45.0680   33.7850   43.7630 C   0  0  0  0  0  0  0  0  0  0  0  0
   44.8110   31.4280   41.0790 C   0  0  0  0  0  0  0  0  0  0  0  0
   43.5940   31.9880   41.5310 C   0  0  0  0  0  0  0  0  0  0  0  0
   42.7750   31.2070   42.3920 C   0  0  0  0  0  0  0  0  0  0  0  0
   43.2410   29.9760   42.7080 N   0  0  0  0  0  0  0  0  0  0  0  0
   44.4030   29.4840   42.2570 C   0  0  0  0  0  0  0  0  0  0  0  0
   45.1880   30.2180   41.4360 N   0  0  0  0  0  0  0  0  0  0  0  0
   44.7630   28.1620   42.6790 N   0  0  0  0  0  0  0  0  0  0  0  0
   45.4480   27.2350   41.9970 C   0  0  0  0  0  0  0  0  0  0  0  0
   45.5560   26.1280   42.7890 N   0  0  0  0  0  0  0  0  0  0  0  0
   44.9290   26.4220   43.9290 C   0  0  0  0  0  0  0  0  0  0  0  0
   44.7230   25.6800   45.0900 C   0  0  0  0  0  0  0  0  0  0  0  0
   44.0490   26.2140   46.1130 N   0  0  0  0  0  0  0  0  0  0  0  0
   43.5590   27.4860   46.0300 C   0  0  0  0  0  0  0  0  0  0  0  0
   43.7250   28.2530   44.9370 N   0  0  0  0  0  0  0  0  0  0  0  0
   44.4040   27.7190   43.9040 C   0  0  0  0  0  0  0  0  0  0  0  0
   41.9531   33.0213   39.4185 H   0  0  0  0  0  0  0  0  0  0  0  0
   41.9870   35.7240   39.3469 H   0  0  0  0  0  0  0  0  0  0  0  0
   46.3697   35.9424   43.0376 H   0  0  0  0  0  0  0  0  0  0  0  0
   44.9554   36.7457   42.2227 H   0  0  0  0  0  0  0  0  0  0  0  0
   45.7069   37.0923   44.8065 H   0  0  0  0  0  0  0  0  0  0  0  0
   44.0608   37.3822   44.1055 H   0  0  0  0  0  0  0  0  0  0  0  0
   44.2592   35.9892   46.1416 H   0  0  0  0  0  0  0  0  0  0  0  0
   46.1033   34.6447   45.4373 H   0  0  0  0  0  0  0  0  0  0  0  0
   44.6235   33.6908   45.8547 H   0  0  0  0  0  0  0  0  0  0  0  0
   44.3697   32.9351   43.7535 H   0  0  0  0  0  0  0  0  0  0  0  0
   46.0916   33.4537   43.5338 H   0  0  0  0  0  0  0  0  0  0  0  0
   45.4585   32.0174   40.4131 H   0  0  0  0  0  0  0  0  0  0  0  0
   41.8164   31.5822   42.7796 H   0  0  0  0  0  0  0  0  0  0  0  0
   45.8518   27.3457   40.9798 H   0  0  0  0  0  0  0  0  0  0  0  0
   45.1150   24.6549   45.1646 H   0  0  0  0  0  0  0  0  0  0  0  0
   43.0084   27.8987   46.8882 H   0  0  0  0  0  0  0  0  0  0  0  0
  1 13  1  0
  1  5  1  0
  2  1  1  0
  3  2  2  0
  3  4  1  0
  4  5  2  0
  5  6  1  0
  6  7  1  0
  6 11  1  0
  7  8  1  0
  8  9  1  0
 10  9  1  0
 11 10  1  0
 12 17  2  0
 12 13  1  0
 13 14  2  0
 14 15  1  0
 16 18  1  0
 16 15  2  0
 17 16  1  0
 18 26  1  0
 19 18  1  0
 19 20  2  0
 20 21  1  0
 21 22  2  0
 22 23  1  0
 24 23  2  0
 25 24  1  0
 26 21  1  0
 26 25  2  0
  2 27  1  0
  3 28  1  0
  7 29  1  0
  7 30  1  0
  8 31  1  0
  8 32  1  0
  9 33  1  0
 10 34  1  0
 10 35  1  0
 11 36  1  0
 11 37  1  0
 12 38  1  0
 14 39  1  0
 19 40  1  0
 22 41  1  0
 24 42  1  0
M  ISO  8  27  14  28  14  29  13  30  13  31  13  32  13  33   5  34  13
M  ISO  8  35  13  36  13  37  13  38  14  39  14  40  14  41  14  42  14
M  END
>  <minimizedAffinity>  (1) 
-4.69249868

>  <minimizedRMSD>  (1) 
0.643939018

$$$$
