
     RDKit          3D

 38 40  0  0  0  0  0  0  0  0999 V2000
   43.1310   33.3250   41.1680 N   0  0  0  0  0  0  0  0  0  0  0  0
   42.2550   33.7550   40.2610 C   0  0  0  0  0  0  0  0  0  0  0  0
   42.2030   35.1470   40.3220 C   0  0  0  0  0  0  0  0  0  0  0  0
   43.0600   35.5320   41.2760 N   0  0  0  0  0  0  0  0  0  0  0  0
   43.6260   34.4140   41.7910 C   0  0  0  0  0  0  0  0  0  0  0  0
   44.5500   34.7450   42.8070 N   0  0  0  0  0  0  0  0  0  0  0  0
   45.1400   36.0690   43.1190 C   0  0  0  0  0  0  0  0  0  0  0  0
   44.7810   36.5390   44.4740 C   0  0  0  0  0  0  0  0  0  0  0  0
   44.3400   35.4500   45.3150 N   0  0  0  0  0  0  0  0  0  0  0  0
   45.1960   34.2900   45.1340 C   0  0  0  0  0  0  0  0  0  0  0  0
   45.0620   33.7390   43.7290 C   0  0  0  0  0  0  0  0  0  0  0  0
   44.7130   31.5640   40.9120 C   0  0  0  0  0  0  0  0  0  0  0  0
   43.5250   32.0230   41.4860 C   0  0  0  0  0  0  0  0  0  0  0  0
   42.8150   31.1460   42.3490 C   0  0  0  0  0  0  0  0  0  0  0  0
   43.3600   29.9240   42.5450 N   0  0  0  0  0  0  0  0  0  0  0  0
   44.5080   29.5220   41.9730 C   0  0  0  0  0  0  0  0  0  0  0  0
   45.1780   30.3590   41.1520 N   0  0  0  0  0  0  0  0  0  0  0  0
   44.9640   28.2080   42.2640 N   0  0  0  0  0  0  0  0  0  0  0  0
   44.4030   27.4940   43.3590 C   0  0  0  0  0  0  0  0  0  0  0  0
   43.1690   27.5780   43.6400 N   0  0  0  0  0  0  0  0  0  0  0  0
   45.2270   26.6510   44.1750 N   0  0  0  0  0  0  0  0  0  0  0  0
   42.4300   28.1230   43.1750 H   0  0  0  0  0  0  0  0  0  0  0  0
   41.6713   33.1192   39.5791 H   0  0  0  0  0  0  0  0  0  0  0  0
   41.5758   35.8052   39.7028 H   0  0  0  0  0  0  0  0  0  0  0  0
   46.2352   35.9933   43.0497 H   0  0  0  0  0  0  0  0  0  0  0  0
   44.7403   36.7942   42.3948 H   0  0  0  0  0  0  0  0  0  0  0  0
   45.6622   37.0106   44.9334 H   0  0  0  0  0  0  0  0  0  0  0  0
   43.9542   37.2585   44.3809 H   0  0  0  0  0  0  0  0  0  0  0  0
   44.3751   35.7469   46.3006 H   0  0  0  0  0  0  0  0  0  0  0  0
   46.2419   34.5823   45.3089 H   0  0  0  0  0  0  0  0  0  0  0  0
   44.8923   33.5116   45.8494 H   0  0  0  0  0  0  0  0  0  0  0  0
   44.3703   32.8838   43.7450 H   0  0  0  0  0  0  0  0  0  0  0  0
   46.0594   33.4298   43.3831 H   0  0  0  0  0  0  0  0  0  0  0  0
   45.2747   32.2300   40.2405 H   0  0  0  0  0  0  0  0  0  0  0  0
   41.8728   31.4448   42.8317 H   0  0  0  0  0  0  0  0  0  0  0  0
   45.6972   27.7746   41.6848 H   0  0  0  0  0  0  0  0  0  0  0  0
   44.8138   26.1371   44.9662 H   0  0  0  0  0  0  0  0  0  0  0  0
   46.2322   26.5593   43.9700 H   0  0  0  0  0  0  0  0  0  0  0  0
  1 13  1  0
  1  5  1  0
  2  3  2  0
  2  1  1  0
  3  4  1  0
  4  5  2  0
  5  6  1  0
  6  7  1  0
  6 11  1  0
  7  8  1  0
  8  9  1  0
 10  9  1  0
 11 10  1  0
 12 17  2  0
 12 13  1  0
 13 14  2  0
 14 15  1  0
 16 18  1  0
 16 15  2  0
 17 16  1  0
 18 19  1  0
 19 20  2  0
 19 21  1  0
 22 20  1  0
  2 23  1  0
  3 24  1  0
  7 25  1  0
  7 26  1  0
  8 27  1  0
  8 28  1  0
  9 29  1  0
 10 30  1  0
 10 31  1  0
 11 32  1  0
 11 33  1  0
 12 34  1  0
 14 35  1  0
 18 36  1  0
 21 37  1  0
 21 38  1  0
M  ISO  8  23  14  24  14  25  13  26  13  27  13  28  13  29   5  30  13
M  ISO  5  31  13  32  13  33  13  34  14  35  14
M  END
>  <minimizedAffinity>  (1) 
-4.35773993

>  <minimizedRMSD>  (1) 
0.178239152

$$$$
