
     RDKit          3D

 39 42  0  0  0  0  0  0  0  0999 V2000
   46.6390   34.7580   42.0700 C   0  0  0  0  0  0  0  0  0  0  0  0
   47.9130   35.2900   41.9660 C   0  0  0  0  0  0  0  0  0  0  0  0
   48.7120   35.1800   40.8520 C   0  0  0  0  0  0  0  0  0  0  0  0
   48.2350   34.5010   39.7660 C   0  0  0  0  0  0  0  0  0  0  0  0
   46.9750   33.9400   39.7910 C   0  0  0  0  0  0  0  0  0  0  0  0
   46.4910   33.2630   38.6920 C   0  0  0  0  0  0  0  0  0  0  0  0
   45.2310   32.7000   38.6840 C   0  0  0  0  0  0  0  0  0  0  0  0
   44.4920   32.8610   39.8470 C   0  0  0  0  0  0  0  0  0  0  0  0
   45.0000   33.5320   40.9080 C   0  0  0  0  0  0  0  0  0  0  0  0
   46.2470   34.0960   40.9300 C   0  0  0  0  0  0  0  0  0  0  0  0
   44.4070   35.9250   44.9340 C   0  0  0  0  0  0  0  0  0  0  0  0
   45.0070   35.8990   43.6770 C   0  0  0  0  0  0  0  0  0  0  0  0
   45.9270   34.9470   43.3070 C   0  0  0  0  0  0  0  0  0  0  0  0
   46.1890   34.0370   44.2920 N   0  0  0  0  0  0  0  0  0  0  0  0
   45.6240   34.0410   45.5040 C   0  0  0  0  0  0  0  0  0  0  0  0
   44.7410   34.9870   45.8050 N   0  0  0  0  0  0  0  0  0  0  0  0
   45.9690   33.0450   46.4550 N   0  0  0  0  0  0  0  0  0  0  0  0
   45.1640   32.8280   47.6300 C   0  0  0  0  0  0  0  0  0  0  0  0
   45.2480   31.3380   47.9550 C   0  0  0  0  0  0  0  0  0  0  0  0
   45.3530   30.6610   46.7380 O   0  0  0  0  0  0  0  0  0  0  0  0
   46.6170   30.7850   46.1740 C   0  0  0  0  0  0  0  0  0  0  0  0
   47.1420   32.2080   46.2820 C   0  0  0  0  0  0  0  0  0  0  0  0
   48.3129   35.8373   42.8324 H   0  0  0  0  0  0  0  0  0  0  0  0
   49.7157   35.6299   40.8354 H   0  0  0  0  0  0  0  0  0  0  0  0
   48.8598   34.4012   38.8662 H   0  0  0  0  0  0  0  0  0  0  0  0
   47.1255   33.1691   37.7983 H   0  0  0  0  0  0  0  0  0  0  0  0
   44.8378   32.1582   37.8112 H   0  0  0  0  0  0  0  0  0  0  0  0
   43.4787   32.4375   39.9082 H   0  0  0  0  0  0  0  0  0  0  0  0
   44.3727   33.6297   41.8063 H   0  0  0  0  0  0  0  0  0  0  0  0
   43.6756   36.7041   45.1951 H   0  0  0  0  0  0  0  0  0  0  0  0
   44.7322   36.6753   42.9477 H   0  0  0  0  0  0  0  0  0  0  0  0
   45.5535   33.4212   48.4705 H   0  0  0  0  0  0  0  0  0  0  0  0
   44.1222   33.1355   47.4564 H   0  0  0  0  0  0  0  0  0  0  0  0
   46.1323   31.1362   48.5773 H   0  0  0  0  0  0  0  0  0  0  0  0
   44.3601   31.0069   48.5136 H   0  0  0  0  0  0  0  0  0  0  0  0
   46.5629   30.5043   45.1118 H   0  0  0  0  0  0  0  0  0  0  0  0
   47.3040   30.1228   46.7213 H   0  0  0  0  0  0  0  0  0  0  0  0
   47.8137   32.3047   47.1477 H   0  0  0  0  0  0  0  0  0  0  0  0
   47.7204   32.4970   45.3921 H   0  0  0  0  0  0  0  0  0  0  0  0
  1 13  1  0
  2  1  2  0
  3  2  1  0
  4  5  1  0
  4  3  2  0
  5 10  2  0
  6  5  1  0
  7  6  2  0
  7  8  1  0
  8  9  2  0
  9 10  1  0
 10  1  1  0
 11 16  2  0
 12 11  1  0
 13 12  2  0
 13 14  1  0
 14 15  2  0
 15 16  1  0
 15 17  1  0
 17 18  1  0
 18 19  1  0
 20 19  1  0
 21 22  1  0
 21 20  1  0
 22 17  1  0
  2 23  1  0
  3 24  1  0
  4 25  1  0
  6 26  1  0
  7 27  1  0
  8 28  1  0
  9 29  1  0
 11 30  1  0
 12 31  1  0
 18 32  1  0
 18 33  1  0
 19 34  1  0
 19 35  1  0
 21 36  1  0
 21 37  1  0
 22 38  1  0
 22 39  1  0
M  ISO  8  23  14  24  14  25  14  26  14  27  14  28  14  29  14  30  14
M  ISO  8  31  14  32  13  33  13  34  13  35  13  36  13  37  13  38  13
M  ISO  1  39  13
M  END
>  <minimizedAffinity>  (1) 
-7.11837721

>  <minimizedRMSD>  (1) 
0.17215237

$$$$
