
     RDKit          3D

 45 48  0  0  0  0  0  0  0  0999 V2000
   43.2740   33.3460   41.0840 N   0  0  0  0  0  0  0  0  0  0  0  0
   42.4340   33.7730   40.1460 C   0  0  0  0  0  0  0  0  0  0  0  0
   42.3740   35.1660   40.2050 C   0  0  0  0  0  0  0  0  0  0  0  0
   43.1910   35.5500   41.1930 N   0  0  0  0  0  0  0  0  0  0  0  0
   43.7350   34.4390   41.7240 C   0  0  0  0  0  0  0  0  0  0  0  0
   44.6220   34.7700   42.7840 N   0  0  0  0  0  0  0  0  0  0  0  0
   45.1800   36.1020   43.1270 C   0  0  0  0  0  0  0  0  0  0  0  0
   44.7650   36.5570   44.4690 C   0  0  0  0  0  0  0  0  0  0  0  0
   44.3120   35.4550   45.2880 N   0  0  0  0  0  0  0  0  0  0  0  0
   45.1820   34.3080   45.1280 C   0  0  0  0  0  0  0  0  0  0  0  0
   45.1160   33.7640   43.7120 C   0  0  0  0  0  0  0  0  0  0  0  0
   44.8460   31.5700   40.8210 C   0  0  0  0  0  0  0  0  0  0  0  0
   43.6570   32.0540   41.4140 C   0  0  0  0  0  0  0  0  0  0  0  0
   42.9600   31.1890   42.2990 C   0  0  0  0  0  0  0  0  0  0  0  0
   43.4870   29.9640   42.5090 N   0  0  0  0  0  0  0  0  0  0  0  0
   44.6190   29.5450   41.9250 C   0  0  0  0  0  0  0  0  0  0  0  0
   45.3070   30.3620   41.0680 N   0  0  0  0  0  0  0  0  0  0  0  0
   45.1640   28.2520   42.1550 N   0  0  0  0  0  0  0  0  0  0  0  0
   44.3660   27.0410   42.1560 C   0  0  0  0  0  0  0  0  0  0  0  0
   44.4800   26.4900   43.5600 C   0  0  0  0  0  0  0  0  0  0  0  0
   45.8260   26.2290   43.9370 N   0  0  0  0  0  0  0  0  0  0  0  0
   46.8520   26.7400   43.1010 C   0  0  0  0  0  0  0  0  0  0  0  0
   46.5500   28.0160   42.4070 C   0  0  0  0  0  0  0  0  0  0  0  0
   41.8795   33.1354   39.4418 H   0  0  0  0  0  0  0  0  0  0  0  0
   41.7702   35.8232   39.5619 H   0  0  0  0  0  0  0  0  0  0  0  0
   46.2780   36.0433   43.0977 H   0  0  0  0  0  0  0  0  0  0  0  0
   44.7956   36.8259   42.3934 H   0  0  0  0  0  0  0  0  0  0  0  0
   45.6210   37.0404   44.9626 H   0  0  0  0  0  0  0  0  0  0  0  0
   43.9301   37.2632   44.3500 H   0  0  0  0  0  0  0  0  0  0  0  0
   44.3131   35.7452   46.2763 H   0  0  0  0  0  0  0  0  0  0  0  0
   46.2167   34.6085   45.3494 H   0  0  0  0  0  0  0  0  0  0  0  0
   44.8513   33.5198   45.8204 H   0  0  0  0  0  0  0  0  0  0  0  0
   44.4411   32.8956   43.6924 H   0  0  0  0  0  0  0  0  0  0  0  0
   46.1310   33.4736   43.4029 H   0  0  0  0  0  0  0  0  0  0  0  0
   45.4026   32.2228   40.1324 H   0  0  0  0  0  0  0  0  0  0  0  0
   42.0291   31.5043   42.7930 H   0  0  0  0  0  0  0  0  0  0  0  0
   43.3173   27.2703   41.9159 H   0  0  0  0  0  0  0  0  0  0  0  0
   44.7143   26.3194   41.4024 H   0  0  0  0  0  0  0  0  0  0  0  0
   44.0532   27.2219   44.2615 H   0  0  0  0  0  0  0  0  0  0  0  0
   43.9347   25.5351   43.5886 H   0  0  0  0  0  0  0  0  0  0  0  0
   45.9661   26.6281   44.8762 H   0  0  0  0  0  0  0  0  0  0  0  0
   47.7453   26.8984   43.7230 H   0  0  0  0  0  0  0  0  0  0  0  0
   46.9850   25.9933   42.3043 H   0  0  0  0  0  0  0  0  0  0  0  0
   47.0768   28.0124   41.4413 H   0  0  0  0  0  0  0  0  0  0  0  0
   46.8812   28.8192   43.0817 H   0  0  0  0  0  0  0  0  0  0  0  0
  1 13  1  0
  1  5  1  0
  2  3  2  0
  2  1  1  0
  3  4  1  0
  4  5  2  0
  5  6  1  0
  6  7  1  0
  6 11  1  0
  7  8  1  0
  8  9  1  0
 10  9  1  0
 11 10  1  0
 12 17  2  0
 12 13  1  0
 13 14  2  0
 14 15  1  0
 16 18  1  0
 16 15  2  0
 17 16  1  0
 18 19  1  0
 18 23  1  0
 19 20  1  0
 20 21  1  0
 22 21  1  0
 23 22  1  0
  2 24  1  0
  3 25  1  0
  7 26  1  0
  7 27  1  0
  8 28  1  0
  8 29  1  0
  9 30  1  0
 10 31  1  0
 10 32  1  0
 11 33  1  0
 11 34  1  0
 12 35  1  0
 14 36  1  0
 19 37  1  0
 19 38  1  0
 20 39  1  0
 20 40  1  0
 21 41  1  0
 22 42  1  0
 22 43  1  0
 23 44  1  0
 23 45  1  0
M  ISO  8  24  14  25  14  26  13  27  13  28  13  29  13  30   5  31  13
M  ISO  8  32  13  33  13  34  13  35  14  36  14  37  13  38  13  39  13
M  ISO  6  40  13  41   5  42  13  43  13  44  13  45  13
M  END
>  <minimizedAffinity>  (1) 
-4.32647943

>  <minimizedRMSD>  (1) 
0.181992382

$$$$
