
     RDKit          3D

 46 49  0  0  0  0  0  0  0  0999 V2000
   43.1640   33.3350   41.1570 N   0  0  0  0  0  0  0  0  0  0  0  0
   42.2820   33.7560   40.2540 C   0  0  0  0  0  0  0  0  0  0  0  0
   42.2070   35.1470   40.3270 C   0  0  0  0  0  0  0  0  0  0  0  0
   43.0590   35.5370   41.2870 N   0  0  0  0  0  0  0  0  0  0  0  0
   43.6370   34.4280   41.7880 C   0  0  0  0  0  0  0  0  0  0  0  0
   44.5530   34.7810   42.8090 N   0  0  0  0  0  0  0  0  0  0  0  0
   45.1420   36.0920   43.1230 C   0  0  0  0  0  0  0  0  0  0  0  0
   44.7520   36.5430   44.4890 C   0  0  0  0  0  0  0  0  0  0  0  0
   44.3460   35.4310   45.3300 N   0  0  0  0  0  0  0  0  0  0  0  0
   45.2340   34.2890   45.1280 C   0  0  0  0  0  0  0  0  0  0  0  0
   45.0400   33.7420   43.7460 C   0  0  0  0  0  0  0  0  0  0  0  0
   44.7690   31.5930   40.8700 C   0  0  0  0  0  0  0  0  0  0  0  0
   43.5750   32.0440   41.4610 C   0  0  0  0  0  0  0  0  0  0  0  0
   42.8940   31.1460   42.3270 C   0  0  0  0  0  0  0  0  0  0  0  0
   43.4470   29.9290   42.5150 N   0  0  0  0  0  0  0  0  0  0  0  0
   44.5950   29.5450   41.9240 C   0  0  0  0  0  0  0  0  0  0  0  0
   45.2660   30.3990   41.0840 N   0  0  0  0  0  0  0  0  0  0  0  0
   45.1650   28.2560   42.1330 N   0  0  0  0  0  0  0  0  0  0  0  0
   46.5650   28.0530   42.3880 C   0  0  0  0  0  0  0  0  0  0  0  0
   46.8120   27.1570   43.5810 C   0  0  0  0  0  0  0  0  0  0  0  0
   45.8510   25.9970   43.6290 C   0  0  0  0  0  0  0  0  0  0  0  0
   44.4140   26.4820   43.4990 C   0  0  0  0  0  0  0  0  0  0  0  0
   44.3100   27.0830   42.0910 C   0  0  0  0  0  0  0  0  0  0  0  0
   41.7093   33.1159   39.5667 H   0  0  0  0  0  0  0  0  0  0  0  0
   41.5697   35.8006   39.7133 H   0  0  0  0  0  0  0  0  0  0  0  0
   46.2380   36.0154   43.0694 H   0  0  0  0  0  0  0  0  0  0  0  0
   44.7692   36.8259   42.3934 H   0  0  0  0  0  0  0  0  0  0  0  0
   45.6109   37.0472   44.9560 H   0  0  0  0  0  0  0  0  0  0  0  0
   43.8963   37.2272   44.3912 H   0  0  0  0  0  0  0  0  0  0  0  0
   44.3849   35.7206   46.3177 H   0  0  0  0  0  0  0  0  0  0  0  0
   46.2786   34.6107   45.2515 H   0  0  0  0  0  0  0  0  0  0  0  0
   45.0004   33.5083   45.8669 H   0  0  0  0  0  0  0  0  0  0  0  0
   44.3045   32.9250   43.7859 H   0  0  0  0  0  0  0  0  0  0  0  0
   46.0123   33.3795   43.3810 H   0  0  0  0  0  0  0  0  0  0  0  0
   45.3109   32.2738   40.1970 H   0  0  0  0  0  0  0  0  0  0  0  0
   41.9548   31.4310   42.8237 H   0  0  0  0  0  0  0  0  0  0  0  0
   47.0222   27.5922   41.5000 H   0  0  0  0  0  0  0  0  0  0  0  0
   47.0104   29.0342   42.6088 H   0  0  0  0  0  0  0  0  0  0  0  0
   47.8382   26.7650   43.5235 H   0  0  0  0  0  0  0  0  0  0  0  0
   46.6637   27.7569   44.4910 H   0  0  0  0  0  0  0  0  0  0  0  0
   46.0756   25.3078   42.8016 H   0  0  0  0  0  0  0  0  0  0  0  0
   45.9646   25.4838   44.5953 H   0  0  0  0  0  0  0  0  0  0  0  0
   43.7130   25.6417   43.6111 H   0  0  0  0  0  0  0  0  0  0  0  0
   44.1596   27.2174   44.2765 H   0  0  0  0  0  0  0  0  0  0  0  0
   43.2715   27.3666   41.8649 H   0  0  0  0  0  0  0  0  0  0  0  0
   44.6135   26.3716   41.3088 H   0  0  0  0  0  0  0  0  0  0  0  0
  1 13  1  0
  1  5  1  0
  2  3  2  0
  2  1  1  0
  3  4  1  0
  4  5  2  0
  5  6  1  0
  6  7  1  0
  6 11  1  0
  7  8  1  0
  8  9  1  0
 10  9  1  0
 11 10  1  0
 12 17  2  0
 12 13  1  0
 13 14  2  0
 14 15  1  0
 16 18  1  0
 16 15  2  0
 17 16  1  0
 18 19  1  0
 19 20  1  0
 20 21  1  0
 22 21  1  0
 23 18  1  0
 23 22  1  0
  2 24  1  0
  3 25  1  0
  7 26  1  0
  7 27  1  0
  8 28  1  0
  8 29  1  0
  9 30  1  0
 10 31  1  0
 10 32  1  0
 11 33  1  0
 11 34  1  0
 12 35  1  0
 14 36  1  0
 19 37  1  0
 19 38  1  0
 20 39  1  0
 20 40  1  0
 21 41  1  0
 21 42  1  0
 22 43  1  0
 22 44  1  0
 23 45  1  0
 23 46  1  0
M  ISO  8  24  14  25  14  26  13  27  13  28  13  29  13  30   5  31  13
M  ISO  8  32  13  33  13  34  13  35  14  36  14  37  13  38  13  39  13
M  ISO  7  40  13  41  13  42  13  43  13  44  13  45  13  46  13
M  END
>  <minimizedAffinity>  (1) 
-4.31726694

>  <minimizedRMSD>  (1) 
0.119627036

$$$$
