
     RDKit          3D

 44 47  0  0  0  0  0  0  0  0999 V2000
   43.2760   33.3390   41.0850 N   0  0  0  0  0  0  0  0  0  0  0  0
   42.4370   33.7630   40.1440 C   0  0  0  0  0  0  0  0  0  0  0  0
   42.3740   35.1580   40.1980 C   0  0  0  0  0  0  0  0  0  0  0  0
   43.1910   35.5450   41.1880 N   0  0  0  0  0  0  0  0  0  0  0  0
   43.7400   34.4310   41.7270 C   0  0  0  0  0  0  0  0  0  0  0  0
   44.6180   34.7650   42.7830 N   0  0  0  0  0  0  0  0  0  0  0  0
   45.1870   36.0960   43.1160 C   0  0  0  0  0  0  0  0  0  0  0  0
   44.7770   36.5620   44.4520 C   0  0  0  0  0  0  0  0  0  0  0  0
   44.3050   35.4620   45.2790 N   0  0  0  0  0  0  0  0  0  0  0  0
   45.1840   34.3130   45.1280 C   0  0  0  0  0  0  0  0  0  0  0  0
   45.0950   33.7580   43.7260 C   0  0  0  0  0  0  0  0  0  0  0  0
   44.8520   31.5660   40.8250 C   0  0  0  0  0  0  0  0  0  0  0  0
   43.6600   32.0450   41.4170 C   0  0  0  0  0  0  0  0  0  0  0  0
   42.9630   31.1790   42.3020 C   0  0  0  0  0  0  0  0  0  0  0  0
   43.4980   29.9570   42.5120 N   0  0  0  0  0  0  0  0  0  0  0  0
   44.6320   29.5460   41.9290 C   0  0  0  0  0  0  0  0  0  0  0  0
   45.3210   30.3600   41.0710 N   0  0  0  0  0  0  0  0  0  0  0  0
   45.1430   28.2490   42.1900 N   0  0  0  0  0  0  0  0  0  0  0  0
   46.4640   28.1200   42.7760 C   0  0  0  0  0  0  0  0  0  0  0  0
   46.7520   26.6350   42.8220 C   0  0  0  0  0  0  0  0  0  0  0  0
   45.7810   25.9490   43.5100 O   0  0  0  0  0  0  0  0  0  0  0  0
   44.4970   26.1170   43.0550 C   0  0  0  0  0  0  0  0  0  0  0  0
   44.3730   27.0650   41.8850 C   0  0  0  0  0  0  0  0  0  0  0  0
   41.8848   33.1224   39.4406 H   0  0  0  0  0  0  0  0  0  0  0  0
   41.7702   35.8126   39.5524 H   0  0  0  0  0  0  0  0  0  0  0  0
   46.2845   36.0287   43.0864 H   0  0  0  0  0  0  0  0  0  0  0  0
   44.8082   36.8178   42.3774 H   0  0  0  0  0  0  0  0  0  0  0  0
   45.6385   37.0358   44.9452 H   0  0  0  0  0  0  0  0  0  0  0  0
   43.9525   37.2797   44.3291 H   0  0  0  0  0  0  0  0  0  0  0  0
   44.2956   35.7569   46.2658 H   0  0  0  0  0  0  0  0  0  0  0  0
   46.2204   34.6214   45.3299 H   0  0  0  0  0  0  0  0  0  0  0  0
   44.8744   33.5330   45.8392 H   0  0  0  0  0  0  0  0  0  0  0  0
   44.3992   32.9061   43.7220 H   0  0  0  0  0  0  0  0  0  0  0  0
   46.1015   33.4419   43.4146 H   0  0  0  0  0  0  0  0  0  0  0  0
   45.4053   32.2220   40.1368 H   0  0  0  0  0  0  0  0  0  0  0  0
   42.0296   31.4900   42.7939 H   0  0  0  0  0  0  0  0  0  0  0  0
   47.2107   28.6358   42.1544 H   0  0  0  0  0  0  0  0  0  0  0  0
   46.5081   28.5720   43.7779 H   0  0  0  0  0  0  0  0  0  0  0  0
   46.7993   26.2493   41.7929 H   0  0  0  0  0  0  0  0  0  0  0  0
   47.7094   26.4880   43.3432 H   0  0  0  0  0  0  0  0  0  0  0  0
   44.1094   25.1351   42.7458 H   0  0  0  0  0  0  0  0  0  0  0  0
   43.9240   26.5603   43.8828 H   0  0  0  0  0  0  0  0  0  0  0  0
   43.3175   27.3345   41.7324 H   0  0  0  0  0  0  0  0  0  0  0  0
   44.7471   26.5906   40.9658 H   0  0  0  0  0  0  0  0  0  0  0  0
  1 13  1  0
  1  5  1  0
  2  3  2  0
  2  1  1  0
  3  4  1  0
  4  5  2  0
  5  6  1  0
  6  7  1  0
  6 11  1  0
  7  8  1  0
  8  9  1  0
 10  9  1  0
 11 10  1  0
 12 17  2  0
 12 13  1  0
 13 14  2  0
 14 15  1  0
 16 18  1  0
 16 15  2  0
 17 16  1  0
 18 19  1  0
 19 20  1  0
 20 21  1  0
 22 21  1  0
 23 18  1  0
 23 22  1  0
  2 24  1  0
  3 25  1  0
  7 26  1  0
  7 27  1  0
  8 28  1  0
  8 29  1  0
  9 30  1  0
 10 31  1  0
 10 32  1  0
 11 33  1  0
 11 34  1  0
 12 35  1  0
 14 36  1  0
 19 37  1  0
 19 38  1  0
 20 39  1  0
 20 40  1  0
 22 41  1  0
 22 42  1  0
 23 43  1  0
 23 44  1  0
M  ISO  8  24  14  25  14  26  13  27  13  28  13  29  13  30   5  31  13
M  ISO  8  32  13  33  13  34  13  35  14  36  14  37  13  38  13  39  13
M  ISO  5  40  13  41  13  42  13  43  13  44  13
M  END
>  <minimizedAffinity>  (1) 
-4.29875612

>  <minimizedRMSD>  (1) 
0.185014501

$$$$
