
     RDKit          3D

 38 41  0  0  0  0  0  0  0  0999 V2000
   43.1250   33.3360   41.1760 N   0  0  0  0  0  0  0  0  0  0  0  0
   42.2250   33.7520   40.2880 C   0  0  0  0  0  0  0  0  0  0  0  0
   42.1400   35.1440   40.3670 C   0  0  0  0  0  0  0  0  0  0  0  0
   43.0030   35.5360   41.3120 N   0  0  0  0  0  0  0  0  0  0  0  0
   43.5990   34.4290   41.8010 C   0  0  0  0  0  0  0  0  0  0  0  0
   44.5370   34.7610   42.8150 N   0  0  0  0  0  0  0  0  0  0  0  0
   45.0990   36.0990   43.1300 C   0  0  0  0  0  0  0  0  0  0  0  0
   44.7550   36.5440   44.4940 C   0  0  0  0  0  0  0  0  0  0  0  0
   44.3440   35.4310   45.3290 N   0  0  0  0  0  0  0  0  0  0  0  0
   45.2280   34.2910   45.1230 C   0  0  0  0  0  0  0  0  0  0  0  0
   45.0870   33.7560   43.7150 C   0  0  0  0  0  0  0  0  0  0  0  0
   44.7490   31.6120   40.8420 C   0  0  0  0  0  0  0  0  0  0  0  0
   43.5550   32.0390   41.4680 C   0  0  0  0  0  0  0  0  0  0  0  0
   42.8840   31.1420   42.3450 C   0  0  0  0  0  0  0  0  0  0  0  0
   43.4500   29.9270   42.5170 N   0  0  0  0  0  0  0  0  0  0  0  0
   44.5890   29.5550   41.9030 C   0  0  0  0  0  0  0  0  0  0  0  0
   45.2450   30.4120   41.0540 N   0  0  0  0  0  0  0  0  0  0  0  0
   44.9670   28.2300   42.2560 N   0  0  0  0  0  0  0  0  0  0  0  0
   45.4320   27.2060   41.5620 N   0  0  0  0  0  0  0  0  0  0  0  0
   45.6350   26.1480   42.4010 C   0  0  0  0  0  0  0  0  0  0  0  0
   45.2770   26.5400   43.6790 C   0  0  0  0  0  0  0  0  0  0  0  0
   44.8600   27.8550   43.5570 C   0  0  0  0  0  0  0  0  0  0  0  0
   41.6468   33.1092   39.6079 H   0  0  0  0  0  0  0  0  0  0  0  0
   41.4875   35.7947   39.7664 H   0  0  0  0  0  0  0  0  0  0  0  0
   46.1942   36.0531   43.0386 H   0  0  0  0  0  0  0  0  0  0  0  0
   44.6666   36.8208   42.4215 H   0  0  0  0  0  0  0  0  0  0  0  0
   45.6356   37.0238   44.9461 H   0  0  0  0  0  0  0  0  0  0  0  0
   43.9156   37.2516   44.4246 H   0  0  0  0  0  0  0  0  0  0  0  0
   44.3819   35.7160   46.3180 H   0  0  0  0  0  0  0  0  0  0  0  0
   46.2689   34.6063   45.2875 H   0  0  0  0  0  0  0  0  0  0  0  0
   44.9544   33.4969   45.8333 H   0  0  0  0  0  0  0  0  0  0  0  0
   44.4168   32.8838   43.7294 H   0  0  0  0  0  0  0  0  0  0  0  0
   46.0863   33.4758   43.3504 H   0  0  0  0  0  0  0  0  0  0  0  0
   45.2750   32.2987   40.1624 H   0  0  0  0  0  0  0  0  0  0  0  0
   41.9519   31.4231   42.8570 H   0  0  0  0  0  0  0  0  0  0  0  0
   46.0163   25.1576   42.1117 H   0  0  0  0  0  0  0  0  0  0  0  0
   45.3155   25.9353   44.5971 H   0  0  0  0  0  0  0  0  0  0  0  0
   44.5009   28.4915   44.3791 H   0  0  0  0  0  0  0  0  0  0  0  0
  1 13  1  0
  1  5  1  0
  2  3  2  0
  2  1  1  0
  3  4  1  0
  4  5  2  0
  5  6  1  0
  6  7  1  0
  6 11  1  0
  7  8  1  0
  8  9  1  0
 10  9  1  0
 11 10  1  0
 12 17  2  0
 12 13  1  0
 13 14  2  0
 14 15  1  0
 16 18  1  0
 16 15  2  0
 17 16  1  0
 18 22  1  0
 19 18  1  0
 19 20  2  0
 20 21  1  0
 22 21  2  0
  2 23  1  0
  3 24  1  0
  7 25  1  0
  7 26  1  0
  8 27  1  0
  8 28  1  0
  9 29  1  0
 10 30  1  0
 10 31  1  0
 11 32  1  0
 11 33  1  0
 12 34  1  0
 14 35  1  0
 20 36  1  0
 21 37  1  0
 22 38  1  0
M  ISO  8  23  14  24  14  25  13  26  13  27  13  28  13  29   5  30  13
M  ISO  8  31  13  32  13  33  13  34  14  35  14  36  14  37  14  38  14
M  END
>  <minimizedAffinity>  (1) 
-4.29779434

>  <minimizedRMSD>  (1) 
0.0792826712

$$$$
