
     RDKit          3D

 38 41  0  0  0  0  0  0  0  0999 V2000
   43.2620   33.3410   41.0960 N   0  0  0  0  0  0  0  0  0  0  0  0
   42.4200   33.7700   40.1510 C   0  0  0  0  0  0  0  0  0  0  0  0
   42.3630   35.1630   40.1980 C   0  0  0  0  0  0  0  0  0  0  0  0
   43.1820   35.5540   41.1840 N   0  0  0  0  0  0  0  0  0  0  0  0
   43.7320   34.4360   41.7310 C   0  0  0  0  0  0  0  0  0  0  0  0
   44.6210   34.7720   42.7840 N   0  0  0  0  0  0  0  0  0  0  0  0
   45.1810   36.0990   43.1030 C   0  0  0  0  0  0  0  0  0  0  0  0
   44.7810   36.5700   44.4480 C   0  0  0  0  0  0  0  0  0  0  0  0
   44.3100   35.4860   45.2730 N   0  0  0  0  0  0  0  0  0  0  0  0
   45.1560   34.3240   45.1350 C   0  0  0  0  0  0  0  0  0  0  0  0
   45.1100   33.7770   43.7190 C   0  0  0  0  0  0  0  0  0  0  0  0
   44.8340   31.5770   40.8370 C   0  0  0  0  0  0  0  0  0  0  0  0
   43.6410   32.0490   41.4320 C   0  0  0  0  0  0  0  0  0  0  0  0
   42.9360   31.1900   42.3160 C   0  0  0  0  0  0  0  0  0  0  0  0
   43.4730   29.9650   42.5230 N   0  0  0  0  0  0  0  0  0  0  0  0
   44.6060   29.5410   41.9470 C   0  0  0  0  0  0  0  0  0  0  0  0
   45.2790   30.3590   41.1040 N   0  0  0  0  0  0  0  0  0  0  0  0
   44.9800   28.2170   42.3140 N   0  0  0  0  0  0  0  0  0  0  0  0
   45.2670   27.0900   41.6470 C   0  0  0  0  0  0  0  0  0  0  0  0
   45.5560   26.1460   42.6340 C   0  0  0  0  0  0  0  0  0  0  0  0
   45.4390   26.7160   43.8480 N   0  0  0  0  0  0  0  0  0  0  0  0
   45.0830   27.9970   43.6530 C   0  0  0  0  0  0  0  0  0  0  0  0
   41.8632   33.1297   39.4510 H   0  0  0  0  0  0  0  0  0  0  0  0
   41.7606   35.8160   39.5494 H   0  0  0  0  0  0  0  0  0  0  0  0
   46.2786   36.0389   43.0614 H   0  0  0  0  0  0  0  0  0  0  0  0
   44.7892   36.8152   42.3658 H   0  0  0  0  0  0  0  0  0  0  0  0
   45.6494   37.0376   44.9350 H   0  0  0  0  0  0  0  0  0  0  0  0
   43.9602   37.2925   44.3288 H   0  0  0  0  0  0  0  0  0  0  0  0
   44.3104   35.7877   46.2578 H   0  0  0  0  0  0  0  0  0  0  0  0
   46.1918   34.6032   45.3785 H   0  0  0  0  0  0  0  0  0  0  0  0
   44.7930   33.5450   45.8216 H   0  0  0  0  0  0  0  0  0  0  0  0
   44.4420   32.9034   43.6941 H   0  0  0  0  0  0  0  0  0  0  0  0
   46.1313   33.4954   43.4229 H   0  0  0  0  0  0  0  0  0  0  0  0
   45.3954   32.2256   40.1484 H   0  0  0  0  0  0  0  0  0  0  0  0
   42.0028   31.5036   42.8066 H   0  0  0  0  0  0  0  0  0  0  0  0
   45.2734   26.9412   40.5571 H   0  0  0  0  0  0  0  0  0  0  0  0
   45.8360   25.0985   42.4485 H   0  0  0  0  0  0  0  0  0  0  0  0
   44.9049   28.7420   44.4424 H   0  0  0  0  0  0  0  0  0  0  0  0
  1 13  1  0
  1  5  1  0
  2  3  2  0
  2  1  1  0
  3  4  1  0
  4  5  2  0
  5  6  1  0
  6  7  1  0
  6 11  1  0
  7  8  1  0
  8  9  1  0
 10  9  1  0
 11 10  1  0
 12 17  2  0
 12 13  1  0
 13 14  2  0
 14 15  1  0
 16 18  1  0
 16 15  2  0
 17 16  1  0
 18 22  1  0
 19 18  1  0
 19 20  2  0
 20 21  1  0
 22 21  2  0
  2 23  1  0
  3 24  1  0
  7 25  1  0
  7 26  1  0
  8 27  1  0
  8 28  1  0
  9 29  1  0
 10 30  1  0
 10 31  1  0
 11 32  1  0
 11 33  1  0
 12 34  1  0
 14 35  1  0
 19 36  1  0
 20 37  1  0
 22 38  1  0
M  ISO  8  23  14  24  14  25  13  26  13  27  13  28  13  29   5  30  13
M  ISO  8  31  13  32  13  33  13  34  14  35  14  36  14  37  14  38  14
M  END
>  <minimizedAffinity>  (1) 
-4.28550863

>  <minimizedRMSD>  (1) 
0.190308869

$$$$
