
     RDKit          3D

 43 46  0  0  0  0  0  0  0  0999 V2000
   43.2910   33.3310   41.0890 N   0  0  0  0  0  0  0  0  0  0  0  0
   42.4600   33.7530   40.1380 C   0  0  0  0  0  0  0  0  0  0  0  0
   42.4050   35.1490   40.1850 C   0  0  0  0  0  0  0  0  0  0  0  0
   43.2170   35.5370   41.1760 N   0  0  0  0  0  0  0  0  0  0  0  0
   43.7530   34.4250   41.7210 C   0  0  0  0  0  0  0  0  0  0  0  0
   44.6340   34.7610   42.7850 N   0  0  0  0  0  0  0  0  0  0  0  0
   45.1930   36.0920   43.1200 C   0  0  0  0  0  0  0  0  0  0  0  0
   44.7680   36.5650   44.4510 C   0  0  0  0  0  0  0  0  0  0  0  0
   44.3080   35.4710   45.2800 N   0  0  0  0  0  0  0  0  0  0  0  0
   45.1740   34.3160   45.1390 C   0  0  0  0  0  0  0  0  0  0  0  0
   45.1190   33.7640   43.7250 C   0  0  0  0  0  0  0  0  0  0  0  0
   44.8550   31.5480   40.8560 C   0  0  0  0  0  0  0  0  0  0  0  0
   43.6700   32.0300   41.4360 C   0  0  0  0  0  0  0  0  0  0  0  0
   42.9490   31.1840   42.3220 C   0  0  0  0  0  0  0  0  0  0  0  0
   43.4680   29.9600   42.5460 N   0  0  0  0  0  0  0  0  0  0  0  0
   44.6020   29.5230   41.9820 C   0  0  0  0  0  0  0  0  0  0  0  0
   45.2870   30.3270   41.1390 N   0  0  0  0  0  0  0  0  0  0  0  0
   45.0960   28.2160   42.2620 N   0  0  0  0  0  0  0  0  0  0  0  0
   44.2930   27.0530   42.5930 C   0  0  0  0  0  0  0  0  0  0  0  0
   45.2610   26.0710   43.2460 C   0  0  0  0  0  0  0  0  0  0  0  0
   46.4800   26.3210   42.3460 C   0  0  0  0  0  0  0  0  0  0  0  0
   46.4890   27.8150   42.2660 C   0  0  0  0  0  0  0  0  0  0  0  0
   41.9096   33.1114   39.4342 H   0  0  0  0  0  0  0  0  0  0  0  0
   41.8085   35.8035   39.5324 H   0  0  0  0  0  0  0  0  0  0  0  0
   46.2910   36.0279   43.1025 H   0  0  0  0  0  0  0  0  0  0  0  0
   44.8175   36.8091   42.3751 H   0  0  0  0  0  0  0  0  0  0  0  0
   45.6200   37.0546   44.9454 H   0  0  0  0  0  0  0  0  0  0  0  0
   43.9351   37.2709   44.3171 H   0  0  0  0  0  0  0  0  0  0  0  0
   44.3051   35.7722   46.2650 H   0  0  0  0  0  0  0  0  0  0  0  0
   46.2081   34.6114   45.3699 H   0  0  0  0  0  0  0  0  0  0  0  0
   44.8322   33.5347   45.8338 H   0  0  0  0  0  0  0  0  0  0  0  0
   44.4440   32.8957   43.7058 H   0  0  0  0  0  0  0  0  0  0  0  0
   46.1372   33.4735   43.4269 H   0  0  0  0  0  0  0  0  0  0  0  0
   45.4262   32.1854   40.1650 H   0  0  0  0  0  0  0  0  0  0  0  0
   42.0144   31.5116   42.8009 H   0  0  0  0  0  0  0  0  0  0  0  0
   43.4895   27.3256   43.2930 H   0  0  0  0  0  0  0  0  0  0  0  0
   43.8075   26.6224   41.7048 H   0  0  0  0  0  0  0  0  0  0  0  0
   45.4628   26.3249   44.2971 H   0  0  0  0  0  0  0  0  0  0  0  0
   44.9164   25.0280   43.3048 H   0  0  0  0  0  0  0  0  0  0  0  0
   47.4035   25.9374   42.8043 H   0  0  0  0  0  0  0  0  0  0  0  0
   46.4267   25.8194   41.3685 H   0  0  0  0  0  0  0  0  0  0  0  0
   46.9862   28.1466   41.3425 H   0  0  0  0  0  0  0  0  0  0  0  0
   47.0381   28.2633   43.1071 H   0  0  0  0  0  0  0  0  0  0  0  0
  1 13  1  0
  1  5  1  0
  2  3  2  0
  2  1  1  0
  3  4  1  0
  4  5  2  0
  5  6  1  0
  6  7  1  0
  6 11  1  0
  7  8  1  0
  8  9  1  0
 10  9  1  0
 11 10  1  0
 12 17  2  0
 12 13  1  0
 13 14  2  0
 14 15  1  0
 16 18  1  0
 16 15  2  0
 17 16  1  0
 18 22  1  0
 18 19  1  0
 19 20  1  0
 21 20  1  0
 22 21  1  0
  2 23  1  0
  3 24  1  0
  7 25  1  0
  7 26  1  0
  8 27  1  0
  8 28  1  0
  9 29  1  0
 10 30  1  0
 10 31  1  0
 11 32  1  0
 11 33  1  0
 12 34  1  0
 14 35  1  0
 19 36  1  0
 19 37  1  0
 20 38  1  0
 20 39  1  0
 21 40  1  0
 21 41  1  0
 22 42  1  0
 22 43  1  0
M  ISO  8  23  14  24  14  25  13  26  13  27  13  28  13  29   5  30  13
M  ISO  8  31  13  32  13  33  13  34  14  35  14  36  13  37  13  38  13
M  ISO  5  39  13  40  13  41  13  42  13  43  13
M  END
>  <minimizedAffinity>  (1) 
-4.26740694

>  <minimizedRMSD>  (1) 
0.222891942

$$$$
