
     RDKit          3D

 32 34  0  0  0  0  0  0  0  0999 V2000
   43.1430   33.3250   41.1630 N   0  0  0  0  0  0  0  0  0  0  0  0
   42.2310   33.7340   40.2870 C   0  0  0  0  0  0  0  0  0  0  0  0
   42.1210   35.1310   40.3750 C   0  0  0  0  0  0  0  0  0  0  0  0
   42.9920   35.5240   41.3240 N   0  0  0  0  0  0  0  0  0  0  0  0
   43.6100   34.4150   41.7980 C   0  0  0  0  0  0  0  0  0  0  0  0
   44.5350   34.7770   42.8000 N   0  0  0  0  0  0  0  0  0  0  0  0
   45.0880   36.1000   43.1320 C   0  0  0  0  0  0  0  0  0  0  0  0
   44.7410   36.5270   44.5060 C   0  0  0  0  0  0  0  0  0  0  0  0
   44.3490   35.4010   45.3350 N   0  0  0  0  0  0  0  0  0  0  0  0
   45.2530   34.2780   45.1120 C   0  0  0  0  0  0  0  0  0  0  0  0
   45.0970   33.7530   43.7060 C   0  0  0  0  0  0  0  0  0  0  0  0
   44.7880   31.6280   40.7970 C   0  0  0  0  0  0  0  0  0  0  0  0
   43.5960   32.0330   41.4440 C   0  0  0  0  0  0  0  0  0  0  0  0
   42.9590   31.1190   42.3240 C   0  0  0  0  0  0  0  0  0  0  0  0
   43.5460   29.9150   42.4820 N   0  0  0  0  0  0  0  0  0  0  0  0
   44.6920   29.5710   41.8410 C   0  0  0  0  0  0  0  0  0  0  0  0
   45.3190   30.4430   40.9860 N   0  0  0  0  0  0  0  0  0  0  0  0
   45.2890   28.3300   42.0100 O   0  0  0  0  0  0  0  0  0  0  0  0
   41.6582   33.0864   39.6069 H   0  0  0  0  0  0  0  0  0  0  0  0
   41.4546   35.7773   39.7849 H   0  0  0  0  0  0  0  0  0  0  0  0
   46.1834   36.0582   43.0409 H   0  0  0  0  0  0  0  0  0  0  0  0
   44.6535   36.8304   42.4336 H   0  0  0  0  0  0  0  0  0  0  0  0
   45.6160   37.0159   44.9592 H   0  0  0  0  0  0  0  0  0  0  0  0
   43.8897   37.2209   44.4449 H   0  0  0  0  0  0  0  0  0  0  0  0
   44.3872   35.6778   46.3264 H   0  0  0  0  0  0  0  0  0  0  0  0
   46.2904   34.6116   45.2620 H   0  0  0  0  0  0  0  0  0  0  0  0
   45.0094   33.4751   45.8234 H   0  0  0  0  0  0  0  0  0  0  0  0
   44.4236   32.8834   43.7227 H   0  0  0  0  0  0  0  0  0  0  0  0
   46.0927   33.4729   43.3318 H   0  0  0  0  0  0  0  0  0  0  0  0
   45.2861   32.3304   40.1126 H   0  0  0  0  0  0  0  0  0  0  0  0
   42.0302   31.3805   42.8522 H   0  0  0  0  0  0  0  0  0  0  0  0
   46.1251   28.1129   41.5263 H   0  0  0  0  0  0  0  0  0  0  0  0
  1 13  1  0
  1  5  1  0
  2  3  2  0
  2  1  1  0
  3  4  1  0
  4  5  2  0
  5  6  1  0
  6  7  1  0
  6 11  1  0
  7  8  1  0
  8  9  1  0
 10  9  1  0
 11 10  1  0
 12 17  2  0
 12 13  1  0
 13 14  2  0
 14 15  1  0
 16 18  1  0
 16 15  2  0
 17 16  1  0
  2 19  1  0
  3 20  1  0
  7 21  1  0
  7 22  1  0
  8 23  1  0
  8 24  1  0
  9 25  1  0
 10 26  1  0
 10 27  1  0
 11 28  1  0
 11 29  1  0
 12 30  1  0
 14 31  1  0
 18 32  1  0
M  ISO  8  19  14  20  14  21  13  22  13  23  13  24  13  25   5  26  13
M  ISO  6  27  13  28  13  29  13  30  14  31  14  32   3
M  END
>  <minimizedAffinity>  (1) 
-4.18821478

>  <minimizedRMSD>  (1) 
0.0209020525

$$$$
