
     RDKit          3D

 40 43  0  0  0  0  0  0  0  0999 V2000
   43.1660   33.3370   41.1610 N   0  0  0  0  0  0  0  0  0  0  0  0
   42.2860   33.7560   40.2560 C   0  0  0  0  0  0  0  0  0  0  0  0
   42.2130   35.1500   40.3210 C   0  0  0  0  0  0  0  0  0  0  0  0
   43.0650   35.5370   41.2780 N   0  0  0  0  0  0  0  0  0  0  0  0
   43.6410   34.4310   41.7840 C   0  0  0  0  0  0  0  0  0  0  0  0
   44.5660   34.7670   42.8100 N   0  0  0  0  0  0  0  0  0  0  0  0
   45.1190   36.1030   43.1370 C   0  0  0  0  0  0  0  0  0  0  0  0
   44.7560   36.5470   44.4960 C   0  0  0  0  0  0  0  0  0  0  0  0
   44.3380   35.4400   45.3270 N   0  0  0  0  0  0  0  0  0  0  0  0
   45.2050   34.2980   45.1350 C   0  0  0  0  0  0  0  0  0  0  0  0
   45.1130   33.7690   43.7120 C   0  0  0  0  0  0  0  0  0  0  0  0
   44.7660   31.5900   40.8600 C   0  0  0  0  0  0  0  0  0  0  0  0
   43.5740   32.0430   41.4700 C   0  0  0  0  0  0  0  0  0  0  0  0
   42.8980   31.1550   42.3490 C   0  0  0  0  0  0  0  0  0  0  0  0
   43.4620   29.9360   42.5300 N   0  0  0  0  0  0  0  0  0  0  0  0
   44.5960   29.5510   41.9290 C   0  0  0  0  0  0  0  0  0  0  0  0
   45.2540   30.3920   41.0830 N   0  0  0  0  0  0  0  0  0  0  0  0
   45.0960   28.2230   42.2030 C   0  0  0  0  0  0  0  0  0  0  0  0
   44.6810   27.4820   43.2920 C   0  0  0  0  0  0  0  0  0  0  0  0
   45.1420   26.2150   43.5760 C   0  0  0  0  0  0  0  0  0  0  0  0
   46.0670   25.7180   42.6840 C   0  0  0  0  0  0  0  0  0  0  0  0
   46.4880   26.4530   41.5930 C   0  0  0  0  0  0  0  0  0  0  0  0
   45.9970   27.6870   41.3730 N   0  0  0  0  0  0  0  0  0  0  0  0
   41.7124   33.1136   39.5717 H   0  0  0  0  0  0  0  0  0  0  0  0
   41.5779   35.8032   39.7046 H   0  0  0  0  0  0  0  0  0  0  0  0
   46.2155   36.0592   43.0612 H   0  0  0  0  0  0  0  0  0  0  0  0
   44.6931   36.8247   42.4245 H   0  0  0  0  0  0  0  0  0  0  0  0
   45.6295   37.0298   44.9584 H   0  0  0  0  0  0  0  0  0  0  0  0
   43.9143   37.2504   44.4133 H   0  0  0  0  0  0  0  0  0  0  0  0
   44.3724   35.7278   46.3154 H   0  0  0  0  0  0  0  0  0  0  0  0
   46.2434   34.5977   45.3397 H   0  0  0  0  0  0  0  0  0  0  0  0
   44.8878   33.5009   45.8235 H   0  0  0  0  0  0  0  0  0  0  0  0
   44.4625   32.8820   43.7013 H   0  0  0  0  0  0  0  0  0  0  0  0
   46.1272   33.5134   43.3714 H   0  0  0  0  0  0  0  0  0  0  0  0
   45.3025   32.2638   40.1757 H   0  0  0  0  0  0  0  0  0  0  0  0
   41.9652   31.4419   42.8564 H   0  0  0  0  0  0  0  0  0  0  0  0
   43.9402   27.9288   43.9714 H   0  0  0  0  0  0  0  0  0  0  0  0
   44.7972   25.6428   44.4499 H   0  0  0  0  0  0  0  0  0  0  0  0
   46.4803   24.7113   42.8446 H   0  0  0  0  0  0  0  0  0  0  0  0
   47.2287   26.0276   40.8999 H   0  0  0  0  0  0  0  0  0  0  0  0
  1 13  1  0
  1  5  1  0
  2  3  2  0
  2  1  1  0
  3  4  1  0
  4  5  2  0
  5  6  1  0
  6  7  1  0
  6 11  1  0
  7  8  1  0
  8  9  1  0
 10  9  1  0
 11 10  1  0
 12 17  2  0
 12 13  1  0
 13 14  2  0
 14 15  1  0
 16 18  1  0
 16 15  2  0
 17 16  1  0
 18 19  2  0
 19 20  1  0
 21 20  2  0
 22 21  1  0
 23 22  2  0
 23 18  1  0
  2 24  1  0
  3 25  1  0
  7 26  1  0
  7 27  1  0
  8 28  1  0
  8 29  1  0
  9 30  1  0
 10 31  1  0
 10 32  1  0
 11 33  1  0
 11 34  1  0
 12 35  1  0
 14 36  1  0
 19 37  1  0
 20 38  1  0
 21 39  1  0
 22 40  1  0
M  ISO  8  24  14  25  14  26  13  27  13  28  13  29  13  30   5  31  13
M  ISO  8  32  13  33  13  34  13  35  14  36  14  37  14  38  14  39  14
M  ISO  1  40  14
M  END
>  <minimizedAffinity>  (1) 
-4.06373358

>  <minimizedRMSD>  (1) 
0.123002134

$$$$
