
     RDKit          3D

 41 44  0  0  0  0  0  0  0  0999 V2000
   43.1210   33.3220   41.1830 N   0  0  0  0  0  0  0  0  0  0  0  0
   42.2190   33.7380   40.2930 C   0  0  0  0  0  0  0  0  0  0  0  0
   42.1330   35.1400   40.3670 C   0  0  0  0  0  0  0  0  0  0  0  0
   42.9970   35.5260   41.3100 N   0  0  0  0  0  0  0  0  0  0  0  0
   43.5940   34.4210   41.8040 C   0  0  0  0  0  0  0  0  0  0  0  0
   44.5310   34.7600   42.8160 N   0  0  0  0  0  0  0  0  0  0  0  0
   45.0990   36.0960   43.1210 C   0  0  0  0  0  0  0  0  0  0  0  0
   44.7590   36.5510   44.4840 C   0  0  0  0  0  0  0  0  0  0  0  0
   44.3420   35.4430   45.3230 N   0  0  0  0  0  0  0  0  0  0  0  0
   45.2210   34.2980   45.1260 C   0  0  0  0  0  0  0  0  0  0  0  0
   45.0700   33.7550   43.7270 C   0  0  0  0  0  0  0  0  0  0  0  0
   44.7480   31.6140   40.8550 C   0  0  0  0  0  0  0  0  0  0  0  0
   43.5490   32.0320   41.4780 C   0  0  0  0  0  0  0  0  0  0  0  0
   42.8880   31.1290   42.3540 C   0  0  0  0  0  0  0  0  0  0  0  0
   43.4780   29.9190   42.5190 N   0  0  0  0  0  0  0  0  0  0  0  0
   44.6170   29.5640   41.9080 C   0  0  0  0  0  0  0  0  0  0  0  0
   45.2630   30.4210   41.0640 N   0  0  0  0  0  0  0  0  0  0  0  0
   45.1880   28.2540   42.1340 C   0  0  0  0  0  0  0  0  0  0  0  0
   45.8500   27.5750   41.1380 C   0  0  0  0  0  0  0  0  0  0  0  0
   46.3750   26.3310   41.4050 C   0  0  0  0  0  0  0  0  0  0  0  0
   46.2800   25.7060   42.6300 C   0  0  0  0  0  0  0  0  0  0  0  0
   45.6090   26.3850   43.6510 C   0  0  0  0  0  0  0  0  0  0  0  0
   45.0820   27.6480   43.3630 C   0  0  0  0  0  0  0  0  0  0  0  0
   41.6400   33.0934   39.6154 H   0  0  0  0  0  0  0  0  0  0  0  0
   41.4816   35.7914   39.7658 H   0  0  0  0  0  0  0  0  0  0  0  0
   46.1939   36.0447   43.0279 H   0  0  0  0  0  0  0  0  0  0  0  0
   44.6688   36.8154   42.4087 H   0  0  0  0  0  0  0  0  0  0  0  0
   45.6429   37.0273   44.9333 H   0  0  0  0  0  0  0  0  0  0  0  0
   43.9250   37.2647   44.4129 H   0  0  0  0  0  0  0  0  0  0  0  0
   44.3783   35.7328   46.3107 H   0  0  0  0  0  0  0  0  0  0  0  0
   46.2640   34.6102   45.2832 H   0  0  0  0  0  0  0  0  0  0  0  0
   44.9499   33.5115   45.8457 H   0  0  0  0  0  0  0  0  0  0  0  0
   44.3881   32.8922   43.7506 H   0  0  0  0  0  0  0  0  0  0  0  0
   46.0652   33.4593   43.3634 H   0  0  0  0  0  0  0  0  0  0  0  0
   45.2657   32.3069   40.1753 H   0  0  0  0  0  0  0  0  0  0  0  0
   41.9528   31.3958   42.8680 H   0  0  0  0  0  0  0  0  0  0  0  0
   45.9588   28.0214   40.1385 H   0  0  0  0  0  0  0  0  0  0  0  0
   46.9006   25.8053   40.5942 H   0  0  0  0  0  0  0  0  0  0  0  0
   46.7160   24.7101   42.7977 H   0  0  0  0  0  0  0  0  0  0  0  0
   45.4988   25.9395   44.6507 H   0  0  0  0  0  0  0  0  0  0  0  0
   44.5537   28.1859   44.1640 H   0  0  0  0  0  0  0  0  0  0  0  0
  1 13  1  0
  1  5  1  0
  2  3  2  0
  2  1  1  0
  3  4  1  0
  4  5  2  0
  5  6  1  0
  6  7  1  0
  6 11  1  0
  7  8  1  0
  8  9  1  0
 10  9  1  0
 11 10  1  0
 12 17  2  0
 12 13  1  0
 13 14  2  0
 14 15  1  0
 16 18  1  0
 16 15  2  0
 17 16  1  0
 18 23  2  0
 19 20  2  0
 19 18  1  0
 20 21  1  0
 21 22  2  0
 23 22  1  0
  2 24  1  0
  3 25  1  0
  7 26  1  0
  7 27  1  0
  8 28  1  0
  8 29  1  0
  9 30  1  0
 10 31  1  0
 10 32  1  0
 11 33  1  0
 11 34  1  0
 12 35  1  0
 14 36  1  0
 19 37  1  0
 20 38  1  0
 21 39  1  0
 22 40  1  0
 23 41  1  0
M  ISO  8  24  14  25  14  26  13  27  13  28  13  29  13  30   5  31  13
M  ISO  8  32  13  33  13  34  13  35  14  36  14  37  14  38  14  39  14
M  ISO  2  40  14  41  14
M  END
>  <minimizedAffinity>  (1) 
-4.0502739

>  <minimizedRMSD>  (1) 
0.121766262

$$$$
