
     RDKit          3D

 39 42  0  0  0  0  0  0  0  0999 V2000
   43.1720   33.3390   41.1580 N   0  0  0  0  0  0  0  0  0  0  0  0
   42.2840   33.7570   40.2520 C   0  0  0  0  0  0  0  0  0  0  0  0
   42.2080   35.1560   40.3300 C   0  0  0  0  0  0  0  0  0  0  0  0
   43.0570   35.5370   41.2860 N   0  0  0  0  0  0  0  0  0  0  0  0
   43.6430   34.4360   41.7910 C   0  0  0  0  0  0  0  0  0  0  0  0
   44.5700   34.7660   42.8170 N   0  0  0  0  0  0  0  0  0  0  0  0
   45.1180   36.1020   43.1340 C   0  0  0  0  0  0  0  0  0  0  0  0
   44.7550   36.5530   44.4960 C   0  0  0  0  0  0  0  0  0  0  0  0
   44.3380   35.4460   45.3160 N   0  0  0  0  0  0  0  0  0  0  0  0
   45.2030   34.2960   45.1400 C   0  0  0  0  0  0  0  0  0  0  0  0
   45.1140   33.7710   43.7160 C   0  0  0  0  0  0  0  0  0  0  0  0
   44.7660   31.5920   40.8640 C   0  0  0  0  0  0  0  0  0  0  0  0
   43.5910   32.0390   41.4650 C   0  0  0  0  0  0  0  0  0  0  0  0
   42.9010   31.1600   42.3450 C   0  0  0  0  0  0  0  0  0  0  0  0
   43.4600   29.9410   42.5250 N   0  0  0  0  0  0  0  0  0  0  0  0
   44.5930   29.5470   41.9280 C   0  0  0  0  0  0  0  0  0  0  0  0
   45.2440   30.3870   41.0920 N   0  0  0  0  0  0  0  0  0  0  0  0
   45.1640   28.2150   42.1520 C   0  0  0  0  0  0  0  0  0  0  0  0
   44.7680   27.5130   43.2760 C   0  0  0  0  0  0  0  0  0  0  0  0
   45.3080   26.2630   43.4780 C   0  0  0  0  0  0  0  0  0  0  0  0
   46.2000   25.6990   42.6370 N   0  0  0  0  0  0  0  0  0  0  0  0
   46.5470   26.4440   41.5530 C   0  0  0  0  0  0  0  0  0  0  0  0
   46.0430   27.6740   41.3110 N   0  0  0  0  0  0  0  0  0  0  0  0
   41.7121   33.1163   39.5647 H   0  0  0  0  0  0  0  0  0  0  0  0
   41.5705   35.8127   39.7198 H   0  0  0  0  0  0  0  0  0  0  0  0
   46.2145   36.0615   43.0560 H   0  0  0  0  0  0  0  0  0  0  0  0
   44.6887   36.8186   42.4183 H   0  0  0  0  0  0  0  0  0  0  0  0
   45.6288   37.0341   44.9597 H   0  0  0  0  0  0  0  0  0  0  0  0
   43.9185   37.2630   44.4169 H   0  0  0  0  0  0  0  0  0  0  0  0
   44.3623   35.7344   46.3045 H   0  0  0  0  0  0  0  0  0  0  0  0
   46.2416   34.5892   45.3527 H   0  0  0  0  0  0  0  0  0  0  0  0
   44.8820   33.5024   45.8307 H   0  0  0  0  0  0  0  0  0  0  0  0
   44.4643   32.8835   43.7022 H   0  0  0  0  0  0  0  0  0  0  0  0
   46.1295   33.5182   43.3772 H   0  0  0  0  0  0  0  0  0  0  0  0
   45.3079   32.2633   40.1816 H   0  0  0  0  0  0  0  0  0  0  0  0
   41.9685   31.4537   42.8492 H   0  0  0  0  0  0  0  0  0  0  0  0
   44.0445   27.9400   43.9860 H   0  0  0  0  0  0  0  0  0  0  0  0
   44.9973   25.6964   44.3682 H   0  0  0  0  0  0  0  0  0  0  0  0
   47.2722   26.0252   40.8398 H   0  0  0  0  0  0  0  0  0  0  0  0
  1 13  1  0
  1  5  1  0
  2  3  2  0
  2  1  1  0
  3  4  1  0
  4  5  2  0
  5  6  1  0
  6  7  1  0
  6 11  1  0
  7  8  1  0
  8  9  1  0
 10  9  1  0
 11 10  1  0
 12 17  2  0
 12 13  1  0
 13 14  2  0
 14 15  1  0
 16 18  1  0
 16 15  2  0
 17 16  1  0
 18 19  2  0
 19 20  1  0
 21 20  2  0
 22 21  1  0
 23 22  2  0
 23 18  1  0
  2 24  1  0
  3 25  1  0
  7 26  1  0
  7 27  1  0
  8 28  1  0
  8 29  1  0
  9 30  1  0
 10 31  1  0
 10 32  1  0
 11 33  1  0
 11 34  1  0
 12 35  1  0
 14 36  1  0
 19 37  1  0
 20 38  1  0
 22 39  1  0
M  ISO  8  24  14  25  14  26  13  27  13  28  13  29  13  30   5  31  13
M  ISO  8  32  13  33  13  34  13  35  14  36  14  37  14  38  14  39  14
M  END
>  <minimizedAffinity>  (1) 
-4.04922247

>  <minimizedRMSD>  (1) 
0.12740849

$$$$
