
     RDKit          3D

 43 45  0  0  0  0  0  0  0  0999 V2000
   43.1280   33.3320   41.1660 N   0  0  0  0  0  0  0  0  0  0  0  0
   42.2230   33.7530   40.2860 C   0  0  0  0  0  0  0  0  0  0  0  0
   42.1320   35.1450   40.3690 C   0  0  0  0  0  0  0  0  0  0  0  0
   42.9960   35.5370   41.3130 N   0  0  0  0  0  0  0  0  0  0  0  0
   43.6010   34.4270   41.7950 C   0  0  0  0  0  0  0  0  0  0  0  0
   44.5430   34.7660   42.8060 N   0  0  0  0  0  0  0  0  0  0  0  0
   45.0790   36.1060   43.1340 C   0  0  0  0  0  0  0  0  0  0  0  0
   44.7460   36.5300   44.5040 C   0  0  0  0  0  0  0  0  0  0  0  0
   44.3540   35.4110   45.3330 N   0  0  0  0  0  0  0  0  0  0  0  0
   45.2250   34.2840   45.1110 C   0  0  0  0  0  0  0  0  0  0  0  0
   45.1200   33.7710   43.6840 C   0  0  0  0  0  0  0  0  0  0  0  0
   44.7520   31.6220   40.8160 C   0  0  0  0  0  0  0  0  0  0  0  0
   43.5620   32.0470   41.4540 C   0  0  0  0  0  0  0  0  0  0  0  0
   42.9170   31.1350   42.3340 C   0  0  0  0  0  0  0  0  0  0  0  0
   43.4970   29.9240   42.4940 N   0  0  0  0  0  0  0  0  0  0  0  0
   44.6260   29.5650   41.8690 C   0  0  0  0  0  0  0  0  0  0  0  0
   45.2540   30.4210   41.0260 N   0  0  0  0  0  0  0  0  0  0  0  0
   45.1720   28.1990   42.1270 C   0  0  0  0  0  0  0  0  0  0  0  0
   44.4860   27.1580   41.2600 C   0  0  0  0  0  0  0  0  0  0  0  0
   44.9170   27.8450   43.5680 C   0  0  0  0  0  0  0  0  0  0  0  0
   46.6550   28.2140   41.8140 C   0  0  0  0  0  0  0  0  0  0  0  0
   41.6428   33.1118   39.6061 H   0  0  0  0  0  0  0  0  0  0  0  0
   41.4752   35.7949   39.7721 H   0  0  0  0  0  0  0  0  0  0  0  0
   46.1737   36.0828   43.0288 H   0  0  0  0  0  0  0  0  0  0  0  0
   44.6197   36.8268   42.4416 H   0  0  0  0  0  0  0  0  0  0  0  0
   45.6274   37.0128   44.9513 H   0  0  0  0  0  0  0  0  0  0  0  0
   43.8977   37.2281   44.4489 H   0  0  0  0  0  0  0  0  0  0  0  0
   44.4063   35.6890   46.3234 H   0  0  0  0  0  0  0  0  0  0  0  0
   46.2633   34.5911   45.3049 H   0  0  0  0  0  0  0  0  0  0  0  0
   44.9223   33.4747   45.7917 H   0  0  0  0  0  0  0  0  0  0  0  0
   44.4855   32.8725   43.6725 H   0  0  0  0  0  0  0  0  0  0  0  0
   46.1332   33.5382   43.3246 H   0  0  0  0  0  0  0  0  0  0  0  0
   45.2693   32.3088   40.1299 H   0  0  0  0  0  0  0  0  0  0  0  0
   41.9889   31.4024   42.8604 H   0  0  0  0  0  0  0  0  0  0  0  0
   43.9945   26.4122   41.9021 H   0  0  0  0  0  0  0  0  0  0  0  0
   43.7333   27.6481   40.6249 H   0  0  0  0  0  0  0  0  0  0  0  0
   45.2332   26.6596   40.6249 H   0  0  0  0  0  0  0  0  0  0  0  0
   45.4351   28.5642   44.2195 H   0  0  0  0  0  0  0  0  0  0  0  0
   43.8361   27.8810   43.7687 H   0  0  0  0  0  0  0  0  0  0  0  0
   45.2936   26.8311   43.7687 H   0  0  0  0  0  0  0  0  0  0  0  0
   47.2279   28.2198   42.7530 H   0  0  0  0  0  0  0  0  0  0  0  0
   46.9158   27.3184   41.2309 H   0  0  0  0  0  0  0  0  0  0  0  0
   46.8976   29.1146   41.2309 H   0  0  0  0  0  0  0  0  0  0  0  0
  1 13  1  0
  1  5  1  0
  2  3  2  0
  2  1  1  0
  3  4  1  0
  4  5  2  0
  5  6  1  0
  6  7  1  0
  6 11  1  0
  7  8  1  0
  8  9  1  0
 10  9  1  0
 11 10  1  0
 12 17  2  0
 12 13  1  0
 13 14  2  0
 14 15  1  0
 16 18  1  0
 16 15  2  0
 17 16  1  0
 18 20  1  0
 19 18  1  0
 21 18  1  0
  2 22  1  0
  3 23  1  0
  7 24  1  0
  7 25  1  0
  8 26  1  0
  8 27  1  0
  9 28  1  0
 10 29  1  0
 10 30  1  0
 11 31  1  0
 11 32  1  0
 12 33  1  0
 14 34  1  0
 19 35  1  0
 19 36  1  0
 19 37  1  0
 20 38  1  0
 20 39  1  0
 20 40  1  0
 21 41  1  0
 21 42  1  0
 21 43  1  0
M  ISO  8  22  14  23  14  24  13  25  13  26  13  27  13  28   5  29  13
M  ISO  8  30  13  31  13  32  13  33  14  34  14  35   8  36   8  37   8
M  ISO  6  38   8  39   8  40   8  41   8  42   8  43   8
M  END
>  <minimizedAffinity>  (1) 
-4.04516745

>  <minimizedRMSD>  (1) 
0.0789368004

$$$$
