
     RDKit          3D

 34 36  0  0  0  0  0  0  0  0999 V2000
   43.1240   33.3410   41.1690 N   0  0  0  0  0  0  0  0  0  0  0  0
   42.2210   33.7590   40.2850 C   0  0  0  0  0  0  0  0  0  0  0  0
   42.1370   35.1560   40.3690 C   0  0  0  0  0  0  0  0  0  0  0  0
   43.0030   35.5430   41.3130 N   0  0  0  0  0  0  0  0  0  0  0  0
   43.6030   34.4320   41.7990 C   0  0  0  0  0  0  0  0  0  0  0  0
   44.5410   34.7660   42.8070 N   0  0  0  0  0  0  0  0  0  0  0  0
   45.0850   36.1060   43.1360 C   0  0  0  0  0  0  0  0  0  0  0  0
   44.7450   36.5350   44.5050 C   0  0  0  0  0  0  0  0  0  0  0  0
   44.3540   35.4180   45.3340 N   0  0  0  0  0  0  0  0  0  0  0  0
   45.2250   34.2840   45.1150 C   0  0  0  0  0  0  0  0  0  0  0  0
   45.1150   33.7690   43.6890 C   0  0  0  0  0  0  0  0  0  0  0  0
   44.7450   31.6140   40.8300 C   0  0  0  0  0  0  0  0  0  0  0  0
   43.5540   32.0460   41.4570 C   0  0  0  0  0  0  0  0  0  0  0  0
   42.8910   31.1460   42.3350 C   0  0  0  0  0  0  0  0  0  0  0  0
   43.4700   29.9300   42.4960 N   0  0  0  0  0  0  0  0  0  0  0  0
   44.6020   29.5630   41.8810 C   0  0  0  0  0  0  0  0  0  0  0  0
   45.2400   30.4130   41.0430 N   0  0  0  0  0  0  0  0  0  0  0  0
   45.1500   28.2010   42.1330 C   0  0  0  0  0  0  0  0  0  0  0  0
   45.1980   27.9070   43.4790 F   0  0  0  0  0  0  0  0  0  0  0  0
   44.3670   27.2860   41.4850 F   0  0  0  0  0  0  0  0  0  0  0  0
   46.4540   28.0750   41.6690 F   0  0  0  0  0  0  0  0  0  0  0  0
   41.6402   33.1183   39.6051 H   0  0  0  0  0  0  0  0  0  0  0  0
   41.4836   35.8096   39.7725 H   0  0  0  0  0  0  0  0  0  0  0  0
   46.1802   36.0755   43.0381 H   0  0  0  0  0  0  0  0  0  0  0  0
   44.6356   36.8286   42.4389 H   0  0  0  0  0  0  0  0  0  0  0  0
   45.6230   37.0221   44.9542 H   0  0  0  0  0  0  0  0  0  0  0  0
   43.8954   37.2311   44.4449 H   0  0  0  0  0  0  0  0  0  0  0  0
   44.4068   35.6977   46.3239 H   0  0  0  0  0  0  0  0  0  0  0  0
   46.2645   34.5886   45.3066 H   0  0  0  0  0  0  0  0  0  0  0  0
   44.9228   33.4774   45.7992 H   0  0  0  0  0  0  0  0  0  0  0  0
   44.4758   32.8738   43.6806 H   0  0  0  0  0  0  0  0  0  0  0  0
   46.1268   33.5311   43.3289 H   0  0  0  0  0  0  0  0  0  0  0  0
   45.2709   32.2980   40.1476 H   0  0  0  0  0  0  0  0  0  0  0  0
   41.9610   31.4202   42.8545 H   0  0  0  0  0  0  0  0  0  0  0  0
  1 13  1  0
  1  5  1  0
  2  3  2  0
  2  1  1  0
  3  4  1  0
  4  5  2  0
  5  6  1  0
  6  7  1  0
  6 11  1  0
  7  8  1  0
  8  9  1  0
 10  9  1  0
 11 10  1  0
 12 17  2  0
 12 13  1  0
 13 14  2  0
 14 15  1  0
 16 18  1  0
 16 15  2  0
 17 16  1  0
 18 19  1  0
 20 18  1  0
 21 18  1  0
  2 22  1  0
  3 23  1  0
  7 24  1  0
  7 25  1  0
  8 26  1  0
  8 27  1  0
  9 28  1  0
 10 29  1  0
 10 30  1  0
 11 31  1  0
 11 32  1  0
 12 33  1  0
 14 34  1  0
M  ISO  8  22  14  23  14  24  13  25  13  26  13  27  13  28   5  29  13
M  ISO  5  30  13  31  13  32  13  33  14  34  14
M  END
>  <minimizedAffinity>  (1) 
-4.04198933

>  <minimizedRMSD>  (1) 
0.0545328036

$$$$
