
     RDKit          3D

 38 41  0  0  0  0  0  0  0  0999 V2000
   43.2980   33.3190   41.0830 N   0  0  0  0  0  0  0  0  0  0  0  0
   42.4670   33.7330   40.1280 C   0  0  0  0  0  0  0  0  0  0  0  0
   42.4090   35.1290   40.1620 C   0  0  0  0  0  0  0  0  0  0  0  0
   43.2190   35.5280   41.1520 N   0  0  0  0  0  0  0  0  0  0  0  0
   43.7540   34.4240   41.7060 C   0  0  0  0  0  0  0  0  0  0  0  0
   44.6330   34.7650   42.7720 N   0  0  0  0  0  0  0  0  0  0  0  0
   45.1980   36.1020   43.0900 C   0  0  0  0  0  0  0  0  0  0  0  0
   44.7830   36.5830   44.4200 C   0  0  0  0  0  0  0  0  0  0  0  0
   44.2960   35.5070   45.2520 N   0  0  0  0  0  0  0  0  0  0  0  0
   45.1570   34.3440   45.1320 C   0  0  0  0  0  0  0  0  0  0  0  0
   45.1060   33.7750   43.7280 C   0  0  0  0  0  0  0  0  0  0  0  0
   44.8790   31.5450   40.8740 C   0  0  0  0  0  0  0  0  0  0  0  0
   43.6780   32.0250   41.4390 C   0  0  0  0  0  0  0  0  0  0  0  0
   42.9470   31.1820   42.3200 C   0  0  0  0  0  0  0  0  0  0  0  0
   43.4600   29.9580   42.5650 N   0  0  0  0  0  0  0  0  0  0  0  0
   44.6040   29.5330   42.0120 C   0  0  0  0  0  0  0  0  0  0  0  0
   45.3210   30.3330   41.1590 N   0  0  0  0  0  0  0  0  0  0  0  0
   45.1130   28.2240   42.2990 C   0  0  0  0  0  0  0  0  0  0  0  0
   44.7140   27.2910   43.2390 C   0  0  0  0  0  0  0  0  0  0  0  0
   45.3520   26.0880   43.3390 C   0  0  0  0  0  0  0  0  0  0  0  0
   46.4450   25.8510   42.4220 C   0  0  0  0  0  0  0  0  0  0  0  0
   46.4680   27.4680   41.4390 S   0  0  0  0  0  0  0  0  0  0  0  0
   41.9181   33.0846   39.4293 H   0  0  0  0  0  0  0  0  0  0  0  0
   41.8125   35.7763   39.5023 H   0  0  0  0  0  0  0  0  0  0  0  0
   46.2958   36.0374   43.0640 H   0  0  0  0  0  0  0  0  0  0  0  0
   44.8195   36.8138   42.3416 H   0  0  0  0  0  0  0  0  0  0  0  0
   45.6464   37.0524   44.9142 H   0  0  0  0  0  0  0  0  0  0  0  0
   43.9652   37.3056   44.2823 H   0  0  0  0  0  0  0  0  0  0  0  0
   44.2805   35.8177   46.2339 H   0  0  0  0  0  0  0  0  0  0  0  0
   46.1916   34.6364   45.3646 H   0  0  0  0  0  0  0  0  0  0  0  0
   44.8075   33.5742   45.8358 H   0  0  0  0  0  0  0  0  0  0  0  0
   44.4246   32.9115   43.7161 H   0  0  0  0  0  0  0  0  0  0  0  0
   46.1234   33.4726   43.4393 H   0  0  0  0  0  0  0  0  0  0  0  0
   45.4530   32.1866   40.1893 H   0  0  0  0  0  0  0  0  0  0  0  0
   42.0049   31.5128   42.7816 H   0  0  0  0  0  0  0  0  0  0  0  0
   43.8749   27.5204   43.9122 H   0  0  0  0  0  0  0  0  0  0  0  0
   45.0492   25.3351   44.0815 H   0  0  0  0  0  0  0  0  0  0  0  0
   47.0910   24.9663   42.3224 H   0  0  0  0  0  0  0  0  0  0  0  0
  1 13  1  0
  1  5  1  0
  2  3  2  0
  2  1  1  0
  3  4  1  0
  4  5  2  0
  5  6  1  0
  6  7  1  0
  6 11  1  0
  7  8  1  0
  8  9  1  0
 10  9  1  0
 11 10  1  0
 12 17  2  0
 12 13  1  0
 13 14  2  0
 14 15  1  0
 16 18  1  0
 16 15  2  0
 17 16  1  0
 18 19  2  0
 19 20  1  0
 21 20  2  0
 22 18  1  0
 22 21  1  0
  2 23  1  0
  3 24  1  0
  7 25  1  0
  7 26  1  0
  8 27  1  0
  8 28  1  0
  9 29  1  0
 10 30  1  0
 10 31  1  0
 11 32  1  0
 11 33  1  0
 12 34  1  0
 14 35  1  0
 19 36  1  0
 20 37  1  0
 21 38  1  0
M  ISO  8  23  14  24  14  25  13  26  13  27  13  28  13  29   5  30  13
M  ISO  8  31  13  32  13  33  13  34  14  35  14  36  14  37  14  38  14
M  END
>  <minimizedAffinity>  (1) 
-4.03670979

>  <minimizedRMSD>  (1) 
0.522904634

$$$$
