
     RDKit          3D

 40 42  0  0  0  0  0  0  0  0999 V2000
   43.1110   33.3320   41.1690 N   0  0  0  0  0  0  0  0  0  0  0  0
   42.2050   33.7510   40.2920 C   0  0  0  0  0  0  0  0  0  0  0  0
   42.1110   35.1450   40.3740 C   0  0  0  0  0  0  0  0  0  0  0  0
   42.9800   35.5340   41.3170 N   0  0  0  0  0  0  0  0  0  0  0  0
   43.5900   34.4190   41.8000 C   0  0  0  0  0  0  0  0  0  0  0  0
   44.5270   34.7660   42.8070 N   0  0  0  0  0  0  0  0  0  0  0  0
   45.0820   36.0990   43.1280 C   0  0  0  0  0  0  0  0  0  0  0  0
   44.7510   36.5290   44.5000 C   0  0  0  0  0  0  0  0  0  0  0  0
   44.3490   35.4140   45.3290 N   0  0  0  0  0  0  0  0  0  0  0  0
   45.2400   34.2810   45.1070 C   0  0  0  0  0  0  0  0  0  0  0  0
   45.0840   33.7530   43.6980 C   0  0  0  0  0  0  0  0  0  0  0  0
   44.7460   31.6250   40.8220 C   0  0  0  0  0  0  0  0  0  0  0  0
   43.5490   32.0400   41.4540 C   0  0  0  0  0  0  0  0  0  0  0  0
   42.9030   31.1230   42.3250 C   0  0  0  0  0  0  0  0  0  0  0  0
   43.4860   29.9160   42.4850 N   0  0  0  0  0  0  0  0  0  0  0  0
   44.6300   29.5610   41.8610 C   0  0  0  0  0  0  0  0  0  0  0  0
   45.2530   30.4260   41.0300 N   0  0  0  0  0  0  0  0  0  0  0  0
   45.2620   28.2330   42.0440 C   0  0  0  0  0  0  0  0  0  0  0  0
   45.0850   27.7240   43.4600 C   0  0  0  0  0  0  0  0  0  0  0  0
   46.7570   28.2880   41.7660 C   0  0  0  0  0  0  0  0  0  0  0  0
   41.6247   33.1084   39.6136 H   0  0  0  0  0  0  0  0  0  0  0  0
   41.4519   35.7950   39.7798 H   0  0  0  0  0  0  0  0  0  0  0  0
   46.1764   36.0607   43.0239 H   0  0  0  0  0  0  0  0  0  0  0  0
   44.6367   36.8249   42.4317 H   0  0  0  0  0  0  0  0  0  0  0  0
   45.6361   37.0048   44.9475 H   0  0  0  0  0  0  0  0  0  0  0  0
   43.9092   37.2349   44.4439 H   0  0  0  0  0  0  0  0  0  0  0  0
   44.3918   35.6926   46.3197 H   0  0  0  0  0  0  0  0  0  0  0  0
   46.2806   34.6033   45.2597 H   0  0  0  0  0  0  0  0  0  0  0  0
   44.9828   33.4814   45.8173 H   0  0  0  0  0  0  0  0  0  0  0  0
   44.4116   32.8826   43.7146 H   0  0  0  0  0  0  0  0  0  0  0  0
   46.0788   33.4715   43.3223 H   0  0  0  0  0  0  0  0  0  0  0  0
   45.2641   32.3180   40.1428 H   0  0  0  0  0  0  0  0  0  0  0  0
   41.9699   31.3844   42.8456 H   0  0  0  0  0  0  0  0  0  0  0  0
   44.7645   27.5577   41.3323 H   0  0  0  0  0  0  0  0  0  0  0  0
   45.3605   28.5163   44.1716 H   0  0  0  0  0  0  0  0  0  0  0  0
   44.0347   27.4381   43.6182 H   0  0  0  0  0  0  0  0  0  0  0  0
   45.7313   26.8481   43.6182 H   0  0  0  0  0  0  0  0  0  0  0  0
   47.3066   28.3082   42.7186 H   0  0  0  0  0  0  0  0  0  0  0  0
   47.0556   27.4002   41.1892 H   0  0  0  0  0  0  0  0  0  0  0  0
   46.9896   29.1953   41.1892 H   0  0  0  0  0  0  0  0  0  0  0  0
  1 13  1  0
  1  5  1  0
  2  3  2  0
  2  1  1  0
  3  4  1  0
  4  5  2  0
  5  6  1  0
  6  7  1  0
  6 11  1  0
  7  8  1  0
  8  9  1  0
 10  9  1  0
 11 10  1  0
 12 17  2  0
 12 13  1  0
 13 14  2  0
 14 15  1  0
 16 18  1  0
 16 15  2  0
 17 16  1  0
 18 19  1  0
 20 18  1  0
  2 21  1  0
  3 22  1  0
  7 23  1  0
  7 24  1  0
  8 25  1  0
  8 26  1  0
  9 27  1  0
 10 28  1  0
 10 29  1  0
 11 30  1  0
 11 31  1  0
 12 32  1  0
 14 33  1  0
 18 34  1  0
 19 35  1  0
 19 36  1  0
 19 37  1  0
 20 38  1  0
 20 39  1  0
 20 40  1  0
M  ISO  8  21  14  22  14  23  13  24  13  25  13  26  13  27   5  28  13
M  ISO  8  29  13  30  13  31  13  32  14  33  14  34   8  35   8  36   8
M  ISO  4  37   8  38   8  39   8  40   8
M  END
>  <minimizedAffinity>  (1) 
-4.03224707

>  <minimizedRMSD>  (1) 
0.160050124

$$$$
