
     RDKit          3D

 38 41  0  0  0  0  0  0  0  0999 V2000
   43.2290   33.3190   41.1190 N   0  0  0  0  0  0  0  0  0  0  0  0
   42.3610   33.7360   40.1880 C   0  0  0  0  0  0  0  0  0  0  0  0
   42.2930   35.1340   40.2410 C   0  0  0  0  0  0  0  0  0  0  0  0
   43.1280   35.5350   41.2090 N   0  0  0  0  0  0  0  0  0  0  0  0
   43.6990   34.4220   41.7440 C   0  0  0  0  0  0  0  0  0  0  0  0
   44.6080   34.7680   42.7800 N   0  0  0  0  0  0  0  0  0  0  0  0
   45.1620   36.0890   43.0980 C   0  0  0  0  0  0  0  0  0  0  0  0
   44.7700   36.5660   44.4430 C   0  0  0  0  0  0  0  0  0  0  0  0
   44.3280   35.4720   45.2790 N   0  0  0  0  0  0  0  0  0  0  0  0
   45.1680   34.3060   45.1280 C   0  0  0  0  0  0  0  0  0  0  0  0
   45.1300   33.7760   43.7010 C   0  0  0  0  0  0  0  0  0  0  0  0
   44.8030   31.5630   40.8620 C   0  0  0  0  0  0  0  0  0  0  0  0
   43.6270   32.0300   41.4480 C   0  0  0  0  0  0  0  0  0  0  0  0
   42.9260   31.1670   42.3360 C   0  0  0  0  0  0  0  0  0  0  0  0
   43.4720   29.9420   42.5410 N   0  0  0  0  0  0  0  0  0  0  0  0
   44.6070   29.5330   41.9570 C   0  0  0  0  0  0  0  0  0  0  0  0
   45.2670   30.3580   41.1130 N   0  0  0  0  0  0  0  0  0  0  0  0
   45.1380   28.1950   42.2260 C   0  0  0  0  0  0  0  0  0  0  0  0
   46.0410   27.4020   41.5720 C   0  0  0  0  0  0  0  0  0  0  0  0
   46.1210   26.2430   42.3300 C   0  0  0  0  0  0  0  0  0  0  0  0
   45.3010   26.3300   43.3950 N   0  0  0  0  0  0  0  0  0  0  0  0
   44.7130   27.5090   43.3260 N   0  0  0  0  0  0  0  0  0  0  0  0
   41.7972   33.0901   39.4988 H   0  0  0  0  0  0  0  0  0  0  0  0
   41.6703   35.7817   39.6064 H   0  0  0  0  0  0  0  0  0  0  0  0
   46.2595   36.0304   43.0518 H   0  0  0  0  0  0  0  0  0  0  0  0
   44.7605   36.8024   42.3633 H   0  0  0  0  0  0  0  0  0  0  0  0
   45.6351   37.0527   44.9171 H   0  0  0  0  0  0  0  0  0  0  0  0
   43.9376   37.2764   44.3311 H   0  0  0  0  0  0  0  0  0  0  0  0
   44.3516   35.7743   46.2633 H   0  0  0  0  0  0  0  0  0  0  0  0
   46.2037   34.5755   45.3824 H   0  0  0  0  0  0  0  0  0  0  0  0
   44.7934   33.5197   45.7998 H   0  0  0  0  0  0  0  0  0  0  0  0
   44.4872   32.8840   43.6678 H   0  0  0  0  0  0  0  0  0  0  0  0
   46.1578   33.5290   43.3967 H   0  0  0  0  0  0  0  0  0  0  0  0
   45.3562   32.2182   40.1730 H   0  0  0  0  0  0  0  0  0  0  0  0
   41.9926   31.4761   42.8292 H   0  0  0  0  0  0  0  0  0  0  0  0
   46.5860   27.6336   40.6450 H   0  0  0  0  0  0  0  0  0  0  0  0
   46.7605   25.3793   42.0956 H   0  0  0  0  0  0  0  0  0  0  0  0
   45.1602   25.6145   44.1225 H   0  0  0  0  0  0  0  0  0  0  0  0
  1 13  1  0
  1  5  1  0
  2  3  2  0
  2  1  1  0
  3  4  1  0
  4  5  2  0
  5  6  1  0
  6  7  1  0
  6 11  1  0
  7  8  1  0
  8  9  1  0
 10  9  1  0
 11 10  1  0
 12 17  2  0
 12 13  1  0
 13 14  2  0
 14 15  1  0
 16 18  1  0
 16 15  2  0
 17 16  1  0
 18 22  2  0
 19 18  1  0
 19 20  2  0
 20 21  1  0
 22 21  1  0
  2 23  1  0
  3 24  1  0
  7 25  1  0
  7 26  1  0
  8 27  1  0
  8 28  1  0
  9 29  1  0
 10 30  1  0
 10 31  1  0
 11 32  1  0
 11 33  1  0
 12 34  1  0
 14 35  1  0
 19 36  1  0
 20 37  1  0
 21 38  1  0
M  ISO  8  23  14  24  14  25  13  26  13  27  13  28  13  29   5  30  13
M  ISO  8  31  13  32  13  33  13  34  14  35  14  36  14  37  14  38   9
M  END
>  <minimizedAffinity>  (1) 
-4.02921963

>  <minimizedRMSD>  (1) 
0.169018984

$$$$
