
     RDKit          3D

 38 41  0  0  0  0  0  0  0  0999 V2000
   43.1140   33.3390   41.1790 N   0  0  0  0  0  0  0  0  0  0  0  0
   42.2070   33.7570   40.3000 C   0  0  0  0  0  0  0  0  0  0  0  0
   42.1190   35.1550   40.3820 C   0  0  0  0  0  0  0  0  0  0  0  0
   42.9890   35.5450   41.3190 N   0  0  0  0  0  0  0  0  0  0  0  0
   43.5950   34.4280   41.8040 C   0  0  0  0  0  0  0  0  0  0  0  0
   44.5440   34.7670   42.8130 N   0  0  0  0  0  0  0  0  0  0  0  0
   45.0880   36.1010   43.1320 C   0  0  0  0  0  0  0  0  0  0  0  0
   44.7420   36.5340   44.5030 C   0  0  0  0  0  0  0  0  0  0  0  0
   44.3590   35.4150   45.3330 N   0  0  0  0  0  0  0  0  0  0  0  0
   45.2250   34.2800   45.1180 C   0  0  0  0  0  0  0  0  0  0  0  0
   45.1170   33.7670   43.6900 C   0  0  0  0  0  0  0  0  0  0  0  0
   44.7420   31.6200   40.8320 C   0  0  0  0  0  0  0  0  0  0  0  0
   43.5490   32.0430   41.4660 C   0  0  0  0  0  0  0  0  0  0  0  0
   42.8910   31.1370   42.3400 C   0  0  0  0  0  0  0  0  0  0  0  0
   43.4750   29.9240   42.4940 N   0  0  0  0  0  0  0  0  0  0  0  0
   44.6070   29.5630   41.8760 C   0  0  0  0  0  0  0  0  0  0  0  0
   45.2410   30.4200   41.0400 N   0  0  0  0  0  0  0  0  0  0  0  0
   45.1730   28.2490   42.0900 C   0  0  0  0  0  0  0  0  0  0  0  0
   46.4750   27.8440   41.9210 C   0  0  0  0  0  0  0  0  0  0  0  0
   46.5740   26.5360   42.2300 N   0  0  0  0  0  0  0  0  0  0  0  0
   45.3450   26.0740   42.6020 C   0  0  0  0  0  0  0  0  0  0  0  0
   44.5350   27.1380   42.5020 N   0  0  0  0  0  0  0  0  0  0  0  0
   41.6243   33.1149   39.6231 H   0  0  0  0  0  0  0  0  0  0  0  0
   41.4600   35.8058   39.7886 H   0  0  0  0  0  0  0  0  0  0  0  0
   46.1834   36.0685   43.0370 H   0  0  0  0  0  0  0  0  0  0  0  0
   44.6455   36.8222   42.4291 H   0  0  0  0  0  0  0  0  0  0  0  0
   45.6155   37.0292   44.9522 H   0  0  0  0  0  0  0  0  0  0  0  0
   43.8881   37.2246   44.4407 H   0  0  0  0  0  0  0  0  0  0  0  0
   44.4148   35.6967   46.3222 H   0  0  0  0  0  0  0  0  0  0  0  0
   46.2650   34.5803   45.3135 H   0  0  0  0  0  0  0  0  0  0  0  0
   44.9185   33.4742   45.8012 H   0  0  0  0  0  0  0  0  0  0  0  0
   44.4779   32.8718   43.6783 H   0  0  0  0  0  0  0  0  0  0  0  0
   46.1285   33.5281   43.3297 H   0  0  0  0  0  0  0  0  0  0  0  0
   45.2631   32.3090   40.1510 H   0  0  0  0  0  0  0  0  0  0  0  0
   41.9605   31.4048   42.8620 H   0  0  0  0  0  0  0  0  0  0  0  0
   47.3041   28.4850   41.5869 H   0  0  0  0  0  0  0  0  0  0  0  0
   45.0777   25.0539   42.9149 H   0  0  0  0  0  0  0  0  0  0  0  0
   43.5284   27.1080   42.7182 H   0  0  0  0  0  0  0  0  0  0  0  0
  1 13  1  0
  1  5  1  0
  2  3  2  0
  2  1  1  0
  3  4  1  0
  4  5  2  0
  5  6  1  0
  6  7  1  0
  6 11  1  0
  7  8  1  0
  8  9  1  0
 10  9  1  0
 11 10  1  0
 12 17  2  0
 12 13  1  0
 13 14  2  0
 14 15  1  0
 16 18  1  0
 16 15  2  0
 17 16  1  0
 18 22  1  0
 19 18  2  0
 19 20  1  0
 20 21  2  0
 22 21  1  0
  2 23  1  0
  3 24  1  0
  7 25  1  0
  7 26  1  0
  8 27  1  0
  8 28  1  0
  9 29  1  0
 10 30  1  0
 10 31  1  0
 11 32  1  0
 11 33  1  0
 12 34  1  0
 14 35  1  0
 19 36  1  0
 21 37  1  0
 22 38  1  0
M  ISO  8  23  14  24  14  25  13  26  13  27  13  28  13  29   5  30  13
M  ISO  8  31  13  32  13  33  13  34  14  35  14  36  14  37  14  38   9
M  END
>  <minimizedAffinity>  (1) 
-4.02898598

>  <minimizedRMSD>  (1) 
0.156757697

$$$$
