
     RDKit          3D

 37 39  0  0  0  0  0  0  0  0999 V2000
   43.1200   33.3340   41.1740 N   0  0  0  0  0  0  0  0  0  0  0  0
   42.2150   33.7550   40.2870 C   0  0  0  0  0  0  0  0  0  0  0  0
   42.1360   35.1520   40.3730 C   0  0  0  0  0  0  0  0  0  0  0  0
   43.0000   35.5370   41.3140 N   0  0  0  0  0  0  0  0  0  0  0  0
   43.5960   34.4300   41.7990 C   0  0  0  0  0  0  0  0  0  0  0  0
   44.5340   34.7630   42.8130 N   0  0  0  0  0  0  0  0  0  0  0  0
   45.1010   36.0930   43.1300 C   0  0  0  0  0  0  0  0  0  0  0  0
   44.7510   36.5360   44.4970 C   0  0  0  0  0  0  0  0  0  0  0  0
   44.3520   35.4200   45.3290 N   0  0  0  0  0  0  0  0  0  0  0  0
   45.2320   34.2850   45.1160 C   0  0  0  0  0  0  0  0  0  0  0  0
   45.0790   33.7510   43.7130 C   0  0  0  0  0  0  0  0  0  0  0  0
   44.7490   31.6290   40.8280 C   0  0  0  0  0  0  0  0  0  0  0  0
   43.5500   32.0390   41.4590 C   0  0  0  0  0  0  0  0  0  0  0  0
   42.8880   31.1350   42.3300 C   0  0  0  0  0  0  0  0  0  0  0  0
   43.4630   29.9160   42.5030 N   0  0  0  0  0  0  0  0  0  0  0  0
   44.6020   29.5650   41.8880 C   0  0  0  0  0  0  0  0  0  0  0  0
   45.2540   30.4270   41.0420 N   0  0  0  0  0  0  0  0  0  0  0  0
   45.2480   28.2370   42.0630 C   0  0  0  0  0  0  0  0  0  0  0  0
   45.3030   27.7920   43.4800 C   0  0  0  0  0  0  0  0  0  0  0  0
   41.6324   33.1163   39.6067 H   0  0  0  0  0  0  0  0  0  0  0  0
   41.4842   35.8075   39.7768 H   0  0  0  0  0  0  0  0  0  0  0  0
   46.1964   36.0413   43.0435 H   0  0  0  0  0  0  0  0  0  0  0  0
   44.6783   36.8192   42.4201 H   0  0  0  0  0  0  0  0  0  0  0  0
   45.6263   37.0248   44.9498 H   0  0  0  0  0  0  0  0  0  0  0  0
   43.9050   37.2356   44.4278 H   0  0  0  0  0  0  0  0  0  0  0  0
   44.3967   35.7023   46.3186 H   0  0  0  0  0  0  0  0  0  0  0  0
   46.2741   34.6013   45.2709 H   0  0  0  0  0  0  0  0  0  0  0  0
   44.9657   33.4908   45.8290 H   0  0  0  0  0  0  0  0  0  0  0  0
   44.3998   32.8859   43.7317 H   0  0  0  0  0  0  0  0  0  0  0  0
   46.0733   33.4596   43.3438 H   0  0  0  0  0  0  0  0  0  0  0  0
   45.2681   32.3216   40.1492 H   0  0  0  0  0  0  0  0  0  0  0  0
   41.9531   31.4083   42.8412 H   0  0  0  0  0  0  0  0  0  0  0  0
   44.6794   27.4933   41.4854 H   0  0  0  0  0  0  0  0  0  0  0  0
   46.2858   28.3306   41.7105 H   0  0  0  0  0  0  0  0  0  0  0  0
   45.1953   28.6635   44.1425 H   0  0  0  0  0  0  0  0  0  0  0  0
   44.4858   27.0814   43.6731 H   0  0  0  0  0  0  0  0  0  0  0  0
   46.2686   27.3017   43.6731 H   0  0  0  0  0  0  0  0  0  0  0  0
  1 13  1  0
  1  5  1  0
  2  3  2  0
  2  1  1  0
  3  4  1  0
  4  5  2  0
  5  6  1  0
  6  7  1  0
  6 11  1  0
  7  8  1  0
  8  9  1  0
 10  9  1  0
 11 10  1  0
 12 17  2  0
 12 13  1  0
 13 14  2  0
 14 15  1  0
 16 18  1  0
 16 15  2  0
 17 16  1  0
 18 19  1  0
  2 20  1  0
  3 21  1  0
  7 22  1  0
  7 23  1  0
  8 24  1  0
  8 25  1  0
  9 26  1  0
 10 27  1  0
 10 28  1  0
 11 29  1  0
 11 30  1  0
 12 31  1  0
 14 32  1  0
 18 33  1  0
 18 34  1  0
 19 35  1  0
 19 36  1  0
 19 37  1  0
M  ISO  8  20  14  21  14  22  13  23  13  24  13  25  13  26   5  27  13
M  ISO  8  28  13  29  13  30  13  31  14  32  14  33   8  34   8  35   8
M  ISO  2  36   8  37   8
M  END
>  <minimizedAffinity>  (1) 
-4.01841211

>  <minimizedRMSD>  (1) 
0.0485975742

$$$$
