
     RDKit          3D

 36 39  0  0  1  0  0  0  0  0999 V2000
   44.5040   35.8250   44.8880 C   0  0  0  0  0  0  0  0  0  0  0  0
   45.0410   35.6170   43.5920 C   0  0  0  0  0  0  0  0  0  0  0  0
   45.8590   34.4750   43.3850 C   0  0  0  0  0  0  0  0  0  0  0  0
   46.0710   33.6590   44.4560 N   0  0  0  0  0  0  0  0  0  0  0  0
   45.5300   33.9110   45.6700 C   0  0  0  0  0  0  0  0  0  0  0  0
   44.7600   34.9790   45.8730 N   0  0  0  0  0  0  0  0  0  0  0  0
   45.8220   32.9870   46.6910 N   0  0  0  0  0  0  0  0  0  0  0  0
   44.9470   32.6910   47.8220 C   0  0  0  0  0  0  0  0  0  0  0  0
   46.0010   32.3580   48.8690 C   0  0  0  0  0  0  0  0  0  0  0  0
   46.8230   31.3600   48.0580 C   0  0  0  0  0  0  0  0  0  0  0  0
   47.0510   32.1700   46.7880 C   0  0  1  0  0  0  0  0  0  0  0  0
   47.0390   31.2260   45.6820 C   0  0  0  0  0  0  0  0  0  0  0  0
   47.8740   31.3680   44.6350 N   0  0  0  0  0  0  0  0  0  0  0  0
   47.8060   30.4550   43.6510 C   0  0  0  0  0  0  0  0  0  0  0  0
   46.9760   29.3830   43.5880 N   0  0  0  0  0  0  0  0  0  0  0  0
   46.1320   29.2370   44.6430 C   0  0  0  0  0  0  0  0  0  0  0  0
   45.2780   28.1540   44.5970 C   0  0  0  0  0  0  0  0  0  0  0  0
   44.3990   27.9570   45.6430 C   0  0  0  0  0  0  0  0  0  0  0  0
   44.3950   28.8480   46.7040 C   0  0  0  0  0  0  0  0  0  0  0  0
   45.2680   29.9090   46.6940 C   0  0  0  0  0  0  0  0  0  0  0  0
   46.1740   30.1580   45.6730 C   0  0  0  0  0  0  0  0  0  0  0  0
   43.8663   36.7011   45.0770 H   0  0  0  0  0  0  0  0  0  0  0  0
   44.8302   36.3192   42.7719 H   0  0  0  0  0  0  0  0  0  0  0  0
   46.3027   34.2581   42.4021 H   0  0  0  0  0  0  0  0  0  0  0  0
   44.3407   33.5619   48.1116 H   0  0  0  0  0  0  0  0  0  0  0  0
   44.1976   31.9058   47.6434 H   0  0  0  0  0  0  0  0  0  0  0  0
   46.5900   33.2407   49.1587 H   0  0  0  0  0  0  0  0  0  0  0  0
   45.6167   31.9883   49.8311 H   0  0  0  0  0  0  0  0  0  0  0  0
   47.7705   31.1106   48.5581 H   0  0  0  0  0  0  0  0  0  0  0  0
   46.3417   30.3831   47.9028 H   0  0  0  0  0  0  0  0  0  0  0  0
   47.9794   32.7600   46.7810 H   0  0  0  0  0  0  0  0  0  0  0  0
   48.4971   30.5912   42.8062 H   0  0  0  0  0  0  0  0  0  0  0  0
   45.2973   27.4609   43.7431 H   0  0  0  0  0  0  0  0  0  0  0  0
   43.7084   27.1009   45.6342 H   0  0  0  0  0  0  0  0  0  0  0  0
   43.7004   28.7075   47.5453 H   0  0  0  0  0  0  0  0  0  0  0  0
   45.2474   30.6031   47.5471 H   0  0  0  0  0  0  0  0  0  0  0  0
  1  6  2  0
  2  1  1  0
  3  2  2  0
  3  4  1  0
  4  5  2  0
  5  6  1  0
  5  7  1  0
  7 11  1  0
  7  8  1  0
  8  9  1  0
 10  9  1  0
 11 10  1  0
 12 11  1  0
 13 12  2  0
 14 13  1  0
 15 14  2  0
 15 16  1  0
 16 21  2  0
 17 16  1  0
 17 18  2  0
 18 19  1  0
 20 19  2  0
 21 12  1  0
 21 20  1  0
  1 22  1  0
  2 23  1  0
  3 24  1  0
  8 25  1  0
  8 26  1  0
  9 27  1  0
  9 28  1  0
 10 29  1  0
 10 30  1  0
 11 31  1  1
 14 32  1  0
 17 33  1  0
 18 34  1  0
 19 35  1  0
 20 36  1  0
M  ISO  8  22  14  23  14  24  14  25  13  26  13  27  13  28  13  29  13
M  ISO  7  30  13  31  13  32  14  33  14  34  14  35  14  36  14
M  END
>  <minimizedAffinity>  (1) 
-5.34717751

>  <minimizedRMSD>  (1) 
1.27975154

$$$$
