
     RDKit          3D

 36 39  0  0  1  0  0  0  0  0999 V2000
   44.5650   35.9040   44.8390 C   0  0  0  0  0  0  0  0  0  0  0  0
   45.1960   35.7620   43.5910 C   0  0  0  0  0  0  0  0  0  0  0  0
   46.0650   34.6560   43.4080 C   0  0  0  0  0  0  0  0  0  0  0  0
   46.2310   33.8030   44.4570 N   0  0  0  0  0  0  0  0  0  0  0  0
   45.6150   33.9730   45.6260 C   0  0  0  0  0  0  0  0  0  0  0  0
   44.7990   35.0120   45.7950 N   0  0  0  0  0  0  0  0  0  0  0  0
   45.8460   33.0460   46.6430 N   0  0  0  0  0  0  0  0  0  0  0  0
   44.9530   32.6740   47.7070 C   0  0  0  0  0  0  0  0  0  0  0  0
   45.9220   32.3950   48.8400 C   0  0  0  0  0  0  0  0  0  0  0  0
   46.9000   31.4960   48.0870 C   0  0  0  0  0  0  0  0  0  0  0  0
   47.0610   32.2730   46.8180 C   0  0  1  0  0  0  0  0  0  0  0  0
   47.4400   31.4560   45.6620 C   0  0  0  0  0  0  0  0  0  0  0  0
   47.5160   31.9600   44.3570 C   0  0  0  0  0  0  0  0  0  0  0  0
   47.8870   30.9810   43.5190 N   0  0  0  0  0  0  0  0  0  0  0  0
   48.0690   29.8260   44.1850 C   0  0  0  0  0  0  0  0  0  0  0  0
   48.4410   28.5430   43.8190 C   0  0  0  0  0  0  0  0  0  0  0  0
   48.5400   27.5510   44.7710 C   0  0  0  0  0  0  0  0  0  0  0  0
   48.2580   27.8800   46.0800 C   0  0  0  0  0  0  0  0  0  0  0  0
   47.8880   29.1480   46.4500 C   0  0  0  0  0  0  0  0  0  0  0  0
   47.7930   30.1290   45.5020 C   0  0  0  0  0  0  0  0  0  0  0  0
   43.8828   36.7472   45.0225 H   0  0  0  0  0  0  0  0  0  0  0  0
   45.0213   36.4860   42.7815 H   0  0  0  0  0  0  0  0  0  0  0  0
   46.5862   34.4929   42.4532 H   0  0  0  0  0  0  0  0  0  0  0  0
   44.2666   33.4956   47.9598 H   0  0  0  0  0  0  0  0  0  0  0  0
   44.2966   31.8259   47.4624 H   0  0  0  0  0  0  0  0  0  0  0  0
   46.4031   33.3128   49.2091 H   0  0  0  0  0  0  0  0  0  0  0  0
   45.4804   31.9628   49.7501 H   0  0  0  0  0  0  0  0  0  0  0  0
   47.8542   31.3936   48.6246 H   0  0  0  0  0  0  0  0  0  0  0  0
   46.5583   30.4594   47.9502 H   0  0  0  0  0  0  0  0  0  0  0  0
   47.9211   32.9543   46.8952 H   0  0  0  0  0  0  0  0  0  0  0  0
   47.3039   32.9990   44.0647 H   0  0  0  0  0  0  0  0  0  0  0  0
   48.0152   31.0973   42.5037 H   0  0  0  0  0  0  0  0  0  0  0  0
   48.6582   28.3149   42.7651 H   0  0  0  0  0  0  0  0  0  0  0  0
   48.8350   26.5279   44.4948 H   0  0  0  0  0  0  0  0  0  0  0  0
   48.3321   27.1004   46.8525 H   0  0  0  0  0  0  0  0  0  0  0  0
   47.6688   29.3746   47.5039 H   0  0  0  0  0  0  0  0  0  0  0  0
  1  6  2  0
  2  1  1  0
  3  2  2  0
  3  4  1  0
  4  5  2  0
  5  6  1  0
  5  7  1  0
  7 11  1  0
  7  8  1  0
  8  9  1  0
 10  9  1  0
 11 10  1  0
 12 11  1  0
 13 12  2  0
 14 15  1  0
 14 13  1  0
 15 20  2  0
 16 15  1  0
 16 17  2  0
 17 18  1  0
 18 19  2  0
 20 12  1  0
 20 19  1  0
  1 21  1  0
  2 22  1  0
  3 23  1  0
  8 24  1  0
  8 25  1  0
  9 26  1  0
  9 27  1  0
 10 28  1  0
 10 29  1  0
 11 30  1  1
 13 31  1  0
 14 32  1  0
 16 33  1  0
 17 34  1  0
 18 35  1  0
 19 36  1  0
M  ISO  8  21  14  22  14  23  14  24  13  25  13  26  13  27  13  28  13
M  ISO  8  29  13  30  13  31  14  32   9  33  14  34  14  35  14  36  14
M  END
>  <minimizedAffinity>  (1) 
-4.94842911

>  <minimizedRMSD>  (1) 
0.375847787

$$$$
