
     RDKit          3D

 35 37  0  0  1  0  0  0  0  0999 V2000
   44.6090   35.4790   45.2870 C   0  0  0  0  0  0  0  0  0  0  0  0
   44.7180   36.2620   44.1000 C   0  0  0  0  0  0  0  0  0  0  0  0
   45.4660   35.7260   43.0340 C   0  0  0  0  0  0  0  0  0  0  0  0
   46.0320   34.5120   43.2020 N   0  0  0  0  0  0  0  0  0  0  0  0
   45.9090   33.8010   44.3360 C   0  0  0  0  0  0  0  0  0  0  0  0
   45.2010   34.2900   45.3680 N   0  0  0  0  0  0  0  0  0  0  0  0
   46.5300   32.5530   44.4210 N   0  0  0  0  0  0  0  0  0  0  0  0
   46.0870   31.4040   45.1710 C   0  0  0  0  0  0  0  0  0  0  0  0
   47.4240   30.7570   45.4970 C   0  0  0  0  0  0  0  0  0  0  0  0
   48.0350   30.7660   44.0960 C   0  0  0  0  0  0  0  0  0  0  0  0
   47.7750   32.2010   43.7360 C   0  0  1  0  0  0  0  0  0  0  0  0
   47.6530   33.0460   39.5260 C   0  0  0  0  0  0  0  0  0  0  0  0
   46.8210   32.0770   40.0760 C   0  0  0  0  0  0  0  0  0  0  0  0
   46.8540   31.7970   41.4420 C   0  0  0  0  0  0  0  0  0  0  0  0
   47.6980   32.4570   42.2880 C   0  0  0  0  0  0  0  0  0  0  0  0
   48.5100   33.4080   41.7120 C   0  0  0  0  0  0  0  0  0  0  0  0
   48.5220   33.7270   40.3770 C   0  0  0  0  0  0  0  0  0  0  0  0
   47.6060   33.3910   37.8150 S   0  0  0  0  0  0  0  0  0  0  0  0
   46.1720   33.4300   37.3330 O   0  0  0  0  0  0  0  0  0  0  0  0
   48.3010   34.6810   37.5600 O   0  0  0  0  0  0  0  0  0  0  0  0
   44.0314   35.8607   46.1418 H   0  0  0  0  0  0  0  0  0  0  0  0
   44.2359   37.2475   44.0201 H   0  0  0  0  0  0  0  0  0  0  0  0
   45.5856   36.2806   42.0916 H   0  0  0  0  0  0  0  0  0  0  0  0
   45.5446   31.6975   46.0818 H   0  0  0  0  0  0  0  0  0  0  0  0
   45.3791   30.7524   44.6378 H   0  0  0  0  0  0  0  0  0  0  0  0
   48.0111   31.3568   46.2080 H   0  0  0  0  0  0  0  0  0  0  0  0
   47.3693   29.7729   45.9854 H   0  0  0  0  0  0  0  0  0  0  0  0
   49.1100   30.5333   44.1132 H   0  0  0  0  0  0  0  0  0  0  0  0
   47.6268   30.0213   43.3969 H   0  0  0  0  0  0  0  0  0  0  0  0
   48.6205   32.8279   44.0556 H   0  0  0  0  0  0  0  0  0  0  0  0
   46.1277   31.5240   39.4252 H   0  0  0  0  0  0  0  0  0  0  0  0
   46.1833   31.0252   41.8477 H   0  0  0  0  0  0  0  0  0  0  0  0
   49.2013   33.9533   42.3714 H   0  0  0  0  0  0  0  0  0  0  0  0
   49.2005   34.5007   39.9884 H   0  0  0  0  0  0  0  0  0  0  0  0
   48.2503   32.4026   37.1187 H   0  0  0  0  0  0  0  0  0  0  0  0
  1  6  2  0
  2  1  1  0
  3  4  1  0
  3  2  2  0
  4  5  2  0
  5  7  1  0
  5  6  1  0
  7  8  1  0
  8  9  1  0
 10  9  1  0
 11 10  1  0
 11  7  1  0
 12 13  2  0
 12 17  1  0
 13 14  1  0
 14 15  2  0
 15 11  1  0
 16 15  1  0
 17 16  2  0
 18 12  1  0
 19 18  2  0
 20 18  2  0
  1 21  1  0
  2 22  1  0
  3 23  1  0
  8 24  1  0
  8 25  1  0
  9 26  1  0
  9 27  1  0
 10 28  1  0
 10 29  1  0
 11 30  1  1
 13 31  1  0
 14 32  1  0
 16 33  1  0
 17 34  1  0
 18 35  1  0
M  ISO  8  21  14  22  14  23  14  24  13  25  13  26  13  27  13  28  13
M  ISO  7  29  13  30  13  31  14  32  14  33  14  34  14  35  11
M  END
>  <minimizedAffinity>  (1) 
-4.81332493

>  <minimizedRMSD>  (1) 
4.11557817

$$$$
