
     RDKit          3D

 35 37  0  0  1  0  0  0  0  0999 V2000
   44.5030   35.8190   44.8690 C   0  0  0  0  0  0  0  0  0  0  0  0
   44.9620   35.5540   43.5450 C   0  0  0  0  0  0  0  0  0  0  0  0
   45.7120   34.3700   43.3250 C   0  0  0  0  0  0  0  0  0  0  0  0
   45.9330   33.5770   44.4030 N   0  0  0  0  0  0  0  0  0  0  0  0
   45.4770   33.8700   45.6430 C   0  0  0  0  0  0  0  0  0  0  0  0
   44.7720   34.9790   45.8620 N   0  0  0  0  0  0  0  0  0  0  0  0
   45.7880   32.9500   46.6590 N   0  0  0  0  0  0  0  0  0  0  0  0
   44.9680   32.7060   47.8430 C   0  0  0  0  0  0  0  0  0  0  0  0
   46.0470   32.3690   48.8400 C   0  0  0  0  0  0  0  0  0  0  0  0
   46.8610   31.3640   48.0340 C   0  0  0  0  0  0  0  0  0  0  0  0
   46.9770   32.0840   46.7040 C   0  0  1  0  0  0  0  0  0  0  0  0
   46.9710   31.1210   45.6060 N   0  0  0  0  0  0  0  0  0  0  0  0
   47.8830   31.1780   44.6220 C   0  0  0  0  0  0  0  0  0  0  0  0
   47.9310   30.2990   43.5600 C   0  0  0  0  0  0  0  0  0  0  0  0
   48.9420   30.3640   42.4740 C   0  0  0  0  0  0  0  0  0  0  0  0
   46.9840   29.3030   43.5080 C   0  0  0  0  0  0  0  0  0  0  0  0
   46.9580   28.4590   42.5710 O   0  0  0  0  0  0  0  0  0  0  0  0
   46.0690   29.2450   44.4920 N   0  0  0  0  0  0  0  0  0  0  0  0
   46.0620   30.1210   45.5050 C   0  0  0  0  0  0  0  0  0  0  0  0
   45.1780   30.0250   46.4110 O   0  0  0  0  0  0  0  0  0  0  0  0
   43.9195   36.7295   45.0701 H   0  0  0  0  0  0  0  0  0  0  0  0
   44.7412   36.2466   42.7194 H   0  0  0  0  0  0  0  0  0  0  0  0
   46.0958   34.1077   42.3281 H   0  0  0  0  0  0  0  0  0  0  0  0
   44.4023   33.6014   48.1400 H   0  0  0  0  0  0  0  0  0  0  0  0
   44.1923   31.9358   47.7201 H   0  0  0  0  0  0  0  0  0  0  0  0
   46.6434   33.2535   49.1083 H   0  0  0  0  0  0  0  0  0  0  0  0
   45.6791   31.9932   49.8061 H   0  0  0  0  0  0  0  0  0  0  0  0
   47.8485   31.1891   48.4859 H   0  0  0  0  0  0  0  0  0  0  0  0
   46.4093   30.3631   47.9694 H   0  0  0  0  0  0  0  0  0  0  0  0
   47.9106   32.6572   46.6048 H   0  0  0  0  0  0  0  0  0  0  0  0
   48.6392   31.9757   44.6656 H   0  0  0  0  0  0  0  0  0  0  0  0
   49.9484   30.4287   42.9133 H   0  0  0  0  0  0  0  0  0  0  0  0
   48.8708   29.4594   41.8522 H   0  0  0  0  0  0  0  0  0  0  0  0
   48.7556   31.2520   41.8522 H   0  0  0  0  0  0  0  0  0  0  0  0
   45.3527   28.5053   44.4657 H   0  0  0  0  0  0  0  0  0  0  0  0
  1  6  2  0
  2  1  1  0
  3  2  2  0
  3  4  1  0
  4  5  2  0
  5  6  1  0
  5  7  1  0
  7 11  1  0
  7  8  1  0
  8  9  1  0
 10  9  1  0
 11 10  1  0
 12 11  1  0
 13 12  1  0
 14 13  2  0
 15 14  1  0
 16 14  1  0
 16 18  1  0
 17 16  2  0
 18 19  1  0
 19 12  1  0
 19 20  2  0
  1 21  1  0
  2 22  1  0
  3 23  1  0
  8 24  1  0
  8 25  1  0
  9 26  1  0
  9 27  1  0
 10 28  1  0
 10 29  1  0
 11 30  1  1
 13 31  1  0
 15 32  1  0
 15 33  1  0
 15 34  1  0
 18 35  1  0
M  ISO  8  21  14  22  14  23  14  24  13  25  13  26  13  27  13  28  13
M  ISO  7  29  13  30  13  31  14  32   8  33   8  34   8  35   9
M  END
>  <minimizedAffinity>  (1) 
-4.8040328

>  <minimizedRMSD>  (1) 
1.22898066

$$$$
