
     RDKit          3D

 33 36  0  0  1  0  0  0  0  0999 V2000
   44.5450   35.7160   44.8530 C   0  0  0  0  0  0  0  0  0  0  0  0
   44.8880   35.4360   43.5180 C   0  0  0  0  0  0  0  0  0  0  0  0
   45.5750   34.2450   43.2620 C   0  0  0  0  0  0  0  0  0  0  0  0
   45.8700   33.4310   44.3090 N   0  0  0  0  0  0  0  0  0  0  0  0
   45.5250   33.7300   45.5790 C   0  0  0  0  0  0  0  0  0  0  0  0
   44.8690   34.8640   45.8220 N   0  0  0  0  0  0  0  0  0  0  0  0
   45.8760   32.8240   46.5760 N   0  0  0  0  0  0  0  0  0  0  0  0
   45.2010   32.6350   47.8340 C   0  0  0  0  0  0  0  0  0  0  0  0
   46.3730   32.2860   48.7450 C   0  0  0  0  0  0  0  0  0  0  0  0
   47.0070   31.2060   47.8710 C   0  0  0  0  0  0  0  0  0  0  0  0
   46.9970   31.8930   46.5380 C   0  0  1  0  0  0  0  0  0  0  0  0
   46.9140   30.9660   45.4300 N   0  0  0  0  0  0  0  0  0  0  0  0
   47.8280   30.9370   44.4310 C   0  0  0  0  0  0  0  0  0  0  0  0
   47.4940   29.9770   43.5470 N   0  0  0  0  0  0  0  0  0  0  0  0
   46.3700   29.3700   43.9480 C   0  0  0  0  0  0  0  0  0  0  0  0
   45.5580   28.3470   43.4850 C   0  0  0  0  0  0  0  0  0  0  0  0
   44.4580   27.9800   44.1680 N   0  0  0  0  0  0  0  0  0  0  0  0
   44.1370   28.6140   45.3240 C   0  0  0  0  0  0  0  0  0  0  0  0
   44.9270   29.6230   45.7910 N   0  0  0  0  0  0  0  0  0  0  0  0
   46.0280   30.0030   45.1220 C   0  0  0  0  0  0  0  0  0  0  0  0
   44.0064   36.6436   45.0969 H   0  0  0  0  0  0  0  0  0  0  0  0
   44.6254   36.1286   42.7048 H   0  0  0  0  0  0  0  0  0  0  0  0
   45.8695   33.9738   42.2374 H   0  0  0  0  0  0  0  0  0  0  0  0
   44.6942   33.5544   48.1624 H   0  0  0  0  0  0  0  0  0  0  0  0
   44.4039   31.8773   47.8110 H   0  0  0  0  0  0  0  0  0  0  0  0
   47.0460   33.1414   48.9043 H   0  0  0  0  0  0  0  0  0  0  0  0
   46.1142   31.9863   49.7713 H   0  0  0  0  0  0  0  0  0  0  0  0
   48.0301   30.9680   48.1976 H   0  0  0  0  0  0  0  0  0  0  0  0
   46.4877   30.2365   47.8911 H   0  0  0  0  0  0  0  0  0  0  0  0
   47.9444   32.4247   46.3655 H   0  0  0  0  0  0  0  0  0  0  0  0
   48.7062   31.5948   44.3535 H   0  0  0  0  0  0  0  0  0  0  0  0
   45.8153   27.8293   42.5491 H   0  0  0  0  0  0  0  0  0  0  0  0
   43.2394   28.3141   45.8846 H   0  0  0  0  0  0  0  0  0  0  0  0
  1  6  2  0
  2  1  1  0
  3  2  2  0
  3  4  1  0
  4  5  2  0
  5  6  1  0
  5  7  1  0
  7  8  1  0
  8  9  1  0
 10  9  1  0
 11  7  1  0
 11 10  1  0
 12 11  1  0
 13 12  1  0
 14 15  1  0
 14 13  2  0
 15 20  2  0
 16 15  1  0
 16 17  2  0
 17 18  1  0
 18 19  2  0
 20 12  1  0
 20 19  1  0
  1 21  1  0
  2 22  1  0
  3 23  1  0
  8 24  1  0
  8 25  1  0
  9 26  1  0
  9 27  1  0
 10 28  1  0
 10 29  1  0
 11 30  1  6
 13 31  1  0
 16 32  1  0
 18 33  1  0
M  ISO  8  21  14  22  14  23  14  24  13  25  13  26  13  27  13  28  13
M  ISO  5  29  13  30  13  31  14  32  14  33  14
M  END
>  <minimizedAffinity>  (1) 
-4.71329975

>  <minimizedRMSD>  (1) 
1.92551136

$$$$
