
     RDKit          3D

 29 31  0  0  1  0  0  0  0  0999 V2000
   44.5750   35.6720   44.8690 C   0  0  0  0  0  0  0  0  0  0  0  0
   45.2170   35.4960   43.6330 C   0  0  0  0  0  0  0  0  0  0  0  0
   46.0970   34.4180   43.4910 C   0  0  0  0  0  0  0  0  0  0  0  0
   46.2950   33.5840   44.5570 N   0  0  0  0  0  0  0  0  0  0  0  0
   45.6520   33.7960   45.7270 C   0  0  0  0  0  0  0  0  0  0  0  0
   44.8110   34.8260   45.8660 N   0  0  0  0  0  0  0  0  0  0  0  0
   45.9170   32.8850   46.7570 N   0  0  0  0  0  0  0  0  0  0  0  0
   44.9920   32.5200   47.8210 C   0  0  0  0  0  0  0  0  0  0  0  0
   45.9390   32.3190   48.9730 C   0  0  0  0  0  0  0  0  0  0  0  0
   47.0410   31.5100   48.3230 C   0  0  0  0  0  0  0  0  0  0  0  0
   47.1620   32.1350   46.9570 C   0  0  1  0  0  0  0  0  0  0  0  0
   47.1320   30.9660   45.9780 C   0  0  0  0  0  0  0  0  0  0  0  0
   46.8560   29.6170   46.5760 C   0  0  0  0  0  0  0  0  0  0  0  0
   48.2080   29.9520   46.0040 C   0  0  0  0  0  0  0  0  0  0  0  0
   43.8769   36.5099   45.0120 H   0  0  0  0  0  0  0  0  0  0  0  0
   45.0328   36.1879   42.7979 H   0  0  0  0  0  0  0  0  0  0  0  0
   46.6204   34.2441   42.5392 H   0  0  0  0  0  0  0  0  0  0  0  0
   44.2736   33.3275   48.0256 H   0  0  0  0  0  0  0  0  0  0  0  0
   44.3641   31.6458   47.5941 H   0  0  0  0  0  0  0  0  0  0  0  0
   46.3171   33.2791   49.3541 H   0  0  0  0  0  0  0  0  0  0  0  0
   45.4829   31.8325   49.8478 H   0  0  0  0  0  0  0  0  0  0  0  0
   47.9825   31.6021   48.8844 H   0  0  0  0  0  0  0  0  0  0  0  0
   46.8238   30.4322   48.2882 H   0  0  0  0  0  0  0  0  0  0  0  0
   48.0550   32.7658   46.8363 H   0  0  0  0  0  0  0  0  0  0  0  0
   46.7048   31.5860   45.1760 H   0  0  0  0  0  0  0  0  0  0  0  0
   46.7266   29.5100   47.6631 H   0  0  0  0  0  0  0  0  0  0  0  0
   46.1102   28.8249   46.4135 H   0  0  0  0  0  0  0  0  0  0  0  0
   48.5401   29.4799   45.0676 H   0  0  0  0  0  0  0  0  0  0  0  0
   49.2395   29.9254   46.3851 H   0  0  0  0  0  0  0  0  0  0  0  0
  1  6  2  0
  2  1  1  0
  3  2  2  0
  3  4  1  0
  4  5  2  0
  5  6  1  0
  5  7  1  0
  7 11  1  0
  7  8  1  0
  8  9  1  0
 10  9  1  0
 11 10  1  0
 12 14  1  0
 12 13  1  0
 12 11  1  0
 14 13  1  0
  1 15  1  0
  2 16  1  0
  3 17  1  0
  8 18  1  0
  8 19  1  0
  9 20  1  0
  9 21  1  0
 10 22  1  0
 10 23  1  0
 11 24  1  1
 12 25  1  0
 13 26  1  0
 13 27  1  0
 14 28  1  0
 14 29  1  0
M  ISO  8  15  14  16  14  17  14  18  13  19  13  20  13  21  13  22  13
M  ISO  7  23  13  24  13  25  13  26  13  27  13  28  13  29  13
M  END
>  <minimizedAffinity>  (1) 
-4.60053062

>  <minimizedRMSD>  (1) 
0.5077281

$$$$
