
     RDKit          3D

 34 36  0  0  1  0  0  0  0  0999 V2000
   44.4610   35.9250   44.7780 C   0  0  0  0  0  0  0  0  0  0  0  0
   44.7700   35.6820   43.4270 C   0  0  0  0  0  0  0  0  0  0  0  0
   45.4540   34.4990   43.1280 C   0  0  0  0  0  0  0  0  0  0  0  0
   45.7760   33.6650   44.1490 N   0  0  0  0  0  0  0  0  0  0  0  0
   45.4640   33.9340   45.4220 C   0  0  0  0  0  0  0  0  0  0  0  0
   44.8030   35.0640   45.7600 N   0  0  0  0  0  0  0  0  0  0  0  0
   45.8410   33.0080   46.4070 N   0  0  0  0  0  0  0  0  0  0  0  0
   45.1440   32.7040   47.6370 C   0  0  0  0  0  0  0  0  0  0  0  0
   46.3240   32.3660   48.5400 C   0  0  0  0  0  0  0  0  0  0  0  0
   47.0400   31.3690   47.6140 C   0  0  0  0  0  0  0  0  0  0  0  0
   47.0310   32.1760   46.3540 C   0  0  1  0  0  0  0  0  0  0  0  0
   47.1290   31.4300   45.1390 N   0  0  0  0  0  0  0  0  0  0  0  0
   45.8280   31.0160   44.7160 C   0  0  0  0  0  0  0  0  0  0  0  0
   46.0460   30.6810   43.2510 C   0  0  0  0  0  0  0  0  0  0  0  0
   47.4260   31.1940   42.8930 C   0  0  0  0  0  0  0  0  0  0  0  0
   47.7210   32.1630   44.0480 C   0  0  0  0  0  0  0  0  0  0  0  0
   43.9229   36.8471   45.0429 H   0  0  0  0  0  0  0  0  0  0  0  0
   44.4852   36.3935   42.6379 H   0  0  0  0  0  0  0  0  0  0  0  0
   45.7242   34.2509   42.0910 H   0  0  0  0  0  0  0  0  0  0  0  0
   44.5804   33.5715   48.0109 H   0  0  0  0  0  0  0  0  0  0  0  0
   44.3855   31.9118   47.5535 H   0  0  0  0  0  0  0  0  0  0  0  0
   46.9444   33.2476   48.7590 H   0  0  0  0  0  0  0  0  0  0  0  0
   46.0674   31.9892   49.5411 H   0  0  0  0  0  0  0  0  0  0  0  0
   48.0620   31.1486   47.9559 H   0  0  0  0  0  0  0  0  0  0  0  0
   46.5786   30.3730   47.5424 H   0  0  0  0  0  0  0  0  0  0  0  0
   47.9501   32.7794   46.3190 H   0  0  0  0  0  0  0  0  0  0  0  0
   45.4897   30.1335   45.2789 H   0  0  0  0  0  0  0  0  0  0  0  0
   45.0520   31.7784   44.8793 H   0  0  0  0  0  0  0  0  0  0  0  0
   45.9936   29.5929   43.0981 H   0  0  0  0  0  0  0  0  0  0  0  0
   45.2736   31.1425   42.6182 H   0  0  0  0  0  0  0  0  0  0  0  0
   48.1602   30.3754   42.8616 H   0  0  0  0  0  0  0  0  0  0  0  0
   47.4792   31.6622   41.8990 H   0  0  0  0  0  0  0  0  0  0  0  0
   48.8014   32.3105   44.1926 H   0  0  0  0  0  0  0  0  0  0  0  0
   47.3355   33.1839   43.9094 H   0  0  0  0  0  0  0  0  0  0  0  0
  1  6  2  0
  2  1  1  0
  3  2  2  0
  3  4  1  0
  4  5  2  0
  5  6  1  0
  5  7  1  0
  7  8  1  0
  8  9  1  0
 10  9  1  0
 11  7  1  0
 11 10  1  0
 12 13  1  0
 12 11  1  0
 14 13  1  0
 15 14  1  0
 15 16  1  0
 16 12  1  0
  1 17  1  0
  2 18  1  0
  3 19  1  0
  8 20  1  0
  8 21  1  0
  9 22  1  0
  9 23  1  0
 10 24  1  0
 10 25  1  0
 11 26  1  1
 13 27  1  0
 13 28  1  0
 14 29  1  0
 14 30  1  0
 15 31  1  0
 15 32  1  0
 16 33  1  0
 16 34  1  0
M  ISO  8  17  14  18  14  19  14  20  13  21  13  22  13  23  13  24  13
M  ISO  8  25  13  26  13  27  13  28  13  29  13  30  13  31  13  32  13
M  ISO  2  33  13  34  13
M  END
>  <minimizedAffinity>  (1) 
-4.50998163

>  <minimizedRMSD>  (1) 
0.766859353

$$$$
