
     RDKit          3D

 24 25  0  0  1  0  0  0  0  0999 V2000
   44.5420   35.7390   44.8390 C   0  0  0  0  0  0  0  0  0  0  0  0
   45.2150   35.5900   43.5910 C   0  0  0  0  0  0  0  0  0  0  0  0
   46.1190   34.5040   43.4560 C   0  0  0  0  0  0  0  0  0  0  0  0
   46.2820   33.6890   44.5130 N   0  0  0  0  0  0  0  0  0  0  0  0
   45.6370   33.8560   45.6670 C   0  0  0  0  0  0  0  0  0  0  0  0
   44.7700   34.8750   45.8350 N   0  0  0  0  0  0  0  0  0  0  0  0
   45.8800   32.9500   46.7090 N   0  0  0  0  0  0  0  0  0  0  0  0
   44.9650   32.5820   47.7800 C   0  0  0  0  0  0  0  0  0  0  0  0
   45.9690   32.3550   48.9030 C   0  0  0  0  0  0  0  0  0  0  0  0
   46.9670   31.4570   48.1880 C   0  0  0  0  0  0  0  0  0  0  0  0
   47.1400   32.2090   46.8880 C   0  0  1  0  0  0  0  0  0  0  0  0
   47.2440   31.2560   45.8040 N   0  0  0  0  0  0  0  0  0  0  0  0
   43.8327   36.5673   44.9836 H   0  0  0  0  0  0  0  0  0  0  0  0
   45.0399   36.2917   42.7622 H   0  0  0  0  0  0  0  0  0  0  0  0
   46.6679   34.3348   42.5179 H   0  0  0  0  0  0  0  0  0  0  0  0
   44.2621   33.3945   48.0162 H   0  0  0  0  0  0  0  0  0  0  0  0
   44.3074   31.7279   47.5607 H   0  0  0  0  0  0  0  0  0  0  0  0
   46.4313   33.2968   49.2338 H   0  0  0  0  0  0  0  0  0  0  0  0
   45.5443   31.9328   49.8257 H   0  0  0  0  0  0  0  0  0  0  0  0
   47.9143   31.3822   48.7421 H   0  0  0  0  0  0  0  0  0  0  0  0
   46.6400   30.4132   48.0715 H   0  0  0  0  0  0  0  0  0  0  0  0
   48.0298   32.8557   46.8986 H   0  0  0  0  0  0  0  0  0  0  0  0
   47.3476   30.3068   46.1901 H   0  0  0  0  0  0  0  0  0  0  0  0
   46.3932   31.3002   45.2252 H   0  0  0  0  0  0  0  0  0  0  0  0
  1  6  2  0
  2  1  1  0
  3  2  2  0
  3  4  1  0
  4  5  2  0
  5  6  1  0
  5  7  1  0
  7 11  1  0
  7  8  1  0
  8  9  1  0
 10  9  1  0
 11 10  1  0
 12 11  1  0
  1 13  1  0
  2 14  1  0
  3 15  1  0
  8 16  1  0
  8 17  1  0
  9 18  1  0
  9 19  1  0
 10 20  1  0
 10 21  1  0
 11 22  1  1
 12 23  1  0
 12 24  1  0
M  ISO  8  13  14  14  14  15  14  16  13  17  13  18  13  19  13  20  13
M  ISO  4  21  13  22  13  23   5  24   5
M  END
>  <minimizedAffinity>  (1) 
-4.44624329

>  <minimizedRMSD>  (1) 
0.0250250194

$$$$
