
     RDKit          3D

 29 30  0  0  1  0  0  0  0  0999 V2000
   46.0270   34.2300   44.8560 C   0  0  0  0  0  0  0  0  0  0  0  0
   46.9390   33.6640   43.9290 C   0  0  0  0  0  0  0  0  0  0  0  0
   47.4720   32.4010   44.2340 C   0  0  0  0  0  0  0  0  0  0  0  0
   47.0800   31.8080   45.3950 N   0  0  0  0  0  0  0  0  0  0  0  0
   46.2060   32.3890   46.2490 C   0  0  0  0  0  0  0  0  0  0  0  0
   45.6910   33.5870   45.9730 N   0  0  0  0  0  0  0  0  0  0  0  0
   45.8850   31.6720   47.4110 N   0  0  0  0  0  0  0  0  0  0  0  0
   44.6200   31.7250   48.1110 C   0  0  0  0  0  0  0  0  0  0  0  0
   45.0770   31.5490   49.5440 C   0  0  0  0  0  0  0  0  0  0  0  0
   46.0370   30.3720   49.3790 C   0  0  0  0  0  0  0  0  0  0  0  0
   46.7560   30.7480   48.1230 C   0  0  2  0  0  0  0  0  0  0  0  0
   48.0020   31.4620   48.3720 N   0  0  0  0  0  0  0  0  0  0  0  0
   48.9920   30.8620   49.1980 C   0  0  0  0  0  0  0  0  0  0  0  0
   49.1190   29.5600   49.1470 N   0  0  0  0  0  0  0  0  0  0  0  0
   49.8080   31.6940   50.0460 N   0  0  0  0  0  0  0  0  0  0  0  0
   49.8580   29.1650   49.7710 H   0  0  0  0  0  0  0  0  0  0  0  0
   45.5893   35.2177   44.6488 H   0  0  0  0  0  0  0  0  0  0  0  0
   47.2182   34.1940   43.0064 H   0  0  0  0  0  0  0  0  0  0  0  0
   48.1836   31.9066   43.5563 H   0  0  0  0  0  0  0  0  0  0  0  0
   44.1164   32.6917   47.9632 H   0  0  0  0  0  0  0  0  0  0  0  0
   43.8834   30.9805   47.7746 H   0  0  0  0  0  0  0  0  0  0  0  0
   45.5920   32.4452   49.9204 H   0  0  0  0  0  0  0  0  0  0  0  0
   44.2669   31.3854   50.2699 H   0  0  0  0  0  0  0  0  0  0  0  0
   46.7290   30.2954   50.2306 H   0  0  0  0  0  0  0  0  0  0  0  0
   45.5409   29.3912   49.3355 H   0  0  0  0  0  0  0  0  0  0  0  0
   46.9928   29.8259   47.5720 H   0  0  0  0  0  0  0  0  0  0  0  0
   48.1635   32.3898   47.9548 H   0  0  0  0  0  0  0  0  0  0  0  0
   50.5273   31.2677   50.6474 H   0  0  0  0  0  0  0  0  0  0  0  0
   49.6718   32.7149   50.0506 H   0  0  0  0  0  0  0  0  0  0  0  0
  1  6  2  0
  2  3  2  0
  2  1  1  0
  3  4  1  0
  4  5  2  0
  5  7  1  0
  6  5  1  0
  7  8  1  0
  7 11  1  0
  8  9  1  0
 10  9  1  0
 11 12  1  0
 11 10  1  0
 12 13  1  0
 13 15  1  0
 14 13  2  0
 14 16  1  0
  1 17  1  0
  2 18  1  0
  3 19  1  0
  8 20  1  0
  8 21  1  0
  9 22  1  0
  9 23  1  0
 10 24  1  0
 10 25  1  0
 11 26  1  6
 12 27  1  0
 15 28  1  0
 15 29  1  0
M  ISO  8  17  14  18  14  19  14  20  13  21  13  22  13  23  13  24  13
M  ISO  2  25  13  26  13
M  END
>  <minimizedAffinity>  (1) 
-4.25522804

>  <minimizedRMSD>  (1) 
2.1593473

$$$$
