
     RDKit          3D

 34 37  0  0  0  0  0  0  0  0999 V2000
   46.7130   34.8220   42.0370 C   0  0  0  0  0  0  0  0  0  0  0  0
   47.9690   35.3950   41.9650 C   0  0  0  0  0  0  0  0  0  0  0  0
   48.8000   35.3020   40.8740 C   0  0  0  0  0  0  0  0  0  0  0  0
   48.3790   34.6030   39.7800 C   0  0  0  0  0  0  0  0  0  0  0  0
   47.1450   34.0080   39.7760 C   0  0  0  0  0  0  0  0  0  0  0  0
   46.6990   33.3030   38.6690 C   0  0  0  0  0  0  0  0  0  0  0  0
   45.4570   32.6980   38.6310 C   0  0  0  0  0  0  0  0  0  0  0  0
   44.6780   32.8440   39.7830 C   0  0  0  0  0  0  0  0  0  0  0  0
   45.1430   33.5390   40.8480 C   0  0  0  0  0  0  0  0  0  0  0  0
   46.3680   34.1390   40.8930 C   0  0  0  0  0  0  0  0  0  0  0  0
   44.4130   35.9710   44.8540 C   0  0  0  0  0  0  0  0  0  0  0  0
   45.0510   35.9520   43.6210 C   0  0  0  0  0  0  0  0  0  0  0  0
   45.9720   35.0010   43.2520 C   0  0  0  0  0  0  0  0  0  0  0  0
   46.1900   34.0770   44.2350 N   0  0  0  0  0  0  0  0  0  0  0  0
   45.5970   34.0600   45.4350 C   0  0  0  0  0  0  0  0  0  0  0  0
   44.7170   35.0050   45.7270 N   0  0  0  0  0  0  0  0  0  0  0  0
   45.9230   33.0100   46.3960 C   0  0  0  0  0  0  0  0  0  0  0  0
   46.9290   32.1120   46.0980 C   0  0  0  0  0  0  0  0  0  0  0  0
   47.2020   31.1250   47.0490 C   0  0  0  0  0  0  0  0  0  0  0  0
   46.5400   31.0210   48.2170 N   0  0  0  0  0  0  0  0  0  0  0  0
   45.5670   31.9250   48.4540 C   0  0  0  0  0  0  0  0  0  0  0  0
   45.2590   32.9070   47.5610 N   0  0  0  0  0  0  0  0  0  0  0  0
   48.3265   35.9620   42.8372 H   0  0  0  0  0  0  0  0  0  0  0  0
   49.7890   35.7835   40.8825 H   0  0  0  0  0  0  0  0  0  0  0  0
   49.0322   34.5171   38.8991 H   0  0  0  0  0  0  0  0  0  0  0  0
   47.3562   33.2223   37.7906 H   0  0  0  0  0  0  0  0  0  0  0  0
   45.1044   32.1383   37.7521 H   0  0  0  0  0  0  0  0  0  0  0  0
   43.6771   32.3896   39.8245 H   0  0  0  0  0  0  0  0  0  0  0  0
   44.4933   33.6253   41.7314 H   0  0  0  0  0  0  0  0  0  0  0  0
   43.6822   36.7542   45.1042 H   0  0  0  0  0  0  0  0  0  0  0  0
   44.8052   36.7436   42.8979 H   0  0  0  0  0  0  0  0  0  0  0  0
   47.4905   32.1710   45.1540 H   0  0  0  0  0  0  0  0  0  0  0  0
   47.9974   30.3967   46.8326 H   0  0  0  0  0  0  0  0  0  0  0  0
   45.0047   31.8675   49.3977 H   0  0  0  0  0  0  0  0  0  0  0  0
  1 13  1  0
  2  1  2  0
  3  2  1  0
  4  3  2  0
  5  4  1  0
  5 10  2  0
  6  5  1  0
  7  6  2  0
  7  8  1  0
  8  9  2  0
  9 10  1  0
 10  1  1  0
 11 16  2  0
 12 11  1  0
 13 12  2  0
 13 14  1  0
 14 15  2  0
 15 16  1  0
 15 17  1  0
 17 22  1  0
 18 17  2  0
 18 19  1  0
 19 20  2  0
 20 21  1  0
 22 21  2  0
  2 23  1  0
  3 24  1  0
  4 25  1  0
  6 26  1  0
  7 27  1  0
  8 28  1  0
  9 29  1  0
 11 30  1  0
 12 31  1  0
 18 32  1  0
 19 33  1  0
 21 34  1  0
M  ISO  8  23  14  24  14  25  14  26  14  27  14  28  14  29  14  30  14
M  ISO  4  31  14  32  14  33  14  34  14
M  END
>  <minimizedAffinity>  (1) 
-6.99881744

>  <minimizedRMSD>  (1) 
0.0966812596

$$$$
