
     RDKit          3D

 23 24  0  0  1  0  0  0  0  0999 V2000
   44.7860   35.1090   44.9530 C   0  0  0  0  0  0  0  0  0  0  0  0
   45.7200   35.0140   43.9000 C   0  0  0  0  0  0  0  0  0  0  0  0
   46.7260   34.0420   44.0120 C   0  0  0  0  0  0  0  0  0  0  0  0
   46.7490   33.2460   45.1250 N   0  0  0  0  0  0  0  0  0  0  0  0
   45.8210   33.3900   46.0990 C   0  0  0  0  0  0  0  0  0  0  0  0
   44.8560   34.3110   46.0080 N   0  0  0  0  0  0  0  0  0  0  0  0
   45.9330   32.5180   47.1990 N   0  0  0  0  0  0  0  0  0  0  0  0
   44.8170   32.0590   48.0180 C   0  0  0  0  0  0  0  0  0  0  0  0
   45.5230   31.9200   49.3550 C   0  0  0  0  0  0  0  0  0  0  0  0
   46.7650   31.1480   48.9250 C   0  0  0  0  0  0  0  0  0  0  0  0
   47.1870   31.9300   47.6990 C   0  0  2  0  0  0  0  0  0  0  0  0
   48.1060   32.9030   48.0160 O   0  0  0  0  0  0  0  0  0  0  0  0
   43.9843   35.8601   44.8969 H   0  0  0  0  0  0  0  0  0  0  0  0
   45.6619   35.6769   43.0241 H   0  0  0  0  0  0  0  0  0  0  0  0
   47.4810   33.9223   43.2210 H   0  0  0  0  0  0  0  0  0  0  0  0
   44.0059   32.8009   48.0581 H   0  0  0  0  0  0  0  0  0  0  0  0
   44.3169   31.1481   47.6573 H   0  0  0  0  0  0  0  0  0  0  0  0
   45.7804   32.8998   49.7837 H   0  0  0  0  0  0  0  0  0  0  0  0
   44.9280   31.4350   50.1429 H   0  0  0  0  0  0  0  0  0  0  0  0
   47.5420   31.1684   49.7034 H   0  0  0  0  0  0  0  0  0  0  0  0
   46.5901   30.0779   48.7400 H   0  0  0  0  0  0  0  0  0  0  0  0
   47.6824   31.2972   46.9479 H   0  0  0  0  0  0  0  0  0  0  0  0
   48.1788   32.9801   49.0003 H   0  0  0  0  0  0  0  0  0  0  0  0
  1  6  2  0
  2  3  2  0
  2  1  1  0
  3  4  1  0
  4  5  2  0
  5  7  1  0
  6  5  1  0
  7 11  1  0
  7  8  1  0
  8  9  1  0
 10  9  1  0
 11 12  1  0
 11 10  1  0
  1 13  1  0
  2 14  1  0
  3 15  1  0
  8 16  1  0
  8 17  1  0
  9 18  1  0
  9 19  1  0
 10 20  1  0
 10 21  1  0
 11 22  1  6
 12 23  1  0
M  ISO  8  13  14  14  14  15  14  16  13  17  13  18  13  19  13  20  13
M  ISO  3  21  13  22  13  23   3
M  END
>  <minimizedAffinity>  (1) 
-4.18822527

>  <minimizedRMSD>  (1) 
0.778642893

$$$$
