
     RDKit          3D

 33 36  0  0  0  0  0  0  0  0999 V2000
   46.6490   34.7820   42.0810 C   0  0  0  0  0  0  0  0  0  0  0  0
   47.9290   35.3050   41.9940 C   0  0  0  0  0  0  0  0  0  0  0  0
   48.7400   35.1910   40.8950 C   0  0  0  0  0  0  0  0  0  0  0  0
   48.2800   34.5170   39.7890 C   0  0  0  0  0  0  0  0  0  0  0  0
   47.0120   33.9670   39.8020 C   0  0  0  0  0  0  0  0  0  0  0  0
   46.5350   33.2910   38.6990 C   0  0  0  0  0  0  0  0  0  0  0  0
   45.2730   32.7310   38.6750 C   0  0  0  0  0  0  0  0  0  0  0  0
   44.5240   32.8960   39.8270 C   0  0  0  0  0  0  0  0  0  0  0  0
   45.0200   33.5660   40.8940 C   0  0  0  0  0  0  0  0  0  0  0  0
   46.2700   34.1260   40.9350 C   0  0  0  0  0  0  0  0  0  0  0  0
   44.4090   36.0120   44.9140 C   0  0  0  0  0  0  0  0  0  0  0  0
   45.0380   35.9650   43.6850 C   0  0  0  0  0  0  0  0  0  0  0  0
   45.9260   34.9780   43.3030 C   0  0  0  0  0  0  0  0  0  0  0  0
   46.1210   34.0420   44.2810 N   0  0  0  0  0  0  0  0  0  0  0  0
   45.5270   34.0620   45.4760 C   0  0  0  0  0  0  0  0  0  0  0  0
   44.6810   35.0450   45.7760 N   0  0  0  0  0  0  0  0  0  0  0  0
   45.7950   33.0140   46.4680 C   0  0  0  0  0  0  0  0  0  0  0  0
   45.2990   32.8360   47.6740 C   0  0  0  0  0  0  0  0  0  0  0  0
   45.6640   31.7880   48.4790 C   0  0  0  0  0  0  0  0  0  0  0  0
   46.6480   30.9160   47.8440 C   0  0  0  0  0  0  0  0  0  0  0  0
   46.9330   31.6520   46.2420 S   0  0  0  0  0  0  0  0  0  0  0  0
   48.3210   35.8487   42.8662 H   0  0  0  0  0  0  0  0  0  0  0  0
   49.7470   35.6336   40.8981 H   0  0  0  0  0  0  0  0  0  0  0  0
   48.9175   34.4158   38.8983 H   0  0  0  0  0  0  0  0  0  0  0  0
   47.1786   33.1950   37.8121 H   0  0  0  0  0  0  0  0  0  0  0  0
   44.8884   32.1895   37.7981 H   0  0  0  0  0  0  0  0  0  0  0  0
   43.5086   32.4758   39.8767 H   0  0  0  0  0  0  0  0  0  0  0  0
   44.3799   33.6670   41.7829 H   0  0  0  0  0  0  0  0  0  0  0  0
   43.7089   36.8220   45.1666 H   0  0  0  0  0  0  0  0  0  0  0  0
   44.8175   36.7656   42.9636 H   0  0  0  0  0  0  0  0  0  0  0  0
   44.5606   33.5584   48.0519 H   0  0  0  0  0  0  0  0  0  0  0  0
   45.2611   31.6228   49.4891 H   0  0  0  0  0  0  0  0  0  0  0  0
   47.1104   30.0085   48.2595 H   0  0  0  0  0  0  0  0  0  0  0  0
  1 13  1  0
  2  1  2  0
  3  2  1  0
  4  5  1  0
  4  3  2  0
  5 10  2  0
  6  5  1  0
  7  6  2  0
  7  8  1  0
  8  9  2  0
  9 10  1  0
 10  1  1  0
 11 16  2  0
 12 11  1  0
 13 12  2  0
 13 14  1  0
 14 15  2  0
 15 16  1  0
 15 17  1  0
 17 18  2  0
 18 19  1  0
 20 19  2  0
 21 17  1  0
 21 20  1  0
  2 22  1  0
  3 23  1  0
  4 24  1  0
  6 25  1  0
  7 26  1  0
  8 27  1  0
  9 28  1  0
 11 29  1  0
 12 30  1  0
 18 31  1  0
 19 32  1  0
 20 33  1  0
M  ISO  8  22  14  23  14  24  14  25  14  26  14  27  14  28  14  29  14
M  ISO  4  30  14  31  14  32  14  33  14
M  END
>  <minimizedAffinity>  (1) 
-6.783916

>  <minimizedRMSD>  (1) 
0.340961128

$$$$
