
     RDKit          3D

 46 49  0  0  1  0  0  0  0  0999 V2000
   46.8640   32.5150   42.0600 N   0  0  0  0  0  0  0  0  0  0  0  0
   45.5290   32.2160   41.8670 C   0  0  0  0  0  0  0  0  0  0  0  0
   45.1610   32.3580   40.3910 C   0  0  0  0  0  0  0  0  0  0  0  0
   45.6600   33.4630   39.7780 O   0  0  0  0  0  0  0  0  0  0  0  0
   46.9840   33.6930   40.0090 C   0  0  0  0  0  0  0  0  0  0  0  0
   47.4180   33.5980   41.4730 C   0  0  2  0  0  0  0  0  0  0  0  0
   44.6560   35.3240   45.6720 C   0  0  0  0  0  0  0  0  0  0  0  0
   44.6050   36.2010   44.5530 C   0  0  0  0  0  0  0  0  0  0  0  0
   45.1550   35.7450   43.3230 C   0  0  0  0  0  0  0  0  0  0  0  0
   45.6710   34.5200   43.3420 N   0  0  0  0  0  0  0  0  0  0  0  0
   45.7140   33.7080   44.3960 C   0  0  0  0  0  0  0  0  0  0  0  0
   45.2010   34.1300   45.5470 N   0  0  0  0  0  0  0  0  0  0  0  0
   46.2980   32.4460   44.2610 N   0  0  0  0  0  0  0  0  0  0  0  0
   45.9380   31.2470   45.0000 C   0  0  0  0  0  0  0  0  0  0  0  0
   47.2960   30.5610   45.0340 C   0  0  0  0  0  0  0  0  0  0  0  0
   47.6640   30.6730   43.5560 C   0  0  0  0  0  0  0  0  0  0  0  0
   47.3950   32.1210   43.3300 C   0  0  1  0  0  0  0  0  0  0  0  0
   48.8210   33.0620   41.3010 N   0  0  0  0  0  0  0  0  0  0  0  0
   49.1950   32.0750   40.4680 C   0  0  0  0  0  0  0  0  0  0  0  0
   50.4800   31.6170   40.3420 C   0  0  0  0  0  0  0  0  0  0  0  0
   51.4560   32.1830   41.0960 C   0  0  0  0  0  0  0  0  0  0  0  0
   52.7680   31.6990   40.9520 N   0  0  0  0  0  0  0  0  0  0  0  0
   51.1020   33.1680   41.9310 N   0  0  0  0  0  0  0  0  0  0  0  0
   49.8270   33.5850   42.0230 C   0  0  0  0  0  0  0  0  0  0  0  0
   49.7050   34.5070   42.8510 O   0  0  0  0  0  0  0  0  0  0  0  0
   45.3384   31.1821   42.1905 H   0  0  0  0  0  0  0  0  0  0  0  0
   44.9173   32.9146   42.4567 H   0  0  0  0  0  0  0  0  0  0  0  0
   45.5387   31.4727   39.8586 H   0  0  0  0  0  0  0  0  0  0  0  0
   44.0659   32.4552   40.3555 H   0  0  0  0  0  0  0  0  0  0  0  0
   47.5626   32.9547   39.4344 H   0  0  0  0  0  0  0  0  0  0  0  0
   47.1701   34.7331   39.7033 H   0  0  0  0  0  0  0  0  0  0  0  0
   47.2178   34.5331   42.0166 H   0  0  0  0  0  0  0  0  0  0  0  0
   44.2413   35.6416   46.6401 H   0  0  0  0  0  0  0  0  0  0  0  0
   44.1542   37.2009   44.6364 H   0  0  0  0  0  0  0  0  0  0  0  0
   45.1535   36.3658   42.4149 H   0  0  0  0  0  0  0  0  0  0  0  0
   45.5705   31.4814   46.0099 H   0  0  0  0  0  0  0  0  0  0  0  0
   45.1222   30.6527   44.5626 H   0  0  0  0  0  0  0  0  0  0  0  0
   48.0107   31.0948   45.6776 H   0  0  0  0  0  0  0  0  0  0  0  0
   47.2977   29.5401   45.4436 H   0  0  0  0  0  0  0  0  0  0  0  0
   48.7200   30.4216   43.3783 H   0  0  0  0  0  0  0  0  0  0  0  0
   47.1157   29.9909   42.8896 H   0  0  0  0  0  0  0  0  0  0  0  0
   48.3701   32.6183   43.4387 H   0  0  0  0  0  0  0  0  0  0  0  0
   48.4184   31.6045   39.8471 H   0  0  0  0  0  0  0  0  0  0  0  0
   50.7169   30.8033   39.6407 H   0  0  0  0  0  0  0  0  0  0  0  0
   53.5316   32.1072   41.5098 H   0  0  0  0  0  0  0  0  0  0  0  0
   52.9656   30.9362   40.2887 H   0  0  0  0  0  0  0  0  0  0  0  0
  1  2  1  0
  1 17  1  0
  3  2  1  0
  4  5  1  0
  4  3  1  0
  5  6  1  0
  6  1  1  0
  8  7  2  0
  9 10  2  0
  9  8  1  0
 10 11  1  0
 11 12  2  0
 12  7  1  0
 13 11  1  0
 13 14  1  0
 14 15  1  0
 16 15  1  0
 17 16  1  0
 17 13  1  0
 18  6  1  0
 18 24  1  0
 19 18  1  0
 20 19  2  0
 20 21  1  0
 21 23  2  0
 22 21  1  0
 23 24  1  0
 24 25  2  0
  2 26  1  0
  2 27  1  0
  3 28  1  0
  3 29  1  0
  5 30  1  0
  5 31  1  0
  6 32  1  1
  7 33  1  0
  8 34  1  0
  9 35  1  0
 14 36  1  0
 14 37  1  0
 15 38  1  0
 15 39  1  0
 16 40  1  0
 16 41  1  0
 17 42  1  1
 19 43  1  0
 20 44  1  0
 22 45  1  0
 22 46  1  0
M  ISO  8  26  13  27  13  28  13  29  13  30  13  31  13  32  13  33  14
M  ISO  8  34  14  35  14  36  13  37  13  38  13  39  13  40  13  41  13
M  ISO  3  42  13  43  14  44  14
M  END
>  <minimizedAffinity>  (1) 
-5.80396652

>  <minimizedRMSD>  (1) 
3.57566619

$$$$
