
     RDKit          3D

 51 55  0  0  1  0  0  0  0  0999 V2000
   46.4380   29.4610   46.7900 N   0  0  0  0  0  0  0  0  0  0  0  0
   46.8860   30.4780   46.0110 C   0  0  0  0  0  0  0  0  0  0  0  0
   46.9870   30.0320   44.5510 C   0  0  0  0  0  0  0  0  0  0  0  0
   47.5440   28.8110   44.3570 O   0  0  0  0  0  0  0  0  0  0  0  0
   47.0300   27.8370   45.1580 C   0  0  0  0  0  0  0  0  0  0  0  0
   46.9530   28.1890   46.6520 C   0  0  2  0  0  0  0  0  0  0  0  0
   50.5110   30.8510   49.4760 C   0  0  0  0  0  0  0  0  0  0  0  0
   51.0790   29.9320   48.5580 C   0  0  0  0  0  0  0  0  0  0  0  0
   50.2130   29.3160   47.6140 C   0  0  0  0  0  0  0  0  0  0  0  0
   48.9370   29.6730   47.6950 N   0  0  0  0  0  0  0  0  0  0  0  0
   48.4100   30.5330   48.5590 C   0  0  0  0  0  0  0  0  0  0  0  0
   49.2150   31.1130   49.4430 N   0  0  0  0  0  0  0  0  0  0  0  0
   47.0330   30.7870   48.5250 N   0  0  0  0  0  0  0  0  0  0  0  0
   46.3870   32.0370   48.8790 C   0  0  0  0  0  0  0  0  0  0  0  0
   45.0650   31.4930   49.3930 C   0  0  0  0  0  0  0  0  0  0  0  0
   44.7230   30.5350   48.2540 C   0  0  0  0  0  0  0  0  0  0  0  0
   46.0170   29.7960   48.1210 C   0  0  1  0  0  0  0  0  0  0  0  0
   45.6740   27.3870   46.9940 C   0  0  0  0  0  0  0  0  0  0  0  0
   45.6590   26.5090   48.0860 C   0  0  0  0  0  0  0  0  0  0  0  0
   44.5730   25.7630   48.4880 C   0  0  0  0  0  0  0  0  0  0  0  0
   43.4250   25.9100   47.7440 C   0  0  0  0  0  0  0  0  0  0  0  0
   43.3640   26.7410   46.6740 C   0  0  0  0  0  0  0  0  0  0  0  0
   42.2190   26.8780   45.9510 C   0  0  0  0  0  0  0  0  0  0  0  0
   42.0970   27.7220   44.8430 C   0  0  0  0  0  0  0  0  0  0  0  0
   43.2570   28.4330   44.5220 C   0  0  0  0  0  0  0  0  0  0  0  0
   44.4160   28.2920   45.2560 C   0  0  0  0  0  0  0  0  0  0  0  0
   44.4920   27.4480   46.3410 C   0  0  0  0  0  0  0  0  0  0  0  0
   46.1868   31.3241   46.0832 H   0  0  0  0  0  0  0  0  0  0  0  0
   47.8846   30.7796   46.3602 H   0  0  0  0  0  0  0  0  0  0  0  0
   45.9709   30.0132   44.1300 H   0  0  0  0  0  0  0  0  0  0  0  0
   47.6543   30.7536   44.0571 H   0  0  0  0  0  0  0  0  0  0  0  0
   46.0115   27.6120   44.8088 H   0  0  0  0  0  0  0  0  0  0  0  0
   47.7203   26.9840   45.0813 H   0  0  0  0  0  0  0  0  0  0  0  0
   47.9018   28.0445   47.1894 H   0  0  0  0  0  0  0  0  0  0  0  0
   51.1512   31.3486   50.2193 H   0  0  0  0  0  0  0  0  0  0  0  0
   52.1548   29.7031   48.5757 H   0  0  0  0  0  0  0  0  0  0  0  0
   50.5752   28.5934   46.8679 H   0  0  0  0  0  0  0  0  0  0  0  0
   46.9402   32.5790   49.6601 H   0  0  0  0  0  0  0  0  0  0  0  0
   46.3081   32.7726   48.0649 H   0  0  0  0  0  0  0  0  0  0  0  0
   45.1836   30.9652   50.3508 H   0  0  0  0  0  0  0  0  0  0  0  0
   44.2998   32.2530   49.6096 H   0  0  0  0  0  0  0  0  0  0  0  0
   43.8966   29.8613   48.5244 H   0  0  0  0  0  0  0  0  0  0  0  0
   44.3780   31.0246   47.3314 H   0  0  0  0  0  0  0  0  0  0  0  0
   45.8997   28.8604   48.6875 H   0  0  0  0  0  0  0  0  0  0  0  0
   46.5871   26.4075   48.6677 H   0  0  0  0  0  0  0  0  0  0  0  0
   44.6209   25.0878   49.3550 H   0  0  0  0  0  0  0  0  0  0  0  0
   42.5297   25.3362   48.0255 H   0  0  0  0  0  0  0  0  0  0  0  0
   41.3397   26.2914   46.2557 H   0  0  0  0  0  0  0  0  0  0  0  0
   41.1631   27.8188   44.2698 H   0  0  0  0  0  0  0  0  0  0  0  0
   43.2451   29.1211   43.6638 H   0  0  0  0  0  0  0  0  0  0  0  0
   45.3055   28.8706   44.9661 H   0  0  0  0  0  0  0  0  0  0  0  0
  1  2  1  0
  1 17  1  0
  3  2  1  0
  4  3  1  0
  4  5  1  0
  5  6  1  0
  6  1  1  0
  6 18  1  0
  8  7  2  0
  9 10  2  0
  9  8  1  0
 10 11  1  0
 11 12  2  0
 12  7  1  0
 13 11  1  0
 13 14  1  0
 14 15  1  0
 16 15  1  0
 17 16  1  0
 17 13  1  0
 18 19  2  0
 19 20  1  0
 21 20  2  0
 22 21  1  0
 23 22  2  0
 24 23  1  0
 25 24  2  0
 25 26  1  0
 26 27  2  0
 27 22  1  0
 27 18  1  0
  2 28  1  0
  2 29  1  0
  3 30  1  0
  3 31  1  0
  5 32  1  0
  5 33  1  0
  6 34  1  1
  7 35  1  0
  8 36  1  0
  9 37  1  0
 14 38  1  0
 14 39  1  0
 15 40  1  0
 15 41  1  0
 16 42  1  0
 16 43  1  0
 17 44  1  1
 19 45  1  0
 20 46  1  0
 21 47  1  0
 23 48  1  0
 24 49  1  0
 25 50  1  0
 26 51  1  0
M  ISO  8  28  13  29  13  30  13  31  13  32  13  33  13  34  13  35  14
M  ISO  8  36  14  37  14  38  13  39  13  40  13  41  13  42  13  43  13
M  ISO  8  44  13  45  14  46  14  47  14  48  14  49  14  50  14  51  14
M  END
>  <minimizedAffinity>  (1) 
-5.46415377

>  <minimizedRMSD>  (1) 
6.71201086

$$$$
