
     RDKit          3D

 40 43  0  0  1  0  0  0  0  0999 V2000
   44.5970   35.4140   45.5610 C   0  0  0  0  0  0  0  0  0  0  0  0
   44.6410   36.2710   44.4320 C   0  0  0  0  0  0  0  0  0  0  0  0
   45.3270   35.8090   43.2740 C   0  0  0  0  0  0  0  0  0  0  0  0
   45.8670   34.5920   43.3770 N   0  0  0  0  0  0  0  0  0  0  0  0
   45.8170   33.8000   44.4430 C   0  0  0  0  0  0  0  0  0  0  0  0
   45.1780   34.2240   45.5270 N   0  0  0  0  0  0  0  0  0  0  0  0
   46.4460   32.5450   44.3880 N   0  0  0  0  0  0  0  0  0  0  0  0
   46.0430   31.3480   45.1080 C   0  0  0  0  0  0  0  0  0  0  0  0
   47.4130   30.7090   45.2870 C   0  0  0  0  0  0  0  0  0  0  0  0
   47.9150   30.8070   43.8480 C   0  0  0  0  0  0  0  0  0  0  0  0
   47.6400   32.2470   43.5750 C   0  0  1  0  0  0  0  0  0  0  0  0
   47.2040   32.6070   42.2470 N   0  0  0  0  0  0  0  0  0  0  0  0
   45.9320   32.2290   41.9220 C   0  0  0  0  0  0  0  0  0  0  0  0
   45.7480   32.3000   40.4020 C   0  0  0  0  0  0  0  0  0  0  0  0
   46.2290   33.4560   39.8330 O   0  0  0  0  0  0  0  0  0  0  0  0
   47.5250   33.6960   40.1950 C   0  0  0  0  0  0  0  0  0  0  0  0
   47.7640   33.7180   41.7130 C   0  0  2  0  0  0  0  0  0  0  0  0
   49.2590   33.2920   41.7310 C   0  0  0  0  0  0  0  0  0  0  0  0
   50.1990   33.9770   42.4070 N   0  0  0  0  0  0  0  0  0  0  0  0
   51.3650   33.3860   42.2440 O   0  0  0  0  0  0  0  0  0  0  0  0
   51.2210   32.3380   41.4840 C   0  0  0  0  0  0  0  0  0  0  0  0
   49.9270   32.2570   41.1520 N   0  0  0  0  0  0  0  0  0  0  0  0
   44.0758   35.7403   46.4731 H   0  0  0  0  0  0  0  0  0  0  0  0
   44.1606   37.2604   44.4508 H   0  0  0  0  0  0  0  0  0  0  0  0
   45.4069   36.4124   42.3577 H   0  0  0  0  0  0  0  0  0  0  0  0
   45.5691   31.5857   46.0718 H   0  0  0  0  0  0  0  0  0  0  0  0
   45.2903   30.7230   44.6052 H   0  0  0  0  0  0  0  0  0  0  0  0
   48.0455   31.2786   45.9837 H   0  0  0  0  0  0  0  0  0  0  0  0
   47.4092   29.6969   45.7178 H   0  0  0  0  0  0  0  0  0  0  0  0
   48.9876   30.5750   43.7732 H   0  0  0  0  0  0  0  0  0  0  0  0
   47.4448   30.1042   43.1445 H   0  0  0  0  0  0  0  0  0  0  0  0
   48.5875   32.7725   43.7649 H   0  0  0  0  0  0  0  0  0  0  0  0
   45.7575   31.1983   42.2643 H   0  0  0  0  0  0  0  0  0  0  0  0
   45.2139   32.9049   42.4093 H   0  0  0  0  0  0  0  0  0  0  0  0
   46.2748   31.4468   39.9497 H   0  0  0  0  0  0  0  0  0  0  0  0
   44.6648   32.2787   40.2116 H   0  0  0  0  0  0  0  0  0  0  0  0
   48.1562   32.9081   39.7583 H   0  0  0  0  0  0  0  0  0  0  0  0
   47.7754   34.7001   39.8221 H   0  0  0  0  0  0  0  0  0  0  0  0
   47.4350   34.6475   42.2006 H   0  0  0  0  0  0  0  0  0  0  0  0
   52.0173   31.6461   41.1721 H   0  0  0  0  0  0  0  0  0  0  0  0
  2  1  2  0
  3  4  2  0
  3  2  1  0
  4  5  1  0
  5  6  2  0
  6  1  1  0
  7  5  1  0
  7  8  1  0
  8  9  1  0
 10  9  1  0
 11 10  1  0
 11  7  1  0
 12 13  1  0
 12 11  1  0
 14 13  1  0
 15 16  1  0
 15 14  1  0
 16 17  1  0
 17 18  1  0
 17 12  1  0
 18 19  2  0
 20 19  1  0
 21 20  1  0
 22 21  2  0
 22 18  1  0
  1 23  1  0
  2 24  1  0
  3 25  1  0
  8 26  1  0
  8 27  1  0
  9 28  1  0
  9 29  1  0
 10 30  1  0
 10 31  1  0
 11 32  1  1
 13 33  1  0
 13 34  1  0
 14 35  1  0
 14 36  1  0
 16 37  1  0
 16 38  1  0
 17 39  1  1
 21 40  1  0
M  ISO  8  23  14  24  14  25  14  26  13  27  13  28  13  29  13  30  13
M  ISO  8  31  13  32  13  33  13  34  13  35  13  36  13  37  13  38  13
M  ISO  2  39  13  40  14
M  END
>  <minimizedAffinity>  (1) 
-5.19307232

>  <minimizedRMSD>  (1) 
3.18763971

$$$$
