
     RDKit          3D

 48 51  0  0  1  0  0  0  0  0999 V2000
   44.3970   36.0100   44.7710 C   0  0  0  0  0  0  0  0  0  0  0  0
   44.4510   35.9400   43.3570 C   0  0  0  0  0  0  0  0  0  0  0  0
   45.0850   34.8130   42.7680 C   0  0  0  0  0  0  0  0  0  0  0  0
   45.5740   33.9170   43.6310 N   0  0  0  0  0  0  0  0  0  0  0  0
   45.5200   33.9890   44.9550 C   0  0  0  0  0  0  0  0  0  0  0  0
   44.9280   35.0400   45.5160 N   0  0  0  0  0  0  0  0  0  0  0  0
   46.0940   32.9690   45.7040 N   0  0  0  0  0  0  0  0  0  0  0  0
   45.6520   32.5200   47.0210 C   0  0  0  0  0  0  0  0  0  0  0  0
   46.9890   32.0760   47.5940 C   0  0  0  0  0  0  0  0  0  0  0  0
   47.4730   31.2120   46.4250 C   0  0  0  0  0  0  0  0  0  0  0  0
   47.2610   32.1650   45.2950 C   0  0  1  0  0  0  0  0  0  0  0  0
   46.8640   31.6260   44.0410 N   0  0  0  0  0  0  0  0  0  0  0  0
   45.6620   30.9150   44.0840 C   0  0  0  0  0  0  0  0  0  0  0  0
   45.4760   30.1000   42.8120 C   0  0  0  0  0  0  0  0  0  0  0  0
   45.7760   30.7300   41.6540 O   0  0  0  0  0  0  0  0  0  0  0  0
   47.0020   31.3750   41.6860 C   0  0  0  0  0  0  0  0  0  0  0  0
   47.2080   32.2620   42.9050 C   0  0  2  0  0  0  0  0  0  0  0  0
   48.7880   32.2560   42.9810 C   0  0  0  0  0  0  0  0  0  0  0  0
   49.4380   31.3580   42.0300 C   0  0  0  0  0  0  0  0  0  0  0  0
   50.5520   32.1710   41.3480 C   0  0  0  0  0  0  0  0  0  0  0  0
   50.7730   33.3010   42.3730 C   0  0  0  0  0  0  0  0  0  0  0  0
   49.3020   33.6370   42.5860 C   0  0  0  0  0  0  0  0  0  0  0  0
   43.9139   36.8702   45.2574 H   0  0  0  0  0  0  0  0  0  0  0  0
   44.0150   36.7346   42.7336 H   0  0  0  0  0  0  0  0  0  0  0  0
   45.1676   34.6868   41.6784 H   0  0  0  0  0  0  0  0  0  0  0  0
   45.2060   33.3382   47.6055 H   0  0  0  0  0  0  0  0  0  0  0  0
   44.8656   31.7508   47.0148 H   0  0  0  0  0  0  0  0  0  0  0  0
   47.6598   32.9269   47.7839 H   0  0  0  0  0  0  0  0  0  0  0  0
   46.9420   31.5701   48.5696 H   0  0  0  0  0  0  0  0  0  0  0  0
   48.5322   30.9353   46.5327 H   0  0  0  0  0  0  0  0  0  0  0  0
   46.9593   30.2451   46.3190 H   0  0  0  0  0  0  0  0  0  0  0  0
   48.2312   32.6585   45.1364 H   0  0  0  0  0  0  0  0  0  0  0  0
   45.6741   30.2364   44.9496 H   0  0  0  0  0  0  0  0  0  0  0  0
   44.8303   31.6294   44.1723 H   0  0  0  0  0  0  0  0  0  0  0  0
   46.1174   29.2095   42.8863 H   0  0  0  0  0  0  0  0  0  0  0  0
   44.4001   29.8774   42.7578 H   0  0  0  0  0  0  0  0  0  0  0  0
   47.7939   30.6116   41.6770 H   0  0  0  0  0  0  0  0  0  0  0  0
   47.0357   32.0341   40.8059 H   0  0  0  0  0  0  0  0  0  0  0  0
   46.6618   33.2134   42.8237 H   0  0  0  0  0  0  0  0  0  0  0  0
   49.0207   31.9404   44.0087 H   0  0  0  0  0  0  0  0  0  0  0  0
   49.8676   30.4934   42.5572 H   0  0  0  0  0  0  0  0  0  0  0  0
   48.7185   30.9741   41.2917 H   0  0  0  0  0  0  0  0  0  0  0  0
   51.4624   31.5693   41.2096 H   0  0  0  0  0  0  0  0  0  0  0  0
   50.2980   32.5232   40.3374 H   0  0  0  0  0  0  0  0  0  0  0  0
   51.2627   32.9473   43.2923 H   0  0  0  0  0  0  0  0  0  0  0  0
   51.4305   34.1275   42.0653 H   0  0  0  0  0  0  0  0  0  0  0  0
   49.1609   34.3738   43.3905 H   0  0  0  0  0  0  0  0  0  0  0  0
   48.7959   34.0984   41.7252 H   0  0  0  0  0  0  0  0  0  0  0  0
  1  6  2  0
  2  1  1  0
  3  2  2  0
  3  4  1  0
  4  5  2  0
  5  6  1  0
  5  7  1  0
  7  8  1  0
  8  9  1  0
 10  9  1  0
 11  7  1  0
 11 10  1  0
 12 13  1  0
 12 11  1  0
 14 13  1  0
 15 16  1  0
 15 14  1  0
 16 17  1  0
 17 18  1  0
 17 12  1  0
 19 18  1  0
 20 19  1  0
 20 21  1  0
 21 22  1  0
 22 18  1  0
  1 23  1  0
  2 24  1  0
  3 25  1  0
  8 26  1  0
  8 27  1  0
  9 28  1  0
  9 29  1  0
 10 30  1  0
 10 31  1  0
 11 32  1  6
 13 33  1  0
 13 34  1  0
 14 35  1  0
 14 36  1  0
 16 37  1  0
 16 38  1  0
 17 39  1  6
 18 40  1  0
 19 41  1  0
 19 42  1  0
 20 43  1  0
 20 44  1  0
 21 45  1  0
 21 46  1  0
 22 47  1  0
 22 48  1  0
M  ISO  8  23  14  24  14  25  14  26  13  27  13  28  13  29  13  30  13
M  ISO  8  31  13  32  13  33  13  34  13  35  13  36  13  37  13  38  13
M  ISO  8  39  13  40  13  41  13  42  13  43  13  44  13  45  13  46  13
M  ISO  2  47  13  48  13
M  END
>  <minimizedAffinity>  (1) 
-5.11477804

>  <minimizedRMSD>  (1) 
1.82757878

$$$$
