
     RDKit          3D

 41 44  0  0  1  0  0  0  0  0999 V2000
   44.6000   35.4070   45.5810 C   0  0  0  0  0  0  0  0  0  0  0  0
   44.6240   36.1660   44.3820 C   0  0  0  0  0  0  0  0  0  0  0  0
   45.2870   35.6140   43.2540 C   0  0  0  0  0  0  0  0  0  0  0  0
   45.8320   34.4100   43.4410 N   0  0  0  0  0  0  0  0  0  0  0  0
   45.8050   33.7050   44.5660 C   0  0  0  0  0  0  0  0  0  0  0  0
   45.1840   34.2230   45.6220 N   0  0  0  0  0  0  0  0  0  0  0  0
   46.4300   32.4600   44.5970 N   0  0  0  0  0  0  0  0  0  0  0  0
   46.0330   31.3280   45.4200 C   0  0  0  0  0  0  0  0  0  0  0  0
   47.3650   30.6700   45.6290 C   0  0  0  0  0  0  0  0  0  0  0  0
   47.8780   30.6640   44.1760 C   0  0  0  0  0  0  0  0  0  0  0  0
   47.6090   32.0760   43.7940 C   0  0  1  0  0  0  0  0  0  0  0  0
   47.1670   32.3440   42.4610 N   0  0  0  0  0  0  0  0  0  0  0  0
   45.8770   31.9120   42.1620 C   0  0  0  0  0  0  0  0  0  0  0  0
   45.6390   31.9070   40.6660 C   0  0  0  0  0  0  0  0  0  0  0  0
   46.1120   33.0050   39.9970 O   0  0  0  0  0  0  0  0  0  0  0  0
   47.3930   33.3120   40.3180 C   0  0  0  0  0  0  0  0  0  0  0  0
   47.6870   33.4110   41.8240 C   0  0  2  0  0  0  0  0  0  0  0  0
   49.1620   33.0700   41.7650 N   0  0  0  0  0  0  0  0  0  0  0  0
   50.1200   33.8090   42.4210 C   0  0  0  0  0  0  0  0  0  0  0  0
   51.3570   33.2720   42.1850 N   0  0  0  0  0  0  0  0  0  0  0  0
   51.1560   32.2080   41.3870 C   0  0  0  0  0  0  0  0  0  0  0  0
   49.8400   32.1220   41.1600 N   0  0  0  0  0  0  0  0  0  0  0  0
   44.0960   35.8040   46.4745 H   0  0  0  0  0  0  0  0  0  0  0  0
   44.1428   37.1537   44.3280 H   0  0  0  0  0  0  0  0  0  0  0  0
   45.3473   36.1428   42.2913 H   0  0  0  0  0  0  0  0  0  0  0  0
   45.5857   31.6529   46.3709 H   0  0  0  0  0  0  0  0  0  0  0  0
   45.2641   30.6805   44.9733 H   0  0  0  0  0  0  0  0  0  0  0  0
   48.0150   31.2610   46.2910 H   0  0  0  0  0  0  0  0  0  0  0  0
   47.3285   29.6844   46.1162 H   0  0  0  0  0  0  0  0  0  0  0  0
   48.9506   30.4255   44.1240 H   0  0  0  0  0  0  0  0  0  0  0  0
   47.4075   29.9129   43.5245 H   0  0  0  0  0  0  0  0  0  0  0  0
   48.5686   32.5960   43.9307 H   0  0  0  0  0  0  0  0  0  0  0  0
   45.7398   30.8924   42.5514 H   0  0  0  0  0  0  0  0  0  0  0  0
   45.1592   32.6027   42.6286 H   0  0  0  0  0  0  0  0  0  0  0  0
   46.1285   31.0157   40.2464 H   0  0  0  0  0  0  0  0  0  0  0  0
   44.5474   31.9133   40.5303 H   0  0  0  0  0  0  0  0  0  0  0  0
   48.0453   32.5339   39.8948 H   0  0  0  0  0  0  0  0  0  0  0  0
   47.5782   34.3146   39.9052 H   0  0  0  0  0  0  0  0  0  0  0  0
   47.3449   34.3444   42.2948 H   0  0  0  0  0  0  0  0  0  0  0  0
   49.9219   34.6961   43.0406 H   0  0  0  0  0  0  0  0  0  0  0  0
   51.9305   31.5331   40.9936 H   0  0  0  0  0  0  0  0  0  0  0  0
  1  6  2  0
  2  1  1  0
  3  4  1  0
  3  2  2  0
  4  5  2  0
  5  7  1  0
  5  6  1  0
  7  8  1  0
  8  9  1  0
 10  9  1  0
 11 10  1  0
 11  7  1  0
 12 13  1  0
 12 11  1  0
 14 13  1  0
 15 16  1  0
 15 14  1  0
 16 17  1  0
 17 12  1  0
 18 17  1  0
 18 19  1  0
 20 19  2  0
 21 20  1  0
 22 21  2  0
 22 18  1  0
  1 23  1  0
  2 24  1  0
  3 25  1  0
  8 26  1  0
  8 27  1  0
  9 28  1  0
  9 29  1  0
 10 30  1  0
 10 31  1  0
 11 32  1  1
 13 33  1  0
 13 34  1  0
 14 35  1  0
 14 36  1  0
 16 37  1  0
 16 38  1  0
 17 39  1  1
 19 40  1  0
 21 41  1  0
M  ISO  8  23  14  24  14  25  14  26  13  27  13  28  13  29  13  30  13
M  ISO  8  31  13  32  13  33  13  34  13  35  13  36  13  37  13  38  13
M  ISO  3  39  13  40  14  41  14
M  END
>  <minimizedAffinity>  (1) 
-4.9841795

>  <minimizedRMSD>  (1) 
2.91564846

$$$$
