
     RDKit          3D

 48 51  0  0  1  0  0  0  0  0999 V2000
   45.8380   30.2310   46.1090 N   0  0  0  0  0  0  0  0  0  0  0  0
   46.2880   31.4600   45.6670 C   0  0  0  0  0  0  0  0  0  0  0  0
   46.0960   31.5790   44.1530 C   0  0  0  0  0  0  0  0  0  0  0  0
   46.4450   30.4810   43.4400 O   0  0  0  0  0  0  0  0  0  0  0  0
   45.9800   29.3020   43.9360 C   0  0  0  0  0  0  0  0  0  0  0  0
   46.1620   29.1030   45.4410 C   0  0  2  0  0  0  0  0  0  0  0  0
   50.4220   29.6580   48.2200 C   0  0  0  0  0  0  0  0  0  0  0  0
   50.6220   29.0770   46.9440 C   0  0  0  0  0  0  0  0  0  0  0  0
   49.5180   29.0490   46.0330 C   0  0  0  0  0  0  0  0  0  0  0  0
   48.3960   29.5880   46.5000 N   0  0  0  0  0  0  0  0  0  0  0  0
   48.2200   30.1320   47.7020 C   0  0  0  0  0  0  0  0  0  0  0  0
   49.2440   30.1580   48.5490 N   0  0  0  0  0  0  0  0  0  0  0  0
   46.9540   30.6440   48.0480 N   0  0  0  0  0  0  0  0  0  0  0  0
   46.6970   31.7440   48.9520 C   0  0  0  0  0  0  0  0  0  0  0  0
   45.3480   31.3000   49.4980 C   0  0  0  0  0  0  0  0  0  0  0  0
   44.6430   30.9570   48.1840 C   0  0  0  0  0  0  0  0  0  0  0  0
   45.6810   30.1110   47.5270 C   0  0  1  0  0  0  0  0  0  0  0  0
   44.9230   28.2950   45.7490 N   0  0  0  0  0  0  0  0  0  0  0  0
   43.6680   28.5840   45.3670 C   0  0  0  0  0  0  0  0  0  0  0  0
   42.5580   27.8570   45.6440 C   0  0  0  0  0  0  0  0  0  0  0  0
   41.2500   28.3270   45.1390 C   0  0  0  0  0  0  0  0  0  0  0  0
   42.7280   26.7260   46.3760 C   0  0  0  0  0  0  0  0  0  0  0  0
   41.7310   26.0130   46.6620 O   0  0  0  0  0  0  0  0  0  0  0  0
   43.9660   26.3940   46.7820 N   0  0  0  0  0  0  0  0  0  0  0  0
   45.0190   27.1660   46.4700 C   0  0  0  0  0  0  0  0  0  0  0  0
   46.0940   26.7110   46.9250 O   0  0  0  0  0  0  0  0  0  0  0  0
   45.7202   32.2571   46.1692 H   0  0  0  0  0  0  0  0  0  0  0  0
   47.3582   31.5566   45.9021 H   0  0  0  0  0  0  0  0  0  0  0  0
   45.0332   31.7867   43.9599 H   0  0  0  0  0  0  0  0  0  0  0  0
   46.7679   32.3846   43.8221 H   0  0  0  0  0  0  0  0  0  0  0  0
   44.9043   29.2417   43.7139 H   0  0  0  0  0  0  0  0  0  0  0  0
   46.5776   28.5148   43.4531 H   0  0  0  0  0  0  0  0  0  0  0  0
   47.1694   28.7350   45.6852 H   0  0  0  0  0  0  0  0  0  0  0  0
   51.2519   29.6932   48.9411 H   0  0  0  0  0  0  0  0  0  0  0  0
   51.5991   28.6586   46.6606 H   0  0  0  0  0  0  0  0  0  0  0  0
   49.5923   28.6152   45.0249 H   0  0  0  0  0  0  0  0  0  0  0  0
   47.4585   31.8134   49.7428 H   0  0  0  0  0  0  0  0  0  0  0  0
   46.7139   32.7440   48.4940 H   0  0  0  0  0  0  0  0  0  0  0  0
   45.4401   30.4227   50.1552 H   0  0  0  0  0  0  0  0  0  0  0  0
   44.8313   32.0400   50.1268 H   0  0  0  0  0  0  0  0  0  0  0  0
   43.7128   30.3960   48.3573 H   0  0  0  0  0  0  0  0  0  0  0  0
   44.3248   31.8297   47.5948 H   0  0  0  0  0  0  0  0  0  0  0  0
   45.3959   29.0681   47.7297 H   0  0  0  0  0  0  0  0  0  0  0  0
   43.5276   29.4986   44.7722 H   0  0  0  0  0  0  0  0  0  0  0  0
   40.5924   28.5633   45.9885 H   0  0  0  0  0  0  0  0  0  0  0  0
   41.3960   29.2289   44.5264 H   0  0  0  0  0  0  0  0  0  0  0  0
   40.7886   27.5384   44.5264 H   0  0  0  0  0  0  0  0  0  0  0  0
   44.1079   25.5387   47.3380 H   0  0  0  0  0  0  0  0  0  0  0  0
  1  2  1  0
  1 17  1  0
  3  2  1  0
  4  5  1  0
  4  3  1  0
  5  6  1  0
  6 18  1  0
  6  1  1  0
  7 12  2  0
  8  7  1  0
  9 10  1  0
  9  8  2  0
 10 11  2  0
 11 13  1  0
 11 12  1  0
 13 14  1  0
 14 15  1  0
 16 15  1  0
 17 13  1  0
 17 16  1  0
 18 25  1  0
 19 20  2  0
 19 18  1  0
 20 22  1  0
 21 20  1  0
 22 23  2  0
 22 24  1  0
 25 24  1  0
 25 26  2  0
  2 27  1  0
  2 28  1  0
  3 29  1  0
  3 30  1  0
  5 31  1  0
  5 32  1  0
  6 33  1  6
  7 34  1  0
  8 35  1  0
  9 36  1  0
 14 37  1  0
 14 38  1  0
 15 39  1  0
 15 40  1  0
 16 41  1  0
 16 42  1  0
 17 43  1  6
 19 44  1  0
 21 45  1  0
 21 46  1  0
 21 47  1  0
 24 48  1  0
M  ISO  8  27  13  28  13  29  13  30  13  31  13  32  13  33  13  34  14
M  ISO  8  35  14  36  14  37  13  38  13  39  13  40  13  41  13  42  13
M  ISO  6  43  13  44  14  45   8  46   8  47   8  48   9
M  END
>  <minimizedAffinity>  (1) 
-4.85144997

>  <minimizedRMSD>  (1) 
6.37489986

$$$$
