
     RDKit          3D

 44 46  0  0  1  0  0  0  0  0999 V2000
   44.5540   35.5320   45.3380 C   0  0  0  0  0  0  0  0  0  0  0  0
   44.7580   36.2320   44.1200 C   0  0  0  0  0  0  0  0  0  0  0  0
   45.5560   35.6160   43.1200 C   0  0  0  0  0  0  0  0  0  0  0  0
   46.0460   34.4160   43.4280 N   0  0  0  0  0  0  0  0  0  0  0  0
   45.8480   33.7690   44.5760 C   0  0  0  0  0  0  0  0  0  0  0  0
   45.1020   34.3320   45.5240 N   0  0  0  0  0  0  0  0  0  0  0  0
   46.4370   32.5150   44.7550 N   0  0  0  0  0  0  0  0  0  0  0  0
   45.9200   31.4170   45.5630 C   0  0  0  0  0  0  0  0  0  0  0  0
   47.2330   30.7790   45.9880 C   0  0  0  0  0  0  0  0  0  0  0  0
   47.9320   30.7030   44.6260 C   0  0  0  0  0  0  0  0  0  0  0  0
   47.7140   32.0940   44.1440 C   0  0  1  0  0  0  0  0  0  0  0  0
   47.4860   32.2850   42.7560 N   0  0  0  0  0  0  0  0  0  0  0  0
   46.2930   31.7440   42.2770 C   0  0  0  0  0  0  0  0  0  0  0  0
   46.2760   31.7220   40.7610 C   0  0  0  0  0  0  0  0  0  0  0  0
   46.7560   32.8260   40.1350 O   0  0  0  0  0  0  0  0  0  0  0  0
   47.9560   33.2570   40.6390 C   0  0  0  0  0  0  0  0  0  0  0  0
   47.9910   33.3900   42.1600 C   0  0  2  0  0  0  0  0  0  0  0  0
   49.5320   33.1090   42.3810 C   0  0  0  0  0  0  0  0  0  0  0  0
   50.0970   32.4000   41.1800 C   0  0  0  0  0  0  0  0  0  0  0  0
   50.1570   34.5160   42.4560 C   0  0  0  0  0  0  0  0  0  0  0  0
   43.9405   35.9826   46.1321 H   0  0  0  0  0  0  0  0  0  0  0  0
   44.3106   37.2234   43.9555 H   0  0  0  0  0  0  0  0  0  0  0  0
   45.7569   36.0990   42.1523 H   0  0  0  0  0  0  0  0  0  0  0  0
   45.3415   31.7792   46.4256 H   0  0  0  0  0  0  0  0  0  0  0  0
   45.2184   30.7454   45.0466 H   0  0  0  0  0  0  0  0  0  0  0  0
   47.7857   31.4120   46.6978 H   0  0  0  0  0  0  0  0  0  0  0  0
   47.1368   29.8201   46.5183 H   0  0  0  0  0  0  0  0  0  0  0  0
   49.0021   30.4699   44.7290 H   0  0  0  0  0  0  0  0  0  0  0  0
   47.5550   29.9166   43.9556 H   0  0  0  0  0  0  0  0  0  0  0  0
   48.6377   32.6354   44.3965 H   0  0  0  0  0  0  0  0  0  0  0  0
   46.1880   30.7155   42.6528 H   0  0  0  0  0  0  0  0  0  0  0  0
   45.4590   32.3696   42.6276 H   0  0  0  0  0  0  0  0  0  0  0  0
   46.8787   30.8625   40.4323 H   0  0  0  0  0  0  0  0  0  0  0  0
   45.2133   31.6675   40.4821 H   0  0  0  0  0  0  0  0  0  0  0  0
   48.7331   32.5387   40.3386 H   0  0  0  0  0  0  0  0  0  0  0  0
   48.1231   34.2652   40.2321 H   0  0  0  0  0  0  0  0  0  0  0  0
   47.4999   34.3087   42.5133 H   0  0  0  0  0  0  0  0  0  0  0  0
   49.7251   32.4901   43.2696 H   0  0  0  0  0  0  0  0  0  0  0  0
   50.7505   31.5799   41.5122 H   0  0  0  0  0  0  0  0  0  0  0  0
   49.2744   31.9912   40.5749 H   0  0  0  0  0  0  0  0  0  0  0  0
   50.6791   33.1106   40.5749 H   0  0  0  0  0  0  0  0  0  0  0  0
   50.2852   34.8046   43.5097 H   0  0  0  0  0  0  0  0  0  0  0  0
   51.1367   34.5091   41.9559 H   0  0  0  0  0  0  0  0  0  0  0  0
   49.4951   35.2384   41.9559 H   0  0  0  0  0  0  0  0  0  0  0  0
  1  6  2  0
  2  1  1  0
  3  4  1  0
  3  2  2  0
  4  5  2  0
  5  7  1  0
  5  6  1  0
  7  8  1  0
  8  9  1  0
 10  9  1  0
 11 10  1  0
 11  7  1  0
 12 13  1  0
 12 11  1  0
 14 13  1  0
 15 16  1  0
 15 14  1  0
 16 17  1  0
 17 18  1  0
 17 12  1  0
 18 20  1  0
 19 18  1  0
  1 21  1  0
  2 22  1  0
  3 23  1  0
  8 24  1  0
  8 25  1  0
  9 26  1  0
  9 27  1  0
 10 28  1  0
 10 29  1  0
 11 30  1  1
 13 31  1  0
 13 32  1  0
 14 33  1  0
 14 34  1  0
 16 35  1  0
 16 36  1  0
 17 37  1  6
 18 38  1  0
 19 39  1  0
 19 40  1  0
 19 41  1  0
 20 42  1  0
 20 43  1  0
 20 44  1  0
M  ISO  8  21  14  22  14  23  14  24  13  25  13  26  13  27  13  28  13
M  ISO  8  29  13  30  13  31  13  32  13  33  13  34  13  35  13  36  13
M  ISO  8  37  13  38   8  39   8  40   8  41   8  42   8  43   8  44   8
M  END
>  <minimizedAffinity>  (1) 
-4.84667492

>  <minimizedRMSD>  (1) 
2.57505512

$$$$
