
     RDKit          3D

 41 44  0  0  1  0  0  0  0  0999 V2000
   44.5890   35.3780   45.6850 C   0  0  0  0  0  0  0  0  0  0  0  0
   44.5060   36.0510   44.4400 C   0  0  0  0  0  0  0  0  0  0  0  0
   45.0820   35.4270   43.2950 C   0  0  0  0  0  0  0  0  0  0  0  0
   45.6540   34.2400   43.5380 N   0  0  0  0  0  0  0  0  0  0  0  0
   45.7290   33.6160   44.7050 C   0  0  0  0  0  0  0  0  0  0  0  0
   45.1910   34.1990   45.7700 N   0  0  0  0  0  0  0  0  0  0  0  0
   46.3750   32.3730   44.7760 N   0  0  0  0  0  0  0  0  0  0  0  0
   46.0660   31.2970   45.6990 C   0  0  0  0  0  0  0  0  0  0  0  0
   47.4510   30.6920   45.8340 C   0  0  0  0  0  0  0  0  0  0  0  0
   47.8360   30.5920   44.3530 C   0  0  0  0  0  0  0  0  0  0  0  0
   47.4950   31.9690   43.9030 C   0  0  1  0  0  0  0  0  0  0  0  0
   46.9270   32.1260   42.5840 N   0  0  0  0  0  0  0  0  0  0  0  0
   45.6750   31.6120   42.4140 C   0  0  0  0  0  0  0  0  0  0  0  0
   45.3700   31.4760   40.9200 C   0  0  0  0  0  0  0  0  0  0  0  0
   45.7230   32.5780   40.1730 O   0  0  0  0  0  0  0  0  0  0  0  0
   47.0170   32.9350   40.4010 C   0  0  0  0  0  0  0  0  0  0  0  0
   47.3470   33.2070   41.8810 C   0  0  2  0  0  0  0  0  0  0  0  0
   48.8900   33.0050   41.8720 C   0  0  0  0  0  0  0  0  0  0  0  0
   49.2790   31.8460   40.9330 C   0  0  0  0  0  0  0  0  0  0  0  0
   51.0990   31.8500   41.1090 S   0  0  0  0  0  0  0  0  0  0  0  0
   51.0950   33.2850   42.3160 C   0  0  0  0  0  0  0  0  0  0  0  0
   49.7150   33.7680   42.5920 N   0  0  0  0  0  0  0  0  0  0  0  0
   44.1521   35.8357   46.5848 H   0  0  0  0  0  0  0  0  0  0  0  0
   44.0099   37.0295   44.3596 H   0  0  0  0  0  0  0  0  0  0  0  0
   45.0588   35.8826   42.2941 H   0  0  0  0  0  0  0  0  0  0  0  0
   45.6858   31.6746   46.6597 H   0  0  0  0  0  0  0  0  0  0  0  0
   45.2780   30.6039   45.3695 H   0  0  0  0  0  0  0  0  0  0  0  0
   48.1332   31.3514   46.3906 H   0  0  0  0  0  0  0  0  0  0  0  0
   47.4932   29.7445   46.3913 H   0  0  0  0  0  0  0  0  0  0  0  0
   48.9063   30.3736   44.2234 H   0  0  0  0  0  0  0  0  0  0  0  0
   47.3343   29.7858   43.7976 H   0  0  0  0  0  0  0  0  0  0  0  0
   48.4429   32.5268   43.9229 H   0  0  0  0  0  0  0  0  0  0  0  0
   45.6187   30.6219   42.8900 H   0  0  0  0  0  0  0  0  0  0  0  0
   44.9391   32.2869   42.8755 H   0  0  0  0  0  0  0  0  0  0  0  0
   45.9195   30.6053   40.5328 H   0  0  0  0  0  0  0  0  0  0  0  0
   44.2796   31.3648   40.8269 H   0  0  0  0  0  0  0  0  0  0  0  0
   47.6667   32.1210   40.0469 H   0  0  0  0  0  0  0  0  0  0  0  0
   47.1835   33.8793   39.8619 H   0  0  0  0  0  0  0  0  0  0  0  0
   46.9450   34.1557   42.2662 H   0  0  0  0  0  0  0  0  0  0  0  0
   48.6365   31.1940   40.3230 H   0  0  0  0  0  0  0  0  0  0  0  0
   52.0017   33.7168   42.7649 H   0  0  0  0  0  0  0  0  0  0  0  0
  1  6  2  0
  2  1  1  0
  3  4  1  0
  3  2  2  0
  4  5  2  0
  5  7  1  0
  5  6  1  0
  7  8  1  0
  8  9  1  0
 10  9  1  0
 11 10  1  0
 11  7  1  0
 12 13  1  0
 12 11  1  0
 14 13  1  0
 15 16  1  0
 15 14  1  0
 16 17  1  0
 17 12  1  0
 18 17  1  0
 18 22  1  0
 19 20  1  0
 19 18  2  0
 20 21  1  0
 21 22  2  0
  1 23  1  0
  2 24  1  0
  3 25  1  0
  8 26  1  0
  8 27  1  0
  9 28  1  0
  9 29  1  0
 10 30  1  0
 10 31  1  0
 11 32  1  6
 13 33  1  0
 13 34  1  0
 14 35  1  0
 14 36  1  0
 16 37  1  0
 16 38  1  0
 17 39  1  1
 19 40  1  0
 21 41  1  0
M  ISO  8  23  14  24  14  25  14  26  13  27  13  28  13  29  13  30  13
M  ISO  8  31  13  32  13  33  13  34  13  35  13  36  13  37  13  38  13
M  ISO  3  39  13  40  14  41  14
M  END
>  <minimizedAffinity>  (1) 
-4.8280921

>  <minimizedRMSD>  (1) 
2.93304372

$$$$
