
     RDKit          3D

 49 53  0  0  1  0  0  0  0  0999 V2000
   46.6360   29.3690   45.9160 N   0  0  0  0  0  0  0  0  0  0  0  0
   47.6590   29.7530   46.7270 C   0  0  0  0  0  0  0  0  0  0  0  0
   47.1660   30.0590   48.1340 C   0  0  0  0  0  0  0  0  0  0  0  0
   46.0180   30.7810   48.2050 O   0  0  0  0  0  0  0  0  0  0  0  0
   45.0330   30.2940   47.3800 C   0  0  0  0  0  0  0  0  0  0  0  0
   45.4350   30.0900   45.9250 C   0  0  2  0  0  0  0  0  0  0  0  0
   48.3500   33.0940   42.9020 C   0  0  0  0  0  0  0  0  0  0  0  0
   47.4260   33.7940   43.7140 C   0  0  0  0  0  0  0  0  0  0  0  0
   46.7250   33.0550   44.6960 C   0  0  0  0  0  0  0  0  0  0  0  0
   47.0090   31.7540   44.7570 N   0  0  0  0  0  0  0  0  0  0  0  0
   47.8770   31.1050   43.9900 C   0  0  0  0  0  0  0  0  0  0  0  0
   48.5380   31.7960   43.0680 N   0  0  0  0  0  0  0  0  0  0  0  0
   48.0480   29.7350   44.1780 N   0  0  0  0  0  0  0  0  0  0  0  0
   49.2780   28.9990   43.9410 C   0  0  0  0  0  0  0  0  0  0  0  0
   48.7310   27.6600   43.5590 C   0  0  0  0  0  0  0  0  0  0  0  0
   47.6780   27.4750   44.6700 C   0  0  0  0  0  0  0  0  0  0  0  0
   47.0080   28.8030   44.6490 C   0  0  1  0  0  0  0  0  0  0  0  0
   44.4270   28.9330   45.6390 C   0  0  0  0  0  0  0  0  0  0  0  0
   43.7010   28.8420   44.5380 N   0  0  0  0  0  0  0  0  0  0  0  0
   42.8470   27.8350   44.3280 C   0  0  0  0  0  0  0  0  0  0  0  0
   42.6550   26.8410   45.2090 N   0  0  0  0  0  0  0  0  0  0  0  0
   43.3440   26.8400   46.3610 C   0  0  0  0  0  0  0  0  0  0  0  0
   43.2090   25.8680   47.3000 C   0  0  0  0  0  0  0  0  0  0  0  0
   43.9300   25.8710   48.4890 C   0  0  0  0  0  0  0  0  0  0  0  0
   44.8080   26.9310   48.6730 C   0  0  0  0  0  0  0  0  0  0  0  0
   44.9500   27.9230   47.7180 C   0  0  0  0  0  0  0  0  0  0  0  0
   44.2170   27.8860   46.5520 C   0  0  0  0  0  0  0  0  0  0  0  0
   48.4009   28.9423   46.7759 H   0  0  0  0  0  0  0  0  0  0  0  0
   48.1073   30.6670   46.3103 H   0  0  0  0  0  0  0  0  0  0  0  0
   46.9976   29.1023   48.6501 H   0  0  0  0  0  0  0  0  0  0  0  0
   47.9446   30.6814   48.5992 H   0  0  0  0  0  0  0  0  0  0  0  0
   44.7057   29.3230   47.7801 H   0  0  0  0  0  0  0  0  0  0  0  0
   44.2431   31.0595   47.3697 H   0  0  0  0  0  0  0  0  0  0  0  0
   45.4773   30.9980   45.3055 H   0  0  0  0  0  0  0  0  0  0  0  0
   48.9153   33.6334   42.1278 H   0  0  0  0  0  0  0  0  0  0  0  0
   47.2589   34.8737   43.5862 H   0  0  0  0  0  0  0  0  0  0  0  0
   45.9912   33.5248   45.3674 H   0  0  0  0  0  0  0  0  0  0  0  0
   49.8660   29.4444   43.1250 H   0  0  0  0  0  0  0  0  0  0  0  0
   49.9716   28.9822   44.7946 H   0  0  0  0  0  0  0  0  0  0  0  0
   48.2716   27.6765   42.5596 H   0  0  0  0  0  0  0  0  0  0  0  0
   49.4787   26.8561   43.4904 H   0  0  0  0  0  0  0  0  0  0  0  0
   46.9750   26.6639   44.4294 H   0  0  0  0  0  0  0  0  0  0  0  0
   48.0950   27.1926   45.6479 H   0  0  0  0  0  0  0  0  0  0  0  0
   46.0897   28.6662   44.0590 H   0  0  0  0  0  0  0  0  0  0  0  0
   42.2747   27.8205   43.3887 H   0  0  0  0  0  0  0  0  0  0  0  0
   42.5018   25.0465   47.1126 H   0  0  0  0  0  0  0  0  0  0  0  0
   43.8115   25.0779   49.2419 H   0  0  0  0  0  0  0  0  0  0  0  0
   45.4030   26.9835   49.5967 H   0  0  0  0  0  0  0  0  0  0  0  0
   45.6552   28.7491   47.8918 H   0  0  0  0  0  0  0  0  0  0  0  0
  1  6  1  0
  1  2  1  0
  2  3  1  0
  3  4  1  0
  5  4  1  0
  6  5  1  0
  7 12  2  0
  7  8  1  0
  8  9  2  0
  9 10  1  0
 11 13  1  0
 11 10  2  0
 12 11  1  0
 13 17  1  0
 14 13  1  0
 15 14  1  0
 15 16  1  0
 17 16  1  0
 17  1  1  0
 18  6  1  0
 18 27  1  0
 19 18  2  0
 20 19  1  0
 20 21  2  0
 21 22  1  0
 22 27  2  0
 22 23  1  0
 23 24  2  0
 24 25  1  0
 26 25  2  0
 27 26  1  0
  2 28  1  0
  2 29  1  0
  3 30  1  0
  3 31  1  0
  5 32  1  0
  5 33  1  0
  6 34  1  6
  7 35  1  0
  8 36  1  0
  9 37  1  0
 14 38  1  0
 14 39  1  0
 15 40  1  0
 15 41  1  0
 16 42  1  0
 16 43  1  0
 17 44  1  6
 20 45  1  0
 23 46  1  0
 24 47  1  0
 25 48  1  0
 26 49  1  0
M  ISO  8  28  13  29  13  30  13  31  13  32  13  33  13  34  13  35  14
M  ISO  8  36  14  37  14  38  13  39  13  40  13  41  13  42  13  43  13
M  ISO  6  44  13  45  14  46  14  47  14  48  14  49  14
M  END
>  <minimizedAffinity>  (1) 
-4.6824069

>  <minimizedRMSD>  (1) 
6.71561527

$$$$
