
     RDKit          3D

 45 48  0  0  1  0  0  0  0  0999 V2000
   46.1340   30.1440   46.2130 N   0  0  0  0  0  0  0  0  0  0  0  0
   46.7000   31.3230   45.7960 C   0  0  0  0  0  0  0  0  0  0  0  0
   46.6470   31.4190   44.2720 C   0  0  0  0  0  0  0  0  0  0  0  0
   46.9780   30.2740   43.6070 O   0  0  0  0  0  0  0  0  0  0  0  0
   46.3290   29.1740   44.0760 C   0  0  0  0  0  0  0  0  0  0  0  0
   46.4170   28.9740   45.5960 C   0  0  2  0  0  0  0  0  0  0  0  0
   50.4970   29.7950   48.7610 C   0  0  0  0  0  0  0  0  0  0  0  0
   50.8370   29.1780   47.5310 C   0  0  0  0  0  0  0  0  0  0  0  0
   49.8260   29.0810   46.5360 C   0  0  0  0  0  0  0  0  0  0  0  0
   48.6420   29.5890   46.8730 N   0  0  0  0  0  0  0  0  0  0  0  0
   48.3370   30.1640   48.0310 C   0  0  0  0  0  0  0  0  0  0  0  0
   49.2730   30.2630   48.9720 N   0  0  0  0  0  0  0  0  0  0  0  0
   47.0280   30.6450   48.2360 N   0  0  0  0  0  0  0  0  0  0  0  0
   46.6500   31.7670   49.0750 C   0  0  0  0  0  0  0  0  0  0  0  0
   45.2660   31.2930   49.4970 C   0  0  0  0  0  0  0  0  0  0  0  0
   44.7050   30.9120   48.1250 C   0  0  0  0  0  0  0  0  0  0  0  0
   45.8200   30.0630   47.6170 C   0  0  1  0  0  0  0  0  0  0  0  0
   45.0720   28.2250   45.8110 C   0  0  0  0  0  0  0  0  0  0  0  0
   43.8360   28.5600   45.2550 C   0  0  0  0  0  0  0  0  0  0  0  0
   42.7440   27.7830   45.5620 C   0  0  0  0  0  0  0  0  0  0  0  0
   42.8260   26.6900   46.3940 C   0  0  0  0  0  0  0  0  0  0  0  0
   44.0190   26.3120   46.9720 C   0  0  0  0  0  0  0  0  0  0  0  0
   45.0970   27.1090   46.6470 C   0  0  0  0  0  0  0  0  0  0  0  0
   46.1468   32.1672   46.2334 H   0  0  0  0  0  0  0  0  0  0  0  0
   47.7498   31.3546   46.1231 H   0  0  0  0  0  0  0  0  0  0  0  0
   45.6223   31.6962   43.9836 H   0  0  0  0  0  0  0  0  0  0  0  0
   47.4008   32.1675   43.9863 H   0  0  0  0  0  0  0  0  0  0  0  0
   45.2669   29.2610   43.8032 H   0  0  0  0  0  0  0  0  0  0  0  0
   46.8243   28.3041   43.6199 H   0  0  0  0  0  0  0  0  0  0  0  0
   47.3716   28.5410   45.9295 H   0  0  0  0  0  0  0  0  0  0  0  0
   51.2572   29.8871   49.5507 H   0  0  0  0  0  0  0  0  0  0  0  0
   51.8496   28.7872   47.3522 H   0  0  0  0  0  0  0  0  0  0  0  0
   50.0092   28.6181   45.5551 H   0  0  0  0  0  0  0  0  0  0  0  0
   47.3256   31.8850   49.9350 H   0  0  0  0  0  0  0  0  0  0  0  0
   46.6846   32.7535   48.5896 H   0  0  0  0  0  0  0  0  0  0  0  0
   45.3167   30.4282   50.1749 H   0  0  0  0  0  0  0  0  0  0  0  0
   44.6703   32.0257   50.0612 H   0  0  0  0  0  0  0  0  0  0  0  0
   43.7663   30.3449   48.2108 H   0  0  0  0  0  0  0  0  0  0  0  0
   44.4392   31.7627   47.4803 H   0  0  0  0  0  0  0  0  0  0  0  0
   45.5271   29.0254   47.8352 H   0  0  0  0  0  0  0  0  0  0  0  0
   43.7379   29.4272   44.5855 H   0  0  0  0  0  0  0  0  0  0  0  0
   41.7685   28.0448   45.1263 H   0  0  0  0  0  0  0  0  0  0  0  0
   41.9185   26.1044   46.6027 H   0  0  0  0  0  0  0  0  0  0  0  0
   44.1047   25.4425   47.6403 H   0  0  0  0  0  0  0  0  0  0  0  0
   46.0675   26.8389   47.0887 H   0  0  0  0  0  0  0  0  0  0  0  0
  1  2  1  0
  1 17  1  0
  3  2  1  0
  4  5  1  0
  4  3  1  0
  5  6  1  0
  6 18  1  0
  6  1  1  0
  7 12  2  0
  8  7  1  0
  9 10  1  0
  9  8  2  0
 10 11  2  0
 11 13  1  0
 11 12  1  0
 13 14  1  0
 14 15  1  0
 16 15  1  0
 17 16  1  0
 17 13  1  0
 18 23  2  0
 19 20  2  0
 19 18  1  0
 20 21  1  0
 21 22  2  0
 23 22  1  0
  2 24  1  0
  2 25  1  0
  3 26  1  0
  3 27  1  0
  5 28  1  0
  5 29  1  0
  6 30  1  6
  7 31  1  0
  8 32  1  0
  9 33  1  0
 14 34  1  0
 14 35  1  0
 15 36  1  0
 15 37  1  0
 16 38  1  0
 16 39  1  0
 17 40  1  1
 19 41  1  0
 20 42  1  0
 21 43  1  0
 22 44  1  0
 23 45  1  0
M  ISO  8  24  13  25  13  26  13  27  13  28  13  29  13  30  13  31  14
M  ISO  8  32  14  33  14  34  13  35  13  36  13  37  13  38  13  39  13
M  ISO  6  40  13  41  14  42  14  43  14  44  14  45  14
M  END
>  <minimizedAffinity>  (1) 
-4.45682764

>  <minimizedRMSD>  (1) 
5.82259035

$$$$
