
     RDKit          3D

 42 45  0  0  1  0  0  0  0  0999 V2000
   44.5610   35.4400   45.6200 C   0  0  0  0  0  0  0  0  0  0  0  0
   44.5200   35.9040   44.2820 C   0  0  0  0  0  0  0  0  0  0  0  0
   45.1220   35.1000   43.2690 C   0  0  0  0  0  0  0  0  0  0  0  0
   45.6760   33.9680   43.6980 N   0  0  0  0  0  0  0  0  0  0  0  0
   45.7080   33.5440   44.9580 C   0  0  0  0  0  0  0  0  0  0  0  0
   45.1480   34.2900   45.9020 N   0  0  0  0  0  0  0  0  0  0  0  0
   46.3410   32.3230   45.2520 N   0  0  0  0  0  0  0  0  0  0  0  0
   45.9910   31.4180   46.3330 C   0  0  0  0  0  0  0  0  0  0  0  0
   47.3660   30.8270   46.6060 C   0  0  0  0  0  0  0  0  0  0  0  0
   47.7840   30.4820   45.1750 C   0  0  0  0  0  0  0  0  0  0  0  0
   47.4780   31.7690   44.4930 C   0  0  1  0  0  0  0  0  0  0  0  0
   46.9530   31.7040   43.1520 N   0  0  0  0  0  0  0  0  0  0  0  0
   45.6670   31.2290   43.0460 C   0  0  0  0  0  0  0  0  0  0  0  0
   45.3540   30.8800   41.5920 C   0  0  0  0  0  0  0  0  0  0  0  0
   45.7720   31.8100   40.6770 O   0  0  0  0  0  0  0  0  0  0  0  0
   47.0860   32.1430   40.8490 C   0  0  0  0  0  0  0  0  0  0  0  0
   47.4330   32.6130   42.2720 C   0  0  2  0  0  0  0  0  0  0  0  0
   48.9540   32.1910   42.2800 C   0  0  0  0  0  0  0  0  0  0  0  0
   49.7830   32.6320   41.0830 C   0  0  0  0  0  0  0  0  0  0  0  0
   49.9980   33.1910   42.4570 C   0  0  0  0  0  0  0  0  0  0  0  0
   44.1045   36.0365   46.4236 H   0  0  0  0  0  0  0  0  0  0  0  0
   44.0365   36.8595   44.0308 H   0  0  0  0  0  0  0  0  0  0  0  0
   45.1280   35.3943   42.2091 H   0  0  0  0  0  0  0  0  0  0  0  0
   45.5921   31.9543   47.2066 H   0  0  0  0  0  0  0  0  0  0  0  0
   45.2009   30.6886   46.1012 H   0  0  0  0  0  0  0  0  0  0  0  0
   48.0440   31.5614   47.0654 H   0  0  0  0  0  0  0  0  0  0  0  0
   47.3805   29.9844   47.3130 H   0  0  0  0  0  0  0  0  0  0  0  0
   48.8533   30.2319   45.1121 H   0  0  0  0  0  0  0  0  0  0  0  0
   47.2810   29.6023   44.7470 H   0  0  0  0  0  0  0  0  0  0  0  0
   48.4309   32.3168   44.4494 H   0  0  0  0  0  0  0  0  0  0  0  0
   45.5597   30.3278   43.6676 H   0  0  0  0  0  0  0  0  0  0  0  0
   44.9672   32.0056   43.3883 H   0  0  0  0  0  0  0  0  0  0  0  0
   45.8434   29.9235   41.3563 H   0  0  0  0  0  0  0  0  0  0  0  0
   44.2578   30.8367   41.5121 H   0  0  0  0  0  0  0  0  0  0  0  0
   47.6995   31.2598   40.6176 H   0  0  0  0  0  0  0  0  0  0  0  0
   47.2897   32.9894   40.1766 H   0  0  0  0  0  0  0  0  0  0  0  0
   47.1160   33.6424   42.4951 H   0  0  0  0  0  0  0  0  0  0  0  0
   48.7269   31.2435   42.7906 H   0  0  0  0  0  0  0  0  0  0  0  0
   50.5229   31.9509   40.6374 H   0  0  0  0  0  0  0  0  0  0  0  0
   49.5745   33.0442   40.0847 H   0  0  0  0  0  0  0  0  0  0  0  0
   49.7222   34.2344   42.6697 H   0  0  0  0  0  0  0  0  0  0  0  0
   50.8708   33.2782   43.1208 H   0  0  0  0  0  0  0  0  0  0  0  0
  1  6  2  0
  2  1  1  0
  3  4  1  0
  3  2  2  0
  4  5  2  0
  5  7  1  0
  5  6  1  0
  7  8  1  0
  8  9  1  0
 10  9  1  0
 11 10  1  0
 11  7  1  0
 12 13  1  0
 12 11  1  0
 14 13  1  0
 15 16  1  0
 15 14  1  0
 16 17  1  0
 17 18  1  0
 17 12  1  0
 18 20  1  0
 19 18  1  0
 19 20  1  0
  1 21  1  0
  2 22  1  0
  3 23  1  0
  8 24  1  0
  8 25  1  0
  9 26  1  0
  9 27  1  0
 10 28  1  0
 10 29  1  0
 11 30  1  6
 13 31  1  0
 13 32  1  0
 14 33  1  0
 14 34  1  0
 16 35  1  0
 16 36  1  0
 17 37  1  1
 18 38  1  0
 19 39  1  0
 19 40  1  0
 20 41  1  0
 20 42  1  0
M  ISO  8  21  14  22  14  23  14  24  13  25  13  26  13  27  13  28  13
M  ISO  8  29  13  30  13  31  13  32  13  33  13  34  13  35  13  36  13
M  ISO  6  37  13  38  13  39  13  40  13  41  13  42  13
M  END
>  <minimizedAffinity>  (1) 
-4.34784269

>  <minimizedRMSD>  (1) 
2.38665891

$$$$
