
     RDKit          3D

 41 43  0  0  1  0  0  0  0  0999 V2000
   44.4430   35.9050   44.6260 C   0  0  0  0  0  0  0  0  0  0  0  0
   44.4470   35.6910   43.2220 C   0  0  0  0  0  0  0  0  0  0  0  0
   45.0170   34.4850   42.7260 C   0  0  0  0  0  0  0  0  0  0  0  0
   45.5000   33.6620   43.6530 N   0  0  0  0  0  0  0  0  0  0  0  0
   45.4900   33.8720   44.9670 C   0  0  0  0  0  0  0  0  0  0  0  0
   44.9600   34.9970   45.4420 N   0  0  0  0  0  0  0  0  0  0  0  0
   46.0440   32.9060   45.8100 N   0  0  0  0  0  0  0  0  0  0  0  0
   45.6450   32.6190   47.1850 C   0  0  0  0  0  0  0  0  0  0  0  0
   46.9830   32.1640   47.7470 C   0  0  0  0  0  0  0  0  0  0  0  0
   47.3810   31.1620   46.6550 C   0  0  0  0  0  0  0  0  0  0  0  0
   47.1530   32.0030   45.4450 C   0  0  1  0  0  0  0  0  0  0  0  0
   46.6550   31.3520   44.2740 N   0  0  0  0  0  0  0  0  0  0  0  0
   45.3650   30.8670   44.3820 C   0  0  0  0  0  0  0  0  0  0  0  0
   45.0590   29.8960   43.2490 C   0  0  0  0  0  0  0  0  0  0  0  0
   45.4640   30.3110   42.0080 O   0  0  0  0  0  0  0  0  0  0  0  0
   46.7680   30.7060   42.0040 C   0  0  0  0  0  0  0  0  0  0  0  0
   47.1230   31.7580   43.0690 C   0  0  2  0  0  0  0  0  0  0  0  0
   48.6510   31.3760   43.1900 C   0  0  0  0  0  0  0  0  0  0  0  0
   49.3960   32.4330   42.4020 C   0  0  0  0  0  0  0  0  0  0  0  0
   44.0091   36.8280   45.0381 H   0  0  0  0  0  0  0  0  0  0  0  0
   44.0207   36.4378   42.5360 H   0  0  0  0  0  0  0  0  0  0  0  0
   45.0555   34.2499   41.6521 H   0  0  0  0  0  0  0  0  0  0  0  0
   45.2683   33.5160   47.6984 H   0  0  0  0  0  0  0  0  0  0  0  0
   44.8229   31.8960   47.2919 H   0  0  0  0  0  0  0  0  0  0  0  0
   47.7004   32.9943   47.8248 H   0  0  0  0  0  0  0  0  0  0  0  0
   46.9509   31.7584   48.7690 H   0  0  0  0  0  0  0  0  0  0  0  0
   48.4328   30.8533   46.7465 H   0  0  0  0  0  0  0  0  0  0  0  0
   46.8285   30.2110   46.6719 H   0  0  0  0  0  0  0  0  0  0  0  0
   48.1371   32.4267   45.1961 H   0  0  0  0  0  0  0  0  0  0  0  0
   45.2545   30.3456   45.3443 H   0  0  0  0  0  0  0  0  0  0  0  0
   44.6631   31.7119   44.3233 H   0  0  0  0  0  0  0  0  0  0  0  0
   45.5610   28.9428   43.4711 H   0  0  0  0  0  0  0  0  0  0  0  0
   43.9632   29.8111   43.2033 H   0  0  0  0  0  0  0  0  0  0  0  0
   47.3955   29.8190   42.1757 H   0  0  0  0  0  0  0  0  0  0  0  0
   46.9468   31.1793   41.0273 H   0  0  0  0  0  0  0  0  0  0  0  0
   46.7958   32.7829   42.8400 H   0  0  0  0  0  0  0  0  0  0  0  0
   48.9678   31.3872   44.2433 H   0  0  0  0  0  0  0  0  0  0  0  0
   48.8504   30.3646   42.8061 H   0  0  0  0  0  0  0  0  0  0  0  0
   49.8873   33.1300   43.0968 H   0  0  0  0  0  0  0  0  0  0  0  0
   50.1551   31.9510   41.7684 H   0  0  0  0  0  0  0  0  0  0  0  0
   48.6868   32.9858   41.7684 H   0  0  0  0  0  0  0  0  0  0  0  0
  1  6  2  0
  2  1  1  0
  3  2  2  0
  3  4  1  0
  4  5  2  0
  5  6  1  0
  5  7  1  0
  7  8  1  0
  8  9  1  0
 10  9  1  0
 11  7  1  0
 11 10  1  0
 12 13  1  0
 12 11  1  0
 14 13  1  0
 15 14  1  0
 16 15  1  0
 16 17  1  0
 17 18  1  0
 17 12  1  0
 19 18  1  0
  1 20  1  0
  2 21  1  0
  3 22  1  0
  8 23  1  0
  8 24  1  0
  9 25  1  0
  9 26  1  0
 10 27  1  0
 10 28  1  0
 11 29  1  6
 13 30  1  0
 13 31  1  0
 14 32  1  0
 14 33  1  0
 16 34  1  0
 16 35  1  0
 17 36  1  6
 18 37  1  0
 18 38  1  0
 19 39  1  0
 19 40  1  0
 19 41  1  0
M  ISO  8  20  14  21  14  22  14  23  13  24  13  25  13  26  13  27  13
M  ISO  8  28  13  29  13  30  13  31  13  32  13  33  13  34  13  35  13
M  ISO  6  36  13  37   8  38   8  39   8  40   8  41   8
M  END
>  <minimizedAffinity>  (1) 
-4.20118761

>  <minimizedRMSD>  (1) 
1.02901006

$$$$
