
     RDKit          3D

 37 39  0  0  1  0  0  0  0  0999 V2000
   44.4340   35.9040   44.6510 C   0  0  0  0  0  0  0  0  0  0  0  0
   44.4280   35.7020   43.2460 C   0  0  0  0  0  0  0  0  0  0  0  0
   44.9970   34.5050   42.7450 C   0  0  0  0  0  0  0  0  0  0  0  0
   45.4920   33.6670   43.6550 N   0  0  0  0  0  0  0  0  0  0  0  0
   45.4920   33.8680   44.9710 C   0  0  0  0  0  0  0  0  0  0  0  0
   44.9600   34.9900   45.4570 N   0  0  0  0  0  0  0  0  0  0  0  0
   46.0580   32.8900   45.8020 N   0  0  0  0  0  0  0  0  0  0  0  0
   45.6620   32.6080   47.1720 C   0  0  0  0  0  0  0  0  0  0  0  0
   46.9780   32.1400   47.7300 C   0  0  0  0  0  0  0  0  0  0  0  0
   47.3870   31.1480   46.6240 C   0  0  0  0  0  0  0  0  0  0  0  0
   47.1560   31.9830   45.4160 C   0  0  1  0  0  0  0  0  0  0  0  0
   46.6340   31.3450   44.2470 N   0  0  0  0  0  0  0  0  0  0  0  0
   45.3480   30.8300   44.3800 C   0  0  0  0  0  0  0  0  0  0  0  0
   45.0160   29.8920   43.2300 C   0  0  0  0  0  0  0  0  0  0  0  0
   45.4090   30.3210   41.9940 O   0  0  0  0  0  0  0  0  0  0  0  0
   46.6930   30.7730   41.9570 C   0  0  0  0  0  0  0  0  0  0  0  0
   47.0590   31.7830   43.0460 C   0  0  2  0  0  0  0  0  0  0  0  0
   48.5660   31.4270   43.2200 C   0  0  0  0  0  0  0  0  0  0  0  0
   49.6730   31.5770   42.7470 O   0  0  0  0  0  0  0  0  0  0  0  0
   44.0007   36.8224   45.0738 H   0  0  0  0  0  0  0  0  0  0  0  0
   43.9950   36.4515   42.5672 H   0  0  0  0  0  0  0  0  0  0  0  0
   45.0282   34.2808   41.6685 H   0  0  0  0  0  0  0  0  0  0  0  0
   45.2976   33.5097   47.6860 H   0  0  0  0  0  0  0  0  0  0  0  0
   44.8322   31.8937   47.2779 H   0  0  0  0  0  0  0  0  0  0  0  0
   47.6987   32.9652   47.8276 H   0  0  0  0  0  0  0  0  0  0  0  0
   46.9317   31.7165   48.7441 H   0  0  0  0  0  0  0  0  0  0  0  0
   48.4415   30.8488   46.7159 H   0  0  0  0  0  0  0  0  0  0  0  0
   46.8379   30.1949   46.6356 H   0  0  0  0  0  0  0  0  0  0  0  0
   48.1429   32.3897   45.1501 H   0  0  0  0  0  0  0  0  0  0  0  0
   45.2784   30.2761   45.3278 H   0  0  0  0  0  0  0  0  0  0  0  0
   44.6326   31.6655   44.3690 H   0  0  0  0  0  0  0  0  0  0  0  0
   45.5061   28.9270   43.4264 H   0  0  0  0  0  0  0  0  0  0  0  0
   43.9183   29.8302   43.1954 H   0  0  0  0  0  0  0  0  0  0  0  0
   47.3622   29.9058   42.0582 H   0  0  0  0  0  0  0  0  0  0  0  0
   46.8028   31.3030   40.9994 H   0  0  0  0  0  0  0  0  0  0  0  0
   46.7139   32.7987   42.8023 H   0  0  0  0  0  0  0  0  0  0  0  0
   48.6636   30.7975   44.1167 H   0  0  0  0  0  0  0  0  0  0  0  0
  1  6  2  0
  2  1  1  0
  3  2  2  0
  3  4  1  0
  4  5  2  0
  5  6  1  0
  5  7  1  0
  7  8  1  0
  8  9  1  0
 10  9  1  0
 11  7  1  0
 11 10  1  0
 12 13  1  0
 12 11  1  0
 14 13  1  0
 15 14  1  0
 16 15  1  0
 16 17  1  0
 17 18  1  0
 17 12  1  0
 19 18  2  0
  1 20  1  0
  2 21  1  0
  3 22  1  0
  8 23  1  0
  8 24  1  0
  9 25  1  0
  9 26  1  0
 10 27  1  0
 10 28  1  0
 11 29  1  6
 13 30  1  0
 13 31  1  0
 14 32  1  0
 14 33  1  0
 16 34  1  0
 16 35  1  0
 17 36  1  6
 18 37  1  0
M  ISO  8  20  14  21  14  22  14  23  13  24  13  25  13  26  13  27  13
M  ISO  8  28  13  29  13  30  13  31  13  32  13  33  13  34  13  35  13
M  ISO  2  36  13  37   6
M  END
>  <minimizedAffinity>  (1) 
-4.10263824

>  <minimizedRMSD>  (1) 
1.08085322

$$$$
