
     RDKit          3D

 36 38  0  0  1  0  0  0  0  0999 V2000
   44.4960   35.9060   44.7650 C   0  0  0  0  0  0  0  0  0  0  0  0
   44.4290   35.8340   43.3470 C   0  0  0  0  0  0  0  0  0  0  0  0
   44.9540   34.6760   42.7080 C   0  0  0  0  0  0  0  0  0  0  0  0
   45.4660   33.7560   43.5240 N   0  0  0  0  0  0  0  0  0  0  0  0
   45.5220   33.8350   44.8520 C   0  0  0  0  0  0  0  0  0  0  0  0
   45.0340   34.9130   45.4560 N   0  0  0  0  0  0  0  0  0  0  0  0
   46.0980   32.7790   45.5760 N   0  0  0  0  0  0  0  0  0  0  0  0
   45.7460   32.3590   46.9240 C   0  0  0  0  0  0  0  0  0  0  0  0
   47.1020   31.8360   47.3770 C   0  0  0  0  0  0  0  0  0  0  0  0
   47.4440   30.9590   46.1770 C   0  0  0  0  0  0  0  0  0  0  0  0
   47.1760   31.9130   45.0640 C   0  0  1  0  0  0  0  0  0  0  0  0
   46.5970   31.3840   43.8530 N   0  0  0  0  0  0  0  0  0  0  0  0
   45.3150   30.9240   43.9620 C   0  0  0  0  0  0  0  0  0  0  0  0
   44.9750   30.0490   42.7520 C   0  0  0  0  0  0  0  0  0  0  0  0
   45.3590   30.5930   41.5430 O   0  0  0  0  0  0  0  0  0  0  0  0
   46.6780   30.9580   41.5500 C   0  0  0  0  0  0  0  0  0  0  0  0
   47.0570   31.9090   42.6960 C   0  0  2  0  0  0  0  0  0  0  0  0
   48.8810   31.4420   42.9100 S   0  0  0  0  0  0  0  0  0  0  0  0
   44.1002   36.7883   45.2892 H   0  0  0  0  0  0  0  0  0  0  0  0
   43.9837   36.6507   42.7599 H   0  0  0  0  0  0  0  0  0  0  0  0
   44.9381   34.5493   41.6154 H   0  0  0  0  0  0  0  0  0  0  0  0
   45.4026   33.2021   47.5415 H   0  0  0  0  0  0  0  0  0  0  0  0
   44.9166   31.6397   46.9922 H   0  0  0  0  0  0  0  0  0  0  0  0
   47.8310   32.6484   47.5132 H   0  0  0  0  0  0  0  0  0  0  0  0
   47.1058   31.3225   48.3498 H   0  0  0  0  0  0  0  0  0  0  0  0
   48.4962   30.6387   46.1939 H   0  0  0  0  0  0  0  0  0  0  0  0
   46.8803   30.0161   46.1206 H   0  0  0  0  0  0  0  0  0  0  0  0
   48.1538   32.3437   44.8025 H   0  0  0  0  0  0  0  0  0  0  0  0
   45.2171   30.3293   44.8822 H   0  0  0  0  0  0  0  0  0  0  0  0
   44.6236   31.7787   43.9988 H   0  0  0  0  0  0  0  0  0  0  0  0
   45.4813   29.0799   42.8722 H   0  0  0  0  0  0  0  0  0  0  0  0
   43.8796   29.9527   42.7253 H   0  0  0  0  0  0  0  0  0  0  0  0
   47.2885   30.0474   41.6399 H   0  0  0  0  0  0  0  0  0  0  0  0
   46.8631   31.5009   40.6114 H   0  0  0  0  0  0  0  0  0  0  0  0
   46.7459   32.9477   42.5109 H   0  0  0  0  0  0  0  0  0  0  0  0
   49.1793   31.3656   44.2450 H   0  0  0  0  0  0  0  0  0  0  0  0
  1  6  2  0
  2  1  1  0
  3  2  2  0
  3  4  1  0
  4  5  2  0
  5  6  1  0
  5  7  1  0
  7  8  1  0
  8  9  1  0
 10  9  1  0
 11  7  1  0
 11 10  1  0
 12 13  1  0
 12 11  1  0
 14 13  1  0
 15 16  1  0
 15 14  1  0
 16 17  1  0
 17 18  1  0
 17 12  1  0
  1 19  1  0
  2 20  1  0
  3 21  1  0
  8 22  1  0
  8 23  1  0
  9 24  1  0
  9 25  1  0
 10 26  1  0
 10 27  1  0
 11 28  1  6
 13 29  1  0
 13 30  1  0
 14 31  1  0
 14 32  1  0
 16 33  1  0
 16 34  1  0
 17 35  1  6
 18 36  1  0
M  ISO  8  19  14  20  14  21  14  22  13  23  13  24  13  25  13  26  13
M  ISO  8  27  13  28  13  29  13  30  13  31  13  32  13  33  13  34  13
M  ISO  2  35  13  36  11
M  END
>  <minimizedAffinity>  (1) 
-4.02132654

>  <minimizedRMSD>  (1) 
1.25987637

$$$$
