
     RDKit          3D

 22 23  0  0  0  0  0  0  0  0999 V2000
   44.5060   35.9590   44.4900 C   0  0  0  0  0  0  0  0  0  0  0  0
   45.3650   35.8840   43.3790 C   0  0  0  0  0  0  0  0  0  0  0  0
   46.3210   34.8450   43.3530 C   0  0  0  0  0  0  0  0  0  0  0  0
   46.3530   33.9750   44.4100 N   0  0  0  0  0  0  0  0  0  0  0  0
   45.5010   34.0870   45.4640 C   0  0  0  0  0  0  0  0  0  0  0  0
   44.5890   35.0740   45.4930 N   0  0  0  0  0  0  0  0  0  0  0  0
   47.2250   34.6780   42.2940 N   0  0  0  0  0  0  0  0  0  0  0  0
   48.6690   34.8330   42.2810 C   0  0  0  0  0  0  0  0  0  0  0  0
   48.8440   35.5160   40.9390 C   0  0  0  0  0  0  0  0  0  0  0  0
   48.0380   34.5750   40.0630 C   0  0  0  0  0  0  0  0  0  0  0  0
   46.8400   34.2950   40.9390 C   0  0  0  0  0  0  0  0  0  0  0  0
   43.7522   36.7587   44.5366 H   0  0  0  0  0  0  0  0  0  0  0  0
   45.2945   36.6113   42.5567 H   0  0  0  0  0  0  0  0  0  0  0  0
   45.5583   33.3682   46.2947 H   0  0  0  0  0  0  0  0  0  0  0  0
   49.0199   35.4648   43.1103 H   0  0  0  0  0  0  0  0  0  0  0  0
   49.2379   33.8998   42.4054 H   0  0  0  0  0  0  0  0  0  0  0  0
   48.4253   36.5332   40.9400 H   0  0  0  0  0  0  0  0  0  0  0  0
   49.8878   35.6643   40.6251 H   0  0  0  0  0  0  0  0  0  0  0  0
   47.7417   35.0589   39.1206 H   0  0  0  0  0  0  0  0  0  0  0  0
   48.5860   33.6730   39.7530 H   0  0  0  0  0  0  0  0  0  0  0  0
   45.9770   34.8900   40.6057 H   0  0  0  0  0  0  0  0  0  0  0  0
   46.5481   33.2355   40.8906 H   0  0  0  0  0  0  0  0  0  0  0  0
  1  6  2  0
  2  1  1  0
  3  2  2  0
  3  4  1  0
  4  5  2  0
  5  6  1  0
  7  3  1  0
  8  7  1  0
  9  8  1  0
 10  9  1  0
 10 11  1  0
 11  7  1  0
  1 12  1  0
  2 13  1  0
  5 14  1  0
  8 15  1  0
  8 16  1  0
  9 17  1  0
  9 18  1  0
 10 19  1  0
 10 20  1  0
 11 21  1  0
 11 22  1  0
M  ISO  8  12  14  13  14  14  14  15  13  16  13  17  13  18  13  19  13
M  ISO  3  20  13  21  13  22  13
M  END
>  <minimizedAffinity>  (1) 
-4.35689592

>  <minimizedRMSD>  (1) 
0.52487123

$$$$
