
     RDKit          3D

 36 39  0  0  1  0  0  0  0  0999 V2000
   47.2190   34.4540   42.7110 N   0  0  0  0  0  0  0  0  0  0  0  0
   48.6020   33.9870   42.6960 C   0  0  0  0  0  0  0  0  0  0  0  0
   49.2040   34.9720   41.7200 C   0  0  0  0  0  0  0  0  0  0  0  0
   48.2070   34.8590   40.5920 C   0  0  0  0  0  0  0  0  0  0  0  0
   46.8900   34.8060   41.3450 C   0  0  1  0  0  0  0  0  0  0  0  0
   45.9950   33.7530   40.8100 C   0  0  0  0  0  0  0  0  0  0  0  0
   46.1660   32.4410   40.4220 C   0  0  0  0  0  0  0  0  0  0  0  0
   44.9850   31.9460   40.0050 N   0  0  0  0  0  0  0  0  0  0  0  0
   44.0130   32.8840   40.0970 C   0  0  0  0  0  0  0  0  0  0  0  0
   42.6640   32.8670   39.7980 C   0  0  0  0  0  0  0  0  0  0  0  0
   41.8970   33.9930   39.9960 C   0  0  0  0  0  0  0  0  0  0  0  0
   42.4870   35.1360   40.4950 C   0  0  0  0  0  0  0  0  0  0  0  0
   43.8360   35.1220   40.7830 C   0  0  0  0  0  0  0  0  0  0  0  0
   44.6430   33.9990   40.5950 C   0  0  0  0  0  0  0  0  0  0  0  0
   45.4840   33.8200   45.9360 C   0  0  0  0  0  0  0  0  0  0  0  0
   46.3990   33.6320   44.8830 C   0  0  0  0  0  0  0  0  0  0  0  0
   46.3480   34.5590   43.8060 C   0  0  0  0  0  0  0  0  0  0  0  0
   45.4240   35.5660   43.8590 N   0  0  0  0  0  0  0  0  0  0  0  0
   44.5680   35.6910   44.9040 C   0  0  0  0  0  0  0  0  0  0  0  0
   44.6030   34.8280   45.9240 N   0  0  0  0  0  0  0  0  0  0  0  0
   49.0681   34.0608   43.6896 H   0  0  0  0  0  0  0  0  0  0  0  0
   48.7297   32.9291   42.4231 H   0  0  0  0  0  0  0  0  0  0  0  0
   49.2382   35.9901   42.1351 H   0  0  0  0  0  0  0  0  0  0  0  0
   50.2483   34.7697   41.4397 H   0  0  0  0  0  0  0  0  0  0  0  0
   48.3694   33.9434   40.0043 H   0  0  0  0  0  0  0  0  0  0  0  0
   48.2686   35.6775   39.8597 H   0  0  0  0  0  0  0  0  0  0  0  0
   46.3734   35.7729   41.2545 H   0  0  0  0  0  0  0  0  0  0  0  0
   47.1158   31.8868   40.4488 H   0  0  0  0  0  0  0  0  0  0  0  0
   44.8409   30.9852   39.6629 H   0  0  0  0  0  0  0  0  0  0  0  0
   42.2017   31.9513   39.4007 H   0  0  0  0  0  0  0  0  0  0  0  0
   40.8230   33.9815   39.7584 H   0  0  0  0  0  0  0  0  0  0  0  0
   41.8904   36.0452   40.6608 H   0  0  0  0  0  0  0  0  0  0  0  0
   44.2971   36.0387   41.1793 H   0  0  0  0  0  0  0  0  0  0  0  0
   45.4930   33.1235   46.7873 H   0  0  0  0  0  0  0  0  0  0  0  0
   47.1225   32.8035   44.8929 H   0  0  0  0  0  0  0  0  0  0  0  0
   43.8364   36.5124   44.9120 H   0  0  0  0  0  0  0  0  0  0  0  0
  1 17  1  0
  2  1  1  0
  3  2  1  0
  4  5  1  0
  4  3  1  0
  5  1  1  0
  6  5  1  0
  7  6  2  0
  8  9  1  0
  8  7  1  0
  9 14  2  0
 10 11  2  0
 10  9  1  0
 11 12  1  0
 12 13  2  0
 14 13  1  0
 14  6  1  0
 16 15  2  0
 17 18  2  0
 17 16  1  0
 18 19  1  0
 19 20  2  0
 20 15  1  0
  2 21  1  0
  2 22  1  0
  3 23  1  0
  3 24  1  0
  4 25  1  0
  4 26  1  0
  5 27  1  1
  7 28  1  0
  8 29  1  0
 10 30  1  0
 11 31  1  0
 12 32  1  0
 13 33  1  0
 15 34  1  0
 16 35  1  0
 19 36  1  0
M  ISO  8  21  13  22  13  23  13  24  13  25  13  26  13  27  13  28  14
M  ISO  8  29   9  30  14  31  14  32  14  33  14  34  14  35  14  36  14
M  END
>  <minimizedAffinity>  (1) 
-5.55690908

>  <minimizedRMSD>  (1) 
3.37638426

$$$$
