
     RDKit          3D

 29 31  0  0  0  0  0  0  0  0999 V2000
   46.6570   34.7880   42.0560 C   0  0  0  0  0  0  0  0  0  0  0  0
   47.9350   35.3220   41.9690 C   0  0  0  0  0  0  0  0  0  0  0  0
   48.7480   35.2090   40.8640 C   0  0  0  0  0  0  0  0  0  0  0  0
   48.2810   34.5250   39.7630 C   0  0  0  0  0  0  0  0  0  0  0  0
   47.0260   33.9710   39.7800 C   0  0  0  0  0  0  0  0  0  0  0  0
   46.5510   33.2910   38.6790 C   0  0  0  0  0  0  0  0  0  0  0  0
   45.2910   32.7270   38.6560 C   0  0  0  0  0  0  0  0  0  0  0  0
   44.5420   32.8910   39.8090 C   0  0  0  0  0  0  0  0  0  0  0  0
   45.0330   33.5640   40.8780 C   0  0  0  0  0  0  0  0  0  0  0  0
   46.2830   34.1290   40.9140 C   0  0  0  0  0  0  0  0  0  0  0  0
   44.4180   35.9990   44.9000 C   0  0  0  0  0  0  0  0  0  0  0  0
   45.0390   35.9680   43.6520 C   0  0  0  0  0  0  0  0  0  0  0  0
   45.9300   34.9820   43.2820 C   0  0  0  0  0  0  0  0  0  0  0  0
   46.1360   34.0470   44.2580 N   0  0  0  0  0  0  0  0  0  0  0  0
   45.5510   34.0590   45.4570 C   0  0  0  0  0  0  0  0  0  0  0  0
   44.6980   35.0340   45.7660 N   0  0  0  0  0  0  0  0  0  0  0  0
   45.8610   32.9820   46.4310 C   0  0  0  0  0  0  0  0  0  0  0  0
   45.6740   31.7620   45.7850 F   0  0  0  0  0  0  0  0  0  0  0  0
   44.9400   33.0780   47.4680 F   0  0  0  0  0  0  0  0  0  0  0  0
   47.1500   33.1370   46.8650 F   0  0  0  0  0  0  0  0  0  0  0  0
   48.3234   35.8711   42.8394 H   0  0  0  0  0  0  0  0  0  0  0  0
   49.7527   35.6569   40.8601 H   0  0  0  0  0  0  0  0  0  0  0  0
   48.9148   34.4230   38.8697 H   0  0  0  0  0  0  0  0  0  0  0  0
   47.1950   33.1949   37.7924 H   0  0  0  0  0  0  0  0  0  0  0  0
   44.9076   32.1835   37.7799 H   0  0  0  0  0  0  0  0  0  0  0  0
   43.5284   32.4666   39.8583 H   0  0  0  0  0  0  0  0  0  0  0  0
   44.3932   33.6629   41.7673 H   0  0  0  0  0  0  0  0  0  0  0  0
   43.7139   36.8032   45.1598 H   0  0  0  0  0  0  0  0  0  0  0  0
   44.8081   36.7654   42.9303 H   0  0  0  0  0  0  0  0  0  0  0  0
  1 13  1  0
  2  1  2  0
  3  2  1  0
  4  5  1  0
  4  3  2  0
  5 10  2  0
  6  5  1  0
  7  6  2  0
  7  8  1  0
  8  9  2  0
  9 10  1  0
 10  1  1  0
 11 16  2  0
 12 11  1  0
 13 12  2  0
 13 14  1  0
 14 15  2  0
 15 16  1  0
 15 17  1  0
 17 20  1  0
 17 19  1  0
 18 17  1  0
  2 21  1  0
  3 22  1  0
  4 23  1  0
  6 24  1  0
  7 25  1  0
  8 26  1  0
  9 27  1  0
 11 28  1  0
 12 29  1  0
M  ISO  8  21  14  22  14  23  14  24  14  25  14  26  14  27  14  28  14
M  ISO  1  29  14
M  END
>  <minimizedAffinity>  (1) 
-6.57340097

>  <minimizedRMSD>  (1) 
0.533004045

$$$$
