
     RDKit          3D

 37 39  0  0  1  0  0  0  0  0999 V2000
   47.1150   34.5850   42.4030 N   0  0  0  0  0  0  0  0  0  0  0  0
   48.5780   34.5430   42.3860 C   0  0  0  0  0  0  0  0  0  0  0  0
   48.8080   35.3470   41.1090 C   0  0  0  0  0  0  0  0  0  0  0  0
   47.9040   34.5730   40.1750 C   0  0  0  0  0  0  0  0  0  0  0  0
   46.6520   34.4140   41.0260 C   0  0  1  0  0  0  0  0  0  0  0  0
   44.4800   35.8630   44.6950 C   0  0  0  0  0  0  0  0  0  0  0  0
   45.2930   35.7630   43.5630 C   0  0  0  0  0  0  0  0  0  0  0  0
   46.2640   34.7540   43.4970 C   0  0  0  0  0  0  0  0  0  0  0  0
   46.3410   33.9240   44.5710 N   0  0  0  0  0  0  0  0  0  0  0  0
   45.5520   34.0260   45.6610 C   0  0  0  0  0  0  0  0  0  0  0  0
   44.6200   35.0090   45.7060 N   0  0  0  0  0  0  0  0  0  0  0  0
   46.1260   33.1170   40.7570 N   0  0  0  0  0  0  0  0  0  0  0  0
   45.6030   32.3990   41.8730 C   0  0  0  0  0  0  0  0  0  0  0  0
   44.0970   32.1630   41.7540 C   0  0  0  0  0  0  0  0  0  0  0  0
   43.3870   33.4810   41.4970 C   0  0  0  0  0  0  0  0  0  0  0  0
   43.8980   34.0110   40.1850 C   0  0  0  0  0  0  0  0  0  0  0  0
   45.1290   33.2410   39.7270 C   0  0  0  0  0  0  0  0  0  0  0  0
   49.0176   35.0307   43.2685 H   0  0  0  0  0  0  0  0  0  0  0  0
   49.0291   33.5400   42.4088 H   0  0  0  0  0  0  0  0  0  0  0  0
   48.4890   36.3941   41.2179 H   0  0  0  0  0  0  0  0  0  0  0  0
   49.8564   35.4343   40.7877 H   0  0  0  0  0  0  0  0  0  0  0  0
   48.3382   33.5969   39.9129 H   0  0  0  0  0  0  0  0  0  0  0  0
   47.7290   35.0678   39.2083 H   0  0  0  0  0  0  0  0  0  0  0  0
   45.8461   35.1348   40.8234 H   0  0  0  0  0  0  0  0  0  0  0  0
   43.7179   36.6542   44.7510 H   0  0  0  0  0  0  0  0  0  0  0  0
   45.1720   36.4708   42.7297 H   0  0  0  0  0  0  0  0  0  0  0  0
   45.6635   33.3227   46.4994 H   0  0  0  0  0  0  0  0  0  0  0  0
   46.1102   31.4250   41.9367 H   0  0  0  0  0  0  0  0  0  0  0  0
   45.7798   33.0025   42.7755 H   0  0  0  0  0  0  0  0  0  0  0  0
   43.9004   31.4738   40.9195 H   0  0  0  0  0  0  0  0  0  0  0  0
   43.7231   31.7266   42.6919 H   0  0  0  0  0  0  0  0  0  0  0  0
   42.3004   33.3194   41.4411 H   0  0  0  0  0  0  0  0  0  0  0  0
   43.5820   34.1955   42.3103 H   0  0  0  0  0  0  0  0  0  0  0  0
   43.1087   33.9121   39.4253 H   0  0  0  0  0  0  0  0  0  0  0  0
   44.1751   35.0672   40.3180 H   0  0  0  0  0  0  0  0  0  0  0  0
   44.8172   32.2327   39.4168 H   0  0  0  0  0  0  0  0  0  0  0  0
   45.5803   33.8031   38.8961 H   0  0  0  0  0  0  0  0  0  0  0  0
  1  8  1  0
  2  1  1  0
  3  2  1  0
  4  5  1  0
  4  3  1  0
  5  1  1  0
  6 11  2  0
  7  6  1  0
  8  7  2  0
  8  9  1  0
  9 10  2  0
 10 11  1  0
 12  5  1  0
 12 13  1  0
 14 13  1  0
 15 14  1  0
 16 15  1  0
 17 16  1  0
 17 12  1  0
  2 18  1  0
  2 19  1  0
  3 20  1  0
  3 21  1  0
  4 22  1  0
  4 23  1  0
  5 24  1  6
  6 25  1  0
  7 26  1  0
 10 27  1  0
 13 28  1  0
 13 29  1  0
 14 30  1  0
 14 31  1  0
 15 32  1  0
 15 33  1  0
 16 34  1  0
 16 35  1  0
 17 36  1  0
 17 37  1  0
M  ISO  8  18  13  19  13  20  13  21  13  22  13  23  13  24  13  25  14
M  ISO  8  26  14  27  14  28  13  29  13  30  13  31  13  32  13  33  13
M  ISO  4  34  13  35  13  36  13  37  13
M  END
>  <minimizedAffinity>  (1) 
-5.00636816

>  <minimizedRMSD>  (1) 
1.37410402

$$$$
