
     RDKit          3D

 30 32  0  0  1  0  0  0  0  0999 V2000
   47.2680   34.7020   42.2170 N   0  0  0  0  0  0  0  0  0  0  0  0
   48.7090   34.8900   42.2210 C   0  0  0  0  0  0  0  0  0  0  0  0
   48.8910   35.5470   40.8870 C   0  0  0  0  0  0  0  0  0  0  0  0
   48.0630   34.6540   39.9880 C   0  0  0  0  0  0  0  0  0  0  0  0
   46.8850   34.3440   40.8540 C   0  0  1  0  0  0  0  0  0  0  0  0
   44.5230   35.9320   44.4180 C   0  0  0  0  0  0  0  0  0  0  0  0
   45.3910   35.8600   43.3200 C   0  0  0  0  0  0  0  0  0  0  0  0
   46.3710   34.8280   43.2880 C   0  0  0  0  0  0  0  0  0  0  0  0
   46.4070   33.9670   44.3370 N   0  0  0  0  0  0  0  0  0  0  0  0
   45.5480   34.0680   45.3860 C   0  0  0  0  0  0  0  0  0  0  0  0
   44.6180   35.0490   45.4140 N   0  0  0  0  0  0  0  0  0  0  0  0
   46.4600   32.9480   40.7100 C   0  0  0  0  0  0  0  0  0  0  0  0
   45.1640   32.5260   40.6440 C   0  0  0  0  0  0  0  0  0  0  0  0
   44.7910   31.2080   40.5090 C   0  0  0  0  0  0  0  0  0  0  0  0
   45.7750   30.2680   40.4350 N   0  0  0  0  0  0  0  0  0  0  0  0
   47.0710   30.6870   40.5000 C   0  0  0  0  0  0  0  0  0  0  0  0
   47.4040   31.9780   40.6330 N   0  0  0  0  0  0  0  0  0  0  0  0
   49.0329   35.5429   43.0449 H   0  0  0  0  0  0  0  0  0  0  0  0
   49.2951   33.9708   42.3679 H   0  0  0  0  0  0  0  0  0  0  0  0
   48.5065   36.5776   40.8921 H   0  0  0  0  0  0  0  0  0  0  0  0
   49.9419   35.6415   40.5761 H   0  0  0  0  0  0  0  0  0  0  0  0
   48.6119   33.7397   39.7183 H   0  0  0  0  0  0  0  0  0  0  0  0
   47.7961   35.1184   39.0272 H   0  0  0  0  0  0  0  0  0  0  0  0
   45.9998   34.9253   40.5564 H   0  0  0  0  0  0  0  0  0  0  0  0
   43.7583   36.7217   44.4590 H   0  0  0  0  0  0  0  0  0  0  0  0
   45.3164   36.5874   42.4982 H   0  0  0  0  0  0  0  0  0  0  0  0
   45.6099   33.3484   46.2156 H   0  0  0  0  0  0  0  0  0  0  0  0
   44.3697   33.2847   40.7022 H   0  0  0  0  0  0  0  0  0  0  0  0
   43.7299   30.9218   40.4622 H   0  0  0  0  0  0  0  0  0  0  0  0
   47.8733   29.9368   40.4410 H   0  0  0  0  0  0  0  0  0  0  0  0
  1  2  1  0
  1  8  1  0
  3  2  1  0
  4  5  1  0
  4  3  1  0
  5  1  1  0
  6 11  2  0
  7  6  1  0
  8  7  2  0
  8  9  1  0
  9 10  2  0
 10 11  1  0
 12  5  1  0
 13 12  2  0
 14 13  1  0
 15 16  1  0
 15 14  2  0
 16 17  2  0
 17 12  1  0
  2 18  1  0
  2 19  1  0
  3 20  1  0
  3 21  1  0
  4 22  1  0
  4 23  1  0
  5 24  1  6
  6 25  1  0
  7 26  1  0
 10 27  1  0
 13 28  1  0
 14 29  1  0
 16 30  1  0
M  ISO  8  18  13  19  13  20  13  21  13  22  13  23  13  24  13  25  14
M  ISO  5  26  14  27  14  28  14  29  14  30  14
M  END
>  <minimizedAffinity>  (1) 
-4.63315725

>  <minimizedRMSD>  (1) 
0.223973513

$$$$
