
     RDKit          3D

 31 33  0  0  1  0  0  0  0  0999 V2000
   47.2770   34.6870   42.2450 N   0  0  0  0  0  0  0  0  0  0  0  0
   48.7080   34.8430   42.2320 C   0  0  0  0  0  0  0  0  0  0  0  0
   48.8860   35.5420   40.8980 C   0  0  0  0  0  0  0  0  0  0  0  0
   48.0600   34.6340   40.0010 C   0  0  0  0  0  0  0  0  0  0  0  0
   46.8830   34.3240   40.8850 C   0  0  1  0  0  0  0  0  0  0  0  0
   44.5170   35.9170   44.4320 C   0  0  0  0  0  0  0  0  0  0  0  0
   45.3830   35.8560   43.3260 C   0  0  0  0  0  0  0  0  0  0  0  0
   46.3630   34.8330   43.3050 C   0  0  0  0  0  0  0  0  0  0  0  0
   46.4170   33.9550   44.3620 N   0  0  0  0  0  0  0  0  0  0  0  0
   45.5460   34.0710   45.4020 C   0  0  0  0  0  0  0  0  0  0  0  0
   44.6110   35.0420   45.4300 N   0  0  0  0  0  0  0  0  0  0  0  0
   46.4560   32.9110   40.8050 C   0  0  0  0  0  0  0  0  0  0  0  0
   47.4000   31.9020   40.7530 C   0  0  0  0  0  0  0  0  0  0  0  0
   47.0240   30.5850   40.6780 C   0  0  0  0  0  0  0  0  0  0  0  0
   45.6490   30.3590   40.6590 C   0  0  0  0  0  0  0  0  0  0  0  0
   44.6910   31.3620   40.7100 C   0  0  0  0  0  0  0  0  0  0  0  0
   45.1430   32.6330   40.7830 N   0  0  0  0  0  0  0  0  0  0  0  0
   49.0582   35.4654   43.0687 H   0  0  0  0  0  0  0  0  0  0  0  0
   49.2765   33.9080   42.3440 H   0  0  0  0  0  0  0  0  0  0  0  0
   48.4856   36.5663   40.9190 H   0  0  0  0  0  0  0  0  0  0  0  0
   49.9319   35.6716   40.5829 H   0  0  0  0  0  0  0  0  0  0  0  0
   48.6135   33.7214   39.7350 H   0  0  0  0  0  0  0  0  0  0  0  0
   47.7877   35.0862   39.0359 H   0  0  0  0  0  0  0  0  0  0  0  0
   46.0064   34.9000   40.5535 H   0  0  0  0  0  0  0  0  0  0  0  0
   43.7478   36.7023   44.4730 H   0  0  0  0  0  0  0  0  0  0  0  0
   45.3021   36.5804   42.5022 H   0  0  0  0  0  0  0  0  0  0  0  0
   45.6064   33.3575   46.2370 H   0  0  0  0  0  0  0  0  0  0  0  0
   48.4693   32.1595   40.7721 H   0  0  0  0  0  0  0  0  0  0  0  0
   47.7561   29.7651   40.6358 H   0  0  0  0  0  0  0  0  0  0  0  0
   45.3001   29.3175   40.5997 H   0  0  0  0  0  0  0  0  0  0  0  0
   43.6153   31.1330   40.6918 H   0  0  0  0  0  0  0  0  0  0  0  0
  1  8  1  0
  2  1  1  0
  3  2  1  0
  4  5  1  0
  4  3  1  0
  5  1  1  0
  6 11  2  0
  7  6  1  0
  8  7  2  0
  8  9  1  0
  9 10  2  0
 10 11  1  0
 12  5  1  0
 13 12  2  0
 14 13  1  0
 15 14  2  0
 15 16  1  0
 16 17  2  0
 17 12  1  0
  2 18  1  0
  2 19  1  0
  3 20  1  0
  3 21  1  0
  4 22  1  0
  4 23  1  0
  5 24  1  6
  6 25  1  0
  7 26  1  0
 10 27  1  0
 13 28  1  0
 14 29  1  0
 15 30  1  0
 16 31  1  0
M  ISO  8  18  13  19  13  20  13  21  13  22  13  23  13  24  13  25  14
M  ISO  6  26  14  27  14  28  14  29  14  30  14  31  14
M  END
>  <minimizedAffinity>  (1) 
-4.63314676

>  <minimizedRMSD>  (1) 
0.219229817

$$$$
