
     RDKit          3D

 28 30  0  0  1  0  0  0  0  0999 V2000
   47.2400   34.7040   42.2670 N   0  0  0  0  0  0  0  0  0  0  0  0
   48.6770   34.9160   42.2780 C   0  0  0  0  0  0  0  0  0  0  0  0
   48.8640   35.5630   40.9290 C   0  0  0  0  0  0  0  0  0  0  0  0
   48.0660   34.6330   40.0520 C   0  0  0  0  0  0  0  0  0  0  0  0
   46.8880   34.3000   40.9180 C   0  0  1  0  0  0  0  0  0  0  0  0
   44.5170   35.9610   44.4590 C   0  0  0  0  0  0  0  0  0  0  0  0
   45.3840   35.8790   43.3640 C   0  0  0  0  0  0  0  0  0  0  0  0
   46.3420   34.8500   43.3250 C   0  0  0  0  0  0  0  0  0  0  0  0
   46.3620   33.9840   44.3790 N   0  0  0  0  0  0  0  0  0  0  0  0
   45.5070   34.0870   45.4310 C   0  0  0  0  0  0  0  0  0  0  0  0
   44.5880   35.0830   45.4560 N   0  0  0  0  0  0  0  0  0  0  0  0
   46.6420   32.8570   40.9290 N   0  0  0  0  0  0  0  0  0  0  0  0
   47.5730   31.8680   40.7930 C   0  0  0  0  0  0  0  0  0  0  0  0
   46.9200   30.6990   40.8630 N   0  0  0  0  0  0  0  0  0  0  0  0
   45.6140   30.9310   41.0380 C   0  0  0  0  0  0  0  0  0  0  0  0
   45.4710   32.2800   41.0760 N   0  0  0  0  0  0  0  0  0  0  0  0
   48.9836   35.5845   43.0960 H   0  0  0  0  0  0  0  0  0  0  0  0
   49.2753   34.0073   42.4398 H   0  0  0  0  0  0  0  0  0  0  0  0
   48.4565   36.5846   40.9108 H   0  0  0  0  0  0  0  0  0  0  0  0
   49.9143   35.6836   40.6252 H   0  0  0  0  0  0  0  0  0  0  0  0
   48.6428   33.7305   39.8014 H   0  0  0  0  0  0  0  0  0  0  0  0
   47.7873   35.0750   39.0840 H   0  0  0  0  0  0  0  0  0  0  0  0
   45.9878   34.8080   40.5418 H   0  0  0  0  0  0  0  0  0  0  0  0
   43.7654   36.7634   44.4961 H   0  0  0  0  0  0  0  0  0  0  0  0
   45.3173   36.6096   42.5444 H   0  0  0  0  0  0  0  0  0  0  0  0
   45.5608   33.3647   46.2589 H   0  0  0  0  0  0  0  0  0  0  0  0
   48.6554   32.0044   40.6524 H   0  0  0  0  0  0  0  0  0  0  0  0
   44.8164   30.1793   41.1322 H   0  0  0  0  0  0  0  0  0  0  0  0
  1  2  1  0
  1  8  1  0
  3  2  1  0
  4  5  1  0
  4  3  1  0
  5 12  1  0
  5  1  1  0
  6 11  2  0
  7  6  1  0
  8  7  2  0
  8  9  1  0
  9 10  2  0
 10 11  1  0
 12 16  1  0
 13 14  2  0
 13 12  1  0
 14 15  1  0
 15 16  2  0
  2 17  1  0
  2 18  1  0
  3 19  1  0
  3 20  1  0
  4 21  1  0
  4 22  1  0
  5 23  1  6
  6 24  1  0
  7 25  1  0
 10 26  1  0
 13 27  1  0
 15 28  1  0
M  ISO  8  17  13  18  13  19  13  20  13  21  13  22  13  23  13  24  14
M  ISO  4  25  14  26  14  27  14  28  14
M  END
>  <minimizedAffinity>  (1) 
-4.62050581

>  <minimizedRMSD>  (1) 
0.0682287216

$$$$
