
     RDKit          3D

 32 34  0  0  1  0  0  0  0  0999 V2000
   47.2440   34.6890   42.2780 N   0  0  0  0  0  0  0  0  0  0  0  0
   48.6920   34.8200   42.2930 C   0  0  0  0  0  0  0  0  0  0  0  0
   48.9090   35.5120   40.9810 C   0  0  0  0  0  0  0  0  0  0  0  0
   48.0390   34.6900   40.0530 C   0  0  0  0  0  0  0  0  0  0  0  0
   46.8540   34.3850   40.9080 C   0  0  1  0  0  0  0  0  0  0  0  0
   44.5030   35.9500   44.4660 C   0  0  0  0  0  0  0  0  0  0  0  0
   45.3750   35.8630   43.3760 C   0  0  0  0  0  0  0  0  0  0  0  0
   46.3440   34.8240   43.3480 C   0  0  0  0  0  0  0  0  0  0  0  0
   46.3740   33.9550   44.3970 N   0  0  0  0  0  0  0  0  0  0  0  0
   45.5070   34.0720   45.4430 C   0  0  0  0  0  0  0  0  0  0  0  0
   44.5900   35.0560   45.4700 N   0  0  0  0  0  0  0  0  0  0  0  0
   46.3850   32.9980   40.7230 C   0  0  0  0  0  0  0  0  0  0  0  0
   45.0270   32.7090   40.5770 C   0  0  0  0  0  0  0  0  0  0  0  0
   44.4680   31.4580   40.3990 C   0  0  0  0  0  0  0  0  0  0  0  0
   45.3730   30.3980   40.3660 C   0  0  0  0  0  0  0  0  0  0  0  0
   46.7310   30.5980   40.5030 C   0  0  0  0  0  0  0  0  0  0  0  0
   47.1730   31.8870   40.6750 C   0  0  0  0  0  0  0  0  0  0  0  0
   49.0369   35.4328   43.1389 H   0  0  0  0  0  0  0  0  0  0  0  0
   49.2399   33.8736   42.4118 H   0  0  0  0  0  0  0  0  0  0  0  0
   48.5756   36.5595   41.0202 H   0  0  0  0  0  0  0  0  0  0  0  0
   49.9638   35.5657   40.6735 H   0  0  0  0  0  0  0  0  0  0  0  0
   48.5514   33.7683   39.7401 H   0  0  0  0  0  0  0  0  0  0  0  0
   47.7831   35.2087   39.1173 H   0  0  0  0  0  0  0  0  0  0  0  0
   45.9865   34.9994   40.6252 H   0  0  0  0  0  0  0  0  0  0  0  0
   43.7467   36.7478   44.5035 H   0  0  0  0  0  0  0  0  0  0  0  0
   45.3116   36.5888   42.5518 H   0  0  0  0  0  0  0  0  0  0  0  0
   45.5580   33.3535   46.2743 H   0  0  0  0  0  0  0  0  0  0  0  0
   44.3331   33.5620   40.6066 H   0  0  0  0  0  0  0  0  0  0  0  0
   43.3836   31.3087   40.2908 H   0  0  0  0  0  0  0  0  0  0  0  0
   44.9940   29.3748   40.2270 H   0  0  0  0  0  0  0  0  0  0  0  0
   47.4358   29.7539   40.4754 H   0  0  0  0  0  0  0  0  0  0  0  0
   48.2575   32.0356   40.7835 H   0  0  0  0  0  0  0  0  0  0  0  0
  1  2  1  0
  1  8  1  0
  3  2  1  0
  4  5  1  0
  4  3  1  0
  5  1  1  0
  6 11  2  0
  7  6  1  0
  8  7  2  0
  8  9  1  0
  9 10  2  0
 10 11  1  0
 12  5  1  0
 13 12  2  0
 14 13  1  0
 15 14  2  0
 15 16  1  0
 16 17  2  0
 17 12  1  0
  2 18  1  0
  2 19  1  0
  3 20  1  0
  3 21  1  0
  4 22  1  0
  4 23  1  0
  5 24  1  6
  6 25  1  0
  7 26  1  0
 10 27  1  0
 13 28  1  0
 14 29  1  0
 15 30  1  0
 16 31  1  0
 17 32  1  0
M  ISO  8  18  13  19  13  20  13  21  13  22  13  23  13  24  13  25  14
M  ISO  7  26  14  27  14  28  14  29  14  30  14  31  14  32  14
M  END
>  <minimizedAffinity>  (1) 
-4.61525488

>  <minimizedRMSD>  (1) 
0.458069116

$$$$
