
     RDKit          3D

 25 26  0  0  1  0  0  0  0  0999 V2000
   47.2500   34.6820   42.3170 N   0  0  0  0  0  0  0  0  0  0  0  0
   48.6810   34.8240   42.2900 C   0  0  0  0  0  0  0  0  0  0  0  0
   48.8660   35.5240   40.9620 C   0  0  0  0  0  0  0  0  0  0  0  0
   48.0320   34.6230   40.0700 C   0  0  0  0  0  0  0  0  0  0  0  0
   46.8670   34.3030   40.9510 C   0  0  1  0  0  0  0  0  0  0  0  0
   44.5000   35.9450   44.4860 C   0  0  0  0  0  0  0  0  0  0  0  0
   45.3680   35.8860   43.3700 C   0  0  0  0  0  0  0  0  0  0  0  0
   46.3310   34.8470   43.3690 C   0  0  0  0  0  0  0  0  0  0  0  0
   46.3660   33.9830   44.4190 N   0  0  0  0  0  0  0  0  0  0  0  0
   45.5110   34.0790   45.4700 C   0  0  0  0  0  0  0  0  0  0  0  0
   44.5860   35.0680   45.4830 N   0  0  0  0  0  0  0  0  0  0  0  0
   46.6190   32.8090   40.9080 C   0  0  0  0  0  0  0  0  0  0  0  0
   46.8910   32.2960   39.6340 F   0  0  0  0  0  0  0  0  0  0  0  0
   47.4500   32.1470   41.7910 F   0  0  0  0  0  0  0  0  0  0  0  0
   45.2880   32.5200   41.2060 F   0  0  0  0  0  0  0  0  0  0  0  0
   49.0435   35.4391   43.1268 H   0  0  0  0  0  0  0  0  0  0  0  0
   49.2364   33.8798   42.3907 H   0  0  0  0  0  0  0  0  0  0  0  0
   48.4745   36.5517   40.9843 H   0  0  0  0  0  0  0  0  0  0  0  0
   49.9122   35.6484   40.6459 H   0  0  0  0  0  0  0  0  0  0  0  0
   48.5847   33.7133   39.7926 H   0  0  0  0  0  0  0  0  0  0  0  0
   47.7496   35.0859   39.1129 H   0  0  0  0  0  0  0  0  0  0  0  0
   45.9602   34.8349   40.6274 H   0  0  0  0  0  0  0  0  0  0  0  0
   43.7357   36.7349   44.5304 H   0  0  0  0  0  0  0  0  0  0  0  0
   45.2985   36.6102   42.5450 H   0  0  0  0  0  0  0  0  0  0  0  0
   45.5693   33.3612   46.3015 H   0  0  0  0  0  0  0  0  0  0  0  0
  1  8  1  0
  2  1  1  0
  3  2  1  0
  4  5  1  0
  4  3  1  0
  5  1  1  0
  6 11  2  0
  7  6  1  0
  8  7  2  0
  8  9  1  0
  9 10  2  0
 10 11  1  0
 12  5  1  0
 12 15  1  0
 12 14  1  0
 13 12  1  0
  2 16  1  0
  2 17  1  0
  3 18  1  0
  3 19  1  0
  4 20  1  0
  4 21  1  0
  5 22  1  6
  6 23  1  0
  7 24  1  0
 10 25  1  0
M  ISO  8  16  13  17  13  18  13  19  13  20  13  21  13  22  13  23  14
M  ISO  2  24  14  25  14
M  END
>  <minimizedAffinity>  (1) 
-4.5767808

>  <minimizedRMSD>  (1) 
0.573184371

$$$$
