
     RDKit          3D

 29 31  0  0  1  0  0  0  0  0999 V2000
   47.2430   34.7090   42.3130 N   0  0  0  0  0  0  0  0  0  0  0  0
   48.6790   34.8210   42.2950 C   0  0  0  0  0  0  0  0  0  0  0  0
   48.8700   35.5250   40.9670 C   0  0  0  0  0  0  0  0  0  0  0  0
   48.0430   34.6020   40.0720 C   0  0  0  0  0  0  0  0  0  0  0  0
   46.8320   34.3970   40.9410 C   0  0  1  0  0  0  0  0  0  0  0  0
   44.5010   35.9330   44.4930 C   0  0  0  0  0  0  0  0  0  0  0  0
   45.3670   35.8660   43.4000 C   0  0  0  0  0  0  0  0  0  0  0  0
   46.3390   34.8500   43.3630 C   0  0  0  0  0  0  0  0  0  0  0  0
   46.3640   33.9910   44.4160 N   0  0  0  0  0  0  0  0  0  0  0  0
   45.5190   34.0640   45.4720 C   0  0  0  0  0  0  0  0  0  0  0  0
   44.5900   35.0480   45.4890 N   0  0  0  0  0  0  0  0  0  0  0  0
   46.2220   33.0610   40.8420 C   0  0  0  0  0  0  0  0  0  0  0  0
   46.9160   31.8720   40.6610 C   0  0  0  0  0  0  0  0  0  0  0  0
   45.9850   30.8550   40.6200 C   0  0  0  0  0  0  0  0  0  0  0  0
   44.7470   31.4700   40.7780 C   0  0  0  0  0  0  0  0  0  0  0  0
   44.9650   32.7520   40.9010 O   0  0  0  0  0  0  0  0  0  0  0  0
   49.0521   35.4253   43.1350 H   0  0  0  0  0  0  0  0  0  0  0  0
   49.2198   33.8686   42.3971 H   0  0  0  0  0  0  0  0  0  0  0  0
   48.4681   36.5488   40.9836 H   0  0  0  0  0  0  0  0  0  0  0  0
   49.9161   35.6645   40.6568 H   0  0  0  0  0  0  0  0  0  0  0  0
   48.5651   33.6547   39.8718 H   0  0  0  0  0  0  0  0  0  0  0  0
   47.8280   35.0037   39.0708 H   0  0  0  0  0  0  0  0  0  0  0  0
   46.0300   35.0646   40.5930 H   0  0  0  0  0  0  0  0  0  0  0  0
   43.7371   36.7234   44.5342 H   0  0  0  0  0  0  0  0  0  0  0  0
   45.2904   36.5961   42.5808 H   0  0  0  0  0  0  0  0  0  0  0  0
   45.5863   33.3398   46.2972 H   0  0  0  0  0  0  0  0  0  0  0  0
   48.0064   31.7615   40.5676 H   0  0  0  0  0  0  0  0  0  0  0  0
   46.1808   29.7805   40.4894 H   0  0  0  0  0  0  0  0  0  0  0  0
   43.7674   30.9699   40.7960 H   0  0  0  0  0  0  0  0  0  0  0  0
  1  8  1  0
  2  1  1  0
  3  2  1  0
  4  5  1  0
  4  3  1  0
  5  1  1  0
  6 11  2  0
  7  6  1  0
  8  7  2  0
  8  9  1  0
  9 10  2  0
 10 11  1  0
 12 16  1  0
 12  5  1  0
 13 12  2  0
 14 13  1  0
 14 15  2  0
 15 16  1  0
  2 17  1  0
  2 18  1  0
  3 19  1  0
  3 20  1  0
  4 21  1  0
  4 22  1  0
  5 23  1  6
  6 24  1  0
  7 25  1  0
 10 26  1  0
 13 27  1  0
 14 28  1  0
 15 29  1  0
M  ISO  8  17  13  18  13  19  13  20  13  21  13  22  13  23  13  24  14
M  ISO  5  25  14  26  14  27  14  28  14  29  14
M  END
>  <minimizedAffinity>  (1) 
-4.57555676

>  <minimizedRMSD>  (1) 
0.375644177

$$$$
