
     RDKit          3D

 29 31  0  0  1  0  0  0  0  0999 V2000
   47.2270   34.6850   42.2950 N   0  0  0  0  0  0  0  0  0  0  0  0
   48.6710   34.7560   42.2930 C   0  0  0  0  0  0  0  0  0  0  0  0
   48.8870   35.5050   40.9830 C   0  0  0  0  0  0  0  0  0  0  0  0
   48.0320   34.6460   40.0630 C   0  0  0  0  0  0  0  0  0  0  0  0
   46.8290   34.3880   40.9150 C   0  0  1  0  0  0  0  0  0  0  0  0
   44.5040   35.9570   44.4830 C   0  0  0  0  0  0  0  0  0  0  0  0
   45.3650   35.8740   43.3870 C   0  0  0  0  0  0  0  0  0  0  0  0
   46.3250   34.8510   43.3440 C   0  0  0  0  0  0  0  0  0  0  0  0
   46.3430   33.9980   44.4000 N   0  0  0  0  0  0  0  0  0  0  0  0
   45.4950   34.0980   45.4580 C   0  0  0  0  0  0  0  0  0  0  0  0
   44.5810   35.0810   45.4860 N   0  0  0  0  0  0  0  0  0  0  0  0
   46.3190   32.9950   40.8030 C   0  0  0  0  0  0  0  0  0  0  0  0
   47.0810   31.8350   40.6190 C   0  0  0  0  0  0  0  0  0  0  0  0
   46.1430   30.8250   40.5790 C   0  0  0  0  0  0  0  0  0  0  0  0
   44.8920   31.3420   40.7300 N   0  0  0  0  0  0  0  0  0  0  0  0
   45.0050   32.6380   40.8620 N   0  0  0  0  0  0  0  0  0  0  0  0
   49.0549   35.3201   43.1558 H   0  0  0  0  0  0  0  0  0  0  0  0
   49.1865   33.7871   42.3677 H   0  0  0  0  0  0  0  0  0  0  0  0
   48.5203   36.5407   41.0365 H   0  0  0  0  0  0  0  0  0  0  0  0
   49.9369   35.6208   40.6759 H   0  0  0  0  0  0  0  0  0  0  0  0
   48.5444   33.7090   39.7993 H   0  0  0  0  0  0  0  0  0  0  0  0
   47.8008   35.1208   39.0981 H   0  0  0  0  0  0  0  0  0  0  0  0
   45.9978   35.0252   40.5787 H   0  0  0  0  0  0  0  0  0  0  0  0
   43.7503   36.7574   44.5199 H   0  0  0  0  0  0  0  0  0  0  0  0
   45.2917   36.6025   42.5661 H   0  0  0  0  0  0  0  0  0  0  0  0
   45.5574   33.3773   46.2867 H   0  0  0  0  0  0  0  0  0  0  0  0
   48.1738   31.7492   40.5276 H   0  0  0  0  0  0  0  0  0  0  0  0
   46.3717   29.7575   40.4447 H   0  0  0  0  0  0  0  0  0  0  0  0
   44.0122   30.8066   40.7387 H   0  0  0  0  0  0  0  0  0  0  0  0
  1  8  1  0
  2  1  1  0
  3  2  1  0
  4  5  1  0
  4  3  1  0
  5  1  1  0
  6 11  2  0
  7  6  1  0
  8  7  2  0
  8  9  1  0
  9 10  2  0
 10 11  1  0
 12 16  2  0
 12  5  1  0
 13 12  1  0
 14 13  2  0
 14 15  1  0
 15 16  1  0
  2 17  1  0
  2 18  1  0
  3 19  1  0
  3 20  1  0
  4 21  1  0
  4 22  1  0
  5 23  1  6
  6 24  1  0
  7 25  1  0
 10 26  1  0
 13 27  1  0
 14 28  1  0
 15 29  1  0
M  ISO  8  17  13  18  13  19  13  20  13  21  13  22  13  23  13  24  14
M  ISO  5  25  14  26  14  27  14  28  14  29   9
M  END
>  <minimizedAffinity>  (1) 
-4.57216597

>  <minimizedRMSD>  (1) 
0.549463272

$$$$
