
     RDKit          3D

 25 26  0  0  1  0  0  0  0  0999 V2000
   47.2270   34.6790   42.2970 N   0  0  0  0  0  0  0  0  0  0  0  0
   48.6760   34.8390   42.2890 C   0  0  0  0  0  0  0  0  0  0  0  0
   48.8700   35.5080   40.9570 C   0  0  0  0  0  0  0  0  0  0  0  0
   48.0290   34.6400   40.0550 C   0  0  0  0  0  0  0  0  0  0  0  0
   46.8540   34.2980   40.9410 C   0  0  1  0  0  0  0  0  0  0  0  0
   44.5000   35.9570   44.4790 C   0  0  0  0  0  0  0  0  0  0  0  0
   45.3600   35.8750   43.3770 C   0  0  0  0  0  0  0  0  0  0  0  0
   46.3300   34.8420   43.3460 C   0  0  0  0  0  0  0  0  0  0  0  0
   46.3530   33.9910   44.4070 N   0  0  0  0  0  0  0  0  0  0  0  0
   45.5110   34.0880   45.4630 C   0  0  0  0  0  0  0  0  0  0  0  0
   44.5880   35.0770   45.4870 N   0  0  0  0  0  0  0  0  0  0  0  0
   46.7100   32.7790   40.9760 C   0  0  0  0  0  0  0  0  0  0  0  0
   49.0188   35.4764   43.1174 H   0  0  0  0  0  0  0  0  0  0  0  0
   49.2412   33.9044   42.4193 H   0  0  0  0  0  0  0  0  0  0  0  0
   48.5034   36.5450   40.9717 H   0  0  0  0  0  0  0  0  0  0  0  0
   49.9221   35.5884   40.6461 H   0  0  0  0  0  0  0  0  0  0  0  0
   48.5752   33.7349   39.7507 H   0  0  0  0  0  0  0  0  0  0  0  0
   47.7423   35.1311   39.1134 H   0  0  0  0  0  0  0  0  0  0  0  0
   45.9388   34.7924   40.5833 H   0  0  0  0  0  0  0  0  0  0  0  0
   43.7424   36.7536   44.5183 H   0  0  0  0  0  0  0  0  0  0  0  0
   45.2843   36.5981   42.5515 H   0  0  0  0  0  0  0  0  0  0  0  0
   45.5768   33.3696   46.2934 H   0  0  0  0  0  0  0  0  0  0  0  0
   46.6776   32.4377   42.0212 H   0  0  0  0  0  0  0  0  0  0  0  0
   45.7801   32.4870   40.4660 H   0  0  0  0  0  0  0  0  0  0  0  0
   47.5684   32.3175   40.4660 H   0  0  0  0  0  0  0  0  0  0  0  0
  1  8  1  0
  2  1  1  0
  3  2  1  0
  4  5  1  0
  4  3  1  0
  5 12  1  0
  5  1  1  0
  6 11  2  0
  7  6  1  0
  8  7  2  0
  8  9  1  0
  9 10  2  0
 10 11  1  0
  2 13  1  0
  2 14  1  0
  3 15  1  0
  3 16  1  0
  4 17  1  0
  4 18  1  0
  5 19  1  6
  6 20  1  0
  7 21  1  0
 10 22  1  0
 12 23  1  0
 12 24  1  0
 12 25  1  0
M  ISO  8  13  13  14  13  15  13  16  13  17  13  18  13  19  13  20  14
M  ISO  5  21  14  22  14  23   8  24   8  25   8
M  END
>  <minimizedAffinity>  (1) 
-4.49228334

>  <minimizedRMSD>  (1) 
0.0172680318

$$$$
