
     RDKit          3D

 29 31  0  0  1  0  0  0  0  0999 V2000
   47.2400   34.6720   42.3080 N   0  0  0  0  0  0  0  0  0  0  0  0
   48.6740   34.7560   42.2880 C   0  0  0  0  0  0  0  0  0  0  0  0
   48.8790   35.5120   40.9790 C   0  0  0  0  0  0  0  0  0  0  0  0
   48.0310   34.6280   40.0690 C   0  0  0  0  0  0  0  0  0  0  0  0
   46.8400   34.3650   40.9280 C   0  0  1  0  0  0  0  0  0  0  0  0
   44.4950   35.9350   44.4900 C   0  0  0  0  0  0  0  0  0  0  0  0
   45.3600   35.8710   43.3710 C   0  0  0  0  0  0  0  0  0  0  0  0
   46.3320   34.8330   43.3610 C   0  0  0  0  0  0  0  0  0  0  0  0
   46.3580   33.9850   44.4210 N   0  0  0  0  0  0  0  0  0  0  0  0
   45.5120   34.0880   45.4670 C   0  0  0  0  0  0  0  0  0  0  0  0
   44.5930   35.0550   45.4940 N   0  0  0  0  0  0  0  0  0  0  0  0
   46.3490   32.9430   40.9160 C   0  0  0  0  0  0  0  0  0  0  0  0
   46.1290   32.3010   39.5530 C   0  0  0  0  0  0  0  0  0  0  0  0
   47.1670   31.7900   40.5490 C   0  0  0  0  0  0  0  0  0  0  0  0
   49.0616   35.3195   43.1495 H   0  0  0  0  0  0  0  0  0  0  0  0
   49.1948   33.7891   42.3501 H   0  0  0  0  0  0  0  0  0  0  0  0
   48.4951   36.5415   41.0310 H   0  0  0  0  0  0  0  0  0  0  0  0
   49.9248   35.6519   40.6680 H   0  0  0  0  0  0  0  0  0  0  0  0
   48.5553   33.6953   39.8139 H   0  0  0  0  0  0  0  0  0  0  0  0
   47.7896   35.0870   39.0990 H   0  0  0  0  0  0  0  0  0  0  0  0
   46.0188   34.9829   40.5358 H   0  0  0  0  0  0  0  0  0  0  0  0
   43.7282   36.7224   44.5352 H   0  0  0  0  0  0  0  0  0  0  0  0
   45.2835   36.5932   42.5448 H   0  0  0  0  0  0  0  0  0  0  0  0
   45.5801   33.3727   46.2999 H   0  0  0  0  0  0  0  0  0  0  0  0
   45.7596   33.1542   41.8204 H   0  0  0  0  0  0  0  0  0  0  0  0
   46.4446   32.8189   38.6353 H   0  0  0  0  0  0  0  0  0  0  0  0
   45.2762   31.8730   39.0056 H   0  0  0  0  0  0  0  0  0  0  0  0
   47.0107   30.8258   41.0549 H   0  0  0  0  0  0  0  0  0  0  0  0
   48.2488   31.5962   40.5030 H   0  0  0  0  0  0  0  0  0  0  0  0
  1  8  1  0
  2  1  1  0
  3  2  1  0
  4  5  1  0
  4  3  1  0
  5  1  1  0
  6 11  2  0
  7  6  1  0
  8  7  2  0
  8  9  1  0
  9 10  2  0
 10 11  1  0
 12  5  1  0
 13 14  1  0
 13 12  1  0
 14 12  1  0
  2 15  1  0
  2 16  1  0
  3 17  1  0
  3 18  1  0
  4 19  1  0
  4 20  1  0
  5 21  1  6
  6 22  1  0
  7 23  1  0
 10 24  1  0
 12 25  1  0
 13 26  1  0
 13 27  1  0
 14 28  1  0
 14 29  1  0
M  ISO  8  15  13  16  13  17  13  18  13  19  13  20  13  21  13  22  14
M  ISO  7  23  14  24  14  25  13  26  13  27  13  28  13  29  13
M  END
>  <minimizedAffinity>  (1) 
-4.47709227

>  <minimizedRMSD>  (1) 
0.979687035

$$$$
