
     RDKit          3D

 23 24  0  0  1  0  0  0  0  0999 V2000
   47.2170   34.6760   42.2770 N   0  0  0  0  0  0  0  0  0  0  0  0
   48.6710   34.8310   42.2950 C   0  0  0  0  0  0  0  0  0  0  0  0
   48.8590   35.5270   40.9590 C   0  0  0  0  0  0  0  0  0  0  0  0
   48.0560   34.6070   40.0660 C   0  0  0  0  0  0  0  0  0  0  0  0
   46.8400   34.3110   40.9290 C   0  0  1  0  0  0  0  0  0  0  0  0
   44.5080   35.9650   44.4890 C   0  0  0  0  0  0  0  0  0  0  0  0
   45.3600   35.8830   43.3840 C   0  0  0  0  0  0  0  0  0  0  0  0
   46.3210   34.8400   43.3370 C   0  0  0  0  0  0  0  0  0  0  0  0
   46.3360   33.9880   44.3960 N   0  0  0  0  0  0  0  0  0  0  0  0
   45.5080   34.0820   45.4560 C   0  0  0  0  0  0  0  0  0  0  0  0
   44.5920   35.0770   45.4940 N   0  0  0  0  0  0  0  0  0  0  0  0
   46.3940   33.0090   40.8040 O   0  0  0  0  0  0  0  0  0  0  0  0
   49.0077   35.4559   43.1353 H   0  0  0  0  0  0  0  0  0  0  0  0
   49.2419   33.8998   42.4249 H   0  0  0  0  0  0  0  0  0  0  0  0
   48.4476   36.5471   40.9690 H   0  0  0  0  0  0  0  0  0  0  0  0
   49.9065   35.6688   40.6546 H   0  0  0  0  0  0  0  0  0  0  0  0
   48.6143   33.6882   39.8335 H   0  0  0  0  0  0  0  0  0  0  0  0
   47.8093   35.0434   39.0869 H   0  0  0  0  0  0  0  0  0  0  0  0
   45.9671   34.8968   40.6051 H   0  0  0  0  0  0  0  0  0  0  0  0
   43.7578   36.7681   44.5366 H   0  0  0  0  0  0  0  0  0  0  0  0
   45.2869   36.6140   42.5653 H   0  0  0  0  0  0  0  0  0  0  0  0
   45.5765   33.3576   46.2809 H   0  0  0  0  0  0  0  0  0  0  0  0
   46.2601   32.6182   41.7037 H   0  0  0  0  0  0  0  0  0  0  0  0
  1  2  1  0
  1  8  1  0
  3  2  1  0
  4  5  1  0
  4  3  1  0
  5  1  1  0
  6 11  2  0
  7  6  1  0
  8  7  2  0
  8  9  1  0
  9 10  2  0
 10 11  1  0
 12  5  1  0
  2 13  1  0
  2 14  1  0
  3 15  1  0
  3 16  1  0
  4 17  1  0
  4 18  1  0
  5 19  1  6
  6 20  1  0
  7 21  1  0
 10 22  1  0
 12 23  1  0
M  ISO  8  13  13  14  13  15  13  16  13  17  13  18  13  19  13  20  14
M  ISO  3  21  14  22  14  23   3
M  END
>  <minimizedAffinity>  (1) 
-4.52397156

>  <minimizedRMSD>  (1) 
0.0148586417

$$$$
