
     RDKit          3D

 39 41  0  0  1  0  0  0  0  0999 V2000
   47.0320   34.5400   42.3340 N   0  0  0  0  0  0  0  0  0  0  0  0
   48.4860   34.7050   42.2650 C   0  0  0  0  0  0  0  0  0  0  0  0
   48.5890   35.3380   40.8870 C   0  0  0  0  0  0  0  0  0  0  0  0
   47.7350   34.3870   40.0930 C   0  0  0  0  0  0  0  0  0  0  0  0
   46.5660   34.1140   41.0330 C   0  0  1  0  0  0  0  0  0  0  0  0
   44.4970   35.9680   44.6700 C   0  0  0  0  0  0  0  0  0  0  0  0
   45.2820   35.8340   43.5200 C   0  0  0  0  0  0  0  0  0  0  0  0
   46.2060   34.7510   43.4490 C   0  0  0  0  0  0  0  0  0  0  0  0
   46.2440   33.9310   44.5210 N   0  0  0  0  0  0  0  0  0  0  0  0
   45.4820   34.0730   45.6210 C   0  0  0  0  0  0  0  0  0  0  0  0
   44.6100   35.0980   45.6830 N   0  0  0  0  0  0  0  0  0  0  0  0
   46.1460   32.8090   40.9940 O   0  0  0  0  0  0  0  0  0  0  0  0
   44.8110   32.7080   40.6860 C   0  0  0  0  0  0  0  0  0  0  0  0
   44.4130   33.9340   39.9110 C   0  0  0  0  0  0  0  0  0  0  0  0
   43.4200   34.8070   40.6260 C   0  0  0  0  0  0  0  0  0  0  0  0
   42.2520   34.0610   41.1930 C   0  0  0  0  0  0  0  0  0  0  0  0
   42.5250   32.6220   41.4950 C   0  0  0  0  0  0  0  0  0  0  0  0
   43.9600   32.5110   41.9430 C   0  0  0  0  0  0  0  0  0  0  0  0
   48.8632   35.3718   43.0543 H   0  0  0  0  0  0  0  0  0  0  0  0
   49.0735   33.7861   42.4083 H   0  0  0  0  0  0  0  0  0  0  0  0
   48.1800   36.3591   40.8761 H   0  0  0  0  0  0  0  0  0  0  0  0
   49.6154   35.4605   40.5109 H   0  0  0  0  0  0  0  0  0  0  0  0
   47.3904   34.8514   39.1573 H   0  0  0  0  0  0  0  0  0  0  0  0
   48.2689   33.4752   39.7872 H   0  0  0  0  0  0  0  0  0  0  0  0
   45.6614   34.6663   40.7386 H   0  0  0  0  0  0  0  0  0  0  0  0
   43.7783   36.7975   44.7437 H   0  0  0  0  0  0  0  0  0  0  0  0
   45.1883   36.5485   42.6889 H   0  0  0  0  0  0  0  0  0  0  0  0
   45.5698   33.3631   46.4567 H   0  0  0  0  0  0  0  0  0  0  0  0
   44.6339   31.8176   40.0649 H   0  0  0  0  0  0  0  0  0  0  0  0
   43.9689   33.6126   38.9573 H   0  0  0  0  0  0  0  0  0  0  0  0
   45.3241   34.5339   39.7698 H   0  0  0  0  0  0  0  0  0  0  0  0
   43.9386   35.3169   41.4512 H   0  0  0  0  0  0  0  0  0  0  0  0
   43.0183   35.5092   39.8807 H   0  0  0  0  0  0  0  0  0  0  0  0
   41.9477   34.5567   42.1267 H   0  0  0  0  0  0  0  0  0  0  0  0
   41.4663   34.0764   40.4233 H   0  0  0  0  0  0  0  0  0  0  0  0
   41.8550   32.2736   42.2948 H   0  0  0  0  0  0  0  0  0  0  0  0
   42.3511   32.0019   40.6032 H   0  0  0  0  0  0  0  0  0  0  0  0
   44.1482   31.5194   42.3804 H   0  0  0  0  0  0  0  0  0  0  0  0
   44.2004   33.2584   42.7135 H   0  0  0  0  0  0  0  0  0  0  0  0
  1  8  1  0
  2  1  1  0
  3  2  1  0
  4  3  1  0
  4  5  1  0
  5  1  1  0
  6 11  2  0
  7  6  1  0
  8  7  2  0
  8  9  1  0
  9 10  2  0
 10 11  1  0
 12  5  1  0
 13 12  1  0
 13 18  1  0
 14 15  1  0
 14 13  1  0
 15 16  1  0
 16 17  1  0
 17 18  1  0
  2 19  1  0
  2 20  1  0
  3 21  1  0
  3 22  1  0
  4 23  1  0
  4 24  1  0
  5 25  1  6
  6 26  1  0
  7 27  1  0
 10 28  1  0
 13 29  1  0
 14 30  1  0
 14 31  1  0
 15 32  1  0
 15 33  1  0
 16 34  1  0
 16 35  1  0
 17 36  1  0
 17 37  1  0
 18 38  1  0
 18 39  1  0
M  ISO  8  19  13  20  13  21  13  22  13  23  13  24  13  25  13  26  14
M  ISO  8  27  14  28  14  29  13  30  13  31  13  32  13  33  13  34  13
M  ISO  5  35  13  36  13  37  13  38  13  39  13
M  END
>  <minimizedAffinity>  (1) 
-5.11541462

>  <minimizedRMSD>  (1) 
0.326447248

$$$$
