
     RDKit          3D

 33 35  0  0  1  0  0  0  0  0999 V2000
   46.8860   34.3180   42.4750 N   0  0  0  0  0  0  0  0  0  0  0  0
   48.2630   33.8490   42.4150 C   0  0  0  0  0  0  0  0  0  0  0  0
   48.7670   34.6940   41.2620 C   0  0  0  0  0  0  0  0  0  0  0  0
   47.6760   34.4580   40.2550 C   0  0  0  0  0  0  0  0  0  0  0  0
   46.4160   34.4760   41.1060 C   0  0  1  0  0  0  0  0  0  0  0  0
   44.4940   35.8730   44.8820 C   0  0  0  0  0  0  0  0  0  0  0  0
   45.2290   35.6870   43.7070 C   0  0  0  0  0  0  0  0  0  0  0  0
   46.1080   34.5860   43.6140 C   0  0  0  0  0  0  0  0  0  0  0  0
   46.1750   33.7730   44.6930 N   0  0  0  0  0  0  0  0  0  0  0  0
   45.4650   33.9570   45.8230 C   0  0  0  0  0  0  0  0  0  0  0  0
   44.6240   35.0120   45.9090 N   0  0  0  0  0  0  0  0  0  0  0  0
   45.4890   33.5390   40.7270 O   0  0  0  0  0  0  0  0  0  0  0  0
   44.2860   33.7530   40.0970 C   0  0  0  0  0  0  0  0  0  0  0  0
   43.6030   34.8330   40.6690 C   0  0  0  0  0  0  0  0  0  0  0  0
   42.3650   35.2450   40.2090 C   0  0  0  0  0  0  0  0  0  0  0  0
   41.7800   34.5720   39.1490 C   0  0  0  0  0  0  0  0  0  0  0  0
   42.4500   33.5090   38.5860 C   0  0  0  0  0  0  0  0  0  0  0  0
   43.6830   33.0960   39.0430 C   0  0  0  0  0  0  0  0  0  0  0  0
   48.8087   34.0592   43.3467 H   0  0  0  0  0  0  0  0  0  0  0  0
   48.3818   32.7631   42.2857 H   0  0  0  0  0  0  0  0  0  0  0  0
   48.8420   35.7560   41.5387 H   0  0  0  0  0  0  0  0  0  0  0  0
   49.7780   34.4377   40.9124 H   0  0  0  0  0  0  0  0  0  0  0  0
   47.8022   33.4860   39.7558 H   0  0  0  0  0  0  0  0  0  0  0  0
   47.6637   35.2034   39.4462 H   0  0  0  0  0  0  0  0  0  0  0  0
   45.8593   35.4168   40.9840 H   0  0  0  0  0  0  0  0  0  0  0  0
   43.8061   36.7271   44.9677 H   0  0  0  0  0  0  0  0  0  0  0  0
   45.1238   36.3889   42.8666 H   0  0  0  0  0  0  0  0  0  0  0  0
   45.5683   33.2573   46.6655 H   0  0  0  0  0  0  0  0  0  0  0  0
   44.0650   35.3706   41.5102 H   0  0  0  0  0  0  0  0  0  0  0  0
   41.8515   36.0966   40.6793 H   0  0  0  0  0  0  0  0  0  0  0  0
   40.7972   34.8814   38.7637 H   0  0  0  0  0  0  0  0  0  0  0  0
   41.9866   32.9724   37.7449 H   0  0  0  0  0  0  0  0  0  0  0  0
   44.1872   32.2419   38.5674 H   0  0  0  0  0  0  0  0  0  0  0  0
  1  8  1  0
  2  1  1  0
  3  2  1  0
  4  5  1  0
  4  3  1  0
  5  1  1  0
  6 11  2  0
  7  6  1  0
  8  7  2  0
  8  9  1  0
  9 10  2  0
 10 11  1  0
 12  5  1  0
 13 14  2  0
 13 12  1  0
 15 14  1  0
 16 15  2  0
 17 18  2  0
 17 16  1  0
 18 13  1  0
  2 19  1  0
  2 20  1  0
  3 21  1  0
  3 22  1  0
  4 23  1  0
  4 24  1  0
  5 25  1  1
  6 26  1  0
  7 27  1  0
 10 28  1  0
 14 29  1  0
 15 30  1  0
 16 31  1  0
 17 32  1  0
 18 33  1  0
M  ISO  8  19  13  20  13  21  13  22  13  23  13  24  13  25  13  26  14
M  ISO  7  27  14  28  14  29  14  30  14  31  14  32  14  33  14
M  END
>  <minimizedAffinity>  (1) 
-5.11105919

>  <minimizedRMSD>  (1) 
1.33861494

$$$$
