
     RDKit          3D

 31 33  0  0  1  0  0  0  0  0999 V2000
   47.1760   34.4450   42.6470 N   0  0  0  0  0  0  0  0  0  0  0  0
   48.5770   34.0560   42.6920 C   0  0  0  0  0  0  0  0  0  0  0  0
   49.1140   34.9920   41.6210 C   0  0  0  0  0  0  0  0  0  0  0  0
   48.1230   34.7260   40.5060 C   0  0  0  0  0  0  0  0  0  0  0  0
   46.8030   34.6420   41.2540 C   0  0  1  0  0  0  0  0  0  0  0  0
   44.4940   35.7280   44.9080 C   0  0  0  0  0  0  0  0  0  0  0  0
   45.3260   35.6330   43.7980 C   0  0  0  0  0  0  0  0  0  0  0  0
   46.2970   34.6140   43.7270 C   0  0  0  0  0  0  0  0  0  0  0  0
   46.3430   33.7690   44.7980 N   0  0  0  0  0  0  0  0  0  0  0  0
   45.5350   33.8640   45.8700 C   0  0  0  0  0  0  0  0  0  0  0  0
   44.6120   34.8500   45.9170 N   0  0  0  0  0  0  0  0  0  0  0  0
   45.9650   33.6810   40.7630 O   0  0  0  0  0  0  0  0  0  0  0  0
   44.7650   33.8000   40.1100 C   0  0  0  0  0  0  0  0  0  0  0  0
   43.8600   34.7000   40.6880 C   0  0  0  0  0  0  0  0  0  0  0  0
   42.6350   34.8220   40.0230 C   0  0  0  0  0  0  0  0  0  0  0  0
   42.3040   34.1580   38.9230 N   0  0  0  0  0  0  0  0  0  0  0  0
   43.1960   33.3110   38.4050 C   0  0  0  0  0  0  0  0  0  0  0  0
   44.3960   33.1400   38.9910 N   0  0  0  0  0  0  0  0  0  0  0  0
   49.0286   34.2515   43.6758 H   0  0  0  0  0  0  0  0  0  0  0  0
   48.7779   32.9865   42.5317 H   0  0  0  0  0  0  0  0  0  0  0  0
   49.0868   36.0421   41.9475 H   0  0  0  0  0  0  0  0  0  0  0  0
   50.1670   34.8252   41.3501 H   0  0  0  0  0  0  0  0  0  0  0  0
   48.3488   33.7810   39.9903 H   0  0  0  0  0  0  0  0  0  0  0  0
   48.1328   35.4931   39.7177 H   0  0  0  0  0  0  0  0  0  0  0  0
   46.2053   35.5572   41.1308 H   0  0  0  0  0  0  0  0  0  0  0  0
   43.7371   36.5245   44.9597 H   0  0  0  0  0  0  0  0  0  0  0  0
   45.2261   36.3545   42.9737 H   0  0  0  0  0  0  0  0  0  0  0  0
   45.6249   33.1467   46.6991 H   0  0  0  0  0  0  0  0  0  0  0  0
   44.0956   35.2697   41.5990 H   0  0  0  0  0  0  0  0  0  0  0  0
   41.8935   35.5181   40.4420 H   0  0  0  0  0  0  0  0  0  0  0  0
   42.9489   32.7485   37.4926 H   0  0  0  0  0  0  0  0  0  0  0  0
  1  2  1  0
  1  8  1  0
  3  2  1  0
  4  5  1  0
  4  3  1  0
  5  1  1  0
  6 11  2  0
  7  6  1  0
  8  7  2  0
  8  9  1  0
  9 10  2  0
 10 11  1  0
 12  5  1  0
 13 14  2  0
 13 12  1  0
 15 14  1  0
 16 15  2  0
 17 16  1  0
 17 18  2  0
 18 13  1  0
  2 19  1  0
  2 20  1  0
  3 21  1  0
  3 22  1  0
  4 23  1  0
  4 24  1  0
  5 25  1  1
  6 26  1  0
  7 27  1  0
 10 28  1  0
 14 29  1  0
 15 30  1  0
 17 31  1  0
M  ISO  8  19  13  20  13  21  13  22  13  23  13  24  13  25  13  26  14
M  ISO  5  27  14  28  14  29  14  30  14  31  14
M  END
>  <minimizedAffinity>  (1) 
-4.99043274

>  <minimizedRMSD>  (1) 
1.29670489

$$$$
