
     RDKit          3D

 30 32  0  0  1  0  0  0  0  0999 V2000
   47.1710   34.5860   42.5240 N   0  0  0  0  0  0  0  0  0  0  0  0
   48.6170   34.3680   42.5800 C   0  0  0  0  0  0  0  0  0  0  0  0
   49.0440   35.2280   41.4100 C   0  0  0  0  0  0  0  0  0  0  0  0
   48.0780   34.7420   40.3550 C   0  0  0  0  0  0  0  0  0  0  0  0
   46.7800   34.6060   41.1420 C   0  0  1  0  0  0  0  0  0  0  0  0
   44.4960   35.8650   44.7720 C   0  0  0  0  0  0  0  0  0  0  0  0
   45.3280   35.7910   43.6540 C   0  0  0  0  0  0  0  0  0  0  0  0
   46.2850   34.7520   43.6010 C   0  0  0  0  0  0  0  0  0  0  0  0
   46.3170   33.8920   44.6630 N   0  0  0  0  0  0  0  0  0  0  0  0
   45.5030   33.9870   45.7270 C   0  0  0  0  0  0  0  0  0  0  0  0
   44.5820   34.9890   45.7760 N   0  0  0  0  0  0  0  0  0  0  0  0
   46.0370   33.5120   40.7380 O   0  0  0  0  0  0  0  0  0  0  0  0
   44.8220   33.7050   40.0920 C   0  0  0  0  0  0  0  0  0  0  0  0
   43.8530   34.5310   40.6100 C   0  0  0  0  0  0  0  0  0  0  0  0
   42.7800   34.5090   39.7420 C   0  0  0  0  0  0  0  0  0  0  0  0
   43.1510   33.6520   38.7110 C   0  0  0  0  0  0  0  0  0  0  0  0
   44.3560   33.2140   38.9710 O   0  0  0  0  0  0  0  0  0  0  0  0
   49.0489   34.7210   43.5281 H   0  0  0  0  0  0  0  0  0  0  0  0
   48.9345   33.3161   42.5287 H   0  0  0  0  0  0  0  0  0  0  0  0
   48.9111   36.2992   41.6217 H   0  0  0  0  0  0  0  0  0  0  0  0
   50.1063   35.1425   41.1377 H   0  0  0  0  0  0  0  0  0  0  0  0
   48.3954   33.7742   39.9396 H   0  0  0  0  0  0  0  0  0  0  0  0
   47.9989   35.4132   39.4871 H   0  0  0  0  0  0  0  0  0  0  0  0
   46.0922   35.4454   40.9619 H   0  0  0  0  0  0  0  0  0  0  0  0
   43.7472   36.6688   44.8277 H   0  0  0  0  0  0  0  0  0  0  0  0
   45.2414   36.5215   42.8361 H   0  0  0  0  0  0  0  0  0  0  0  0
   45.5795   33.2624   46.5510 H   0  0  0  0  0  0  0  0  0  0  0  0
   43.9204   35.1050   41.5459 H   0  0  0  0  0  0  0  0  0  0  0  0
   41.8304   35.0548   39.8441 H   0  0  0  0  0  0  0  0  0  0  0  0
   42.5406   33.3896   37.8343 H   0  0  0  0  0  0  0  0  0  0  0  0
  1  2  1  0
  1  8  1  0
  3  2  1  0
  4  5  1  0
  4  3  1  0
  5  1  1  0
  6 11  2  0
  7  6  1  0
  8  7  2  0
  8  9  1  0
  9 10  2  0
 10 11  1  0
 12  5  1  0
 13 14  2  0
 13 12  1  0
 15 14  1  0
 16 17  1  0
 16 15  2  0
 17 13  1  0
  2 18  1  0
  2 19  1  0
  3 20  1  0
  3 21  1  0
  4 22  1  0
  4 23  1  0
  5 24  1  1
  6 25  1  0
  7 26  1  0
 10 27  1  0
 14 28  1  0
 15 29  1  0
 16 30  1  0
M  ISO  8  18  13  19  13  20  13  21  13  22  13  23  13  24  13  25  14
M  ISO  5  26  14  27  14  28  14  29  14  30  14
M  END
>  <minimizedAffinity>  (1) 
-4.91386461

>  <minimizedRMSD>  (1) 
0.817669332

$$$$
