
     RDKit          3D

 30 32  0  0  1  0  0  0  0  0999 V2000
   46.8680   34.3080   42.3410 N   0  0  0  0  0  0  0  0  0  0  0  0
   48.2390   33.7760   42.3060 C   0  0  0  0  0  0  0  0  0  0  0  0
   48.7800   34.6150   41.1530 C   0  0  0  0  0  0  0  0  0  0  0  0
   47.6950   34.3730   40.1350 C   0  0  0  0  0  0  0  0  0  0  0  0
   46.4310   34.4820   40.9820 C   0  0  1  0  0  0  0  0  0  0  0  0
   44.4890   35.9150   44.7120 C   0  0  0  0  0  0  0  0  0  0  0  0
   45.2170   35.7020   43.5350 C   0  0  0  0  0  0  0  0  0  0  0  0
   46.0990   34.6030   43.4700 C   0  0  0  0  0  0  0  0  0  0  0  0
   46.1610   33.8320   44.5860 N   0  0  0  0  0  0  0  0  0  0  0  0
   45.4610   34.0390   45.7160 C   0  0  0  0  0  0  0  0  0  0  0  0
   44.6170   35.0950   45.7710 N   0  0  0  0  0  0  0  0  0  0  0  0
   45.4700   33.5760   40.5960 O   0  0  0  0  0  0  0  0  0  0  0  0
   44.3730   33.7600   39.7840 C   0  0  0  0  0  0  0  0  0  0  0  0
   43.3080   34.5700   40.1790 C   0  0  0  0  0  0  0  0  0  0  0  0
   42.3980   34.5410   39.1660 C   0  0  0  0  0  0  0  0  0  0  0  0
   42.8880   33.7430   38.1880 N   0  0  0  0  0  0  0  0  0  0  0  0
   44.0750   33.2710   38.5530 N   0  0  0  0  0  0  0  0  0  0  0  0
   48.7804   33.9644   43.2448 H   0  0  0  0  0  0  0  0  0  0  0  0
   48.3247   32.6862   42.1839 H   0  0  0  0  0  0  0  0  0  0  0  0
   48.8597   35.6786   41.4221 H   0  0  0  0  0  0  0  0  0  0  0  0
   49.7966   34.3551   40.8230 H   0  0  0  0  0  0  0  0  0  0  0  0
   47.7875   33.3746   39.6827 H   0  0  0  0  0  0  0  0  0  0  0  0
   47.7206   35.0726   39.2865 H   0  0  0  0  0  0  0  0  0  0  0  0
   45.9344   35.4555   40.8570 H   0  0  0  0  0  0  0  0  0  0  0  0
   43.7989   36.7695   44.7720 H   0  0  0  0  0  0  0  0  0  0  0  0
   45.1031   36.3798   42.6761 H   0  0  0  0  0  0  0  0  0  0  0  0
   45.5725   33.3638   46.5772 H   0  0  0  0  0  0  0  0  0  0  0  0
   43.2203   35.1245   41.1250 H   0  0  0  0  0  0  0  0  0  0  0  0
   41.4349   35.0721   39.1459 H   0  0  0  0  0  0  0  0  0  0  0  0
   42.4135   33.5341   37.2980 H   0  0  0  0  0  0  0  0  0  0  0  0
  1  8  1  0
  2  1  1  0
  3  2  1  0
  4  5  1  0
  4  3  1  0
  5  1  1  0
  6 11  2  0
  7  6  1  0
  8  7  2  0
  8  9  1  0
  9 10  2  0
 10 11  1  0
 12  5  1  0
 13 14  1  0
 13 12  1  0
 15 14  2  0
 16 17  1  0
 16 15  1  0
 17 13  2  0
  2 18  1  0
  2 19  1  0
  3 20  1  0
  3 21  1  0
  4 22  1  0
  4 23  1  0
  5 24  1  1
  6 25  1  0
  7 26  1  0
 10 27  1  0
 14 28  1  0
 15 29  1  0
 16 30  1  0
M  ISO  8  18  13  19  13  20  13  21  13  22  13  23  13  24  13  25  14
M  ISO  5  26  14  27  14  28  14  29  14  30   9
M  END
>  <minimizedAffinity>  (1) 
-4.89266729

>  <minimizedRMSD>  (1) 
1.4305042

$$$$
