
     RDKit          3D

 30 32  0  0  1  0  0  0  0  0999 V2000
   47.1980   34.6770   42.3030 N   0  0  0  0  0  0  0  0  0  0  0  0
   48.6550   34.8300   42.3190 C   0  0  0  0  0  0  0  0  0  0  0  0
   48.8510   35.5160   40.9840 C   0  0  0  0  0  0  0  0  0  0  0  0
   48.0260   34.6210   40.0990 C   0  0  0  0  0  0  0  0  0  0  0  0
   46.8230   34.3320   40.9590 C   0  0  1  0  0  0  0  0  0  0  0  0
   44.5140   35.9290   44.5490 C   0  0  0  0  0  0  0  0  0  0  0  0
   45.3540   35.8650   43.4260 C   0  0  0  0  0  0  0  0  0  0  0  0
   46.3110   34.8310   43.3750 C   0  0  0  0  0  0  0  0  0  0  0  0
   46.3430   33.9680   44.4350 N   0  0  0  0  0  0  0  0  0  0  0  0
   45.5300   34.0440   45.5040 C   0  0  0  0  0  0  0  0  0  0  0  0
   44.6140   35.0290   45.5550 N   0  0  0  0  0  0  0  0  0  0  0  0
   46.3710   33.0210   40.8250 O   0  0  0  0  0  0  0  0  0  0  0  0
   45.1990   32.9740   40.0750 C   0  0  0  0  0  0  0  0  0  0  0  0
   43.9400   32.6830   40.7660 C   0  0  0  0  0  0  0  0  0  0  0  0
   44.2440   34.1140   40.3670 C   0  0  0  0  0  0  0  0  0  0  0  0
   48.9921   35.4586   43.1564 H   0  0  0  0  0  0  0  0  0  0  0  0
   49.2215   33.8966   42.4525 H   0  0  0  0  0  0  0  0  0  0  0  0
   48.4647   36.5459   40.9949 H   0  0  0  0  0  0  0  0  0  0  0  0
   49.9003   35.6299   40.6742 H   0  0  0  0  0  0  0  0  0  0  0  0
   48.5689   33.6969   39.8513 H   0  0  0  0  0  0  0  0  0  0  0  0
   47.7733   35.0750   39.1294 H   0  0  0  0  0  0  0  0  0  0  0  0
   45.9569   34.9321   40.6430 H   0  0  0  0  0  0  0  0  0  0  0  0
   43.7593   36.7267   44.6127 H   0  0  0  0  0  0  0  0  0  0  0  0
   45.2682   36.5989   42.6111 H   0  0  0  0  0  0  0  0  0  0  0  0
   45.6123   33.3137   46.3225 H   0  0  0  0  0  0  0  0  0  0  0  0
   45.6780   32.5395   39.1852 H   0  0  0  0  0  0  0  0  0  0  0  0
   43.1463   32.1269   40.2457 H   0  0  0  0  0  0  0  0  0  0  0  0
   43.6756   32.1850   41.7105 H   0  0  0  0  0  0  0  0  0  0  0  0
   44.4912   34.8641   41.1326 H   0  0  0  0  0  0  0  0  0  0  0  0
   43.7405   34.8942   39.7772 H   0  0  0  0  0  0  0  0  0  0  0  0
  1  2  1  0
  1  8  1  0
  3  2  1  0
  4  5  1  0
  4  3  1  0
  5  1  1  0
  6 11  2  0
  7  6  1  0
  8  7  2  0
  8  9  1  0
  9 10  2  0
 10 11  1  0
 12  5  1  0
 13 15  1  0
 13 14  1  0
 13 12  1  0
 15 14  1  0
  2 16  1  0
  2 17  1  0
  3 18  1  0
  3 19  1  0
  4 20  1  0
  4 21  1  0
  5 22  1  6
  6 23  1  0
  7 24  1  0
 10 25  1  0
 13 26  1  0
 14 27  1  0
 14 28  1  0
 15 29  1  0
 15 30  1  0
M  ISO  8  16  13  17  13  18  13  19  13  20  13  21  13  22  13  23  14
M  ISO  7  24  14  25  14  26  13  27  13  28  13  29  13  30  13
M  END
>  <minimizedAffinity>  (1) 
-4.52855682

>  <minimizedRMSD>  (1) 
0.779342055

$$$$
