
     RDKit          3D

 32 34  0  0  0  0  0  0  0  0999 V2000
   46.8060   34.7740   42.1260 C   0  0  0  0  0  0  0  0  0  0  0  0
   48.0270   35.4240   42.0510 C   0  0  0  0  0  0  0  0  0  0  0  0
   48.8330   35.4250   40.9340 C   0  0  0  0  0  0  0  0  0  0  0  0
   48.4260   34.7480   39.8190 C   0  0  0  0  0  0  0  0  0  0  0  0
   47.2330   34.0840   39.8240 C   0  0  0  0  0  0  0  0  0  0  0  0
   46.8000   33.4010   38.6970 C   0  0  0  0  0  0  0  0  0  0  0  0
   45.5980   32.7260   38.6570 C   0  0  0  0  0  0  0  0  0  0  0  0
   44.8480   32.7780   39.8200 C   0  0  0  0  0  0  0  0  0  0  0  0
   45.2870   33.4520   40.9170 C   0  0  0  0  0  0  0  0  0  0  0  0
   46.4860   34.1250   40.9590 C   0  0  0  0  0  0  0  0  0  0  0  0
   44.4760   35.6830   45.0110 C   0  0  0  0  0  0  0  0  0  0  0  0
   45.0890   35.7500   43.7680 C   0  0  0  0  0  0  0  0  0  0  0  0
   46.0770   34.8570   43.3630 C   0  0  0  0  0  0  0  0  0  0  0  0
   46.3780   33.9170   44.3040 N   0  0  0  0  0  0  0  0  0  0  0  0
   45.7920   33.8440   45.5060 C   0  0  0  0  0  0  0  0  0  0  0  0
   44.8530   34.7220   45.8470 N   0  0  0  0  0  0  0  0  0  0  0  0
   46.1710   32.7900   46.4860 C   0  0  0  0  0  0  0  0  0  0  0  0
   45.2360   32.7980   47.6850 C   0  0  0  0  0  0  0  0  0  0  0  0
   48.3744   35.9734   42.9384 H   0  0  0  0  0  0  0  0  0  0  0  0
   49.7920   35.9639   40.9395 H   0  0  0  0  0  0  0  0  0  0  0  0
   49.0584   34.7380   38.9190 H   0  0  0  0  0  0  0  0  0  0  0  0
   47.4392   33.3976   37.8018 H   0  0  0  0  0  0  0  0  0  0  0  0
   45.2583   32.1834   37.7625 H   0  0  0  0  0  0  0  0  0  0  0  0
   43.8766   32.2633   39.8575 H   0  0  0  0  0  0  0  0  0  0  0  0
   44.6517   33.4592   41.8150 H   0  0  0  0  0  0  0  0  0  0  0  0
   43.6983   36.4066   45.2966 H   0  0  0  0  0  0  0  0  0  0  0  0
   44.7806   36.5439   43.0719 H   0  0  0  0  0  0  0  0  0  0  0  0
   46.1180   31.8070   45.9953 H   0  0  0  0  0  0  0  0  0  0  0  0
   47.1936   32.9908   46.8381 H   0  0  0  0  0  0  0  0  0  0  0  0
   45.8283   32.7929   48.6119 H   0  0  0  0  0  0  0  0  0  0  0  0
   44.6093   33.7015   47.6553 H   0  0  0  0  0  0  0  0  0  0  0  0
   44.5939   31.9053   47.6553 H   0  0  0  0  0  0  0  0  0  0  0  0
  1 13  1  0
  2  1  2  0
  3  2  1  0
  4  5  1  0
  4  3  2  0
  5 10  2  0
  6  5  1  0
  7  6  2  0
  7  8  1  0
  8  9  2  0
  9 10  1  0
 10  1  1  0
 11 16  2  0
 12 11  1  0
 13 12  2  0
 13 14  1  0
 14 15  2  0
 15 16  1  0
 15 17  1  0
 17 18  1  0
  2 19  1  0
  3 20  1  0
  4 21  1  0
  6 22  1  0
  7 23  1  0
  8 24  1  0
  9 25  1  0
 11 26  1  0
 12 27  1  0
 17 28  1  0
 17 29  1  0
 18 30  1  0
 18 31  1  0
 18 32  1  0
M  ISO  8  19  14  20  14  21  14  22  14  23  14  24  14  25  14  26  14
M  ISO  6  27  14  28   8  29   8  30   8  31   8  32   8
M  END
>  <minimizedAffinity>  (1) 
-5.98903751

>  <minimizedRMSD>  (1) 
0.275146633

$$$$
