
     RDKit          3D

 26 27  0  0  1  0  0  0  0  0999 V2000
   47.1980   34.6870   42.2760 N   0  0  0  0  0  0  0  0  0  0  0  0
   48.6640   34.7910   42.3160 C   0  0  0  0  0  0  0  0  0  0  0  0
   48.8920   35.5020   41.0020 C   0  0  0  0  0  0  0  0  0  0  0  0
   48.0630   34.6580   40.0810 C   0  0  0  0  0  0  0  0  0  0  0  0
   46.8250   34.3760   40.9240 C   0  0  1  0  0  0  0  0  0  0  0  0
   44.5020   35.9600   44.4950 C   0  0  0  0  0  0  0  0  0  0  0  0
   45.3480   35.8870   43.3790 C   0  0  0  0  0  0  0  0  0  0  0  0
   46.3060   34.8520   43.3380 C   0  0  0  0  0  0  0  0  0  0  0  0
   46.3350   33.9930   44.4010 N   0  0  0  0  0  0  0  0  0  0  0  0
   45.5120   34.0820   45.4630 C   0  0  0  0  0  0  0  0  0  0  0  0
   44.5970   35.0670   45.5060 N   0  0  0  0  0  0  0  0  0  0  0  0
   46.3500   33.0910   40.7430 O   0  0  0  0  0  0  0  0  0  0  0  0
   45.0760   32.7440   40.3440 C   0  0  0  0  0  0  0  0  0  0  0  0
   44.8170   31.5120   40.3850 O   0  0  0  0  0  0  0  0  0  0  0  0
   44.0930   33.6460   39.9110 O   0  0  0  0  0  0  0  0  0  0  0  0
   49.0111   35.3877   43.1725 H   0  0  0  0  0  0  0  0  0  0  0  0
   49.2007   33.8383   42.4354 H   0  0  0  0  0  0  0  0  0  0  0  0
   48.5307   36.5405   41.0352 H   0  0  0  0  0  0  0  0  0  0  0  0
   49.9486   35.5934   40.7100 H   0  0  0  0  0  0  0  0  0  0  0  0
   48.5851   33.7267   39.8162 H   0  0  0  0  0  0  0  0  0  0  0  0
   47.8397   35.1442   39.1199 H   0  0  0  0  0  0  0  0  0  0  0  0
   45.9689   34.9972   40.6218 H   0  0  0  0  0  0  0  0  0  0  0  0
   43.7472   36.7584   44.5490 H   0  0  0  0  0  0  0  0  0  0  0  0
   45.2670   36.6158   42.5590 H   0  0  0  0  0  0  0  0  0  0  0  0
   45.5871   33.3568   46.2867 H   0  0  0  0  0  0  0  0  0  0  0  0
   44.2912   34.6154   39.8768 H   0  0  0  0  0  0  0  0  0  0  0  0
  1  2  1  0
  1  8  1  0
  3  2  1  0
  4  5  1  0
  4  3  1  0
  5  1  1  0
  6 11  2  0
  7  6  1  0
  8  7  2  0
  8  9  1  0
  9 10  2  0
 10 11  1  0
 12  5  1  0
 13 14  2  0
 13 12  1  0
 15 13  1  0
  2 16  1  0
  2 17  1  0
  3 18  1  0
  3 19  1  0
  4 20  1  0
  4 21  1  0
  5 22  1  6
  6 23  1  0
  7 24  1  0
 10 25  1  0
 15 26  1  0
M  ISO  8  16  13  17  13  18  13  19  13  20  13  21  13  22  13  23  14
M  ISO  3  24  14  25  14  26   3
M  END
>  <minimizedAffinity>  (1) 
-4.39043331

>  <minimizedRMSD>  (1) 
0.102122404

$$$$
