
     RDKit          3D

 25 26  0  0  1  0  0  0  0  0999 V2000
   47.2170   34.6800   42.2790 N   0  0  0  0  0  0  0  0  0  0  0  0
   48.6690   34.8040   42.3020 C   0  0  0  0  0  0  0  0  0  0  0  0
   48.8810   35.5120   40.9800 C   0  0  0  0  0  0  0  0  0  0  0  0
   48.0500   34.6430   40.0710 C   0  0  0  0  0  0  0  0  0  0  0  0
   46.8360   34.3530   40.9310 C   0  0  1  0  0  0  0  0  0  0  0  0
   44.5070   35.9570   44.4850 C   0  0  0  0  0  0  0  0  0  0  0  0
   45.3570   35.8860   43.3750 C   0  0  0  0  0  0  0  0  0  0  0  0
   46.3240   34.8410   43.3370 C   0  0  0  0  0  0  0  0  0  0  0  0
   46.3270   34.0010   44.3950 N   0  0  0  0  0  0  0  0  0  0  0  0
   45.5070   34.0760   45.4580 C   0  0  0  0  0  0  0  0  0  0  0  0
   44.5870   35.0730   45.4920 N   0  0  0  0  0  0  0  0  0  0  0  0
   46.3640   33.0620   40.7720 O   0  0  0  0  0  0  0  0  0  0  0  0
   45.2270   32.8360   40.0090 C   0  0  0  0  0  0  0  0  0  0  0  0
   45.0890   33.1190   38.7760 O   0  0  0  0  0  0  0  0  0  0  0  0
   49.0156   35.4100   43.1521 H   0  0  0  0  0  0  0  0  0  0  0  0
   49.2177   33.8579   42.4194 H   0  0  0  0  0  0  0  0  0  0  0  0
   48.5069   36.5461   41.0078 H   0  0  0  0  0  0  0  0  0  0  0  0
   49.9336   35.6181   40.6788 H   0  0  0  0  0  0  0  0  0  0  0  0
   48.5825   33.7174   39.8070 H   0  0  0  0  0  0  0  0  0  0  0  0
   47.8072   35.1154   39.1077 H   0  0  0  0  0  0  0  0  0  0  0  0
   45.9737   34.9650   40.6278 H   0  0  0  0  0  0  0  0  0  0  0  0
   43.7543   36.7577   44.5333 H   0  0  0  0  0  0  0  0  0  0  0  0
   45.2803   36.6161   42.5558 H   0  0  0  0  0  0  0  0  0  0  0  0
   45.5801   33.3477   46.2792 H   0  0  0  0  0  0  0  0  0  0  0  0
   44.3684   32.3707   40.5152 H   0  0  0  0  0  0  0  0  0  0  0  0
  1  2  1  0
  1  8  1  0
  3  2  1  0
  4  5  1  0
  4  3  1  0
  5  1  1  0
  6 11  2  0
  7  6  1  0
  8  7  2  0
  8  9  1  0
  9 10  2  0
 10 11  1  0
 12  5  1  0
 13 12  1  0
 14 13  2  0
  2 15  1  0
  2 16  1  0
  3 17  1  0
  3 18  1  0
  4 19  1  0
  4 20  1  0
  5 21  1  6
  6 22  1  0
  7 23  1  0
 10 24  1  0
 13 25  1  0
M  ISO  8  15  13  16  13  17  13  18  13  19  13  20  13  21  13  22  14
M  ISO  3  23  14  24  14  25   6
M  END
>  <minimizedAffinity>  (1) 
-4.31841469

>  <minimizedRMSD>  (1) 
0.218693376

$$$$
