
     RDKit          3D

 27 29  0  0  0  0  0  0  0  0999 V2000
   46.7490   34.8200   42.0150 C   0  0  0  0  0  0  0  0  0  0  0  0
   47.9990   35.4130   41.9390 C   0  0  0  0  0  0  0  0  0  0  0  0
   48.8190   35.3430   40.8350 C   0  0  0  0  0  0  0  0  0  0  0  0
   48.3930   34.6480   39.7300 C   0  0  0  0  0  0  0  0  0  0  0  0
   47.1640   34.0360   39.7390 C   0  0  0  0  0  0  0  0  0  0  0  0
   46.7290   33.3440   38.6330 C   0  0  0  0  0  0  0  0  0  0  0  0
   45.4960   32.7210   38.5940 C   0  0  0  0  0  0  0  0  0  0  0  0
   44.7290   32.8420   39.7490 C   0  0  0  0  0  0  0  0  0  0  0  0
   45.1870   33.5310   40.8250 C   0  0  0  0  0  0  0  0  0  0  0  0
   46.4140   34.1540   40.8690 C   0  0  0  0  0  0  0  0  0  0  0  0
   44.4420   35.9210   44.8500 C   0  0  0  0  0  0  0  0  0  0  0  0
   45.0750   35.9280   43.6120 C   0  0  0  0  0  0  0  0  0  0  0  0
   46.0090   34.9740   43.2400 C   0  0  0  0  0  0  0  0  0  0  0  0
   46.2360   34.0410   44.2110 N   0  0  0  0  0  0  0  0  0  0  0  0
   45.6400   34.0170   45.4020 C   0  0  0  0  0  0  0  0  0  0  0  0
   44.7560   34.9500   45.7090 N   0  0  0  0  0  0  0  0  0  0  0  0
   46.0140   32.7450   46.6000 S   0  0  0  0  0  0  0  0  0  0  0  0
   48.3583   35.9741   42.8143 H   0  0  0  0  0  0  0  0  0  0  0  0
   49.8018   35.8370   40.8382 H   0  0  0  0  0  0  0  0  0  0  0  0
   49.0351   34.5817   38.8393 H   0  0  0  0  0  0  0  0  0  0  0  0
   47.3836   33.2845   37.7510 H   0  0  0  0  0  0  0  0  0  0  0  0
   45.1449   32.1675   37.7107 H   0  0  0  0  0  0  0  0  0  0  0  0
   43.7355   32.3716   39.7905 H   0  0  0  0  0  0  0  0  0  0  0  0
   44.5408   33.5953   41.7128 H   0  0  0  0  0  0  0  0  0  0  0  0
   43.7042   36.6933   45.1132 H   0  0  0  0  0  0  0  0  0  0  0  0
   44.8236   36.7252   42.8969 H   0  0  0  0  0  0  0  0  0  0  0  0
   45.8653   33.2507   47.8645 H   0  0  0  0  0  0  0  0  0  0  0  0
  1 13  1  0
  2  1  2  0
  3  2  1  0
  4  5  1  0
  4  3  2  0
  5 10  2  0
  6  5  1  0
  7  6  2  0
  7  8  1  0
  8  9  2  0
  9 10  1  0
 10  1  1  0
 11 16  2  0
 12 11  1  0
 13 12  2  0
 13 14  1  0
 14 15  2  0
 15 16  1  0
 15 17  1  0
  2 18  1  0
  3 19  1  0
  4 20  1  0
  6 21  1  0
  7 22  1  0
  8 23  1  0
  9 24  1  0
 11 25  1  0
 12 26  1  0
 17 27  1  0
M  ISO  8  18  14  19  14  20  14  21  14  22  14  23  14  24  14  25  14
M  ISO  2  26  14  27  11
M  END
>  <minimizedAffinity>  (1) 
-5.90684652

>  <minimizedRMSD>  (1) 
0.071669735

$$$$
