
     RDKit          3D

 39 42  0  0  1  0  0  0  0  0999 V2000
   46.6370   34.3090   42.4290 N   0  0  0  0  0  0  0  0  0  0  0  0
   48.0300   33.8290   42.3230 C   0  0  0  0  0  0  0  0  0  0  0  0
   48.4510   34.6130   41.1080 C   0  0  0  0  0  0  0  0  0  0  0  0
   47.3070   34.2910   40.1860 C   0  0  0  0  0  0  0  0  0  0  0  0
   46.0840   34.3680   41.1090 C   0  0  1  0  0  0  0  0  0  0  0  0
   44.5040   36.0420   44.9230 C   0  0  0  0  0  0  0  0  0  0  0  0
   45.1690   35.8430   43.6920 C   0  0  0  0  0  0  0  0  0  0  0  0
   45.9450   34.6460   43.6030 C   0  0  0  0  0  0  0  0  0  0  0  0
   46.0020   33.7840   44.6810 N   0  0  0  0  0  0  0  0  0  0  0  0
   45.3360   34.0400   45.8400 C   0  0  0  0  0  0  0  0  0  0  0  0
   44.5940   35.1680   45.9460 N   0  0  0  0  0  0  0  0  0  0  0  0
   45.1390   33.3650   40.8370 O   0  0  0  0  0  0  0  0  0  0  0  0
   44.2420   33.5370   39.7740 C   0  0  0  0  0  0  0  0  0  0  0  0
   44.3700   33.1440   38.4230 C   0  0  0  0  0  0  0  0  0  0  0  0
   43.3090   33.5130   37.6800 N   0  0  0  0  0  0  0  0  0  0  0  0
   42.4490   34.1550   38.5040 C   0  0  0  0  0  0  0  0  0  0  0  0
   41.2320   34.7850   38.3680 C   0  0  0  0  0  0  0  0  0  0  0  0
   40.5880   35.3790   39.4020 C   0  0  0  0  0  0  0  0  0  0  0  0
   41.1310   35.3730   40.6720 C   0  0  0  0  0  0  0  0  0  0  0  0
   42.3410   34.7450   40.8060 C   0  0  0  0  0  0  0  0  0  0  0  0
   43.0330   34.1520   39.7920 C   0  0  0  0  0  0  0  0  0  0  0  0
   42.6020   34.5300   42.1820 N   0  0  0  0  0  0  0  0  0  0  0  0
   48.6258   34.0897   43.2102 H   0  0  0  0  0  0  0  0  0  0  0  0
   48.1528   32.7382   42.2509 H   0  0  0  0  0  0  0  0  0  0  0  0
   48.5156   35.6907   41.3188 H   0  0  0  0  0  0  0  0  0  0  0  0
   49.4483   34.3640   40.7163 H   0  0  0  0  0  0  0  0  0  0  0  0
   47.2353   35.0286   39.3731 H   0  0  0  0  0  0  0  0  0  0  0  0
   47.4133   33.3152   39.6895 H   0  0  0  0  0  0  0  0  0  0  0  0
   45.5002   35.2891   40.9646 H   0  0  0  0  0  0  0  0  0  0  0  0
   43.8891   36.9449   45.0517 H   0  0  0  0  0  0  0  0  0  0  0  0
   45.0946   36.5592   42.8605 H   0  0  0  0  0  0  0  0  0  0  0  0
   45.3998   33.3367   46.6834 H   0  0  0  0  0  0  0  0  0  0  0  0
   45.2377   32.5986   38.0234 H   0  0  0  0  0  0  0  0  0  0  0  0
   43.1770   33.3391   36.6734 H   0  0  0  0  0  0  0  0  0  0  0  0
   40.7609   34.8071   37.3742 H   0  0  0  0  0  0  0  0  0  0  0  0
   39.6204   35.8723   39.2276 H   0  0  0  0  0  0  0  0  0  0  0  0
   40.6219   35.8447   41.5254 H   0  0  0  0  0  0  0  0  0  0  0  0
   43.4738   34.0660   42.4745 H   0  0  0  0  0  0  0  0  0  0  0  0
   41.9199   34.8378   42.8898 H   0  0  0  0  0  0  0  0  0  0  0  0
  1  8  1  0
  2  1  1  0
  3  2  1  0
  4  3  1  0
  4  5  1  0
  5  1  1  0
  6 11  2  0
  7  6  1  0
  8  7  2  0
  8  9  1  0
  9 10  2  0
 10 11  1  0
 12  5  1  0
 13 21  1  0
 13 12  1  0
 14 13  2  0
 15 14  1  0
 15 16  1  0
 16 21  2  0
 17 16  1  0
 17 18  2  0
 18 19  1  0
 19 20  2  0
 20 22  1  0
 21 20  1  0
  2 23  1  0
  2 24  1  0
  3 25  1  0
  3 26  1  0
  4 27  1  0
  4 28  1  0
  5 29  1  1
  6 30  1  0
  7 31  1  0
 10 32  1  0
 14 33  1  0
 15 34  1  0
 17 35  1  0
 18 36  1  0
 19 37  1  0
 22 38  1  0
 22 39  1  0
M  ISO  8  23  13  24  13  25  13  26  13  27  13  28  13  29  13  30  14
M  ISO  7  31  14  32  14  33  14  34   9  35  14  36  14  37  14
M  END
>  <minimizedAffinity>  (1) 
-6.40363741

>  <minimizedRMSD>  (1) 
0.518042147

$$$$
