
     RDKit          3D

 49 54  0  0  1  0  0  0  0  0999 V2000
   45.1750   33.3570   39.5990 C   0  0  0  0  0  0  0  0  0  0  0  0
   45.3910   33.4520   38.1910 C   0  0  0  0  0  0  0  0  0  0  0  0
   44.2220   33.5140   37.5070 N   0  0  0  0  0  0  0  0  0  0  0  0
   43.2320   33.4620   38.4130 C   0  0  0  0  0  0  0  0  0  0  0  0
   41.8680   33.5130   38.3630 C   0  0  0  0  0  0  0  0  0  0  0  0
   41.0790   33.4680   39.4890 C   0  0  0  0  0  0  0  0  0  0  0  0
   41.6590   33.3600   40.7490 C   0  0  0  0  0  0  0  0  0  0  0  0
   43.0280   33.3080   40.7740 C   0  0  0  0  0  0  0  0  0  0  0  0
   43.8260   33.3610   39.6860 C   0  0  0  0  0  0  0  0  0  0  0  0
   46.1510   33.2870   40.6100 O   0  0  0  0  0  0  0  0  0  0  0  0
   47.1900   34.5500   42.3480 N   0  0  0  0  0  0  0  0  0  0  0  0
   48.6620   34.4060   42.4210 C   0  0  0  0  0  0  0  0  0  0  0  0
   49.0530   35.2360   41.2470 C   0  0  0  0  0  0  0  0  0  0  0  0
   48.1250   34.6620   40.2130 C   0  0  0  0  0  0  0  0  0  0  0  0
   46.7950   34.4920   40.9870 C   0  0  1  0  0  0  0  0  0  0  0  0
   44.4980   35.8000   44.5740 C   0  0  0  0  0  0  0  0  0  0  0  0
   45.3430   35.7230   43.4590 C   0  0  0  0  0  0  0  0  0  0  0  0
   46.3200   34.7040   43.4260 C   0  0  0  0  0  0  0  0  0  0  0  0
   46.3820   33.8500   44.4920 N   0  0  0  0  0  0  0  0  0  0  0  0
   45.5440   33.9580   45.5590 C   0  0  0  0  0  0  0  0  0  0  0  0
   44.6150   34.9270   45.5880 N   0  0  0  0  0  0  0  0  0  0  0  0
   43.3730   33.1830   42.0800 O   0  0  0  0  0  0  0  0  0  0  0  0
   41.8720   28.8960   43.3010 N   0  0  0  0  0  0  0  0  0  0  0  0
   40.8530   29.7270   43.0680 C   0  0  0  0  0  0  0  0  0  0  0  0
   41.3520   30.9030   42.7280 N   0  0  0  0  0  0  0  0  0  0  0  0
   42.6720   30.9100   42.7190 C   0  0  0  0  0  0  0  0  0  0  0  0
   43.6900   31.8440   42.4630 C   0  0  0  0  0  0  0  0  0  0  0  0
   44.8920   31.3100   42.6260 N   0  0  0  0  0  0  0  0  0  0  0  0
   45.2170   30.0890   42.9750 C   0  0  0  0  0  0  0  0  0  0  0  0
   44.2460   29.2020   43.2180 N   0  0  0  0  0  0  0  0  0  0  0  0
   42.9740   29.6190   43.0880 C   0  0  0  0  0  0  0  0  0  0  0  0
   46.3843   33.4724   37.7188 H   0  0  0  0  0  0  0  0  0  0  0  0
   44.1136   33.5872   36.4853 H   0  0  0  0  0  0  0  0  0  0  0  0
   41.3797   33.5935   37.3806 H   0  0  0  0  0  0  0  0  0  0  0  0
   39.9843   33.5176   39.3927 H   0  0  0  0  0  0  0  0  0  0  0  0
   41.0560   33.3189   41.6681 H   0  0  0  0  0  0  0  0  0  0  0  0
   49.0670   34.8093   43.3609 H   0  0  0  0  0  0  0  0  0  0  0  0
   49.0309   33.3699   42.4035 H   0  0  0  0  0  0  0  0  0  0  0  0
   48.8628   36.3056   41.4197 H   0  0  0  0  0  0  0  0  0  0  0  0
   50.1211   35.2021   40.9861 H   0  0  0  0  0  0  0  0  0  0  0  0
   48.4944   33.6931   39.8459 H   0  0  0  0  0  0  0  0  0  0  0  0
   48.0268   35.2980   39.3209 H   0  0  0  0  0  0  0  0  0  0  0  0
   46.0410   35.2639   40.7733 H   0  0  0  0  0  0  0  0  0  0  0  0
   43.7291   36.5853   44.6195 H   0  0  0  0  0  0  0  0  0  0  0  0
   45.2476   36.4390   42.6294 H   0  0  0  0  0  0  0  0  0  0  0  0
   45.6278   33.2513   46.3978 H   0  0  0  0  0  0  0  0  0  0  0  0
   41.8191   27.9073   43.5848 H   0  0  0  0  0  0  0  0  0  0  0  0
   39.7847   29.4766   43.1455 H   0  0  0  0  0  0  0  0  0  0  0  0
   46.2738   29.7979   43.0667 H   0  0  0  0  0  0  0  0  0  0  0  0
  1  9  1  0
  1 10  1  0
  2  1  2  0
  3  2  1  0
  3  4  1  0
  4  9  2  0
  5  4  1  0
  5  6  2  0
  6  7  1  0
  7  8  2  0
  8 22  1  0
  9  8  1  0
 10 15  1  0
 11 12  1  0
 11 18  1  0
 13 12  1  0
 14 15  1  0
 14 13  1  0
 15 11  1  0
 16 21  2  0
 17 16  1  0
 18 17  2  0
 18 19  1  0
 19 20  2  0
 20 21  1  0
 22 27  1  0
 24 23  1  0
 25 24  2  0
 26 25  1  0
 26 31  2  0
 27 28  2  0
 27 26  1  0
 28 29  1  0
 29 30  2  0
 31 30  1  0
 31 23  1  0
  2 32  1  0
  3 33  1  0
  5 34  1  0
  6 35  1  0
  7 36  1  0
 12 37  1  0
 12 38  1  0
 13 39  1  0
 13 40  1  0
 14 41  1  0
 14 42  1  0
 15 43  1  6
 16 44  1  0
 17 45  1  0
 20 46  1  0
 23 47  1  0
 24 48  1  0
 29 49  1  0
M  ISO  8  32  14  33   9  34  14  35  14  36  14  37  13  38  13  39  13
M  ISO  8  40  13  41  13  42  13  43  13  44  14  45  14  46  14  47   9
M  ISO  2  48  14  49  14
M  END
>  <minimizedAffinity>  (1) 
-6.10854483

>  <minimizedRMSD>  (1) 
1.66243541

$$$$
