
     RDKit          3D

 19 19  0  0  0  0  0  0  0  0999 V2000
   45.3860   34.7030   44.1450 C   0  0  0  0  0  0  0  0  0  0  0  0
   46.4600   34.1050   43.4280 C   0  0  0  0  0  0  0  0  0  0  0  0
   47.2360   33.1540   44.1010 C   0  0  0  0  0  0  0  0  0  0  0  0
   46.9150   32.8620   45.4020 N   0  0  0  0  0  0  0  0  0  0  0  0
   45.8910   33.4510   46.0460 C   0  0  0  0  0  0  0  0  0  0  0  0
   45.1360   34.3620   45.4210 N   0  0  0  0  0  0  0  0  0  0  0  0
   44.5780   35.7160   43.3920 C   0  0  0  0  0  0  0  0  0  0  0  0
   45.1940   37.0800   43.4270 C   0  0  0  0  0  0  0  0  0  0  0  0
   44.3680   35.2400   41.9470 C   0  0  0  0  0  0  0  0  0  0  0  0
   46.6724   34.3797   42.3842 H   0  0  0  0  0  0  0  0  0  0  0  0
   48.0791   32.6552   43.6007 H   0  0  0  0  0  0  0  0  0  0  0  0
   45.6736   33.1826   47.0904 H   0  0  0  0  0  0  0  0  0  0  0  0
   43.6013   35.8057   43.8901 H   0  0  0  0  0  0  0  0  0  0  0  0
   45.3349   37.3920   44.4724 H   0  0  0  0  0  0  0  0  0  0  0  0
   46.1684   37.0555   42.9172 H   0  0  0  0  0  0  0  0  0  0  0  0
   44.5313   37.7948   42.9172 H   0  0  0  0  0  0  0  0  0  0  0  0
   43.9240   34.2336   41.9533 H   0  0  0  0  0  0  0  0  0  0  0  0
   43.6931   35.9353   41.4264 H   0  0  0  0  0  0  0  0  0  0  0  0
   45.3365   35.2102   41.4264 H   0  0  0  0  0  0  0  0  0  0  0  0
  1  6  2  0
  2  3  2  0
  2  1  1  0
  3  4  1  0
  4  5  2  0
  6  5  1  0
  7  8  1  0
  7  1  1  0
  9  7  1  0
  2 10  1  0
  3 11  1  0
  5 12  1  0
  7 13  1  0
  8 14  1  0
  8 15  1  0
  8 16  1  0
  9 17  1  0
  9 18  1  0
  9 19  1  0
M  ISO  8  10  14  11  14  12  14  13   8  14   8  15   8  16   8  17   8
M  ISO  2  18   8  19   8
M  END
>  <minimizedAffinity>  (1) 
-3.04972053

>  <minimizedRMSD>  (1) 
1.89219511

$$$$
