
     RDKit          3D

 26 27  0  0  1  0  0  0  0  0999 V2000
   44.6350   35.4570   43.3910 C   0  0  1  0  0  0  0  0  0  0  0  0
   45.4290   34.4830   44.2060 C   0  0  0  0  0  0  0  0  0  0  0  0
   46.4790   33.8120   43.5010 C   0  0  0  0  0  0  0  0  0  0  0  0
   47.2380   32.9070   44.2490 C   0  0  0  0  0  0  0  0  0  0  0  0
   46.9510   32.7140   45.5700 N   0  0  0  0  0  0  0  0  0  0  0  0
   45.9500   33.3720   46.1880 C   0  0  0  0  0  0  0  0  0  0  0  0
   45.2130   34.2370   45.5020 N   0  0  0  0  0  0  0  0  0  0  0  0
   45.1500   36.8730   43.5410 C   0  0  0  0  0  0  0  0  0  0  0  0
   44.6090   35.0340   41.9360 C   0  0  0  0  0  0  0  0  0  0  0  0
   43.5010   35.6660   41.1790 C   0  0  0  0  0  0  0  0  0  0  0  0
   42.1140   35.0730   41.3870 C   0  0  0  0  0  0  0  0  0  0  0  0
   42.8200   34.7920   40.1150 C   0  0  0  0  0  0  0  0  0  0  0  0
   43.6039   35.4501   43.7740 H   0  0  0  0  0  0  0  0  0  0  0  0
   46.6767   33.9974   42.4349 H   0  0  0  0  0  0  0  0  0  0  0  0
   48.0622   32.3532   43.7758 H   0  0  0  0  0  0  0  0  0  0  0  0
   45.7452   33.1933   47.2539 H   0  0  0  0  0  0  0  0  0  0  0  0
   45.2396   37.1193   44.6093 H   0  0  0  0  0  0  0  0  0  0  0  0
   46.1363   36.9572   43.0613 H   0  0  0  0  0  0  0  0  0  0  0  0
   44.4482   37.5711   43.0613 H   0  0  0  0  0  0  0  0  0  0  0  0
   45.5630   35.3196   41.4688 H   0  0  0  0  0  0  0  0  0  0  0  0
   44.4539   33.9454   41.9078 H   0  0  0  0  0  0  0  0  0  0  0  0
   43.9426   36.6729   41.2122 H   0  0  0  0  0  0  0  0  0  0  0  0
   41.9696   34.2664   42.1209 H   0  0  0  0  0  0  0  0  0  0  0  0
   41.1295   35.4911   41.6440 H   0  0  0  0  0  0  0  0  0  0  0  0
   42.4640   35.2458   39.1783 H   0  0  0  0  0  0  0  0  0  0  0  0
   43.0983   33.8784   39.5692 H   0  0  0  0  0  0  0  0  0  0  0  0
  1  8  1  0
  1  2  1  0
  2  7  1  0
  3  2  2  0
  3  4  1  0
  4  5  2  0
  5  6  1  0
  7  6  2  0
  9  1  1  0
 10 11  1  0
 10  9  1  0
 12 10  1  0
 12 11  1  0
  1 13  1  1
  3 14  1  0
  4 15  1  0
  6 16  1  0
  8 17  1  0
  8 18  1  0
  8 19  1  0
  9 20  1  0
  9 21  1  0
 10 22  1  0
 11 23  1  0
 11 24  1  0
 12 25  1  0
 12 26  1  0
M  ISO  8  13   8  14  14  15  14  16  14  17   8  18   8  19   8  20   8
M  ISO  6  21   8  22  13  23  13  24  13  25  13  26  13
M  END
>  <minimizedAffinity>  (1) 
-3.68536973

>  <minimizedRMSD>  (1) 
1.35004473

$$$$
