
     RDKit          3D

 46 48  0  0  1  0  0  0  0  0999 V2000
   42.5040   34.8340   40.8420 N   0  0  0  0  0  0  0  0  0  0  0  0
   42.6080   34.5400   39.4570 C   0  0  0  0  0  0  0  0  0  0  0  0
   41.2960   34.1990   38.8090 C   0  0  0  0  0  0  0  0  0  0  0  0
   40.3600   35.3710   38.9200 C   0  0  0  0  0  0  0  0  0  0  0  0
   40.3770   35.9470   40.2900 C   0  0  0  0  0  0  0  0  0  0  0  0
   41.1800   35.1240   41.2730 C   0  0  1  0  0  0  0  0  0  0  0  0
   40.4040   33.9500   41.6050 N   0  0  0  0  0  0  0  0  0  0  0  0
   39.2720   33.7640   40.7260 C   0  0  0  0  0  0  0  0  0  0  0  0
   38.8710   32.3310   41.1040 C   0  0  0  0  0  0  0  0  0  0  0  0
   40.1820   31.6010   41.2660 C   0  0  0  0  0  0  0  0  0  0  0  0
   41.1730   32.7390   41.3860 C   0  0  0  0  0  0  0  0  0  0  0  0
   43.5420   35.6650   41.3950 C   0  0  0  0  0  0  0  0  0  0  0  0
   44.4510   34.7530   42.2270 C   0  0  1  0  0  0  0  0  0  0  0  0
   45.7700   34.5900   41.5590 C   0  0  0  0  0  0  0  0  0  0  0  0
   46.8720   35.2150   42.2090 C   0  0  0  0  0  0  0  0  0  0  0  0
   48.1440   35.1120   41.6330 C   0  0  0  0  0  0  0  0  0  0  0  0
   48.2340   34.3940   40.4480 N   0  0  0  0  0  0  0  0  0  0  0  0
   47.1590   33.8220   39.8730 C   0  0  0  0  0  0  0  0  0  0  0  0
   45.9330   33.9130   40.4150 N   0  0  0  0  0  0  0  0  0  0  0  0
   44.5520   35.2390   43.6340 C   0  0  0  0  0  0  0  0  0  0  0  0
   43.0288   35.4189   38.9466 H   0  0  0  0  0  0  0  0  0  0  0  0
   43.2507   33.6520   39.3655 H   0  0  0  0  0  0  0  0  0  0  0  0
   40.8535   33.3277   39.3141 H   0  0  0  0  0  0  0  0  0  0  0  0
   41.4627   33.9633   37.7476 H   0  0  0  0  0  0  0  0  0  0  0  0
   40.6682   36.1451   38.2018 H   0  0  0  0  0  0  0  0  0  0  0  0
   39.3396   35.0226   38.7022 H   0  0  0  0  0  0  0  0  0  0  0  0
   40.8135   36.9554   40.2398 H   0  0  0  0  0  0  0  0  0  0  0  0
   39.3378   35.9638   40.6502 H   0  0  0  0  0  0  0  0  0  0  0  0
   41.3519   35.7176   42.1830 H   0  0  0  0  0  0  0  0  0  0  0  0
   38.4671   34.4827   40.9398 H   0  0  0  0  0  0  0  0  0  0  0  0
   39.4855   33.9181   39.6580 H   0  0  0  0  0  0  0  0  0  0  0  0
   38.3023   32.3221   42.0455 H   0  0  0  0  0  0  0  0  0  0  0  0
   38.2238   31.8646   40.3467 H   0  0  0  0  0  0  0  0  0  0  0  0
   40.1809   30.9767   42.1717 H   0  0  0  0  0  0  0  0  0  0  0  0
   40.4050   30.9083   40.4411 H   0  0  0  0  0  0  0  0  0  0  0  0
   41.8498   32.5626   42.2350 H   0  0  0  0  0  0  0  0  0  0  0  0
   41.7866   32.8227   40.4769 H   0  0  0  0  0  0  0  0  0  0  0  0
   44.1190   36.1371   40.5862 H   0  0  0  0  0  0  0  0  0  0  0  0
   43.1145   36.4656   42.0165 H   0  0  0  0  0  0  0  0  0  0  0  0
   44.0038   33.7498   42.2873 H   0  0  0  0  0  0  0  0  0  0  0  0
   46.7264   35.7694   43.1479 H   0  0  0  0  0  0  0  0  0  0  0  0
   49.0273   35.5764   42.0958 H   0  0  0  0  0  0  0  0  0  0  0  0
   47.2882   33.2648   38.9334 H   0  0  0  0  0  0  0  0  0  0  0  0
   44.3778   34.4009   44.3248 H   0  0  0  0  0  0  0  0  0  0  0  0
   45.5557   35.6545   43.8073 H   0  0  0  0  0  0  0  0  0  0  0  0
   43.7970   36.0200   43.8073 H   0  0  0  0  0  0  0  0  0  0  0  0
  1  6  1  0
  1 12  1  0
  2  1  1  0
  3  4  1  0
  3  2  1  0
  4  5  1  0
  5  6  1  0
  6  7  1  0
  7  8  1  0
  8  9  1  0
  9 10  1  0
 10 11  1  0
 11  7  1  0
 12 13  1  0
 13 20  1  0
 14 15  2  0
 14 13  1  0
 16 15  1  0
 17 16  2  0
 18 19  2  0
 18 17  1  0
 19 14  1  0
  2 21  1  0
  2 22  1  0
  3 23  1  0
  3 24  1  0
  4 25  1  0
  4 26  1  0
  5 27  1  0
  5 28  1  0
  6 29  1  1
  8 30  1  0
  8 31  1  0
  9 32  1  0
  9 33  1  0
 10 34  1  0
 10 35  1  0
 11 36  1  0
 11 37  1  0
 12 38  1  0
 12 39  1  0
 13 40  1  1
 15 41  1  0
 16 42  1  0
 18 43  1  0
 20 44  1  0
 20 45  1  0
 20 46  1  0
M  ISO  8  21  13  22  13  23  13  24  13  25  13  26  13  27  13  28  13
M  ISO  8  29  13  30  13  31  13  32  13  33  13  34  13  35  13  36  13
M  ISO  8  37  13  38   8  39   8  40   8  41  14  42  14  43  14  44   8
M  ISO  2  45   8  46   8
M  END
>  <minimizedAffinity>  (1) 
-5.52583885

>  <minimizedRMSD>  (1) 
0.712098539

$$$$
