
     RDKit          3D

 44 46  0  0  1  0  0  0  0  0999 V2000
   42.5970   34.4350   40.7380 N   0  0  0  0  0  0  0  0  0  0  0  0
   42.6860   34.9860   39.4410 C   0  0  0  0  0  0  0  0  0  0  0  0
   41.3900   35.1450   38.7270 C   0  0  0  0  0  0  0  0  0  0  0  0
   40.4650   36.0390   39.4970 C   0  0  0  0  0  0  0  0  0  0  0  0
   40.5000   35.7290   40.9430 C   0  0  0  0  0  0  0  0  0  0  0  0
   41.3130   34.5530   41.3320 C   0  0  1  0  0  0  0  0  0  0  0  0
   40.6280   33.2490   41.3640 C   0  0  0  0  0  0  0  0  0  0  0  0
   39.2610   33.1930   41.0440 C   0  0  0  0  0  0  0  0  0  0  0  0
   38.4400   32.0860   41.0300 C   0  0  0  0  0  0  0  0  0  0  0  0
   39.0270   30.8870   41.3720 C   0  0  0  0  0  0  0  0  0  0  0  0
   40.3660   30.8540   41.7010 C   0  0  0  0  0  0  0  0  0  0  0  0
   41.1130   32.0000   41.6900 C   0  0  0  0  0  0  0  0  0  0  0  0
   43.6820   34.8330   41.6310 C   0  0  0  0  0  0  0  0  0  0  0  0
   44.6650   33.6580   41.6260 C   0  0  1  0  0  0  0  0  0  0  0  0
   46.0220   34.1100   41.2310 C   0  0  0  0  0  0  0  0  0  0  0  0
   46.7180   34.8730   42.2010 C   0  0  0  0  0  0  0  0  0  0  0  0
   47.9990   35.3520   41.9260 C   0  0  0  0  0  0  0  0  0  0  0  0
   48.5040   35.0310   40.6800 N   0  0  0  0  0  0  0  0  0  0  0  0
   47.8170   34.3050   39.7830 C   0  0  0  0  0  0  0  0  0  0  0  0
   46.5810   33.8460   40.0550 N   0  0  0  0  0  0  0  0  0  0  0  0
   44.6290   32.9210   42.9290 C   0  0  0  0  0  0  0  0  0  0  0  0
   43.1518   35.9790   39.5249 H   0  0  0  0  0  0  0  0  0  0  0  0
   43.2748   34.2716   38.8469 H   0  0  0  0  0  0  0  0  0  0  0  0
   41.5756   35.5854   37.7362 H   0  0  0  0  0  0  0  0  0  0  0  0
   40.9201   34.1557   38.6240 H   0  0  0  0  0  0  0  0  0  0  0  0
   40.7701   37.0851   39.3471 H   0  0  0  0  0  0  0  0  0  0  0  0
   39.4403   35.8769   39.1313 H   0  0  0  0  0  0  0  0  0  0  0  0
   40.9054   36.6074   41.4665 H   0  0  0  0  0  0  0  0  0  0  0  0
   39.4648   35.4807   41.2199 H   0  0  0  0  0  0  0  0  0  0  0  0
   41.4869   34.8309   42.3820 H   0  0  0  0  0  0  0  0  0  0  0  0
   38.7888   34.1484   40.7716 H   0  0  0  0  0  0  0  0  0  0  0  0
   37.3757   32.1557   40.7609 H   0  0  0  0  0  0  0  0  0  0  0  0
   38.4315   29.9622   41.3825 H   0  0  0  0  0  0  0  0  0  0  0  0
   40.8371   29.8984   41.9745 H   0  0  0  0  0  0  0  0  0  0  0  0
   42.1762   31.9194   41.9604 H   0  0  0  0  0  0  0  0  0  0  0  0
   44.1711   35.7455   41.2594 H   0  0  0  0  0  0  0  0  0  0  0  0
   43.3167   35.0563   42.6442 H   0  0  0  0  0  0  0  0  0  0  0  0
   44.3523   32.9299   40.8630 H   0  0  0  0  0  0  0  0  0  0  0  0
   46.2478   35.0879   43.1719 H   0  0  0  0  0  0  0  0  0  0  0  0
   48.5704   35.9468   42.6538 H   0  0  0  0  0  0  0  0  0  0  0  0
   48.2730   34.0811   38.8073 H   0  0  0  0  0  0  0  0  0  0  0  0
   44.6642   33.6419   43.7591 H   0  0  0  0  0  0  0  0  0  0  0  0
   43.7011   32.3337   42.9925 H   0  0  0  0  0  0  0  0  0  0  0  0
   45.4952   32.2460   42.9925 H   0  0  0  0  0  0  0  0  0  0  0  0
  1  6  1  0
  1 13  1  0
  2  1  1  0
  3  2  1  0
  3  4  1  0
  4  5  1  0
  5  6  1  0
  6  7  1  0
  7 12  1  0
  8  7  2  0
  9  8  1  0
  9 10  2  0
 10 11  1  0
 12 11  2  0
 14 13  1  0
 14 21  1  0
 15 14  1  0
 15 16  2  0
 17 16  1  0
 18 17  2  0
 19 20  2  0
 19 18  1  0
 20 15  1  0
  2 22  1  0
  2 23  1  0
  3 24  1  0
  3 25  1  0
  4 26  1  0
  4 27  1  0
  5 28  1  0
  5 29  1  0
  6 30  1  1
  8 31  1  0
  9 32  1  0
 10 33  1  0
 11 34  1  0
 12 35  1  0
 13 36  1  0
 13 37  1  0
 14 38  1  6
 16 39  1  0
 17 40  1  0
 19 41  1  0
 21 42  1  0
 21 43  1  0
 21 44  1  0
M  ISO  8  22  13  23  13  24  13  25  13  26  13  27  13  28  13  29  13
M  ISO  8  30  13  31  14  32  14  33  14  34  14  35  14  36   8  37   8
M  ISO  7  38   8  39  14  40  14  41  14  42   8  43   8  44   8
M  END
>  <minimizedAffinity>  (1) 
-5.51823664

>  <minimizedRMSD>  (1) 
1.88512027

$$$$
