
     RDKit          3D

 42 44  0  0  1  0  0  0  0  0999 V2000
   42.6040   34.4180   40.7360 N   0  0  0  0  0  0  0  0  0  0  0  0
   42.6830   34.9630   39.4280 C   0  0  0  0  0  0  0  0  0  0  0  0
   41.3740   35.1320   38.7400 C   0  0  0  0  0  0  0  0  0  0  0  0
   40.4630   36.0240   39.5230 C   0  0  0  0  0  0  0  0  0  0  0  0
   40.4920   35.6790   40.9570 C   0  0  0  0  0  0  0  0  0  0  0  0
   41.3270   34.5080   41.3350 C   0  0  1  0  0  0  0  0  0  0  0  0
   40.5710   33.2080   41.3850 C   0  0  0  0  0  0  0  0  0  0  0  0
   39.2180   33.1500   41.0190 C   0  0  0  0  0  0  0  0  0  0  0  0
   38.4280   32.0200   41.0270 C   0  0  0  0  0  0  0  0  0  0  0  0
   39.0440   30.8920   41.4300 N   0  0  0  0  0  0  0  0  0  0  0  0
   40.3460   30.9350   41.7850 C   0  0  0  0  0  0  0  0  0  0  0  0
   41.1080   32.0380   41.7740 N   0  0  0  0  0  0  0  0  0  0  0  0
   43.6860   34.8030   41.6240 C   0  0  0  0  0  0  0  0  0  0  0  0
   44.6750   33.6330   41.6340 C   0  0  1  0  0  0  0  0  0  0  0  0
   46.0320   34.1000   41.2390 C   0  0  0  0  0  0  0  0  0  0  0  0
   46.7210   34.8720   42.2160 C   0  0  0  0  0  0  0  0  0  0  0  0
   48.0010   35.3550   41.9200 C   0  0  0  0  0  0  0  0  0  0  0  0
   48.5030   35.0350   40.6700 N   0  0  0  0  0  0  0  0  0  0  0  0
   47.8150   34.3040   39.7790 C   0  0  0  0  0  0  0  0  0  0  0  0
   46.5770   33.8300   40.0510 N   0  0  0  0  0  0  0  0  0  0  0  0
   44.6500   32.9140   42.9440 C   0  0  0  0  0  0  0  0  0  0  0  0
   43.1626   35.9505   39.4976 H   0  0  0  0  0  0  0  0  0  0  0  0
   43.2568   34.2420   38.8272 H   0  0  0  0  0  0  0  0  0  0  0  0
   41.5446   35.5752   37.7478 H   0  0  0  0  0  0  0  0  0  0  0  0
   40.8991   34.1442   38.6468 H   0  0  0  0  0  0  0  0  0  0  0  0
   40.7859   37.0680   39.3973 H   0  0  0  0  0  0  0  0  0  0  0  0
   39.4365   35.8915   39.1506 H   0  0  0  0  0  0  0  0  0  0  0  0
   40.8732   36.5535   41.5047 H   0  0  0  0  0  0  0  0  0  0  0  0
   39.4596   35.3985   41.2127 H   0  0  0  0  0  0  0  0  0  0  0  0
   41.5869   34.7351   42.3795 H   0  0  0  0  0  0  0  0  0  0  0  0
   38.7453   34.0896   40.6970 H   0  0  0  0  0  0  0  0  0  0  0  0
   37.3702   32.0384   40.7258 H   0  0  0  0  0  0  0  0  0  0  0  0
   40.8168   29.9946   42.1074 H   0  0  0  0  0  0  0  0  0  0  0  0
   44.1779   35.7137   41.2516 H   0  0  0  0  0  0  0  0  0  0  0  0
   43.3133   35.0186   42.6362 H   0  0  0  0  0  0  0  0  0  0  0  0
   44.3651   32.8919   40.8826 H   0  0  0  0  0  0  0  0  0  0  0  0
   46.2547   35.0859   43.1891 H   0  0  0  0  0  0  0  0  0  0  0  0
   48.5760   35.9554   42.6404 H   0  0  0  0  0  0  0  0  0  0  0  0
   48.2696   34.0844   38.8017 H   0  0  0  0  0  0  0  0  0  0  0  0
   44.6755   33.6461   43.7646 H   0  0  0  0  0  0  0  0  0  0  0  0
   43.7305   32.3146   43.0158 H   0  0  0  0  0  0  0  0  0  0  0  0
   45.5257   32.2522   43.0158 H   0  0  0  0  0  0  0  0  0  0  0  0
  1  6  1  0
  1 13  1  0
  2  1  1  0
  3  2  1  0
  3  4  1  0
  4  5  1  0
  5  6  1  0
  6  7  1  0
  7 12  2  0
  8  9  2  0
  8  7  1  0
  9 10  1  0
 10 11  2  0
 12 11  1  0
 13 14  1  0
 14 21  1  0
 15 14  1  0
 15 16  2  0
 17 16  1  0
 18 17  2  0
 19 20  2  0
 19 18  1  0
 20 15  1  0
  2 22  1  0
  2 23  1  0
  3 24  1  0
  3 25  1  0
  4 26  1  0
  4 27  1  0
  5 28  1  0
  5 29  1  0
  6 30  1  1
  8 31  1  0
  9 32  1  0
 11 33  1  0
 13 34  1  0
 13 35  1  0
 14 36  1  6
 16 37  1  0
 17 38  1  0
 19 39  1  0
 21 40  1  0
 21 41  1  0
 21 42  1  0
M  ISO  8  22  13  23  13  24  13  25  13  26  13  27  13  28  13  29  13
M  ISO  8  30  13  31  14  32  14  33  14  34   8  35   8  36   8  37  14
M  ISO  5  38  14  39  14  40   8  41   8  42   8
M  END
>  <minimizedAffinity>  (1) 
-5.4455657

>  <minimizedRMSD>  (1) 
1.92334712

$$$$
