
     RDKit          3D

 47 49  0  0  1  0  0  0  0  0999 V2000
   42.5660   34.8970   40.7940 N   0  0  0  0  0  0  0  0  0  0  0  0
   42.6370   34.9240   39.3770 C   0  0  0  0  0  0  0  0  0  0  0  0
   41.3370   34.6290   38.6920 C   0  0  0  0  0  0  0  0  0  0  0  0
   40.3110   35.6530   39.0810 C   0  0  0  0  0  0  0  0  0  0  0  0
   40.3230   35.8980   40.5560 C   0  0  0  0  0  0  0  0  0  0  0  0
   41.2490   34.9550   41.3080 C   0  0  1  0  0  0  0  0  0  0  0  0
   40.6360   33.6880   41.5660 N   0  0  0  0  0  0  0  0  0  0  0  0
   41.5100   32.5500   41.3760 C   0  0  0  0  0  0  0  0  0  0  0  0
   40.9570   31.6270   40.3120 C   0  0  0  0  0  0  0  0  0  0  0  0
   39.7210   31.1050   40.5890 O   0  0  0  0  0  0  0  0  0  0  0  0
   38.9890   32.0070   41.3440 C   0  0  0  0  0  0  0  0  0  0  0  0
   39.4090   33.4150   40.9100 C   0  0  0  0  0  0  0  0  0  0  0  0
   43.5520   35.6870   41.4870 C   0  0  0  0  0  0  0  0  0  0  0  0
   44.4560   34.7110   42.2460 C   0  0  1  0  0  0  0  0  0  0  0  0
   45.7640   34.5660   41.5550 C   0  0  0  0  0  0  0  0  0  0  0  0
   46.8670   35.1970   42.1920 C   0  0  0  0  0  0  0  0  0  0  0  0
   48.1320   35.1150   41.6020 C   0  0  0  0  0  0  0  0  0  0  0  0
   48.2070   34.4070   40.4100 N   0  0  0  0  0  0  0  0  0  0  0  0
   47.1380   33.8290   39.8460 C   0  0  0  0  0  0  0  0  0  0  0  0
   45.9110   33.9000   40.4070 N   0  0  0  0  0  0  0  0  0  0  0  0
   44.5800   35.0830   43.6880 C   0  0  0  0  0  0  0  0  0  0  0  0
   42.9710   35.9252   39.0672 H   0  0  0  0  0  0  0  0  0  0  0  0
   43.3385   34.1305   39.0800 H   0  0  0  0  0  0  0  0  0  0  0  0
   40.9863   33.6298   38.9898 H   0  0  0  0  0  0  0  0  0  0  0  0
   41.4861   34.6613   37.6026 H   0  0  0  0  0  0  0  0  0  0  0  0
   40.5297   36.5962   38.5589 H   0  0  0  0  0  0  0  0  0  0  0  0
   39.3173   35.2747   38.7991 H   0  0  0  0  0  0  0  0  0  0  0  0
   40.6532   36.9316   40.7369 H   0  0  0  0  0  0  0  0  0  0  0  0
   39.3025   35.7218   40.9269 H   0  0  0  0  0  0  0  0  0  0  0  0
   41.4051   35.4035   42.3002 H   0  0  0  0  0  0  0  0  0  0  0  0
   42.5039   32.9050   41.0659 H   0  0  0  0  0  0  0  0  0  0  0  0
   41.5830   31.9962   42.3236 H   0  0  0  0  0  0  0  0  0  0  0  0
   41.6607   30.7911   40.1850 H   0  0  0  0  0  0  0  0  0  0  0  0
   40.8387   32.2371   39.4044 H   0  0  0  0  0  0  0  0  0  0  0  0
   37.9136   31.8630   41.1632 H   0  0  0  0  0  0  0  0  0  0  0  0
   39.1785   31.8588   42.4174 H   0  0  0  0  0  0  0  0  0  0  0  0
   39.5447   33.4520   39.8190 H   0  0  0  0  0  0  0  0  0  0  0  0
   38.6423   34.1584   41.1738 H   0  0  0  0  0  0  0  0  0  0  0  0
   44.1452   36.2682   40.7657 H   0  0  0  0  0  0  0  0  0  0  0  0
   43.0719   36.3954   42.1781 H   0  0  0  0  0  0  0  0  0  0  0  0
   43.9860   33.7165   42.2403 H   0  0  0  0  0  0  0  0  0  0  0  0
   46.7272   35.7427   43.1368 H   0  0  0  0  0  0  0  0  0  0  0  0
   49.0170   35.5845   42.0562 H   0  0  0  0  0  0  0  0  0  0  0  0
   47.2628   33.2815   38.9001 H   0  0  0  0  0  0  0  0  0  0  0  0
   44.2940   34.2249   44.3139 H   0  0  0  0  0  0  0  0  0  0  0  0
   45.6207   35.3650   43.9058 H   0  0  0  0  0  0  0  0  0  0  0  0
   43.9166   35.9330   43.9058 H   0  0  0  0  0  0  0  0  0  0  0  0
  1  6  1  0
  1 13  1  0
  2  1  1  0
  3  4  1  0
  3  2  1  0
  4  5  1  0
  5  6  1  0
  6  7  1  0
  8  7  1  0
  9 10  1  0
  9  8  1  0
 10 11  1  0
 12 11  1  0
 12  7  1  0
 13 14  1  0
 14 21  1  0
 15 16  2  0
 15 14  1  0
 17 16  1  0
 18 17  2  0
 19 20  2  0
 19 18  1  0
 20 15  1  0
  2 22  1  0
  2 23  1  0
  3 24  1  0
  3 25  1  0
  4 26  1  0
  4 27  1  0
  5 28  1  0
  5 29  1  0
  6 30  1  1
  8 31  1  0
  8 32  1  0
  9 33  1  0
  9 34  1  0
 11 35  1  0
 11 36  1  0
 12 37  1  0
 12 38  1  0
 13 39  1  0
 13 40  1  0
 14 41  1  1
 16 42  1  0
 17 43  1  0
 19 44  1  0
 21 45  1  0
 21 46  1  0
 21 47  1  0
M  ISO  8  22  13  23  13  24  13  25  13  26  13  27  13  28  13  29  13
M  ISO  8  30  13  31  13  32  13  33  13  34  13  35  13  36  13  37  13
M  ISO  8  38  13  39   8  40   8  41   8  42  14  43  14  44  14  45   8
M  ISO  2  46   8  47   8
M  END
>  <minimizedAffinity>  (1) 
-5.41974545

>  <minimizedRMSD>  (1) 
1.53518569

$$$$
