
     RDKit          3D

 41 43  0  0  1  0  0  0  0  0999 V2000
   42.6500   34.7250   40.5760 N   0  0  0  0  0  0  0  0  0  0  0  0
   42.6560   34.9480   39.1740 C   0  0  0  0  0  0  0  0  0  0  0  0
   41.3950   34.5690   38.4800 C   0  0  0  0  0  0  0  0  0  0  0  0
   40.2290   35.3300   39.0250 C   0  0  0  0  0  0  0  0  0  0  0  0
   40.2770   35.4040   40.4990 C   0  0  0  0  0  0  0  0  0  0  0  0
   41.3640   34.6200   41.1510 C   0  0  1  0  0  0  0  0  0  0  0  0
   40.9680   33.2360   41.5620 C   0  0  0  0  0  0  0  0  0  0  0  0
   39.6830   32.6730   41.5180 C   0  0  0  0  0  0  0  0  0  0  0  0
   39.7080   31.4080   41.9750 N   0  0  0  0  0  0  0  0  0  0  0  0
   40.9760   31.1200   42.3200 C   0  0  0  0  0  0  0  0  0  0  0  0
   41.6960   32.2240   42.0640 N   0  0  0  0  0  0  0  0  0  0  0  0
   43.5430   35.5870   41.3220 C   0  0  0  0  0  0  0  0  0  0  0  0
   44.4540   34.6680   42.1400 C   0  0  1  0  0  0  0  0  0  0  0  0
   45.7840   34.5450   41.4860 C   0  0  0  0  0  0  0  0  0  0  0  0
   46.8660   35.1820   42.1570 C   0  0  0  0  0  0  0  0  0  0  0  0
   48.1460   35.1150   41.5990 C   0  0  0  0  0  0  0  0  0  0  0  0
   48.2600   34.4150   40.4070 N   0  0  0  0  0  0  0  0  0  0  0  0
   47.2150   33.8310   39.8110 C   0  0  0  0  0  0  0  0  0  0  0  0
   45.9670   33.8850   40.3360 N   0  0  0  0  0  0  0  0  0  0  0  0
   44.5330   35.0900   43.5720 C   0  0  0  0  0  0  0  0  0  0  0  0
   42.8359   36.0188   38.9979 H   0  0  0  0  0  0  0  0  0  0  0  0
   43.4452   34.3035   38.7596 H   0  0  0  0  0  0  0  0  0  0  0  0
   41.2180   33.4924   38.6198 H   0  0  0  0  0  0  0  0  0  0  0  0
   41.4993   34.8090   37.4116 H   0  0  0  0  0  0  0  0  0  0  0  0
   40.2439   36.3504   38.6145 H   0  0  0  0  0  0  0  0  0  0  0  0
   39.3065   34.8063   38.7340 H   0  0  0  0  0  0  0  0  0  0  0  0
   40.4064   36.4595   40.7802 H   0  0  0  0  0  0  0  0  0  0  0  0
   39.3344   34.9602   40.8521 H   0  0  0  0  0  0  0  0  0  0  0  0
   41.5029   35.1594   42.0996 H   0  0  0  0  0  0  0  0  0  0  0  0
   38.7822   33.1930   41.1601 H   0  0  0  0  0  0  0  0  0  0  0  0
   41.3486   30.1697   42.7300 H   0  0  0  0  0  0  0  0  0  0  0  0
   42.7095   32.2891   42.2359 H   0  0  0  0  0  0  0  0  0  0  0  0
   44.1422   36.2004   40.6331 H   0  0  0  0  0  0  0  0  0  0  0  0
   42.9812   36.2720   41.9740 H   0  0  0  0  0  0  0  0  0  0  0  0
   44.0109   33.6614   42.1604 H   0  0  0  0  0  0  0  0  0  0  0  0
   46.6971   35.7196   43.1017 H   0  0  0  0  0  0  0  0  0  0  0  0
   49.0142   35.5908   42.0784 H   0  0  0  0  0  0  0  0  0  0  0  0
   47.3733   33.2905   38.8661 H   0  0  0  0  0  0  0  0  0  0  0  0
   44.3696   34.2171   44.2211 H   0  0  0  0  0  0  0  0  0  0  0  0
   45.5266   35.5165   43.7743 H   0  0  0  0  0  0  0  0  0  0  0  0
   43.7610   35.8470   43.7743 H   0  0  0  0  0  0  0  0  0  0  0  0
  1  6  1  0
  1 12  1  0
  2  1  1  0
  3  4  1  0
  3  2  1  0
  4  5  1  0
  5  6  1  0
  6  7  1  0
  7 11  1  0
  8  7  2  0
  8  9  1  0
  9 10  2  0
 11 10  1  0
 12 13  1  0
 13 20  1  0
 14 13  1  0
 14 15  2  0
 16 15  1  0
 17 16  2  0
 18 19  2  0
 18 17  1  0
 19 14  1  0
  2 21  1  0
  2 22  1  0
  3 23  1  0
  3 24  1  0
  4 25  1  0
  4 26  1  0
  5 27  1  0
  5 28  1  0
  6 29  1  1
  8 30  1  0
 10 31  1  0
 11 32  1  0
 12 33  1  0
 12 34  1  0
 13 35  1  1
 15 36  1  0
 16 37  1  0
 18 38  1  0
 20 39  1  0
 20 40  1  0
 20 41  1  0
M  ISO  8  21  13  22  13  23  13  24  13  25  13  26  13  27  13  28  13
M  ISO  8  29  13  30  14  31  14  32   9  33   8  34   8  35   8  36  14
M  ISO  5  37  14  38  14  39   8  40   8  41   8
M  END
>  <minimizedAffinity>  (1) 
-5.38061953

>  <minimizedRMSD>  (1) 
1.50575316

$$$$
