
     RDKit          3D

 41 43  0  0  1  0  0  0  0  0999 V2000
   42.5030   34.4010   40.7770 N   0  0  0  0  0  0  0  0  0  0  0  0
   42.6460   34.7940   39.4360 C   0  0  0  0  0  0  0  0  0  0  0  0
   41.3860   35.0900   38.7010 C   0  0  0  0  0  0  0  0  0  0  0  0
   40.5780   36.1450   39.3950 C   0  0  0  0  0  0  0  0  0  0  0  0
   40.5420   35.9030   40.8530 C   0  0  0  0  0  0  0  0  0  0  0  0
   41.2250   34.6770   41.3340 C   0  0  1  0  0  0  0  0  0  0  0  0
   40.3980   33.4430   41.3630 C   0  0  0  0  0  0  0  0  0  0  0  0
   39.1140   33.1160   40.9780 C   0  0  0  0  0  0  0  0  0  0  0  0
   38.8270   31.8140   41.2270 C   0  0  0  0  0  0  0  0  0  0  0  0
   39.9940   31.3420   41.7870 C   0  0  0  0  0  0  0  0  0  0  0  0
   40.8540   32.2970   41.8430 O   0  0  0  0  0  0  0  0  0  0  0  0
   43.6090   34.7540   41.6550 C   0  0  0  0  0  0  0  0  0  0  0  0
   44.5890   33.5780   41.5900 C   0  0  1  0  0  0  0  0  0  0  0  0
   45.9500   34.0500   41.2300 C   0  0  0  0  0  0  0  0  0  0  0  0
   46.6330   34.8140   42.2150 C   0  0  0  0  0  0  0  0  0  0  0  0
   47.9150   35.2950   41.9330 C   0  0  0  0  0  0  0  0  0  0  0  0
   48.4220   34.9820   40.6910 N   0  0  0  0  0  0  0  0  0  0  0  0
   47.7560   34.2640   39.7880 C   0  0  0  0  0  0  0  0  0  0  0  0
   46.5160   33.7890   40.0420 N   0  0  0  0  0  0  0  0  0  0  0  0
   44.5630   32.7740   42.8540 C   0  0  0  0  0  0  0  0  0  0  0  0
   43.2673   35.7016   39.4165 H   0  0  0  0  0  0  0  0  0  0  0  0
   43.0914   33.9298   38.9214 H   0  0  0  0  0  0  0  0  0  0  0  0
   40.7878   34.1694   38.6325 H   0  0  0  0  0  0  0  0  0  0  0  0
   41.6504   35.4616   37.7000 H   0  0  0  0  0  0  0  0  0  0  0  0
   41.0298   37.1295   39.2037 H   0  0  0  0  0  0  0  0  0  0  0  0
   39.5493   36.1143   39.0066 H   0  0  0  0  0  0  0  0  0  0  0  0
   41.0138   36.7650   41.3473 H   0  0  0  0  0  0  0  0  0  0  0  0
   39.4794   35.7623   41.1003 H   0  0  0  0  0  0  0  0  0  0  0  0
   41.4015   34.9743   42.3782 H   0  0  0  0  0  0  0  0  0  0  0  0
   38.4076   33.8263   40.5235 H   0  0  0  0  0  0  0  0  0  0  0  0
   37.8921   31.2688   41.0302 H   0  0  0  0  0  0  0  0  0  0  0  0
   40.1635   30.3113   42.1318 H   0  0  0  0  0  0  0  0  0  0  0  0
   44.0952   35.6769   41.3058 H   0  0  0  0  0  0  0  0  0  0  0  0
   43.2653   34.9367   42.6838 H   0  0  0  0  0  0  0  0  0  0  0  0
   44.2662   32.8957   40.7898 H   0  0  0  0  0  0  0  0  0  0  0  0
   46.1595   35.0238   43.1855 H   0  0  0  0  0  0  0  0  0  0  0  0
   48.4862   35.8894   42.6613 H   0  0  0  0  0  0  0  0  0  0  0  0
   48.2247   34.0532   38.8154 H   0  0  0  0  0  0  0  0  0  0  0  0
   44.5849   33.4517   43.7201 H   0  0  0  0  0  0  0  0  0  0  0  0
   43.6448   32.1690   42.8849 H   0  0  0  0  0  0  0  0  0  0  0  0
   45.4402   32.1110   42.8849 H   0  0  0  0  0  0  0  0  0  0  0  0
  1  6  1  0
  1 12  1  0
  2  1  1  0
  3  4  1  0
  3  2  1  0
  4  5  1  0
  5  6  1  0
  6  7  1  0
  7 11  1  0
  8  9  1  0
  8  7  2  0
  9 10  2  0
 10 11  1  0
 13 12  1  0
 13 20  1  0
 14 13  1  0
 14 15  2  0
 16 15  1  0
 17 16  2  0
 18 19  2  0
 18 17  1  0
 19 14  1  0
  2 21  1  0
  2 22  1  0
  3 23  1  0
  3 24  1  0
  4 25  1  0
  4 26  1  0
  5 27  1  0
  5 28  1  0
  6 29  1  1
  8 30  1  0
  9 31  1  0
 10 32  1  0
 12 33  1  0
 12 34  1  0
 13 35  1  6
 15 36  1  0
 16 37  1  0
 18 38  1  0
 20 39  1  0
 20 40  1  0
 20 41  1  0
M  ISO  8  21  13  22  13  23  13  24  13  25  13  26  13  27  13  28  13
M  ISO  8  29  13  30  14  31  14  32  14  33   8  34   8  35   8  36  14
M  ISO  5  37  14  38  14  39   8  40   8  41   8
M  END
>  <minimizedAffinity>  (1) 
-5.2583952

>  <minimizedRMSD>  (1) 
1.67170346

$$$$
