
     RDKit          3D

 41 43  0  0  1  0  0  0  0  0999 V2000
   41.0980   33.8540   39.5320 N   0  0  0  0  0  0  0  0  0  0  0  0
   40.6020   34.7080   38.4940 C   0  0  0  0  0  0  0  0  0  0  0  0
   39.3590   34.2080   37.8300 C   0  0  0  0  0  0  0  0  0  0  0  0
   38.2580   34.0510   38.8480 C   0  0  0  0  0  0  0  0  0  0  0  0
   38.7570   33.3780   40.0830 C   0  0  0  0  0  0  0  0  0  0  0  0
   40.1880   32.8580   39.9150 C   0  0  2  0  0  0  0  0  0  0  0  0
   40.4980   32.0710   41.1260 C   0  0  0  0  0  0  0  0  0  0  0  0
   41.3570   30.9610   41.0660 C   0  0  0  0  0  0  0  0  0  0  0  0
   41.5130   30.3600   42.2890 C   0  0  0  0  0  0  0  0  0  0  0  0
   40.7440   31.1130   43.0870 N   0  0  0  0  0  0  0  0  0  0  0  0
   40.1660   32.0890   42.4230 N   0  0  0  0  0  0  0  0  0  0  0  0
   41.8960   34.4930   40.5190 C   0  0  0  0  0  0  0  0  0  0  0  0
   43.3400   34.5240   39.9960 C   0  0  1  0  0  0  0  0  0  0  0  0
   44.2590   34.8770   41.1080 C   0  0  0  0  0  0  0  0  0  0  0  0
   45.5750   34.3530   41.0110 C   0  0  0  0  0  0  0  0  0  0  0  0
   46.5120   34.6230   42.0170 C   0  0  0  0  0  0  0  0  0  0  0  0
   46.0600   35.4070   43.0630 N   0  0  0  0  0  0  0  0  0  0  0  0
   44.8030   35.8860   43.1190 C   0  0  0  0  0  0  0  0  0  0  0  0
   43.9130   35.6260   42.1560 N   0  0  0  0  0  0  0  0  0  0  0  0
   43.7070   33.2600   39.2940 C   0  0  0  0  0  0  0  0  0  0  0  0
   40.3864   35.6937   38.9320 H   0  0  0  0  0  0  0  0  0  0  0  0
   41.3807   34.7472   37.7181 H   0  0  0  0  0  0  0  0  0  0  0  0
   39.0431   34.9269   37.0597 H   0  0  0  0  0  0  0  0  0  0  0  0
   39.5647   33.2316   37.3671 H   0  0  0  0  0  0  0  0  0  0  0  0
   37.8700   35.0455   39.1131 H   0  0  0  0  0  0  0  0  0  0  0  0
   37.4638   33.4292   38.4091 H   0  0  0  0  0  0  0  0  0  0  0  0
   38.7364   34.0991   40.9134 H   0  0  0  0  0  0  0  0  0  0  0  0
   38.1044   32.5165   40.2878 H   0  0  0  0  0  0  0  0  0  0  0  0
   40.2870   32.1802   39.0543 H   0  0  0  0  0  0  0  0  0  0  0  0
   41.8477   30.6140   40.1447 H   0  0  0  0  0  0  0  0  0  0  0  0
   42.1185   29.4794   42.5497 H   0  0  0  0  0  0  0  0  0  0  0  0
   40.6210   30.9475   44.0961 H   0  0  0  0  0  0  0  0  0  0  0  0
   41.5354   35.5185   40.6874 H   0  0  0  0  0  0  0  0  0  0  0  0
   41.8412   33.9489   41.4734 H   0  0  0  0  0  0  0  0  0  0  0  0
   43.4334   35.3060   39.2280 H   0  0  0  0  0  0  0  0  0  0  0  0
   45.8588   33.7352   40.1463 H   0  0  0  0  0  0  0  0  0  0  0  0
   47.5410   34.2363   41.9775 H   0  0  0  0  0  0  0  0  0  0  0  0
   44.5015   36.5053   43.9766 H   0  0  0  0  0  0  0  0  0  0  0  0
   43.9333   32.4806   40.0365 H   0  0  0  0  0  0  0  0  0  0  0  0
   42.8666   32.9332   38.6639 H   0  0  0  0  0  0  0  0  0  0  0  0
   44.5917   33.4341   38.6639 H   0  0  0  0  0  0  0  0  0  0  0  0
  1  6  1  0
  1 12  1  0
  2  1  1  0
  3  2  1  0
  3  4  1  0
  4  5  1  0
  6  5  1  0
  6  7  1  0
  7 11  2  0
  8  7  1  0
  8  9  2  0
  9 10  1  0
 11 10  1  0
 13 12  1  0
 13 14  1  0
 14 19  1  0
 15 14  2  0
 15 16  1  0
 16 17  2  0
 17 18  1  0
 19 18  2  0
 20 13  1  0
  2 21  1  0
  2 22  1  0
  3 23  1  0
  3 24  1  0
  4 25  1  0
  4 26  1  0
  5 27  1  0
  5 28  1  0
  6 29  1  6
  8 30  1  0
  9 31  1  0
 10 32  1  0
 12 33  1  0
 12 34  1  0
 13 35  1  6
 15 36  1  0
 16 37  1  0
 18 38  1  0
 20 39  1  0
 20 40  1  0
 20 41  1  0
M  ISO  8  21  13  22  13  23  13  24  13  25  13  26  13  27  13  28  13
M  ISO  8  29  13  30  14  31  14  32   9  33   8  34   8  35   8  36  14
M  ISO  5  37  14  38  14  39   8  40   8  41   8
M  END
>  <minimizedAffinity>  (1) 
-5.11371946

>  <minimizedRMSD>  (1) 
3.99145818

$$$$
