
     RDKit          3D

 35 36  0  0  1  0  0  0  0  0999 V2000
   43.4870   35.7120   41.3380 C   0  0  0  0  0  0  0  0  0  0  0  0
   42.4340   34.8750   40.8320 N   0  0  0  0  0  0  0  0  0  0  0  0
   42.5510   34.4610   39.4860 C   0  0  0  0  0  0  0  0  0  0  0  0
   41.2370   34.1050   38.8470 C   0  0  0  0  0  0  0  0  0  0  0  0
   40.3430   35.3110   38.8280 C   0  0  0  0  0  0  0  0  0  0  0  0
   40.3450   35.9910   40.1580 C   0  0  0  0  0  0  0  0  0  0  0  0
   41.1180   35.2500   41.2270 C   0  0  1  0  0  0  0  0  0  0  0  0
   40.1580   33.7710   41.6920 S   0  0  0  0  0  0  0  0  0  0  0  0
   44.3540   34.8430   42.2540 C   0  0  1  0  0  0  0  0  0  0  0  0
   45.7210   34.6810   41.6830 C   0  0  0  0  0  0  0  0  0  0  0  0
   46.7930   35.2460   42.4380 C   0  0  0  0  0  0  0  0  0  0  0  0
   48.0820   35.1260   41.9350 C   0  0  0  0  0  0  0  0  0  0  0  0
   48.2280   34.4580   40.7250 N   0  0  0  0  0  0  0  0  0  0  0  0
   47.2040   33.9460   40.0520 C   0  0  0  0  0  0  0  0  0  0  0  0
   45.9340   34.0450   40.5130 N   0  0  0  0  0  0  0  0  0  0  0  0
   44.3670   35.3830   43.6480 C   0  0  0  0  0  0  0  0  0  0  0  0
   43.0610   36.5514   41.9071 H   0  0  0  0  0  0  0  0  0  0  0  0
   44.0848   36.1293   40.5143 H   0  0  0  0  0  0  0  0  0  0  0  0
   43.0073   35.2791   38.9094 H   0  0  0  0  0  0  0  0  0  0  0  0
   43.1678   33.5502   39.4821 H   0  0  0  0  0  0  0  0  0  0  0  0
   41.4120   33.7627   37.8163 H   0  0  0  0  0  0  0  0  0  0  0  0
   40.7554   33.3024   39.4248 H   0  0  0  0  0  0  0  0  0  0  0  0
   40.7019   36.0145   38.0623 H   0  0  0  0  0  0  0  0  0  0  0  0
   39.3172   34.9871   38.5981 H   0  0  0  0  0  0  0  0  0  0  0  0
   40.7928   36.9883   40.0359 H   0  0  0  0  0  0  0  0  0  0  0  0
   39.2987   36.0348   40.4946 H   0  0  0  0  0  0  0  0  0  0  0  0
   41.2505   35.9333   42.0788 H   0  0  0  0  0  0  0  0  0  0  0  0
   40.0969   33.6769   43.0574 H   0  0  0  0  0  0  0  0  0  0  0  0
   43.9125   33.8373   42.3138 H   0  0  0  0  0  0  0  0  0  0  0  0
   46.6034   35.7617   43.3910 H   0  0  0  0  0  0  0  0  0  0  0  0
   48.9486   35.5411   42.4704 H   0  0  0  0  0  0  0  0  0  0  0  0
   47.3913   33.4299   39.0988 H   0  0  0  0  0  0  0  0  0  0  0  0
   44.3469   34.5487   44.3646 H   0  0  0  0  0  0  0  0  0  0  0  0
   45.2797   35.9772   43.8025 H   0  0  0  0  0  0  0  0  0  0  0  0
   43.4839   36.0204   43.8025 H   0  0  0  0  0  0  0  0  0  0  0  0
  1  9  1  0
  2  7  1  0
  2  1  1  0
  3  2  1  0
  4  3  1  0
  5  4  1  0
  5  6  1  0
  6  7  1  0
  7  8  1  0
  9 16  1  0
 10  9  1  0
 10 11  2  0
 12 11  1  0
 13 12  2  0
 14 15  2  0
 14 13  1  0
 15 10  1  0
  1 17  1  0
  1 18  1  0
  3 19  1  0
  3 20  1  0
  4 21  1  0
  4 22  1  0
  5 23  1  0
  5 24  1  0
  6 25  1  0
  6 26  1  0
  7 27  1  1
  8 28  1  0
  9 29  1  1
 11 30  1  0
 12 31  1  0
 14 32  1  0
 16 33  1  0
 16 34  1  0
 16 35  1  0
M  ISO  8  17   8  18   8  19  13  20  13  21  13  22  13  23  13  24  13
M  ISO  8  25  13  26  13  27  13  28  11  29   8  30  14  31  14  32  14
M  ISO  3  33   8  34   8  35   8
M  END
>  <minimizedAffinity>  (1) 
-4.71541977

>  <minimizedRMSD>  (1) 
0.40124163

$$$$
