
     RDKit          3D

 36 37  0  0  1  0  0  0  0  0999 V2000
   43.5170   35.2200   40.7260 C   0  0  0  0  0  0  0  0  0  0  0  0
   42.5260   34.2330   40.4010 N   0  0  0  0  0  0  0  0  0  0  0  0
   42.8300   33.4120   39.2790 C   0  0  0  0  0  0  0  0  0  0  0  0
   41.6020   32.7620   38.6820 C   0  0  0  0  0  0  0  0  0  0  0  0
   40.7320   33.8520   38.1200 C   0  0  0  0  0  0  0  0  0  0  0  0
   40.5840   34.9660   39.0900 C   0  0  0  0  0  0  0  0  0  0  0  0
   41.1750   34.6480   40.4620 C   0  0  2  0  0  0  0  0  0  0  0  0
   40.8980   35.8260   41.3220 C   0  0  0  0  0  0  0  0  0  0  0  0
   40.1420   36.6460   40.7800 O   0  0  0  0  0  0  0  0  0  0  0  0
   44.3880   34.6330   41.8370 C   0  0  1  0  0  0  0  0  0  0  0  0
   45.8120   34.5610   41.4080 C   0  0  0  0  0  0  0  0  0  0  0  0
   46.7540   35.1610   42.2820 C   0  0  0  0  0  0  0  0  0  0  0  0
   48.0860   35.1440   41.9360 C   0  0  0  0  0  0  0  0  0  0  0  0
   48.4180   34.5400   40.7540 N   0  0  0  0  0  0  0  0  0  0  0  0
   47.5110   33.9790   39.9450 C   0  0  0  0  0  0  0  0  0  0  0  0
   46.2100   33.9850   40.2630 N   0  0  0  0  0  0  0  0  0  0  0  0
   44.1920   35.4270   43.0900 C   0  0  0  0  0  0  0  0  0  0  0  0
   43.0304   36.1425   41.0755 H   0  0  0  0  0  0  0  0  0  0  0  0
   44.1240   35.4709   39.8436 H   0  0  0  0  0  0  0  0  0  0  0  0
   43.3095   34.0331   38.5080 H   0  0  0  0  0  0  0  0  0  0  0  0
   43.4960   32.6083   39.6260 H   0  0  0  0  0  0  0  0  0  0  0  0
   41.8977   32.0688   37.8808 H   0  0  0  0  0  0  0  0  0  0  0  0
   41.0570   32.1929   39.4495 H   0  0  0  0  0  0  0  0  0  0  0  0
   41.1890   34.2371   37.1965 H   0  0  0  0  0  0  0  0  0  0  0  0
   39.7363   33.4338   37.9111 H   0  0  0  0  0  0  0  0  0  0  0  0
   41.0947   35.8524   38.6857 H   0  0  0  0  0  0  0  0  0  0  0  0
   39.5066   35.1391   39.2290 H   0  0  0  0  0  0  0  0  0  0  0  0
   40.6994   33.7649   40.9135 H   0  0  0  0  0  0  0  0  0  0  0  0
   41.3177   35.9572   42.3303 H   0  0  0  0  0  0  0  0  0  0  0  0
   44.0824   33.5978   42.0490 H   0  0  0  0  0  0  0  0  0  0  0  0
   46.4257   35.6319   43.2203 H   0  0  0  0  0  0  0  0  0  0  0  0
   48.8518   35.5971   42.5828 H   0  0  0  0  0  0  0  0  0  0  0  0
   47.8384   33.5070   39.0069 H   0  0  0  0  0  0  0  0  0  0  0  0
   44.3521   34.7784   43.9639 H   0  0  0  0  0  0  0  0  0  0  0  0
   44.9119   36.2584   43.1136 H   0  0  0  0  0  0  0  0  0  0  0  0
   43.1679   35.8279   43.1136 H   0  0  0  0  0  0  0  0  0  0  0  0
  1 10  1  0
  2  7  1  0
  2  1  1  0
  3  2  1  0
  4  3  1  0
  5  4  1  0
  5  6  1  0
  6  7  1  0
  7  8  1  0
  9  8  2  0
 10 17  1  0
 11 10  1  0
 11 12  2  0
 13 12  1  0
 14 13  2  0
 15 16  2  0
 15 14  1  0
 16 11  1  0
  1 18  1  0
  1 19  1  0
  3 20  1  0
  3 21  1  0
  4 22  1  0
  4 23  1  0
  5 24  1  0
  5 25  1  0
  6 26  1  0
  6 27  1  0
  7 28  1  1
  8 29  1  0
 10 30  1  1
 12 31  1  0
 13 32  1  0
 15 33  1  0
 17 34  1  0
 17 35  1  0
 17 36  1  0
M  ISO  8  18   8  19   8  20  13  21  13  22  13  23  13  24  13  25  13
M  ISO  8  26  13  27  13  28  13  29   6  30   8  31  14  32  14  33  14
M  ISO  3  34   8  35   8  36   8
M  END
>  <minimizedAffinity>  (1) 
-4.58800411

>  <minimizedRMSD>  (1) 
1.30670869

$$$$
