
     RDKit          3D

 39 41  0  0  1  0  0  0  0  0999 V2000
   42.0260   33.8710   39.9860 N   0  0  0  0  0  0  0  0  0  0  0  0
   42.6480   35.0350   39.4250 C   0  0  0  0  0  0  0  0  0  0  0  0
   42.0600   35.4770   38.1160 C   0  0  0  0  0  0  0  0  0  0  0  0
   40.6040   35.7950   38.3080 C   0  0  0  0  0  0  0  0  0  0  0  0
   39.9150   34.7740   39.1550 C   0  0  0  0  0  0  0  0  0  0  0  0
   40.8140   33.5470   39.3680 C   0  0  2  0  0  0  0  0  0  0  0  0
   39.9600   32.5180   39.9300 C   0  0  0  0  0  0  0  0  0  0  0  0
   39.9890   31.1750   40.0010 N   0  0  0  0  0  0  0  0  0  0  0  0
   38.9500   30.7130   40.6330 O   0  0  0  0  0  0  0  0  0  0  0  0
   38.1840   31.7010   41.0100 C   0  0  0  0  0  0  0  0  0  0  0  0
   38.7920   32.7920   40.5880 N   0  0  0  0  0  0  0  0  0  0  0  0
   42.1880   33.7130   41.3880 C   0  0  0  0  0  0  0  0  0  0  0  0
   43.3390   32.7220   41.6150 C   0  0  1  0  0  0  0  0  0  0  0  0
   44.4230   33.3580   42.4050 C   0  0  0  0  0  0  0  0  0  0  0  0
   45.0860   32.5290   43.3570 C   0  0  0  0  0  0  0  0  0  0  0  0
   46.1070   33.0740   44.1320 C   0  0  0  0  0  0  0  0  0  0  0  0
   46.4070   34.4090   43.9180 N   0  0  0  0  0  0  0  0  0  0  0  0
   45.7640   35.1570   43.0150 C   0  0  0  0  0  0  0  0  0  0  0  0
   44.7710   34.6520   42.2510 N   0  0  0  0  0  0  0  0  0  0  0  0
   42.8730   31.4470   42.2180 C   0  0  0  0  0  0  0  0  0  0  0  0
   42.5471   35.8607   40.1447 H   0  0  0  0  0  0  0  0  0  0  0  0
   43.6965   34.7682   39.2264 H   0  0  0  0  0  0  0  0  0  0  0  0
   42.1655   34.6710   37.3749 H   0  0  0  0  0  0  0  0  0  0  0  0
   42.5888   36.3727   37.7581 H   0  0  0  0  0  0  0  0  0  0  0  0
   40.5162   36.7777   38.7944 H   0  0  0  0  0  0  0  0  0  0  0  0
   40.1231   35.7964   37.3187 H   0  0  0  0  0  0  0  0  0  0  0  0
   39.6740   35.2187   40.1318 H   0  0  0  0  0  0  0  0  0  0  0  0
   38.9954   34.4534   38.6435 H   0  0  0  0  0  0  0  0  0  0  0  0
   41.2257   33.1169   38.4431 H   0  0  0  0  0  0  0  0  0  0  0  0
   37.2345   31.6367   41.5617 H   0  0  0  0  0  0  0  0  0  0  0  0
   42.4311   34.6818   41.8488 H   0  0  0  0  0  0  0  0  0  0  0  0
   41.2600   33.3373   41.8437 H   0  0  0  0  0  0  0  0  0  0  0  0
   43.7532   32.4541   40.6318 H   0  0  0  0  0  0  0  0  0  0  0  0
   44.7955   31.4749   43.4776 H   0  0  0  0  0  0  0  0  0  0  0  0
   46.6486   32.4734   44.8776 H   0  0  0  0  0  0  0  0  0  0  0  0
   46.0513   36.2115   42.8911 H   0  0  0  0  0  0  0  0  0  0  0  0
   42.9025   31.5277   43.3146 H   0  0  0  0  0  0  0  0  0  0  0  0
   41.8421   31.2429   41.8930 H   0  0  0  0  0  0  0  0  0  0  0  0
   43.5293   30.6262   41.8930 H   0  0  0  0  0  0  0  0  0  0  0  0
  1 12  1  0
  2  1  1  0
  3  4  1  0
  3  2  1  0
  4  5  1  0
  5  6  1  0
  6  7  1  0
  6  1  1  0
  7  8  2  0
  7 11  1  0
  8  9  1  0
  9 10  1  0
 11 10  2  0
 12 13  1  0
 13 20  1  0
 13 14  1  0
 14 15  2  0
 15 16  1  0
 17 16  2  0
 18 17  1  0
 19 14  1  0
 19 18  2  0
  2 21  1  0
  2 22  1  0
  3 23  1  0
  3 24  1  0
  4 25  1  0
  4 26  1  0
  5 27  1  0
  5 28  1  0
  6 29  1  6
 10 30  1  0
 12 31  1  0
 12 32  1  0
 13 33  1  6
 15 34  1  0
 16 35  1  0
 18 36  1  0
 20 37  1  0
 20 38  1  0
 20 39  1  0
M  ISO  8  21  13  22  13  23  13  24  13  25  13  26  13  27  13  28  13
M  ISO  8  29  13  30  14  31   8  32   8  33   8  34  14  35  14  36  14
M  ISO  3  37   8  38   8  39   8
M  END
>  <minimizedAffinity>  (1) 
-4.41768932

>  <minimizedRMSD>  (1) 
4.07166862

$$$$
