
     RDKit          3D

 46 47  0  0  1  0  0  0  0  0999 V2000
   42.4790   34.3810   40.1810 N   0  0  0  0  0  0  0  0  0  0  0  0
   42.7370   34.1160   38.8150 C   0  0  0  0  0  0  0  0  0  0  0  0
   41.5710   33.7640   37.9760 C   0  0  0  0  0  0  0  0  0  0  0  0
   40.5050   34.8000   38.0280 C   0  0  0  0  0  0  0  0  0  0  0  0
   40.3220   35.3390   39.3870 C   0  0  0  0  0  0  0  0  0  0  0  0
   41.1200   34.6480   40.4690 C   0  0  1  0  0  0  0  0  0  0  0  0
   40.3410   33.6010   41.2000 C   0  0  0  0  0  0  0  0  0  0  0  0
   40.0100   33.9900   42.6270 C   0  0  0  0  0  0  0  0  0  0  0  0
   38.9280   33.4510   40.5730 C   0  0  0  0  0  0  0  0  0  0  0  0
   40.8580   32.2110   41.1680 C   0  0  0  0  0  0  0  0  0  0  0  0
   43.4130   35.3720   40.7360 C   0  0  0  0  0  0  0  0  0  0  0  0
   44.2000   34.6230   41.8160 C   0  0  1  0  0  0  0  0  0  0  0  0
   45.6390   34.5360   41.4200 C   0  0  0  0  0  0  0  0  0  0  0  0
   46.5790   35.1150   42.3170 C   0  0  0  0  0  0  0  0  0  0  0  0
   47.9290   35.0890   42.0150 C   0  0  0  0  0  0  0  0  0  0  0  0
   48.2850   34.4880   40.8360 N   0  0  0  0  0  0  0  0  0  0  0  0
   47.3790   33.9450   40.0010 C   0  0  0  0  0  0  0  0  0  0  0  0
   46.0570   33.9650   40.2870 N   0  0  0  0  0  0  0  0  0  0  0  0
   44.0100   35.2870   43.1410 C   0  0  0  0  0  0  0  0  0  0  0  0
   43.1998   35.0153   38.3824 H   0  0  0  0  0  0  0  0  0  0  0  0
   43.3781   33.2221   38.8095 H   0  0  0  0  0  0  0  0  0  0  0  0
   41.1546   32.8098   38.3313 H   0  0  0  0  0  0  0  0  0  0  0  0
   41.9164   33.6884   36.9344 H   0  0  0  0  0  0  0  0  0  0  0  0
   40.7785   35.6245   37.3532 H   0  0  0  0  0  0  0  0  0  0  0  0
   39.5597   34.3292   37.7201 H   0  0  0  0  0  0  0  0  0  0  0  0
   40.6140   36.3995   39.3741 H   0  0  0  0  0  0  0  0  0  0  0  0
   39.2636   35.1762   39.6388 H   0  0  0  0  0  0  0  0  0  0  0  0
   41.2772   35.4186   41.2380 H   0  0  0  0  0  0  0  0  0  0  0  0
   40.5627   33.3405   43.3217 H   0  0  0  0  0  0  0  0  0  0  0  0
   40.2976   35.0380   42.7975 H   0  0  0  0  0  0  0  0  0  0  0  0
   38.9295   33.8739   42.7975 H   0  0  0  0  0  0  0  0  0  0  0  0
   38.1781   33.3714   41.3738 H   0  0  0  0  0  0  0  0  0  0  0  0
   38.7078   34.3308   39.9506 H   0  0  0  0  0  0  0  0  0  0  0  0
   38.8974   32.5446   39.9506 H   0  0  0  0  0  0  0  0  0  0  0  0
   40.9936   31.8464   42.1969 H   0  0  0  0  0  0  0  0  0  0  0  0
   40.1401   31.5648   40.6417 H   0  0  0  0  0  0  0  0  0  0  0  0
   41.8237   32.1910   40.6417 H   0  0  0  0  0  0  0  0  0  0  0  0
   44.0905   35.7439   39.9533 H   0  0  0  0  0  0  0  0  0  0  0  0
   42.8876   36.2481   41.1439 H   0  0  0  0  0  0  0  0  0  0  0  0
   43.8220   33.5946   41.9137 H   0  0  0  0  0  0  0  0  0  0  0  0
   46.2328   35.5832   43.2503 H   0  0  0  0  0  0  0  0  0  0  0  0
   48.6795   35.5291   42.6881 H   0  0  0  0  0  0  0  0  0  0  0  0
   47.7209   33.4754   39.0669 H   0  0  0  0  0  0  0  0  0  0  0  0
   44.2164   34.5658   43.9455 H   0  0  0  0  0  0  0  0  0  0  0  0
   44.7004   36.1391   43.2265 H   0  0  0  0  0  0  0  0  0  0  0  0
   42.9734   35.6449   43.2265 H   0  0  0  0  0  0  0  0  0  0  0  0
  1  6  1  0
  1 11  1  0
  2  1  1  0
  3  4  1  0
  3  2  1  0
  4  5  1  0
  5  6  1  0
  6  7  1  0
  7  8  1  0
  9  7  1  0
 10  7  1  0
 11 12  1  0
 12 19  1  0
 13 12  1  0
 13 14  2  0
 15 14  1  0
 16 15  2  0
 17 18  2  0
 17 16  1  0
 18 13  1  0
  2 20  1  0
  2 21  1  0
  3 22  1  0
  3 23  1  0
  4 24  1  0
  4 25  1  0
  5 26  1  0
  5 27  1  0
  6 28  1  1
  8 29  1  0
  8 30  1  0
  8 31  1  0
  9 32  1  0
  9 33  1  0
  9 34  1  0
 10 35  1  0
 10 36  1  0
 10 37  1  0
 11 38  1  0
 11 39  1  0
 12 40  1  1
 14 41  1  0
 15 42  1  0
 17 43  1  0
 19 44  1  0
 19 45  1  0
 19 46  1  0
M  ISO  8  20  13  21  13  22  13  23  13  24  13  25  13  26  13  27  13
M  ISO  8  28  13  29   8  30   8  31   8  32   8  33   8  34   8  35   8
M  ISO  8  36   8  37   8  38   8  39   8  40   8  41  14  42  14  43  14
M  ISO  3  44   8  45   8  46   8
M  END
>  <minimizedAffinity>  (1) 
-4.41746092

>  <minimizedRMSD>  (1) 
1.26774597

$$$$
