
     RDKit          3D

 47 50  0  0  1  0  0  0  0  0999 V2000
   44.7450   34.6580   41.6810 C   0  0  2  0  0  0  0  0  0  0  0  0
   45.6890   34.0520   40.6900 C   0  0  0  0  0  0  0  0  0  0  0  0
   47.0560   34.5050   40.7400 C   0  0  0  0  0  0  0  0  0  0  0  0
   47.9370   33.9450   39.8200 C   0  0  0  0  0  0  0  0  0  0  0  0
   47.4370   33.0000   38.9270 N   0  0  0  0  0  0  0  0  0  0  0  0
   46.1440   32.6170   38.9290 C   0  0  0  0  0  0  0  0  0  0  0  0
   45.2750   33.1250   39.7880 N   0  0  0  0  0  0  0  0  0  0  0  0
   43.7090   35.5140   40.8870 C   0  0  0  0  0  0  0  0  0  0  0  0
   42.5690   34.6660   40.6770 N   0  0  0  0  0  0  0  0  0  0  0  0
   42.2310   34.3150   39.3600 C   0  0  0  0  0  0  0  0  0  0  0  0
   40.7980   33.8740   39.1930 C   0  0  0  0  0  0  0  0  0  0  0  0
   39.8960   35.0000   39.5710 C   0  0  0  0  0  0  0  0  0  0  0  0
   40.3290   35.6160   40.8640 C   0  0  0  0  0  0  0  0  0  0  0  0
   41.4560   34.8930   41.5300 C   0  0  2  0  0  0  0  0  0  0  0  0
   41.7980   35.6730   42.7130 N   0  0  0  0  0  0  0  0  0  0  0  0
   45.4260   35.4800   42.6990 C   0  0  0  0  0  0  0  0  0  0  0  0
   45.1650   35.1730   44.0760 N   0  0  0  0  0  0  0  0  0  0  0  0
   44.4690   35.5480   45.1550 C   0  0  0  0  0  0  0  0  0  0  0  0
   44.6470   34.7890   46.2380 N   0  0  0  0  0  0  0  0  0  0  0  0
   45.5170   33.8210   45.9130 C   0  0  0  0  0  0  0  0  0  0  0  0
   45.9870   32.8210   46.7130 C   0  0  0  0  0  0  0  0  0  0  0  0
   46.8700   31.9770   46.1030 N   0  0  0  0  0  0  0  0  0  0  0  0
   47.2170   32.1530   44.8150 C   0  0  0  0  0  0  0  0  0  0  0  0
   46.7060   33.1640   44.1010 N   0  0  0  0  0  0  0  0  0  0  0  0
   45.8150   34.0710   44.6090 C   0  0  0  0  0  0  0  0  0  0  0  0
   44.2496   33.8480   42.2365 H   0  0  0  0  0  0  0  0  0  0  0  0
   47.3873   35.2576   41.4706 H   0  0  0  0  0  0  0  0  0  0  0  0
   48.9966   34.2397   39.7985 H   0  0  0  0  0  0  0  0  0  0  0  0
   45.8042   31.8659   38.2007 H   0  0  0  0  0  0  0  0  0  0  0  0
   43.4220   36.4023   41.4688 H   0  0  0  0  0  0  0  0  0  0  0  0
   44.1273   35.8684   39.9334 H   0  0  0  0  0  0  0  0  0  0  0  0
   42.4019   35.1888   38.7141 H   0  0  0  0  0  0  0  0  0  0  0  0
   42.8628   33.4572   39.0863 H   0  0  0  0  0  0  0  0  0  0  0  0
   40.6183   33.5935   38.1446 H   0  0  0  0  0  0  0  0  0  0  0  0
   40.5989   33.0057   39.8383 H   0  0  0  0  0  0  0  0  0  0  0  0
   39.9226   35.7645   38.7805 H   0  0  0  0  0  0  0  0  0  0  0  0
   38.8749   34.6090   39.6910 H   0  0  0  0  0  0  0  0  0  0  0  0
   40.6492   36.6495   40.6656 H   0  0  0  0  0  0  0  0  0  0  0  0
   39.4681   35.5654   41.5469 H   0  0  0  0  0  0  0  0  0  0  0  0
   41.1427   33.8757   41.8075 H   0  0  0  0  0  0  0  0  0  0  0  0
   41.5621   35.1349   43.5590 H   0  0  0  0  0  0  0  0  0  0  0  0
   42.8070   35.8799   42.7079 H   0  0  0  0  0  0  0  0  0  0  0  0
   46.5090   35.3760   42.5370 H   0  0  0  0  0  0  0  0  0  0  0  0
   45.0263   36.4948   42.5556 H   0  0  0  0  0  0  0  0  0  0  0  0
   43.7980   36.4196   45.1499 H   0  0  0  0  0  0  0  0  0  0  0  0
   45.6800   32.7043   47.7628 H   0  0  0  0  0  0  0  0  0  0  0  0
   47.9282   31.4588   44.3434 H   0  0  0  0  0  0  0  0  0  0  0  0
  1 16  1  0
  2  3  2  0
  2  1  1  0
  4  3  1  0
  5  6  1  0
  5  4  2  0
  6  7  2  0
  7  2  1  0
  8  1  1  0
  9  8  1  0
  9 14  1  0
 10  9  1  0
 11 10  1  0
 11 12  1  0
 12 13  1  0
 13 14  1  0
 14 15  1  0
 16 17  1  0
 17 25  1  0
 17 18  1  0
 18 19  2  0
 20 19  1  0
 20 21  2  0
 22 21  1  0
 23 22  2  0
 24 25  2  0
 24 23  1  0
 25 20  1  0
  1 26  1  1
  3 27  1  0
  4 28  1  0
  6 29  1  0
  8 30  1  0
  8 31  1  0
 10 32  1  0
 10 33  1  0
 11 34  1  0
 11 35  1  0
 12 36  1  0
 12 37  1  0
 13 38  1  0
 13 39  1  0
 14 40  1  1
 15 41  1  0
 15 42  1  0
 16 43  1  0
 16 44  1  0
 18 45  1  0
 21 46  1  0
 23 47  1  0
M  ISO  8  26   8  27  14  28  14  29  14  30   8  31   8  32  13  33  13
M  ISO  8  34  13  35  13  36  13  37  13  38  13  39  13  40  13  41   5
M  ISO  6  42   5  43   8  44   8  45  14  46  14  47  14
M  END
>  <minimizedAffinity>  (1) 
-6.39688969

>  <minimizedRMSD>  (1) 
1.8754735

$$$$
