
     RDKit          3D

 41 43  0  0  1  0  0  0  0  0999 V2000
   43.7570   35.4460   40.8710 C   0  0  0  0  0  0  0  0  0  0  0  0
   42.6000   34.6450   40.6690 N   0  0  0  0  0  0  0  0  0  0  0  0
   42.1980   34.3410   39.3520 C   0  0  0  0  0  0  0  0  0  0  0  0
   40.7430   33.9450   39.2380 C   0  0  0  0  0  0  0  0  0  0  0  0
   39.9130   35.1170   39.6510 C   0  0  0  0  0  0  0  0  0  0  0  0
   40.4150   35.7140   40.9360 C   0  0  0  0  0  0  0  0  0  0  0  0
   41.5200   34.8890   41.5640 C   0  0  2  0  0  0  0  0  0  0  0  0
   41.9280   35.6540   42.7330 N   0  0  0  0  0  0  0  0  0  0  0  0
   44.8280   34.6150   41.5520 C   0  0  1  0  0  0  0  0  0  0  0  0
   45.7850   34.0770   40.5320 C   0  0  0  0  0  0  0  0  0  0  0  0
   47.1290   34.4730   40.6870 C   0  0  0  0  0  0  0  0  0  0  0  0
   48.0860   34.0230   39.7680 C   0  0  0  0  0  0  0  0  0  0  0  0
   47.6280   33.1960   38.7400 N   0  0  0  0  0  0  0  0  0  0  0  0
   46.3340   32.8500   38.6400 C   0  0  0  0  0  0  0  0  0  0  0  0
   45.4220   33.2700   39.5030 N   0  0  0  0  0  0  0  0  0  0  0  0
   45.4890   35.2600   42.6730 C   0  0  0  0  0  0  0  0  0  0  0  0
   45.3240   34.9170   44.0530 C   0  0  0  0  0  0  0  0  0  0  0  0
   44.5190   35.6850   44.8490 N   0  0  0  0  0  0  0  0  0  0  0  0
   44.4810   35.1670   46.0360 O   0  0  0  0  0  0  0  0  0  0  0  0
   45.2100   34.0910   46.1030 C   0  0  0  0  0  0  0  0  0  0  0  0
   45.7190   33.9460   44.8970 N   0  0  0  0  0  0  0  0  0  0  0  0
   43.5015   36.3077   41.5053 H   0  0  0  0  0  0  0  0  0  0  0  0
   44.1305   35.8060   39.9010 H   0  0  0  0  0  0  0  0  0  0  0  0
   42.3671   35.2279   38.7236 H   0  0  0  0  0  0  0  0  0  0  0  0
   42.7937   33.4760   39.0250 H   0  0  0  0  0  0  0  0  0  0  0  0
   40.5109   33.6707   38.1983 H   0  0  0  0  0  0  0  0  0  0  0  0
   40.5304   33.0794   39.8826 H   0  0  0  0  0  0  0  0  0  0  0  0
   39.9531   35.8812   38.8608 H   0  0  0  0  0  0  0  0  0  0  0  0
   38.8797   34.7738   39.8072 H   0  0  0  0  0  0  0  0  0  0  0  0
   40.8014   36.7230   40.7294 H   0  0  0  0  0  0  0  0  0  0  0  0
   39.5736   35.7415   41.6440 H   0  0  0  0  0  0  0  0  0  0  0  0
   41.1725   33.8806   41.8332 H   0  0  0  0  0  0  0  0  0  0  0  0
   41.6572   35.1462   43.5872 H   0  0  0  0  0  0  0  0  0  0  0  0
   42.9498   35.7828   42.7195 H   0  0  0  0  0  0  0  0  0  0  0  0
   44.3104   33.7701   42.0296 H   0  0  0  0  0  0  0  0  0  0  0  0
   47.4231   35.1281   41.5203 H   0  0  0  0  0  0  0  0  0  0  0  0
   49.1454   34.3069   39.8520 H   0  0  0  0  0  0  0  0  0  0  0  0
   46.0214   32.1955   37.8130 H   0  0  0  0  0  0  0  0  0  0  0  0
   46.5656   35.1523   42.4749 H   0  0  0  0  0  0  0  0  0  0  0  0
   44.9796   36.2348   42.6579 H   0  0  0  0  0  0  0  0  0  0  0  0
   45.3671   33.4428   46.9777 H   0  0  0  0  0  0  0  0  0  0  0  0
  1  9  1  0
  2  1  1  0
  2  7  1  0
  3  2  1  0
  4  3  1  0
  4  5  1  0
  5  6  1  0
  6  7  1  0
  7  8  1  0
  9 16  1  0
 10 11  2  0
 10  9  1  0
 12 11  1  0
 13 12  2  0
 14 13  1  0
 14 15  2  0
 15 10  1  0
 16 17  1  0
 17 18  2  0
 17 21  1  0
 18 19  1  0
 19 20  1  0
 21 20  2  0
  1 22  1  0
  1 23  1  0
  3 24  1  0
  3 25  1  0
  4 26  1  0
  4 27  1  0
  5 28  1  0
  5 29  1  0
  6 30  1  0
  6 31  1  0
  7 32  1  1
  8 33  1  0
  8 34  1  0
  9 35  1  1
 11 36  1  0
 12 37  1  0
 14 38  1  0
 16 39  1  0
 16 40  1  0
 20 41  1  0
M  ISO  8  22   8  23   8  24  13  25  13  26  13  27  13  28  13  29  13
M  ISO  8  30  13  31  13  32  13  33   5  34   5  35   8  36  14  37  14
M  ISO  4  38  14  39   8  40   8  41  14
M  END
>  <minimizedAffinity>  (1) 
-5.83388901

>  <minimizedRMSD>  (1) 
1.57360876

$$$$
