
     RDKit          3D

 50 53  0  0  1  0  0  0  0  0999 V2000
   45.9860   33.8100   42.1150 C   0  0  2  0  0  0  0  0  0  0  0  0
   45.5270   34.2520   43.4690 C   0  0  0  0  0  0  0  0  0  0  0  0
   44.8730   35.5010   43.5200 C   0  0  0  0  0  0  0  0  0  0  0  0
   44.4230   35.9890   44.7450 C   0  0  0  0  0  0  0  0  0  0  0  0
   44.6470   35.2100   45.8600 N   0  0  0  0  0  0  0  0  0  0  0  0
   45.2790   34.0170   45.7660 C   0  0  0  0  0  0  0  0  0  0  0  0
   45.7160   33.5330   44.6050 N   0  0  0  0  0  0  0  0  0  0  0  0
   47.4990   33.9210   42.0230 C   0  0  0  0  0  0  0  0  0  0  0  0
   48.0540   32.6190   41.8660 N   0  0  0  0  0  0  0  0  0  0  0  0
   48.3090   31.8400   43.0120 C   0  0  0  0  0  0  0  0  0  0  0  0
   49.3260   30.7470   42.7850 C   0  0  0  0  0  0  0  0  0  0  0  0
   50.6300   31.3840   42.4200 C   0  0  0  0  0  0  0  0  0  0  0  0
   50.4430   32.4500   41.3790 C   0  0  0  0  0  0  0  0  0  0  0  0
   49.0290   32.4880   40.8380 C   0  0  2  0  0  0  0  0  0  0  0  0
   49.0160   33.6100   39.9110 N   0  0  0  0  0  0  0  0  0  0  0  0
   45.2430   34.4250   41.0310 C   0  0  0  0  0  0  0  0  0  0  0  0
   44.4670   33.7460   40.0880 N   0  0  0  0  0  0  0  0  0  0  0  0
   44.6180   33.1460   38.8670 C   0  0  0  0  0  0  0  0  0  0  0  0
   43.4660   32.7110   38.4040 N   0  0  0  0  0  0  0  0  0  0  0  0
   42.4980   32.9860   39.2620 C   0  0  0  0  0  0  0  0  0  0  0  0
   41.1460   32.7250   39.2020 C   0  0  0  0  0  0  0  0  0  0  0  0
   40.6780   32.1390   38.2160 O   0  0  0  0  0  0  0  0  0  0  0  0
   40.3670   33.1180   40.2260 N   0  0  0  0  0  0  0  0  0  0  0  0
   40.9470   33.7490   41.2620 C   0  0  0  0  0  0  0  0  0  0  0  0
   40.1570   34.1870   42.3800 N   0  0  0  0  0  0  0  0  0  0  0  0
   42.2670   33.9980   41.3110 N   0  0  0  0  0  0  0  0  0  0  0  0
   43.1220   33.6290   40.3090 C   0  0  0  0  0  0  0  0  0  0  0  0
   45.7482   32.7440   41.9842 H   0  0  0  0  0  0  0  0  0  0  0  0
   44.7196   36.0847   42.6003 H   0  0  0  0  0  0  0  0  0  0  0  0
   43.9088   36.9586   44.8195 H   0  0  0  0  0  0  0  0  0  0  0  0
   45.4372   33.4266   46.6805 H   0  0  0  0  0  0  0  0  0  0  0  0
   47.7705   34.5437   41.1579 H   0  0  0  0  0  0  0  0  0  0  0  0
   47.8927   34.3831   42.9403 H   0  0  0  0  0  0  0  0  0  0  0  0
   48.6818   32.5024   43.8071 H   0  0  0  0  0  0  0  0  0  0  0  0
   47.3634   31.3494   43.2860 H   0  0  0  0  0  0  0  0  0  0  0  0
   49.4462   30.1546   43.7040 H   0  0  0  0  0  0  0  0  0  0  0  0
   48.9911   30.0810   41.9762 H   0  0  0  0  0  0  0  0  0  0  0  0
   51.0727   31.8356   43.3200 H   0  0  0  0  0  0  0  0  0  0  0  0
   51.2925   30.6084   42.0082 H   0  0  0  0  0  0  0  0  0  0  0  0
   50.6756   33.4268   41.8281 H   0  0  0  0  0  0  0  0  0  0  0  0
   51.1166   32.2209   40.5401 H   0  0  0  0  0  0  0  0  0  0  0  0
   48.7595   31.5451   40.3397 H   0  0  0  0  0  0  0  0  0  0  0  0
   49.0058   34.4931   40.4410 H   0  0  0  0  0  0  0  0  0  0  0  0
   49.8575   33.5752   39.3180 H   0  0  0  0  0  0  0  0  0  0  0  0
   44.5558   35.1340   41.5159 H   0  0  0  0  0  0  0  0  0  0  0  0
   46.0751   34.7554   40.3919 H   0  0  0  0  0  0  0  0  0  0  0  0
   45.5784   33.0411   38.3410 H   0  0  0  0  0  0  0  0  0  0  0  0
   39.3525   32.9401   40.2166 H   0  0  0  0  0  0  0  0  0  0  0  0
   40.6069   34.6699   43.1708 H   0  0  0  0  0  0  0  0  0  0  0  0
   39.1410   34.0180   42.3904 H   0  0  0  0  0  0  0  0  0  0  0  0
  1  2  1  0
  2  3  2  0
  2  7  1  0
  3  4  1  0
  4  5  2  0
  6  5  1  0
  7  6  2  0
  8  1  1  0
  9  8  1  0
  9 10  1  0
 11 10  1  0
 12 11  1  0
 13 12  1  0
 14 13  1  0
 14  9  1  0
 15 14  1  0
 16  1  1  0
 17 27  1  0
 17 16  1  0
 18 17  1  0
 19 18  2  0
 19 20  1  0
 20 27  2  0
 21 20  1  0
 21 23  1  0
 22 21  2  0
 23 24  1  0
 24 26  2  0
 24 25  1  0
 27 26  1  0
  1 28  1  1
  3 29  1  0
  4 30  1  0
  6 31  1  0
  8 32  1  0
  8 33  1  0
 10 34  1  0
 10 35  1  0
 11 36  1  0
 11 37  1  0
 12 38  1  0
 12 39  1  0
 13 40  1  0
 13 41  1  0
 14 42  1  6
 15 43  1  0
 15 44  1  0
 16 45  1  0
 16 46  1  0
 18 47  1  0
 23 48  1  0
 25 49  1  0
 25 50  1  0
M  ISO  8  28   8  29  14  30  14  31  14  32   8  33   8  34  13  35  13
M  ISO  8  36  13  37  13  38  13  39  13  40  13  41  13  42  13  43   5
M  ISO  5  44   5  45   8  46   8  47  14  48   9
M  END
>  <minimizedAffinity>  (1) 
-5.79678583

>  <minimizedRMSD>  (1) 
7.21082544

$$$$
