
     RDKit          3D

 43 45  0  0  1  0  0  0  0  0999 V2000
   43.6850   35.5790   40.9960 C   0  0  0  0  0  0  0  0  0  0  0  0
   42.6120   34.6760   40.7610 N   0  0  0  0  0  0  0  0  0  0  0  0
   42.3370   34.2860   39.4320 C   0  0  0  0  0  0  0  0  0  0  0  0
   40.9330   33.7350   39.2570 C   0  0  0  0  0  0  0  0  0  0  0  0
   39.9580   34.8200   39.5640 C   0  0  0  0  0  0  0  0  0  0  0  0
   40.3170   35.5170   40.8430 C   0  0  0  0  0  0  0  0  0  0  0  0
   41.4500   34.8650   41.5670 C   0  0  2  0  0  0  0  0  0  0  0  0
   41.7150   35.6880   42.7470 N   0  0  0  0  0  0  0  0  0  0  0  0
   44.7470   34.8340   41.8490 C   0  0  1  0  0  0  0  0  0  0  0  0
   45.8180   34.3130   40.9440 C   0  0  0  0  0  0  0  0  0  0  0  0
   47.1360   34.8300   41.1770 C   0  0  0  0  0  0  0  0  0  0  0  0
   48.1580   34.3780   40.3360 C   0  0  0  0  0  0  0  0  0  0  0  0
   47.8170   33.4600   39.3380 N   0  0  0  0  0  0  0  0  0  0  0  0
   46.5650   33.0180   39.1740 C   0  0  0  0  0  0  0  0  0  0  0  0
   45.5640   33.4230   39.9530 N   0  0  0  0  0  0  0  0  0  0  0  0
   45.2630   35.7030   42.9210 C   0  0  0  0  0  0  0  0  0  0  0  0
   45.1970   35.0540   44.2800 C   0  0  0  0  0  0  0  0  0  0  0  0
   45.9040   33.9070   44.5850 C   0  0  0  0  0  0  0  0  0  0  0  0
   45.5530   33.6660   45.9200 C   0  0  0  0  0  0  0  0  0  0  0  0
   44.6800   34.6560   46.3240 C   0  0  0  0  0  0  0  0  0  0  0  0
   44.4870   35.4660   45.3300 O   0  0  0  0  0  0  0  0  0  0  0  0
   43.3195   36.4625   41.5399 H   0  0  0  0  0  0  0  0  0  0  0  0
   44.1213   35.9166   40.0444 H   0  0  0  0  0  0  0  0  0  0  0  0
   42.4544   35.1623   38.7775 H   0  0  0  0  0  0  0  0  0  0  0  0
   43.0419   33.4830   39.1708 H   0  0  0  0  0  0  0  0  0  0  0  0
   40.7946   33.3941   38.2204 H   0  0  0  0  0  0  0  0  0  0  0  0
   40.7750   32.8831   39.9347 H   0  0  0  0  0  0  0  0  0  0  0  0
   39.9623   35.5511   38.7421 H   0  0  0  0  0  0  0  0  0  0  0  0
   38.9591   34.3732   39.6760 H   0  0  0  0  0  0  0  0  0  0  0  0
   40.6011   36.5536   40.6091 H   0  0  0  0  0  0  0  0  0  0  0  0
   39.4366   35.4700   41.5008 H   0  0  0  0  0  0  0  0  0  0  0  0
   41.1694   33.8408   41.8540 H   0  0  0  0  0  0  0  0  0  0  0  0
   41.5371   35.1355   43.5979 H   0  0  0  0  0  0  0  0  0  0  0  0
   42.6978   35.9962   42.7370 H   0  0  0  0  0  0  0  0  0  0  0  0
   44.2906   33.9726   42.3586 H   0  0  0  0  0  0  0  0  0  0  0  0
   47.3343   35.5516   41.9832 H   0  0  0  0  0  0  0  0  0  0  0  0
   49.1927   34.7319   40.4554 H   0  0  0  0  0  0  0  0  0  0  0  0
   46.3559   32.2970   38.3700 H   0  0  0  0  0  0  0  0  0  0  0  0
   46.3119   35.9496   42.6996 H   0  0  0  0  0  0  0  0  0  0  0  0
   44.6308   36.6026   42.9520 H   0  0  0  0  0  0  0  0  0  0  0  0
   46.5775   33.3254   43.9383 H   0  0  0  0  0  0  0  0  0  0  0  0
   45.9117   32.8310   46.5398 H   0  0  0  0  0  0  0  0  0  0  0  0
   44.2246   34.7431   47.3215 H   0  0  0  0  0  0  0  0  0  0  0  0
  1  9  1  0
  2  1  1  0
  2  7  1  0
  3  2  1  0
  4  3  1  0
  4  5  1  0
  5  6  1  0
  6  7  1  0
  7  8  1  0
  9 16  1  0
 10 11  2  0
 10  9  1  0
 12 11  1  0
 13 12  2  0
 14 13  1  0
 14 15  2  0
 15 10  1  0
 16 17  1  0
 17 18  2  0
 17 21  1  0
 18 19  1  0
 19 20  2  0
 21 20  1  0
  1 22  1  0
  1 23  1  0
  3 24  1  0
  3 25  1  0
  4 26  1  0
  4 27  1  0
  5 28  1  0
  5 29  1  0
  6 30  1  0
  6 31  1  0
  7 32  1  1
  8 33  1  0
  8 34  1  0
  9 35  1  1
 11 36  1  0
 12 37  1  0
 14 38  1  0
 16 39  1  0
 16 40  1  0
 18 41  1  0
 19 42  1  0
 20 43  1  0
M  ISO  8  22   8  23   8  24  13  25  13  26  13  27  13  28  13  29  13
M  ISO  8  30  13  31  13  32  13  33   5  34   5  35   8  36  14  37  14
M  ISO  6  38  14  39   8  40   8  41  14  42  14  43  14
M  END
>  <minimizedAffinity>  (1) 
-5.74555206

>  <minimizedRMSD>  (1) 
1.33978128

$$$$
