
     RDKit          3D

 42 44  0  0  1  0  0  0  0  0999 V2000
   43.8330   35.5460   41.6440 C   0  0  0  0  0  0  0  0  0  0  0  0
   42.7710   34.8340   41.0210 N   0  0  0  0  0  0  0  0  0  0  0  0
   42.7970   34.6530   39.6250 C   0  0  0  0  0  0  0  0  0  0  0  0
   41.4360   34.3270   39.0420 C   0  0  0  0  0  0  0  0  0  0  0  0
   40.5360   35.5000   39.2770 C   0  0  0  0  0  0  0  0  0  0  0  0
   40.6190   35.9490   40.6980 C   0  0  0  0  0  0  0  0  0  0  0  0
   41.4730   35.0720   41.5690 C   0  0  2  0  0  0  0  0  0  0  0  0
   41.5130   35.7220   42.8720 N   0  0  0  0  0  0  0  0  0  0  0  0
   44.7950   34.4930   42.2690 C   0  0  1  0  0  0  0  0  0  0  0  0
   46.0600   34.4880   41.4690 C   0  0  0  0  0  0  0  0  0  0  0  0
   47.1580   35.2400   42.0130 C   0  0  0  0  0  0  0  0  0  0  0  0
   48.3520   35.2620   41.2910 C   0  0  0  0  0  0  0  0  0  0  0  0
   48.3920   34.5480   40.0880 N   0  0  0  0  0  0  0  0  0  0  0  0
   47.3360   33.8660   39.6320 C   0  0  0  0  0  0  0  0  0  0  0  0
   46.1710   33.8190   40.2950 N   0  0  0  0  0  0  0  0  0  0  0  0
   45.0190   34.7990   43.6930 C   0  0  0  0  0  0  0  0  0  0  0  0
   45.4330   33.6120   44.4990 C   0  0  0  0  0  0  0  0  0  0  0  0
   45.5250   32.3140   43.9570 C   0  0  0  0  0  0  0  0  0  0  0  0
   46.0620   31.3250   45.3930 S   0  0  0  0  0  0  0  0  0  0  0  0
   46.0670   32.8780   46.4980 C   0  0  0  0  0  0  0  0  0  0  0  0
   45.7070   33.8840   45.7800 N   0  0  0  0  0  0  0  0  0  0  0  0
   43.4343   36.2044   42.4299 H   0  0  0  0  0  0  0  0  0  0  0  0
   44.3642   36.1712   40.9113 H   0  0  0  0  0  0  0  0  0  0  0  0
   43.1649   35.5789   39.1588 H   0  0  0  0  0  0  0  0  0  0  0  0
   43.4562   33.7972   39.4175 H   0  0  0  0  0  0  0  0  0  0  0  0
   41.0228   33.4352   39.5359 H   0  0  0  0  0  0  0  0  0  0  0  0
   41.5221   34.1227   37.9646 H   0  0  0  0  0  0  0  0  0  0  0  0
   40.8401   36.3268   38.6182 H   0  0  0  0  0  0  0  0  0  0  0  0
   39.4999   35.2015   39.0592 H   0  0  0  0  0  0  0  0  0  0  0  0
   41.0380   36.9659   40.7151 H   0  0  0  0  0  0  0  0  0  0  0  0
   39.5983   35.9034   41.1054 H   0  0  0  0  0  0  0  0  0  0  0  0
   41.0434   34.0625   41.6494 H   0  0  0  0  0  0  0  0  0  0  0  0
   41.4691   35.0082   43.6133 H   0  0  0  0  0  0  0  0  0  0  0  0
   42.3885   36.2571   42.9620 H   0  0  0  0  0  0  0  0  0  0  0  0
   44.3599   33.4833   42.2341 H   0  0  0  0  0  0  0  0  0  0  0  0
   47.0602   35.7799   42.9664 H   0  0  0  0  0  0  0  0  0  0  0  0
   49.2283   35.8193   41.6536 H   0  0  0  0  0  0  0  0  0  0  0  0
   47.4260   33.3241   38.6790 H   0  0  0  0  0  0  0  0  0  0  0  0
   45.8085   35.5616   43.7653 H   0  0  0  0  0  0  0  0  0  0  0  0
   44.0608   35.1506   44.1032 H   0  0  0  0  0  0  0  0  0  0  0  0
   45.3238   31.9814   42.9280 H   0  0  0  0  0  0  0  0  0  0  0  0
   46.3318   32.9093   47.5652 H   0  0  0  0  0  0  0  0  0  0  0  0
  1  9  1  0
  2  7  1  0
  2  1  1  0
  3  2  1  0
  4  5  1  0
  4  3  1  0
  5  6  1  0
  6  7  1  0
  7  8  1  0
  9 16  1  0
 10 11  2  0
 10  9  1  0
 12 11  1  0
 13 12  2  0
 14 13  1  0
 14 15  2  0
 15 10  1  0
 16 17  1  0
 17 21  1  0
 18 17  2  0
 18 19  1  0
 19 20  1  0
 21 20  2  0
  1 22  1  0
  1 23  1  0
  3 24  1  0
  3 25  1  0
  4 26  1  0
  4 27  1  0
  5 28  1  0
  5 29  1  0
  6 30  1  0
  6 31  1  0
  7 32  1  1
  8 33  1  0
  8 34  1  0
  9 35  1  1
 11 36  1  0
 12 37  1  0
 14 38  1  0
 16 39  1  0
 16 40  1  0
 18 41  1  0
 20 42  1  0
M  ISO  8  22   8  23   8  24  13  25  13  26  13  27  13  28  13  29  13
M  ISO  8  30  13  31  13  32  13  33   5  34   5  35   8  36  14  37  14
M  ISO  5  38  14  39   8  40   8  41  14  42  14
M  END
>  <minimizedAffinity>  (1) 
-5.64853621

>  <minimizedRMSD>  (1) 
0.454786599

$$$$
