
     RDKit          3D

 49 51  0  0  1  0  0  0  0  0999 V2000
   43.9640   35.1820   40.9030 C   0  0  0  0  0  0  0  0  0  0  0  0
   42.6990   34.5600   40.6650 N   0  0  0  0  0  0  0  0  0  0  0  0
   42.3000   34.3820   39.3240 C   0  0  0  0  0  0  0  0  0  0  0  0
   40.8140   34.1760   39.1520 C   0  0  0  0  0  0  0  0  0  0  0  0
   40.1120   35.4080   39.6140 C   0  0  0  0  0  0  0  0  0  0  0  0
   40.6760   35.9120   40.9090 C   0  0  0  0  0  0  0  0  0  0  0  0
   41.6440   34.9600   41.5380 C   0  0  2  0  0  0  0  0  0  0  0  0
   42.1270   35.6120   42.7490 N   0  0  0  0  0  0  0  0  0  0  0  0
   44.9310   34.0750   41.4020 C   0  0  1  0  0  0  0  0  0  0  0  0
   46.0190   33.9190   40.3830 C   0  0  0  0  0  0  0  0  0  0  0  0
   47.2910   34.4960   40.7130 C   0  0  0  0  0  0  0  0  0  0  0  0
   48.3240   34.3900   39.7870 C   0  0  0  0  0  0  0  0  0  0  0  0
   48.0710   33.7360   38.5990 N   0  0  0  0  0  0  0  0  0  0  0  0
   46.8480   33.2070   38.3360 C   0  0  0  0  0  0  0  0  0  0  0  0
   45.8400   33.2900   39.1980 N   0  0  0  0  0  0  0  0  0  0  0  0
   45.4610   34.4370   42.7360 C   0  0  0  0  0  0  0  0  0  0  0  0
   44.8390   33.7310   43.8530 N   0  0  0  0  0  0  0  0  0  0  0  0
   45.4680   32.4320   43.9430 C   0  0  0  0  0  0  0  0  0  0  0  0
   46.9080   32.4880   44.3990 C   0  0  0  0  0  0  0  0  0  0  0  0
   46.9940   32.9230   45.7100 O   0  0  0  0  0  0  0  0  0  0  0  0
   45.8100   33.4950   46.1230 C   0  0  0  0  0  0  0  0  0  0  0  0
   45.2110   34.4350   45.0920 C   0  0  0  0  0  0  0  0  0  0  0  0
   43.8610   35.9658   41.6679 H   0  0  0  0  0  0  0  0  0  0  0  0
   44.3476   35.6521   39.9855 H   0  0  0  0  0  0  0  0  0  0  0  0
   42.5946   35.2749   38.7532 H   0  0  0  0  0  0  0  0  0  0  0  0
   42.7939   33.4684   38.9616 H   0  0  0  0  0  0  0  0  0  0  0  0
   40.5845   33.9929   38.0919 H   0  0  0  0  0  0  0  0  0  0  0  0
   40.4819   33.3082   39.7407 H   0  0  0  0  0  0  0  0  0  0  0  0
   40.2221   36.1900   38.8483 H   0  0  0  0  0  0  0  0  0  0  0  0
   39.0521   35.1608   39.7734 H   0  0  0  0  0  0  0  0  0  0  0  0
   41.1944   36.8633   40.7184 H   0  0  0  0  0  0  0  0  0  0  0  0
   39.8351   36.0338   41.6076 H   0  0  0  0  0  0  0  0  0  0  0  0
   41.1427   34.0103   41.7763 H   0  0  0  0  0  0  0  0  0  0  0  0
   41.7605   35.1173   43.5748 H   0  0  0  0  0  0  0  0  0  0  0  0
   43.1566   35.5891   42.7640 H   0  0  0  0  0  0  0  0  0  0  0  0
   44.4111   33.1122   41.5150 H   0  0  0  0  0  0  0  0  0  0  0  0
   47.4453   35.0091   41.6737 H   0  0  0  0  0  0  0  0  0  0  0  0
   49.3161   34.8164   39.9966 H   0  0  0  0  0  0  0  0  0  0  0  0
   46.6864   32.6926   37.3772 H   0  0  0  0  0  0  0  0  0  0  0  0
   46.5384   34.2154   42.7481 H   0  0  0  0  0  0  0  0  0  0  0  0
   45.2365   35.5042   42.8799 H   0  0  0  0  0  0  0  0  0  0  0  0
   44.9001   31.8193   44.6586 H   0  0  0  0  0  0  0  0  0  0  0  0
   45.4664   32.0016   42.9307 H   0  0  0  0  0  0  0  0  0  0  0  0
   47.3492   31.4832   44.3232 H   0  0  0  0  0  0  0  0  0  0  0  0
   47.4528   33.1960   43.7572 H   0  0  0  0  0  0  0  0  0  0  0  0
   45.0861   32.6924   46.3274 H   0  0  0  0  0  0  0  0  0  0  0  0
   46.0294   34.0905   47.0215 H   0  0  0  0  0  0  0  0  0  0  0  0
   45.9494   35.2135   44.8500 H   0  0  0  0  0  0  0  0  0  0  0  0
   44.2976   34.8723   45.5214 H   0  0  0  0  0  0  0  0  0  0  0  0
  1  9  1  0
  2  1  1  0
  2  7  1  0
  3  2  1  0
  4  3  1  0
  4  5  1  0
  5  6  1  0
  6  7  1  0
  7  8  1  0
  9 16  1  0
 10 11  2  0
 10  9  1  0
 12 11  1  0
 13 12  2  0
 14 13  1  0
 14 15  2  0
 15 10  1  0
 16 17  1  0
 17 18  1  0
 17 22  1  0
 18 19  1  0
 19 20  1  0
 20 21  1  0
 22 21  1  0
  1 23  1  0
  1 24  1  0
  3 25  1  0
  3 26  1  0
  4 27  1  0
  4 28  1  0
  5 29  1  0
  5 30  1  0
  6 31  1  0
  6 32  1  0
  7 33  1  1
  8 34  1  0
  8 35  1  0
  9 36  1  1
 11 37  1  0
 12 38  1  0
 14 39  1  0
 16 40  1  0
 16 41  1  0
 18 42  1  0
 18 43  1  0
 19 44  1  0
 19 45  1  0
 21 46  1  0
 21 47  1  0
 22 48  1  0
 22 49  1  0
M  ISO  8  23   8  24   8  25  13  26  13  27  13  28  13  29  13  30  13
M  ISO  8  31  13  32  13  33  13  34   5  35   5  36   8  37  14  38  14
M  ISO  8  39  14  40   8  41   8  42  13  43  13  44  13  45  13  46  13
M  ISO  3  47  13  48  13  49  13
M  END
>  <minimizedAffinity>  (1) 
-5.46013117

>  <minimizedRMSD>  (1) 
1.58477414

$$$$
