
     RDKit          3D

 51 53  0  0  1  0  0  0  0  0999 V2000
   43.7490   35.6920   41.2000 C   0  0  0  0  0  0  0  0  0  0  0  0
   42.6610   34.8900   40.7310 N   0  0  0  0  0  0  0  0  0  0  0  0
   42.4990   34.7170   39.3470 C   0  0  0  0  0  0  0  0  0  0  0  0
   41.1050   34.2730   38.9660 C   0  0  0  0  0  0  0  0  0  0  0  0
   40.1460   35.3560   39.3490 C   0  0  0  0  0  0  0  0  0  0  0  0
   40.4040   35.8170   40.7520 C   0  0  0  0  0  0  0  0  0  0  0  0
   41.4460   35.0240   41.4700 C   0  0  2  0  0  0  0  0  0  0  0  0
   41.6250   35.6670   42.7650 N   0  0  0  0  0  0  0  0  0  0  0  0
   44.8820   34.7250   41.6260 C   0  0  1  0  0  0  0  0  0  0  0  0
   44.9510   34.6930   43.1160 C   0  0  0  0  0  0  0  0  0  0  0  0
   45.5530   33.5330   43.7030 C   0  0  0  0  0  0  0  0  0  0  0  0
   45.6310   33.4480   45.0930 C   0  0  0  0  0  0  0  0  0  0  0  0
   45.1150   34.5030   45.8260 N   0  0  0  0  0  0  0  0  0  0  0  0
   44.5530   35.5800   45.2220 C   0  0  0  0  0  0  0  0  0  0  0  0
   44.4660   35.6870   43.8890 N   0  0  0  0  0  0  0  0  0  0  0  0
   44.6830   33.3910   41.0290 C   0  0  0  0  0  0  0  0  0  0  0  0
   45.8410   32.7850   40.4790 N   0  0  0  0  0  0  0  0  0  0  0  0
   46.2160   33.2720   39.1770 C   0  0  0  0  0  0  0  0  0  0  0  0
   45.2320   32.8890   38.1040 C   0  0  0  0  0  0  0  0  0  0  0  0
   45.2620   31.3810   37.9900 C   0  0  0  0  0  0  0  0  0  0  0  0
   44.9410   30.8080   39.3370 C   0  0  0  0  0  0  0  0  0  0  0  0
   45.7920   31.3550   40.4550 C   0  0  0  0  0  0  0  0  0  0  0  0
   43.4272   36.2975   42.0602 H   0  0  0  0  0  0  0  0  0  0  0  0
   44.0964   36.3770   40.4126 H   0  0  0  0  0  0  0  0  0  0  0  0
   42.7110   35.6736   38.8470 H   0  0  0  0  0  0  0  0  0  0  0  0
   43.1942   33.9253   39.0309 H   0  0  0  0  0  0  0  0  0  0  0  0
   41.0540   34.0974   37.8813 H   0  0  0  0  0  0  0  0  0  0  0  0
   40.8492   33.3385   39.4869 H   0  0  0  0  0  0  0  0  0  0  0  0
   40.2669   36.2059   38.6612 H   0  0  0  0  0  0  0  0  0  0  0  0
   39.1214   34.9603   39.2884 H   0  0  0  0  0  0  0  0  0  0  0  0
   40.7315   36.8665   40.7165 H   0  0  0  0  0  0  0  0  0  0  0  0
   39.4642   35.6851   41.3082 H   0  0  0  0  0  0  0  0  0  0  0  0
   41.1189   33.9818   41.5996 H   0  0  0  0  0  0  0  0  0  0  0  0
   41.4357   34.9870   43.5151 H   0  0  0  0  0  0  0  0  0  0  0  0
   42.5931   36.0088   42.8477 H   0  0  0  0  0  0  0  0  0  0  0  0
   45.8517   35.0818   41.2488 H   0  0  0  0  0  0  0  0  0  0  0  0
   45.9464   32.7245   43.0693 H   0  0  0  0  0  0  0  0  0  0  0  0
   46.0849   32.5766   45.5876 H   0  0  0  0  0  0  0  0  0  0  0  0
   44.1553   36.3928   45.8475 H   0  0  0  0  0  0  0  0  0  0  0  0
   44.2925   32.7249   41.8125 H   0  0  0  0  0  0  0  0  0  0  0  0
   43.9928   33.5397   40.1855 H   0  0  0  0  0  0  0  0  0  0  0  0
   46.2816   34.3693   39.2179 H   0  0  0  0  0  0  0  0  0  0  0  0
   47.1822   32.8142   38.9183 H   0  0  0  0  0  0  0  0  0  0  0  0
   44.2222   33.2264   38.3804 H   0  0  0  0  0  0  0  0  0  0  0  0
   45.4959   33.3592   37.1452 H   0  0  0  0  0  0  0  0  0  0  0  0
   44.5149   31.0473   37.2548 H   0  0  0  0  0  0  0  0  0  0  0  0
   46.2545   31.0427   37.6576 H   0  0  0  0  0  0  0  0  0  0  0  0
   43.8876   31.0285   39.5645 H   0  0  0  0  0  0  0  0  0  0  0  0
   45.1453   29.7286   39.2805 H   0  0  0  0  0  0  0  0  0  0  0  0
   45.3797   31.0033   41.4122 H   0  0  0  0  0  0  0  0  0  0  0  0
   46.8185   30.9957   40.2900 H   0  0  0  0  0  0  0  0  0  0  0  0
  1  9  1  0
  2  1  1  0
  2  7  1  0
  3  2  1  0
  4  3  1  0
  4  5  1  0
  5  6  1  0
  6  7  1  0
  7  8  1  0
  9 10  1  0
 10 11  2  0
 10 15  1  0
 11 12  1  0
 12 13  2  0
 14 13  1  0
 15 14  2  0
 16  9  1  0
 17 16  1  0
 18 17  1  0
 19 18  1  0
 20 19  1  0
 20 21  1  0
 21 22  1  0
 22 17  1  0
  1 23  1  0
  1 24  1  0
  3 25  1  0
  3 26  1  0
  4 27  1  0
  4 28  1  0
  5 29  1  0
  5 30  1  0
  6 31  1  0
  6 32  1  0
  7 33  1  1
  8 34  1  0
  8 35  1  0
  9 36  1  6
 11 37  1  0
 12 38  1  0
 14 39  1  0
 16 40  1  0
 16 41  1  0
 18 42  1  0
 18 43  1  0
 19 44  1  0
 19 45  1  0
 20 46  1  0
 20 47  1  0
 21 48  1  0
 21 49  1  0
 22 50  1  0
 22 51  1  0
M  ISO  8  23   8  24   8  25  13  26  13  27  13  28  13  29  13  30  13
M  ISO  8  31  13  32  13  33  13  34   5  35   5  36   8  37  14  38  14
M  ISO  8  39  14  40   8  41   8  42  13  43  13  44  13  45  13  46  13
M  ISO  5  47  13  48  13  49  13  50  13  51  13
M  END
>  <minimizedAffinity>  (1) 
-5.22669744

>  <minimizedRMSD>  (1) 
4.67585611

$$$$
