
     RDKit          3D

 48 50  0  0  1  0  0  0  0  0999 V2000
   44.3170   33.9730   42.5660 C   0  0  0  0  0  0  0  0  0  0  0  0
   45.4060   34.1920   43.4490 N   0  0  0  0  0  0  0  0  0  0  0  0
   46.1870   33.0440   43.7810 C   0  0  0  0  0  0  0  0  0  0  0  0
   46.9740   33.2190   45.0580 C   0  0  0  0  0  0  0  0  0  0  0  0
   45.9900   33.3570   46.1960 C   0  0  0  0  0  0  0  0  0  0  0  0
   44.9260   34.3230   45.8510 C   0  0  0  0  0  0  0  0  0  0  0  0
   45.1320   35.0500   44.5440 C   0  0  2  0  0  0  0  0  0  0  0  0
   43.9260   35.8450   44.3510 N   0  0  0  0  0  0  0  0  0  0  0  0
   44.5750   34.7410   41.2650 C   0  0  1  0  0  0  0  0  0  0  0  0
   45.6170   34.0610   40.4590 C   0  0  0  0  0  0  0  0  0  0  0  0
   45.1640   33.0260   39.6160 C   0  0  0  0  0  0  0  0  0  0  0  0
   46.0790   32.3210   38.8270 C   0  0  0  0  0  0  0  0  0  0  0  0
   47.4160   32.7120   38.9410 N   0  0  0  0  0  0  0  0  0  0  0  0
   47.7960   33.7100   39.7650 C   0  0  0  0  0  0  0  0  0  0  0  0
   46.9270   34.3890   40.5210 N   0  0  0  0  0  0  0  0  0  0  0  0
   43.3470   35.0320   40.5130 C   0  0  0  0  0  0  0  0  0  0  0  0
   42.0910   34.6890   41.0340 N   0  0  0  0  0  0  0  0  0  0  0  0
   41.2710   35.7470   41.5080 C   0  0  0  0  0  0  0  0  0  0  0  0
   40.1500   35.9280   40.5040 C   0  0  0  0  0  0  0  0  0  0  0  0
   39.9780   34.5190   39.9820 C   0  0  0  0  0  0  0  0  0  0  0  0
   41.3540   33.9040   40.0910 C   0  0  0  0  0  0  0  0  0  0  0  0
   44.2268   32.8983   42.3494 H   0  0  0  0  0  0  0  0  0  0  0  0
   43.3833   34.3247   43.0291 H   0  0  0  0  0  0  0  0  0  0  0  0
   45.5129   32.1829   43.8992 H   0  0  0  0  0  0  0  0  0  0  0  0
   46.9095   32.8889   42.9662 H   0  0  0  0  0  0  0  0  0  0  0  0
   47.6165   32.3417   45.2240 H   0  0  0  0  0  0  0  0  0  0  0  0
   47.6131   34.1120   44.9943 H   0  0  0  0  0  0  0  0  0  0  0  0
   45.5352   32.3767   46.4013 H   0  0  0  0  0  0  0  0  0  0  0  0
   46.5254   33.7224   47.0847 H   0  0  0  0  0  0  0  0  0  0  0  0
   43.9732   33.7765   45.7923 H   0  0  0  0  0  0  0  0  0  0  0  0
   44.9373   35.0911   46.6383 H   0  0  0  0  0  0  0  0  0  0  0  0
   46.0315   35.6815   44.5895 H   0  0  0  0  0  0  0  0  0  0  0  0
   43.5345   36.1031   45.2681 H   0  0  0  0  0  0  0  0  0  0  0  0
   44.1584   36.6991   43.8243 H   0  0  0  0  0  0  0  0  0  0  0  0
   44.9674   35.7328   41.5341 H   0  0  0  0  0  0  0  0  0  0  0  0
   44.0940   32.7735   39.5787 H   0  0  0  0  0  0  0  0  0  0  0  0
   45.7649   31.5073   38.1567 H   0  0  0  0  0  0  0  0  0  0  0  0
   48.8622   33.9756   39.8170 H   0  0  0  0  0  0  0  0  0  0  0  0
   43.4392   34.5130   39.5475 H   0  0  0  0  0  0  0  0  0  0  0  0
   43.3180   36.1316   40.5062 H   0  0  0  0  0  0  0  0  0  0  0  0
   40.8563   35.4900   42.4939 H   0  0  0  0  0  0  0  0  0  0  0  0
   41.8528   36.6743   41.6158 H   0  0  0  0  0  0  0  0  0  0  0  0
   39.2318   36.2912   40.9888 H   0  0  0  0  0  0  0  0  0  0  0  0
   40.3654   36.6714   39.7223 H   0  0  0  0  0  0  0  0  0  0  0  0
   39.6393   34.5308   38.9355 H   0  0  0  0  0  0  0  0  0  0  0  0
   39.2215   33.9536   40.5460 H   0  0  0  0  0  0  0  0  0  0  0  0
   41.2763   32.8650   40.4436 H   0  0  0  0  0  0  0  0  0  0  0  0
   41.8568   33.8923   39.1127 H   0  0  0  0  0  0  0  0  0  0  0  0
  1  2  1  0
  2  3  1  0
  2  7  1  0
  3  4  1  0
  4  5  1  0
  6  5  1  0
  7  6  1  0
  8  7  1  0
  9  1  1  0
 10 15  1  0
 10  9  1  0
 11 10  2  0
 12 13  2  0
 12 11  1  0
 13 14  1  0
 14 15  2  0
 16 17  1  0
 16  9  1  0
 17 18  1  0
 19 18  1  0
 20 21  1  0
 20 19  1  0
 21 17  1  0
  1 22  1  0
  1 23  1  0
  3 24  1  0
  3 25  1  0
  4 26  1  0
  4 27  1  0
  5 28  1  0
  5 29  1  0
  6 30  1  0
  6 31  1  0
  7 32  1  1
  8 33  1  0
  8 34  1  0
  9 35  1  1
 11 36  1  0
 12 37  1  0
 14 38  1  0
 16 39  1  0
 16 40  1  0
 18 41  1  0
 18 42  1  0
 19 43  1  0
 19 44  1  0
 20 45  1  0
 20 46  1  0
 21 47  1  0
 21 48  1  0
M  ISO  8  22   8  23   8  24  13  25  13  26  13  27  13  28  13  29  13
M  ISO  8  30  13  31  13  32  13  33   5  34   5  35   8  36  14  37  14
M  ISO  8  38  14  39   8  40   8  41  13  42  13  43  13  44  13  45  13
M  ISO  3  46  13  47  13  48  13
M  END
>  <minimizedAffinity>  (1) 
-5.19954157

>  <minimizedRMSD>  (1) 
4.6884346

$$$$
