
     RDKit          3D

 24 25  0  0  1  0  0  0  0  0999 V2000
   44.5290   35.7800   44.8440 C   0  0  0  0  0  0  0  0  0  0  0  0
   45.1450   35.6030   43.5750 C   0  0  0  0  0  0  0  0  0  0  0  0
   46.0130   34.4950   43.4110 C   0  0  0  0  0  0  0  0  0  0  0  0
   46.2010   33.6730   44.4810 N   0  0  0  0  0  0  0  0  0  0  0  0
   45.5880   33.8890   45.6680 C   0  0  0  0  0  0  0  0  0  0  0  0
   44.7590   34.9370   45.8470 N   0  0  0  0  0  0  0  0  0  0  0  0
   45.8610   32.9720   46.6970 N   0  0  0  0  0  0  0  0  0  0  0  0
   44.9550   32.6500   47.7880 C   0  0  0  0  0  0  0  0  0  0  0  0
   45.9460   32.3460   48.8850 C   0  0  0  0  0  0  0  0  0  0  0  0
   46.9060   31.4300   48.1400 C   0  0  0  0  0  0  0  0  0  0  0  0
   47.0840   32.1920   46.8500 C   0  0  1  0  0  0  0  0  0  0  0  0
   47.2640   31.2500   45.7080 C   0  0  0  0  0  0  0  0  0  0  0  0
   47.9210   30.2280   45.7610 O   0  0  0  0  0  0  0  0  0  0  0  0
   43.8490   36.6305   44.9995 H   0  0  0  0  0  0  0  0  0  0  0  0
   44.9542   36.3028   42.7480 H   0  0  0  0  0  0  0  0  0  0  0  0
   46.5178   34.3051   42.4523 H   0  0  0  0  0  0  0  0  0  0  0  0
   44.3111   33.5034   48.0470 H   0  0  0  0  0  0  0  0  0  0  0  0
   44.2460   31.8373   47.5715 H   0  0  0  0  0  0  0  0  0  0  0  0
   46.4482   33.2567   49.2433 H   0  0  0  0  0  0  0  0  0  0  0  0
   45.5063   31.9098   49.7941 H   0  0  0  0  0  0  0  0  0  0  0  0
   47.8586   31.3185   48.6786 H   0  0  0  0  0  0  0  0  0  0  0  0
   46.5440   30.3991   48.0127 H   0  0  0  0  0  0  0  0  0  0  0  0
   47.9765   32.8348   46.8667 H   0  0  0  0  0  0  0  0  0  0  0  0
   46.7705   31.4955   44.7560 H   0  0  0  0  0  0  0  0  0  0  0  0
  1  6  2  0
  2  1  1  0
  3  2  2  0
  3  4  1  0
  4  5  2  0
  5  6  1  0
  5  7  1  0
  7 11  1  0
  7  8  1  0
  8  9  1  0
 10  9  1  0
 11 10  1  0
 12 13  2  0
 12 11  1  0
  1 14  1  0
  2 15  1  0
  3 16  1  0
  8 17  1  0
  8 18  1  0
  9 19  1  0
  9 20  1  0
 10 21  1  0
 10 22  1  0
 11 23  1  1
 12 24  1  0
M  ISO  8  14  14  15  14  16  14  17  13  18  13  19  13  20  13  21  13
M  ISO  3  22  13  23  13  24   6
M  END
>  <minimizedAffinity>  (1) 
-4.34885931

>  <minimizedRMSD>  (1) 
0.106006578

$$$$
