
     RDKit          3D

 38 41  0  0  1  0  0  0  0  0999 V2000
   44.4270   35.9650   44.8650 C   0  0  0  0  0  0  0  0  0  0  0  0
   44.8460   35.8220   43.5080 C   0  0  0  0  0  0  0  0  0  0  0  0
   45.6190   34.6800   43.1530 C   0  0  0  0  0  0  0  0  0  0  0  0
   45.8880   33.8230   44.1560 N   0  0  0  0  0  0  0  0  0  0  0  0
   45.4850   33.9750   45.4220 C   0  0  0  0  0  0  0  0  0  0  0  0
   44.7500   35.0530   45.7810 N   0  0  0  0  0  0  0  0  0  0  0  0
   45.8470   32.9960   46.3500 N   0  0  0  0  0  0  0  0  0  0  0  0
   45.2660   32.7610   47.6260 C   0  0  0  0  0  0  0  0  0  0  0  0
   46.4390   32.3390   48.4560 C   0  0  0  0  0  0  0  0  0  0  0  0
   47.1830   31.4010   47.5070 C   0  0  0  0  0  0  0  0  0  0  0  0
   46.9050   32.0280   46.1940 C   0  0  1  0  0  0  0  0  0  0  0  0
   46.8030   31.1610   45.0260 C   0  0  0  0  0  0  0  0  0  0  0  0
   45.7630   30.6470   44.7640 O   0  0  0  0  0  0  0  0  0  0  0  0
   47.4650   30.5280   43.8730 C   0  0  0  0  0  0  0  0  0  0  0  0
   47.1950   29.2410   43.5600 N   0  0  0  0  0  0  0  0  0  0  0  0
   47.7550   28.7230   42.4680 C   0  0  0  0  0  0  0  0  0  0  0  0
   48.5690   29.4210   41.6750 N   0  0  0  0  0  0  0  0  0  0  0  0
   48.8970   30.6830   41.8870 C   0  0  0  0  0  0  0  0  0  0  0  0
   49.7320   31.4250   41.0780 C   0  0  0  0  0  0  0  0  0  0  0  0
   50.0130   32.7440   41.3810 C   0  0  0  0  0  0  0  0  0  0  0  0
   49.4510   33.3300   42.5140 C   0  0  0  0  0  0  0  0  0  0  0  0
   48.6160   32.5610   43.3090 C   0  0  0  0  0  0  0  0  0  0  0  0
   48.3250   31.2240   43.0110 C   0  0  0  0  0  0  0  0  0  0  0  0
   43.8291   36.8404   45.1586 H   0  0  0  0  0  0  0  0  0  0  0  0
   44.5779   36.5766   42.7539 H   0  0  0  0  0  0  0  0  0  0  0  0
   45.9734   34.5090   42.1258 H   0  0  0  0  0  0  0  0  0  0  0  0
   44.8071   33.6770   48.0265 H   0  0  0  0  0  0  0  0  0  0  0  0
   44.4584   32.0144   47.6044 H   0  0  0  0  0  0  0  0  0  0  0  0
   47.0621   33.2018   48.7342 H   0  0  0  0  0  0  0  0  0  0  0  0
   46.1592   31.8708   49.4112 H   0  0  0  0  0  0  0  0  0  0  0  0
   48.2614   31.3829   47.7234 H   0  0  0  0  0  0  0  0  0  0  0  0
   46.8681   30.3494   47.5775 H   0  0  0  0  0  0  0  0  0  0  0  0
   47.8294   32.5486   45.9035 H   0  0  0  0  0  0  0  0  0  0  0  0
   47.5370   27.6762   42.2096 H   0  0  0  0  0  0  0  0  0  0  0  0
   50.1779   30.9634   40.1846 H   0  0  0  0  0  0  0  0  0  0  0  0
   50.6784   33.3297   40.7297 H   0  0  0  0  0  0  0  0  0  0  0  0
   49.6652   34.3779   42.7710 H   0  0  0  0  0  0  0  0  0  0  0  0
   48.1668   33.0161   44.2041 H   0  0  0  0  0  0  0  0  0  0  0  0
  1  6  2  0
  2  1  1  0
  3  2  2  0
  3  4  1  0
  4  5  2  0
  5  6  1  0
  5  7  1  0
  7  8  1  0
  8  9  1  0
 10  9  1  0
 11  7  1  0
 11 10  1  0
 12 11  1  0
 13 12  2  0
 14 12  1  0
 15 14  2  0
 16 15  1  0
 17 18  1  0
 17 16  2  0
 18 23  2  0
 19 20  2  0
 19 18  1  0
 20 21  1  0
 21 22  2  0
 23 22  1  0
 23 14  1  0
  1 24  1  0
  2 25  1  0
  3 26  1  0
  8 27  1  0
  8 28  1  0
  9 29  1  0
  9 30  1  0
 10 31  1  0
 10 32  1  0
 11 33  1  6
 16 34  1  0
 19 35  1  0
 20 36  1  0
 21 37  1  0
 22 38  1  0
M  ISO  8  24  14  25  14  26  14  27  13  28  13  29  13  30  13  31  13
M  ISO  7  32  13  33  13  34  14  35  14  36  14  37  14  38  14
M  END
>  <minimizedAffinity>  (1) 
-5.15436983

>  <minimizedRMSD>  (1) 
2.30244946

$$$$
