
     RDKit          3D

 37 40  0  0  1  0  0  0  0  0999 V2000
   44.5360   35.8090   44.8490 C   0  0  0  0  0  0  0  0  0  0  0  0
   44.9850   35.5250   43.5420 C   0  0  0  0  0  0  0  0  0  0  0  0
   45.7100   34.3220   43.3380 C   0  0  0  0  0  0  0  0  0  0  0  0
   45.9180   33.5250   44.4230 N   0  0  0  0  0  0  0  0  0  0  0  0
   45.4650   33.8460   45.6450 C   0  0  0  0  0  0  0  0  0  0  0  0
   44.7750   34.9830   45.8680 N   0  0  0  0  0  0  0  0  0  0  0  0
   45.7300   32.9370   46.6810 N   0  0  0  0  0  0  0  0  0  0  0  0
   44.9540   32.8040   47.9040 C   0  0  0  0  0  0  0  0  0  0  0  0
   46.0650   32.4280   48.8700 C   0  0  0  0  0  0  0  0  0  0  0  0
   46.6760   31.2990   48.0640 C   0  0  0  0  0  0  0  0  0  0  0  0
   46.8350   31.9710   46.6900 C   0  0  1  0  0  0  0  0  0  0  0  0
   46.6270   30.9120   45.6510 C   0  0  0  0  0  0  0  0  0  0  0  0
   47.8370   30.6320   45.2160 O   0  0  0  0  0  0  0  0  0  0  0  0
   43.7830   27.3290   45.9920 N   0  0  0  0  0  0  0  0  0  0  0  0
   44.5280   27.3760   47.1080 C   0  0  0  0  0  0  0  0  0  0  0  0
   45.3300   28.4200   46.9350 N   0  0  0  0  0  0  0  0  0  0  0  0
   45.1360   29.0500   45.7620 C   0  0  0  0  0  0  0  0  0  0  0  0
   45.5800   30.1090   45.0010 C   0  0  0  0  0  0  0  0  0  0  0  0
   45.0370   30.3500   43.8070 N   0  0  0  0  0  0  0  0  0  0  0  0
   44.0730   29.6570   43.2380 C   0  0  0  0  0  0  0  0  0  0  0  0
   43.6130   28.6200   43.9430 N   0  0  0  0  0  0  0  0  0  0  0  0
   44.1090   28.3150   45.1490 C   0  0  0  0  0  0  0  0  0  0  0  0
   43.9738   36.7366   45.0322 H   0  0  0  0  0  0  0  0  0  0  0  0
   44.7800   36.2131   42.7087 H   0  0  0  0  0  0  0  0  0  0  0  0
   46.0889   34.0443   42.3433 H   0  0  0  0  0  0  0  0  0  0  0  0
   44.4683   33.7498   48.1861 H   0  0  0  0  0  0  0  0  0  0  0  0
   44.1189   32.0899   47.8519 H   0  0  0  0  0  0  0  0  0  0  0  0
   46.7729   33.2542   49.0321 H   0  0  0  0  0  0  0  0  0  0  0  0
   45.7488   32.1737   49.8924 H   0  0  0  0  0  0  0  0  0  0  0  0
   47.6473   30.9881   48.4763 H   0  0  0  0  0  0  0  0  0  0  0  0
   46.0774   30.3762   48.0506 H   0  0  0  0  0  0  0  0  0  0  0  0
   47.8087   32.4463   46.5003 H   0  0  0  0  0  0  0  0  0  0  0  0
   46.7249   30.1350   46.4234 H   0  0  0  0  0  0  0  0  0  0  0  0
   48.4410   30.4922   45.9878 H   0  0  0  0  0  0  0  0  0  0  0  0
   43.0544   26.6245   45.8086 H   0  0  0  0  0  0  0  0  0  0  0  0
   44.4837   26.6993   47.9741 H   0  0  0  0  0  0  0  0  0  0  0  0
   43.6725   29.9152   42.2466 H   0  0  0  0  0  0  0  0  0  0  0  0
  1  6  2  0
  2  1  1  0
  3  2  2  0
  3  4  1  0
  4  5  2  0
  5  6  1  0
  5  7  1  0
  7 11  1  0
  7  8  1  0
  8  9  1  0
 10  9  1  0
 11 10  1  0
 12 13  1  0
 12 11  1  0
 14 15  1  0
 16 15  2  0
 17 16  1  0
 18 12  1  0
 18 17  2  0
 19 18  1  0
 20 19  2  0
 20 21  1  0
 21 22  2  0
 22 17  1  0
 22 14  1  0
  1 23  1  0
  2 24  1  0
  3 25  1  0
  8 26  1  0
  8 27  1  0
  9 28  1  0
  9 29  1  0
 10 30  1  0
 10 31  1  0
 11 32  1  1
 12 33  1  0
 13 34  1  0
 14 35  1  0
 15 36  1  0
 20 37  1  0
M  ISO  8  23  14  24  14  25  14  26  13  27  13  28  13  29  13  30  13
M  ISO  7  31  13  32  13  33   8  34   3  35   9  36  14  37  14
M  END
>  <minimizedAffinity>  (1) 
-4.99806833

>  <minimizedRMSD>  (1) 
1.14213049

$$$$
