
     RDKit          3D

 36 38  0  0  1  0  0  0  0  0999 V2000
   44.5930   35.6740   44.8400 C   0  0  0  0  0  0  0  0  0  0  0  0
   45.1590   35.4060   43.5620 C   0  0  0  0  0  0  0  0  0  0  0  0
   45.9550   34.2430   43.4090 C   0  0  0  0  0  0  0  0  0  0  0  0
   46.1200   33.4600   44.5110 N   0  0  0  0  0  0  0  0  0  0  0  0
   45.5650   33.7520   45.7010 C   0  0  0  0  0  0  0  0  0  0  0  0
   44.8100   34.8520   45.8520 N   0  0  0  0  0  0  0  0  0  0  0  0
   45.8020   32.8500   46.7350 N   0  0  0  0  0  0  0  0  0  0  0  0
   45.0000   32.7110   47.9290 C   0  0  0  0  0  0  0  0  0  0  0  0
   46.0220   32.3400   48.9580 C   0  0  0  0  0  0  0  0  0  0  0  0
   46.7810   31.2680   48.1940 C   0  0  0  0  0  0  0  0  0  0  0  0
   46.8790   31.8760   46.8160 C   0  0  1  0  0  0  0  0  0  0  0  0
   46.7770   30.8460   45.7420 C   0  0  0  0  0  0  0  0  0  0  0  0
   47.8260   30.9650   44.9930 O   0  0  0  0  0  0  0  0  0  0  0  0
   45.8590   29.7830   45.3280 N   0  0  0  0  0  0  0  0  0  0  0  0
   44.6800   29.3380   44.5460 C   0  0  0  0  0  0  0  0  0  0  0  0
   43.7360   28.7200   45.5620 C   0  0  0  0  0  0  0  0  0  0  0  0
   44.7240   28.0870   46.5270 C   0  0  0  0  0  0  0  0  0  0  0  0
   46.0450   28.4150   45.8520 C   0  0  0  0  0  0  0  0  0  0  0  0
   43.9717   36.5699   44.9863 H   0  0  0  0  0  0  0  0  0  0  0  0
   44.9832   36.0844   42.7141 H   0  0  0  0  0  0  0  0  0  0  0  0
   46.4179   33.9850   42.4450 H   0  0  0  0  0  0  0  0  0  0  0  0
   44.5010   33.6570   48.1861 H   0  0  0  0  0  0  0  0  0  0  0  0
   44.1870   31.9765   47.8307 H   0  0  0  0  0  0  0  0  0  0  0  0
   46.6679   33.1914   49.2186 H   0  0  0  0  0  0  0  0  0  0  0  0
   45.6115   32.0185   49.9266 H   0  0  0  0  0  0  0  0  0  0  0  0
   47.7775   31.0977   48.6277 H   0  0  0  0  0  0  0  0  0  0  0  0
   46.2936   30.2820   48.2105 H   0  0  0  0  0  0  0  0  0  0  0  0
   47.8591   32.3512   46.6621 H   0  0  0  0  0  0  0  0  0  0  0  0
   44.2026   30.1945   44.0475 H   0  0  0  0  0  0  0  0  0  0  0  0
   44.9571   28.6243   43.7562 H   0  0  0  0  0  0  0  0  0  0  0  0
   43.1197   29.4842   46.0581 H   0  0  0  0  0  0  0  0  0  0  0  0
   43.0059   28.0172   45.1342 H   0  0  0  0  0  0  0  0  0  0  0  0
   44.6584   28.5408   47.5269 H   0  0  0  0  0  0  0  0  0  0  0  0
   44.5602   27.0135   46.7021 H   0  0  0  0  0  0  0  0  0  0  0  0
   46.2500   27.7091   45.0337 H   0  0  0  0  0  0  0  0  0  0  0  0
   46.8984   28.3425   46.5423 H   0  0  0  0  0  0  0  0  0  0  0  0
  1  6  2  0
  2  1  1  0
  3  2  2  0
  3  4  1  0
  4  5  2  0
  5  6  1  0
  5  7  1  0
  7 11  1  0
  7  8  1  0
  8  9  1  0
 10  9  1  0
 11 10  1  0
 12 11  1  0
 13 12  2  0
 14 12  1  0
 14 18  1  0
 15 14  1  0
 15 16  1  0
 16 17  1  0
 18 17  1  0
  1 19  1  0
  2 20  1  0
  3 21  1  0
  8 22  1  0
  8 23  1  0
  9 24  1  0
  9 25  1  0
 10 26  1  0
 10 27  1  0
 11 28  1  1
 15 29  1  0
 15 30  1  0
 16 31  1  0
 16 32  1  0
 17 33  1  0
 17 34  1  0
 18 35  1  0
 18 36  1  0
M  ISO  8  19  14  20  14  21  14  22  13  23  13  24  13  25  13  26  13
M  ISO  8  27  13  28  13  29  13  30  13  31  13  32  13  33  13  34  13
M  ISO  2  35  13  36  13
M  END
>  <minimizedAffinity>  (1) 
-4.95679092

>  <minimizedRMSD>  (1) 
1.43381023

$$$$
