
     RDKit          3D

 39 41  0  0  1  0  0  0  0  0999 V2000
   44.5600   35.6650   44.8200 C   0  0  0  0  0  0  0  0  0  0  0  0
   44.6940   35.2800   43.4570 C   0  0  0  0  0  0  0  0  0  0  0  0
   45.2430   34.0070   43.1800 C   0  0  0  0  0  0  0  0  0  0  0  0
   45.6070   33.2330   44.2430 N   0  0  0  0  0  0  0  0  0  0  0  0
   45.4580   33.6480   45.5120 C   0  0  0  0  0  0  0  0  0  0  0  0
   44.9390   34.8550   45.8030 N   0  0  0  0  0  0  0  0  0  0  0  0
   45.8460   32.7460   46.5100 N   0  0  0  0  0  0  0  0  0  0  0  0
   45.3210   32.7160   47.8680 C   0  0  0  0  0  0  0  0  0  0  0  0
   46.5440   32.2640   48.6260 C   0  0  0  0  0  0  0  0  0  0  0  0
   46.9700   31.1170   47.7640 C   0  0  0  0  0  0  0  0  0  0  0  0
   46.8410   31.6740   46.3510 C   0  0  1  0  0  0  0  0  0  0  0  0
   46.3430   30.6140   45.4520 C   0  0  0  0  0  0  0  0  0  0  0  0
   47.3870   30.3140   44.6940 O   0  0  0  0  0  0  0  0  0  0  0  0
   43.0070   28.1960   44.5670 C   0  0  0  0  0  0  0  0  0  0  0  0
   43.5150   28.9200   43.5100 C   0  0  0  0  0  0  0  0  0  0  0  0
   44.5910   29.6910   43.8790 C   0  0  0  0  0  0  0  0  0  0  0  0
   45.1720   29.8020   45.1240 C   0  0  0  0  0  0  0  0  0  0  0  0
   44.5930   29.0410   46.1120 C   0  0  0  0  0  0  0  0  0  0  0  0
   43.5130   28.2380   45.8390 C   0  0  0  0  0  0  0  0  0  0  0  0
   41.6370   27.1610   44.2750 S   0  0  0  0  0  0  0  0  0  0  0  0
   40.9690   26.7030   45.5380 O   0  0  0  0  0  0  0  0  0  0  0  0
   40.5840   27.9260   43.4980 O   0  0  0  0  0  0  0  0  0  0  0  0
   44.1355   36.6499   45.0644 H   0  0  0  0  0  0  0  0  0  0  0  0
   44.3803   35.9516   42.6443 H   0  0  0  0  0  0  0  0  0  0  0  0
   45.3719   33.6538   42.1463 H   0  0  0  0  0  0  0  0  0  0  0  0
   44.9850   33.7109   48.1955 H   0  0  0  0  0  0  0  0  0  0  0  0
   44.4360   32.0769   48.0031 H   0  0  0  0  0  0  0  0  0  0  0  0
   47.3120   33.0503   48.6692 H   0  0  0  0  0  0  0  0  0  0  0  0
   46.3693   32.0117   49.6823 H   0  0  0  0  0  0  0  0  0  0  0  0
   48.0087   30.8264   47.9798 H   0  0  0  0  0  0  0  0  0  0  0  0
   46.3689   30.2101   47.9259 H   0  0  0  0  0  0  0  0  0  0  0  0
   47.7855   32.0347   45.9177 H   0  0  0  0  0  0  0  0  0  0  0  0
   46.6527   29.8504   46.1807 H   0  0  0  0  0  0  0  0  0  0  0  0
   48.1605   30.0917   45.2706 H   0  0  0  0  0  0  0  0  0  0  0  0
   43.1065   28.8848   42.4893 H   0  0  0  0  0  0  0  0  0  0  0  0
   45.0458   30.2956   43.0805 H   0  0  0  0  0  0  0  0  0  0  0  0
   44.9998   29.0758   47.1334 H   0  0  0  0  0  0  0  0  0  0  0  0
   43.0574   27.6326   46.6365 H   0  0  0  0  0  0  0  0  0  0  0  0
   42.1206   26.0745   43.5949 H   0  0  0  0  0  0  0  0  0  0  0  0
  1  6  2  0
  2  1  1  0
  3  2  2  0
  3  4  1  0
  4  5  2  0
  5  6  1  0
  5  7  1  0
  7  8  1  0
  8  9  1  0
 10  9  1  0
 11  7  1  0
 11 10  1  0
 12 13  1  0
 12 11  1  0
 14 19  2  0
 15 16  2  0
 15 14  1  0
 16 17  1  0
 17 12  1  0
 17 18  2  0
 19 18  1  0
 20 14  1  0
 20 21  2  0
 22 20  2  0
  1 23  1  0
  2 24  1  0
  3 25  1  0
  8 26  1  0
  8 27  1  0
  9 28  1  0
  9 29  1  0
 10 30  1  0
 10 31  1  0
 11 32  1  6
 12 33  1  0
 13 34  1  0
 15 35  1  0
 16 36  1  0
 18 37  1  0
 19 38  1  0
 20 39  1  0
M  ISO  8  23  14  24  14  25  14  26  13  27  13  28  13  29  13  30  13
M  ISO  8  31  13  32  13  33   8  34   3  35  14  36  14  37  14  38  14
M  ISO  1  39  11
M  END
>  <minimizedAffinity>  (1) 
-4.8522315

>  <minimizedRMSD>  (1) 
1.98739064

$$$$
