
     RDKit          3D

 33 35  0  0  1  0  0  0  0  0999 V2000
   44.5130   35.8540   44.8910 C   0  0  0  0  0  0  0  0  0  0  0  0
   45.0860   35.6900   43.6130 C   0  0  0  0  0  0  0  0  0  0  0  0
   45.9100   34.5640   43.4100 C   0  0  0  0  0  0  0  0  0  0  0  0
   46.0700   33.7470   44.4750 N   0  0  0  0  0  0  0  0  0  0  0  0
   45.5130   33.9300   45.6710 C   0  0  0  0  0  0  0  0  0  0  0  0
   44.7300   34.9920   45.8790 N   0  0  0  0  0  0  0  0  0  0  0  0
   45.7850   32.9770   46.6510 N   0  0  0  0  0  0  0  0  0  0  0  0
   44.9580   32.6760   47.7730 C   0  0  0  0  0  0  0  0  0  0  0  0
   45.9940   32.3760   48.8440 C   0  0  0  0  0  0  0  0  0  0  0  0
   46.9350   31.4690   48.0720 C   0  0  0  0  0  0  0  0  0  0  0  0
   46.9410   32.1190   46.7380 C   0  0  1  0  0  0  0  0  0  0  0  0
   47.1970   31.2710   45.5820 C   0  0  0  0  0  0  0  0  0  0  0  0
   46.3790   30.4720   45.2410 O   0  0  0  0  0  0  0  0  0  0  0  0
   48.0610   30.8180   44.4740 C   0  0  0  0  0  0  0  0  0  0  0  0
   48.8290   29.6610   44.5560 C   0  0  0  0  0  0  0  0  0  0  0  0
   49.7280   29.2180   43.6090 C   0  0  0  0  0  0  0  0  0  0  0  0
   49.7820   30.0740   42.5410 C   0  0  0  0  0  0  0  0  0  0  0  0
   49.0860   31.2270   42.3460 C   0  0  0  0  0  0  0  0  0  0  0  0
   48.2760   31.5020   43.3400 N   0  0  0  0  0  0  0  0  0  0  0  0
   43.8654   36.7236   45.0762 H   0  0  0  0  0  0  0  0  0  0  0  0
   44.8974   36.4127   42.8055 H   0  0  0  0  0  0  0  0  0  0  0  0
   46.3937   34.3624   42.4428 H   0  0  0  0  0  0  0  0  0  0  0  0
   44.3303   33.5354   48.0511 H   0  0  0  0  0  0  0  0  0  0  0  0
   44.2457   31.8564   47.5971 H   0  0  0  0  0  0  0  0  0  0  0  0
   46.5009   33.2903   49.1862 H   0  0  0  0  0  0  0  0  0  0  0  0
   45.5862   31.9356   49.7658 H   0  0  0  0  0  0  0  0  0  0  0  0
   47.9401   31.4585   48.5188 H   0  0  0  0  0  0  0  0  0  0  0  0
   46.6283   30.4127   48.0557 H   0  0  0  0  0  0  0  0  0  0  0  0
   47.8510   32.7336   46.6732 H   0  0  0  0  0  0  0  0  0  0  0  0
   48.7081   29.0435   45.4582 H   0  0  0  0  0  0  0  0  0  0  0  0
   50.3238   28.2977   43.6993 H   0  0  0  0  0  0  0  0  0  0  0  0
   50.4780   29.7930   41.7369 H   0  0  0  0  0  0  0  0  0  0  0  0
   49.1913   31.8594   41.4521 H   0  0  0  0  0  0  0  0  0  0  0  0
  1  6  2  0
  2  1  1  0
  3  2  2  0
  3  4  1  0
  4  5  2  0
  5  6  1  0
  5  7  1  0
  7 11  1  0
  7  8  1  0
  8  9  1  0
 10  9  1  0
 11 10  1  0
 12 11  1  0
 13 12  2  0
 14 15  2  0
 14 12  1  0
 16 15  1  0
 17 16  2  0
 18 17  1  0
 18 19  2  0
 19 14  1  0
  1 20  1  0
  2 21  1  0
  3 22  1  0
  8 23  1  0
  8 24  1  0
  9 25  1  0
  9 26  1  0
 10 27  1  0
 10 28  1  0
 11 29  1  1
 15 30  1  0
 16 31  1  0
 17 32  1  0
 18 33  1  0
M  ISO  8  20  14  21  14  22  14  23  13  24  13  25  13  26  13  27  13
M  ISO  6  28  13  29  13  30  14  31  14  32  14  33  14
M  END
>  <minimizedAffinity>  (1) 
-4.79252434

>  <minimizedRMSD>  (1) 
1.22907376

$$$$
