
     RDKit          3D

 38 41  0  0  0  0  0  0  0  0999 V2000
   44.4660   35.9390   44.6840 C   0  0  0  0  0  0  0  0  0  0  0  0
   45.1120   35.9500   43.4520 C   0  0  0  0  0  0  0  0  0  0  0  0
   46.0660   35.0000   43.0950 C   0  0  0  0  0  0  0  0  0  0  0  0
   46.3020   34.0620   44.0700 N   0  0  0  0  0  0  0  0  0  0  0  0
   45.6700   34.0590   45.2620 C   0  0  0  0  0  0  0  0  0  0  0  0
   44.7720   34.9850   45.5510 N   0  0  0  0  0  0  0  0  0  0  0  0
   46.8290   34.8520   41.8910 C   0  0  0  0  0  0  0  0  0  0  0  0
   48.0640   35.4580   41.8260 C   0  0  0  0  0  0  0  0  0  0  0  0
   48.8930   35.3900   40.7300 C   0  0  0  0  0  0  0  0  0  0  0  0
   48.4940   34.6900   39.6290 C   0  0  0  0  0  0  0  0  0  0  0  0
   47.2720   34.0550   39.6140 C   0  0  0  0  0  0  0  0  0  0  0  0
   46.8380   33.3380   38.5170 C   0  0  0  0  0  0  0  0  0  0  0  0
   45.6280   32.6960   38.4730 C   0  0  0  0  0  0  0  0  0  0  0  0
   44.8610   32.8160   39.6160 C   0  0  0  0  0  0  0  0  0  0  0  0
   45.2840   33.5200   40.6950 C   0  0  0  0  0  0  0  0  0  0  0  0
   46.4960   34.1630   40.7380 C   0  0  0  0  0  0  0  0  0  0  0  0
   46.0140   33.0010   46.2170 C   0  0  0  0  0  0  0  0  0  0  0  0
   46.9590   32.0530   45.8810 C   0  0  0  0  0  0  0  0  0  0  0  0
   47.2940   31.0390   46.7880 C   0  0  0  0  0  0  0  0  0  0  0  0
   46.6430   31.0500   47.9880 C   0  0  0  0  0  0  0  0  0  0  0  0
   45.6840   31.9700   48.3930 C   0  0  0  0  0  0  0  0  0  0  0  0
   45.4120   32.9330   47.4440 C   0  0  0  0  0  0  0  0  0  0  0  0
   44.4380   33.9470   47.7350 N   0  0  0  0  0  0  0  0  0  0  0  0
   43.7175   36.7056   44.9329 H   0  0  0  0  0  0  0  0  0  0  0  0
   44.8592   36.7410   42.7306 H   0  0  0  0  0  0  0  0  0  0  0  0
   48.4075   36.0294   42.7009 H   0  0  0  0  0  0  0  0  0  0  0  0
   49.8697   35.8960   40.7414 H   0  0  0  0  0  0  0  0  0  0  0  0
   49.1515   34.6325   38.7490 H   0  0  0  0  0  0  0  0  0  0  0  0
   47.4946   33.2792   37.6364 H   0  0  0  0  0  0  0  0  0  0  0  0
   45.2924   32.1275   37.5932 H   0  0  0  0  0  0  0  0  0  0  0  0
   43.8771   32.3254   39.6518 H   0  0  0  0  0  0  0  0  0  0  0  0
   44.6266   33.5784   41.5750 H   0  0  0  0  0  0  0  0  0  0  0  0
   47.4508   32.0936   44.8979 H   0  0  0  0  0  0  0  0  0  0  0  0
   48.0443   30.2721   46.5453 H   0  0  0  0  0  0  0  0  0  0  0  0
   46.9025   30.2547   48.7022 H   0  0  0  0  0  0  0  0  0  0  0  0
   45.1897   31.9338   49.3750 H   0  0  0  0  0  0  0  0  0  0  0  0
   43.9512   33.9481   48.6427 H   0  0  0  0  0  0  0  0  0  0  0  0
   44.2261   34.6733   47.0361 H   0  0  0  0  0  0  0  0  0  0  0  0
  1  6  2  0
  2  1  1  0
  3  2  2  0
  3  4  1  0
  4  5  2  0
  5  6  1  0
  5 17  1  0
  7  3  1  0
  8  7  2  0
  9  8  1  0
 10  9  2  0
 11 10  1  0
 11 16  2  0
 12 11  1  0
 13 12  2  0
 13 14  1  0
 14 15  2  0
 15 16  1  0
 16  7  1  0
 17 22  1  0
 18 17  2  0
 18 19  1  0
 19 20  2  0
 20 21  1  0
 22 23  1  0
 22 21  2  0
  1 24  1  0
  2 25  1  0
  8 26  1  0
  9 27  1  0
 10 28  1  0
 12 29  1  0
 13 30  1  0
 14 31  1  0
 15 32  1  0
 18 33  1  0
 19 34  1  0
 20 35  1  0
 21 36  1  0
 23 37  1  0
 23 38  1  0
M  ISO  8  24  14  25  14  26  14  27  14  28  14  29  14  30  14  31  14
M  ISO  5  32  14  33  14  34  14  35  14  36  14
M  END
>  <minimizedAffinity>  (1) 
-7.95340395

>  <minimizedRMSD>  (1) 
0.28234151

$$$$
