
     RDKit          3D

 33 35  0  0  1  0  0  0  0  0999 V2000
   44.5340   35.7730   44.8440 C   0  0  0  0  0  0  0  0  0  0  0  0
   44.9940   35.5120   43.5360 C   0  0  0  0  0  0  0  0  0  0  0  0
   45.7570   34.3390   43.3200 C   0  0  0  0  0  0  0  0  0  0  0  0
   45.9900   33.5440   44.3960 N   0  0  0  0  0  0  0  0  0  0  0  0
   45.5280   33.8330   45.6260 C   0  0  0  0  0  0  0  0  0  0  0  0
   44.8040   34.9440   45.8460 N   0  0  0  0  0  0  0  0  0  0  0  0
   45.8240   32.9070   46.6300 N   0  0  0  0  0  0  0  0  0  0  0  0
   45.0330   32.7250   47.8460 C   0  0  0  0  0  0  0  0  0  0  0  0
   46.1290   32.3480   48.8240 C   0  0  0  0  0  0  0  0  0  0  0  0
   46.8270   31.2970   48.0040 C   0  0  0  0  0  0  0  0  0  0  0  0
   46.9410   31.9620   46.6370 C   0  0  1  0  0  0  0  0  0  0  0  0
   46.7150   30.9100   45.5850 C   0  0  0  0  0  0  0  0  0  0  0  0
   47.9220   30.6450   45.1140 O   0  0  0  0  0  0  0  0  0  0  0  0
   43.8030   29.3380   43.9890 N   0  0  0  0  0  0  0  0  0  0  0  0
   44.7740   30.2020   43.9740 N   0  0  0  0  0  0  0  0  0  0  0  0
   45.5250   30.1890   45.0610 C   0  0  0  0  0  0  0  0  0  0  0  0
   44.9900   29.2140   45.8770 C   0  0  0  0  0  0  0  0  0  0  0  0
   43.9260   28.7160   45.1700 C   0  0  0  0  0  0  0  0  0  0  0  0
   43.9412   36.6792   45.0374 H   0  0  0  0  0  0  0  0  0  0  0  0
   44.7665   36.1997   42.7082 H   0  0  0  0  0  0  0  0  0  0  0  0
   46.1446   34.0826   42.3230 H   0  0  0  0  0  0  0  0  0  0  0  0
   44.5231   33.6532   48.1433 H   0  0  0  0  0  0  0  0  0  0  0  0
   44.2176   31.9916   47.7610 H   0  0  0  0  0  0  0  0  0  0  0  0
   46.7885   33.1984   49.0519 H   0  0  0  0  0  0  0  0  0  0  0  0
   45.7849   32.0216   49.8165 H   0  0  0  0  0  0  0  0  0  0  0  0
   47.8200   31.0659   48.4170 H   0  0  0  0  0  0  0  0  0  0  0  0
   46.2930   30.3356   47.9793 H   0  0  0  0  0  0  0  0  0  0  0  0
   47.9120   32.4428   46.4475 H   0  0  0  0  0  0  0  0  0  0  0  0
   46.8388   30.1239   46.3445 H   0  0  0  0  0  0  0  0  0  0  0  0
   48.5479   30.5076   45.8686 H   0  0  0  0  0  0  0  0  0  0  0  0
   43.0976   29.1692   43.2577 H   0  0  0  0  0  0  0  0  0  0  0  0
   45.3392   28.9048   46.8732 H   0  0  0  0  0  0  0  0  0  0  0  0
   43.2623   27.9136   45.5244 H   0  0  0  0  0  0  0  0  0  0  0  0
  1  6  2  0
  2  1  1  0
  3  2  2  0
  3  4  1  0
  4  5  2  0
  5  6  1  0
  5  7  1  0
  7 11  1  0
  7  8  1  0
  8  9  1  0
 10  9  1  0
 11 10  1  0
 12 13  1  0
 12 11  1  0
 14 18  1  0
 15 14  1  0
 15 16  2  0
 16 12  1  0
 16 17  1  0
 18 17  2  0
  1 19  1  0
  2 20  1  0
  3 21  1  0
  8 22  1  0
  8 23  1  0
  9 24  1  0
  9 25  1  0
 10 26  1  0
 10 27  1  0
 11 28  1  6
 12 29  1  0
 13 30  1  0
 14 31  1  0
 17 32  1  0
 18 33  1  0
M  ISO  8  19  14  20  14  21  14  22  13  23  13  24  13  25  13  26  13
M  ISO  7  27  13  28  13  29   8  30   3  31   9  32  14  33  14
M  END
>  <minimizedAffinity>  (1) 
-4.69155407

>  <minimizedRMSD>  (1) 
1.01786065

$$$$
