
     RDKit          3D

 31 33  0  0  1  0  0  0  0  0999 V2000
   44.5470   35.8060   44.8590 C   0  0  0  0  0  0  0  0  0  0  0  0
   45.0930   35.5680   43.5690 C   0  0  0  0  0  0  0  0  0  0  0  0
   45.8860   34.4130   43.3860 C   0  0  0  0  0  0  0  0  0  0  0  0
   46.0650   33.6110   44.4690 N   0  0  0  0  0  0  0  0  0  0  0  0
   45.5240   33.8770   45.6790 C   0  0  0  0  0  0  0  0  0  0  0  0
   44.7750   34.9700   45.8540 N   0  0  0  0  0  0  0  0  0  0  0  0
   45.7810   32.9450   46.6840 N   0  0  0  0  0  0  0  0  0  0  0  0
   44.9540   32.7820   47.8710 C   0  0  0  0  0  0  0  0  0  0  0  0
   45.9800   32.3410   48.8770 C   0  0  0  0  0  0  0  0  0  0  0  0
   46.6990   31.2990   48.0740 C   0  0  0  0  0  0  0  0  0  0  0  0
   46.8900   31.9820   46.7230 C   0  0  1  0  0  0  0  0  0  0  0  0
   46.7180   30.9600   45.6490 C   0  0  0  0  0  0  0  0  0  0  0  0
   47.9150   30.7060   45.1970 O   0  0  0  0  0  0  0  0  0  0  0  0
   45.6390   30.2040   45.0220 C   0  0  0  0  0  0  0  0  0  0  0  0
   45.0030   29.3050   45.7890 N   0  0  0  0  0  0  0  0  0  0  0  0
   44.0660   28.7490   45.0820 O   0  0  0  0  0  0  0  0  0  0  0  0
   44.0260   29.2210   43.8680 C   0  0  0  0  0  0  0  0  0  0  0  0
   45.0080   30.1250   43.8400 N   0  0  0  0  0  0  0  0  0  0  0  0
   43.9267   36.6981   45.0303 H   0  0  0  0  0  0  0  0  0  0  0  0
   44.9039   36.2625   42.7372 H   0  0  0  0  0  0  0  0  0  0  0  0
   46.3378   34.1737   42.4120 H   0  0  0  0  0  0  0  0  0  0  0  0
   44.4800   33.7297   48.1663 H   0  0  0  0  0  0  0  0  0  0  0  0
   44.1130   32.0842   47.7454 H   0  0  0  0  0  0  0  0  0  0  0  0
   46.6477   33.1654   49.1676 H   0  0  0  0  0  0  0  0  0  0  0  0
   45.5690   31.9872   49.8340 H   0  0  0  0  0  0  0  0  0  0  0  0
   47.6675   31.0463   48.5302 H   0  0  0  0  0  0  0  0  0  0  0  0
   46.1508   30.3477   48.0063 H   0  0  0  0  0  0  0  0  0  0  0  0
   47.8742   32.4537   46.5853 H   0  0  0  0  0  0  0  0  0  0  0  0
   46.8292   30.1584   46.3940 H   0  0  0  0  0  0  0  0  0  0  0  0
   48.5342   30.5746   45.9582 H   0  0  0  0  0  0  0  0  0  0  0  0
   43.3413   28.9396   43.0543 H   0  0  0  0  0  0  0  0  0  0  0  0
  1  6  2  0
  2  1  1  0
  3  2  2  0
  3  4  1  0
  4  5  2  0
  5  6  1  0
  5  7  1  0
  7 11  1  0
  7  8  1  0
  8  9  1  0
 10  9  1  0
 11 10  1  0
 12 13  1  0
 12 11  1  0
 14 12  1  0
 14 15  2  0
 16 15  1  0
 17 16  1  0
 18 17  2  0
 18 14  1  0
  1 19  1  0
  2 20  1  0
  3 21  1  0
  8 22  1  0
  8 23  1  0
  9 24  1  0
  9 25  1  0
 10 26  1  0
 10 27  1  0
 11 28  1  1
 12 29  1  0
 13 30  1  0
 17 31  1  0
M  ISO  8  19  14  20  14  21  14  22  13  23  13  24  13  25  13  26  13
M  ISO  5  27  13  28  13  29   8  30   3  31  14
M  END
>  <minimizedAffinity>  (1) 
-4.63133097

>  <minimizedRMSD>  (1) 
0.934779346

$$$$
