
     RDKit          3D

 33 35  0  0  1  0  0  0  0  0999 V2000
   44.5390   35.7620   44.8550 C   0  0  0  0  0  0  0  0  0  0  0  0
   44.9880   35.4590   43.5510 C   0  0  0  0  0  0  0  0  0  0  0  0
   45.7120   34.2510   43.3590 C   0  0  0  0  0  0  0  0  0  0  0  0
   45.9180   33.4710   44.4560 N   0  0  0  0  0  0  0  0  0  0  0  0
   45.4680   33.8060   45.6760 C   0  0  0  0  0  0  0  0  0  0  0  0
   44.7810   34.9470   45.8820 N   0  0  0  0  0  0  0  0  0  0  0  0
   45.7380   32.9000   46.7070 N   0  0  0  0  0  0  0  0  0  0  0  0
   44.9430   32.7680   47.9300 C   0  0  0  0  0  0  0  0  0  0  0  0
   46.0460   32.4040   48.9150 C   0  0  0  0  0  0  0  0  0  0  0  0
   46.6870   31.2910   48.1210 C   0  0  0  0  0  0  0  0  0  0  0  0
   46.8390   31.9290   46.7380 C   0  0  1  0  0  0  0  0  0  0  0  0
   46.6040   30.8660   45.7130 C   0  0  0  0  0  0  0  0  0  0  0  0
   47.7700   30.6430   45.1610 O   0  0  0  0  0  0  0  0  0  0  0  0
   45.5050   30.0430   45.1990 C   0  0  0  0  0  0  0  0  0  0  0  0
   44.8760   29.1980   46.0870 C   0  0  0  0  0  0  0  0  0  0  0  0
   43.9040   28.5870   45.2800 C   0  0  0  0  0  0  0  0  0  0  0  0
   43.9770   29.0620   43.9930 C   0  0  0  0  0  0  0  0  0  0  0  0
   44.9400   29.9110   44.0270 O   0  0  0  0  0  0  0  0  0  0  0  0
   43.9768   36.6916   45.0274 H   0  0  0  0  0  0  0  0  0  0  0  0
   44.7837   36.1372   42.7094 H   0  0  0  0  0  0  0  0  0  0  0  0
   46.0893   33.9591   42.3678 H   0  0  0  0  0  0  0  0  0  0  0  0
   44.4477   33.7123   48.2004 H   0  0  0  0  0  0  0  0  0  0  0  0
   44.1137   32.0477   47.8716 H   0  0  0  0  0  0  0  0  0  0  0  0
   46.7382   33.2405   49.0916 H   0  0  0  0  0  0  0  0  0  0  0  0
   45.7154   32.1407   49.9306 H   0  0  0  0  0  0  0  0  0  0  0  0
   47.6645   31.0124   48.5416 H   0  0  0  0  0  0  0  0  0  0  0  0
   46.1036   30.3585   48.1162 H   0  0  0  0  0  0  0  0  0  0  0  0
   47.8216   32.3845   46.5457 H   0  0  0  0  0  0  0  0  0  0  0  0
   46.8131   30.0928   46.4669 H   0  0  0  0  0  0  0  0  0  0  0  0
   48.4504   30.5129   45.8682 H   0  0  0  0  0  0  0  0  0  0  0  0
   45.0830   29.0420   47.1560 H   0  0  0  0  0  0  0  0  0  0  0  0
   43.1837   27.8326   45.6294 H   0  0  0  0  0  0  0  0  0  0  0  0
   43.3539   28.7800   43.1315 H   0  0  0  0  0  0  0  0  0  0  0  0
  1  6  2  0
  2  1  1  0
  3  2  2  0
  3  4  1  0
  4  5  2  0
  5  6  1  0
  5  7  1  0
  7 11  1  0
  7  8  1  0
  8  9  1  0
 10  9  1  0
 11 10  1  0
 12 13  1  0
 12 11  1  0
 14 12  1  0
 14 15  2  0
 16 15  1  0
 17 18  1  0
 17 16  2  0
 18 14  1  0
  1 19  1  0
  2 20  1  0
  3 21  1  0
  8 22  1  0
  8 23  1  0
  9 24  1  0
  9 25  1  0
 10 26  1  0
 10 27  1  0
 11 28  1  1
 12 29  1  0
 13 30  1  0
 15 31  1  0
 16 32  1  0
 17 33  1  0
M  ISO  8  19  14  20  14  21  14  22  13  23  13  24  13  25  13  26  13
M  ISO  7  27  13  28  13  29   8  30   3  31  14  32  14  33  14
M  END
>  <minimizedAffinity>  (1) 
-4.62238312

>  <minimizedRMSD>  (1) 
1.20129049

$$$$
