
     RDKit          3D

 33 35  0  0  1  0  0  0  0  0999 V2000
   44.5470   35.7920   44.8520 C   0  0  0  0  0  0  0  0  0  0  0  0
   45.0580   35.5410   43.5530 C   0  0  0  0  0  0  0  0  0  0  0  0
   45.8340   34.3630   43.3530 C   0  0  0  0  0  0  0  0  0  0  0  0
   46.0280   33.5560   44.4370 N   0  0  0  0  0  0  0  0  0  0  0  0
   45.5170   33.8430   45.6510 C   0  0  0  0  0  0  0  0  0  0  0  0
   44.7850   34.9530   45.8470 N   0  0  0  0  0  0  0  0  0  0  0  0
   45.7800   32.9170   46.6620 N   0  0  0  0  0  0  0  0  0  0  0  0
   44.9540   32.7430   47.8580 C   0  0  0  0  0  0  0  0  0  0  0  0
   46.0400   32.3770   48.8610 C   0  0  0  0  0  0  0  0  0  0  0  0
   46.7120   31.2840   48.0600 C   0  0  0  0  0  0  0  0  0  0  0  0
   46.8940   31.9600   46.6990 C   0  0  1  0  0  0  0  0  0  0  0  0
   46.6960   30.9190   45.6450 C   0  0  0  0  0  0  0  0  0  0  0  0
   47.8930   30.6800   45.1730 O   0  0  0  0  0  0  0  0  0  0  0  0
   45.6090   30.1430   45.0550 C   0  0  0  0  0  0  0  0  0  0  0  0
   44.9970   29.2050   45.8600 C   0  0  0  0  0  0  0  0  0  0  0  0
   44.0080   28.6800   45.0140 C   0  0  0  0  0  0  0  0  0  0  0  0
   44.0270   29.2590   43.8050 N   0  0  0  0  0  0  0  0  0  0  0  0
   45.0030   30.1380   43.8570 N   0  0  0  0  0  0  0  0  0  0  0  0
   43.9457   36.6949   45.0344 H   0  0  0  0  0  0  0  0  0  0  0  0
   44.8608   36.2361   42.7235 H   0  0  0  0  0  0  0  0  0  0  0  0
   46.2580   34.1147   42.3688 H   0  0  0  0  0  0  0  0  0  0  0  0
   44.4340   33.6715   48.1365 H   0  0  0  0  0  0  0  0  0  0  0  0
   44.1387   32.0108   47.7620 H   0  0  0  0  0  0  0  0  0  0  0  0
   46.7176   33.2189   49.0663 H   0  0  0  0  0  0  0  0  0  0  0  0
   45.6919   32.0932   49.8651 H   0  0  0  0  0  0  0  0  0  0  0  0
   47.6801   31.0025   48.5000 H   0  0  0  0  0  0  0  0  0  0  0  0
   46.1391   30.3459   48.0184 H   0  0  0  0  0  0  0  0  0  0  0  0
   47.8751   32.4330   46.5446 H   0  0  0  0  0  0  0  0  0  0  0  0
   46.8355   30.1297   46.3984 H   0  0  0  0  0  0  0  0  0  0  0  0
   48.5249   30.5538   45.9245 H   0  0  0  0  0  0  0  0  0  0  0  0
   45.2262   28.9363   46.9018 H   0  0  0  0  0  0  0  0  0  0  0  0
   43.3023   27.8889   45.3075 H   0  0  0  0  0  0  0  0  0  0  0  0
   43.4088   29.0580   43.0060 H   0  0  0  0  0  0  0  0  0  0  0  0
  1  6  2  0
  2  1  1  0
  3  2  2  0
  3  4  1  0
  4  5  2  0
  5  6  1  0
  5  7  1  0
  7 11  1  0
  7  8  1  0
  8  9  1  0
 10  9  1  0
 11 10  1  0
 12 13  1  0
 12 11  1  0
 14 12  1  0
 14 15  1  0
 16 15  2  0
 17 18  1  0
 17 16  1  0
 18 14  2  0
  1 19  1  0
  2 20  1  0
  3 21  1  0
  8 22  1  0
  8 23  1  0
  9 24  1  0
  9 25  1  0
 10 26  1  0
 10 27  1  0
 11 28  1  1
 12 29  1  0
 13 30  1  0
 15 31  1  0
 16 32  1  0
 17 33  1  0
M  ISO  8  19  14  20  14  21  14  22  13  23  13  24  13  25  13  26  13
M  ISO  7  27  13  28  13  29   8  30   3  31  14  32  14  33   9
M  END
>  <minimizedAffinity>  (1) 
-4.61911678

>  <minimizedRMSD>  (1) 
1.0406388

$$$$
