
     RDKit          3D

 32 34  0  0  1  0  0  0  0  0999 V2000
   44.5510   35.7350   44.8320 C   0  0  0  0  0  0  0  0  0  0  0  0
   45.0170   35.4790   43.5240 C   0  0  0  0  0  0  0  0  0  0  0  0
   45.7850   34.3100   43.3060 C   0  0  0  0  0  0  0  0  0  0  0  0
   46.0190   33.5150   44.3810 N   0  0  0  0  0  0  0  0  0  0  0  0
   45.5520   33.7980   45.6170 C   0  0  0  0  0  0  0  0  0  0  0  0
   44.8250   34.9040   45.8320 N   0  0  0  0  0  0  0  0  0  0  0  0
   45.8520   32.8710   46.6140 N   0  0  0  0  0  0  0  0  0  0  0  0
   45.0410   32.6650   47.8110 C   0  0  0  0  0  0  0  0  0  0  0  0
   46.1260   32.2940   48.8080 C   0  0  0  0  0  0  0  0  0  0  0  0
   46.8480   31.2570   47.9920 C   0  0  0  0  0  0  0  0  0  0  0  0
   46.9920   31.9460   46.6350 C   0  0  1  0  0  0  0  0  0  0  0  0
   46.8160   30.9090   45.5700 C   0  0  0  0  0  0  0  0  0  0  0  0
   48.0260   30.6310   45.1460 O   0  0  0  0  0  0  0  0  0  0  0  0
   45.6820   30.2040   44.9850 C   0  0  0  0  0  0  0  0  0  0  0  0
   45.2230   29.1940   45.9780 C   0  0  0  0  0  0  0  0  0  0  0  0
   43.8210   28.4470   45.1400 S   0  0  0  0  0  0  0  0  0  0  0  0
   44.0160   29.5470   43.6110 C   0  0  0  0  0  0  0  0  0  0  0  0
   44.9310   30.1640   43.9420 N   0  0  0  0  0  0  0  0  0  0  0  0
   43.9516   36.6367   45.0263 H   0  0  0  0  0  0  0  0  0  0  0  0
   44.7897   36.1685   42.6976 H   0  0  0  0  0  0  0  0  0  0  0  0
   46.1751   34.0570   42.3091 H   0  0  0  0  0  0  0  0  0  0  0  0
   44.5113   33.5823   48.1074 H   0  0  0  0  0  0  0  0  0  0  0  0
   44.2385   31.9205   47.7030 H   0  0  0  0  0  0  0  0  0  0  0  0
   46.7720   33.1500   49.0526 H   0  0  0  0  0  0  0  0  0  0  0  0
   45.7696   31.9581   49.7930 H   0  0  0  0  0  0  0  0  0  0  0  0
   47.8315   31.0237   48.4258 H   0  0  0  0  0  0  0  0  0  0  0  0
   46.3201   30.2933   47.9409 H   0  0  0  0  0  0  0  0  0  0  0  0
   47.9579   32.4479   46.4768 H   0  0  0  0  0  0  0  0  0  0  0  0
   46.8995   30.1163   46.3281 H   0  0  0  0  0  0  0  0  0  0  0  0
   48.6244   30.4935   45.9226 H   0  0  0  0  0  0  0  0  0  0  0  0
   45.6367   28.9641   46.9710 H   0  0  0  0  0  0  0  0  0  0  0  0
   43.4291   29.5855   42.6814 H   0  0  0  0  0  0  0  0  0  0  0  0
  1  6  2  0
  2  1  1  0
  3  2  2  0
  3  4  1  0
  4  5  2  0
  5  6  1  0
  5  7  1  0
  7 11  1  0
  7  8  1  0
  8  9  1  0
 10  9  1  0
 11 10  1  0
 12 13  1  0
 12 11  1  0
 14 12  1  0
 14 15  2  0
 16 15  1  0
 17 18  2  0
 17 16  1  0
 18 14  1  0
  1 19  1  0
  2 20  1  0
  3 21  1  0
  8 22  1  0
  8 23  1  0
  9 24  1  0
  9 25  1  0
 10 26  1  0
 10 27  1  0
 11 28  1  1
 12 29  1  0
 13 30  1  0
 15 31  1  0
 17 32  1  0
M  ISO  8  19  14  20  14  21  14  22  13  23  13  24  13  25  13  26  13
M  ISO  6  27  13  28  13  29   8  30   3  31  14  32  14
M  END
>  <minimizedAffinity>  (1) 
-4.57098293

>  <minimizedRMSD>  (1) 
0.847229362

$$$$
