
     RDKit          3D

 25 26  0  0  1  0  0  0  0  0999 V2000
   44.5270   35.7940   44.8340 C   0  0  0  0  0  0  0  0  0  0  0  0
   45.1250   35.6000   43.5690 C   0  0  0  0  0  0  0  0  0  0  0  0
   45.9780   34.4870   43.4080 C   0  0  0  0  0  0  0  0  0  0  0  0
   46.1740   33.6660   44.4780 N   0  0  0  0  0  0  0  0  0  0  0  0
   45.5810   33.8940   45.6620 C   0  0  0  0  0  0  0  0  0  0  0  0
   44.7580   34.9570   45.8410 N   0  0  0  0  0  0  0  0  0  0  0  0
   45.8440   32.9910   46.7150 N   0  0  0  0  0  0  0  0  0  0  0  0
   44.9650   32.7200   47.8170 C   0  0  0  0  0  0  0  0  0  0  0  0
   45.9340   32.3290   48.8770 C   0  0  0  0  0  0  0  0  0  0  0  0
   46.8510   31.3900   48.1090 C   0  0  0  0  0  0  0  0  0  0  0  0
   47.0580   32.2000   46.8390 C   0  0  1  0  0  0  0  0  0  0  0  0
   47.2360   31.2520   45.7090 C   0  0  0  0  0  0  0  0  0  0  0  0
   46.8640   30.0750   45.5340 O   0  0  0  0  0  0  0  0  0  0  0  0
   47.8110   31.1550   44.4520 O   0  0  0  0  0  0  0  0  0  0  0  0
   43.8579   36.6533   44.9888 H   0  0  0  0  0  0  0  0  0  0  0  0
   44.9323   36.2933   42.7370 H   0  0  0  0  0  0  0  0  0  0  0  0
   46.4711   34.2877   42.4451 H   0  0  0  0  0  0  0  0  0  0  0  0
   44.3932   33.6145   48.1048 H   0  0  0  0  0  0  0  0  0  0  0  0
   44.1996   31.9590   47.6048 H   0  0  0  0  0  0  0  0  0  0  0  0
   46.4822   33.2010   49.2632 H   0  0  0  0  0  0  0  0  0  0  0  0
   45.4710   31.8788   49.7675 H   0  0  0  0  0  0  0  0  0  0  0  0
   47.7978   31.2181   48.6420 H   0  0  0  0  0  0  0  0  0  0  0  0
   46.4500   30.3778   47.9518 H   0  0  0  0  0  0  0  0  0  0  0  0
   47.9436   32.8523   46.8500 H   0  0  0  0  0  0  0  0  0  0  0  0
   47.7322   30.3143   43.9351 H   0  0  0  0  0  0  0  0  0  0  0  0
  1  6  2  0
  2  1  1  0
  3  2  2  0
  3  4  1  0
  4  5  2  0
  5  6  1  0
  5  7  1  0
  7 11  1  0
  7  8  1  0
  8  9  1  0
 10  9  1  0
 11 10  1  0
 12 11  1  0
 13 12  2  0
 14 12  1  0
  1 15  1  0
  2 16  1  0
  3 17  1  0
  8 18  1  0
  8 19  1  0
  9 20  1  0
  9 21  1  0
 10 22  1  0
 10 23  1  0
 11 24  1  1
 14 25  1  0
M  ISO  8  15  14  16  14  17  14  18  13  19  13  20  13  21  13  22  13
M  ISO  3  23  13  24  13  25   3
M  END
>  <minimizedAffinity>  (1) 
-4.47940254

>  <minimizedRMSD>  (1) 
0.28474009

$$$$
