
     RDKit          3D

 39 42  0  0  0  0  0  0  0  0999 V2000
   45.0070   34.6050   45.4220 C   0  0  0  0  0  0  0  0  0  0  0  0
   45.5680   35.0100   44.2210 C   0  0  0  0  0  0  0  0  0  0  0  0
   46.5550   34.2950   43.5680 C   0  0  0  0  0  0  0  0  0  0  0  0
   46.9120   33.1530   44.2370 N   0  0  0  0  0  0  0  0  0  0  0  0
   46.3830   32.7450   45.3960 C   0  0  0  0  0  0  0  0  0  0  0  0
   45.4520   33.4740   45.9590 N   0  0  0  0  0  0  0  0  0  0  0  0
   47.2430   34.5650   42.3340 C   0  0  0  0  0  0  0  0  0  0  0  0
   48.2990   35.4570   42.3690 C   0  0  0  0  0  0  0  0  0  0  0  0
   49.0440   35.8070   41.2700 C   0  0  0  0  0  0  0  0  0  0  0  0
   48.7450   35.2500   40.0600 C   0  0  0  0  0  0  0  0  0  0  0  0
   47.7160   34.3610   39.9490 C   0  0  0  0  0  0  0  0  0  0  0  0
   47.3990   33.7890   38.7270 C   0  0  0  0  0  0  0  0  0  0  0  0
   46.3750   32.8940   38.5740 C   0  0  0  0  0  0  0  0  0  0  0  0
   45.6650   32.5930   39.7450 C   0  0  0  0  0  0  0  0  0  0  0  0
   45.9900   33.1610   40.9250 C   0  0  0  0  0  0  0  0  0  0  0  0
   47.0090   34.0530   41.0820 C   0  0  0  0  0  0  0  0  0  0  0  0
   46.8610   31.5060   45.9890 C   0  0  0  0  0  0  0  0  0  0  0  0
   47.6470   30.6450   45.2360 C   0  0  0  0  0  0  0  0  0  0  0  0
   48.1050   29.4560   45.7950 C   0  0  0  0  0  0  0  0  0  0  0  0
   47.7580   29.1860   47.0710 C   0  0  0  0  0  0  0  0  0  0  0  0
   46.9880   29.9850   47.8760 C   0  0  0  0  0  0  0  0  0  0  0  0
   46.5560   31.1560   47.2710 C   0  0  0  0  0  0  0  0  0  0  0  0
   45.7470   31.9660   48.1660 C   0  0  0  0  0  0  0  0  0  0  0  0
   45.7790   32.7490   49.1180 O   0  0  0  0  0  0  0  0  0  0  0  0
   44.3780   32.0890   48.1750 O   0  0  0  0  0  0  0  0  0  0  0  0
   44.2217   35.1985   45.9129 H   0  0  0  0  0  0  0  0  0  0  0  0
   45.2108   35.9453   43.7654 H   0  0  0  0  0  0  0  0  0  0  0  0
   48.5578   35.9138   43.3356 H   0  0  0  0  0  0  0  0  0  0  0  0
   49.8707   36.5266   41.3633 H   0  0  0  0  0  0  0  0  0  0  0  0
   49.3356   35.5188   39.1717 H   0  0  0  0  0  0  0  0  0  0  0  0
   47.9945   34.0656   37.8445 H   0  0  0  0  0  0  0  0  0  0  0  0
   46.1267   32.4430   37.6019 H   0  0  0  0  0  0  0  0  0  0  0  0
   44.8278   31.8808   39.7009 H   0  0  0  0  0  0  0  0  0  0  0  0
   45.3986   32.8886   41.8116 H   0  0  0  0  0  0  0  0  0  0  0  0
   47.9075   30.9022   44.1987 H   0  0  0  0  0  0  0  0  0  0  0  0
   48.7291   28.7593   45.2162 H   0  0  0  0  0  0  0  0  0  0  0  0
   48.1249   28.2430   47.5025 H   0  0  0  0  0  0  0  0  0  0  0  0
   46.7344   29.7201   48.9131 H   0  0  0  0  0  0  0  0  0  0  0  0
   43.9382   32.6767   48.8393 H   0  0  0  0  0  0  0  0  0  0  0  0
  1  6  2  0
  2  1  1  0
  3  2  2  0
  3  4  1  0
  4  5  2  0
  5  6  1  0
  5 17  1  0
  7  8  2  0
  7  3  1  0
  9  8  1  0
 10  9  2  0
 11 10  1  0
 11 16  2  0
 12 11  1  0
 13 12  2  0
 13 14  1  0
 14 15  2  0
 15 16  1  0
 16  7  1  0
 17 22  2  0
 18 19  2  0
 18 17  1  0
 19 20  1  0
 20 21  2  0
 22 21  1  0
 22 23  1  0
 23 25  1  0
 23 24  2  0
  1 26  1  0
  2 27  1  0
  8 28  1  0
  9 29  1  0
 10 30  1  0
 12 31  1  0
 13 32  1  0
 14 33  1  0
 15 34  1  0
 18 35  1  0
 19 36  1  0
 20 37  1  0
 21 38  1  0
 25 39  1  0
M  ISO  8  26  14  27  14  28  14  29  14  30  14  31  14  32  14  33  14
M  ISO  6  34  14  35  14  36  14  37  14  38  14  39   3
M  END
>  <minimizedAffinity>  (1) 
-6.72174931

>  <minimizedRMSD>  (1) 
1.64570653

$$$$
