
     RDKit          3D

 20 21  0  0  0  0  0  0  0  0999 V2000
   44.4760   35.9960   44.7800 C   0  0  0  0  0  0  0  0  0  0  0  0
   45.1040   35.9520   43.5240 C   0  0  0  0  0  0  0  0  0  0  0  0
   45.9650   34.8860   43.2740 C   0  0  0  0  0  0  0  0  0  0  0  0
   46.1650   33.9470   44.2330 N   0  0  0  0  0  0  0  0  0  0  0  0
   45.5360   34.0260   45.4410 C   0  0  0  0  0  0  0  0  0  0  0  0
   44.7040   35.0380   45.7070 N   0  0  0  0  0  0  0  0  0  0  0  0
   46.6820   34.7160   42.0130 C   0  0  0  0  0  0  0  0  0  0  0  0
   47.9030   35.3470   41.8840 C   0  0  0  0  0  0  0  0  0  0  0  0
   48.6530   35.2330   40.7060 C   0  0  0  0  0  0  0  0  0  0  0  0
   48.1580   34.4690   39.6430 C   0  0  0  0  0  0  0  0  0  0  0  0
   46.9270   33.8340   39.7760 C   0  0  0  0  0  0  0  0  0  0  0  0
   46.2090   33.9670   40.9570 C   0  0  0  0  0  0  0  0  0  0  0  0
   43.7883   36.8223   45.0130 H   0  0  0  0  0  0  0  0  0  0  0  0
   44.9227   36.7294   42.7672 H   0  0  0  0  0  0  0  0  0  0  0  0
   45.7147   33.2516   46.2015 H   0  0  0  0  0  0  0  0  0  0  0  0
   48.2930   35.9483   42.7185 H   0  0  0  0  0  0  0  0  0  0  0  0
   49.6247   35.7408   40.6172 H   0  0  0  0  0  0  0  0  0  0  0  0
   48.7360   34.3715   38.7122 H   0  0  0  0  0  0  0  0  0  0  0  0
   46.5247   33.2297   38.9496 H   0  0  0  0  0  0  0  0  0  0  0  0
   45.2369   33.4612   41.0524 H   0  0  0  0  0  0  0  0  0  0  0  0
  1  6  2  0
  2  1  1  0
  3  2  2  0
  3  4  1  0
  4  5  2  0
  5  6  1  0
  7  3  1  0
  8  7  2  0
  9  8  1  0
 10 11  1  0
 10  9  2  0
 11 12  2  0
 12  7  1  0
  1 13  1  0
  2 14  1  0
  5 15  1  0
  8 16  1  0
  9 17  1  0
 10 18  1  0
 11 19  1  0
 12 20  1  0
M  ISO  8  13  14  14  14  15  14  16  14  17  14  18  14  19  14  20  14
M  END
>  <minimizedAffinity>  (1) 
-4.95852518

>  <minimizedRMSD>  (1) 
0.879366517

$$$$
