
     RDKit          3D

 34 37  0  0  0  0  0  0  0  0999 V2000
   46.5590   34.6900   42.0950 C   0  0  0  0  0  0  0  0  0  0  0  0
   47.8160   35.2200   41.9540 C   0  0  0  0  0  0  0  0  0  0  0  0
   48.5520   35.0890   40.7750 C   0  0  0  0  0  0  0  0  0  0  0  0
   47.9940   34.4000   39.7070 C   0  0  0  0  0  0  0  0  0  0  0  0
   46.7080   33.8540   39.8420 C   0  0  0  0  0  0  0  0  0  0  0  0
   46.0210   34.0110   41.0270 C   0  0  0  0  0  0  0  0  0  0  0  0
   44.6750   33.4350   41.1510 C   0  0  0  0  0  0  0  0  0  0  0  0
   44.4670   32.1050   41.5340 C   0  0  0  0  0  0  0  0  0  0  0  0
   43.1580   31.8570   41.5600 N   0  0  0  0  0  0  0  0  0  0  0  0
   42.4970   32.9610   41.2150 C   0  0  0  0  0  0  0  0  0  0  0  0
   41.1580   33.2470   41.0840 C   0  0  0  0  0  0  0  0  0  0  0  0
   40.8060   34.5050   40.7030 C   0  0  0  0  0  0  0  0  0  0  0  0
   41.7360   35.5080   40.4420 C   0  0  0  0  0  0  0  0  0  0  0  0
   43.0880   35.2390   40.5680 C   0  0  0  0  0  0  0  0  0  0  0  0
   43.4060   33.9660   40.9520 C   0  0  0  0  0  0  0  0  0  0  0  0
   44.4570   36.0640   44.8940 C   0  0  0  0  0  0  0  0  0  0  0  0
   45.0550   35.9910   43.6330 C   0  0  0  0  0  0  0  0  0  0  0  0
   45.8780   34.8860   43.3670 C   0  0  0  0  0  0  0  0  0  0  0  0
   46.0640   33.9470   44.3180 N   0  0  0  0  0  0  0  0  0  0  0  0
   45.4540   34.0660   45.5380 C   0  0  0  0  0  0  0  0  0  0  0  0
   44.6670   35.1050   45.8170 N   0  0  0  0  0  0  0  0  0  0  0  0
   48.2595   35.7671   42.7989 H   0  0  0  0  0  0  0  0  0  0  0  0
   49.5586   35.5251   40.6936 H   0  0  0  0  0  0  0  0  0  0  0  0
   48.5526   34.2833   38.7666 H   0  0  0  0  0  0  0  0  0  0  0  0
   46.2506   33.3036   39.0066 H   0  0  0  0  0  0  0  0  0  0  0  0
   45.2582   31.3798   41.7752 H   0  0  0  0  0  0  0  0  0  0  0  0
   42.7260   30.9553   41.8074 H   0  0  0  0  0  0  0  0  0  0  0  0
   40.3938   32.4809   41.2815 H   0  0  0  0  0  0  0  0  0  0  0  0
   39.7369   34.7406   40.5962 H   0  0  0  0  0  0  0  0  0  0  0  0
   41.3979   36.5094   40.1371 H   0  0  0  0  0  0  0  0  0  0  0  0
   43.8571   36.0006   40.3718 H   0  0  0  0  0  0  0  0  0  0  0  0
   43.8056   36.9165   45.1365 H   0  0  0  0  0  0  0  0  0  0  0  0
   44.8866   36.7715   42.8764 H   0  0  0  0  0  0  0  0  0  0  0  0
   45.6162   33.2906   46.3012 H   0  0  0  0  0  0  0  0  0  0  0  0
  1 18  1  0
  2  1  2  0
  3  2  1  0
  4  5  1  0
  4  3  2  0
  5  6  2  0
  6  7  1  0
  6  1  1  0
  7  8  2  0
  8  9  1  0
 10  9  1  0
 11 10  2  0
 12 11  1  0
 13 14  1  0
 13 12  2  0
 14 15  2  0
 15  7  1  0
 15 10  1  0
 16 21  2  0
 17 16  1  0
 18 17  2  0
 18 19  1  0
 19 20  2  0
 20 21  1  0
  2 22  1  0
  3 23  1  0
  4 24  1  0
  5 25  1  0
  8 26  1  0
  9 27  1  0
 11 28  1  0
 12 29  1  0
 13 30  1  0
 14 31  1  0
 16 32  1  0
 17 33  1  0
 20 34  1  0
M  ISO  8  22  14  23  14  24  14  25  14  26  14  27   9  28  14  29  14
M  ISO  5  30  14  31  14  32  14  33  14  34  14
M  END
>  <minimizedAffinity>  (1) 
-6.58918333

>  <minimizedRMSD>  (1) 
0.400592804

$$$$
