
     RDKit          3D

 33 36  0  0  0  0  0  0  0  0999 V2000
   46.5750   34.6630   42.1050 C   0  0  0  0  0  0  0  0  0  0  0  0
   47.7860   35.2780   41.9210 C   0  0  0  0  0  0  0  0  0  0  0  0
   48.5220   35.1500   40.7370 C   0  0  0  0  0  0  0  0  0  0  0  0
   47.9900   34.3570   39.7000 C   0  0  0  0  0  0  0  0  0  0  0  0
   46.7680   33.7330   39.8810 C   0  0  0  0  0  0  0  0  0  0  0  0
   46.0840   33.8960   41.0770 C   0  0  0  0  0  0  0  0  0  0  0  0
   44.4480   36.0030   44.8940 C   0  0  0  0  0  0  0  0  0  0  0  0
   45.0450   35.9300   43.6250 C   0  0  0  0  0  0  0  0  0  0  0  0
   45.8940   34.8600   43.3700 C   0  0  0  0  0  0  0  0  0  0  0  0
   46.1130   33.9340   44.3460 N   0  0  0  0  0  0  0  0  0  0  0  0
   45.5090   34.0470   45.5690 C   0  0  0  0  0  0  0  0  0  0  0  0
   44.6910   35.0610   45.8400 N   0  0  0  0  0  0  0  0  0  0  0  0
   44.8300   33.2530   41.2540 N   0  0  0  0  0  0  0  0  0  0  0  0
   44.5530   32.0350   41.7500 C   0  0  0  0  0  0  0  0  0  0  0  0
   43.2180   31.8220   41.7380 N   0  0  0  0  0  0  0  0  0  0  0  0
   42.6110   32.9100   41.2290 C   0  0  0  0  0  0  0  0  0  0  0  0
   41.3140   33.3030   40.9620 C   0  0  0  0  0  0  0  0  0  0  0  0
   41.1120   34.5050   40.4360 N   0  0  0  0  0  0  0  0  0  0  0  0
   42.0770   35.3840   40.1370 C   0  0  0  0  0  0  0  0  0  0  0  0
   43.3280   34.9910   40.4000 N   0  0  0  0  0  0  0  0  0  0  0  0
   43.6270   33.7950   40.9310 C   0  0  0  0  0  0  0  0  0  0  0  0
   40.2580   32.4000   41.2640 N   0  0  0  0  0  0  0  0  0  0  0  0
   48.1950   35.8954   42.7343 H   0  0  0  0  0  0  0  0  0  0  0  0
   49.4916   35.6558   40.6188 H   0  0  0  0  0  0  0  0  0  0  0  0
   48.5410   34.2353   38.7558 H   0  0  0  0  0  0  0  0  0  0  0  0
   46.3412   33.1109   39.0805 H   0  0  0  0  0  0  0  0  0  0  0  0
   43.7713   36.8388   45.1253 H   0  0  0  0  0  0  0  0  0  0  0  0
   44.8472   36.6940   42.8588 H   0  0  0  0  0  0  0  0  0  0  0  0
   45.7029   33.2872   46.3405 H   0  0  0  0  0  0  0  0  0  0  0  0
   45.3028   31.3165   42.1127 H   0  0  0  0  0  0  0  0  0  0  0  0
   41.8543   36.3693   39.7016 H   0  0  0  0  0  0  0  0  0  0  0  0
   39.2815   32.6677   41.0749 H   0  0  0  0  0  0  0  0  0  0  0  0
   40.4695   31.4781   41.6718 H   0  0  0  0  0  0  0  0  0  0  0  0
  1  9  1  0
  2  1  2  0
  3  2  1  0
  4  5  1  0
  4  3  2  0
  5  6  2  0
  6 13  1  0
  6  1  1  0
  7 12  2  0
  8  7  1  0
  9  8  2  0
  9 10  1  0
 10 11  2  0
 11 12  1  0
 13 14  1  0
 15 14  2  0
 16 15  1  0
 17 16  2  0
 17 22  1  0
 18 17  1  0
 19 20  1  0
 19 18  2  0
 20 21  2  0
 21 16  1  0
 21 13  1  0
  2 23  1  0
  3 24  1  0
  4 25  1  0
  5 26  1  0
  7 27  1  0
  8 28  1  0
 11 29  1  0
 14 30  1  0
 19 31  1  0
 22 32  1  0
 22 33  1  0
M  ISO  8  23  14  24  14  25  14  26  14  27  14  28  14  29  14  30  14
M  ISO  1  31  14
M  END
>  <minimizedAffinity>  (1) 
-6.52989435

>  <minimizedRMSD>  (1) 
0.823130131

$$$$
