
     RDKit          3D

 33 35  0  0  0  0  0  0  0  0999 V2000
   46.6100   34.7450   42.1390 C   0  0  0  0  0  0  0  0  0  0  0  0
   47.9630   35.0570   42.1210 C   0  0  0  0  0  0  0  0  0  0  0  0
   48.7190   34.8740   40.9650 C   0  0  0  0  0  0  0  0  0  0  0  0
   48.1250   34.3780   39.8110 C   0  0  0  0  0  0  0  0  0  0  0  0
   46.7710   34.0660   39.8300 C   0  0  0  0  0  0  0  0  0  0  0  0
   46.0230   34.2520   40.9910 C   0  0  0  0  0  0  0  0  0  0  0  0
   44.4590   36.1380   44.8830 C   0  0  0  0  0  0  0  0  0  0  0  0
   45.0930   36.0590   43.6380 C   0  0  0  0  0  0  0  0  0  0  0  0
   45.8910   34.9590   43.3790 C   0  0  0  0  0  0  0  0  0  0  0  0
   46.0160   34.0110   44.3520 N   0  0  0  0  0  0  0  0  0  0  0  0
   45.3880   34.1190   45.5500 C   0  0  0  0  0  0  0  0  0  0  0  0
   44.6150   35.1780   45.8100 N   0  0  0  0  0  0  0  0  0  0  0  0
   41.8520   33.2510   40.9240 C   0  0  0  0  0  0  0  0  0  0  0  0
   42.7810   32.3540   41.3900 C   0  0  0  0  0  0  0  0  0  0  0  0
   44.1220   32.6800   41.4120 C   0  0  0  0  0  0  0  0  0  0  0  0
   44.6020   33.9160   40.9700 C   0  0  0  0  0  0  0  0  0  0  0  0
   43.6650   34.8200   40.5020 C   0  0  0  0  0  0  0  0  0  0  0  0
   42.3270   34.4920   40.4810 C   0  0  0  0  0  0  0  0  0  0  0  0
   40.1560   32.9130   40.8670 S   0  0  0  0  0  0  0  0  0  0  0  0
   39.7470   32.2260   42.1570 O   0  0  0  0  0  0  0  0  0  0  0  0
   39.3860   34.1730   40.6540 O   0  0  0  0  0  0  0  0  0  0  0  0
   48.4427   35.4526   43.0284 H   0  0  0  0  0  0  0  0  0  0  0  0
   49.7904   35.1232   40.9660 H   0  0  0  0  0  0  0  0  0  0  0  0
   48.7179   34.2344   38.8957 H   0  0  0  0  0  0  0  0  0  0  0  0
   46.2875   33.6705   38.9246 H   0  0  0  0  0  0  0  0  0  0  0  0
   43.8194   37.0043   45.1075 H   0  0  0  0  0  0  0  0  0  0  0  0
   44.9604   36.8503   42.8855 H   0  0  0  0  0  0  0  0  0  0  0  0
   45.5154   33.3331   46.3091 H   0  0  0  0  0  0  0  0  0  0  0  0
   42.4538   31.3670   41.7489 H   0  0  0  0  0  0  0  0  0  0  0  0
   44.8404   31.9387   41.7919 H   0  0  0  0  0  0  0  0  0  0  0  0
   43.9907   35.8078   40.1441 H   0  0  0  0  0  0  0  0  0  0  0  0
   41.6058   35.2314   40.1027 H   0  0  0  0  0  0  0  0  0  0  0  0
   39.8796   32.0790   39.8158 H   0  0  0  0  0  0  0  0  0  0  0  0
  1  9  1  0
  2  1  2  0
  3  2  1  0
  4  5  1  0
  4  3  2  0
  5  6  2  0
  6  1  1  0
  7 12  2  0
  8  7  1  0
  9  8  2  0
  9 10  1  0
 10 11  2  0
 11 12  1  0
 13 14  2  0
 14 15  1  0
 16  6  1  0
 16 15  2  0
 17 16  1  0
 18 17  2  0
 18 13  1  0
 19 13  1  0
 19 20  2  0
 21 19  2  0
  2 22  1  0
  3 23  1  0
  4 24  1  0
  5 25  1  0
  7 26  1  0
  8 27  1  0
 11 28  1  0
 14 29  1  0
 15 30  1  0
 17 31  1  0
 18 32  1  0
 19 33  1  0
M  ISO  8  22  14  23  14  24  14  25  14  26  14  27  14  28  14  29  14
M  ISO  4  30  14  31  14  32  14  33  11
M  END
>  <minimizedAffinity>  (1) 
-6.21380091

>  <minimizedRMSD>  (1) 
1.18059576

$$$$
