
     RDKit          3D

 27 29  0  0  0  0  0  0  0  0999 V2000
   46.5470   34.7430   42.0810 C   0  0  0  0  0  0  0  0  0  0  0  0
   47.8710   35.1200   42.0120 C   0  0  0  0  0  0  0  0  0  0  0  0
   48.5950   34.9190   40.8240 C   0  0  0  0  0  0  0  0  0  0  0  0
   47.9820   34.3430   39.7190 C   0  0  0  0  0  0  0  0  0  0  0  0
   46.6410   33.9650   39.7980 C   0  0  0  0  0  0  0  0  0  0  0  0
   45.9580   34.1750   40.9790 C   0  0  0  0  0  0  0  0  0  0  0  0
   44.4450   36.1960   44.8450 C   0  0  0  0  0  0  0  0  0  0  0  0
   45.0600   36.1000   43.5800 C   0  0  0  0  0  0  0  0  0  0  0  0
   45.8450   34.9800   43.3480 C   0  0  0  0  0  0  0  0  0  0  0  0
   45.9860   34.0470   44.3210 N   0  0  0  0  0  0  0  0  0  0  0  0
   45.3750   34.1780   45.5300 C   0  0  0  0  0  0  0  0  0  0  0  0
   44.6100   35.2480   45.7840 N   0  0  0  0  0  0  0  0  0  0  0  0
   44.5540   33.8160   41.1640 C   0  0  0  0  0  0  0  0  0  0  0  0
   43.5740   34.5850   40.5690 C   0  0  0  0  0  0  0  0  0  0  0  0
   42.3490   34.0070   40.9180 C   0  0  0  0  0  0  0  0  0  0  0  0
   42.6250   32.9250   41.6980 N   0  0  0  0  0  0  0  0  0  0  0  0
   43.9280   32.8120   41.8440 N   0  0  0  0  0  0  0  0  0  0  0  0
   48.3601   35.5772   42.8848 H   0  0  0  0  0  0  0  0  0  0  0  0
   49.6518   35.2193   40.7694 H   0  0  0  0  0  0  0  0  0  0  0  0
   48.5487   34.1860   38.7894 H   0  0  0  0  0  0  0  0  0  0  0  0
   46.1369   33.5075   38.9339 H   0  0  0  0  0  0  0  0  0  0  0  0
   43.8141   37.0687   45.0694 H   0  0  0  0  0  0  0  0  0  0  0  0
   44.9238   36.8767   42.8130 H   0  0  0  0  0  0  0  0  0  0  0  0
   45.5095   33.4040   46.2999 H   0  0  0  0  0  0  0  0  0  0  0  0
   43.7265   35.4769   39.9435 H   0  0  0  0  0  0  0  0  0  0  0  0
   41.3509   34.3597   40.6189 H   0  0  0  0  0  0  0  0  0  0  0  0
   41.9231   32.2935   42.1095 H   0  0  0  0  0  0  0  0  0  0  0  0
  1  9  1  0
  2  1  2  0
  3  2  1  0
  4  5  1  0
  4  3  2  0
  5  6  2  0
  6 13  1  0
  6  1  1  0
  7 12  2  0
  8  7  1  0
  9  8  2  0
  9 10  1  0
 10 11  2  0
 11 12  1  0
 13 17  2  0
 14 15  2  0
 14 13  1  0
 15 16  1  0
 16 17  1  0
  2 18  1  0
  3 19  1  0
  4 20  1  0
  5 21  1  0
  7 22  1  0
  8 23  1  0
 11 24  1  0
 14 25  1  0
 15 26  1  0
 16 27  1  0
M  ISO  8  18  14  19  14  20  14  21  14  22  14  23  14  24  14  25  14
M  ISO  2  26  14  27   9
M  END
>  <minimizedAffinity>  (1) 
-5.76074171

>  <minimizedRMSD>  (1) 
0.536868393

$$$$
