
     RDKit          3D

 34 36  0  0  0  0  0  0  0  0999 V2000
   46.6720   34.8080   42.0500 C   0  0  0  0  0  0  0  0  0  0  0  0
   47.9630   35.2820   41.9890 C   0  0  0  0  0  0  0  0  0  0  0  0
   48.7430   35.1470   40.8340 C   0  0  0  0  0  0  0  0  0  0  0  0
   48.2000   34.5100   39.7040 C   0  0  0  0  0  0  0  0  0  0  0  0
   46.9010   34.0330   39.7680 C   0  0  0  0  0  0  0  0  0  0  0  0
   46.1710   34.1930   40.9350 C   0  0  0  0  0  0  0  0  0  0  0  0
   44.4530   36.1310   44.7760 C   0  0  0  0  0  0  0  0  0  0  0  0
   45.1000   36.0820   43.5290 C   0  0  0  0  0  0  0  0  0  0  0  0
   45.9400   34.9930   43.2850 C   0  0  0  0  0  0  0  0  0  0  0  0
   46.1000   34.0350   44.2470 N   0  0  0  0  0  0  0  0  0  0  0  0
   45.4450   34.1330   45.4460 C   0  0  0  0  0  0  0  0  0  0  0  0
   44.6400   35.1580   45.7020 N   0  0  0  0  0  0  0  0  0  0  0  0
   44.8170   33.6870   40.9770 N   0  0  0  0  0  0  0  0  0  0  0  0
   43.6060   34.4080   40.5840 C   0  0  0  0  0  0  0  0  0  0  0  0
   42.4590   34.1240   41.5190 C   0  0  0  0  0  0  0  0  0  0  0  0
   42.2360   32.6810   41.5240 N   0  0  0  0  0  0  0  0  0  0  0  0
   43.3930   32.1070   42.2060 C   0  0  0  0  0  0  0  0  0  0  0  0
   44.6820   32.3360   41.4560 C   0  0  0  0  0  0  0  0  0  0  0  0
   48.3931   35.7798   42.8706 H   0  0  0  0  0  0  0  0  0  0  0  0
   49.7717   35.5359   40.8108 H   0  0  0  0  0  0  0  0  0  0  0  0
   48.7955   34.3927   38.7866 H   0  0  0  0  0  0  0  0  0  0  0  0
   46.4521   33.5307   38.8984 H   0  0  0  0  0  0  0  0  0  0  0  0
   43.7834   36.9732   45.0047 H   0  0  0  0  0  0  0  0  0  0  0  0
   44.9508   36.8696   42.7757 H   0  0  0  0  0  0  0  0  0  0  0  0
   45.5876   33.3520   46.2074 H   0  0  0  0  0  0  0  0  0  0  0  0
   43.8151   35.4879   40.5943 H   0  0  0  0  0  0  0  0  0  0  0  0
   43.3185   34.0713   39.5771 H   0  0  0  0  0  0  0  0  0  0  0  0
   42.7090   34.4678   42.5336 H   0  0  0  0  0  0  0  0  0  0  0  0
   41.5528   34.6524   41.1880 H   0  0  0  0  0  0  0  0  0  0  0  0
   41.3695   32.4529   42.0320 H   0  0  0  0  0  0  0  0  0  0  0  0
   43.4785   32.5665   43.2018 H   0  0  0  0  0  0  0  0  0  0  0  0
   43.2350   31.0204   42.2724 H   0  0  0  0  0  0  0  0  0  0  0  0
   44.7132   31.6530   40.5943 H   0  0  0  0  0  0  0  0  0  0  0  0
   45.5098   32.1487   42.1558 H   0  0  0  0  0  0  0  0  0  0  0  0
  1  9  1  0
  2  1  2  0
  3  2  1  0
  4  5  1  0
  4  3  2  0
  5  6  2  0
  6 13  1  0
  6  1  1  0
  7 12  2  0
  8  7  1  0
  9  8  2  0
  9 10  1  0
 10 11  2  0
 11 12  1  0
 13 18  1  0
 14 13  1  0
 14 15  1  0
 15 16  1  0
 16 17  1  0
 18 17  1  0
  2 19  1  0
  3 20  1  0
  4 21  1  0
  5 22  1  0
  7 23  1  0
  8 24  1  0
 11 25  1  0
 14 26  1  0
 14 27  1  0
 15 28  1  0
 15 29  1  0
 16 30  1  0
 17 31  1  0
 17 32  1  0
 18 33  1  0
 18 34  1  0
M  ISO  8  19  14  20  14  21  14  22  14  23  14  24  14  25  14  26  13
M  ISO  8  27  13  28  13  29  13  30   5  31  13  32  13  33  13  34  13
M  END
>  <minimizedAffinity>  (1) 
-5.69135284

>  <minimizedRMSD>  (1) 
0.403076589

$$$$
