
     RDKit          3D

 27 29  0  0  0  0  0  0  0  0999 V2000
   46.6420   34.7750   42.0520 C   0  0  0  0  0  0  0  0  0  0  0  0
   47.9350   35.2310   41.9920 C   0  0  0  0  0  0  0  0  0  0  0  0
   48.6750   35.0690   40.8150 C   0  0  0  0  0  0  0  0  0  0  0  0
   48.1160   34.4510   39.7050 C   0  0  0  0  0  0  0  0  0  0  0  0
   46.7940   33.9870   39.7740 C   0  0  0  0  0  0  0  0  0  0  0  0
   46.0690   34.1550   40.9510 C   0  0  0  0  0  0  0  0  0  0  0  0
   44.4490   36.1370   44.8010 C   0  0  0  0  0  0  0  0  0  0  0  0
   45.0850   36.0760   43.5440 C   0  0  0  0  0  0  0  0  0  0  0  0
   45.9140   34.9730   43.3110 C   0  0  0  0  0  0  0  0  0  0  0  0
   46.0620   34.0430   44.2720 N   0  0  0  0  0  0  0  0  0  0  0  0
   45.4320   34.1370   45.4700 C   0  0  0  0  0  0  0  0  0  0  0  0
   44.6340   35.1770   45.7250 N   0  0  0  0  0  0  0  0  0  0  0  0
   44.7030   33.6660   41.0030 C   0  0  0  0  0  0  0  0  0  0  0  0
   43.7060   34.3100   40.4310 C   0  0  0  0  0  0  0  0  0  0  0  0
   42.3970   33.9480   40.4170 C   0  0  0  0  0  0  0  0  0  0  0  0
   42.2060   32.7190   41.1330 C   0  0  0  0  0  0  0  0  0  0  0  0
   43.9040   32.2440   41.7290 S   0  0  0  0  0  0  0  0  0  0  0  0
   48.3882   35.7221   42.8658 H   0  0  0  0  0  0  0  0  0  0  0  0
   49.7111   35.4355   40.7692 H   0  0  0  0  0  0  0  0  0  0  0  0
   48.7024   34.3266   38.7827 H   0  0  0  0  0  0  0  0  0  0  0  0
   46.3335   33.4942   38.9050 H   0  0  0  0  0  0  0  0  0  0  0  0
   43.7886   36.9862   45.0305 H   0  0  0  0  0  0  0  0  0  0  0  0
   44.9368   36.8571   42.7838 H   0  0  0  0  0  0  0  0  0  0  0  0
   45.5786   33.3566   46.2312 H   0  0  0  0  0  0  0  0  0  0  0  0
   43.9618   35.2430   39.9075 H   0  0  0  0  0  0  0  0  0  0  0  0
   41.5947   34.5177   39.9252 H   0  0  0  0  0  0  0  0  0  0  0  0
   41.2627   32.1766   41.2942 H   0  0  0  0  0  0  0  0  0  0  0  0
  1  9  1  0
  2  1  2  0
  3  2  1  0
  4  5  1  0
  4  3  2  0
  5  6  2  0
  6 13  1  0
  6  1  1  0
  7 12  2  0
  8  7  1  0
  9  8  2  0
  9 10  1  0
 10 11  2  0
 11 12  1  0
 13 17  1  0
 14 13  2  0
 15 14  1  0
 15 16  2  0
 16 17  1  0
  2 18  1  0
  3 19  1  0
  4 20  1  0
  5 21  1  0
  7 22  1  0
  8 23  1  0
 11 24  1  0
 14 25  1  0
 15 26  1  0
 16 27  1  0
M  ISO  8  18  14  19  14  20  14  21  14  22  14  23  14  24  14  25  14
M  ISO  2  26  14  27  14
M  END
>  <minimizedAffinity>  (1) 
-5.61068678

>  <minimizedRMSD>  (1) 
0.876652837

$$$$
