
     RDKit          3D

 25 27  0  0  0  0  0  0  0  0999 V2000
   46.6290   34.7440   42.0820 C   0  0  0  0  0  0  0  0  0  0  0  0
   47.8950   35.2730   41.9760 C   0  0  0  0  0  0  0  0  0  0  0  0
   48.6380   35.1370   40.7950 C   0  0  0  0  0  0  0  0  0  0  0  0
   48.0910   34.4510   39.6980 C   0  0  0  0  0  0  0  0  0  0  0  0
   46.8190   33.9210   39.8080 C   0  0  0  0  0  0  0  0  0  0  0  0
   46.1070   34.0700   40.9860 C   0  0  0  0  0  0  0  0  0  0  0  0
   44.4560   36.0750   44.8410 C   0  0  0  0  0  0  0  0  0  0  0  0
   45.0840   36.0000   43.5980 C   0  0  0  0  0  0  0  0  0  0  0  0
   45.9220   34.9270   43.3390 C   0  0  0  0  0  0  0  0  0  0  0  0
   46.1000   33.9890   44.2960 N   0  0  0  0  0  0  0  0  0  0  0  0
   45.4780   34.0760   45.5070 C   0  0  0  0  0  0  0  0  0  0  0  0
   44.6670   35.1100   45.7680 N   0  0  0  0  0  0  0  0  0  0  0  0
   44.7580   33.5210   41.1350 C   0  0  0  0  0  0  0  0  0  0  0  0
   43.5660   34.1040   40.8210 N   0  0  0  0  0  0  0  0  0  0  0  0
   42.6020   33.2790   41.1070 O   0  0  0  0  0  0  0  0  0  0  0  0
   43.0610   32.1570   41.6020 C   0  0  0  0  0  0  0  0  0  0  0  0
   44.3980   32.3180   41.6150 N   0  0  0  0  0  0  0  0  0  0  0  0
   48.3306   35.8108   42.8310 H   0  0  0  0  0  0  0  0  0  0  0  0
   49.6482   35.5670   40.7274 H   0  0  0  0  0  0  0  0  0  0  0  0
   48.6654   34.3374   38.7668 H   0  0  0  0  0  0  0  0  0  0  0  0
   46.3727   33.3811   38.9599 H   0  0  0  0  0  0  0  0  0  0  0  0
   43.7884   36.9190   45.0690 H   0  0  0  0  0  0  0  0  0  0  0  0
   44.9174   36.7775   42.8379 H   0  0  0  0  0  0  0  0  0  0  0  0
   45.6420   33.2986   46.2678 H   0  0  0  0  0  0  0  0  0  0  0  0
   42.4845   31.2805   41.9327 H   0  0  0  0  0  0  0  0  0  0  0  0
  1  9  1  0
  2  1  2  0
  3  2  1  0
  4  5  1  0
  4  3  2  0
  5  6  2  0
  6 13  1  0
  6  1  1  0
  7 12  2  0
  8  7  1  0
  9  8  2  0
  9 10  1  0
 10 11  2  0
 11 12  1  0
 13 17  1  0
 14 15  1  0
 14 13  2  0
 15 16  1  0
 16 17  2  0
  2 18  1  0
  3 19  1  0
  4 20  1  0
  5 21  1  0
  7 22  1  0
  8 23  1  0
 11 24  1  0
 16 25  1  0
M  ISO  8  18  14  19  14  20  14  21  14  22  14  23  14  24  14  25  14
M  END
>  <minimizedAffinity>  (1) 
-5.44907141

>  <minimizedRMSD>  (1) 
0.256262183

$$$$
