
     RDKit          3D

 21 22  0  0  0  0  0  0  0  0999 V2000
   46.6740   34.7100   42.0350 C   0  0  0  0  0  0  0  0  0  0  0  0
   47.8920   35.3330   41.9060 C   0  0  0  0  0  0  0  0  0  0  0  0
   48.6390   35.2230   40.7300 C   0  0  0  0  0  0  0  0  0  0  0  0
   48.1440   34.4700   39.6710 C   0  0  0  0  0  0  0  0  0  0  0  0
   46.9040   33.8340   39.7990 C   0  0  0  0  0  0  0  0  0  0  0  0
   46.1900   33.9640   40.9770 C   0  0  0  0  0  0  0  0  0  0  0  0
   44.4670   35.9720   44.8120 C   0  0  0  0  0  0  0  0  0  0  0  0
   45.0900   35.9280   43.5560 C   0  0  0  0  0  0  0  0  0  0  0  0
   45.9610   34.8780   43.2970 C   0  0  0  0  0  0  0  0  0  0  0  0
   46.1670   33.9520   44.2570 N   0  0  0  0  0  0  0  0  0  0  0  0
   45.5470   34.0170   45.4720 C   0  0  0  0  0  0  0  0  0  0  0  0
   44.7060   35.0250   45.7340 N   0  0  0  0  0  0  0  0  0  0  0  0
   44.5950   33.2040   41.2710 S   0  0  0  0  0  0  0  0  0  0  0  0
   48.2858   35.9286   42.7428 H   0  0  0  0  0  0  0  0  0  0  0  0
   49.6120   35.7287   40.6427 H   0  0  0  0  0  0  0  0  0  0  0  0
   48.7224   34.3750   38.7402 H   0  0  0  0  0  0  0  0  0  0  0  0
   46.5000   33.2353   38.9693 H   0  0  0  0  0  0  0  0  0  0  0  0
   43.7733   36.7932   45.0450 H   0  0  0  0  0  0  0  0  0  0  0  0
   44.8945   36.7019   42.7991 H   0  0  0  0  0  0  0  0  0  0  0  0
   45.7377   33.2448   46.2318 H   0  0  0  0  0  0  0  0  0  0  0  0
   44.3797   33.1014   42.6201 H   0  0  0  0  0  0  0  0  0  0  0  0
  1  9  1  0
  2  1  2  0
  3  2  1  0
  4  5  1  0
  4  3  2  0
  5  6  2  0
  6 13  1  0
  6  1  1  0
  7 12  2  0
  8  7  1  0
  9  8  2  0
  9 10  1  0
 10 11  2  0
 11 12  1  0
  2 14  1  0
  3 15  1  0
  4 16  1  0
  5 17  1  0
  7 18  1  0
  8 19  1  0
 11 20  1  0
 13 21  1  0
M  ISO  8  14  14  15  14  16  14  17  14  18  14  19  14  20  14  21  11
M  END
>  <minimizedAffinity>  (1) 
-5.05635548

>  <minimizedRMSD>  (1) 
0.0319329239

$$$$
