
     RDKit          3D

 37 40  0  0  0  0  0  0  0  0999 V2000
   46.6300   34.7910   42.0480 C   0  0  0  0  0  0  0  0  0  0  0  0
   47.9100   35.2620   41.9460 C   0  0  0  0  0  0  0  0  0  0  0  0
   48.6860   35.1510   40.8040 C   0  0  0  0  0  0  0  0  0  0  0  0
   48.1220   34.5140   39.6800 C   0  0  0  0  0  0  0  0  0  0  0  0
   46.8180   34.0250   39.7580 C   0  0  0  0  0  0  0  0  0  0  0  0
   46.1210   34.1780   40.9300 C   0  0  0  0  0  0  0  0  0  0  0  0
   44.4830   36.1140   44.8110 C   0  0  0  0  0  0  0  0  0  0  0  0
   45.1160   36.0590   43.5700 C   0  0  0  0  0  0  0  0  0  0  0  0
   45.9230   34.9660   43.2900 C   0  0  0  0  0  0  0  0  0  0  0  0
   46.0500   34.0110   44.2360 N   0  0  0  0  0  0  0  0  0  0  0  0
   45.4260   34.0840   45.4350 C   0  0  0  0  0  0  0  0  0  0  0  0
   44.6460   35.1350   45.7130 N   0  0  0  0  0  0  0  0  0  0  0  0
   44.7510   33.6660   41.0170 C   0  0  0  0  0  0  0  0  0  0  0  0
   44.5260   32.4370   41.0940 O   0  0  0  0  0  0  0  0  0  0  0  0
   43.6160   34.4750   41.0220 O   0  0  0  0  0  0  0  0  0  0  0  0
   42.3720   33.9340   40.7220 C   0  0  0  0  0  0  0  0  0  0  0  0
   41.8570   32.9590   41.4890 N   0  0  0  0  0  0  0  0  0  0  0  0
   40.6500   32.4280   41.2030 C   0  0  0  0  0  0  0  0  0  0  0  0
   39.9310   32.8570   40.1460 N   0  0  0  0  0  0  0  0  0  0  0  0
   40.3940   33.8270   39.3450 C   0  0  0  0  0  0  0  0  0  0  0  0
   39.6800   34.2890   38.2520 C   0  0  0  0  0  0  0  0  0  0  0  0
   40.2660   35.2850   37.5130 C   0  0  0  0  0  0  0  0  0  0  0  0
   41.4950   35.8830   37.7370 C   0  0  0  0  0  0  0  0  0  0  0  0
   42.1540   35.3790   38.8370 C   0  0  0  0  0  0  0  0  0  0  0  0
   41.6260   34.3780   39.6250 C   0  0  0  0  0  0  0  0  0  0  0  0
   48.3496   35.7588   42.8235 H   0  0  0  0  0  0  0  0  0  0  0  0
   49.7115   35.5480   40.7750 H   0  0  0  0  0  0  0  0  0  0  0  0
   48.7032   34.4039   38.7526 H   0  0  0  0  0  0  0  0  0  0  0  0
   46.3559   33.5249   38.8941 H   0  0  0  0  0  0  0  0  0  0  0  0
   43.8404   36.9731   45.0539 H   0  0  0  0  0  0  0  0  0  0  0  0
   44.9789   36.8624   42.8312 H   0  0  0  0  0  0  0  0  0  0  0  0
   45.5595   33.2832   46.1772 H   0  0  0  0  0  0  0  0  0  0  0  0
   40.2452   31.6307   41.8437 H   0  0  0  0  0  0  0  0  0  0  0  0
   38.6937   33.8784   37.9900 H   0  0  0  0  0  0  0  0  0  0  0  0
   39.6962   35.6495   36.6456 H   0  0  0  0  0  0  0  0  0  0  0  0
   41.9043   36.6810   37.1000 H   0  0  0  0  0  0  0  0  0  0  0  0
   43.1401   35.7913   39.0969 H   0  0  0  0  0  0  0  0  0  0  0  0
  1  9  1  0
  2  1  2  0
  3  2  1  0
  4  5  1  0
  4  3  2  0
  5  6  2  0
  6 13  1  0
  6  1  1  0
  7 12  2  0
  8  7  1  0
  9  8  2  0
  9 10  1  0
 10 11  2  0
 11 12  1  0
 13 15  1  0
 13 14  2  0
 16 15  1  0
 16 17  2  0
 18 17  1  0
 19 18  2  0
 20 25  2  0
 20 19  1  0
 21 20  1  0
 22 23  1  0
 22 21  2  0
 23 24  2  0
 24 25  1  0
 25 16  1  0
  2 26  1  0
  3 27  1  0
  4 28  1  0
  5 29  1  0
  7 30  1  0
  8 31  1  0
 11 32  1  0
 18 33  1  0
 21 34  1  0
 22 35  1  0
 23 36  1  0
 24 37  1  0
M  ISO  8  26  14  27  14  28  14  29  14  30  14  31  14  32  14  33  14
M  ISO  4  34  14  35  14  36  14  37  14
M  END
>  <minimizedAffinity>  (1) 
-7.33093834

>  <minimizedRMSD>  (1) 
0.782638371

$$$$
