
     RDKit          3D

 33 35  0  0  0  0  0  0  0  0999 V2000
   46.5520   34.6940   42.1690 C   0  0  0  0  0  0  0  0  0  0  0  0
   47.9320   34.7940   42.1620 C   0  0  0  0  0  0  0  0  0  0  0  0
   48.7020   34.5730   41.0290 C   0  0  0  0  0  0  0  0  0  0  0  0
   48.0520   34.2310   39.8250 C   0  0  0  0  0  0  0  0  0  0  0  0
   46.6540   34.1240   39.8030 C   0  0  0  0  0  0  0  0  0  0  0  0
   45.9710   34.3630   40.9810 C   0  0  0  0  0  0  0  0  0  0  0  0
   44.4820   36.2230   44.8840 C   0  0  0  0  0  0  0  0  0  0  0  0
   45.1150   36.1040   43.6390 C   0  0  0  0  0  0  0  0  0  0  0  0
   45.8540   34.9450   43.4010 C   0  0  0  0  0  0  0  0  0  0  0  0
   45.9250   34.0040   44.3640 N   0  0  0  0  0  0  0  0  0  0  0  0
   45.2950   34.1560   45.5640 C   0  0  0  0  0  0  0  0  0  0  0  0
   44.5880   35.2430   45.8170 N   0  0  0  0  0  0  0  0  0  0  0  0
   44.5120   34.2520   40.9690 C   0  0  0  0  0  0  0  0  0  0  0  0
   43.9360   33.1550   41.1060 O   0  0  0  0  0  0  0  0  0  0  0  0
   43.6480   35.3420   40.8080 O   0  0  0  0  0  0  0  0  0  0  0  0
   42.4270   35.1540   40.1330 C   0  0  0  0  0  0  0  0  0  0  0  0
   42.2910   34.8160   38.8040 C   0  0  0  0  0  0  0  0  0  0  0  0
   41.0480   34.6560   38.2410 C   0  0  0  0  0  0  0  0  0  0  0  0
   39.9400   34.8490   39.0610 C   0  0  0  0  0  0  0  0  0  0  0  0
   40.0590   35.1880   40.3900 C   0  0  0  0  0  0  0  0  0  0  0  0
   41.3110   35.3480   40.9560 C   0  0  0  0  0  0  0  0  0  0  0  0
   48.4428   35.0613   43.0988 H   0  0  0  0  0  0  0  0  0  0  0  0
   49.7976   34.6628   41.0691 H   0  0  0  0  0  0  0  0  0  0  0  0
   48.6367   34.0497   38.9110 H   0  0  0  0  0  0  0  0  0  0  0  0
   46.1187   33.8588   38.8794 H   0  0  0  0  0  0  0  0  0  0  0  0
   43.8910   37.1233   45.1080 H   0  0  0  0  0  0  0  0  0  0  0  0
   45.0322   36.8945   42.8786 H   0  0  0  0  0  0  0  0  0  0  0  0
   45.3761   33.3677   46.3269 H   0  0  0  0  0  0  0  0  0  0  0  0
   43.1894   34.6724   38.1858 H   0  0  0  0  0  0  0  0  0  0  0  0
   40.9327   34.3853   37.1811 H   0  0  0  0  0  0  0  0  0  0  0  0
   38.9344   34.7264   38.6323 H   0  0  0  0  0  0  0  0  0  0  0  0
   39.1569   35.3319   41.0028 H   0  0  0  0  0  0  0  0  0  0  0  0
   41.4259   35.6183   42.0161 H   0  0  0  0  0  0  0  0  0  0  0  0
  1  9  1  0
  2  1  2  0
  3  2  1  0
  4  3  2  0
  5  4  1  0
  5  6  2  0
  6  1  1  0
  7 12  2  0
  8  7  1  0
  9  8  2  0
  9 10  1  0
 10 11  2  0
 11 12  1  0
 13  6  1  0
 13 14  2  0
 15 13  1  0
 16 15  1  0
 16 21  1  0
 17 16  2  0
 18 17  1  0
 18 19  2  0
 19 20  1  0
 20 21  2  0
  2 22  1  0
  3 23  1  0
  4 24  1  0
  5 25  1  0
  7 26  1  0
  8 27  1  0
 11 28  1  0
 17 29  1  0
 18 30  1  0
 19 31  1  0
 20 32  1  0
 21 33  1  0
M  ISO  8  22  14  23  14  24  14  25  14  26  14  27  14  28  14  29  14
M  ISO  4  30  14  31  14  32  14  33  14
M  END
>  <minimizedAffinity>  (1) 
-6.35873461

>  <minimizedRMSD>  (1) 
1.36780238

$$$$
