
     RDKit          3D

 38 40  0  0  0  0  0  0  0  0999 V2000
   46.6250   34.7340   42.1170 C   0  0  0  0  0  0  0  0  0  0  0  0
   47.9770   34.9880   42.1060 C   0  0  0  0  0  0  0  0  0  0  0  0
   48.7700   34.8040   40.9820 C   0  0  0  0  0  0  0  0  0  0  0  0
   48.1610   34.3380   39.8030 C   0  0  0  0  0  0  0  0  0  0  0  0
   46.7800   34.0750   39.7990 C   0  0  0  0  0  0  0  0  0  0  0  0
   46.0650   34.2800   40.9470 C   0  0  0  0  0  0  0  0  0  0  0  0
   44.4470   36.1950   44.8060 C   0  0  0  0  0  0  0  0  0  0  0  0
   45.1050   36.0800   43.5770 C   0  0  0  0  0  0  0  0  0  0  0  0
   45.8960   34.9620   43.3520 C   0  0  0  0  0  0  0  0  0  0  0  0
   45.9960   34.0390   44.3170 N   0  0  0  0  0  0  0  0  0  0  0  0
   45.3470   34.1730   45.5050 C   0  0  0  0  0  0  0  0  0  0  0  0
   44.5850   35.2380   45.7400 N   0  0  0  0  0  0  0  0  0  0  0  0
   44.6380   34.0130   40.9580 C   0  0  0  0  0  0  0  0  0  0  0  0
   44.1920   32.8880   41.3040 O   0  0  0  0  0  0  0  0  0  0  0  0
   43.6670   34.9360   40.6000 O   0  0  0  0  0  0  0  0  0  0  0  0
   39.5630   35.1930   39.9890 N   0  0  0  0  0  0  0  0  0  0  0  0
   40.3450   36.1620   40.7340 C   0  0  0  0  0  0  0  0  0  0  0  0
   41.4290   35.4150   41.5060 C   0  0  0  0  0  0  0  0  0  0  0  0
   42.3100   34.6790   40.6150 C   0  0  0  0  0  0  0  0  0  0  0  0
   41.8450   34.8790   39.1810 C   0  0  0  0  0  0  0  0  0  0  0  0
   40.4020   34.4940   39.0610 C   0  0  0  0  0  0  0  0  0  0  0  0
   48.4506   35.3532   43.0292 H   0  0  0  0  0  0  0  0  0  0  0  0
   49.8487   35.0174   41.0125 H   0  0  0  0  0  0  0  0  0  0  0  0
   48.7592   34.1809   38.8933 H   0  0  0  0  0  0  0  0  0  0  0  0
   46.2828   33.7105   38.8880 H   0  0  0  0  0  0  0  0  0  0  0  0
   43.8143   37.0717   45.0090 H   0  0  0  0  0  0  0  0  0  0  0  0
   44.9980   36.8578   42.8066 H   0  0  0  0  0  0  0  0  0  0  0  0
   45.4529   33.3959   46.2763 H   0  0  0  0  0  0  0  0  0  0  0  0
   39.1428   34.5181   40.6439 H   0  0  0  0  0  0  0  0  0  0  0  0
   40.8096   36.8774   40.0394 H   0  0  0  0  0  0  0  0  0  0  0  0
   39.6976   36.7147   41.4307 H   0  0  0  0  0  0  0  0  0  0  0  0
   42.0252   36.1416   42.0774 H   0  0  0  0  0  0  0  0  0  0  0  0
   40.9387   34.6945   42.1772 H   0  0  0  0  0  0  0  0  0  0  0  0
   42.2234   33.6656   41.0340 H   0  0  0  0  0  0  0  0  0  0  0  0
   41.9662   35.9359   38.9011 H   0  0  0  0  0  0  0  0  0  0  0  0
   42.4477   34.2485   38.5108 H   0  0  0  0  0  0  0  0  0  0  0  0
   40.0614   34.7200   38.0398 H   0  0  0  0  0  0  0  0  0  0  0  0
   40.3251   33.4204   39.2878 H   0  0  0  0  0  0  0  0  0  0  0  0
  1  9  1  0
  2  1  2  0
  3  2  1  0
  4  3  2  0
  5  4  1  0
  5  6  2  0
  6 13  1  0
  6  1  1  0
  7 12  2  0
  8  7  1  0
  9  8  2  0
  9 10  1  0
 10 11  2  0
 11 12  1  0
 13 14  2  0
 15 19  1  0
 15 13  1  0
 16 17  1  0
 17 18  1  0
 19 18  1  0
 20 19  1  0
 21 20  1  0
 21 16  1  0
  2 22  1  0
  3 23  1  0
  4 24  1  0
  5 25  1  0
  7 26  1  0
  8 27  1  0
 11 28  1  0
 16 29  1  0
 17 30  1  0
 17 31  1  0
 18 32  1  0
 18 33  1  0
 19 34  1  0
 20 35  1  0
 20 36  1  0
 21 37  1  0
 21 38  1  0
M  ISO  8  22  14  23  14  24  14  25  14  26  14  27  14  28  14  29   5
M  ISO  8  30  13  31  13  32  13  33  13  34  13  35  13  36  13  37  13
M  ISO  1  38  13
M  END
>  <minimizedAffinity>  (1) 
-6.29278994

>  <minimizedRMSD>  (1) 
1.15698469

$$$$
