
     RDKit          3D

 30 32  0  0  0  0  0  0  0  0999 V2000
   46.7520   34.8040   41.9810 C   0  0  0  0  0  0  0  0  0  0  0  0
   48.0100   35.3520   41.9200 C   0  0  0  0  0  0  0  0  0  0  0  0
   48.8140   35.2650   40.7950 C   0  0  0  0  0  0  0  0  0  0  0  0
   48.3160   34.5850   39.6700 C   0  0  0  0  0  0  0  0  0  0  0  0
   47.0380   34.0210   39.7150 C   0  0  0  0  0  0  0  0  0  0  0  0
   46.3000   34.1480   40.8620 C   0  0  0  0  0  0  0  0  0  0  0  0
   44.4280   36.0520   44.6530 C   0  0  0  0  0  0  0  0  0  0  0  0
   45.0960   36.0070   43.4290 C   0  0  0  0  0  0  0  0  0  0  0  0
   46.0000   34.9580   43.2120 C   0  0  0  0  0  0  0  0  0  0  0  0
   46.1910   34.0420   44.1840 N   0  0  0  0  0  0  0  0  0  0  0  0
   45.5190   34.1180   45.3720 C   0  0  0  0  0  0  0  0  0  0  0  0
   44.6560   35.1060   45.5970 N   0  0  0  0  0  0  0  0  0  0  0  0
   44.9720   33.5710   40.9310 C   0  0  0  0  0  0  0  0  0  0  0  0
   44.6660   32.7210   41.7960 O   0  0  0  0  0  0  0  0  0  0  0  0
   43.9260   33.8980   40.0580 O   0  0  0  0  0  0  0  0  0  0  0  0
   42.7400   34.2760   40.6430 C   0  0  0  0  0  0  0  0  0  0  0  0
   42.3380   35.3920   41.2540 C   0  0  0  0  0  0  0  0  0  0  0  0
   41.0630   35.4940   41.7560 C   0  0  0  0  0  0  0  0  0  0  0  0
   40.2390   34.3830   41.5890 C   0  0  0  0  0  0  0  0  0  0  0  0
   41.3310   33.1950   40.7000 S   0  0  0  0  0  0  0  0  0  0  0  0
   48.3959   35.8830   42.8027 H   0  0  0  0  0  0  0  0  0  0  0  0
   49.8169   35.7167   40.7825 H   0  0  0  0  0  0  0  0  0  0  0  0
   48.9281   34.4974   38.7602 H   0  0  0  0  0  0  0  0  0  0  0  0
   46.6320   33.4846   38.8447 H   0  0  0  0  0  0  0  0  0  0  0  0
   43.7107   36.8614   44.8537 H   0  0  0  0  0  0  0  0  0  0  0  0
   44.9187   36.7712   42.6580 H   0  0  0  0  0  0  0  0  0  0  0  0
   45.6927   33.3573   46.1474 H   0  0  0  0  0  0  0  0  0  0  0  0
   43.0335   36.2380   41.3568 H   0  0  0  0  0  0  0  0  0  0  0  0
   40.7114   36.4047   42.2630 H   0  0  0  0  0  0  0  0  0  0  0  0
   39.1951   34.2485   41.9087 H   0  0  0  0  0  0  0  0  0  0  0  0
  1  9  1  0
  2  1  2  0
  3  2  1  0
  4  5  1  0
  4  3  2  0
  5  6  2  0
  6 13  1  0
  6  1  1  0
  7 12  2  0
  8  7  1  0
  9  8  2  0
  9 10  1  0
 10 11  2  0
 11 12  1  0
 13 14  2  0
 15 16  1  0
 15 13  1  0
 16 20  1  0
 16 17  2  0
 17 18  1  0
 19 18  2  0
 20 19  1  0
  2 21  1  0
  3 22  1  0
  4 23  1  0
  5 24  1  0
  7 25  1  0
  8 26  1  0
 11 27  1  0
 17 28  1  0
 18 29  1  0
 19 30  1  0
M  ISO  8  21  14  22  14  23  14  24  14  25  14  26  14  27  14  28  14
M  ISO  2  29  14  30  14
M  END
>  <minimizedAffinity>  (1) 
-5.98508978

>  <minimizedRMSD>  (1) 
1.05664909

$$$$
