
     RDKit          3D

 28 30  0  0  0  0  0  0  0  0999 V2000
   46.7160   34.8040   41.9960 C   0  0  0  0  0  0  0  0  0  0  0  0
   47.9890   35.3210   41.9370 C   0  0  0  0  0  0  0  0  0  0  0  0
   48.7930   35.2140   40.8040 C   0  0  0  0  0  0  0  0  0  0  0  0
   48.2790   34.5500   39.6790 C   0  0  0  0  0  0  0  0  0  0  0  0
   46.9880   34.0200   39.7240 C   0  0  0  0  0  0  0  0  0  0  0  0
   46.2500   34.1670   40.8880 C   0  0  0  0  0  0  0  0  0  0  0  0
   44.4400   36.0800   44.6910 C   0  0  0  0  0  0  0  0  0  0  0  0
   45.0990   36.0340   43.4520 C   0  0  0  0  0  0  0  0  0  0  0  0
   45.9700   34.9760   43.2280 C   0  0  0  0  0  0  0  0  0  0  0  0
   46.1460   34.0470   44.1940 N   0  0  0  0  0  0  0  0  0  0  0  0
   45.4900   34.1220   45.3850 C   0  0  0  0  0  0  0  0  0  0  0  0
   44.6440   35.1340   45.6250 N   0  0  0  0  0  0  0  0  0  0  0  0
   44.8980   33.6170   40.9460 C   0  0  0  0  0  0  0  0  0  0  0  0
   44.6400   32.6350   41.6840 O   0  0  0  0  0  0  0  0  0  0  0  0
   43.8250   34.1030   40.2220 O   0  0  0  0  0  0  0  0  0  0  0  0
   42.6020   34.4220   40.7980 C   0  0  0  0  0  0  0  0  0  0  0  0
   42.2200   35.5530   41.4590 N   0  0  0  0  0  0  0  0  0  0  0  0
   40.9840   35.4610   41.8460 O   0  0  0  0  0  0  0  0  0  0  0  0
   40.5010   34.2930   41.4700 C   0  0  0  0  0  0  0  0  0  0  0  0
   41.4940   33.6530   40.8250 N   0  0  0  0  0  0  0  0  0  0  0  0
   48.3889   35.8403   42.8204 H   0  0  0  0  0  0  0  0  0  0  0  0
   49.8071   35.6400   40.7914 H   0  0  0  0  0  0  0  0  0  0  0  0
   48.8886   34.4480   38.7691 H   0  0  0  0  0  0  0  0  0  0  0  0
   46.5654   33.4966   38.8537 H   0  0  0  0  0  0  0  0  0  0  0  0
   43.7438   36.9052   44.9017 H   0  0  0  0  0  0  0  0  0  0  0  0
   44.9316   36.8070   42.6875 H   0  0  0  0  0  0  0  0  0  0  0  0
   45.6546   33.3506   46.1518 H   0  0  0  0  0  0  0  0  0  0  0  0
   39.4836   33.9149   41.6488 H   0  0  0  0  0  0  0  0  0  0  0  0
  1  9  1  0
  2  1  2  0
  3  2  1  0
  4  5  1  0
  4  3  2  0
  5  6  2  0
  6 13  1  0
  6  1  1  0
  7 12  2  0
  8  7  1  0
  9  8  2  0
  9 10  1  0
 10 11  2  0
 11 12  1  0
 13 14  2  0
 15 16  1  0
 15 13  1  0
 16 20  1  0
 16 17  2  0
 17 18  1  0
 19 18  1  0
 20 19  2  0
  2 21  1  0
  3 22  1  0
  4 23  1  0
  5 24  1  0
  7 25  1  0
  8 26  1  0
 11 27  1  0
 19 28  1  0
M  ISO  8  21  14  22  14  23  14  24  14  25  14  26  14  27  14  28  14
M  END
>  <minimizedAffinity>  (1) 
-5.89004612

>  <minimizedRMSD>  (1) 
0.892280698

$$$$
