
     RDKit          3D

 29 31  0  0  0  0  0  0  0  0999 V2000
   46.7440   34.8080   41.9620 C   0  0  0  0  0  0  0  0  0  0  0  0
   48.0160   35.3300   41.9140 C   0  0  0  0  0  0  0  0  0  0  0  0
   48.8210   35.2200   40.7820 C   0  0  0  0  0  0  0  0  0  0  0  0
   48.3120   34.5500   39.6530 C   0  0  0  0  0  0  0  0  0  0  0  0
   47.0290   34.0230   39.7000 C   0  0  0  0  0  0  0  0  0  0  0  0
   46.2780   34.1610   40.8430 C   0  0  0  0  0  0  0  0  0  0  0  0
   44.4360   36.0930   44.6300 C   0  0  0  0  0  0  0  0  0  0  0  0
   45.1050   36.0400   43.4020 C   0  0  0  0  0  0  0  0  0  0  0  0
   45.9920   34.9780   43.1870 C   0  0  0  0  0  0  0  0  0  0  0  0
   46.1570   34.0640   44.1660 N   0  0  0  0  0  0  0  0  0  0  0  0
   45.4880   34.1480   45.3490 C   0  0  0  0  0  0  0  0  0  0  0  0
   44.6370   35.1570   45.5700 N   0  0  0  0  0  0  0  0  0  0  0  0
   44.9370   33.6130   40.8990 C   0  0  0  0  0  0  0  0  0  0  0  0
   44.6510   32.6780   41.6770 O   0  0  0  0  0  0  0  0  0  0  0  0
   43.8760   34.0690   40.1110 O   0  0  0  0  0  0  0  0  0  0  0  0
   42.5840   34.1750   40.6240 C   0  0  0  0  0  0  0  0  0  0  0  0
   41.5390   33.1260   40.5240 C   0  0  0  0  0  0  0  0  0  0  0  0
   40.1930   34.0030   41.4070 S   0  0  0  0  0  0  0  0  0  0  0  0
   41.2380   35.5660   41.7400 C   0  0  0  0  0  0  0  0  0  0  0  0
   42.4200   35.3650   41.2220 N   0  0  0  0  0  0  0  0  0  0  0  0
   48.4106   35.8515   42.7985 H   0  0  0  0  0  0  0  0  0  0  0  0
   49.8342   35.6481   40.7706 H   0  0  0  0  0  0  0  0  0  0  0  0
   48.9238   34.4456   38.7448 H   0  0  0  0  0  0  0  0  0  0  0  0
   46.6151   33.4974   38.8268 H   0  0  0  0  0  0  0  0  0  0  0  0
   43.7335   36.9160   44.8279 H   0  0  0  0  0  0  0  0  0  0  0  0
   44.9396   36.8071   42.6312 H   0  0  0  0  0  0  0  0  0  0  0  0
   45.6474   33.3847   46.1249 H   0  0  0  0  0  0  0  0  0  0  0  0
   41.5643   32.1282   40.0618 H   0  0  0  0  0  0  0  0  0  0  0  0
   40.9054   36.4702   42.2709 H   0  0  0  0  0  0  0  0  0  0  0  0
  1  9  1  0
  2  1  2  0
  3  2  1  0
  4  5  1  0
  4  3  2  0
  5  6  2  0
  6 13  1  0
  6  1  1  0
  7 12  2  0
  8  7  1  0
  9  8  2  0
  9 10  1  0
 10 11  2  0
 11 12  1  0
 13 14  2  0
 15 16  1  0
 15 13  1  0
 16 20  1  0
 17 16  2  0
 17 18  1  0
 18 19  1  0
 20 19  2  0
  2 21  1  0
  3 22  1  0
  4 23  1  0
  5 24  1  0
  7 25  1  0
  8 26  1  0
 11 27  1  0
 17 28  1  0
 19 29  1  0
M  ISO  8  21  14  22  14  23  14  24  14  25  14  26  14  27  14  28  14
M  ISO  1  29  14
M  END
>  <minimizedAffinity>  (1) 
-5.83104038

>  <minimizedRMSD>  (1) 
0.709693313

$$$$
