
     RDKit          3D

 35 37  0  0  1  0  0  0  0  0999 V2000
   46.6870   34.8120   42.0410 C   0  0  0  0  0  0  0  0  0  0  0  0
   47.9750   35.3020   41.9740 C   0  0  0  0  0  0  0  0  0  0  0  0
   48.7660   35.1890   40.8320 C   0  0  0  0  0  0  0  0  0  0  0  0
   48.2300   34.5510   39.7090 C   0  0  0  0  0  0  0  0  0  0  0  0
   46.9220   34.0450   39.7570 C   0  0  0  0  0  0  0  0  0  0  0  0
   46.2030   34.1970   40.9250 C   0  0  0  0  0  0  0  0  0  0  0  0
   44.4700   36.1250   44.7660 C   0  0  0  0  0  0  0  0  0  0  0  0
   45.1270   36.0730   43.5300 C   0  0  0  0  0  0  0  0  0  0  0  0
   45.9540   34.9830   43.2760 C   0  0  0  0  0  0  0  0  0  0  0  0
   46.0910   34.0200   44.2230 N   0  0  0  0  0  0  0  0  0  0  0  0
   45.4280   34.1170   45.4130 C   0  0  0  0  0  0  0  0  0  0  0  0
   44.6310   35.1540   45.6760 N   0  0  0  0  0  0  0  0  0  0  0  0
   44.8350   33.6720   40.9860 C   0  0  0  0  0  0  0  0  0  0  0  0
   44.6180   32.5120   41.4060 O   0  0  0  0  0  0  0  0  0  0  0  0
   43.7140   34.3810   40.6030 O   0  0  0  0  0  0  0  0  0  0  0  0
   42.1290   35.7960   41.6480 N   0  0  0  0  0  0  0  0  0  0  0  0
   40.7930   35.9320   41.0660 C   0  0  0  0  0  0  0  0  0  0  0  0
   40.2340   34.5350   41.3650 C   0  0  0  0  0  0  0  0  0  0  0  0
   41.3860   33.7000   40.7880 C   0  0  0  0  0  0  0  0  0  0  0  0
   42.5580   34.4390   41.3900 C   0  0  1  0  0  0  0  0  0  0  0  0
   48.3951   35.8027   42.8587 H   0  0  0  0  0  0  0  0  0  0  0  0
   49.7891   35.5927   40.8145 H   0  0  0  0  0  0  0  0  0  0  0  0
   48.8303   34.4464   38.7932 H   0  0  0  0  0  0  0  0  0  0  0  0
   46.4808   33.5397   38.8852 H   0  0  0  0  0  0  0  0  0  0  0  0
   43.8114   36.9762   44.9935 H   0  0  0  0  0  0  0  0  0  0  0  0
   44.9933   36.8694   42.7830 H   0  0  0  0  0  0  0  0  0  0  0  0
   45.5533   33.3265   46.1676 H   0  0  0  0  0  0  0  0  0  0  0  0
   42.7779   36.4634   41.2072 H   0  0  0  0  0  0  0  0  0  0  0  0
   40.8361   36.1326   39.9853 H   0  0  0  0  0  0  0  0  0  0  0  0
   40.1958   36.7665   41.4622 H   0  0  0  0  0  0  0  0  0  0  0  0
   40.0986   34.3649   42.4433 H   0  0  0  0  0  0  0  0  0  0  0  0
   39.2366   34.3216   40.9531 H   0  0  0  0  0  0  0  0  0  0  0  0
   41.3435   32.6540   41.1258 H   0  0  0  0  0  0  0  0  0  0  0  0
   41.3993   33.6167   39.6912 H   0  0  0  0  0  0  0  0  0  0  0  0
   42.8540   33.9496   42.3296 H   0  0  0  0  0  0  0  0  0  0  0  0
  1  9  1  0
  2  1  2  0
  3  2  1  0
  4  5  1  0
  4  3  2  0
  5  6  2  0
  6 13  1  0
  6  1  1  0
  7 12  2  0
  8  7  1  0
  9  8  2  0
  9 10  1  0
 10 11  2  0
 11 12  1  0
 13 14  2  0
 15 13  1  0
 17 18  1  0
 17 16  1  0
 19 18  1  0
 19 20  1  0
 20 15  1  0
 20 16  1  0
  2 21  1  0
  3 22  1  0
  4 23  1  0
  5 24  1  0
  7 25  1  0
  8 26  1  0
 11 27  1  0
 16 28  1  0
 17 29  1  0
 17 30  1  0
 18 31  1  0
 18 32  1  0
 19 33  1  0
 19 34  1  0
 20 35  1  1
M  ISO  8  21  14  22  14  23  14  24  14  25  14  26  14  27  14  28   5
M  ISO  7  29  13  30  13  31  13  32  13  33  13  34  13  35  13
M  END
>  <minimizedAffinity>  (1) 
-6.16015959

>  <minimizedRMSD>  (1) 
1.33944809

$$$$
