
     RDKit          3D

 51 54  0  0  1  0  0  0  0  0999 V2000
   44.8970   33.6210   40.8730 C   0  0  0  0  0  0  0  0  0  0  0  0
   44.6200   32.7260   41.7340 O   0  0  0  0  0  0  0  0  0  0  0  0
   46.7020   34.7650   41.9090 C   0  0  0  0  0  0  0  0  0  0  0  0
   47.9850   35.2600   41.8350 C   0  0  0  0  0  0  0  0  0  0  0  0
   48.7700   35.1410   40.6890 C   0  0  0  0  0  0  0  0  0  0  0  0
   48.2360   34.4960   39.5750 C   0  0  0  0  0  0  0  0  0  0  0  0
   46.9300   33.9840   39.6310 C   0  0  0  0  0  0  0  0  0  0  0  0
   46.2380   34.1520   40.8030 C   0  0  0  0  0  0  0  0  0  0  0  0
   44.4270   36.1390   44.5470 C   0  0  0  0  0  0  0  0  0  0  0  0
   45.1020   36.0470   43.3110 C   0  0  0  0  0  0  0  0  0  0  0  0
   45.9630   34.9480   43.1490 C   0  0  0  0  0  0  0  0  0  0  0  0
   46.1280   34.0310   44.1360 N   0  0  0  0  0  0  0  0  0  0  0  0
   45.4330   34.1890   45.3100 C   0  0  0  0  0  0  0  0  0  0  0  0
   44.6050   35.2260   45.4930 N   0  0  0  0  0  0  0  0  0  0  0  0
   43.7700   33.7570   40.3030 O   0  0  0  0  0  0  0  0  0  0  0  0
   42.1740   34.3950   42.0160 N   0  0  0  0  0  0  0  0  0  0  0  0
   41.6240   35.7340   42.0620 C   0  0  0  0  0  0  0  0  0  0  0  0
   41.0080   35.7990   40.6980 C   0  0  0  0  0  0  0  0  0  0  0  0
   42.1470   35.2920   39.9000 C   0  0  0  0  0  0  0  0  0  0  0  0
   42.4590   34.0110   40.6990 C   0  0  1  0  0  0  0  0  0  0  0  0
   41.4150   33.1410   39.9770 C   0  0  0  0  0  0  0  0  0  0  0  0
   40.8990   33.5800   38.6840 C   0  0  0  0  0  0  0  0  0  0  0  0
   40.2770   32.3210   38.0390 C   0  0  0  0  0  0  0  0  0  0  0  0
   39.0440   31.9810   38.7800 C   0  0  0  0  0  0  0  0  0  0  0  0
   38.9360   32.6750   40.0790 C   0  0  0  0  0  0  0  0  0  0  0  0
   40.2820   32.6560   40.8220 C   0  0  0  0  0  0  0  0  0  0  0  0
   48.4068   35.7690   42.7142 H   0  0  0  0  0  0  0  0  0  0  0  0
   49.7915   35.5485   40.6646 H   0  0  0  0  0  0  0  0  0  0  0  0
   48.8338   34.3888   38.6579 H   0  0  0  0  0  0  0  0  0  0  0  0
   46.4799   33.4689   38.7696 H   0  0  0  0  0  0  0  0  0  0  0  0
   43.7427   36.9808   44.7288 H   0  0  0  0  0  0  0  0  0  0  0  0
   44.9618   36.7953   42.5170 H   0  0  0  0  0  0  0  0  0  0  0  0
   45.5586   33.4501   46.1151 H   0  0  0  0  0  0  0  0  0  0  0  0
   43.0424   34.3690   42.5693 H   0  0  0  0  0  0  0  0  0  0  0  0
   40.8713   35.8408   42.8571 H   0  0  0  0  0  0  0  0  0  0  0  0
   42.3502   36.5296   42.2847 H   0  0  0  0  0  0  0  0  0  0  0  0
   40.1246   35.1489   40.6138 H   0  0  0  0  0  0  0  0  0  0  0  0
   40.6262   36.7866   40.3999 H   0  0  0  0  0  0  0  0  0  0  0  0
   41.8558   35.0693   38.8629 H   0  0  0  0  0  0  0  0  0  0  0  0
   42.9885   35.9909   39.7841 H   0  0  0  0  0  0  0  0  0  0  0  0
   42.0869   32.3012   39.7461 H   0  0  0  0  0  0  0  0  0  0  0  0
   40.1352   34.3599   38.8195 H   0  0  0  0  0  0  0  0  0  0  0  0
   41.6903   34.0127   38.0543 H   0  0  0  0  0  0  0  0  0  0  0  0
   40.0338   32.5242   36.9856 H   0  0  0  0  0  0  0  0  0  0  0  0
   40.9880   31.4828   38.0814 H   0  0  0  0  0  0  0  0  0  0  0  0
   38.1771   32.2584   38.1623 H   0  0  0  0  0  0  0  0  0  0  0  0
   39.0747   30.9012   38.9878 H   0  0  0  0  0  0  0  0  0  0  0  0
   38.6342   33.7186   39.9063 H   0  0  0  0  0  0  0  0  0  0  0  0
   38.1863   32.1563   40.6945 H   0  0  0  0  0  0  0  0  0  0  0  0
   40.4951   31.6240   41.1374 H   0  0  0  0  0  0  0  0  0  0  0  0
   40.1955   33.3353   41.6828 H   0  0  0  0  0  0  0  0  0  0  0  0
  1  2  2  0
  3 11  1  0
  4  3  2  0
  5  4  1  0
  6  7  1  0
  6  5  2  0
  7  8  2  0
  8  1  1  0
  8  3  1  0
  9 14  2  0
 10  9  1  0
 11 10  2  0
 11 12  1  0
 12 13  2  0
 13 14  1  0
 15  1  1  0
 16 17  1  0
 18 17  1  0
 19 18  1  0
 19 20  1  0
 20 15  1  1
 20 16  1  0
 21 20  1  0
 21 26  1  0
 22 21  1  0
 23 22  1  0
 23 24  1  0
 24 25  1  0
 25 26  1  0
  4 27  1  0
  5 28  1  0
  6 29  1  0
  7 30  1  0
  9 31  1  0
 10 32  1  0
 13 33  1  0
 16 34  1  0
 17 35  1  0
 17 36  1  0
 18 37  1  0
 18 38  1  0
 19 39  1  0
 19 40  1  0
 21 41  1  0
 22 42  1  0
 22 43  1  0
 23 44  1  0
 23 45  1  0
 24 46  1  0
 24 47  1  0
 25 48  1  0
 25 49  1  0
 26 50  1  0
 26 51  1  0
M  ISO  8  27  14  28  14  29  14  30  14  31  14  32  14  33  14  34   5
M  ISO  8  35  13  36  13  37  13  38  13  39  13  40  13  41  13  42  13
M  ISO  8  43  13  44  13  45  13  46  13  47  13  48  13  49  13  50  13
M  ISO  1  51  13
M  END
>  <minimizedAffinity>  (1) 
-6.77481604

>  <minimizedRMSD>  (1) 
2.35268807

$$$$
