
     RDKit          3D

 38 40  0  0  1  0  0  0  0  0999 V2000
   46.5620   34.6920   42.0530 C   0  0  0  0  0  0  0  0  0  0  0  0
   47.8120   35.2480   41.8810 C   0  0  0  0  0  0  0  0  0  0  0  0
   48.5440   35.1170   40.7060 C   0  0  0  0  0  0  0  0  0  0  0  0
   47.9840   34.3870   39.6510 C   0  0  0  0  0  0  0  0  0  0  0  0
   46.7140   33.8120   39.8040 C   0  0  0  0  0  0  0  0  0  0  0  0
   46.0740   33.9990   41.0020 C   0  0  0  0  0  0  0  0  0  0  0  0
   44.4610   36.0860   44.8190 C   0  0  0  0  0  0  0  0  0  0  0  0
   45.0790   35.9990   43.5650 C   0  0  0  0  0  0  0  0  0  0  0  0
   45.8940   34.9030   43.3130 C   0  0  0  0  0  0  0  0  0  0  0  0
   46.0620   33.9650   44.2840 N   0  0  0  0  0  0  0  0  0  0  0  0
   45.4390   34.0910   45.4970 C   0  0  0  0  0  0  0  0  0  0  0  0
   44.6480   35.1520   45.7380 N   0  0  0  0  0  0  0  0  0  0  0  0
   44.7650   33.4110   41.1690 C   0  0  0  0  0  0  0  0  0  0  0  0
   44.6280   32.1440   41.2530 O   0  0  0  0  0  0  0  0  0  0  0  0
   43.5510   33.7730   41.2750 O   0  0  0  0  0  0  0  0  0  0  0  0
   43.0770   35.3480   39.5040 N   0  0  0  0  0  0  0  0  0  0  0  0
   42.3100   34.9740   38.3320 C   0  0  0  0  0  0  0  0  0  0  0  0
   41.0430   34.4700   38.9750 C   0  0  0  0  0  0  0  0  0  0  0  0
   41.6880   33.5610   39.9940 C   0  0  0  0  0  0  0  0  0  0  0  0
   42.6670   34.6060   40.6060 C   0  0  1  0  0  0  0  0  0  0  0  0
   41.6130   35.2740   41.4340 C   0  0  0  0  0  0  0  0  0  0  0  0
   41.0550   36.3830   40.8880 F   0  0  0  0  0  0  0  0  0  0  0  0
   40.4920   34.4360   41.7020 F   0  0  0  0  0  0  0  0  0  0  0  0
   41.8890   35.5720   42.6960 F   0  0  0  0  0  0  0  0  0  0  0  0
   48.2502   35.8214   42.7112 H   0  0  0  0  0  0  0  0  0  0  0  0
   49.5389   35.5759   40.6079 H   0  0  0  0  0  0  0  0  0  0  0  0
   48.5367   34.2651   38.7078 H   0  0  0  0  0  0  0  0  0  0  0  0
   46.2487   33.2325   38.9930 H   0  0  0  0  0  0  0  0  0  0  0  0
   43.8101   36.9439   45.0435 H   0  0  0  0  0  0  0  0  0  0  0  0
   44.9234   36.7760   42.8021 H   0  0  0  0  0  0  0  0  0  0  0  0
   45.5852   33.3255   46.2733 H   0  0  0  0  0  0  0  0  0  0  0  0
   42.9355   36.3498   39.6972 H   0  0  0  0  0  0  0  0  0  0  0  0
   42.8126   34.1847   37.7538 H   0  0  0  0  0  0  0  0  0  0  0  0
   42.1610   35.7867   37.6059 H   0  0  0  0  0  0  0  0  0  0  0  0
   40.4609   35.2775   39.4431 H   0  0  0  0  0  0  0  0  0  0  0  0
   40.3067   34.0048   38.3031 H   0  0  0  0  0  0  0  0  0  0  0  0
   40.9665   33.1804   40.7320 H   0  0  0  0  0  0  0  0  0  0  0  0
   42.1410   32.6367   39.6060 H   0  0  0  0  0  0  0  0  0  0  0  0
  1  9  1  0
  2  1  2  0
  3  2  1  0
  4  5  1  0
  4  3  2  0
  5  6  2  0
  6 13  1  0
  6  1  1  0
  7 12  2  0
  8  7  1  0
  9  8  2  0
  9 10  1  0
 10 11  2  0
 11 12  1  0
 13 14  2  0
 13 15  1  0
 16 20  1  0
 17 18  1  0
 17 16  1  0
 18 19  1  0
 19 20  1  0
 20 15  1  1
 20 21  1  0
 21 23  1  0
 21 24  1  0
 22 21  1  0
  2 25  1  0
  3 26  1  0
  4 27  1  0
  5 28  1  0
  7 29  1  0
  8 30  1  0
 11 31  1  0
 16 32  1  0
 17 33  1  0
 17 34  1  0
 18 35  1  0
 18 36  1  0
 19 37  1  0
 19 38  1  0
M  ISO  8  25  14  26  14  27  14  28  14  29  14  30  14  31  14  32   5
M  ISO  6  33  13  34  13  35  13  36  13  37  13  38  13
M  END
>  <minimizedAffinity>  (1) 
-6.58358669

>  <minimizedRMSD>  (1) 
1.53737032

$$$$
