
     RDKit          3D

 38 40  0  0  1  0  0  0  0  0999 V2000
   46.7340   34.8110   42.0050 C   0  0  0  0  0  0  0  0  0  0  0  0
   47.9830   35.3870   41.9150 C   0  0  0  0  0  0  0  0  0  0  0  0
   48.7760   35.2840   40.7700 C   0  0  0  0  0  0  0  0  0  0  0  0
   48.2870   34.5730   39.6760 C   0  0  0  0  0  0  0  0  0  0  0  0
   47.0190   33.9800   39.7490 C   0  0  0  0  0  0  0  0  0  0  0  0
   46.3120   34.1360   40.9180 C   0  0  0  0  0  0  0  0  0  0  0  0
   44.4750   36.0890   44.6990 C   0  0  0  0  0  0  0  0  0  0  0  0
   45.1390   36.0570   43.4500 C   0  0  0  0  0  0  0  0  0  0  0  0
   45.9890   34.9700   43.2440 C   0  0  0  0  0  0  0  0  0  0  0  0
   46.1500   34.0110   44.2060 N   0  0  0  0  0  0  0  0  0  0  0  0
   45.4690   34.1180   45.3880 C   0  0  0  0  0  0  0  0  0  0  0  0
   44.6400   35.1490   45.6270 N   0  0  0  0  0  0  0  0  0  0  0  0
   44.9970   33.5410   40.9860 C   0  0  0  0  0  0  0  0  0  0  0  0
   44.8290   32.4240   41.5960 O   0  0  0  0  0  0  0  0  0  0  0  0
   43.8100   33.7830   40.5940 O   0  0  0  0  0  0  0  0  0  0  0  0
   42.1830   34.8090   42.1120 N   0  0  0  0  0  0  0  0  0  0  0  0
   41.0600   35.5660   41.5560 C   0  0  0  0  0  0  0  0  0  0  0  0
   40.3530   34.4360   40.7710 C   0  0  0  0  0  0  0  0  0  0  0  0
   41.5870   34.0010   39.9880 C   0  0  0  0  0  0  0  0  0  0  0  0
   42.5630   33.8410   41.1910 C   0  0  1  0  0  0  0  0  0  0  0  0
   42.0550   32.4130   41.5270 C   0  0  0  0  0  0  0  0  0  0  0  0
   41.7160   31.6170   40.5810 O   0  0  0  0  0  0  0  0  0  0  0  0
   41.8130   31.6030   42.6190 O   0  0  0  0  0  0  0  0  0  0  0  0
   48.3699   35.9491   42.7778 H   0  0  0  0  0  0  0  0  0  0  0  0
   49.7690   35.7558   40.7325 H   0  0  0  0  0  0  0  0  0  0  0  0
   48.8915   34.4778   38.7619 H   0  0  0  0  0  0  0  0  0  0  0  0
   46.6052   33.4114   38.9032 H   0  0  0  0  0  0  0  0  0  0  0  0
   43.7937   36.9259   44.9122 H   0  0  0  0  0  0  0  0  0  0  0  0
   44.9943   36.8390   42.6901 H   0  0  0  0  0  0  0  0  0  0  0  0
   45.6026   33.3444   46.1586 H   0  0  0  0  0  0  0  0  0  0  0  0
   42.9733   35.4439   42.2944 H   0  0  0  0  0  0  0  0  0  0  0  0
   40.4160   35.9829   42.3443 H   0  0  0  0  0  0  0  0  0  0  0  0
   41.3393   36.4466   40.9589 H   0  0  0  0  0  0  0  0  0  0  0  0
   39.9618   33.6429   41.4251 H   0  0  0  0  0  0  0  0  0  0  0  0
   39.4577   34.7072   40.1923 H   0  0  0  0  0  0  0  0  0  0  0  0
   41.4277   33.0537   39.4521 H   0  0  0  0  0  0  0  0  0  0  0  0
   41.9150   34.6808   39.1878 H   0  0  0  0  0  0  0  0  0  0  0  0
   41.4684   30.6843   42.4872 H   0  0  0  0  0  0  0  0  0  0  0  0
  1  9  1  0
  2  1  2  0
  3  2  1  0
  4  5  1  0
  4  3  2  0
  5  6  2  0
  6 13  1  0
  6  1  1  0
  7 12  2  0
  8  7  1  0
  9  8  2  0
  9 10  1  0
 10 11  2  0
 11 12  1  0
 13 14  2  0
 15 13  1  0
 17 16  1  0
 18 17  1  0
 19 18  1  0
 19 20  1  0
 20 15  1  6
 20 21  1  0
 20 16  1  0
 21 23  1  0
 22 21  2  0
  2 24  1  0
  3 25  1  0
  4 26  1  0
  5 27  1  0
  7 28  1  0
  8 29  1  0
 11 30  1  0
 16 31  1  0
 17 32  1  0
 17 33  1  0
 18 34  1  0
 18 35  1  0
 19 36  1  0
 19 37  1  0
 23 38  1  0
M  ISO  8  24  14  25  14  26  14  27  14  28  14  29  14  30  14  31   5
M  ISO  7  32  13  33  13  34  13  35  13  36  13  37  13  38   3
M  END
>  <minimizedAffinity>  (1) 
-6.45935583

>  <minimizedRMSD>  (1) 
0.911932766

$$$$
