
     RDKit          3D

 42 45  0  0  1  0  0  0  0  0999 V2000
   44.9700   33.6500   40.8300 C   0  0  0  0  0  0  0  0  0  0  0  0
   44.6520   32.7360   41.6730 O   0  0  0  0  0  0  0  0  0  0  0  0
   46.7430   34.8030   41.9190 C   0  0  0  0  0  0  0  0  0  0  0  0
   48.0250   35.3100   41.8740 C   0  0  0  0  0  0  0  0  0  0  0  0
   48.8410   35.1890   40.7460 C   0  0  0  0  0  0  0  0  0  0  0  0
   48.3420   34.5310   39.6240 C   0  0  0  0  0  0  0  0  0  0  0  0
   47.0400   34.0080   39.6520 C   0  0  0  0  0  0  0  0  0  0  0  0
   46.3140   34.1780   40.8070 C   0  0  0  0  0  0  0  0  0  0  0  0
   44.3920   36.0810   44.5350 C   0  0  0  0  0  0  0  0  0  0  0  0
   45.0740   36.0270   43.2960 C   0  0  0  0  0  0  0  0  0  0  0  0
   45.9780   34.9740   43.1430 C   0  0  0  0  0  0  0  0  0  0  0  0
   46.1720   34.0640   44.1450 N   0  0  0  0  0  0  0  0  0  0  0  0
   45.4710   34.1850   45.3150 C   0  0  0  0  0  0  0  0  0  0  0  0
   44.5920   35.1870   45.5000 N   0  0  0  0  0  0  0  0  0  0  0  0
   43.8610   33.8010   40.2250 O   0  0  0  0  0  0  0  0  0  0  0  0
   42.1440   34.3470   41.8860 N   0  0  0  0  0  0  0  0  0  0  0  0
   41.4600   35.6290   41.8370 C   0  0  0  0  0  0  0  0  0  0  0  0
   40.8170   35.5450   40.4460 C   0  0  0  0  0  0  0  0  0  0  0  0
   42.0650   35.1570   39.6850 C   0  0  0  0  0  0  0  0  0  0  0  0
   42.5430   33.9940   40.5980 C   0  0  1  0  0  0  0  0  0  0  0  0
   41.6120   32.9540   39.9170 C   0  0  0  0  0  0  0  0  0  0  0  0
   40.9630   32.0100   40.7410 C   0  0  0  0  0  0  0  0  0  0  0  0
   40.1830   31.1750   39.9730 C   0  0  0  0  0  0  0  0  0  0  0  0
   40.4040   31.6640   38.7040 C   0  0  0  0  0  0  0  0  0  0  0  0
   41.2240   32.6790   38.7010 O   0  0  0  0  0  0  0  0  0  0  0  0
   48.4200   35.8293   42.7596 H   0  0  0  0  0  0  0  0  0  0  0  0
   49.8590   35.6058   40.7440 H   0  0  0  0  0  0  0  0  0  0  0  0
   48.9637   34.4222   38.7231 H   0  0  0  0  0  0  0  0  0  0  0  0
   46.6167   33.4824   38.7834 H   0  0  0  0  0  0  0  0  0  0  0  0
   43.6695   36.8925   44.7066 H   0  0  0  0  0  0  0  0  0  0  0  0
   44.9024   36.7691   42.5023 H   0  0  0  0  0  0  0  0  0  0  0  0
   45.6292   33.4500   46.1180 H   0  0  0  0  0  0  0  0  0  0  0  0
   42.9711   34.4203   42.4955 H   0  0  0  0  0  0  0  0  0  0  0  0
   40.7032   35.7169   42.6304 H   0  0  0  0  0  0  0  0  0  0  0  0
   42.1096   36.5032   41.9915 H   0  0  0  0  0  0  0  0  0  0  0  0
   40.0344   34.7740   40.3907 H   0  0  0  0  0  0  0  0  0  0  0  0
   40.2872   36.4428   40.0950 H   0  0  0  0  0  0  0  0  0  0  0  0
   41.8381   34.8155   38.6643 H   0  0  0  0  0  0  0  0  0  0  0  0
   42.7937   35.9646   39.5211 H   0  0  0  0  0  0  0  0  0  0  0  0
   41.0651   31.9502   41.8346 H   0  0  0  0  0  0  0  0  0  0  0  0
   39.5478   30.3349   40.2904 H   0  0  0  0  0  0  0  0  0  0  0  0
   39.9420   31.2465   37.7972 H   0  0  0  0  0  0  0  0  0  0  0  0
  1  2  2  0
  3 11  1  0
  4  3  2  0
  5  4  1  0
  6  7  1  0
  6  5  2  0
  7  8  2  0
  8  1  1  0
  8  3  1  0
  9 14  2  0
 10  9  1  0
 11 10  2  0
 11 12  1  0
 12 13  2  0
 13 14  1  0
 15  1  1  0
 17 16  1  0
 18 17  1  0
 19 18  1  0
 19 20  1  0
 20 15  1  1
 20 16  1  0
 21 20  1  0
 21 22  2  0
 23 22  1  0
 24 23  2  0
 25 24  1  0
 25 21  1  0
  4 26  1  0
  5 27  1  0
  6 28  1  0
  7 29  1  0
  9 30  1  0
 10 31  1  0
 13 32  1  0
 16 33  1  0
 17 34  1  0
 17 35  1  0
 18 36  1  0
 18 37  1  0
 19 38  1  0
 19 39  1  0
 22 40  1  0
 23 41  1  0
 24 42  1  0
M  ISO  8  26  14  27  14  28  14  29  14  30  14  31  14  32  14  33   5
M  ISO  8  34  13  35  13  36  13  37  13  38  13  39  13  40  14  41  14
M  ISO  1  42  14
M  END
>  <minimizedAffinity>  (1) 
-6.43545532

>  <minimizedRMSD>  (1) 
2.23850465

$$$$
