
     RDKit          3D

 39 41  0  0  1  0  0  0  0  0999 V2000
   46.4570   34.6590   42.1800 C   0  0  0  0  0  0  0  0  0  0  0  0
   47.7260   35.1660   42.0070 C   0  0  0  0  0  0  0  0  0  0  0  0
   48.4300   35.0300   40.8140 C   0  0  0  0  0  0  0  0  0  0  0  0
   47.8200   34.3510   39.7550 C   0  0  0  0  0  0  0  0  0  0  0  0
   46.5300   33.8270   39.9120 C   0  0  0  0  0  0  0  0  0  0  0  0
   45.8920   33.9960   41.1120 C   0  0  0  0  0  0  0  0  0  0  0  0
   44.4660   36.0670   45.0420 C   0  0  0  0  0  0  0  0  0  0  0  0
   45.0380   35.9790   43.7780 C   0  0  0  0  0  0  0  0  0  0  0  0
   45.8090   34.8670   43.4660 C   0  0  0  0  0  0  0  0  0  0  0  0
   45.9750   33.9120   44.4000 N   0  0  0  0  0  0  0  0  0  0  0  0
   45.3940   34.0400   45.6290 C   0  0  0  0  0  0  0  0  0  0  0  0
   44.6550   35.1000   45.9370 N   0  0  0  0  0  0  0  0  0  0  0  0
   44.5370   33.4390   41.3160 C   0  0  0  0  0  0  0  0  0  0  0  0
   44.3310   32.2390   41.1140 O   0  0  0  0  0  0  0  0  0  0  0  0
   43.4870   34.3000   41.7540 O   0  0  0  0  0  0  0  0  0  0  0  0
   41.3240   35.0740   41.8900 N   0  0  0  0  0  0  0  0  0  0  0  0
   40.8010   36.0290   40.9310 C   0  0  0  0  0  0  0  0  0  0  0  0
   40.7490   35.2040   39.6560 C   0  0  0  0  0  0  0  0  0  0  0  0
   42.1720   34.6220   39.6940 C   0  0  0  0  0  0  0  0  0  0  0  0
   42.2460   34.1610   41.0870 C   0  0  1  0  0  0  0  0  0  0  0  0
   41.5290   32.8820   41.2940 C   0  0  0  0  0  0  0  0  0  0  0  0
   41.3740   32.0380   42.1660 O   0  0  0  0  0  0  0  0  0  0  0  0
   48.2013   35.6988   42.8438 H   0  0  0  0  0  0  0  0  0  0  0  0
   49.4423   35.4469   40.7069 H   0  0  0  0  0  0  0  0  0  0  0  0
   48.3519   34.2283   38.8000 H   0  0  0  0  0  0  0  0  0  0  0  0
   46.0390   33.2900   39.0870 H   0  0  0  0  0  0  0  0  0  0  0  0
   43.8529   36.9418   45.3044 H   0  0  0  0  0  0  0  0  0  0  0  0
   44.8824   36.7771   43.0372 H   0  0  0  0  0  0  0  0  0  0  0  0
   45.5409   33.2492   46.3794 H   0  0  0  0  0  0  0  0  0  0  0  0
   41.8513   35.5582   42.6305 H   0  0  0  0  0  0  0  0  0  0  0  0
   39.7993   36.3787   41.2214 H   0  0  0  0  0  0  0  0  0  0  0  0
   41.4060   36.9434   40.8421 H   0  0  0  0  0  0  0  0  0  0  0  0
   40.5816   35.8286   38.7661 H   0  0  0  0  0  0  0  0  0  0  0  0
   39.9353   34.4659   39.6007 H   0  0  0  0  0  0  0  0  0  0  0  0
   42.2872   33.7885   38.9855 H   0  0  0  0  0  0  0  0  0  0  0  0
   42.9615   35.3324   39.4077 H   0  0  0  0  0  0  0  0  0  0  0  0
   40.4900   33.1736   41.0808 H   0  0  0  0  0  0  0  0  0  0  0  0
   42.3115   32.2970   40.7886 H   0  0  0  0  0  0  0  0  0  0  0  0
   41.4524   32.4647   43.0559 H   0  0  0  0  0  0  0  0  0  0  0  0
  1  9  1  0
  2  1  2  0
  3  2  1  0
  4  5  1  0
  4  3  2  0
  5  6  2  0
  6 13  1  0
  6  1  1  0
  7 12  2  0
  8  7  1  0
  9  8  2  0
  9 10  1  0
 10 11  2  0
 11 12  1  0
 13 15  1  0
 14 13  2  0
 17 16  1  0
 18 19  1  0
 18 17  1  0
 19 20  1  0
 20 21  1  0
 20 15  1  1
 20 16  1  0
 21 22  1  0
  2 23  1  0
  3 24  1  0
  4 25  1  0
  5 26  1  0
  7 27  1  0
  8 28  1  0
 11 29  1  0
 16 30  1  0
 17 31  1  0
 17 32  1  0
 18 33  1  0
 18 34  1  0
 19 35  1  0
 19 36  1  0
 21 37  1  0
 21 38  1  0
 22 39  1  0
M  ISO  8  23  14  24  14  25  14  26  14  27  14  28  14  29  14  30   5
M  ISO  8  31  13  32  13  33  13  34  13  35  13  36  13  37   8  38   8
M  ISO  1  39   3
M  END
>  <minimizedAffinity>  (1) 
-6.30208015

>  <minimizedRMSD>  (1) 
1.12943006

$$$$
