
     RDKit          3D

 41 43  0  0  1  0  0  0  0  0999 V2000
   46.5830   34.7240   41.9590 C   0  0  0  0  0  0  0  0  0  0  0  0
   47.8730   35.1880   41.8400 C   0  0  0  0  0  0  0  0  0  0  0  0
   48.6270   35.0150   40.6770 C   0  0  0  0  0  0  0  0  0  0  0  0
   48.0550   34.3490   39.5990 C   0  0  0  0  0  0  0  0  0  0  0  0
   46.7370   33.8680   39.7010 C   0  0  0  0  0  0  0  0  0  0  0  0
   46.0740   34.0870   40.8870 C   0  0  0  0  0  0  0  0  0  0  0  0
   44.3870   36.1480   44.6340 C   0  0  0  0  0  0  0  0  0  0  0  0
   45.0200   36.0440   43.3750 C   0  0  0  0  0  0  0  0  0  0  0  0
   45.8890   34.9540   43.2150 C   0  0  0  0  0  0  0  0  0  0  0  0
   46.0920   34.0630   44.2280 N   0  0  0  0  0  0  0  0  0  0  0  0
   45.4340   34.2410   45.4180 C   0  0  0  0  0  0  0  0  0  0  0  0
   44.5920   35.2720   45.6120 N   0  0  0  0  0  0  0  0  0  0  0  0
   44.7190   33.6030   40.9920 C   0  0  0  0  0  0  0  0  0  0  0  0
   44.3980   32.7770   41.9250 O   0  0  0  0  0  0  0  0  0  0  0  0
   43.6050   33.7480   40.3800 O   0  0  0  0  0  0  0  0  0  0  0  0
   41.9620   34.8180   41.8260 N   0  0  0  0  0  0  0  0  0  0  0  0
   41.1470   35.9130   41.3350 C   0  0  0  0  0  0  0  0  0  0  0  0
   40.4810   35.2630   40.1730 C   0  0  0  0  0  0  0  0  0  0  0  0
   41.6280   34.5710   39.5210 C   0  0  0  0  0  0  0  0  0  0  0  0
   42.2790   33.9480   40.7910 C   0  0  1  0  0  0  0  0  0  0  0  0
   41.5110   32.6140   40.6980 C   0  0  0  0  0  0  0  0  0  0  0  0
   41.5640   31.9000   39.3980 C   0  0  0  0  0  0  0  0  0  0  0  0
   48.3272   35.7146   42.6923 H   0  0  0  0  0  0  0  0  0  0  0  0
   49.6559   35.3992   40.6151 H   0  0  0  0  0  0  0  0  0  0  0  0
   48.6291   34.1992   38.6727 H   0  0  0  0  0  0  0  0  0  0  0  0
   46.2555   33.3379   38.8661 H   0  0  0  0  0  0  0  0  0  0  0  0
   43.6977   36.9867   44.8114 H   0  0  0  0  0  0  0  0  0  0  0  0
   44.8425   36.7725   42.5701 H   0  0  0  0  0  0  0  0  0  0  0  0
   45.5989   33.5226   46.2345 H   0  0  0  0  0  0  0  0  0  0  0  0
   42.8309   35.1962   42.2295 H   0  0  0  0  0  0  0  0  0  0  0  0
   40.4164   36.2436   42.0879 H   0  0  0  0  0  0  0  0  0  0  0  0
   41.7097   36.8250   41.0868 H   0  0  0  0  0  0  0  0  0  0  0  0
   39.7127   34.5467   40.4994 H   0  0  0  0  0  0  0  0  0  0  0  0
   39.9464   35.9628   39.5138 H   0  0  0  0  0  0  0  0  0  0  0  0
   41.2962   33.8029   38.8069 H   0  0  0  0  0  0  0  0  0  0  0  0
   42.2859   35.2092   38.9129 H   0  0  0  0  0  0  0  0  0  0  0  0
   41.9209   31.9400   41.4647 H   0  0  0  0  0  0  0  0  0  0  0  0
   40.4529   32.8810   40.8365 H   0  0  0  0  0  0  0  0  0  0  0  0
   41.6443   30.8177   39.5771 H   0  0  0  0  0  0  0  0  0  0  0  0
   40.6478   32.1101   38.8267 H   0  0  0  0  0  0  0  0  0  0  0  0
   42.4392   32.2431   38.8267 H   0  0  0  0  0  0  0  0  0  0  0  0
  1  9  1  0
  2  1  2  0
  3  2  1  0
  4  5  1  0
  4  3  2  0
  5  6  2  0
  6 13  1  0
  6  1  1  0
  7 12  2  0
  8  7  1  0
  9  8  2  0
  9 10  1  0
 10 11  2  0
 11 12  1  0
 13 14  2  0
 20 15  1  6
 15 13  1  0
 17 16  1  0
 18 17  1  0
 19 18  1  0
 19 20  1  0
 20 21  1  0
 20 16  1  0
 22 21  1  0
  2 23  1  0
  3 24  1  0
  4 25  1  0
  5 26  1  0
  7 27  1  0
  8 28  1  0
 11 29  1  0
 16 30  1  0
 17 31  1  0
 17 32  1  0
 18 33  1  0
 18 34  1  0
 19 35  1  0
 19 36  1  0
 21 37  1  0
 21 38  1  0
 22 39  1  0
 22 40  1  0
 22 41  1  0
M  ISO  8  23  14  24  14  25  14  26  14  27  14  28  14  29  14  30   5
M  ISO  8  31  13  32  13  33  13  34  13  35  13  36  13  37   8  38   8
M  ISO  3  39   8  40   8  41   8
M  END
>  <minimizedAffinity>  (1) 
-6.07424736

>  <minimizedRMSD>  (1) 
1.00668204

$$$$
