
     RDKit          3D

 24 25  0  0  0  0  0  0  0  0999 V2000
   47.2900   32.6420   44.3540 C   0  0  0  0  0  0  0  0  0  0  0  0
   46.0720   32.9580   45.0240 C   0  0  0  0  0  0  0  0  0  0  0  0
   45.4520   34.1050   44.5670 C   0  0  0  0  0  0  0  0  0  0  0  0
   45.9790   34.8500   43.5650 N   0  0  0  0  0  0  0  0  0  0  0  0
   47.1390   34.5060   42.9620 C   0  0  0  0  0  0  0  0  0  0  0  0
   47.7830   33.3950   43.3720 N   0  0  0  0  0  0  0  0  0  0  0  0
   45.5540   32.1540   46.0670 N   0  0  0  0  0  0  0  0  0  0  0  0
   45.6470   32.4690   47.4430 C   0  0  0  0  0  0  0  0  0  0  0  0
   46.7770   33.0130   47.8360 N   0  0  0  0  0  0  0  0  0  0  0  0
   44.4910   32.1530   48.2460 N   0  0  0  0  0  0  0  0  0  0  0  0
   46.9160   33.2980   48.8210 H   0  0  0  0  0  0  0  0  0  0  0  0
   47.6180   35.3930   41.8830 C   0  0  0  0  0  0  0  0  0  0  0  0
   49.0700   35.6220   41.7190 C   0  0  0  0  0  0  0  0  0  0  0  0
   48.3480   34.6970   40.7860 C   0  0  0  0  0  0  0  0  0  0  0  0
   47.8438   31.7421   44.6596 H   0  0  0  0  0  0  0  0  0  0  0  0
   44.5053   34.4220   45.0288 H   0  0  0  0  0  0  0  0  0  0  0  0
   45.0765   31.2794   45.8064 H   0  0  0  0  0  0  0  0  0  0  0  0
   44.4938   32.3571   49.2556 H   0  0  0  0  0  0  0  0  0  0  0  0
   43.6628   31.7233   47.8098 H   0  0  0  0  0  0  0  0  0  0  0  0
   46.7600   36.0758   41.9700 H   0  0  0  0  0  0  0  0  0  0  0  0
   49.4359   36.5938   41.3560 H   0  0  0  0  0  0  0  0  0  0  0  0
   49.9497   35.5352   42.3737 H   0  0  0  0  0  0  0  0  0  0  0  0
   48.1802   34.9896   39.7390 H   0  0  0  0  0  0  0  0  0  0  0  0
   48.4726   33.6505   40.4708 H   0  0  0  0  0  0  0  0  0  0  0  0
  1  2  2  0
  2  7  1  0
  3  2  1  0
  4  3  2  0
  5  6  2  0
  5  4  1  0
  6  1  1  0
  7  8  1  0
  8  9  2  0
  8 10  1  0
  9 11  1  0
 12  5  1  0
 13 12  1  0
 14 13  1  0
 14 12  1  0
  1 15  1  0
  3 16  1  0
  7 17  1  0
 10 18  1  0
 10 19  1  0
 12 20  1  0
 13 21  1  0
 13 22  1  0
 14 23  1  0
 14 24  1  0
M  ISO  7  15  14  16  14  20  13  21  13  22  13  23  13  24  13
M  END
>  <minimizedAffinity>  (1) 
-5.14005184

>  <minimizedRMSD>  (1) 
6.22961521

$$$$
