
     RDKit          3D

 23 24  0  0  0  0  0  0  0  0999 V2000
   46.1110   33.0780   42.1210 C   0  0  0  0  0  0  0  0  0  0  0  0
   46.7550   34.1940   42.7090 C   0  0  0  0  0  0  0  0  0  0  0  0
   45.9730   35.3490   42.8270 C   0  0  0  0  0  0  0  0  0  0  0  0
   44.6790   35.3490   42.3900 N   0  0  0  0  0  0  0  0  0  0  0  0
   44.1330   34.2490   41.8410 C   0  0  0  0  0  0  0  0  0  0  0  0
   44.8440   33.1350   41.7120 N   0  0  0  0  0  0  0  0  0  0  0  0
   42.7790   34.3220   41.4070 N   0  0  0  0  0  0  0  0  0  0  0  0
   42.3930   35.4520   40.7550 C   0  0  0  0  0  0  0  0  0  0  0  0
   41.0830   35.3640   40.4110 N   0  0  0  0  0  0  0  0  0  0  0  0
   40.6770   34.1480   40.8710 C   0  0  0  0  0  0  0  0  0  0  0  0
   41.7390   33.5400   41.4740 N   0  0  0  0  0  0  0  0  0  0  0  0
   48.1130   34.1420   43.1500 N   0  0  0  0  0  0  0  0  0  0  0  0
   49.2140   34.5800   42.3640 C   0  0  0  0  0  0  0  0  0  0  0  0
   49.1470   34.2820   41.0790 N   0  0  0  0  0  0  0  0  0  0  0  0
   50.2500   35.2850   43.0760 N   0  0  0  0  0  0  0  0  0  0  0  0
   49.9070   34.5440   40.4340 H   0  0  0  0  0  0  0  0  0  0  0  0
   46.6715   32.1394   41.9987 H   0  0  0  0  0  0  0  0  0  0  0  0
   46.4017   36.2587   43.2727 H   0  0  0  0  0  0  0  0  0  0  0  0
   43.0462   36.3102   40.5386 H   0  0  0  0  0  0  0  0  0  0  0  0
   39.6652   33.7278   40.7730 H   0  0  0  0  0  0  0  0  0  0  0  0
   48.3052   33.7663   44.0896 H   0  0  0  0  0  0  0  0  0  0  0  0
   51.0779   35.6316   42.5707 H   0  0  0  0  0  0  0  0  0  0  0  0
   50.1625   35.4422   44.0902 H   0  0  0  0  0  0  0  0  0  0  0  0
  1  2  2  0
  2  3  1  0
  2 12  1  0
  4  3  2  0
  5  4  1  0
  6  5  2  0
  6  1  1  0
  7 11  1  0
  7  5  1  0
  8  7  1  0
  9  8  2  0
  9 10  1  0
 10 11  2  0
 13 15  1  0
 13 12  1  0
 14 13  2  0
 16 14  1  0
  1 17  1  0
  3 18  1  0
  8 19  1  0
 10 20  1  0
 12 21  1  0
 15 22  1  0
 15 23  1  0
M  ISO  4  17  14  18  14  19  14  20  14
M  END
>  <minimizedAffinity>  (1) 
-4.87730789

>  <minimizedRMSD>  (1) 
8.93224239

$$$$
