
     RDKit          3D

 18 18  0  0  0  0  0  0  0  0999 V2000
   45.1050   32.7620   47.6900 C   0  0  0  0  0  0  0  0  0  0  0  0
   45.7280   32.9100   46.4130 C   0  0  0  0  0  0  0  0  0  0  0  0
   46.9970   32.3350   46.2870 C   0  0  0  0  0  0  0  0  0  0  0  0
   47.5620   31.6830   47.3470 N   0  0  0  0  0  0  0  0  0  0  0  0
   46.9140   31.5820   48.5220 C   0  0  0  0  0  0  0  0  0  0  0  0
   45.7080   32.1140   48.6890 N   0  0  0  0  0  0  0  0  0  0  0  0
   45.0820   33.6070   45.3470 N   0  0  0  0  0  0  0  0  0  0  0  0
   44.7950   34.9980   45.3790 C   0  0  0  0  0  0  0  0  0  0  0  0
   44.3830   35.4700   46.5340 N   0  0  0  0  0  0  0  0  0  0  0  0
   44.9940   35.7070   44.1390 N   0  0  0  0  0  0  0  0  0  0  0  0
   44.1150   36.4560   46.6490 H   0  0  0  0  0  0  0  0  0  0  0  0
   47.4440   30.9290   49.6350 O   0  0  0  0  0  0  0  0  0  0  0  0
   44.1058   33.1918   47.8537 H   0  0  0  0  0  0  0  0  0  0  0  0
   47.5408   32.4077   45.3336 H   0  0  0  0  0  0  0  0  0  0  0  0
   44.8095   33.0724   44.5098 H   0  0  0  0  0  0  0  0  0  0  0  0
   44.8057   36.7184   44.0881 H   0  0  0  0  0  0  0  0  0  0  0  0
   45.3244   35.2020   43.3043 H   0  0  0  0  0  0  0  0  0  0  0  0
   46.9243   30.8838   50.4764 H   0  0  0  0  0  0  0  0  0  0  0  0
  1  6  2  0
  2  1  1  0
  3  2  2  0
  3  4  1  0
  4  5  2  0
  5  6  1  0
  5 12  1  0
  7  8  1  0
  7  2  1  0
  8  9  2  0
  9 11  1  0
 10  8  1  0
  1 13  1  0
  3 14  1  0
  7 15  1  0
 10 16  1  0
 10 17  1  0
 12 18  1  0
M  ISO  3  13  14  14  14  18   3
M  END
>  <minimizedAffinity>  (1) 
-4.73220825

>  <minimizedRMSD>  (1) 
0.637332261

$$$$
