
     RDKit          3D

 27 28  0  0  0  0  0  0  0  0999 V2000
   46.9310   32.6990   46.4660 C   0  0  0  0  0  0  0  0  0  0  0  0
   46.7870   32.7710   45.0600 C   0  0  0  0  0  0  0  0  0  0  0  0
   46.7070   31.5340   44.4380 C   0  0  0  0  0  0  0  0  0  0  0  0
   46.7670   30.3810   45.1680 N   0  0  0  0  0  0  0  0  0  0  0  0
   46.9040   30.3870   46.5080 C   0  0  0  0  0  0  0  0  0  0  0  0
   46.9850   31.5660   47.1450 N   0  0  0  0  0  0  0  0  0  0  0  0
   46.9370   29.0470   46.9960 N   0  0  0  0  0  0  0  0  0  0  0  0
   48.0060   28.2300   46.9530 C   0  0  0  0  0  0  0  0  0  0  0  0
   47.9320   26.9490   47.4540 C   0  0  0  0  0  0  0  0  0  0  0  0
   46.7110   26.5500   47.9980 C   0  0  0  0  0  0  0  0  0  0  0  0
   46.5320   25.3900   48.4870 O   0  0  0  0  0  0  0  0  0  0  0  0
   45.6480   27.4060   48.0230 N   0  0  0  0  0  0  0  0  0  0  0  0
   45.7590   28.6670   47.5190 C   0  0  0  0  0  0  0  0  0  0  0  0
   44.7200   29.3630   47.5960 O   0  0  0  0  0  0  0  0  0  0  0  0
   46.7300   33.9910   44.3500 N   0  0  0  0  0  0  0  0  0  0  0  0
   47.5530   34.3070   43.2320 C   0  0  0  0  0  0  0  0  0  0  0  0
   48.8050   33.8980   43.3130 N   0  0  0  0  0  0  0  0  0  0  0  0
   46.9110   35.0320   42.1560 N   0  0  0  0  0  0  0  0  0  0  0  0
   49.4780   34.0930   42.5570 H   0  0  0  0  0  0  0  0  0  0  0  0
   47.0023   33.6422   47.0275 H   0  0  0  0  0  0  0  0  0  0  0  0
   46.5940   31.4808   43.3451 H   0  0  0  0  0  0  0  0  0  0  0  0
   48.9482   28.5890   46.5133 H   0  0  0  0  0  0  0  0  0  0  0  0
   48.7975   26.2706   47.4263 H   0  0  0  0  0  0  0  0  0  0  0  0
   44.7529   27.0955   48.4270 H   0  0  0  0  0  0  0  0  0  0  0  0
   46.0487   34.6979   44.6614 H   0  0  0  0  0  0  0  0  0  0  0  0
   45.9161   35.2884   42.2295 H   0  0  0  0  0  0  0  0  0  0  0  0
   47.4491   35.2915   41.3169 H   0  0  0  0  0  0  0  0  0  0  0  0
  1  6  2  0
  2  1  1  0
  3  2  2  0
  3  4  1  0
  4  5  2  0
  5  7  1  0
  5  6  1  0
  7 13  1  0
  8  7  1  0
  8  9  2  0
  9 10  1  0
 10 12  1  0
 10 11  2  0
 13 14  2  0
 13 12  1  0
 15  2  1  0
 16 17  2  0
 16 15  1  0
 18 16  1  0
 19 17  1  0
  1 20  1  0
  3 21  1  0
  8 22  1  0
  9 23  1  0
 12 24  1  0
 15 25  1  0
 18 26  1  0
 18 27  1  0
M  ISO  5  20  14  21  14  22  14  23  14  24   9
M  END
>  <minimizedAffinity>  (1) 
-4.09199572

>  <minimizedRMSD>  (1) 
4.09920979

$$$$
