
     RDKit          3D

 35 38  0  0  0  0  0  0  0  0999 V2000
   48.2200   29.7080   47.6980 C   0  0  0  0  0  0  0  0  0  0  0  0
   47.6800   30.6140   48.6180 C   0  0  0  0  0  0  0  0  0  0  0  0
   46.5380   31.2690   48.1930 C   0  0  0  0  0  0  0  0  0  0  0  0
   45.9910   31.0360   46.9610 N   0  0  0  0  0  0  0  0  0  0  0  0
   46.5620   30.1450   46.1140 C   0  0  0  0  0  0  0  0  0  0  0  0
   47.6800   29.4870   46.4980 N   0  0  0  0  0  0  0  0  0  0  0  0
   45.9830   29.9250   44.8180 N   0  0  0  0  0  0  0  0  0  0  0  0
   45.8180   28.7370   44.2350 C   0  0  0  0  0  0  0  0  0  0  0  0
   45.2590   28.9970   43.0420 N   0  0  0  0  0  0  0  0  0  0  0  0
   45.0860   30.3340   42.8990 C   0  0  0  0  0  0  0  0  0  0  0  0
   44.5480   31.0560   41.8410 C   0  0  0  0  0  0  0  0  0  0  0  0
   44.5140   32.3890   42.0190 N   0  0  0  0  0  0  0  0  0  0  0  0
   44.9720   32.9760   43.1480 C   0  0  0  0  0  0  0  0  0  0  0  0
   45.5020   32.2650   44.1850 N   0  0  0  0  0  0  0  0  0  0  0  0
   45.5530   30.9430   44.0490 C   0  0  0  0  0  0  0  0  0  0  0  0
   44.9340   34.3900   43.3300 N   0  0  0  0  0  0  0  0  0  0  0  0
   44.8370   34.8440   44.6060 C   0  0  0  0  0  0  0  0  0  0  0  0
   44.8150   36.2280   44.5580 C   0  0  0  0  0  0  0  0  0  0  0  0
   44.8980   36.5880   43.2650 N   0  0  0  0  0  0  0  0  0  0  0  0
   44.9700   35.4700   42.5220 C   0  0  0  0  0  0  0  0  0  0  0  0
   48.2850   30.8280   49.8700 N   0  0  0  0  0  0  0  0  0  0  0  0
   49.5220   30.3010   50.2980 C   0  0  0  0  0  0  0  0  0  0  0  0
   49.7710   29.0580   49.9010 N   0  0  0  0  0  0  0  0  0  0  0  0
   50.3190   31.2160   51.1080 N   0  0  0  0  0  0  0  0  0  0  0  0
   50.7130   28.6580   50.1120 H   0  0  0  0  0  0  0  0  0  0  0  0
   49.1288   29.1542   47.9762 H   0  0  0  0  0  0  0  0  0  0  0  0
   46.0571   31.9964   48.8635 H   0  0  0  0  0  0  0  0  0  0  0  0
   46.0838   27.7515   44.6450 H   0  0  0  0  0  0  0  0  0  0  0  0
   44.1770   30.5731   40.9249 H   0  0  0  0  0  0  0  0  0  0  0  0
   44.7853   34.2247   45.5136 H   0  0  0  0  0  0  0  0  0  0  0  0
   44.7429   36.9080   45.4196 H   0  0  0  0  0  0  0  0  0  0  0  0
   45.0464   35.4403   41.4251 H   0  0  0  0  0  0  0  0  0  0  0  0
   47.7769   31.4259   50.5373 H   0  0  0  0  0  0  0  0  0  0  0  0
   51.2380   30.9194   51.4664 H   0  0  0  0  0  0  0  0  0  0  0  0
   49.9627   32.1585   51.3215 H   0  0  0  0  0  0  0  0  0  0  0  0
  1  2  2  0
  2 21  1  0
  3  2  1  0
  4  3  2  0
  5  6  2  0
  5  4  1  0
  6  1  1  0
  7  5  1  0
  8  7  1  0
  9  8  2  0
 10  9  1  0
 10 15  2  0
 11 12  2  0
 11 10  1  0
 12 13  1  0
 13 16  1  0
 13 14  2  0
 15 14  1  0
 15  7  1  0
 16 17  1  0
 18 17  2  0
 19 18  1  0
 20 19  2  0
 20 16  1  0
 21 22  1  0
 22 24  1  0
 23 25  1  0
 23 22  2  0
  1 26  1  0
  3 27  1  0
  8 28  1  0
 11 29  1  0
 17 30  1  0
 18 31  1  0
 20 32  1  0
 21 33  1  0
 24 34  1  0
 24 35  1  0
M  ISO  7  26  14  27  14  28  14  29  14  30  14  31  14  32  14
M  END
>  <minimizedAffinity>  (1) 
-5.78235531

>  <minimizedRMSD>  (1) 
2.59819341

$$$$
