
     RDKit          3D

 33 36  0  0  0  0  0  0  0  0999 V2000
   48.3290   29.8820   47.7210 C   0  0  0  0  0  0  0  0  0  0  0  0
   47.7570   30.6860   48.7140 C   0  0  0  0  0  0  0  0  0  0  0  0
   46.5840   31.3220   48.3380 C   0  0  0  0  0  0  0  0  0  0  0  0
   46.0530   31.1540   47.0850 N   0  0  0  0  0  0  0  0  0  0  0  0
   46.6540   30.3660   46.1790 C   0  0  0  0  0  0  0  0  0  0  0  0
   47.8010   29.7290   46.5090 N   0  0  0  0  0  0  0  0  0  0  0  0
   46.0770   30.2100   44.8720 N   0  0  0  0  0  0  0  0  0  0  0  0
   45.9250   29.0570   44.2170 C   0  0  0  0  0  0  0  0  0  0  0  0
   45.3550   29.3920   43.0380 N   0  0  0  0  0  0  0  0  0  0  0  0
   45.1630   30.7390   42.9800 C   0  0  0  0  0  0  0  0  0  0  0  0
   44.6160   31.5240   41.9660 C   0  0  0  0  0  0  0  0  0  0  0  0
   44.5800   32.8340   42.2330 N   0  0  0  0  0  0  0  0  0  0  0  0
   45.0370   33.3370   43.3910 C   0  0  0  0  0  0  0  0  0  0  0  0
   45.5700   32.5960   44.3880 N   0  0  0  0  0  0  0  0  0  0  0  0
   45.6300   31.2710   44.1650 C   0  0  0  0  0  0  0  0  0  0  0  0
   48.3610   30.8150   49.9780 N   0  0  0  0  0  0  0  0  0  0  0  0
   49.5880   30.2500   50.3840 C   0  0  0  0  0  0  0  0  0  0  0  0
   49.8230   29.0330   49.9140 N   0  0  0  0  0  0  0  0  0  0  0  0
   50.3890   31.0950   51.2460 N   0  0  0  0  0  0  0  0  0  0  0  0
   50.7590   28.6020   50.1010 H   0  0  0  0  0  0  0  0  0  0  0  0
   44.9900   34.7860   43.6740 C   0  0  0  0  0  0  0  0  0  0  0  0
   44.6450   35.4010   44.8220 N   0  0  0  0  0  0  0  0  0  0  0  0
   44.7360   36.7020   44.6550 O   0  0  0  0  0  0  0  0  0  0  0  0
   45.1300   36.9780   43.4340 C   0  0  0  0  0  0  0  0  0  0  0  0
   45.2960   35.7920   42.8030 N   0  0  0  0  0  0  0  0  0  0  0  0
   49.2627   29.3494   47.9544 H   0  0  0  0  0  0  0  0  0  0  0  0
   46.0692   31.9741   49.0589 H   0  0  0  0  0  0  0  0  0  0  0  0
   46.2037   28.0505   44.5624 H   0  0  0  0  0  0  0  0  0  0  0  0
   44.2438   31.0998   41.0218 H   0  0  0  0  0  0  0  0  0  0  0  0
   47.8566   31.3786   50.6772 H   0  0  0  0  0  0  0  0  0  0  0  0
   51.3008   30.7621   51.5905 H   0  0  0  0  0  0  0  0  0  0  0  0
   50.0467   32.0286   51.5144 H   0  0  0  0  0  0  0  0  0  0  0  0
   45.2935   37.9783   43.0066 H   0  0  0  0  0  0  0  0  0  0  0  0
  1  2  2  0
  2 16  1  0
  3  2  1  0
  4  3  2  0
  5  6  2  0
  5  4  1  0
  6  1  1  0
  7  5  1  0
  8  7  1  0
  9  8  2  0
 10  9  1  0
 10 15  2  0
 11 12  2  0
 11 10  1  0
 12 13  1  0
 13 21  1  0
 13 14  2  0
 15 14  1  0
 15  7  1  0
 16 17  1  0
 17 19  1  0
 18 20  1  0
 18 17  2  0
 21 22  2  0
 23 22  1  0
 24 23  1  0
 25 24  2  0
 25 21  1  0
  1 26  1  0
  3 27  1  0
  8 28  1  0
 11 29  1  0
 16 30  1  0
 19 31  1  0
 19 32  1  0
 24 33  1  0
M  ISO  5  26  14  27  14  28  14  29  14  33  14
M  END
>  <minimizedAffinity>  (1) 
-5.73949575

>  <minimizedRMSD>  (1) 
2.29327798

$$$$
