
     RDKit          3D

 34 36  0  0  0  0  0  0  0  0999 V2000
   46.8640   31.1540   45.4910 C   0  0  0  0  0  0  0  0  0  0  0  0
   46.6140   32.3950   46.0920 C   0  0  0  0  0  0  0  0  0  0  0  0
   46.3150   33.4280   45.2030 C   0  0  0  0  0  0  0  0  0  0  0  0
   46.2780   33.2080   43.8570 N   0  0  0  0  0  0  0  0  0  0  0  0
   46.5270   31.9920   43.3390 C   0  0  0  0  0  0  0  0  0  0  0  0
   46.8210   30.9670   44.1720 N   0  0  0  0  0  0  0  0  0  0  0  0
   46.4850   31.8040   41.9190 N   0  0  0  0  0  0  0  0  0  0  0  0
   45.9020   30.7870   41.2820 C   0  0  0  0  0  0  0  0  0  0  0  0
   46.1070   31.0100   39.9730 N   0  0  0  0  0  0  0  0  0  0  0  0
   46.8100   32.1590   39.8080 C   0  0  0  0  0  0  0  0  0  0  0  0
   47.2460   32.7780   38.6410 C   0  0  0  0  0  0  0  0  0  0  0  0
   47.9300   33.9250   38.8330 N   0  0  0  0  0  0  0  0  0  0  0  0
   48.1660   34.4230   40.0630 C   0  0  0  0  0  0  0  0  0  0  0  0
   47.7390   33.8150   41.2100 N   0  0  0  0  0  0  0  0  0  0  0  0
   47.0570   32.6760   41.0650 C   0  0  0  0  0  0  0  0  0  0  0  0
   46.6770   32.5510   47.4890 N   0  0  0  0  0  0  0  0  0  0  0  0
   45.5760   32.7100   48.3590 C   0  0  0  0  0  0  0  0  0  0  0  0
   44.5810   33.4450   47.8780 N   0  0  0  0  0  0  0  0  0  0  0  0
   45.7270   32.0350   49.6430 N   0  0  0  0  0  0  0  0  0  0  0  0
   43.7110   33.5250   48.4490 H   0  0  0  0  0  0  0  0  0  0  0  0
   48.9230   35.6930   40.2810 C   0  0  0  0  0  0  0  0  0  0  0  0
   49.1770   35.9190   41.7560 C   0  0  0  0  0  0  0  0  0  0  0  0
   47.1064   30.2966   46.1361 H   0  0  0  0  0  0  0  0  0  0  0  0
   46.1059   34.4350   45.5932 H   0  0  0  0  0  0  0  0  0  0  0  0
   45.3646   29.9408   41.7349 H   0  0  0  0  0  0  0  0  0  0  0  0
   47.0487   32.3650   37.6408 H   0  0  0  0  0  0  0  0  0  0  0  0
   47.6138   32.5490   47.9171 H   0  0  0  0  0  0  0  0  0  0  0  0
   44.9766   32.0921   50.3462 H   0  0  0  0  0  0  0  0  0  0  0  0
   46.5841   31.5012   49.8466 H   0  0  0  0  0  0  0  0  0  0  0  0
   49.8866   35.6339   39.7537 H   0  0  0  0  0  0  0  0  0  0  0  0
   48.3259   36.5313   39.8928 H   0  0  0  0  0  0  0  0  0  0  0  0
   48.4835   35.3020   42.3462 H   0  0  0  0  0  0  0  0  0  0  0  0
   50.2131   35.6386   41.9968 H   0  0  0  0  0  0  0  0  0  0  0  0
   49.0190   36.9806   41.9968 H   0  0  0  0  0  0  0  0  0  0  0  0
  1  2  2  0
  2 16  1  0
  3  2  1  0
  4  3  2  0
  5  4  1  0
  5  6  2  0
  6  1  1  0
  7  5  1  0
  8  7  1  0
  9  8  2  0
 10  9  1  0
 10 15  2  0
 11 12  2  0
 11 10  1  0
 12 13  1  0
 13 21  1  0
 13 14  2  0
 15 14  1  0
 15  7  1  0
 16 17  1  0
 17 19  1  0
 18 17  2  0
 18 20  1  0
 21 22  1  0
  1 23  1  0
  3 24  1  0
  8 25  1  0
 11 26  1  0
 16 27  1  0
 19 28  1  0
 19 29  1  0
 21 30  1  0
 21 31  1  0
 22 32  1  0
 22 33  1  0
 22 34  1  0
M  ISO  8  23  14  24  14  25  14  26  14  30   8  31   8  32   8  33   8
M  ISO  1  34   8
M  END
>  <minimizedAffinity>  (1) 
-5.58969927

>  <minimizedRMSD>  (1) 
4.40759945

$$$$
