
     RDKit          3D

 37 39  0  0  0  0  0  0  0  0999 V2000
   48.6110   30.2340   47.7860 C   0  0  0  0  0  0  0  0  0  0  0  0
   48.2500   31.1560   48.7730 C   0  0  0  0  0  0  0  0  0  0  0  0
   47.1140   31.9070   48.4770 C   0  0  0  0  0  0  0  0  0  0  0  0
   46.4370   31.7300   47.3070 N   0  0  0  0  0  0  0  0  0  0  0  0
   46.8420   30.8120   46.3830 C   0  0  0  0  0  0  0  0  0  0  0  0
   47.9400   30.0680   46.6450 N   0  0  0  0  0  0  0  0  0  0  0  0
   46.0930   30.6720   45.1810 N   0  0  0  0  0  0  0  0  0  0  0  0
   45.7310   29.5000   44.6380 C   0  0  0  0  0  0  0  0  0  0  0  0
   45.0450   29.7980   43.5320 N   0  0  0  0  0  0  0  0  0  0  0  0
   44.9840   31.1560   43.3920 C   0  0  0  0  0  0  0  0  0  0  0  0
   44.3850   31.9510   42.4110 C   0  0  0  0  0  0  0  0  0  0  0  0
   44.5120   33.2720   42.5750 N   0  0  0  0  0  0  0  0  0  0  0  0
   45.1770   33.7880   43.6230 C   0  0  0  0  0  0  0  0  0  0  0  0
   45.7720   33.0410   44.5960 N   0  0  0  0  0  0  0  0  0  0  0  0
   45.6640   31.7120   44.4630 C   0  0  0  0  0  0  0  0  0  0  0  0
   49.0000   31.2920   49.9530 N   0  0  0  0  0  0  0  0  0  0  0  0
   49.9820   30.3970   50.4270 C   0  0  0  0  0  0  0  0  0  0  0  0
   49.7240   29.1170   50.2220 N   0  0  0  0  0  0  0  0  0  0  0  0
   51.1180   31.0450   51.0670 N   0  0  0  0  0  0  0  0  0  0  0  0
   50.4610   28.4170   50.4660 H   0  0  0  0  0  0  0  0  0  0  0  0
   45.2600   35.2660   43.7120 C   0  0  0  0  0  0  0  0  0  0  0  0
   44.5330   35.8570   42.4990 C   0  0  0  0  0  0  0  0  0  0  0  0
   44.5410   35.7840   44.9460 C   0  0  0  0  0  0  0  0  0  0  0  0
   49.4996   29.6094   47.9603 H   0  0  0  0  0  0  0  0  0  0  0  0
   46.7574   32.6555   49.1999 H   0  0  0  0  0  0  0  0  0  0  0  0
   45.9545   28.4953   45.0260 H   0  0  0  0  0  0  0  0  0  0  0  0
   43.8431   31.5173   41.5576 H   0  0  0  0  0  0  0  0  0  0  0  0
   48.8149   32.1263   50.5280 H   0  0  0  0  0  0  0  0  0  0  0  0
   51.8887   30.4766   51.4463 H   0  0  0  0  0  0  0  0  0  0  0  0
   51.1510   32.0718   51.1405 H   0  0  0  0  0  0  0  0  0  0  0  0
   46.3215   35.5517   43.7534 H   0  0  0  0  0  0  0  0  0  0  0  0
   43.7222   36.5161   42.8428 H   0  0  0  0  0  0  0  0  0  0  0  0
   45.2441   36.4364   41.8918 H   0  0  0  0  0  0  0  0  0  0  0  0
   44.1110   35.0426   41.8918 H   0  0  0  0  0  0  0  0  0  0  0  0
   45.0510   35.4166   45.8488 H   0  0  0  0  0  0  0  0  0  0  0  0
   44.5507   36.8839   44.9414 H   0  0  0  0  0  0  0  0  0  0  0  0
   43.5007   35.4265   44.9414 H   0  0  0  0  0  0  0  0  0  0  0  0
  1  2  2  0
  2 16  1  0
  3  2  1  0
  4  3  2  0
  5  6  2  0
  5  4  1  0
  6  1  1  0
  7  5  1  0
  8  7  1  0
  9  8  2  0
 10  9  1  0
 10 15  2  0
 11 12  2  0
 11 10  1  0
 12 13  1  0
 13 21  1  0
 13 14  2  0
 15 14  1  0
 15  7  1  0
 16 17  1  0
 17 19  1  0
 18 17  2  0
 18 20  1  0
 21 23  1  0
 22 21  1  0
  1 24  1  0
  3 25  1  0
  8 26  1  0
 11 27  1  0
 16 28  1  0
 19 29  1  0
 19 30  1  0
 21 31  1  0
 22 32  1  0
 22 33  1  0
 22 34  1  0
 23 35  1  0
 23 36  1  0
 23 37  1  0
M  ISO  8  24  14  25  14  26  14  27  14  31   8  32   8  33   8  34   8
M  ISO  3  35   8  36   8  37   8
M  END
>  <minimizedAffinity>  (1) 
-5.40762758

>  <minimizedRMSD>  (1) 
1.93910122

$$$$
