
     RDKit          3D

 26 27  0  0  0  0  0  0  0  0999 V2000
   46.8500   34.7680   42.0220 C   0  0  0  0  0  0  0  0  0  0  0  0
   48.1140   35.3400   41.9580 C   0  0  0  0  0  0  0  0  0  0  0  0
   48.7200   35.2300   40.7190 C   0  0  0  0  0  0  0  0  0  0  0  0
   48.1170   34.5970   39.6190 C   0  0  0  0  0  0  0  0  0  0  0  0
   46.8370   34.0460   39.7800 C   0  0  0  0  0  0  0  0  0  0  0  0
   46.2700   34.1680   40.9960 N   0  0  0  0  0  0  0  0  0  0  0  0
   46.1690   33.3910   38.7090 N   0  0  0  0  0  0  0  0  0  0  0  0
   46.3930   33.7600   37.3540 C   0  0  0  0  0  0  0  0  0  0  0  0
   47.5670   34.1940   37.0420 N   0  0  0  0  0  0  0  0  0  0  0  0
   45.2790   33.6150   36.4490 N   0  0  0  0  0  0  0  0  0  0  0  0
   47.8640   34.4960   36.0930 H   0  0  0  0  0  0  0  0  0  0  0  0
   44.5160   35.8840   44.7170 C   0  0  0  0  0  0  0  0  0  0  0  0
   45.2110   35.8380   43.4970 C   0  0  0  0  0  0  0  0  0  0  0  0
   46.1260   34.8250   43.2760 C   0  0  0  0  0  0  0  0  0  0  0  0
   46.3210   33.8960   44.2620 N   0  0  0  0  0  0  0  0  0  0  0  0
   45.6390   33.9610   45.4300 C   0  0  0  0  0  0  0  0  0  0  0  0
   44.7420   34.9480   45.6560 N   0  0  0  0  0  0  0  0  0  0  0  0
   48.5909   35.8363   42.8160 H   0  0  0  0  0  0  0  0  0  0  0  0
   49.7242   35.6596   40.5886 H   0  0  0  0  0  0  0  0  0  0  0  0
   48.6376   34.5348   38.6520 H   0  0  0  0  0  0  0  0  0  0  0  0
   45.5068   32.6308   38.9198 H   0  0  0  0  0  0  0  0  0  0  0  0
   45.3858   33.8676   35.4562 H   0  0  0  0  0  0  0  0  0  0  0  0
   44.3768   33.2589   36.7957 H   0  0  0  0  0  0  0  0  0  0  0  0
   43.7867   36.6859   44.9044 H   0  0  0  0  0  0  0  0  0  0  0  0
   45.0291   36.6003   42.7251 H   0  0  0  0  0  0  0  0  0  0  0  0
   45.8167   33.2012   46.2053 H   0  0  0  0  0  0  0  0  0  0  0  0
  1 14  1  0
  2  1  2  0
  3  2  1  0
  4  5  1  0
  4  3  2  0
  5  6  2  0
  6  1  1  0
  7  5  1  0
  8  7  1  0
  9  8  2  0
 10  8  1  0
 11  9  1  0
 12 17  2  0
 13 12  1  0
 14 13  2  0
 14 15  1  0
 15 16  2  0
 16 17  1  0
  2 18  1  0
  3 19  1  0
  4 20  1  0
  7 21  1  0
 10 22  1  0
 10 23  1  0
 12 24  1  0
 13 25  1  0
 16 26  1  0
M  ISO  6  18  14  19  14  20  14  24  14  25  14  26  14
M  END
>  <minimizedAffinity>  (1) 
-6.30356932

>  <minimizedRMSD>  (1) 
0.282215029

$$$$
