
     RDKit          3D

 30 32  0  0  0  0  0  0  0  0999 V2000
   46.8190   34.7170   41.9850 C   0  0  0  0  0  0  0  0  0  0  0  0
   48.1030   35.2390   41.9250 C   0  0  0  0  0  0  0  0  0  0  0  0
   48.7160   35.0760   40.7040 C   0  0  0  0  0  0  0  0  0  0  0  0
   48.0980   34.4380   39.6150 C   0  0  0  0  0  0  0  0  0  0  0  0
   46.7950   33.9410   39.7700 C   0  0  0  0  0  0  0  0  0  0  0  0
   46.2100   34.1110   40.9740 N   0  0  0  0  0  0  0  0  0  0  0  0
   46.1490   33.2910   38.6800 N   0  0  0  0  0  0  0  0  0  0  0  0
   45.0600   32.5460   38.9190 C   0  0  0  0  0  0  0  0  0  0  0  0
   44.4610   31.9320   37.8450 C   0  0  0  0  0  0  0  0  0  0  0  0
   44.9780   32.0940   36.5950 C   0  0  0  0  0  0  0  0  0  0  0  0
   44.3970   31.4850   35.4700 N   0  0  0  0  0  0  0  0  0  0  0  0
   46.0690   32.8470   36.3880 N   0  0  0  0  0  0  0  0  0  0  0  0
   46.6690   33.4560   37.4330 C   0  0  0  0  0  0  0  0  0  0  0  0
   47.6890   34.1580   37.2260 O   0  0  0  0  0  0  0  0  0  0  0  0
   44.5040   36.0270   44.6230 C   0  0  0  0  0  0  0  0  0  0  0  0
   45.2040   35.9280   43.4030 C   0  0  0  0  0  0  0  0  0  0  0  0
   46.0770   34.8410   43.2440 C   0  0  0  0  0  0  0  0  0  0  0  0
   46.2030   33.9540   44.2530 N   0  0  0  0  0  0  0  0  0  0  0  0
   45.5230   34.0720   45.4050 C   0  0  0  0  0  0  0  0  0  0  0  0
   44.6740   35.1090   45.5900 N   0  0  0  0  0  0  0  0  0  0  0  0
   48.5875   35.7383   42.7770 H   0  0  0  0  0  0  0  0  0  0  0  0
   49.7374   35.4631   40.5742 H   0  0  0  0  0  0  0  0  0  0  0  0
   48.6271   34.3300   38.6567 H   0  0  0  0  0  0  0  0  0  0  0  0
   44.6606   32.4304   39.9374 H   0  0  0  0  0  0  0  0  0  0  0  0
   43.5656   31.3108   37.9945 H   0  0  0  0  0  0  0  0  0  0  0  0
   44.8104   31.6258   34.5371 H   0  0  0  0  0  0  0  0  0  0  0  0
   43.5577   30.8978   35.5781 H   0  0  0  0  0  0  0  0  0  0  0  0
   43.8106   36.8654   44.7853 H   0  0  0  0  0  0  0  0  0  0  0  0
   45.0708   36.6745   42.6062 H   0  0  0  0  0  0  0  0  0  0  0  0
   45.6566   33.3237   46.2001 H   0  0  0  0  0  0  0  0  0  0  0  0
  1 17  1  0
  2  1  2  0
  3  2  1  0
  4  5  1  0
  4  3  2  0
  5  6  2  0
  6  1  1  0
  7  8  1  0
  7  5  1  0
  9  8  2  0
 10  9  1  0
 11 10  1  0
 12 10  2  0
 12 13  1  0
 13  7  1  0
 14 13  2  0
 15 20  2  0
 16 15  1  0
 17 16  2  0
 17 18  1  0
 18 19  2  0
 19 20  1  0
  2 21  1  0
  3 22  1  0
  4 23  1  0
  8 24  1  0
  9 25  1  0
 11 26  1  0
 11 27  1  0
 15 28  1  0
 16 29  1  0
 19 30  1  0
M  ISO  8  21  14  22  14  23  14  24  14  25  14  28  14  29  14  30  14
M  END
>  <minimizedAffinity>  (1) 
-6.29162312

>  <minimizedRMSD>  (1) 
0.331516951

$$$$
