
     RDKit          3D

 33 36  0  0  0  0  0  0  0  0999 V2000
   46.8030   34.7220   42.0850 C   0  0  0  0  0  0  0  0  0  0  0  0
   48.0420   35.2800   41.9720 C   0  0  0  0  0  0  0  0  0  0  0  0
   48.6040   35.1040   40.7140 C   0  0  0  0  0  0  0  0  0  0  0  0
   47.9810   34.4300   39.6660 C   0  0  0  0  0  0  0  0  0  0  0  0
   46.7070   33.8860   39.8640 C   0  0  0  0  0  0  0  0  0  0  0  0
   46.2370   34.0970   41.0890 N   0  0  0  0  0  0  0  0  0  0  0  0
   46.1570   33.2110   38.7060 C   0  0  0  0  0  0  0  0  0  0  0  0
   44.8970   32.7460   38.6930 N   0  0  0  0  0  0  0  0  0  0  0  0
   44.3250   32.1190   37.6750 C   0  0  0  0  0  0  0  0  0  0  0  0
   44.9690   31.8870   36.5380 N   0  0  0  0  0  0  0  0  0  0  0  0
   46.2430   32.3120   36.4440 C   0  0  0  0  0  0  0  0  0  0  0  0
   46.9430   32.0890   35.2820 C   0  0  0  0  0  0  0  0  0  0  0  0
   48.2560   32.5110   35.1450 C   0  0  0  0  0  0  0  0  0  0  0  0
   48.8400   33.1710   36.2320 C   0  0  0  0  0  0  0  0  0  0  0  0
   48.0900   33.3650   37.3680 C   0  0  0  0  0  0  0  0  0  0  0  0
   46.7890   32.9520   37.5170 C   0  0  0  0  0  0  0  0  0  0  0  0
   44.4870   35.9430   44.7600 C   0  0  0  0  0  0  0  0  0  0  0  0
   45.1820   35.8490   43.5480 C   0  0  0  0  0  0  0  0  0  0  0  0
   46.0760   34.8150   43.3340 C   0  0  0  0  0  0  0  0  0  0  0  0
   46.2390   33.9140   44.3510 N   0  0  0  0  0  0  0  0  0  0  0  0
   45.5590   34.0210   45.5150 C   0  0  0  0  0  0  0  0  0  0  0  0
   44.6930   35.0240   45.7200 N   0  0  0  0  0  0  0  0  0  0  0  0
   48.5443   35.8141   42.7920 H   0  0  0  0  0  0  0  0  0  0  0  0
   49.6048   35.5235   40.5338 H   0  0  0  0  0  0  0  0  0  0  0  0
   48.4849   34.3266   38.6937 H   0  0  0  0  0  0  0  0  0  0  0  0
   43.2834   31.7801   37.7757 H   0  0  0  0  0  0  0  0  0  0  0  0
   46.4528   31.5669   34.4470 H   0  0  0  0  0  0  0  0  0  0  0  0
   48.8182   32.3337   34.2163 H   0  0  0  0  0  0  0  0  0  0  0  0
   49.8792   33.5278   36.1787 H   0  0  0  0  0  0  0  0  0  0  0  0
   48.5636   33.8855   38.2134 H   0  0  0  0  0  0  0  0  0  0  0  0
   43.7754   36.7652   44.9262 H   0  0  0  0  0  0  0  0  0  0  0  0
   45.0164   36.6008   42.7623 H   0  0  0  0  0  0  0  0  0  0  0  0
   45.7188   33.2735   46.3060 H   0  0  0  0  0  0  0  0  0  0  0  0
  1 19  1  0
  2  1  2  0
  3  2  1  0
  4  5  1  0
  4  3  2  0
  5  6  2  0
  6  1  1  0
  7  5  1  0
  8  7  2  0
  9  8  1  0
 10  9  2  0
 11 10  1  0
 11 16  2  0
 12 11  1  0
 13 12  2  0
 13 14  1  0
 14 15  2  0
 15 16  1  0
 16  7  1  0
 17 22  2  0
 18 17  1  0
 19 18  2  0
 19 20  1  0
 20 21  2  0
 21 22  1  0
  2 23  1  0
  3 24  1  0
  4 25  1  0
  9 26  1  0
 12 27  1  0
 13 28  1  0
 14 29  1  0
 15 30  1  0
 17 31  1  0
 18 32  1  0
 21 33  1  0
M  ISO  8  23  14  24  14  25  14  26  14  27  14  28  14  29  14  30  14
M  ISO  3  31  14  32  14  33  14
M  END
>  <minimizedAffinity>  (1) 
-6.24173164

>  <minimizedRMSD>  (1) 
0.236180469

$$$$
