
     RDKit          3D

 33 35  0  0  0  0  0  0  0  0999 V2000
   46.9080   34.7840   42.0780 C   0  0  0  0  0  0  0  0  0  0  0  0
   48.1230   35.4240   41.9940 C   0  0  0  0  0  0  0  0  0  0  0  0
   48.7470   35.2990   40.7770 C   0  0  0  0  0  0  0  0  0  0  0  0
   48.2230   34.5920   39.7060 C   0  0  0  0  0  0  0  0  0  0  0  0
   46.9960   33.9740   39.8650 C   0  0  0  0  0  0  0  0  0  0  0  0
   46.3690   34.0910   41.0610 N   0  0  0  0  0  0  0  0  0  0  0  0
   46.3210   33.2130   38.8660 N   0  0  0  0  0  0  0  0  0  0  0  0
   45.2010   32.3210   39.1400 C   0  0  0  0  0  0  0  0  0  0  0  0
   45.2780   31.2290   38.0790 C   0  0  0  0  0  0  0  0  0  0  0  0
   44.8770   31.7570   36.8120 N   0  0  0  0  0  0  0  0  0  0  0  0
   45.5040   33.0390   36.5690 C   0  0  0  0  0  0  0  0  0  0  0  0
   46.7030   33.2660   37.4670 C   0  0  0  0  0  0  0  0  0  0  0  0
   44.4980   35.9190   44.7040 C   0  0  0  0  0  0  0  0  0  0  0  0
   45.2310   35.8630   43.5030 C   0  0  0  0  0  0  0  0  0  0  0  0
   46.1480   34.8440   43.3170 C   0  0  0  0  0  0  0  0  0  0  0  0
   46.3120   33.9240   44.3060 N   0  0  0  0  0  0  0  0  0  0  0  0
   45.5910   34.0010   45.4550 C   0  0  0  0  0  0  0  0  0  0  0  0
   44.7020   34.9730   45.6570 N   0  0  0  0  0  0  0  0  0  0  0  0
   48.5583   35.9887   42.8317 H   0  0  0  0  0  0  0  0  0  0  0  0
   49.7223   35.7900   40.6440 H   0  0  0  0  0  0  0  0  0  0  0  0
   48.7693   34.5242   38.7537 H   0  0  0  0  0  0  0  0  0  0  0  0
   45.2936   31.8861   40.1461 H   0  0  0  0  0  0  0  0  0  0  0  0
   44.2390   32.8534   39.1073 H   0  0  0  0  0  0  0  0  0  0  0  0
   46.3115   30.8588   38.0100 H   0  0  0  0  0  0  0  0  0  0  0  0
   44.6069   30.4032   38.3577 H   0  0  0  0  0  0  0  0  0  0  0  0
   45.1535   31.0994   36.0691 H   0  0  0  0  0  0  0  0  0  0  0  0
   45.8335   33.0797   35.5203 H   0  0  0  0  0  0  0  0  0  0  0  0
   44.7648   33.8243   36.7857 H   0  0  0  0  0  0  0  0  0  0  0  0
   47.4536   32.4866   37.2691 H   0  0  0  0  0  0  0  0  0  0  0  0
   47.1175   34.2624   37.2539 H   0  0  0  0  0  0  0  0  0  0  0  0
   43.7656   36.7229   44.8691 H   0  0  0  0  0  0  0  0  0  0  0  0
   45.0762   36.6212   42.7212 H   0  0  0  0  0  0  0  0  0  0  0  0
   45.7447   33.2430   46.2371 H   0  0  0  0  0  0  0  0  0  0  0  0
  1 15  1  0
  2  1  2  0
  3  2  1  0
  4  5  1  0
  4  3  2  0
  5  6  2  0
  6  1  1  0
  7  8  1  0
  7  5  1  0
  9  8  1  0
 10  9  1  0
 11 10  1  0
 11 12  1  0
 12  7  1  0
 13 18  2  0
 14 13  1  0
 15 14  2  0
 15 16  1  0
 16 17  2  0
 17 18  1  0
  2 19  1  0
  3 20  1  0
  4 21  1  0
  8 22  1  0
  8 23  1  0
  9 24  1  0
  9 25  1  0
 10 26  1  0
 11 27  1  0
 11 28  1  0
 12 29  1  0
 12 30  1  0
 13 31  1  0
 14 32  1  0
 17 33  1  0
M  ISO  8  19  14  20  14  21  14  22  13  23  13  24  13  25  13  26   5
M  ISO  7  27  13  28  13  29  13  30  13  31  14  32  14  33  14
M  END
>  <minimizedAffinity>  (1) 
-5.74046898

>  <minimizedRMSD>  (1) 
0.231157184

$$$$
