
     RDKit          3D

 34 36  0  0  0  0  0  0  0  0999 V2000
   46.9340   34.7670   42.0640 C   0  0  0  0  0  0  0  0  0  0  0  0
   48.0910   35.5160   41.9810 C   0  0  0  0  0  0  0  0  0  0  0  0
   48.7350   35.3820   40.7590 C   0  0  0  0  0  0  0  0  0  0  0  0
   48.2690   34.5820   39.7280 C   0  0  0  0  0  0  0  0  0  0  0  0
   47.0910   33.8650   39.9050 C   0  0  0  0  0  0  0  0  0  0  0  0
   46.4660   33.9950   41.0920 N   0  0  0  0  0  0  0  0  0  0  0  0
   46.4680   32.9980   38.9570 N   0  0  0  0  0  0  0  0  0  0  0  0
   46.5640   33.1880   37.5230 C   0  0  0  0  0  0  0  0  0  0  0  0
   45.1720   33.1000   36.9620 C   0  0  0  0  0  0  0  0  0  0  0  0
   44.0850   33.2640   37.9890 C   0  0  0  0  0  0  0  0  0  0  0  0
   44.2210   32.2790   39.1290 C   0  0  0  0  0  0  0  0  0  0  0  0
   45.6720   31.8370   39.3000 C   0  0  0  0  0  0  0  0  0  0  0  0
   44.5100   35.8820   44.7010 C   0  0  0  0  0  0  0  0  0  0  0  0
   45.2380   35.8380   43.5000 C   0  0  0  0  0  0  0  0  0  0  0  0
   46.1650   34.8290   43.3120 C   0  0  0  0  0  0  0  0  0  0  0  0
   46.3290   33.9180   44.3090 N   0  0  0  0  0  0  0  0  0  0  0  0
   45.6180   33.9800   45.4550 C   0  0  0  0  0  0  0  0  0  0  0  0
   44.7210   34.9460   45.6520 N   0  0  0  0  0  0  0  0  0  0  0  0
   48.4632   36.1521   42.7976 H   0  0  0  0  0  0  0  0  0  0  0  0
   49.6680   35.9425   40.5999 H   0  0  0  0  0  0  0  0  0  0  0  0
   48.8244   34.5150   38.7809 H   0  0  0  0  0  0  0  0  0  0  0  0
   46.9960   34.1754   37.3029 H   0  0  0  0  0  0  0  0  0  0  0  0
   47.2125   32.4219   37.0730 H   0  0  0  0  0  0  0  0  0  0  0  0
   45.0540   33.8892   36.2049 H   0  0  0  0  0  0  0  0  0  0  0  0
   45.0622   32.0892   36.5422 H   0  0  0  0  0  0  0  0  0  0  0  0
   44.1332   34.2850   38.3956 H   0  0  0  0  0  0  0  0  0  0  0  0
   43.1214   33.0750   37.4932 H   0  0  0  0  0  0  0  0  0  0  0  0
   43.8782   32.7558   40.0592 H   0  0  0  0  0  0  0  0  0  0  0  0
   43.6094   31.3934   38.9017 H   0  0  0  0  0  0  0  0  0  0  0  0
   45.9017   30.9992   38.6252 H   0  0  0  0  0  0  0  0  0  0  0  0
   45.8764   31.4870   40.3226 H   0  0  0  0  0  0  0  0  0  0  0  0
   43.7690   36.6779   44.8667 H   0  0  0  0  0  0  0  0  0  0  0  0
   45.0729   36.5958   42.7199 H   0  0  0  0  0  0  0  0  0  0  0  0
   45.7811   33.2233   46.2365 H   0  0  0  0  0  0  0  0  0  0  0  0
  1 15  1  0
  2  1  2  0
  3  2  1  0
  4  5  1  0
  4  3  2  0
  5  6  2  0
  6  1  1  0
  7 12  1  0
  7  5  1  0
  8  7  1  0
  9  8  1  0
  9 10  1  0
 10 11  1  0
 11 12  1  0
 13 18  2  0
 14 13  1  0
 15 14  2  0
 15 16  1  0
 16 17  2  0
 17 18  1  0
  2 19  1  0
  3 20  1  0
  4 21  1  0
  8 22  1  0
  8 23  1  0
  9 24  1  0
  9 25  1  0
 10 26  1  0
 10 27  1  0
 11 28  1  0
 11 29  1  0
 12 30  1  0
 12 31  1  0
 13 32  1  0
 14 33  1  0
 17 34  1  0
M  ISO  8  19  14  20  14  21  14  22  13  23  13  24  13  25  13  26  13
M  ISO  8  27  13  28  13  29  13  30  13  31  13  32  14  33  14  34  14
M  END
>  <minimizedAffinity>  (1) 
-5.68715954

>  <minimizedRMSD>  (1) 
0.250871927

$$$$
