
     RDKit          3D

 32 34  0  0  0  0  0  0  0  0999 V2000
   46.9430   34.7970   42.0650 C   0  0  0  0  0  0  0  0  0  0  0  0
   48.1430   35.4540   42.0070 C   0  0  0  0  0  0  0  0  0  0  0  0
   48.7760   35.3400   40.7780 C   0  0  0  0  0  0  0  0  0  0  0  0
   48.2520   34.6270   39.6950 C   0  0  0  0  0  0  0  0  0  0  0  0
   47.0330   33.9950   39.8500 C   0  0  0  0  0  0  0  0  0  0  0  0
   46.4160   34.1030   41.0370 N   0  0  0  0  0  0  0  0  0  0  0  0
   44.5010   35.9010   44.6820 C   0  0  0  0  0  0  0  0  0  0  0  0
   45.2430   35.8530   43.4950 C   0  0  0  0  0  0  0  0  0  0  0  0
   46.1790   34.8380   43.2950 C   0  0  0  0  0  0  0  0  0  0  0  0
   46.3200   33.9320   44.2840 N   0  0  0  0  0  0  0  0  0  0  0  0
   45.6040   33.9810   45.4290 C   0  0  0  0  0  0  0  0  0  0  0  0
   44.6990   34.9590   45.6270 N   0  0  0  0  0  0  0  0  0  0  0  0
   45.0820   31.7170   36.8680 C   0  0  0  0  0  0  0  0  0  0  0  0
   44.7100   31.6060   38.1970 C   0  0  0  0  0  0  0  0  0  0  0  0
   45.3640   32.3650   39.1700 C   0  0  0  0  0  0  0  0  0  0  0  0
   46.3770   33.2220   38.8020 C   0  0  0  0  0  0  0  0  0  0  0  0
   46.7180   33.3030   37.4700 C   0  0  0  0  0  0  0  0  0  0  0  0
   46.1080   32.5790   36.4650 C   0  0  0  0  0  0  0  0  0  0  0  0
   44.3090   30.7960   35.5810 S   0  0  0  0  0  0  0  0  0  0  0  0
   44.5800   31.4530   34.2580 O   0  0  0  0  0  0  0  0  0  0  0  0
   42.8230   30.7600   35.7640 O   0  0  0  0  0  0  0  0  0  0  0  0
   48.5641   36.0174   42.8528 H   0  0  0  0  0  0  0  0  0  0  0  0
   49.7472   35.8398   40.6476 H   0  0  0  0  0  0  0  0  0  0  0  0
   48.7977   34.5706   38.7416 H   0  0  0  0  0  0  0  0  0  0  0  0
   43.7627   36.7005   44.8423 H   0  0  0  0  0  0  0  0  0  0  0  0
   45.0874   36.6170   42.7191 H   0  0  0  0  0  0  0  0  0  0  0  0
   45.7612   33.2171   46.2047 H   0  0  0  0  0  0  0  0  0  0  0  0
   43.8999   30.9205   38.4863 H   0  0  0  0  0  0  0  0  0  0  0  0
   45.0709   32.2785   40.2267 H   0  0  0  0  0  0  0  0  0  0  0  0
   47.5298   33.9898   37.1883 H   0  0  0  0  0  0  0  0  0  0  0  0
   46.4102   32.6740   35.4116 H   0  0  0  0  0  0  0  0  0  0  0  0
   44.8157   29.5237   35.6191 H   0  0  0  0  0  0  0  0  0  0  0  0
  1  9  1  0
  2  1  2  0
  3  2  1  0
  4  5  1  0
  4  3  2  0
  5  6  2  0
  6  1  1  0
  7 12  2  0
  8  7  1  0
  9  8  2  0
  9 10  1  0
 10 11  2  0
 11 12  1  0
 13 14  2  0
 14 15  1  0
 16 15  2  0
 16  5  1  0
 17 16  1  0
 18 13  1  0
 18 17  2  0
 19 21  2  0
 19 13  1  0
 20 19  2  0
  2 22  1  0
  3 23  1  0
  4 24  1  0
  7 25  1  0
  8 26  1  0
 11 27  1  0
 14 28  1  0
 15 29  1  0
 17 30  1  0
 18 31  1  0
 19 32  1  0
M  ISO  8  22  14  23  14  24  14  25  14  26  14  27  14  28  14  29  14
M  ISO  3  30  14  31  14  32  11
M  END
>  <minimizedAffinity>  (1) 
-5.63713074

>  <minimizedRMSD>  (1) 
0.800944805

$$$$
