
     RDKit          3D

 26 28  0  0  0  0  0  0  0  0999 V2000
   46.9020   34.7770   42.0570 C   0  0  0  0  0  0  0  0  0  0  0  0
   48.1300   35.4120   41.9970 C   0  0  0  0  0  0  0  0  0  0  0  0
   48.7620   35.2940   40.7780 C   0  0  0  0  0  0  0  0  0  0  0  0
   48.2180   34.5940   39.6880 C   0  0  0  0  0  0  0  0  0  0  0  0
   46.9840   33.9890   39.8410 C   0  0  0  0  0  0  0  0  0  0  0  0
   46.3710   34.1110   41.0410 N   0  0  0  0  0  0  0  0  0  0  0  0
   44.5030   35.9110   44.6930 C   0  0  0  0  0  0  0  0  0  0  0  0
   45.2240   35.8740   43.4810 C   0  0  0  0  0  0  0  0  0  0  0  0
   46.1510   34.8370   43.2930 C   0  0  0  0  0  0  0  0  0  0  0  0
   46.2900   33.9400   44.2920 N   0  0  0  0  0  0  0  0  0  0  0  0
   45.5900   33.9950   45.4420 C   0  0  0  0  0  0  0  0  0  0  0  0
   44.7020   34.9760   45.6390 N   0  0  0  0  0  0  0  0  0  0  0  0
   46.3720   33.2490   38.7440 C   0  0  0  0  0  0  0  0  0  0  0  0
   45.7350   32.0330   38.8870 C   0  0  0  0  0  0  0  0  0  0  0  0
   45.3020   31.6650   37.6590 N   0  0  0  0  0  0  0  0  0  0  0  0
   45.6820   32.6600   36.8030 C   0  0  0  0  0  0  0  0  0  0  0  0
   46.3480   33.6530   37.4600 N   0  0  0  0  0  0  0  0  0  0  0  0
   48.5628   35.9615   42.8459 H   0  0  0  0  0  0  0  0  0  0  0  0
   49.7441   35.7731   40.6518 H   0  0  0  0  0  0  0  0  0  0  0  0
   48.7617   34.5287   38.7340 H   0  0  0  0  0  0  0  0  0  0  0  0
   43.7703   36.7130   44.8661 H   0  0  0  0  0  0  0  0  0  0  0  0
   45.0641   36.6368   42.7047 H   0  0  0  0  0  0  0  0  0  0  0  0
   45.7488   33.2329   46.2192 H   0  0  0  0  0  0  0  0  0  0  0  0
   45.6040   31.4695   39.8226 H   0  0  0  0  0  0  0  0  0  0  0  0
   45.4771   32.6603   35.7223 H   0  0  0  0  0  0  0  0  0  0  0  0
   46.7434   34.5173   37.0630 H   0  0  0  0  0  0  0  0  0  0  0  0
  1  9  1  0
  2  1  2  0
  3  2  1  0
  4  5  1  0
  4  3  2  0
  5  6  2  0
  6  1  1  0
  7 12  2  0
  8  7  1  0
  9  8  2  0
  9 10  1  0
 10 11  2  0
 11 12  1  0
 13 14  2  0
 13  5  1  0
 15 14  1  0
 16 17  1  0
 16 15  2  0
 17 13  1  0
  2 18  1  0
  3 19  1  0
  4 20  1  0
  7 21  1  0
  8 22  1  0
 11 23  1  0
 14 24  1  0
 16 25  1  0
 17 26  1  0
M  ISO  8  18  14  19  14  20  14  21  14  22  14  23  14  24  14  25  14
M  ISO  1  26   9
M  END
>  <minimizedAffinity>  (1) 
-5.45491076

>  <minimizedRMSD>  (1) 
0.24819544

$$$$
