
     RDKit          3D

 31 32  0  0  0  0  0  0  0  0999 V2000
   46.8690   34.7450   41.9630 C   0  0  0  0  0  0  0  0  0  0  0  0
   48.0670   35.3970   41.8430 C   0  0  0  0  0  0  0  0  0  0  0  0
   48.6860   35.2310   40.6250 C   0  0  0  0  0  0  0  0  0  0  0  0
   48.1520   34.4710   39.5970 C   0  0  0  0  0  0  0  0  0  0  0  0
   46.9230   33.8360   39.7980 C   0  0  0  0  0  0  0  0  0  0  0  0
   46.3140   33.9970   40.9950 N   0  0  0  0  0  0  0  0  0  0  0  0
   44.5110   36.0110   44.5810 C   0  0  0  0  0  0  0  0  0  0  0  0
   45.2230   35.9180   43.3830 C   0  0  0  0  0  0  0  0  0  0  0  0
   46.1190   34.8510   43.2120 C   0  0  0  0  0  0  0  0  0  0  0  0
   46.2450   33.9660   44.2220 N   0  0  0  0  0  0  0  0  0  0  0  0
   45.5420   34.0810   45.3750 C   0  0  0  0  0  0  0  0  0  0  0  0
   44.6860   35.0870   45.5560 N   0  0  0  0  0  0  0  0  0  0  0  0
   46.2620   32.9950   38.7570 C   0  0  0  0  0  0  0  0  0  0  0  0
   46.6610   31.5380   38.9390 C   0  0  0  0  0  0  0  0  0  0  0  0
   44.7670   33.0790   38.7790 C   0  0  0  0  0  0  0  0  0  0  0  0
   46.7930   33.3690   37.3680 C   0  0  0  0  0  0  0  0  0  0  0  0
   48.4989   36.0032   42.6529 H   0  0  0  0  0  0  0  0  0  0  0  0
   49.6538   35.7269   40.4593 H   0  0  0  0  0  0  0  0  0  0  0  0
   48.6853   34.3692   38.6403 H   0  0  0  0  0  0  0  0  0  0  0  0
   43.8038   36.8396   44.7337 H   0  0  0  0  0  0  0  0  0  0  0  0
   45.0843   36.6664   42.5889 H   0  0  0  0  0  0  0  0  0  0  0  0
   45.6794   33.3349   46.1715 H   0  0  0  0  0  0  0  0  0  0  0  0
   46.7244   31.3065   40.0125 H   0  0  0  0  0  0  0  0  0  0  0  0
   45.9073   30.8898   38.4680 H   0  0  0  0  0  0  0  0  0  0  0  0
   47.6398   31.3643   38.4680 H   0  0  0  0  0  0  0  0  0  0  0  0
   44.4162   33.0987   39.8214 H   0  0  0  0  0  0  0  0  0  0  0  0
   44.4437   33.9967   38.2659 H   0  0  0  0  0  0  0  0  0  0  0  0
   44.3430   32.2033   38.2659 H   0  0  0  0  0  0  0  0  0  0  0  0
   47.6880   33.9994   37.4751 H   0  0  0  0  0  0  0  0  0  0  0  0
   47.0531   32.4537   36.8162 H   0  0  0  0  0  0  0  0  0  0  0  0
   46.0188   33.9222   36.8162 H   0  0  0  0  0  0  0  0  0  0  0  0
  1  9  1  0
  2  1  2  0
  3  2  1  0
  4  5  1  0
  4  3  2  0
  5  6  2  0
  6  1  1  0
  7 12  2  0
  8  7  1  0
  9  8  2  0
  9 10  1  0
 10 11  2  0
 11 12  1  0
 13 15  1  0
 13 14  1  0
 13  5  1  0
 16 13  1  0
  2 17  1  0
  3 18  1  0
  4 19  1  0
  7 20  1  0
  8 21  1  0
 11 22  1  0
 14 23  1  0
 14 24  1  0
 14 25  1  0
 15 26  1  0
 15 27  1  0
 15 28  1  0
 16 29  1  0
 16 30  1  0
 16 31  1  0
M  ISO  8  17  14  18  14  19  14  20  14  21  14  22  14  23   8  24   8
M  ISO  7  25   8  26   8  27   8  28   8  29   8  30   8  31   8
M  END
>  <minimizedAffinity>  (1) 
-5.18604469

>  <minimizedRMSD>  (1) 
0.223618105

$$$$
