
     RDKit          3D

 22 23  0  0  0  0  0  0  0  0999 V2000
   46.8190   34.7090   42.0220 C   0  0  0  0  0  0  0  0  0  0  0  0
   48.0390   35.3650   41.9210 C   0  0  0  0  0  0  0  0  0  0  0  0
   48.6340   35.1950   40.6820 C   0  0  0  0  0  0  0  0  0  0  0  0
   48.0930   34.4560   39.6430 C   0  0  0  0  0  0  0  0  0  0  0  0
   46.8610   33.8370   39.8510 C   0  0  0  0  0  0  0  0  0  0  0  0
   46.2710   33.9920   41.0460 N   0  0  0  0  0  0  0  0  0  0  0  0
   44.5010   35.9400   44.6950 C   0  0  0  0  0  0  0  0  0  0  0  0
   45.1940   35.8560   43.4790 C   0  0  0  0  0  0  0  0  0  0  0  0
   46.0920   34.8110   43.2800 C   0  0  0  0  0  0  0  0  0  0  0  0
   46.2460   33.9240   44.2900 N   0  0  0  0  0  0  0  0  0  0  0  0
   45.5740   34.0150   45.4570 C   0  0  0  0  0  0  0  0  0  0  0  0
   44.7020   35.0220   45.6600 N   0  0  0  0  0  0  0  0  0  0  0  0
   46.1880   33.0200   38.8050 C   0  0  0  0  0  0  0  0  0  0  0  0
   48.4839   35.9550   42.7358 H   0  0  0  0  0  0  0  0  0  0  0  0
   49.6056   35.6816   40.5109 H   0  0  0  0  0  0  0  0  0  0  0  0
   48.6197   34.3602   38.6821 H   0  0  0  0  0  0  0  0  0  0  0  0
   43.7884   36.7611   44.8620 H   0  0  0  0  0  0  0  0  0  0  0  0
   45.0301   36.6067   42.6918 H   0  0  0  0  0  0  0  0  0  0  0  0
   45.7387   33.2650   46.2446 H   0  0  0  0  0  0  0  0  0  0  0  0
   45.5587   32.2560   39.2850 H   0  0  0  0  0  0  0  0  0  0  0  0
   45.5607   33.6711   38.1784 H   0  0  0  0  0  0  0  0  0  0  0  0
   46.9471   32.5290   38.1784 H   0  0  0  0  0  0  0  0  0  0  0  0
  1  9  1  0
  2  1  2  0
  3  2  1  0
  4  5  1  0
  4  3  2  0
  5  6  2  0
  6  1  1  0
  7 12  2  0
  8  7  1  0
  9  8  2  0
  9 10  1  0
 10 11  2  0
 11 12  1  0
 13  5  1  0
  2 14  1  0
  3 15  1  0
  4 16  1  0
  7 17  1  0
  8 18  1  0
 11 19  1  0
 13 20  1  0
 13 21  1  0
 13 22  1  0
M  ISO  8  14  14  15  14  16  14  17  14  18  14  19  14  20   8  21   8
M  ISO  1  22   8
M  END
>  <minimizedAffinity>  (1) 
-4.93744707

>  <minimizedRMSD>  (1) 
0.0225155614

$$$$
