
     RDKit          3D

 21 22  0  0  0  0  0  0  0  0999 V2000
   46.8450   34.7370   41.9790 C   0  0  0  0  0  0  0  0  0  0  0  0
   48.0470   35.3860   41.8590 C   0  0  0  0  0  0  0  0  0  0  0  0
   48.6680   35.2170   40.6420 C   0  0  0  0  0  0  0  0  0  0  0  0
   48.1370   34.4560   39.6040 C   0  0  0  0  0  0  0  0  0  0  0  0
   46.9150   33.8330   39.8110 C   0  0  0  0  0  0  0  0  0  0  0  0
   46.2990   33.9950   41.0080 N   0  0  0  0  0  0  0  0  0  0  0  0
   44.5080   36.0120   44.6130 C   0  0  0  0  0  0  0  0  0  0  0  0
   45.2220   35.9040   43.4130 C   0  0  0  0  0  0  0  0  0  0  0  0
   46.1080   34.8470   43.2200 C   0  0  0  0  0  0  0  0  0  0  0  0
   46.2380   33.9490   44.2330 N   0  0  0  0  0  0  0  0  0  0  0  0
   45.5460   34.0580   45.3900 C   0  0  0  0  0  0  0  0  0  0  0  0
   44.6890   35.0820   45.5750 N   0  0  0  0  0  0  0  0  0  0  0  0
   46.3240   33.0310   38.7600 C   0  0  0  0  0  0  0  0  0  0  0  0
   46.5040   33.3150   37.5540 O   0  0  0  0  0  0  0  0  0  0  0  0
   48.4796   35.9920   42.6688 H   0  0  0  0  0  0  0  0  0  0  0  0
   49.6377   35.7107   40.4807 H   0  0  0  0  0  0  0  0  0  0  0  0
   48.6708   34.3519   38.6479 H   0  0  0  0  0  0  0  0  0  0  0  0
   43.8074   36.8454   44.7701 H   0  0  0  0  0  0  0  0  0  0  0  0
   45.0828   36.6553   42.6217 H   0  0  0  0  0  0  0  0  0  0  0  0
   45.6830   33.3082   46.1831 H   0  0  0  0  0  0  0  0  0  0  0  0
   45.7077   32.1593   39.0252 H   0  0  0  0  0  0  0  0  0  0  0  0
  1  9  1  0
  2  1  2  0
  3  2  1  0
  4  5  1  0
  4  3  2  0
  5  6  2  0
  6  1  1  0
  7 12  2  0
  8  7  1  0
  9  8  2  0
  9 10  1  0
 10 11  2  0
 11 12  1  0
 13  5  1  0
 14 13  2  0
  2 15  1  0
  3 16  1  0
  4 17  1  0
  7 18  1  0
  8 19  1  0
 11 20  1  0
 13 21  1  0
M  ISO  7  15  14  16  14  17  14  18  14  19  14  20  14  21   6
M  END
>  <minimizedAffinity>  (1) 
-4.87874937

>  <minimizedRMSD>  (1) 
0.119464584

$$$$
