
     RDKit          3D

 28 30  0  0  0  0  0  0  0  0999 V2000
   46.8460   34.7460   42.0340 C   0  0  0  0  0  0  0  0  0  0  0  0
   48.0680   35.3590   41.9300 C   0  0  0  0  0  0  0  0  0  0  0  0
   48.6840   35.2100   40.7110 C   0  0  0  0  0  0  0  0  0  0  0  0
   48.1160   34.4910   39.6490 C   0  0  0  0  0  0  0  0  0  0  0  0
   46.8770   33.9040   39.8360 C   0  0  0  0  0  0  0  0  0  0  0  0
   46.2800   34.0530   41.0360 N   0  0  0  0  0  0  0  0  0  0  0  0
   44.5030   35.9270   44.6940 C   0  0  0  0  0  0  0  0  0  0  0  0
   45.2030   35.8710   43.4750 C   0  0  0  0  0  0  0  0  0  0  0  0
   46.1020   34.8390   43.2850 C   0  0  0  0  0  0  0  0  0  0  0  0
   46.2670   33.9230   44.2900 N   0  0  0  0  0  0  0  0  0  0  0  0
   45.5780   34.0060   45.4510 C   0  0  0  0  0  0  0  0  0  0  0  0
   44.7020   35.0030   45.6500 N   0  0  0  0  0  0  0  0  0  0  0  0
   46.2420   33.1450   38.7650 C   0  0  0  0  0  0  0  0  0  0  0  0
   46.6990   33.3060   37.4740 C   0  0  0  0  0  0  0  0  0  0  0  0
   46.1170   32.6000   36.4310 C   0  0  0  0  0  0  0  0  0  0  0  0
   45.0790   31.7610   36.8300 C   0  0  0  0  0  0  0  0  0  0  0  0
   44.6020   31.5800   38.1120 C   0  0  0  0  0  0  0  0  0  0  0  0
   45.2320   32.3140   39.0760 N   0  0  0  0  0  0  0  0  0  0  0  0
   48.5197   35.9256   42.7576 H   0  0  0  0  0  0  0  0  0  0  0  0
   49.6688   35.6764   40.5608 H   0  0  0  0  0  0  0  0  0  0  0  0
   48.6439   34.3959   38.6886 H   0  0  0  0  0  0  0  0  0  0  0  0
   43.7818   36.7393   44.8676 H   0  0  0  0  0  0  0  0  0  0  0  0
   45.0391   36.6283   42.6942 H   0  0  0  0  0  0  0  0  0  0  0  0
   45.7366   33.2522   46.2363 H   0  0  0  0  0  0  0  0  0  0  0  0
   47.5295   33.9979   37.2700 H   0  0  0  0  0  0  0  0  0  0  0  0
   46.4450   32.6941   35.3853 H   0  0  0  0  0  0  0  0  0  0  0  0
   44.5861   31.1796   36.0369 H   0  0  0  0  0  0  0  0  0  0  0  0
   43.7735   30.8936   38.3412 H   0  0  0  0  0  0  0  0  0  0  0  0
  1  9  1  0
  2  1  2  0
  3  2  1  0
  4  5  1  0
  4  3  2  0
  5  6  2  0
  6  1  1  0
  7 12  2  0
  8  7  1  0
  9  8  2  0
  9 10  1  0
 10 11  2  0
 11 12  1  0
 13 18  1  0
 13  5  1  0
 14 13  2  0
 15 16  2  0
 15 14  1  0
 16 17  1  0
 17 18  2  0
  2 19  1  0
  3 20  1  0
  4 21  1  0
  7 22  1  0
  8 23  1  0
 11 24  1  0
 14 25  1  0
 15 26  1  0
 16 27  1  0
 17 28  1  0
M  ISO  8  19  14  20  14  21  14  22  14  23  14  24  14  25  14  26  14
M  ISO  2  27  14  28  14
M  END
>  <minimizedAffinity>  (1) 
-5.4324913

>  <minimizedRMSD>  (1) 
0.449926704

$$$$
