
     RDKit          3D

 39 43  0  0  0  0  0  0  0  0999 V2000
   46.0530   33.1240   38.8640 C   0  0  0  0  0  0  0  0  0  0  0  0
   46.7880   32.5100   37.8820 C   0  0  0  0  0  0  0  0  0  0  0  0
   46.1440   31.8040   36.8690 C   0  0  0  0  0  0  0  0  0  0  0  0
   44.7630   31.7910   36.9550 C   0  0  0  0  0  0  0  0  0  0  0  0
   44.0020   32.3950   37.9210 C   0  0  0  0  0  0  0  0  0  0  0  0
   44.6980   33.0700   38.8840 N   0  0  0  0  0  0  0  0  0  0  0  0
   42.5820   32.3220   37.9210 N   0  0  0  0  0  0  0  0  0  0  0  0
   41.8050   31.3460   37.4070 C   0  0  0  0  0  0  0  0  0  0  0  0
   40.4890   31.6200   37.5940 N   0  0  0  0  0  0  0  0  0  0  0  0
   40.4040   32.7910   38.2380 C   0  0  0  0  0  0  0  0  0  0  0  0
   39.3770   33.6070   38.7150 C   0  0  0  0  0  0  0  0  0  0  0  0
   39.6530   34.7650   39.3420 N   0  0  0  0  0  0  0  0  0  0  0  0
   40.9280   35.1780   39.5330 C   0  0  0  0  0  0  0  0  0  0  0  0
   41.9490   34.4120   39.0840 N   0  0  0  0  0  0  0  0  0  0  0  0
   41.7120   33.2350   38.4450 C   0  0  0  0  0  0  0  0  0  0  0  0
   46.7630   34.7130   42.1170 C   0  0  0  0  0  0  0  0  0  0  0  0
   48.0060   35.2750   41.9910 C   0  0  0  0  0  0  0  0  0  0  0  0
   48.5930   35.0930   40.7620 C   0  0  0  0  0  0  0  0  0  0  0  0
   47.9770   34.3910   39.7120 C   0  0  0  0  0  0  0  0  0  0  0  0
   46.7260   33.8570   39.9160 C   0  0  0  0  0  0  0  0  0  0  0  0
   46.1560   34.0410   41.1310 N   0  0  0  0  0  0  0  0  0  0  0  0
   44.4970   35.9740   44.7970 C   0  0  0  0  0  0  0  0  0  0  0  0
   45.1760   35.8850   43.5670 C   0  0  0  0  0  0  0  0  0  0  0  0
   46.0420   34.8390   43.3730 C   0  0  0  0  0  0  0  0  0  0  0  0
   46.1860   33.9520   44.3920 N   0  0  0  0  0  0  0  0  0  0  0  0
   45.5320   34.0450   45.5630 C   0  0  0  0  0  0  0  0  0  0  0  0
   44.6790   35.0700   45.7630 N   0  0  0  0  0  0  0  0  0  0  0  0
   47.8860   32.5753   37.8947 H   0  0  0  0  0  0  0  0  0  0  0  0
   46.6915   31.2953   36.0618 H   0  0  0  0  0  0  0  0  0  0  0  0
   44.2227   31.2414   36.1701 H   0  0  0  0  0  0  0  0  0  0  0  0
   42.1878   30.4465   36.9027 H   0  0  0  0  0  0  0  0  0  0  0  0
   38.3299   33.2998   38.5767 H   0  0  0  0  0  0  0  0  0  0  0  0
   41.1322   36.1279   40.0487 H   0  0  0  0  0  0  0  0  0  0  0  0
   48.4945   35.8271   42.8074 H   0  0  0  0  0  0  0  0  0  0  0  0
   49.5935   35.5173   40.5918 H   0  0  0  0  0  0  0  0  0  0  0  0
   48.4861   34.2707   38.7444 H   0  0  0  0  0  0  0  0  0  0  0  0
   43.8000   36.8079   44.9664 H   0  0  0  0  0  0  0  0  0  0  0  0
   45.0159   36.6366   42.7799 H   0  0  0  0  0  0  0  0  0  0  0  0
   45.6911   33.2928   46.3497 H   0  0  0  0  0  0  0  0  0  0  0  0
  1  6  1  0
  1 20  1  0
  2  1  2  0
  3  4  2  0
  3  2  1  0
  4  5  1  0
  5  7  1  0
  5  6  2  0
  7 15  1  0
  8  9  2  0
  8  7  1  0
  9 10  1  0
 10 15  2  0
 10 11  1  0
 11 12  2  0
 12 13  1  0
 14 13  2  0
 15 14  1  0
 16 24  1  0
 17 16  2  0
 18 17  1  0
 19 20  1  0
 19 18  2  0
 20 21  2  0
 21 16  1  0
 22 27  2  0
 23 22  1  0
 24 23  2  0
 24 25  1  0
 25 26  2  0
 26 27  1  0
  2 28  1  0
  3 29  1  0
  4 30  1  0
  8 31  1  0
 11 32  1  0
 13 33  1  0
 17 34  1  0
 18 35  1  0
 19 36  1  0
 22 37  1  0
 23 38  1  0
 26 39  1  0
M  ISO  8  28  14  29  14  30  14  31  14  32  14  33  14  34  14  35  14
M  ISO  4  36  14  37  14  38  14  39  14
M  END
>  <minimizedAffinity>  (1) 
-7.29851055

>  <minimizedRMSD>  (1) 
2.01432514

$$$$
