
     RDKit          3D

 38 41  0  0  0  0  0  0  0  0999 V2000
   46.7990   34.7380   42.0670 C   0  0  0  0  0  0  0  0  0  0  0  0
   48.0380   35.2870   41.9590 C   0  0  0  0  0  0  0  0  0  0  0  0
   48.6390   35.1150   40.7330 C   0  0  0  0  0  0  0  0  0  0  0  0
   48.0270   34.4270   39.6770 C   0  0  0  0  0  0  0  0  0  0  0  0
   46.7720   33.8980   39.8590 C   0  0  0  0  0  0  0  0  0  0  0  0
   46.1940   34.0780   41.0720 N   0  0  0  0  0  0  0  0  0  0  0  0
   46.1050   33.1800   38.7920 C   0  0  0  0  0  0  0  0  0  0  0  0
   46.8390   32.6460   37.7650 C   0  0  0  0  0  0  0  0  0  0  0  0
   46.2130   31.9530   36.7360 C   0  0  0  0  0  0  0  0  0  0  0  0
   44.8360   31.8670   36.8580 C   0  0  0  0  0  0  0  0  0  0  0  0
   44.0710   32.3920   37.8750 C   0  0  0  0  0  0  0  0  0  0  0  0
   44.7560   33.0610   38.8520 N   0  0  0  0  0  0  0  0  0  0  0  0
   42.6670   32.2540   37.9160 N   0  0  0  0  0  0  0  0  0  0  0  0
   41.8870   31.2230   37.5320 C   0  0  0  0  0  0  0  0  0  0  0  0
   40.5130   31.3190   37.6700 C   0  0  0  0  0  0  0  0  0  0  0  0
   39.9250   32.4510   38.1910 C   0  0  0  0  0  0  0  0  0  0  0  0
   38.6840   32.5360   38.3150 O   0  0  0  0  0  0  0  0  0  0  0  0
   40.7300   33.4520   38.5600 N   0  0  0  0  0  0  0  0  0  0  0  0
   42.0720   33.3680   38.4300 C   0  0  0  0  0  0  0  0  0  0  0  0
   42.6870   34.4140   38.8300 O   0  0  0  0  0  0  0  0  0  0  0  0
   44.4980   35.9660   44.7370 C   0  0  0  0  0  0  0  0  0  0  0  0
   45.1870   35.8940   43.5130 C   0  0  0  0  0  0  0  0  0  0  0  0
   46.0600   34.8550   43.3210 C   0  0  0  0  0  0  0  0  0  0  0  0
   46.2200   33.9330   44.3340 N   0  0  0  0  0  0  0  0  0  0  0  0
   45.5340   34.0380   45.5030 C   0  0  0  0  0  0  0  0  0  0  0  0
   44.6800   35.0490   45.7000 N   0  0  0  0  0  0  0  0  0  0  0  0
   48.5221   35.8263   42.7865 H   0  0  0  0  0  0  0  0  0  0  0  0
   49.6430   35.5358   40.5753 H   0  0  0  0  0  0  0  0  0  0  0  0
   48.5451   34.3117   38.7135 H   0  0  0  0  0  0  0  0  0  0  0  0
   47.9323   32.7670   37.7553 H   0  0  0  0  0  0  0  0  0  0  0  0
   46.7652   31.5095   35.8944 H   0  0  0  0  0  0  0  0  0  0  0  0
   44.3008   31.3258   36.0639 H   0  0  0  0  0  0  0  0  0  0  0  0
   42.3394   30.3124   37.1122 H   0  0  0  0  0  0  0  0  0  0  0  0
   39.8789   30.4761   37.3580 H   0  0  0  0  0  0  0  0  0  0  0  0
   40.3166   34.3094   38.9536 H   0  0  0  0  0  0  0  0  0  0  0  0
   43.7936   36.7931   44.9091 H   0  0  0  0  0  0  0  0  0  0  0  0
   45.0295   36.6512   42.7308 H   0  0  0  0  0  0  0  0  0  0  0  0
   45.6821   33.2865   46.2925 H   0  0  0  0  0  0  0  0  0  0  0  0
  1 23  1  0
  2  1  2  0
  3  2  1  0
  4  5  1  0
  4  3  2  0
  5  6  2  0
  6  1  1  0
  7 12  1  0
  7  5  1  0
  8  7  2  0
  9 10  2  0
  9  8  1  0
 10 11  1  0
 11 13  1  0
 11 12  2  0
 13 19  1  0
 14 15  2  0
 14 13  1  0
 15 16  1  0
 16 17  2  0
 16 18  1  0
 19 18  1  0
 19 20  2  0
 21 26  2  0
 22 21  1  0
 23 22  2  0
 23 24  1  0
 24 25  2  0
 25 26  1  0
  2 27  1  0
  3 28  1  0
  4 29  1  0
  8 30  1  0
  9 31  1  0
 10 32  1  0
 14 33  1  0
 15 34  1  0
 18 35  1  0
 21 36  1  0
 22 37  1  0
 25 38  1  0
M  ISO  8  27  14  28  14  29  14  30  14  31  14  32  14  33  14  34  14
M  ISO  4  35   9  36  14  37  14  38  14
M  END
>  <minimizedAffinity>  (1) 
-6.87439251

>  <minimizedRMSD>  (1) 
1.70229721

$$$$
