
     RDKit          3D

 39 42  0  0  0  0  0  0  0  0999 V2000
   46.0460   33.1780   38.8000 C   0  0  0  0  0  0  0  0  0  0  0  0
   46.7690   32.6600   37.7580 C   0  0  0  0  0  0  0  0  0  0  0  0
   46.1310   31.9810   36.7240 C   0  0  0  0  0  0  0  0  0  0  0  0
   44.7540   31.9030   36.8800 C   0  0  0  0  0  0  0  0  0  0  0  0
   43.9950   32.4040   37.9020 C   0  0  0  0  0  0  0  0  0  0  0  0
   44.6990   33.0550   38.8720 N   0  0  0  0  0  0  0  0  0  0  0  0
   42.5800   32.2510   37.9340 N   0  0  0  0  0  0  0  0  0  0  0  0
   42.0310   31.0780   37.5560 C   0  0  0  0  0  0  0  0  0  0  0  0
   40.6570   30.9560   37.5970 C   0  0  0  0  0  0  0  0  0  0  0  0
   39.9350   32.0510   38.0260 C   0  0  0  0  0  0  0  0  0  0  0  0
   38.5170   31.9370   38.0730 N   0  0  0  0  0  0  0  0  0  0  0  0
   40.5200   33.2060   38.3960 N   0  0  0  0  0  0  0  0  0  0  0  0
   41.8770   33.3290   38.3560 C   0  0  0  0  0  0  0  0  0  0  0  0
   42.4630   34.3900   38.6920 O   0  0  0  0  0  0  0  0  0  0  0  0
   46.7640   34.7200   42.0730 C   0  0  0  0  0  0  0  0  0  0  0  0
   48.0120   35.2550   41.9620 C   0  0  0  0  0  0  0  0  0  0  0  0
   48.6120   35.0770   40.7340 C   0  0  0  0  0  0  0  0  0  0  0  0
   47.9890   34.3980   39.6780 C   0  0  0  0  0  0  0  0  0  0  0  0
   46.7230   33.8840   39.8690 C   0  0  0  0  0  0  0  0  0  0  0  0
   46.1520   34.0700   41.0830 N   0  0  0  0  0  0  0  0  0  0  0  0
   44.4960   35.9540   44.7590 C   0  0  0  0  0  0  0  0  0  0  0  0
   45.1620   35.8910   43.5280 C   0  0  0  0  0  0  0  0  0  0  0  0
   46.0330   34.8500   43.3350 C   0  0  0  0  0  0  0  0  0  0  0  0
   46.2010   33.9340   44.3530 N   0  0  0  0  0  0  0  0  0  0  0  0
   45.5400   34.0310   45.5240 C   0  0  0  0  0  0  0  0  0  0  0  0
   44.6800   35.0530   45.7260 N   0  0  0  0  0  0  0  0  0  0  0  0
   47.8621   32.7816   37.7384 H   0  0  0  0  0  0  0  0  0  0  0  0
   46.6663   31.5480   35.8661 H   0  0  0  0  0  0  0  0  0  0  0  0
   44.2067   31.3743   36.0857 H   0  0  0  0  0  0  0  0  0  0  0  0
   42.6622   30.2406   37.2238 H   0  0  0  0  0  0  0  0  0  0  0  0
   40.1569   30.0225   37.2994 H   0  0  0  0  0  0  0  0  0  0  0  0
   37.9464   32.7345   38.3882 H   0  0  0  0  0  0  0  0  0  0  0  0
   38.0615   31.0570   37.7918 H   0  0  0  0  0  0  0  0  0  0  0  0
   48.5033   35.7883   42.7892 H   0  0  0  0  0  0  0  0  0  0  0  0
   49.6214   35.4847   40.5762 H   0  0  0  0  0  0  0  0  0  0  0  0
   48.5013   34.2768   38.7122 H   0  0  0  0  0  0  0  0  0  0  0  0
   43.7921   36.7806   44.9358 H   0  0  0  0  0  0  0  0  0  0  0  0
   44.9927   36.6470   42.7471 H   0  0  0  0  0  0  0  0  0  0  0  0
   45.7004   33.2806   46.3122 H   0  0  0  0  0  0  0  0  0  0  0  0
  1  6  1  0
  1 19  1  0
  2  1  2  0
  3  4  2  0
  3  2  1  0
  4  5  1  0
  5  7  1  0
  5  6  2  0
  7 13  1  0
  8  9  2  0
  8  7  1  0
  9 10  1  0
 10 11  1  0
 10 12  2  0
 13 12  1  0
 13 14  2  0
 15 23  1  0
 16 15  2  0
 17 16  1  0
 18 19  1  0
 18 17  2  0
 19 20  2  0
 20 15  1  0
 21 26  2  0
 22 21  1  0
 23 22  2  0
 23 24  1  0
 24 25  2  0
 25 26  1  0
  2 27  1  0
  3 28  1  0
  4 29  1  0
  8 30  1  0
  9 31  1  0
 11 32  1  0
 11 33  1  0
 16 34  1  0
 17 35  1  0
 18 36  1  0
 21 37  1  0
 22 38  1  0
 25 39  1  0
M  ISO  8  27  14  28  14  29  14  30  14  31  14  34  14  35  14  36  14
M  ISO  3  37  14  38  14  39  14
M  END
>  <minimizedAffinity>  (1) 
-6.8605442

>  <minimizedRMSD>  (1) 
1.7218641

$$$$
