
     RDKit          3D

 38 41  0  0  0  0  0  0  0  0999 V2000
   46.4770   34.5890   42.1360 C   0  0  0  0  0  0  0  0  0  0  0  0
   47.7540   35.0460   41.9290 C   0  0  0  0  0  0  0  0  0  0  0  0
   48.2570   34.7990   40.6760 C   0  0  0  0  0  0  0  0  0  0  0  0
   47.5260   34.1330   39.6850 C   0  0  0  0  0  0  0  0  0  0  0  0
   46.2470   33.7020   39.9710 C   0  0  0  0  0  0  0  0  0  0  0  0
   45.7700   33.9530   41.2030 N   0  0  0  0  0  0  0  0  0  0  0  0
   44.4650   36.0350   44.9180 C   0  0  0  0  0  0  0  0  0  0  0  0
   45.0480   35.8940   43.6490 C   0  0  0  0  0  0  0  0  0  0  0  0
   45.8390   34.7950   43.4370 C   0  0  0  0  0  0  0  0  0  0  0  0
   46.0190   33.8950   44.4670 N   0  0  0  0  0  0  0  0  0  0  0  0
   45.4350   34.0730   45.6760 C   0  0  0  0  0  0  0  0  0  0  0  0
   44.6570   35.1480   45.8950 N   0  0  0  0  0  0  0  0  0  0  0  0
   45.4680   33.0060   38.9690 C   0  0  0  0  0  0  0  0  0  0  0  0
   46.0950   32.2100   38.0500 C   0  0  0  0  0  0  0  0  0  0  0  0
   45.3690   31.5300   37.0890 C   0  0  0  0  0  0  0  0  0  0  0  0
   44.0020   31.7290   37.1510 C   0  0  0  0  0  0  0  0  0  0  0  0
   43.3340   32.5310   38.0710 C   0  0  0  0  0  0  0  0  0  0  0  0
   44.1220   33.1620   38.9770 N   0  0  0  0  0  0  0  0  0  0  0  0
   41.9170   32.7310   38.1260 C   0  0  0  0  0  0  0  0  0  0  0  0
   41.4480   33.9870   38.3600 C   0  0  0  0  0  0  0  0  0  0  0  0
   40.0950   34.2680   38.4300 C   0  0  0  0  0  0  0  0  0  0  0  0
   39.1730   33.2330   38.2560 C   0  0  0  0  0  0  0  0  0  0  0  0
   39.6410   31.9610   38.0190 C   0  0  0  0  0  0  0  0  0  0  0  0
   40.9940   31.7270   37.9580 C   0  0  0  0  0  0  0  0  0  0  0  0
   48.3298   35.5695   42.7065 H   0  0  0  0  0  0  0  0  0  0  0  0
   49.2766   35.1384   40.4408 H   0  0  0  0  0  0  0  0  0  0  0  0
   47.9653   33.9558   38.6922 H   0  0  0  0  0  0  0  0  0  0  0  0
   43.8265   36.9090   45.1137 H   0  0  0  0  0  0  0  0  0  0  0  0
   44.8767   36.6365   42.8557 H   0  0  0  0  0  0  0  0  0  0  0  0
   45.5970   33.3385   46.4786 H   0  0  0  0  0  0  0  0  0  0  0  0
   47.1901   32.1095   38.0756 H   0  0  0  0  0  0  0  0  0  0  0  0
   45.8413   30.8826   36.3355 H   0  0  0  0  0  0  0  0  0  0  0  0
   43.3864   31.2054   36.4048 H   0  0  0  0  0  0  0  0  0  0  0  0
   42.1688   34.8063   38.4981 H   0  0  0  0  0  0  0  0  0  0  0  0
   39.7493   35.2947   38.6205 H   0  0  0  0  0  0  0  0  0  0  0  0
   38.0923   33.4314   38.3075 H   0  0  0  0  0  0  0  0  0  0  0  0
   38.9324   31.1315   37.8784 H   0  0  0  0  0  0  0  0  0  0  0  0
   41.3493   30.7033   37.7686 H   0  0  0  0  0  0  0  0  0  0  0  0
  1  9  1  0
  2  1  2  0
  3  2  1  0
  4  5  1  0
  4  3  2  0
  5  6  2  0
  6  1  1  0
  7 12  2  0
  8  7  1  0
  9  8  2  0
  9 10  1  0
 10 11  2  0
 11 12  1  0
 13 18  1  0
 13  5  1  0
 14 13  2  0
 15 16  2  0
 15 14  1  0
 16 17  1  0
 17 19  1  0
 17 18  2  0
 19 20  2  0
 20 21  1  0
 22 21  2  0
 23 22  1  0
 24 23  2  0
 24 19  1  0
  2 25  1  0
  3 26  1  0
  4 27  1  0
  7 28  1  0
  8 29  1  0
 11 30  1  0
 14 31  1  0
 15 32  1  0
 16 33  1  0
 20 34  1  0
 21 35  1  0
 22 36  1  0
 23 37  1  0
 24 38  1  0
M  ISO  8  25  14  26  14  27  14  28  14  29  14  30  14  31  14  32  14
M  ISO  6  33  14  34  14  35  14  36  14  37  14  38  14
M  END
>  <minimizedAffinity>  (1) 
-6.36996222

>  <minimizedRMSD>  (1) 
2.04485536

$$$$
