
     RDKit          3D

 38 41  0  0  0  0  0  0  0  0999 V2000
   46.4760   34.5910   42.1360 C   0  0  0  0  0  0  0  0  0  0  0  0
   47.7610   35.0470   41.9360 C   0  0  0  0  0  0  0  0  0  0  0  0
   48.2670   34.7990   40.6780 C   0  0  0  0  0  0  0  0  0  0  0  0
   47.5320   34.1360   39.6800 C   0  0  0  0  0  0  0  0  0  0  0  0
   46.2500   33.7140   39.9690 C   0  0  0  0  0  0  0  0  0  0  0  0
   45.7740   33.9620   41.1950 N   0  0  0  0  0  0  0  0  0  0  0  0
   44.4620   36.0340   44.9160 C   0  0  0  0  0  0  0  0  0  0  0  0
   45.0490   35.8940   43.6420 C   0  0  0  0  0  0  0  0  0  0  0  0
   45.8410   34.7940   43.4310 C   0  0  0  0  0  0  0  0  0  0  0  0
   46.0150   33.9010   44.4670 N   0  0  0  0  0  0  0  0  0  0  0  0
   45.4370   34.0710   45.6710 C   0  0  0  0  0  0  0  0  0  0  0  0
   44.6590   35.1430   45.8920 N   0  0  0  0  0  0  0  0  0  0  0  0
   45.4650   33.0200   38.9700 C   0  0  0  0  0  0  0  0  0  0  0  0
   46.1070   32.2070   38.0480 C   0  0  0  0  0  0  0  0  0  0  0  0
   45.3630   31.5160   37.0880 C   0  0  0  0  0  0  0  0  0  0  0  0
   43.9990   31.7280   37.1660 C   0  0  0  0  0  0  0  0  0  0  0  0
   43.3490   32.5250   38.0670 C   0  0  0  0  0  0  0  0  0  0  0  0
   44.1260   33.1790   38.9840 N   0  0  0  0  0  0  0  0  0  0  0  0
   41.9100   32.7360   38.1320 C   0  0  0  0  0  0  0  0  0  0  0  0
   41.4540   34.0140   38.3810 C   0  0  0  0  0  0  0  0  0  0  0  0
   40.0920   34.2480   38.4490 C   0  0  0  0  0  0  0  0  0  0  0  0
   39.2170   33.1990   38.2670 C   0  0  0  0  0  0  0  0  0  0  0  0
   39.6340   31.8990   38.0150 C   0  0  0  0  0  0  0  0  0  0  0  0
   41.0050   31.7130   37.9550 C   0  0  0  0  0  0  0  0  0  0  0  0
   48.3360   35.5665   42.7166 H   0  0  0  0  0  0  0  0  0  0  0  0
   49.2886   35.1339   40.4454 H   0  0  0  0  0  0  0  0  0  0  0  0
   47.9703   33.9568   38.6872 H   0  0  0  0  0  0  0  0  0  0  0  0
   43.8206   36.9056   45.1131 H   0  0  0  0  0  0  0  0  0  0  0  0
   44.8788   36.6370   42.8489 H   0  0  0  0  0  0  0  0  0  0  0  0
   45.6015   33.3342   46.4710 H   0  0  0  0  0  0  0  0  0  0  0  0
   47.2021   32.1061   38.0724 H   0  0  0  0  0  0  0  0  0  0  0  0
   45.8231   30.8596   36.3347 H   0  0  0  0  0  0  0  0  0  0  0  0
   43.3738   31.2026   36.4290 H   0  0  0  0  0  0  0  0  0  0  0  0
   42.1668   34.8395   38.5242 H   0  0  0  0  0  0  0  0  0  0  0  0
   39.7115   35.2611   38.6463 H   0  0  0  0  0  0  0  0  0  0  0  0
   38.1373   33.4013   38.3241 H   0  0  0  0  0  0  0  0  0  0  0  0
   38.9229   31.0719   37.8725 H   0  0  0  0  0  0  0  0  0  0  0  0
   41.3889   30.7014   37.7568 H   0  0  0  0  0  0  0  0  0  0  0  0
  1  9  1  0
  2  1  2  0
  3  2  1  0
  4  5  1  0
  4  3  2  0
  5  6  2  0
  6  1  1  0
  7 12  2  0
  8  7  1  0
  9  8  2  0
  9 10  1  0
 10 11  2  0
 11 12  1  0
 13 18  1  0
 13  5  1  0
 14 13  2  0
 15 16  2  0
 15 14  1  0
 16 17  1  0
 17 19  1  0
 17 18  2  0
 19 20  2  0
 20 21  1  0
 22 21  2  0
 23 22  1  0
 24 23  2  0
 24 19  1  0
  2 25  1  0
  3 26  1  0
  4 27  1  0
  7 28  1  0
  8 29  1  0
 11 30  1  0
 14 31  1  0
 15 32  1  0
 16 33  1  0
 20 34  1  0
 21 35  1  0
 22 36  1  0
 23 37  1  0
 24 38  1  0
M  ISO  8  25  14  26  14  27  14  28  14  29  14  30  14  31  14  32  14
M  ISO  6  33  14  34  14  35  14  36  14  37  14  38  14
M  END
>  <minimizedAffinity>  (1) 
-6.36560535

>  <minimizedRMSD>  (1) 
2.07992077

$$$$
