
     RDKit          3D

 43 46  0  0  0  0  0  0  0  0999 V2000
   46.8280   34.7310   42.0260 C   0  0  0  0  0  0  0  0  0  0  0  0
   48.0670   35.2950   41.9290 C   0  0  0  0  0  0  0  0  0  0  0  0
   48.6770   35.1510   40.7040 C   0  0  0  0  0  0  0  0  0  0  0  0
   48.0720   34.4770   39.6330 C   0  0  0  0  0  0  0  0  0  0  0  0
   46.8230   33.9350   39.8040 C   0  0  0  0  0  0  0  0  0  0  0  0
   46.2380   34.0850   41.0160 N   0  0  0  0  0  0  0  0  0  0  0  0
   46.1630   33.2340   38.7200 C   0  0  0  0  0  0  0  0  0  0  0  0
   46.8570   32.9450   37.5720 C   0  0  0  0  0  0  0  0  0  0  0  0
   46.2170   32.2810   36.5300 C   0  0  0  0  0  0  0  0  0  0  0  0
   44.8910   31.9690   36.7700 C   0  0  0  0  0  0  0  0  0  0  0  0
   44.1740   32.2450   37.9040 C   0  0  0  0  0  0  0  0  0  0  0  0
   44.8640   32.8900   38.8700 N   0  0  0  0  0  0  0  0  0  0  0  0
   42.8350   31.8950   38.0670 N   0  0  0  0  0  0  0  0  0  0  0  0
   42.4020   30.5070   38.0060 C   0  0  0  0  0  0  0  0  0  0  0  0
   41.2190   30.4940   37.0310 C   0  0  0  0  0  0  0  0  0  0  0  0
   40.0720   31.1740   37.7160 C   0  0  0  0  0  0  0  0  0  0  0  0
   40.4780   32.2930   38.6200 C   0  0  0  0  0  0  0  0  0  0  0  0
   41.8230   32.8800   38.3010 C   0  0  0  0  0  0  0  0  0  0  0  0
   44.5000   35.9330   44.6890 C   0  0  0  0  0  0  0  0  0  0  0  0
   45.1960   35.8670   43.4700 C   0  0  0  0  0  0  0  0  0  0  0  0
   46.0970   34.8240   43.2740 C   0  0  0  0  0  0  0  0  0  0  0  0
   46.2490   33.9300   44.2830 N   0  0  0  0  0  0  0  0  0  0  0  0
   45.5660   34.0180   45.4480 C   0  0  0  0  0  0  0  0  0  0  0  0
   44.6960   35.0150   45.6490 N   0  0  0  0  0  0  0  0  0  0  0  0
   48.5425   35.8251   42.7674 H   0  0  0  0  0  0  0  0  0  0  0  0
   49.6788   35.5815   40.5589 H   0  0  0  0  0  0  0  0  0  0  0  0
   48.5922   34.3841   38.6682 H   0  0  0  0  0  0  0  0  0  0  0  0
   47.9133   33.2366   37.4760 H   0  0  0  0  0  0  0  0  0  0  0  0
   46.7257   32.0243   35.5891 H   0  0  0  0  0  0  0  0  0  0  0  0
   44.3558   31.4438   35.9652 H   0  0  0  0  0  0  0  0  0  0  0  0
   43.2148   29.8660   37.6340 H   0  0  0  0  0  0  0  0  0  0  0  0
   42.1205   30.1216   38.9971 H   0  0  0  0  0  0  0  0  0  0  0  0
   40.9479   29.4576   36.7813 H   0  0  0  0  0  0  0  0  0  0  0  0
   41.4781   31.0124   36.0960 H   0  0  0  0  0  0  0  0  0  0  0  0
   39.4002   31.5792   36.9450 H   0  0  0  0  0  0  0  0  0  0  0  0
   39.5854   30.4163   38.3478 H   0  0  0  0  0  0  0  0  0  0  0  0
   39.7251   33.0911   38.5418 H   0  0  0  0  0  0  0  0  0  0  0  0
   40.5470   31.8730   39.6343 H   0  0  0  0  0  0  0  0  0  0  0  0
   42.1380   33.5087   39.1469 H   0  0  0  0  0  0  0  0  0  0  0  0
   41.7119   33.4569   37.3711 H   0  0  0  0  0  0  0  0  0  0  0  0
   43.7832   36.7498   44.8594 H   0  0  0  0  0  0  0  0  0  0  0  0
   45.0325   36.6229   42.6878 H   0  0  0  0  0  0  0  0  0  0  0  0
   45.7268   33.2658   46.2343 H   0  0  0  0  0  0  0  0  0  0  0  0
  1 21  1  0
  2  1  2  0
  3  2  1  0
  4  5  1  0
  4  3  2  0
  5  6  2  0
  6  1  1  0
  7 12  1  0
  7  5  1  0
  8  7  2  0
  9 10  2  0
  9  8  1  0
 10 11  1  0
 11 13  1  0
 11 12  2  0
 13 18  1  0
 14 13  1  0
 15 16  1  0
 15 14  1  0
 16 17  1  0
 18 17  1  0
 19 24  2  0
 20 19  1  0
 21 20  2  0
 21 22  1  0
 22 23  2  0
 23 24  1  0
  2 25  1  0
  3 26  1  0
  4 27  1  0
  8 28  1  0
  9 29  1  0
 10 30  1  0
 14 31  1  0
 14 32  1  0
 15 33  1  0
 15 34  1  0
 16 35  1  0
 16 36  1  0
 17 37  1  0
 17 38  1  0
 18 39  1  0
 18 40  1  0
 19 41  1  0
 20 42  1  0
 23 43  1  0
M  ISO  8  25  14  26  14  27  14  28  14  29  14  30  14  31  13  32  13
M  ISO  8  33  13  34  13  35  13  36  13  37  13  38  13  39  13  40  13
M  ISO  3  41  14  42  14  43  14
M  END
>  <minimizedAffinity>  (1) 
-6.35234928

>  <minimizedRMSD>  (1) 
1.02046382

$$$$
