
     RDKit          3D

 36 39  0  0  0  0  0  0  0  0999 V2000
   46.7420   34.6990   42.1020 C   0  0  0  0  0  0  0  0  0  0  0  0
   47.9910   35.2410   41.9710 C   0  0  0  0  0  0  0  0  0  0  0  0
   48.5690   35.0550   40.7440 C   0  0  0  0  0  0  0  0  0  0  0  0
   47.9380   34.3660   39.6990 C   0  0  0  0  0  0  0  0  0  0  0  0
   46.6700   33.8460   39.9120 C   0  0  0  0  0  0  0  0  0  0  0  0
   46.1170   34.0370   41.1190 N   0  0  0  0  0  0  0  0  0  0  0  0
   44.4840   35.9640   44.7900 C   0  0  0  0  0  0  0  0  0  0  0  0
   45.1570   35.8730   43.5590 C   0  0  0  0  0  0  0  0  0  0  0  0
   46.0240   34.8290   43.3660 C   0  0  0  0  0  0  0  0  0  0  0  0
   46.1890   33.9250   44.3930 N   0  0  0  0  0  0  0  0  0  0  0  0
   45.5250   34.0430   45.5640 C   0  0  0  0  0  0  0  0  0  0  0  0
   44.6750   35.0620   45.7580 N   0  0  0  0  0  0  0  0  0  0  0  0
   45.9920   33.1220   38.8570 C   0  0  0  0  0  0  0  0  0  0  0  0
   46.7210   32.4950   37.8870 C   0  0  0  0  0  0  0  0  0  0  0  0
   46.0970   31.7830   36.8780 C   0  0  0  0  0  0  0  0  0  0  0  0
   44.7200   31.7760   36.9530 C   0  0  0  0  0  0  0  0  0  0  0  0
   43.9670   32.3970   37.9120 C   0  0  0  0  0  0  0  0  0  0  0  0
   44.6370   33.0870   38.8870 N   0  0  0  0  0  0  0  0  0  0  0  0
   42.5140   32.3920   37.9940 C   0  0  0  0  0  0  0  0  0  0  0  0
   41.7530   31.2890   37.6680 C   0  0  0  0  0  0  0  0  0  0  0  0
   40.3790   31.2970   37.7500 C   0  0  0  0  0  0  0  0  0  0  0  0
   39.7460   32.4070   38.1570 N   0  0  0  0  0  0  0  0  0  0  0  0
   40.4800   33.4880   38.4760 C   0  0  0  0  0  0  0  0  0  0  0  0
   41.8050   33.4570   38.3900 N   0  0  0  0  0  0  0  0  0  0  0  0
   48.4913   35.7833   42.7868 H   0  0  0  0  0  0  0  0  0  0  0  0
   49.5748   35.4651   40.5702 H   0  0  0  0  0  0  0  0  0  0  0  0
   48.4392   34.2401   38.7280 H   0  0  0  0  0  0  0  0  0  0  0  0
   43.7848   36.7959   44.9604 H   0  0  0  0  0  0  0  0  0  0  0  0
   44.9918   36.6214   42.7699 H   0  0  0  0  0  0  0  0  0  0  0  0
   45.6822   33.3009   46.3606 H   0  0  0  0  0  0  0  0  0  0  0  0
   47.8191   32.5569   37.9082 H   0  0  0  0  0  0  0  0  0  0  0  0
   46.6530   31.2656   36.0823 H   0  0  0  0  0  0  0  0  0  0  0  0
   44.1786   31.2217   36.1722 H   0  0  0  0  0  0  0  0  0  0  0  0
   42.2606   30.3730   37.3315 H   0  0  0  0  0  0  0  0  0  0  0  0
   39.8036   30.3982   37.4833 H   0  0  0  0  0  0  0  0  0  0  0  0
   39.9777   34.4073   38.8116 H   0  0  0  0  0  0  0  0  0  0  0  0
  1  9  1  0
  2  1  2  0
  3  2  1  0
  4  5  1  0
  4  3  2  0
  5  6  2  0
  6  1  1  0
  7 12  2  0
  8  7  1  0
  9  8  2  0
  9 10  1  0
 10 11  2  0
 11 12  1  0
 13 18  1  0
 13  5  1  0
 14 13  2  0
 15 16  2  0
 15 14  1  0
 16 17  1  0
 17 19  1  0
 17 18  2  0
 19 24  2  0
 20 21  2  0
 20 19  1  0
 21 22  1  0
 22 23  2  0
 24 23  1  0
  2 25  1  0
  3 26  1  0
  4 27  1  0
  7 28  1  0
  8 29  1  0
 11 30  1  0
 14 31  1  0
 15 32  1  0
 16 33  1  0
 20 34  1  0
 21 35  1  0
 23 36  1  0
M  ISO  8  25  14  26  14  27  14  28  14  29  14  30  14  31  14  32  14
M  ISO  4  33  14  34  14  35  14  36  14
M  END
>  <minimizedAffinity>  (1) 
-6.14204884

>  <minimizedRMSD>  (1) 
1.65625501

$$$$
