
     RDKit          3D

 36 39  0  0  0  0  0  0  0  0999 V2000
   46.7070   34.6960   42.0950 C   0  0  0  0  0  0  0  0  0  0  0  0
   47.9600   35.2370   41.9600 C   0  0  0  0  0  0  0  0  0  0  0  0
   48.5450   35.0400   40.7320 C   0  0  0  0  0  0  0  0  0  0  0  0
   47.9110   34.3410   39.6990 C   0  0  0  0  0  0  0  0  0  0  0  0
   46.6480   33.8230   39.9070 C   0  0  0  0  0  0  0  0  0  0  0  0
   46.0930   34.0260   41.1150 N   0  0  0  0  0  0  0  0  0  0  0  0
   44.4820   35.9810   44.7930 C   0  0  0  0  0  0  0  0  0  0  0  0
   45.1370   35.8980   43.5530 C   0  0  0  0  0  0  0  0  0  0  0  0
   45.9930   34.8430   43.3600 C   0  0  0  0  0  0  0  0  0  0  0  0
   46.1570   33.9350   44.3840 N   0  0  0  0  0  0  0  0  0  0  0  0
   45.5090   34.0500   45.5590 C   0  0  0  0  0  0  0  0  0  0  0  0
   44.6700   35.0770   45.7600 N   0  0  0  0  0  0  0  0  0  0  0  0
   45.9660   33.0920   38.8610 C   0  0  0  0  0  0  0  0  0  0  0  0
   46.6980   32.4970   37.8690 C   0  0  0  0  0  0  0  0  0  0  0  0
   46.0650   31.7830   36.8530 C   0  0  0  0  0  0  0  0  0  0  0  0
   44.6750   31.7500   36.9630 C   0  0  0  0  0  0  0  0  0  0  0  0
   43.9240   32.3380   37.9470 C   0  0  0  0  0  0  0  0  0  0  0  0
   44.6130   33.0240   38.9140 N   0  0  0  0  0  0  0  0  0  0  0  0
   42.4880   32.2450   37.9710 C   0  0  0  0  0  0  0  0  0  0  0  0
   41.8430   31.0890   37.5860 C   0  0  0  0  0  0  0  0  0  0  0  0
   40.4660   31.1320   37.6560 C   0  0  0  0  0  0  0  0  0  0  0  0
   39.8000   32.2040   38.0620 N   0  0  0  0  0  0  0  0  0  0  0  0
   40.4490   33.3390   38.4380 C   0  0  0  0  0  0  0  0  0  0  0  0
   41.8000   33.3250   38.3800 N   0  0  0  0  0  0  0  0  0  0  0  0
   48.4585   35.7864   42.7722 H   0  0  0  0  0  0  0  0  0  0  0  0
   49.5510   35.4478   40.5544 H   0  0  0  0  0  0  0  0  0  0  0  0
   48.4140   34.2054   38.7302 H   0  0  0  0  0  0  0  0  0  0  0  0
   43.7914   36.8177   44.9744 H   0  0  0  0  0  0  0  0  0  0  0  0
   44.9702   36.6495   42.7673 H   0  0  0  0  0  0  0  0  0  0  0  0
   45.6673   33.3038   46.3516 H   0  0  0  0  0  0  0  0  0  0  0  0
   47.7946   32.5831   37.8737 H   0  0  0  0  0  0  0  0  0  0  0  0
   46.6130   31.2894   36.0369 H   0  0  0  0  0  0  0  0  0  0  0  0
   44.1283   31.1983   36.1841 H   0  0  0  0  0  0  0  0  0  0  0  0
   42.3878   30.1956   37.2470 H   0  0  0  0  0  0  0  0  0  0  0  0
   39.8960   30.2383   37.3623 H   0  0  0  0  0  0  0  0  0  0  0  0
   39.8985   34.2298   38.7747 H   0  0  0  0  0  0  0  0  0  0  0  0
  1  9  1  0
  2  1  2  0
  3  2  1  0
  4  5  1  0
  4  3  2  0
  5  6  2  0
  6  1  1  0
  7 12  2  0
  8  7  1  0
  9  8  2  0
  9 10  1  0
 10 11  2  0
 11 12  1  0
 13 18  1  0
 13  5  1  0
 14 13  2  0
 15 16  2  0
 15 14  1  0
 16 17  1  0
 17 19  1  0
 17 18  2  0
 19 24  2  0
 20 21  2  0
 20 19  1  0
 21 22  1  0
 22 23  2  0
 24 23  1  0
  2 25  1  0
  3 26  1  0
  4 27  1  0
  7 28  1  0
  8 29  1  0
 11 30  1  0
 14 31  1  0
 15 32  1  0
 16 33  1  0
 20 34  1  0
 21 35  1  0
 23 36  1  0
M  ISO  8  25  14  26  14  27  14  28  14  29  14  30  14  31  14  32  14
M  ISO  4  33  14  34  14  35  14  36  14
M  END
>  <minimizedAffinity>  (1) 
-6.13478565

>  <minimizedRMSD>  (1) 
1.5694536

$$$$
