
     RDKit          3D

 35 38  0  0  0  0  0  0  0  0999 V2000
   46.7640   34.7210   42.0660 C   0  0  0  0  0  0  0  0  0  0  0  0
   48.0030   35.2780   41.9370 C   0  0  0  0  0  0  0  0  0  0  0  0
   48.5910   35.0830   40.7090 C   0  0  0  0  0  0  0  0  0  0  0  0
   47.9740   34.3710   39.6720 C   0  0  0  0  0  0  0  0  0  0  0  0
   46.7200   33.8390   39.8800 C   0  0  0  0  0  0  0  0  0  0  0  0
   46.1550   34.0360   41.0850 N   0  0  0  0  0  0  0  0  0  0  0  0
   44.4980   35.9780   44.7530 C   0  0  0  0  0  0  0  0  0  0  0  0
   45.1710   35.9060   43.5180 C   0  0  0  0  0  0  0  0  0  0  0  0
   46.0330   34.8560   43.3280 C   0  0  0  0  0  0  0  0  0  0  0  0
   46.2000   33.9340   44.3410 N   0  0  0  0  0  0  0  0  0  0  0  0
   45.5260   34.0490   45.5180 C   0  0  0  0  0  0  0  0  0  0  0  0
   44.6800   35.0700   45.7150 N   0  0  0  0  0  0  0  0  0  0  0  0
   46.0540   33.0970   38.8310 C   0  0  0  0  0  0  0  0  0  0  0  0
   46.7900   32.5050   37.8420 C   0  0  0  0  0  0  0  0  0  0  0  0
   46.1900   31.7810   36.8220 C   0  0  0  0  0  0  0  0  0  0  0  0
   44.7980   31.7300   36.9260 C   0  0  0  0  0  0  0  0  0  0  0  0
   44.0370   32.3110   37.9030 C   0  0  0  0  0  0  0  0  0  0  0  0
   44.7020   33.0080   38.8730 N   0  0  0  0  0  0  0  0  0  0  0  0
   42.5840   32.2010   37.9260 C   0  0  0  0  0  0  0  0  0  0  0  0
   41.8930   31.0680   37.5780 C   0  0  0  0  0  0  0  0  0  0  0  0
   40.5630   31.4110   37.7480 C   0  0  0  0  0  0  0  0  0  0  0  0
   40.5140   32.7350   38.1910 C   0  0  0  0  0  0  0  0  0  0  0  0
   41.7420   33.1290   38.2700 O   0  0  0  0  0  0  0  0  0  0  0  0
   48.4915   35.8371   42.7486 H   0  0  0  0  0  0  0  0  0  0  0  0
   49.5913   35.5053   40.5330 H   0  0  0  0  0  0  0  0  0  0  0  0
   48.4832   34.2386   38.7060 H   0  0  0  0  0  0  0  0  0  0  0  0
   43.7998   36.8092   44.9309 H   0  0  0  0  0  0  0  0  0  0  0  0
   45.0115   36.6627   42.7357 H   0  0  0  0  0  0  0  0  0  0  0  0
   45.6761   33.3012   46.3106 H   0  0  0  0  0  0  0  0  0  0  0  0
   47.8853   32.6054   37.8556 H   0  0  0  0  0  0  0  0  0  0  0  0
   46.7542   31.2955   36.0121 H   0  0  0  0  0  0  0  0  0  0  0  0
   44.2619   31.1683   36.1469 H   0  0  0  0  0  0  0  0  0  0  0  0
   42.3032   30.1049   37.2403 H   0  0  0  0  0  0  0  0  0  0  0  0
   39.6975   30.7568   37.5664 H   0  0  0  0  0  0  0  0  0  0  0  0
   39.6137   33.3222   38.4248 H   0  0  0  0  0  0  0  0  0  0  0  0
  1  9  1  0
  2  1  2  0
  3  2  1  0
  4  5  1  0
  4  3  2  0
  5  6  2  0
  6  1  1  0
  7 12  2  0
  8  7  1  0
  9  8  2  0
  9 10  1  0
 10 11  2  0
 11 12  1  0
 13 18  1  0
 13  5  1  0
 14 13  2  0
 15 16  2  0
 15 14  1  0
 16 17  1  0
 17 19  1  0
 17 18  2  0
 19 23  1  0
 20 21  1  0
 20 19  2  0
 21 22  2  0
 22 23  1  0
  2 24  1  0
  3 25  1  0
  4 26  1  0
  7 27  1  0
  8 28  1  0
 11 29  1  0
 14 30  1  0
 15 31  1  0
 16 32  1  0
 20 33  1  0
 21 34  1  0
 22 35  1  0
M  ISO  8  24  14  25  14  26  14  27  14  28  14  29  14  30  14  31  14
M  ISO  4  32  14  33  14  34  14  35  14
M  END
>  <minimizedAffinity>  (1) 
-5.99860668

>  <minimizedRMSD>  (1) 
1.31320775

$$$$
