
     RDKit          3D

 41 44  0  0  0  0  0  0  0  0999 V2000
   46.8050   34.7440   42.0540 C   0  0  0  0  0  0  0  0  0  0  0  0
   48.0640   35.2980   41.9570 C   0  0  0  0  0  0  0  0  0  0  0  0
   48.6590   35.1380   40.7390 C   0  0  0  0  0  0  0  0  0  0  0  0
   48.0560   34.4700   39.6680 C   0  0  0  0  0  0  0  0  0  0  0  0
   46.7890   33.9390   39.8400 C   0  0  0  0  0  0  0  0  0  0  0  0
   46.2160   34.1040   41.0420 N   0  0  0  0  0  0  0  0  0  0  0  0
   44.5010   35.9380   44.7330 C   0  0  0  0  0  0  0  0  0  0  0  0
   45.1870   35.8780   43.5080 C   0  0  0  0  0  0  0  0  0  0  0  0
   46.0710   34.8500   43.3070 C   0  0  0  0  0  0  0  0  0  0  0  0
   46.2230   33.9470   44.3200 N   0  0  0  0  0  0  0  0  0  0  0  0
   45.5610   34.0160   45.4870 C   0  0  0  0  0  0  0  0  0  0  0  0
   44.6950   35.0230   45.6860 N   0  0  0  0  0  0  0  0  0  0  0  0
   46.1320   33.2390   38.7560 C   0  0  0  0  0  0  0  0  0  0  0  0
   46.7770   33.0830   37.5600 C   0  0  0  0  0  0  0  0  0  0  0  0
   46.1580   32.4090   36.5150 C   0  0  0  0  0  0  0  0  0  0  0  0
   44.8900   31.9380   36.8020 C   0  0  0  0  0  0  0  0  0  0  0  0
   44.2150   32.0800   37.9970 C   0  0  0  0  0  0  0  0  0  0  0  0
   44.8850   32.7560   38.9830 N   0  0  0  0  0  0  0  0  0  0  0  0
   42.8710   31.5480   38.2160 C   0  0  0  0  0  0  0  0  0  0  0  0
   41.9110   32.7440   38.2710 C   0  0  0  0  0  0  0  0  0  0  0  0
   40.5420   32.1080   38.1310 C   0  0  0  0  0  0  0  0  0  0  0  0
   40.8000   30.8680   37.2920 C   0  0  0  0  0  0  0  0  0  0  0  0
   42.2910   30.7890   37.0630 C   0  0  0  0  0  0  0  0  0  0  0  0
   48.5487   35.8252   42.7920 H   0  0  0  0  0  0  0  0  0  0  0  0
   49.6656   35.5564   40.5919 H   0  0  0  0  0  0  0  0  0  0  0  0
   48.5794   34.3684   38.7059 H   0  0  0  0  0  0  0  0  0  0  0  0
   43.7884   36.7569   44.9108 H   0  0  0  0  0  0  0  0  0  0  0  0
   45.0187   36.6371   42.7299 H   0  0  0  0  0  0  0  0  0  0  0  0
   45.7258   33.2590   46.2679 H   0  0  0  0  0  0  0  0  0  0  0  0
   47.7890   33.4925   37.4253 H   0  0  0  0  0  0  0  0  0  0  0  0
   46.6385   32.2616   35.5365 H   0  0  0  0  0  0  0  0  0  0  0  0
   44.3682   31.3970   35.9988 H   0  0  0  0  0  0  0  0  0  0  0  0
   42.9652   30.9077   39.1055 H   0  0  0  0  0  0  0  0  0  0  0  0
   42.0008   33.2761   39.2295 H   0  0  0  0  0  0  0  0  0  0  0  0
   42.1162   33.4933   37.4923 H   0  0  0  0  0  0  0  0  0  0  0  0
   40.1339   31.8364   39.1158 H   0  0  0  0  0  0  0  0  0  0  0  0
   39.8046   32.7841   37.6737 H   0  0  0  0  0  0  0  0  0  0  0  0
   40.4523   29.9717   37.8266 H   0  0  0  0  0  0  0  0  0  0  0  0
   40.2594   30.9229   36.3356 H   0  0  0  0  0  0  0  0  0  0  0  0
   42.6336   29.7437   37.0701 H   0  0  0  0  0  0  0  0  0  0  0  0
   42.5937   31.1996   36.0884 H   0  0  0  0  0  0  0  0  0  0  0  0
  1  9  1  0
  2  1  2  0
  3  2  1  0
  4  5  1  0
  4  3  2  0
  5  6  2  0
  6  1  1  0
  7 12  2  0
  8  7  1  0
  9  8  2  0
  9 10  1  0
 10 11  2  0
 11 12  1  0
 13 18  1  0
 13  5  1  0
 14 13  2  0
 15 16  2  0
 15 14  1  0
 16 17  1  0
 17 19  1  0
 17 18  2  0
 19 20  1  0
 21 20  1  0
 22 21  1  0
 23 22  1  0
 23 19  1  0
  2 24  1  0
  3 25  1  0
  4 26  1  0
  7 27  1  0
  8 28  1  0
 11 29  1  0
 14 30  1  0
 15 31  1  0
 16 32  1  0
 19 33  1  0
 20 34  1  0
 20 35  1  0
 21 36  1  0
 21 37  1  0
 22 38  1  0
 22 39  1  0
 23 40  1  0
 23 41  1  0
M  ISO  8  24  14  25  14  26  14  27  14  28  14  29  14  30  14  31  14
M  ISO  8  32  14  33  13  34  13  35  13  36  13  37  13  38  13  39  13
M  ISO  2  40  13  41  13
M  END
>  <minimizedAffinity>  (1) 
-5.9937911

>  <minimizedRMSD>  (1) 
0.760533154

$$$$
