
     RDKit          3D

 35 38  0  0  0  0  0  0  0  0999 V2000
   46.8070   34.7180   42.0660 C   0  0  0  0  0  0  0  0  0  0  0  0
   48.0430   35.2950   41.9520 C   0  0  0  0  0  0  0  0  0  0  0  0
   48.6390   35.1340   40.7250 C   0  0  0  0  0  0  0  0  0  0  0  0
   48.0350   34.4370   39.6680 C   0  0  0  0  0  0  0  0  0  0  0  0
   46.7900   33.8830   39.8580 C   0  0  0  0  0  0  0  0  0  0  0  0
   46.2160   34.0490   41.0680 N   0  0  0  0  0  0  0  0  0  0  0  0
   44.4970   35.9530   44.7290 C   0  0  0  0  0  0  0  0  0  0  0  0
   45.1890   35.8750   43.5050 C   0  0  0  0  0  0  0  0  0  0  0  0
   46.0770   34.8230   43.3210 C   0  0  0  0  0  0  0  0  0  0  0  0
   46.2220   33.9310   44.3340 N   0  0  0  0  0  0  0  0  0  0  0  0
   45.5440   34.0310   45.4970 C   0  0  0  0  0  0  0  0  0  0  0  0
   44.6830   35.0410   45.6930 N   0  0  0  0  0  0  0  0  0  0  0  0
   46.1320   33.1530   38.7960 C   0  0  0  0  0  0  0  0  0  0  0  0
   46.8810   32.5980   37.7850 C   0  0  0  0  0  0  0  0  0  0  0  0
   46.2510   31.8950   36.7670 C   0  0  0  0  0  0  0  0  0  0  0  0
   44.8740   31.8150   36.8660 C   0  0  0  0  0  0  0  0  0  0  0  0
   44.1070   32.3590   37.8620 C   0  0  0  0  0  0  0  0  0  0  0  0
   44.7810   33.0410   38.8390 N   0  0  0  0  0  0  0  0  0  0  0  0
   42.6550   32.2410   37.9120 C   0  0  0  0  0  0  0  0  0  0  0  0
   41.8480   33.1830   38.5160 C   0  0  0  0  0  0  0  0  0  0  0  0
   40.5560   32.6950   38.3410 C   0  0  0  0  0  0  0  0  0  0  0  0
   40.6040   31.5240   37.6670 N   0  0  0  0  0  0  0  0  0  0  0  0
   41.8850   31.2670   37.4160 N   0  0  0  0  0  0  0  0  0  0  0  0
   48.5208   35.8437   42.7770 H   0  0  0  0  0  0  0  0  0  0  0  0
   49.6353   35.5715   40.5639 H   0  0  0  0  0  0  0  0  0  0  0  0
   48.5494   34.3348   38.7011 H   0  0  0  0  0  0  0  0  0  0  0  0
   43.7899   36.7787   44.8970 H   0  0  0  0  0  0  0  0  0  0  0  0
   45.0307   36.6260   42.7170 H   0  0  0  0  0  0  0  0  0  0  0  0
   45.6981   33.2814   46.2871 H   0  0  0  0  0  0  0  0  0  0  0  0
   47.9752   32.7106   37.7829 H   0  0  0  0  0  0  0  0  0  0  0  0
   46.8087   31.4335   35.9388 H   0  0  0  0  0  0  0  0  0  0  0  0
   44.3468   31.2645   36.0729 H   0  0  0  0  0  0  0  0  0  0  0  0
   42.1559   34.1101   39.0216 H   0  0  0  0  0  0  0  0  0  0  0  0
   39.6381   33.1862   38.6962 H   0  0  0  0  0  0  0  0  0  0  0  0
   39.7993   30.9400   37.3981 H   0  0  0  0  0  0  0  0  0  0  0  0
  1  9  1  0
  2  1  2  0
  3  2  1  0
  4  5  1  0
  4  3  2  0
  5  6  2  0
  6  1  1  0
  7 12  2  0
  8  7  1  0
  9  8  2  0
  9 10  1  0
 10 11  2  0
 11 12  1  0
 13 18  1  0
 13  5  1  0
 14 13  2  0
 15 16  2  0
 15 14  1  0
 16 17  1  0
 17 19  1  0
 17 18  2  0
 19 20  1  0
 21 20  2  0
 22 21  1  0
 23 22  1  0
 23 19  2  0
  2 24  1  0
  3 25  1  0
  4 26  1  0
  7 27  1  0
  8 28  1  0
 11 29  1  0
 14 30  1  0
 15 31  1  0
 16 32  1  0
 20 33  1  0
 21 34  1  0
 22 35  1  0
M  ISO  8  24  14  25  14  26  14  27  14  28  14  29  14  30  14  31  14
M  ISO  4  32  14  33  14  34  14  35   9
M  END
>  <minimizedAffinity>  (1) 
-5.98898172

>  <minimizedRMSD>  (1) 
1.31462884

$$$$
