
     RDKit          3D

 31 33  0  0  0  0  0  0  0  0999 V2000
   46.7690   34.7190   42.0590 C   0  0  0  0  0  0  0  0  0  0  0  0
   48.0260   35.2810   41.9510 C   0  0  0  0  0  0  0  0  0  0  0  0
   48.6330   35.1100   40.7190 C   0  0  0  0  0  0  0  0  0  0  0  0
   48.0130   34.4180   39.6640 C   0  0  0  0  0  0  0  0  0  0  0  0
   46.7600   33.8900   39.8550 C   0  0  0  0  0  0  0  0  0  0  0  0
   46.1830   34.0640   41.0600 N   0  0  0  0  0  0  0  0  0  0  0  0
   44.4940   35.9490   44.7410 C   0  0  0  0  0  0  0  0  0  0  0  0
   45.1720   35.8760   43.5060 C   0  0  0  0  0  0  0  0  0  0  0  0
   46.0470   34.8390   43.3090 C   0  0  0  0  0  0  0  0  0  0  0  0
   46.2060   33.9370   44.3290 N   0  0  0  0  0  0  0  0  0  0  0  0
   45.5470   34.0290   45.5000 C   0  0  0  0  0  0  0  0  0  0  0  0
   44.6900   35.0400   45.7000 N   0  0  0  0  0  0  0  0  0  0  0  0
   46.0880   33.1690   38.7940 C   0  0  0  0  0  0  0  0  0  0  0  0
   46.8220   32.6930   37.7260 C   0  0  0  0  0  0  0  0  0  0  0  0
   46.2040   31.9950   36.6960 C   0  0  0  0  0  0  0  0  0  0  0  0
   44.8230   31.8430   36.8630 C   0  0  0  0  0  0  0  0  0  0  0  0
   44.0740   32.3050   37.9100 C   0  0  0  0  0  0  0  0  0  0  0  0
   44.7480   32.9820   38.8860 N   0  0  0  0  0  0  0  0  0  0  0  0
   42.6270   32.0990   38.0020 C   0  0  0  0  0  0  0  0  0  0  0  0
   41.9230   33.2840   38.0260 F   0  0  0  0  0  0  0  0  0  0  0  0
   42.2260   31.4320   36.8370 F   0  0  0  0  0  0  0  0  0  0  0  0
   42.3470   31.2990   39.0810 F   0  0  0  0  0  0  0  0  0  0  0  0
   48.5070   35.8221   42.7792 H   0  0  0  0  0  0  0  0  0  0  0  0
   49.6368   35.5307   40.5596 H   0  0  0  0  0  0  0  0  0  0  0  0
   48.5253   34.3010   38.6976 H   0  0  0  0  0  0  0  0  0  0  0  0
   43.7877   36.7734   44.9183 H   0  0  0  0  0  0  0  0  0  0  0  0
   45.0034   36.6300   42.7230 H   0  0  0  0  0  0  0  0  0  0  0  0
   45.7111   33.2789   46.2876 H   0  0  0  0  0  0  0  0  0  0  0  0
   47.9074   32.8682   37.6902 H   0  0  0  0  0  0  0  0  0  0  0  0
   46.7506   31.5979   35.8280 H   0  0  0  0  0  0  0  0  0  0  0  0
   44.2860   31.2973   36.0731 H   0  0  0  0  0  0  0  0  0  0  0  0
  1  9  1  0
  2  1  2  0
  3  2  1  0
  4  5  1  0
  4  3  2  0
  5  6  2  0
  6  1  1  0
  7 12  2  0
  8  7  1  0
  9  8  2  0
  9 10  1  0
 10 11  2  0
 11 12  1  0
 13 18  1  0
 13  5  1  0
 14 13  2  0
 15 16  2  0
 15 14  1  0
 16 17  1  0
 17 19  1  0
 17 18  2  0
 19 20  1  0
 19 22  1  0
 21 19  1  0
  2 23  1  0
  3 24  1  0
  4 25  1  0
  7 26  1  0
  8 27  1  0
 11 28  1  0
 14 29  1  0
 15 30  1  0
 16 31  1  0
M  ISO  8  23  14  24  14  25  14  26  14  27  14  28  14  29  14  30  14
M  ISO  1  31  14
M  END
>  <minimizedAffinity>  (1) 
-5.73459911

>  <minimizedRMSD>  (1) 
0.926594496

$$$$
