
     RDKit          3D

 40 42  0  0  0  0  0  0  0  0999 V2000
   46.8000   34.7500   42.0460 C   0  0  0  0  0  0  0  0  0  0  0  0
   48.0650   35.2910   41.9600 C   0  0  0  0  0  0  0  0  0  0  0  0
   48.6700   35.1290   40.7360 C   0  0  0  0  0  0  0  0  0  0  0  0
   48.0520   34.4680   39.6640 C   0  0  0  0  0  0  0  0  0  0  0  0
   46.7840   33.9560   39.8360 C   0  0  0  0  0  0  0  0  0  0  0  0
   46.2060   34.1210   41.0340 N   0  0  0  0  0  0  0  0  0  0  0  0
   44.4990   35.9370   44.7250 C   0  0  0  0  0  0  0  0  0  0  0  0
   45.1790   35.8930   43.4890 C   0  0  0  0  0  0  0  0  0  0  0  0
   46.0590   34.8590   43.3030 C   0  0  0  0  0  0  0  0  0  0  0  0
   46.2290   33.9360   44.3140 N   0  0  0  0  0  0  0  0  0  0  0  0
   45.5560   34.0180   45.4820 C   0  0  0  0  0  0  0  0  0  0  0  0
   44.6930   35.0180   45.6850 N   0  0  0  0  0  0  0  0  0  0  0  0
   46.1160   33.2630   38.7540 C   0  0  0  0  0  0  0  0  0  0  0  0
   46.8020   33.0240   37.5730 C   0  0  0  0  0  0  0  0  0  0  0  0
   46.1850   32.3530   36.5250 C   0  0  0  0  0  0  0  0  0  0  0  0
   44.8750   31.9730   36.7870 C   0  0  0  0  0  0  0  0  0  0  0  0
   44.1630   32.2000   37.9580 C   0  0  0  0  0  0  0  0  0  0  0  0
   44.8440   32.8660   38.9380 N   0  0  0  0  0  0  0  0  0  0  0  0
   42.7820   31.7600   38.1350 C   0  0  0  0  0  0  0  0  0  0  0  0
   42.3630   30.9240   36.9200 C   0  0  0  0  0  0  0  0  0  0  0  0
   42.7450   30.7780   39.3010 C   0  0  0  0  0  0  0  0  0  0  0  0
   41.7670   32.8470   38.2850 C   0  0  0  0  0  0  0  0  0  0  0  0
   48.5499   35.8091   42.8005 H   0  0  0  0  0  0  0  0  0  0  0  0
   49.6820   35.5351   40.5911 H   0  0  0  0  0  0  0  0  0  0  0  0
   48.5717   34.3600   38.7005 H   0  0  0  0  0  0  0  0  0  0  0  0
   43.7847   36.7531   44.9086 H   0  0  0  0  0  0  0  0  0  0  0  0
   45.0106   36.6528   42.7116 H   0  0  0  0  0  0  0  0  0  0  0  0
   45.7180   33.2627   46.2652 H   0  0  0  0  0  0  0  0  0  0  0  0
   47.8413   33.3679   37.4654 H   0  0  0  0  0  0  0  0  0  0  0  0
   46.6897   32.1411   35.5709 H   0  0  0  0  0  0  0  0  0  0  0  0
   44.3469   31.4371   35.9846 H   0  0  0  0  0  0  0  0  0  0  0  0
   41.8945   29.9893   37.2620 H   0  0  0  0  0  0  0  0  0  0  0  0
   41.6440   31.4939   36.3132 H   0  0  0  0  0  0  0  0  0  0  0  0
   43.2499   30.6890   36.3132 H   0  0  0  0  0  0  0  0  0  0  0  0
   42.7660   31.3343   40.2497 H   0  0  0  0  0  0  0  0  0  0  0  0
   41.8237   30.1795   39.2472 H   0  0  0  0  0  0  0  0  0  0  0  0
   43.6187   30.1118   39.2472 H   0  0  0  0  0  0  0  0  0  0  0  0
   41.5890   33.0376   39.3537 H   0  0  0  0  0  0  0  0  0  0  0  0
   42.1390   33.7646   37.8059 H   0  0  0  0  0  0  0  0  0  0  0  0
   40.8260   32.5387   37.8059 H   0  0  0  0  0  0  0  0  0  0  0  0
  1  9  1  0
  2  1  2  0
  3  2  1  0
  4  5  1  0
  4  3  2  0
  5  6  2  0
  6  1  1  0
  7 12  2  0
  8  7  1  0
  9  8  2  0
  9 10  1  0
 10 11  2  0
 11 12  1  0
 13 18  1  0
 13  5  1  0
 14 13  2  0
 15 16  2  0
 15 14  1  0
 16 17  1  0
 17 19  1  0
 17 18  2  0
 19 22  1  0
 19 21  1  0
 20 19  1  0
  2 23  1  0
  3 24  1  0
  4 25  1  0
  7 26  1  0
  8 27  1  0
 11 28  1  0
 14 29  1  0
 15 30  1  0
 16 31  1  0
 20 32  1  0
 20 33  1  0
 20 34  1  0
 21 35  1  0
 21 36  1  0
 21 37  1  0
 22 38  1  0
 22 39  1  0
 22 40  1  0
M  ISO  8  23  14  24  14  25  14  26  14  27  14  28  14  29  14  30  14
M  ISO  8  31  14  32   8  33   8  34   8  35   8  36   8  37   8  38   8
M  ISO  2  39   8  40   8
M  END
>  <minimizedAffinity>  (1) 
-5.73204041

>  <minimizedRMSD>  (1) 
0.860465109

$$$$
