
     RDKit          3D

 31 33  0  0  0  0  0  0  0  0999 V2000
   46.7900   34.7270   42.0420 C   0  0  0  0  0  0  0  0  0  0  0  0
   48.0390   35.3070   41.9260 C   0  0  0  0  0  0  0  0  0  0  0  0
   48.6430   35.1410   40.7110 C   0  0  0  0  0  0  0  0  0  0  0  0
   48.0480   34.4370   39.6500 C   0  0  0  0  0  0  0  0  0  0  0  0
   46.8040   33.8870   39.8380 C   0  0  0  0  0  0  0  0  0  0  0  0
   46.2140   34.0560   41.0420 N   0  0  0  0  0  0  0  0  0  0  0  0
   44.4970   35.9490   44.7120 C   0  0  0  0  0  0  0  0  0  0  0  0
   45.1820   35.8770   43.4860 C   0  0  0  0  0  0  0  0  0  0  0  0
   46.0600   34.8420   43.2920 C   0  0  0  0  0  0  0  0  0  0  0  0
   46.2350   33.9180   44.3010 N   0  0  0  0  0  0  0  0  0  0  0  0
   45.5490   34.0280   45.4750 C   0  0  0  0  0  0  0  0  0  0  0  0
   44.6900   35.0390   45.6690 N   0  0  0  0  0  0  0  0  0  0  0  0
   46.1510   33.1550   38.7690 C   0  0  0  0  0  0  0  0  0  0  0  0
   46.8850   32.6920   37.7050 C   0  0  0  0  0  0  0  0  0  0  0  0
   46.2620   32.0000   36.6850 C   0  0  0  0  0  0  0  0  0  0  0  0
   44.8920   31.8360   36.8480 C   0  0  0  0  0  0  0  0  0  0  0  0
   44.1290   32.2830   37.8930 C   0  0  0  0  0  0  0  0  0  0  0  0
   44.8140   32.9530   38.8530 N   0  0  0  0  0  0  0  0  0  0  0  0
   42.7100   32.0510   37.9530 C   0  0  0  0  0  0  0  0  0  0  0  0
   42.3300   30.8710   38.1720 O   0  0  0  0  0  0  0  0  0  0  0  0
   41.8080   33.0920   37.7740 O   0  0  0  0  0  0  0  0  0  0  0  0
   48.5120   35.8611   42.7502 H   0  0  0  0  0  0  0  0  0  0  0  0
   49.6404   35.5784   40.5566 H   0  0  0  0  0  0  0  0  0  0  0  0
   48.5690   34.3287   38.6873 H   0  0  0  0  0  0  0  0  0  0  0  0
   43.7879   36.7718   44.8857 H   0  0  0  0  0  0  0  0  0  0  0  0
   45.0176   36.6317   42.7028 H   0  0  0  0  0  0  0  0  0  0  0  0
   45.7017   33.2816   46.2685 H   0  0  0  0  0  0  0  0  0  0  0  0
   47.9694   32.8723   37.6650 H   0  0  0  0  0  0  0  0  0  0  0  0
   46.8071   31.6097   35.8129 H   0  0  0  0  0  0  0  0  0  0  0  0
   44.3644   31.2888   36.0529 H   0  0  0  0  0  0  0  0  0  0  0  0
   40.8346   32.9167   37.8181 H   0  0  0  0  0  0  0  0  0  0  0  0
  1  9  1  0
  2  1  2  0
  3  2  1  0
  4  5  1  0
  4  3  2  0
  5  6  2  0
  6  1  1  0
  7 12  2  0
  8  7  1  0
  9  8  2  0
  9 10  1  0
 10 11  2  0
 11 12  1  0
 13 18  1  0
 13  5  1  0
 14 13  2  0
 15 16  2  0
 15 14  1  0
 16 17  1  0
 17 19  1  0
 17 18  2  0
 19 20  2  0
 21 19  1  0
  2 22  1  0
  3 23  1  0
  4 24  1  0
  7 25  1  0
  8 26  1  0
 11 27  1  0
 14 28  1  0
 15 29  1  0
 16 30  1  0
 21 31  1  0
M  ISO  8  22  14  23  14  24  14  25  14  26  14  27  14  28  14  29  14
M  ISO  2  30  14  31   3
M  END
>  <minimizedAffinity>  (1) 
-5.7083354

>  <minimizedRMSD>  (1) 
0.828067839

$$$$
