
     RDKit          3D

 35 38  0  0  0  0  0  0  0  0999 V2000
   46.7800   34.7290   42.0350 C   0  0  0  0  0  0  0  0  0  0  0  0
   48.0280   35.2860   41.9270 C   0  0  0  0  0  0  0  0  0  0  0  0
   48.6300   35.1150   40.7050 C   0  0  0  0  0  0  0  0  0  0  0  0
   48.0230   34.4260   39.6470 C   0  0  0  0  0  0  0  0  0  0  0  0
   46.7550   33.8910   39.8450 C   0  0  0  0  0  0  0  0  0  0  0  0
   46.1780   34.0660   41.0420 N   0  0  0  0  0  0  0  0  0  0  0  0
   44.4970   35.9530   44.7150 C   0  0  0  0  0  0  0  0  0  0  0  0
   45.1760   35.8890   43.4800 C   0  0  0  0  0  0  0  0  0  0  0  0
   46.0490   34.8480   43.2900 C   0  0  0  0  0  0  0  0  0  0  0  0
   46.2060   33.9360   44.3120 N   0  0  0  0  0  0  0  0  0  0  0  0
   45.5410   34.0290   45.4770 C   0  0  0  0  0  0  0  0  0  0  0  0
   44.6890   35.0340   45.6800 N   0  0  0  0  0  0  0  0  0  0  0  0
   46.0990   33.1660   38.7770 C   0  0  0  0  0  0  0  0  0  0  0  0
   46.8290   32.6890   37.7270 C   0  0  0  0  0  0  0  0  0  0  0  0
   46.2350   31.9800   36.6970 C   0  0  0  0  0  0  0  0  0  0  0  0
   44.8710   31.8190   36.8460 C   0  0  0  0  0  0  0  0  0  0  0  0
   44.1080   32.2850   37.8840 C   0  0  0  0  0  0  0  0  0  0  0  0
   44.7600   32.9770   38.8690 N   0  0  0  0  0  0  0  0  0  0  0  0
   42.6400   32.0890   38.0050 C   0  0  0  0  0  0  0  0  0  0  0  0
   42.0250   32.0420   39.3480 C   0  0  0  0  0  0  0  0  0  0  0  0
   41.8900   33.3000   38.5150 C   0  0  0  0  0  0  0  0  0  0  0  0
   48.5094   35.8276   42.7546 H   0  0  0  0  0  0  0  0  0  0  0  0
   49.6336   35.5378   40.5498 H   0  0  0  0  0  0  0  0  0  0  0  0
   48.5377   34.3109   38.6817 H   0  0  0  0  0  0  0  0  0  0  0  0
   43.7908   36.7770   44.8946 H   0  0  0  0  0  0  0  0  0  0  0  0
   45.0115   36.6456   42.6986 H   0  0  0  0  0  0  0  0  0  0  0  0
   45.7000   33.2757   46.2626 H   0  0  0  0  0  0  0  0  0  0  0  0
   47.9133   32.8720   37.6986 H   0  0  0  0  0  0  0  0  0  0  0  0
   46.7970   31.5817   35.8394 H   0  0  0  0  0  0  0  0  0  0  0  0
   44.3470   31.2629   36.0547 H   0  0  0  0  0  0  0  0  0  0  0  0
   42.5832   31.4170   37.1360 H   0  0  0  0  0  0  0  0  0  0  0  0
   41.1456   31.4057   39.5260 H   0  0  0  0  0  0  0  0  0  0  0  0
   42.3938   31.8205   40.3604 H   0  0  0  0  0  0  0  0  0  0  0  0
   42.4363   34.2124   38.7963 H   0  0  0  0  0  0  0  0  0  0  0  0
   41.0554   33.9185   38.1534 H   0  0  0  0  0  0  0  0  0  0  0  0
  1  9  1  0
  2  1  2  0
  3  2  1  0
  4  5  1  0
  4  3  2  0
  5  6  2  0
  6  1  1  0
  7 12  2  0
  8  7  1  0
  9  8  2  0
  9 10  1  0
 10 11  2  0
 11 12  1  0
 13 18  1  0
 13  5  1  0
 14 13  2  0
 15 16  2  0
 15 14  1  0
 16 17  1  0
 17 19  1  0
 17 18  2  0
 19 21  1  0
 19 20  1  0
 21 20  1  0
  2 22  1  0
  3 23  1  0
  4 24  1  0
  7 25  1  0
  8 26  1  0
 11 27  1  0
 14 28  1  0
 15 29  1  0
 16 30  1  0
 19 31  1  0
 20 32  1  0
 20 33  1  0
 21 34  1  0
 21 35  1  0
M  ISO  8  22  14  23  14  24  14  25  14  26  14  27  14  28  14  29  14
M  ISO  6  30  14  31  13  32  13  33  13  34  13  35  13
M  END
>  <minimizedAffinity>  (1) 
-5.63953495

>  <minimizedRMSD>  (1) 
1.21060824

$$$$
