
     RDKit          3D

 34 36  0  0  0  0  0  0  0  0999 V2000
   46.7840   34.7290   42.0380 C   0  0  0  0  0  0  0  0  0  0  0  0
   48.0300   35.2970   41.9300 C   0  0  0  0  0  0  0  0  0  0  0  0
   48.6370   35.1260   40.7070 C   0  0  0  0  0  0  0  0  0  0  0  0
   48.0290   34.4270   39.6560 C   0  0  0  0  0  0  0  0  0  0  0  0
   46.7750   33.8850   39.8420 C   0  0  0  0  0  0  0  0  0  0  0  0
   46.1950   34.0610   41.0450 N   0  0  0  0  0  0  0  0  0  0  0  0
   44.4960   35.9570   44.7230 C   0  0  0  0  0  0  0  0  0  0  0  0
   45.1800   35.8860   43.4910 C   0  0  0  0  0  0  0  0  0  0  0  0
   46.0530   34.8480   43.2910 C   0  0  0  0  0  0  0  0  0  0  0  0
   46.2080   33.9370   44.3070 N   0  0  0  0  0  0  0  0  0  0  0  0
   45.5430   34.0300   45.4710 C   0  0  0  0  0  0  0  0  0  0  0  0
   44.6890   35.0390   45.6760 N   0  0  0  0  0  0  0  0  0  0  0  0
   46.1230   33.1560   38.7750 C   0  0  0  0  0  0  0  0  0  0  0  0
   46.8600   32.6980   37.7100 C   0  0  0  0  0  0  0  0  0  0  0  0
   46.2520   31.9940   36.6770 C   0  0  0  0  0  0  0  0  0  0  0  0
   44.8770   31.8180   36.8410 C   0  0  0  0  0  0  0  0  0  0  0  0
   44.1240   32.2640   37.8890 C   0  0  0  0  0  0  0  0  0  0  0  0
   44.7870   32.9490   38.8730 N   0  0  0  0  0  0  0  0  0  0  0  0
   42.6660   32.0090   37.9440 C   0  0  0  0  0  0  0  0  0  0  0  0
   41.8970   33.1750   38.5190 C   0  0  0  0  0  0  0  0  0  0  0  0
   48.5054   35.8456   42.7565 H   0  0  0  0  0  0  0  0  0  0  0  0
   49.6377   35.5544   40.5485 H   0  0  0  0  0  0  0  0  0  0  0  0
   48.5468   34.3118   38.6923 H   0  0  0  0  0  0  0  0  0  0  0  0
   43.7913   36.7823   44.9028 H   0  0  0  0  0  0  0  0  0  0  0  0
   45.0170   36.6442   42.7109 H   0  0  0  0  0  0  0  0  0  0  0  0
   45.7010   33.2758   46.2559 H   0  0  0  0  0  0  0  0  0  0  0  0
   47.9425   32.8903   37.6743 H   0  0  0  0  0  0  0  0  0  0  0  0
   46.8054   31.6097   35.8075 H   0  0  0  0  0  0  0  0  0  0  0  0
   44.3489   31.2665   36.0492 H   0  0  0  0  0  0  0  0  0  0  0  0
   42.3029   31.8154   36.9239 H   0  0  0  0  0  0  0  0  0  0  0  0
   42.5024   31.1430   38.6023 H   0  0  0  0  0  0  0  0  0  0  0  0
   41.9277   33.1285   39.6176 H   0  0  0  0  0  0  0  0  0  0  0  0
   42.3514   34.1173   38.1791 H   0  0  0  0  0  0  0  0  0  0  0  0
   40.8519   33.1283   38.1791 H   0  0  0  0  0  0  0  0  0  0  0  0
  1  9  1  0
  2  1  2  0
  3  2  1  0
  4  5  1  0
  4  3  2  0
  5  6  2  0
  6  1  1  0
  7 12  2  0
  8  7  1  0
  9  8  2  0
  9 10  1  0
 10 11  2  0
 11 12  1  0
 13 18  1  0
 13  5  1  0
 14 13  2  0
 15 16  2  0
 15 14  1  0
 16 17  1  0
 17 19  1  0
 17 18  2  0
 19 20  1  0
  2 21  1  0
  3 22  1  0
  4 23  1  0
  7 24  1  0
  8 25  1  0
 11 26  1  0
 14 27  1  0
 15 28  1  0
 16 29  1  0
 19 30  1  0
 19 31  1  0
 20 32  1  0
 20 33  1  0
 20 34  1  0
M  ISO  8  21  14  22  14  23  14  24  14  25  14  26  14  27  14  28  14
M  ISO  6  29  14  30   8  31   8  32   8  33   8  34   8
M  END
>  <minimizedAffinity>  (1) 
-5.51275778

>  <minimizedRMSD>  (1) 
0.971915781

$$$$
