
     RDKit          3D

 30 32  0  0  0  0  0  0  0  0999 V2000
   46.8300   34.7550   42.0160 C   0  0  0  0  0  0  0  0  0  0  0  0
   48.0680   35.3440   41.9270 C   0  0  0  0  0  0  0  0  0  0  0  0
   48.6900   35.1880   40.7120 C   0  0  0  0  0  0  0  0  0  0  0  0
   48.1100   34.4840   39.6450 C   0  0  0  0  0  0  0  0  0  0  0  0
   46.8660   33.9230   39.8130 C   0  0  0  0  0  0  0  0  0  0  0  0
   46.2650   34.0830   41.0120 N   0  0  0  0  0  0  0  0  0  0  0  0
   46.2290   33.1890   38.7420 C   0  0  0  0  0  0  0  0  0  0  0  0
   46.7120   33.2860   37.4660 C   0  0  0  0  0  0  0  0  0  0  0  0
   46.1190   32.5910   36.4230 C   0  0  0  0  0  0  0  0  0  0  0  0
   45.0190   31.8130   36.8100 C   0  0  0  0  0  0  0  0  0  0  0  0
   44.5150   31.6980   38.0790 C   0  0  0  0  0  0  0  0  0  0  0  0
   45.1630   32.4160   39.0300 N   0  0  0  0  0  0  0  0  0  0  0  0
   43.4050   30.8920   38.3720 N   0  0  0  0  0  0  0  0  0  0  0  0
   44.5030   35.9300   44.6970 C   0  0  0  0  0  0  0  0  0  0  0  0
   45.1960   35.8840   43.4690 C   0  0  0  0  0  0  0  0  0  0  0  0
   46.0830   34.8590   43.2630 C   0  0  0  0  0  0  0  0  0  0  0  0
   46.2360   33.9460   44.2710 N   0  0  0  0  0  0  0  0  0  0  0  0
   45.5670   34.0070   45.4350 C   0  0  0  0  0  0  0  0  0  0  0  0
   44.7020   34.9990   45.6460 N   0  0  0  0  0  0  0  0  0  0  0  0
   48.5246   35.8962   42.7616 H   0  0  0  0  0  0  0  0  0  0  0  0
   49.6854   35.6340   40.5692 H   0  0  0  0  0  0  0  0  0  0  0  0
   48.6431   34.3826   38.6882 H   0  0  0  0  0  0  0  0  0  0  0  0
   47.5842   33.9251   37.2642 H   0  0  0  0  0  0  0  0  0  0  0  0
   46.4794   32.6453   35.3851 H   0  0  0  0  0  0  0  0  0  0  0  0
   44.5120   31.2402   36.0195 H   0  0  0  0  0  0  0  0  0  0  0  0
   43.0541   30.8303   39.3384 H   0  0  0  0  0  0  0  0  0  0  0  0
   42.9408   30.3619   37.6207 H   0  0  0  0  0  0  0  0  0  0  0  0
   43.7859   36.7435   44.8815 H   0  0  0  0  0  0  0  0  0  0  0  0
   45.0292   36.6500   42.6974 H   0  0  0  0  0  0  0  0  0  0  0  0
   45.7322   33.2429   46.2089 H   0  0  0  0  0  0  0  0  0  0  0  0
  1 16  1  0
  2  1  2  0
  3  2  1  0
  4  5  1  0
  4  3  2  0
  5  6  2  0
  6  1  1  0
  7 12  1  0
  7  5  1  0
  8  7  2  0
  9 10  2  0
  9  8  1  0
 10 11  1  0
 11 13  1  0
 11 12  2  0
 14 19  2  0
 15 14  1  0
 16 15  2  0
 16 17  1  0
 17 18  2  0
 18 19  1  0
  2 20  1  0
  3 21  1  0
  4 22  1  0
  8 23  1  0
  9 24  1  0
 10 25  1  0
 13 26  1  0
 13 27  1  0
 14 28  1  0
 15 29  1  0
 18 30  1  0
M  ISO  8  20  14  21  14  22  14  23  14  24  14  25  14  28  14  29  14
M  ISO  1  30  14
M  END
>  <minimizedAffinity>  (1) 
-5.50720787

>  <minimizedRMSD>  (1) 
0.0664583147

$$$$
