
     RDKit          3D

 30 32  0  0  0  0  0  0  0  0999 V2000
   46.7990   34.7320   42.0360 C   0  0  0  0  0  0  0  0  0  0  0  0
   48.0380   35.2990   41.9280 C   0  0  0  0  0  0  0  0  0  0  0  0
   48.6470   35.1360   40.6990 C   0  0  0  0  0  0  0  0  0  0  0  0
   48.0450   34.4430   39.6420 C   0  0  0  0  0  0  0  0  0  0  0  0
   46.7850   33.8970   39.8340 C   0  0  0  0  0  0  0  0  0  0  0  0
   46.2260   34.0740   41.0340 N   0  0  0  0  0  0  0  0  0  0  0  0
   44.4980   35.9400   44.7070 C   0  0  0  0  0  0  0  0  0  0  0  0
   45.1850   35.8720   43.4870 C   0  0  0  0  0  0  0  0  0  0  0  0
   46.0660   34.8400   43.2930 C   0  0  0  0  0  0  0  0  0  0  0  0
   46.2340   33.9330   44.2940 N   0  0  0  0  0  0  0  0  0  0  0  0
   45.5540   34.0230   45.4690 C   0  0  0  0  0  0  0  0  0  0  0  0
   44.6890   35.0290   45.6690 N   0  0  0  0  0  0  0  0  0  0  0  0
   46.1300   33.1650   38.7650 C   0  0  0  0  0  0  0  0  0  0  0  0
   46.8670   32.6810   37.7180 C   0  0  0  0  0  0  0  0  0  0  0  0
   46.2740   31.9670   36.6890 C   0  0  0  0  0  0  0  0  0  0  0  0
   44.9120   31.8070   36.8370 C   0  0  0  0  0  0  0  0  0  0  0  0
   44.1470   32.2770   37.8680 C   0  0  0  0  0  0  0  0  0  0  0  0
   44.7990   32.9760   38.8500 N   0  0  0  0  0  0  0  0  0  0  0  0
   42.7240   32.1170   38.0570 C   0  0  0  0  0  0  0  0  0  0  0  0
   41.7830   32.9220   38.1650 O   0  0  0  0  0  0  0  0  0  0  0  0
   48.5139   35.8437   42.7568 H   0  0  0  0  0  0  0  0  0  0  0  0
   49.6465   35.5686   40.5444 H   0  0  0  0  0  0  0  0  0  0  0  0
   48.5619   34.3337   38.6772 H   0  0  0  0  0  0  0  0  0  0  0  0
   43.7857   36.7607   44.8777 H   0  0  0  0  0  0  0  0  0  0  0  0
   45.0212   36.6279   42.7049 H   0  0  0  0  0  0  0  0  0  0  0  0
   45.7135   33.2706   46.2554 H   0  0  0  0  0  0  0  0  0  0  0  0
   47.9516   32.8624   37.6929 H   0  0  0  0  0  0  0  0  0  0  0  0
   46.8371   31.5652   35.8337 H   0  0  0  0  0  0  0  0  0  0  0  0
   44.3900   31.2460   36.0478 H   0  0  0  0  0  0  0  0  0  0  0  0
   42.4075   31.0653   38.1180 H   0  0  0  0  0  0  0  0  0  0  0  0
  1  9  1  0
  2  1  2  0
  3  2  1  0
  4  5  1  0
  4  3  2  0
  5  6  2  0
  6  1  1  0
  7 12  2  0
  8  7  1  0
  9  8  2  0
  9 10  1  0
 10 11  2  0
 11 12  1  0
 13 18  1  0
 13  5  1  0
 14 13  2  0
 15 16  2  0
 15 14  1  0
 16 17  1  0
 17 19  1  0
 17 18  2  0
 19 20  2  0
  2 21  1  0
  3 22  1  0
  4 23  1  0
  7 24  1  0
  8 25  1  0
 11 26  1  0
 14 27  1  0
 15 28  1  0
 16 29  1  0
 19 30  1  0
M  ISO  8  21  14  22  14  23  14  24  14  25  14  26  14  27  14  28  14
M  ISO  2  29  14  30   6
M  END
>  <minimizedAffinity>  (1) 
-5.43807268

>  <minimizedRMSD>  (1) 
0.721258938

$$$$
