
     RDKit          3D

 41 44  0  0  0  0  0  0  0  0999 V2000
   45.7630   33.1720   38.9000 C   0  0  0  0  0  0  0  0  0  0  0  0
   46.4280   32.6800   37.8090 C   0  0  0  0  0  0  0  0  0  0  0  0
   45.7280   32.0420   36.7860 C   0  0  0  0  0  0  0  0  0  0  0  0
   44.3670   31.9720   36.9960 C   0  0  0  0  0  0  0  0  0  0  0  0
   43.6580   32.4500   38.0720 C   0  0  0  0  0  0  0  0  0  0  0  0
   44.4160   33.0620   39.0320 N   0  0  0  0  0  0  0  0  0  0  0  0
   46.6080   34.6540   42.1540 C   0  0  0  0  0  0  0  0  0  0  0  0
   47.9010   35.1360   42.0160 C   0  0  0  0  0  0  0  0  0  0  0  0
   48.4590   34.9330   40.7790 C   0  0  0  0  0  0  0  0  0  0  0  0
   47.7710   34.2880   39.7430 C   0  0  0  0  0  0  0  0  0  0  0  0
   46.4910   33.8370   39.9550 C   0  0  0  0  0  0  0  0  0  0  0  0
   45.9600   34.0440   41.1720 N   0  0  0  0  0  0  0  0  0  0  0  0
   44.4660   35.9930   44.8910 C   0  0  0  0  0  0  0  0  0  0  0  0
   45.1050   35.8780   43.6400 C   0  0  0  0  0  0  0  0  0  0  0  0
   45.9290   34.8170   43.4220 C   0  0  0  0  0  0  0  0  0  0  0  0
   46.0710   33.9400   44.4470 N   0  0  0  0  0  0  0  0  0  0  0  0
   45.4650   34.0500   45.6360 C   0  0  0  0  0  0  0  0  0  0  0  0
   44.6560   35.0890   45.8560 N   0  0  0  0  0  0  0  0  0  0  0  0
   42.2070   32.2950   38.1440 C   0  0  0  0  0  0  0  0  0  0  0  0
   41.5390   33.4440   38.7840 C   0  0  0  0  0  0  0  0  0  0  0  0
   40.8820   33.1100   39.9710 C   0  0  0  0  0  0  0  0  0  0  0  0
   40.2170   34.1220   40.6590 C   0  0  0  0  0  0  0  0  0  0  0  0
   40.1810   35.4330   40.2160 C   0  0  0  0  0  0  0  0  0  0  0  0
   40.8530   35.7130   39.0230 C   0  0  0  0  0  0  0  0  0  0  0  0
   41.5340   34.7360   38.2980 C   0  0  0  0  0  0  0  0  0  0  0  0
   47.5204   32.7887   37.7393 H   0  0  0  0  0  0  0  0  0  0  0  0
   46.2178   31.6310   35.8909 H   0  0  0  0  0  0  0  0  0  0  0  0
   43.7796   31.4751   36.2098 H   0  0  0  0  0  0  0  0  0  0  0  0
   48.4367   35.6410   42.8333 H   0  0  0  0  0  0  0  0  0  0  0  0
   49.4831   35.2894   40.5942 H   0  0  0  0  0  0  0  0  0  0  0  0
   48.2533   34.1435   38.7650 H   0  0  0  0  0  0  0  0  0  0  0  0
   43.7963   36.8456   45.0768 H   0  0  0  0  0  0  0  0  0  0  0  0
   44.9409   36.6311   42.8552 H   0  0  0  0  0  0  0  0  0  0  0  0
   45.6312   33.2959   46.4194 H   0  0  0  0  0  0  0  0  0  0  0  0
   41.8145   32.1850   37.1223 H   0  0  0  0  0  0  0  0  0  0  0  0
   41.9996   31.4072   38.7595 H   0  0  0  0  0  0  0  0  0  0  0  0
   40.8898   32.0778   40.3511 H   0  0  0  0  0  0  0  0  0  0  0  0
   39.6978   33.8685   41.5951 H   0  0  0  0  0  0  0  0  0  0  0  0
   39.6492   36.2164   40.7759 H   0  0  0  0  0  0  0  0  0  0  0  0
   40.8443   36.7445   38.6411 H   0  0  0  0  0  0  0  0  0  0  0  0
   42.0542   34.9884   37.3622 H   0  0  0  0  0  0  0  0  0  0  0  0
  1  6  1  0
  1 11  1  0
  2  1  2  0
  3  4  2  0
  3  2  1  0
  4  5  1  0
  5 19  1  0
  5  6  2  0
  7 15  1  0
  8  7  2  0
  9  8  1  0
 10 11  1  0
 10  9  2  0
 11 12  2  0
 12  7  1  0
 13 18  2  0
 14 13  1  0
 15 14  2  0
 15 16  1  0
 16 17  2  0
 17 18  1  0
 19 20  1  0
 20 21  2  0
 21 22  1  0
 23 22  2  0
 24 23  1  0
 25 20  1  0
 25 24  2  0
  2 26  1  0
  3 27  1  0
  4 28  1  0
  8 29  1  0
  9 30  1  0
 10 31  1  0
 13 32  1  0
 14 33  1  0
 17 34  1  0
 19 35  1  0
 19 36  1  0
 21 37  1  0
 22 38  1  0
 23 39  1  0
 24 40  1  0
 25 41  1  0
M  ISO  8  26  14  27  14  28  14  29  14  30  14  31  14  32  14  33  14
M  ISO  8  34  14  35   8  36   8  37  14  38  14  39  14  40  14  41  14
M  END
>  <minimizedAffinity>  (1) 
-6.68713474

>  <minimizedRMSD>  (1) 
3.69867468

$$$$
