
     RDKit          3D

 13 13  0  0  0  0  0  0  0  0999 V2000
   44.3820   35.7910   44.4780 C   0  0  0  0  0  0  0  0  0  0  0  0
   44.6480   35.1050   43.2840 C   0  0  0  0  0  0  0  0  0  0  0  0
   45.2780   33.8450   43.3590 C   0  0  0  0  0  0  0  0  0  0  0  0
   45.5950   33.3650   44.6070 N   0  0  0  0  0  0  0  0  0  0  0  0
   45.3160   34.0660   45.7200 C   0  0  0  0  0  0  0  0  0  0  0  0
   44.7130   35.2770   45.6880 N   0  0  0  0  0  0  0  0  0  0  0  0
   44.2730   35.6990   41.9990 C   0  0  0  0  0  0  0  0  0  0  0  0
   43.8908   36.7741   44.4313 H   0  0  0  0  0  0  0  0  0  0  0  0
   45.5072   33.2676   42.4512 H   0  0  0  0  0  0  0  0  0  0  0  0
   45.5889   33.6378   46.6958 H   0  0  0  0  0  0  0  0  0  0  0  0
   43.6933   36.6172   42.1747 H   0  0  0  0  0  0  0  0  0  0  0  0
   45.1815   35.9424   41.4285 H   0  0  0  0  0  0  0  0  0  0  0  0
   43.6625   34.9835   41.4285 H   0  0  0  0  0  0  0  0  0  0  0  0
  1  6  2  0
  2  3  2  0
  2  1  1  0
  3  4  1  0
  4  5  2  0
  6  5  1  0
  7  2  1  0
  1  8  1  0
  3  9  1  0
  5 10  1  0
  7 11  1  0
  7 12  1  0
  7 13  1  0
M  ISO  6   8  14   9  14  10  14  11   8  12   8  13   8
M  END
>  <minimizedAffinity>  (1) 
-2.73643923

>  <minimizedRMSD>  (1) 
0.79888469

$$$$
