
     RDKit          3D

 46 49  0  0  0  0  0  0  0  0999 V2000
   45.7610   33.1380   38.9090 C   0  0  0  0  0  0  0  0  0  0  0  0
   46.4290   32.5790   37.8600 C   0  0  0  0  0  0  0  0  0  0  0  0
   45.7470   31.9090   36.8530 C   0  0  0  0  0  0  0  0  0  0  0  0
   44.3600   31.8770   37.0320 C   0  0  0  0  0  0  0  0  0  0  0  0
   43.6540   32.4310   38.0780 C   0  0  0  0  0  0  0  0  0  0  0  0
   44.4020   33.0730   39.0270 N   0  0  0  0  0  0  0  0  0  0  0  0
   46.6070   34.6510   42.1510 C   0  0  0  0  0  0  0  0  0  0  0  0
   47.8930   35.1480   42.0080 C   0  0  0  0  0  0  0  0  0  0  0  0
   48.4440   34.9440   40.7620 C   0  0  0  0  0  0  0  0  0  0  0  0
   47.7580   34.2890   39.7360 C   0  0  0  0  0  0  0  0  0  0  0  0
   46.4720   33.8180   39.9530 C   0  0  0  0  0  0  0  0  0  0  0  0
   45.9490   34.0270   41.1800 N   0  0  0  0  0  0  0  0  0  0  0  0
   44.4700   35.9790   44.8830 C   0  0  0  0  0  0  0  0  0  0  0  0
   45.1020   35.8690   43.6300 C   0  0  0  0  0  0  0  0  0  0  0  0
   45.9300   34.8090   43.4250 C   0  0  0  0  0  0  0  0  0  0  0  0
   46.0920   33.9170   44.4620 N   0  0  0  0  0  0  0  0  0  0  0  0
   45.4750   34.0470   45.6510 C   0  0  0  0  0  0  0  0  0  0  0  0
   44.6590   35.0880   45.8580 N   0  0  0  0  0  0  0  0  0  0  0  0
   42.2010   32.3070   38.1350 C   0  0  0  0  0  0  0  0  0  0  0  0
   41.5510   33.3050   38.9050 N   0  0  0  0  0  0  0  0  0  0  0  0
   40.7170   34.2070   38.1980 C   0  0  0  0  0  0  0  0  0  0  0  0
   39.5330   34.6700   39.0220 C   0  0  0  0  0  0  0  0  0  0  0  0
   40.0880   35.1630   40.3420 C   0  0  0  0  0  0  0  0  0  0  0  0
   40.5800   33.9390   41.0760 C   0  0  0  0  0  0  0  0  0  0  0  0
   41.0920   32.8710   40.1870 C   0  0  0  0  0  0  0  0  0  0  0  0
   47.5249   32.6600   37.8107 H   0  0  0  0  0  0  0  0  0  0  0  0
   46.2516   31.4454   35.9925 H   0  0  0  0  0  0  0  0  0  0  0  0
   43.7736   31.3572   36.2600 H   0  0  0  0  0  0  0  0  0  0  0  0
   48.4281   35.6616   42.8203 H   0  0  0  0  0  0  0  0  0  0  0  0
   49.4627   35.3107   40.5674 H   0  0  0  0  0  0  0  0  0  0  0  0
   48.2379   34.1470   38.7565 H   0  0  0  0  0  0  0  0  0  0  0  0
   43.7965   36.8295   45.0647 H   0  0  0  0  0  0  0  0  0  0  0  0
   44.9318   36.6166   42.8413 H   0  0  0  0  0  0  0  0  0  0  0  0
   45.6397   33.3045   46.4457 H   0  0  0  0  0  0  0  0  0  0  0  0
   41.8120   32.3595   37.1074 H   0  0  0  0  0  0  0  0  0  0  0  0
   41.9902   31.3470   38.6289 H   0  0  0  0  0  0  0  0  0  0  0  0
   41.3122   35.0863   37.9106 H   0  0  0  0  0  0  0  0  0  0  0  0
   40.3246   33.6785   37.3167 H   0  0  0  0  0  0  0  0  0  0  0  0
   39.0061   35.4850   38.5041 H   0  0  0  0  0  0  0  0  0  0  0  0
   38.8138   33.8521   39.1758 H   0  0  0  0  0  0  0  0  0  0  0  0
   40.9185   35.8631   40.1687 H   0  0  0  0  0  0  0  0  0  0  0  0
   39.3229   35.6983   40.9234 H   0  0  0  0  0  0  0  0  0  0  0  0
   41.3912   34.2442   41.7533 H   0  0  0  0  0  0  0  0  0  0  0  0
   39.7161   33.5203   41.6130 H   0  0  0  0  0  0  0  0  0  0  0  0
   40.2815   32.1444   40.0286 H   0  0  0  0  0  0  0  0  0  0  0  0
   41.9716   32.4502   40.6961 H   0  0  0  0  0  0  0  0  0  0  0  0
  1  6  1  0
  1 11  1  0
  2  1  2  0
  3  4  2  0
  3  2  1  0
  4  5  1  0
  5 19  1  0
  5  6  2  0
  7 15  1  0
  8  7  2  0
  9  8  1  0
 10 11  1  0
 10  9  2  0
 11 12  2  0
 12  7  1  0
 13 18  2  0
 14 13  1  0
 15 14  2  0
 15 16  1  0
 16 17  2  0
 17 18  1  0
 19 20  1  0
 20 25  1  0
 21 20  1  0
 21 22  1  0
 22 23  1  0
 23 24  1  0
 25 24  1  0
  2 26  1  0
  3 27  1  0
  4 28  1  0
  8 29  1  0
  9 30  1  0
 10 31  1  0
 13 32  1  0
 14 33  1  0
 17 34  1  0
 19 35  1  0
 19 36  1  0
 21 37  1  0
 21 38  1  0
 22 39  1  0
 22 40  1  0
 23 41  1  0
 23 42  1  0
 24 43  1  0
 24 44  1  0
 25 45  1  0
 25 46  1  0
M  ISO  8  26  14  27  14  28  14  29  14  30  14  31  14  32  14  33  14
M  ISO  8  34  14  35   8  36   8  37  13  38  13  39  13  40  13  41  13
M  ISO  5  42  13  43  13  44  13  45  13  46  13
M  END
>  <minimizedAffinity>  (1) 
-6.59796429

>  <minimizedRMSD>  (1) 
3.54387689

$$$$
