
     RDKit          3D

 44 47  0  0  0  0  0  0  0  0999 V2000
   46.5660   33.2480   38.7260 C   0  0  0  0  0  0  0  0  0  0  0  0
   47.0580   33.3860   37.4690 C   0  0  0  0  0  0  0  0  0  0  0  0
   46.5420   32.6580   36.4030 C   0  0  0  0  0  0  0  0  0  0  0  0
   45.5000   31.8020   36.7460 C   0  0  0  0  0  0  0  0  0  0  0  0
   44.9780   31.6400   38.0080 C   0  0  0  0  0  0  0  0  0  0  0  0
   45.5410   32.3890   38.9960 N   0  0  0  0  0  0  0  0  0  0  0  0
   46.9770   34.8160   42.0240 C   0  0  0  0  0  0  0  0  0  0  0  0
   48.1750   35.4830   41.9690 C   0  0  0  0  0  0  0  0  0  0  0  0
   48.8300   35.3750   40.7650 C   0  0  0  0  0  0  0  0  0  0  0  0
   48.3180   34.6470   39.6910 C   0  0  0  0  0  0  0  0  0  0  0  0
   47.1040   34.0020   39.8230 C   0  0  0  0  0  0  0  0  0  0  0  0
   46.4790   34.1210   41.0110 N   0  0  0  0  0  0  0  0  0  0  0  0
   44.5370   35.8530   44.6380 C   0  0  0  0  0  0  0  0  0  0  0  0
   45.2710   35.8510   43.4350 C   0  0  0  0  0  0  0  0  0  0  0  0
   46.1970   34.8610   43.2470 C   0  0  0  0  0  0  0  0  0  0  0  0
   46.3210   33.9600   44.2530 N   0  0  0  0  0  0  0  0  0  0  0  0
   45.6250   33.9630   45.3930 C   0  0  0  0  0  0  0  0  0  0  0  0
   44.7180   34.9280   45.5860 N   0  0  0  0  0  0  0  0  0  0  0  0
   43.8680   30.6970   38.2350 C   0  0  0  0  0  0  0  0  0  0  0  0
   40.2720   32.9430   38.2440 C   0  0  0  0  0  0  0  0  0  0  0  0
   40.2350   31.6010   37.9210 C   0  0  0  0  0  0  0  0  0  0  0  0
   41.3800   30.8270   37.9040 C   0  0  0  0  0  0  0  0  0  0  0  0
   42.5760   31.4390   38.2230 C   0  0  0  0  0  0  0  0  0  0  0  0
   42.6050   32.7820   38.5460 C   0  0  0  0  0  0  0  0  0  0  0  0
   41.4780   33.5780   38.5700 C   0  0  0  0  0  0  0  0  0  0  0  0
   38.8220   33.9310   38.2670 S   0  0  0  0  0  0  0  0  0  0  0  0
   37.7810   33.4130   37.2910 O   0  0  0  0  0  0  0  0  0  0  0  0
   38.1890   33.9990   39.6110 O   0  0  0  0  0  0  0  0  0  0  0  0
   47.8840   34.0899   37.2894 H   0  0  0  0  0  0  0  0  0  0  0  0
   46.9248   32.7508   35.3759 H   0  0  0  0  0  0  0  0  0  0  0  0
   45.0552   31.2030   35.9377 H   0  0  0  0  0  0  0  0  0  0  0  0
   48.5776   36.0561   42.8172 H   0  0  0  0  0  0  0  0  0  0  0  0
   49.7977   35.8837   40.6437 H   0  0  0  0  0  0  0  0  0  0  0  0
   48.8772   34.5871   38.7456 H   0  0  0  0  0  0  0  0  0  0  0  0
   43.7894   36.6429   44.8026 H   0  0  0  0  0  0  0  0  0  0  0  0
   45.1044   36.6229   42.6692 H   0  0  0  0  0  0  0  0  0  0  0  0
   45.7936   33.1893   46.1565 H   0  0  0  0  0  0  0  0  0  0  0  0
   43.8626   29.9384   37.4385 H   0  0  0  0  0  0  0  0  0  0  0  0
   43.9989   30.2042   39.2097 H   0  0  0  0  0  0  0  0  0  0  0  0
   39.2699   31.1362   37.6709 H   0  0  0  0  0  0  0  0  0  0  0  0
   41.3398   29.7587   37.6449 H   0  0  0  0  0  0  0  0  0  0  0  0
   43.5737   33.2391   38.7963 H   0  0  0  0  0  0  0  0  0  0  0  0
   41.5235   34.6460   38.8293 H   0  0  0  0  0  0  0  0  0  0  0  0
   39.2384   35.1850   37.9052 H   0  0  0  0  0  0  0  0  0  0  0  0
  1  6  1  0
  1 11  1  0
  2  1  2  0
  3  4  2  0
  3  2  1  0
  4  5  1  0
  5 19  1  0
  5  6  2  0
  7 15  1  0
  8  7  2  0
  9  8  1  0
 10 11  1  0
 10  9  2  0
 11 12  2  0
 12  7  1  0
 13 18  2  0
 14 13  1  0
 15 14  2  0
 15 16  1  0
 16 17  2  0
 17 18  1  0
 20 26  1  0
 20 25  2  0
 21 20  1  0
 22 21  2  0
 22 23  1  0
 23 19  1  0
 23 24  2  0
 24 25  1  0
 26 28  2  0
 27 26  2  0
  2 29  1  0
  3 30  1  0
  4 31  1  0
  8 32  1  0
  9 33  1  0
 10 34  1  0
 13 35  1  0
 14 36  1  0
 17 37  1  0
 19 38  1  0
 19 39  1  0
 21 40  1  0
 22 41  1  0
 24 42  1  0
 25 43  1  0
 26 44  1  0
M  ISO  8  29  14  30  14  31  14  32  14  33  14  34  14  35  14  36  14
M  ISO  8  37  14  38   8  39   8  40  14  41  14  42  14  43  14  44  11
M  END
>  <minimizedAffinity>  (1) 
-6.54782104

>  <minimizedRMSD>  (1) 
0.589646757

$$$$
