
     RDKit          3D

 44 47  0  0  0  0  0  0  0  0999 V2000
   46.5970   34.6560   42.1460 C   0  0  0  0  0  0  0  0  0  0  0  0
   47.8750   35.1330   41.9910 C   0  0  0  0  0  0  0  0  0  0  0  0
   48.4240   34.9150   40.7530 C   0  0  0  0  0  0  0  0  0  0  0  0
   47.7270   34.2580   39.7350 C   0  0  0  0  0  0  0  0  0  0  0  0
   46.4500   33.8050   39.9530 C   0  0  0  0  0  0  0  0  0  0  0  0
   45.9300   34.0290   41.1780 N   0  0  0  0  0  0  0  0  0  0  0  0
   44.4710   35.9930   44.8940 C   0  0  0  0  0  0  0  0  0  0  0  0
   45.0960   35.8950   43.6330 C   0  0  0  0  0  0  0  0  0  0  0  0
   45.9160   34.8290   43.4230 C   0  0  0  0  0  0  0  0  0  0  0  0
   46.0600   33.9540   44.4500 N   0  0  0  0  0  0  0  0  0  0  0  0
   45.4660   34.0520   45.6460 C   0  0  0  0  0  0  0  0  0  0  0  0
   44.6550   35.1000   45.8640 N   0  0  0  0  0  0  0  0  0  0  0  0
   45.7190   33.1310   38.9130 C   0  0  0  0  0  0  0  0  0  0  0  0
   46.3820   32.5600   37.8680 C   0  0  0  0  0  0  0  0  0  0  0  0
   45.6780   31.9100   36.8500 C   0  0  0  0  0  0  0  0  0  0  0  0
   44.3060   31.9120   37.0150 C   0  0  0  0  0  0  0  0  0  0  0  0
   43.6010   32.4770   38.0570 C   0  0  0  0  0  0  0  0  0  0  0  0
   44.3630   33.0950   39.0130 N   0  0  0  0  0  0  0  0  0  0  0  0
   42.1350   32.4250   38.1160 C   0  0  0  0  0  0  0  0  0  0  0  0
   41.5580   33.6150   38.8100 C   0  0  0  0  0  0  0  0  0  0  0  0
   40.4350   34.2180   37.9770 C   0  0  0  0  0  0  0  0  0  0  0  0
   39.2790   34.4840   38.8870 C   0  0  0  0  0  0  0  0  0  0  0  0
   39.7360   34.1460   40.2700 C   0  0  0  0  0  0  0  0  0  0  0  0
   40.8680   33.1420   40.0830 C   0  0  0  0  0  0  0  0  0  0  0  0
   48.4166   35.6498   42.7969 H   0  0  0  0  0  0  0  0  0  0  0  0
   49.4465   35.2689   40.5548 H   0  0  0  0  0  0  0  0  0  0  0  0
   48.2037   34.1035   38.7558 H   0  0  0  0  0  0  0  0  0  0  0  0
   43.8019   36.8452   45.0841 H   0  0  0  0  0  0  0  0  0  0  0  0
   44.9274   36.6498   42.8508 H   0  0  0  0  0  0  0  0  0  0  0  0
   45.6372   33.2964   46.4269 H   0  0  0  0  0  0  0  0  0  0  0  0
   47.4800   32.6110   37.8253 H   0  0  0  0  0  0  0  0  0  0  0  0
   46.1744   31.4368   35.9900 H   0  0  0  0  0  0  0  0  0  0  0  0
   43.7149   31.4110   36.2343 H   0  0  0  0  0  0  0  0  0  0  0  0
   41.7399   32.3866   37.0901 H   0  0  0  0  0  0  0  0  0  0  0  0
   41.8506   31.5289   38.6871 H   0  0  0  0  0  0  0  0  0  0  0  0
   42.3711   34.3342   38.9880 H   0  0  0  0  0  0  0  0  0  0  0  0
   40.7737   35.1587   37.5184 H   0  0  0  0  0  0  0  0  0  0  0  0
   40.1394   33.5260   37.1746 H   0  0  0  0  0  0  0  0  0  0  0  0
   38.9887   35.5436   38.8317 H   0  0  0  0  0  0  0  0  0  0  0  0
   38.4032   33.8830   38.6011 H   0  0  0  0  0  0  0  0  0  0  0  0
   40.1003   35.0462   40.7866 H   0  0  0  0  0  0  0  0  0  0  0  0
   38.9203   33.7362   40.8838 H   0  0  0  0  0  0  0  0  0  0  0  0
   40.4730   32.1227   39.9604 H   0  0  0  0  0  0  0  0  0  0  0  0
   41.5476   33.0975   40.9468 H   0  0  0  0  0  0  0  0  0  0  0  0
  1  9  1  0
  2  1  2  0
  3  2  1  0
  4  5  1  0
  4  3  2  0
  5  6  2  0
  6  1  1  0
  7 12  2  0
  8  7  1  0
  9  8  2  0
  9 10  1  0
 10 11  2  0
 11 12  1  0
 13 18  1  0
 13  5  1  0
 14 13  2  0
 15 16  2  0
 15 14  1  0
 16 17  1  0
 17 19  1  0
 17 18  2  0
 19 20  1  0
 20 24  1  0
 21 20  1  0
 21 22  1  0
 22 23  1  0
 24 23  1  0
  2 25  1  0
  3 26  1  0
  4 27  1  0
  7 28  1  0
  8 29  1  0
 11 30  1  0
 14 31  1  0
 15 32  1  0
 16 33  1  0
 19 34  1  0
 19 35  1  0
 20 36  1  0
 21 37  1  0
 21 38  1  0
 22 39  1  0
 22 40  1  0
 23 41  1  0
 23 42  1  0
 24 43  1  0
 24 44  1  0
M  ISO  8  25  14  26  14  27  14  28  14  29  14  30  14  31  14  32  14
M  ISO  8  33  14  34   8  35   8  36  13  37  13  38  13  39  13  40  13
M  ISO  4  41  13  42  13  43  13  44  13
M  END
>  <minimizedAffinity>  (1) 
-6.42558718

>  <minimizedRMSD>  (1) 
3.14453363

$$$$
