
     RDKit          3D

 39 42  0  0  0  0  0  0  0  0999 V2000
   45.8880   33.1710   38.8990 C   0  0  0  0  0  0  0  0  0  0  0  0
   46.5710   32.6540   37.8370 C   0  0  0  0  0  0  0  0  0  0  0  0
   45.9030   31.9950   36.8110 C   0  0  0  0  0  0  0  0  0  0  0  0
   44.5280   31.9270   36.9830 C   0  0  0  0  0  0  0  0  0  0  0  0
   43.8000   32.4340   38.0360 C   0  0  0  0  0  0  0  0  0  0  0  0
   44.5310   33.0610   38.9930 N   0  0  0  0  0  0  0  0  0  0  0  0
   46.6690   34.6870   42.1500 C   0  0  0  0  0  0  0  0  0  0  0  0
   47.9380   35.1980   42.0280 C   0  0  0  0  0  0  0  0  0  0  0  0
   48.5120   35.0030   40.7970 C   0  0  0  0  0  0  0  0  0  0  0  0
   47.8500   34.3380   39.7590 C   0  0  0  0  0  0  0  0  0  0  0  0
   46.5820   33.8550   39.9550 C   0  0  0  0  0  0  0  0  0  0  0  0
   46.0370   34.0570   41.1730 N   0  0  0  0  0  0  0  0  0  0  0  0
   44.4700   35.9650   44.8780 C   0  0  0  0  0  0  0  0  0  0  0  0
   45.1180   35.8810   43.6320 C   0  0  0  0  0  0  0  0  0  0  0  0
   45.9630   34.8360   43.4190 C   0  0  0  0  0  0  0  0  0  0  0  0
   46.1230   33.9320   44.4450 N   0  0  0  0  0  0  0  0  0  0  0  0
   45.4900   34.0360   45.6280 C   0  0  0  0  0  0  0  0  0  0  0  0
   44.6570   35.0640   45.8390 N   0  0  0  0  0  0  0  0  0  0  0  0
   42.3440   32.2860   38.0850 C   0  0  0  0  0  0  0  0  0  0  0  0
   41.6550   33.4120   38.7690 C   0  0  0  0  0  0  0  0  0  0  0  0
   41.4760   34.6940   38.3030 C   0  0  0  0  0  0  0  0  0  0  0  0
   40.8100   35.6340   39.0600 C   0  0  0  0  0  0  0  0  0  0  0  0
   40.3100   35.3390   40.2790 N   0  0  0  0  0  0  0  0  0  0  0  0
   40.4910   34.0660   40.7350 C   0  0  0  0  0  0  0  0  0  0  0  0
   41.1450   33.1460   39.9900 N   0  0  0  0  0  0  0  0  0  0  0  0
   47.6650   32.7600   37.7919 H   0  0  0  0  0  0  0  0  0  0  0  0
   46.4192   31.5654   35.9398 H   0  0  0  0  0  0  0  0  0  0  0  0
   43.9588   31.4134   36.1942 H   0  0  0  0  0  0  0  0  0  0  0  0
   48.4515   35.7201   42.8488 H   0  0  0  0  0  0  0  0  0  0  0  0
   49.5289   35.3831   40.6198 H   0  0  0  0  0  0  0  0  0  0  0  0
   48.3465   34.2029   38.7867 H   0  0  0  0  0  0  0  0  0  0  0  0
   43.7847   36.8051   45.0642 H   0  0  0  0  0  0  0  0  0  0  0  0
   44.9465   36.6381   42.8527 H   0  0  0  0  0  0  0  0  0  0  0  0
   45.6549   33.2844   46.4141 H   0  0  0  0  0  0  0  0  0  0  0  0
   41.9659   32.2215   37.0540 H   0  0  0  0  0  0  0  0  0  0  0  0
   42.1311   31.3764   38.6658 H   0  0  0  0  0  0  0  0  0  0  0  0
   41.8692   34.9724   37.3141 H   0  0  0  0  0  0  0  0  0  0  0  0
   40.6826   36.6510   38.6605 H   0  0  0  0  0  0  0  0  0  0  0  0
   40.0992   33.7837   41.7233 H   0  0  0  0  0  0  0  0  0  0  0  0
  1  6  1  0
  1 11  1  0
  2  1  2  0
  3  4  2  0
  3  2  1  0
  4  5  1  0
  5 19  1  0
  5  6  2  0
  7 15  1  0
  8  7  2  0
  9  8  1  0
 10 11  1  0
 10  9  2  0
 11 12  2  0
 12  7  1  0
 13 18  2  0
 14 13  1  0
 15 14  2  0
 15 16  1  0
 16 17  2  0
 17 18  1  0
 19 20  1  0
 20 25  1  0
 21 20  2  0
 21 22  1  0
 22 23  2  0
 23 24  1  0
 25 24  2  0
  2 26  1  0
  3 27  1  0
  4 28  1  0
  8 29  1  0
  9 30  1  0
 10 31  1  0
 13 32  1  0
 14 33  1  0
 17 34  1  0
 19 35  1  0
 19 36  1  0
 21 37  1  0
 22 38  1  0
 24 39  1  0
M  ISO  8  26  14  27  14  28  14  29  14  30  14  31  14  32  14  33  14
M  ISO  6  34  14  35   8  36   8  37  14  38  14  39  14
M  END
>  <minimizedAffinity>  (1) 
-6.4086132

>  <minimizedRMSD>  (1) 
1.3930006

$$$$
