
     RDKit          3D

 38 41  0  0  0  0  0  0  0  0999 V2000
   46.7800   34.7220   42.0890 C   0  0  0  0  0  0  0  0  0  0  0  0
   48.0530   35.2320   41.9930 C   0  0  0  0  0  0  0  0  0  0  0  0
   48.6450   35.0580   40.7690 C   0  0  0  0  0  0  0  0  0  0  0  0
   48.0040   34.4150   39.7070 C   0  0  0  0  0  0  0  0  0  0  0  0
   46.7320   33.9280   39.8660 C   0  0  0  0  0  0  0  0  0  0  0  0
   46.1620   34.1070   41.0760 N   0  0  0  0  0  0  0  0  0  0  0  0
   44.5030   35.9390   44.7700 C   0  0  0  0  0  0  0  0  0  0  0  0
   45.1800   35.8750   43.5370 C   0  0  0  0  0  0  0  0  0  0  0  0
   46.0500   34.8460   43.3400 C   0  0  0  0  0  0  0  0  0  0  0  0
   46.2020   33.9410   44.3640 N   0  0  0  0  0  0  0  0  0  0  0  0
   45.5420   34.0260   45.5320 C   0  0  0  0  0  0  0  0  0  0  0  0
   44.6870   35.0360   45.7290 N   0  0  0  0  0  0  0  0  0  0  0  0
   46.0570   33.2630   38.7810 C   0  0  0  0  0  0  0  0  0  0  0  0
   46.7160   32.9870   37.6220 C   0  0  0  0  0  0  0  0  0  0  0  0
   46.0750   32.3460   36.5670 C   0  0  0  0  0  0  0  0  0  0  0  0
   44.7370   32.0310   36.8190 C   0  0  0  0  0  0  0  0  0  0  0  0
   44.0420   32.2980   37.9860 C   0  0  0  0  0  0  0  0  0  0  0  0
   44.7470   32.9280   38.9660 N   0  0  0  0  0  0  0  0  0  0  0  0
   42.6410   31.9080   38.1110 C   0  0  0  0  0  0  0  0  0  0  0  0
   41.6860   33.0020   38.2780 C   0  0  0  0  0  0  0  0  0  0  0  0
   40.3440   33.0720   38.1860 C   0  0  0  0  0  0  0  0  0  0  0  0
   39.6820   34.2480   38.3930 C   0  0  0  0  0  0  0  0  0  0  0  0
   40.5260   35.3630   38.7070 C   0  0  0  0  0  0  0  0  0  0  0  0
   42.2100   34.6280   38.6790 S   0  0  0  0  0  0  0  0  0  0  0  0
   48.5556   35.7384   42.8302 H   0  0  0  0  0  0  0  0  0  0  0  0
   49.6653   35.4398   40.6168 H   0  0  0  0  0  0  0  0  0  0  0  0
   48.5201   34.2993   38.7425 H   0  0  0  0  0  0  0  0  0  0  0  0
   43.7975   36.7644   44.9462 H   0  0  0  0  0  0  0  0  0  0  0  0
   45.0114   36.6324   42.7573 H   0  0  0  0  0  0  0  0  0  0  0  0
   45.7032   33.2730   46.3175 H   0  0  0  0  0  0  0  0  0  0  0  0
   47.7724   33.2756   37.5183 H   0  0  0  0  0  0  0  0  0  0  0  0
   46.5772   32.1079   35.6177 H   0  0  0  0  0  0  0  0  0  0  0  0
   44.1844   31.5234   36.0147 H   0  0  0  0  0  0  0  0  0  0  0  0
   42.3631   31.3538   37.2023 H   0  0  0  0  0  0  0  0  0  0  0  0
   42.5786   31.3148   39.0352 H   0  0  0  0  0  0  0  0  0  0  0  0
   39.7713   32.1657   37.9397 H   0  0  0  0  0  0  0  0  0  0  0  0
   38.5874   34.3330   38.3242 H   0  0  0  0  0  0  0  0  0  0  0  0
   40.2366   36.4039   38.9141 H   0  0  0  0  0  0  0  0  0  0  0  0
  1  9  1  0
  2  1  2  0
  3  2  1  0
  4  5  1  0
  4  3  2  0
  5  6  2  0
  6  1  1  0
  7 12  2  0
  8  7  1  0
  9  8  2  0
  9 10  1  0
 10 11  2  0
 11 12  1  0
 13 18  1  0
 13  5  1  0
 14 13  2  0
 15 16  2  0
 15 14  1  0
 16 17  1  0
 17 19  1  0
 17 18  2  0
 19 20  1  0
 20 24  1  0
 21 20  2  0
 21 22  1  0
 22 23  2  0
 24 23  1  0
  2 25  1  0
  3 26  1  0
  4 27  1  0
  7 28  1  0
  8 29  1  0
 11 30  1  0
 14 31  1  0
 15 32  1  0
 16 33  1  0
 19 34  1  0
 19 35  1  0
 21 36  1  0
 22 37  1  0
 23 38  1  0
M  ISO  8  25  14  26  14  27  14  28  14  29  14  30  14  31  14  32  14
M  ISO  6  33  14  34   8  35   8  36  14  37  14  38  14
M  END
>  <minimizedAffinity>  (1) 
-6.33285952

>  <minimizedRMSD>  (1) 
0.984189689

$$$$
