
     RDKit          3D

 38 41  0  0  0  0  0  0  0  0999 V2000
   46.7630   34.7370   42.0440 C   0  0  0  0  0  0  0  0  0  0  0  0
   48.0200   35.2850   41.9290 C   0  0  0  0  0  0  0  0  0  0  0  0
   48.6140   35.0940   40.7100 C   0  0  0  0  0  0  0  0  0  0  0  0
   47.9940   34.3980   39.6680 C   0  0  0  0  0  0  0  0  0  0  0  0
   46.7350   33.8770   39.8530 C   0  0  0  0  0  0  0  0  0  0  0  0
   46.1620   34.0740   41.0600 N   0  0  0  0  0  0  0  0  0  0  0  0
   44.5020   35.9830   44.7220 C   0  0  0  0  0  0  0  0  0  0  0  0
   45.1780   35.9150   43.4900 C   0  0  0  0  0  0  0  0  0  0  0  0
   46.0310   34.8730   43.2940 C   0  0  0  0  0  0  0  0  0  0  0  0
   46.1670   33.9650   44.3180 N   0  0  0  0  0  0  0  0  0  0  0  0
   45.5100   34.0540   45.4860 C   0  0  0  0  0  0  0  0  0  0  0  0
   44.6740   35.0700   45.6870 N   0  0  0  0  0  0  0  0  0  0  0  0
   46.0850   33.1560   38.7880 C   0  0  0  0  0  0  0  0  0  0  0  0
   46.7930   32.6880   37.7260 C   0  0  0  0  0  0  0  0  0  0  0  0
   46.1900   31.9880   36.6950 C   0  0  0  0  0  0  0  0  0  0  0  0
   44.8110   31.8210   36.8630 C   0  0  0  0  0  0  0  0  0  0  0  0
   44.0510   32.2850   37.9350 C   0  0  0  0  0  0  0  0  0  0  0  0
   44.7370   32.9620   38.8990 N   0  0  0  0  0  0  0  0  0  0  0  0
   42.6130   32.0330   37.9900 C   0  0  0  0  0  0  0  0  0  0  0  0
   41.9640   33.3160   38.4280 C   0  0  0  0  0  0  0  0  0  0  0  0
   40.9090   33.3760   39.3440 C   0  0  0  0  0  0  0  0  0  0  0  0
   40.5410   34.6660   39.5350 N   0  0  0  0  0  0  0  0  0  0  0  0
   41.3570   35.4060   38.7450 C   0  0  0  0  0  0  0  0  0  0  0  0
   42.2020   34.5950   38.0870 N   0  0  0  0  0  0  0  0  0  0  0  0
   48.5079   35.8319   42.7493 H   0  0  0  0  0  0  0  0  0  0  0  0
   49.6206   35.5052   40.5438 H   0  0  0  0  0  0  0  0  0  0  0  0
   48.5105   34.2679   38.7055 H   0  0  0  0  0  0  0  0  0  0  0  0
   43.8066   36.8166   44.8993 H   0  0  0  0  0  0  0  0  0  0  0  0
   45.0225   36.6774   42.7125 H   0  0  0  0  0  0  0  0  0  0  0  0
   45.6612   33.2954   46.2681 H   0  0  0  0  0  0  0  0  0  0  0  0
   47.8769   32.8709   37.6847 H   0  0  0  0  0  0  0  0  0  0  0  0
   46.7424   31.6000   35.8265 H   0  0  0  0  0  0  0  0  0  0  0  0
   44.2762   31.2715   36.0743 H   0  0  0  0  0  0  0  0  0  0  0  0
   42.2415   31.7405   36.9968 H   0  0  0  0  0  0  0  0  0  0  0  0
   42.3819   31.2152   38.6884 H   0  0  0  0  0  0  0  0  0  0  0  0
   40.4474   32.5068   39.8354 H   0  0  0  0  0  0  0  0  0  0  0  0
   41.3312   36.5021   38.6563 H   0  0  0  0  0  0  0  0  0  0  0  0
   42.9238   34.9060   37.4213 H   0  0  0  0  0  0  0  0  0  0  0  0
  1  9  1  0
  2  1  2  0
  3  2  1  0
  4  5  1  0
  4  3  2  0
  5  6  2  0
  6  1  1  0
  7 12  2  0
  8  7  1  0
  9  8  2  0
  9 10  1  0
 10 11  2  0
 11 12  1  0
 13 18  1  0
 13  5  1  0
 14 13  2  0
 15 16  2  0
 15 14  1  0
 16 17  1  0
 17 19  1  0
 17 18  2  0
 19 20  1  0
 20 21  2  0
 21 22  1  0
 23 22  2  0
 24 20  1  0
 24 23  1  0
  2 25  1  0
  3 26  1  0
  4 27  1  0
  7 28  1  0
  8 29  1  0
 11 30  1  0
 14 31  1  0
 15 32  1  0
 16 33  1  0
 19 34  1  0
 19 35  1  0
 21 36  1  0
 23 37  1  0
 24 38  1  0
M  ISO  8  25  14  26  14  27  14  28  14  29  14  30  14  31  14  32  14
M  ISO  6  33  14  34   8  35   8  36  14  37  14  38   9
M  END
>  <minimizedAffinity>  (1) 
-6.29610157

>  <minimizedRMSD>  (1) 
3.16254401

$$$$
