
     RDKit          3D

 43 46  0  0  0  0  0  0  0  0999 V2000
   45.8610   33.1620   38.9050 C   0  0  0  0  0  0  0  0  0  0  0  0
   46.5450   32.6350   37.8430 C   0  0  0  0  0  0  0  0  0  0  0  0
   45.8770   31.9690   36.8230 C   0  0  0  0  0  0  0  0  0  0  0  0
   44.4920   31.8970   36.9910 C   0  0  0  0  0  0  0  0  0  0  0  0
   43.7740   32.4170   38.0500 C   0  0  0  0  0  0  0  0  0  0  0  0
   44.5060   33.0600   39.0140 N   0  0  0  0  0  0  0  0  0  0  0  0
   46.6770   34.6790   42.1550 C   0  0  0  0  0  0  0  0  0  0  0  0
   47.9410   35.1880   42.0230 C   0  0  0  0  0  0  0  0  0  0  0  0
   48.4990   34.9930   40.7850 C   0  0  0  0  0  0  0  0  0  0  0  0
   47.8360   34.3300   39.7440 C   0  0  0  0  0  0  0  0  0  0  0  0
   46.5700   33.8470   39.9500 C   0  0  0  0  0  0  0  0  0  0  0  0
   46.0270   34.0460   41.1780 N   0  0  0  0  0  0  0  0  0  0  0  0
   44.4700   35.9680   44.8650 C   0  0  0  0  0  0  0  0  0  0  0  0
   45.1270   35.8640   43.6370 C   0  0  0  0  0  0  0  0  0  0  0  0
   45.9760   34.8230   43.4220 C   0  0  0  0  0  0  0  0  0  0  0  0
   46.1330   33.9230   44.4540 N   0  0  0  0  0  0  0  0  0  0  0  0
   45.4880   34.0440   45.6330 C   0  0  0  0  0  0  0  0  0  0  0  0
   44.6550   35.0680   45.8390 N   0  0  0  0  0  0  0  0  0  0  0  0
   42.3200   32.2700   38.1040 C   0  0  0  0  0  0  0  0  0  0  0  0
   41.7750   33.2280   39.0100 N   0  0  0  0  0  0  0  0  0  0  0  0
   41.2220   34.3710   38.3700 C   0  0  0  0  0  0  0  0  0  0  0  0
   40.4470   35.3030   39.2070 C   0  0  0  0  0  0  0  0  0  0  0  0
   40.1080   34.8200   40.5240 N   0  0  0  0  0  0  0  0  0  0  0  0
   39.7590   33.4210   40.4150 C   0  0  0  0  0  0  0  0  0  0  0  0
   41.0440   32.6930   40.0980 C   0  0  0  0  0  0  0  0  0  0  0  0
   47.6390   32.7403   37.7965 H   0  0  0  0  0  0  0  0  0  0  0  0
   46.3954   31.5346   35.9555 H   0  0  0  0  0  0  0  0  0  0  0  0
   43.9205   31.3782   36.2073 H   0  0  0  0  0  0  0  0  0  0  0  0
   48.4639   35.7083   42.8390 H   0  0  0  0  0  0  0  0  0  0  0  0
   49.5141   35.3749   40.6012 H   0  0  0  0  0  0  0  0  0  0  0  0
   48.3277   34.1981   38.7689 H   0  0  0  0  0  0  0  0  0  0  0  0
   43.7835   36.8102   45.0363 H   0  0  0  0  0  0  0  0  0  0  0  0
   44.9597   36.6160   42.8518 H   0  0  0  0  0  0  0  0  0  0  0  0
   45.6483   33.2984   46.4257 H   0  0  0  0  0  0  0  0  0  0  0  0
   41.8981   32.4332   37.1013 H   0  0  0  0  0  0  0  0  0  0  0  0
   42.0681   31.2564   38.4492 H   0  0  0  0  0  0  0  0  0  0  0  0
   41.3669   34.5517   37.2947 H   0  0  0  0  0  0  0  0  0  0  0  0
   40.1469   36.3000   38.8521 H   0  0  0  0  0  0  0  0  0  0  0  0
   40.1137   35.3755   41.3913 H   0  0  0  0  0  0  0  0  0  0  0  0
   39.3381   33.0573   41.3640 H   0  0  0  0  0  0  0  0  0  0  0  0
   39.0002   33.2553   39.6361 H   0  0  0  0  0  0  0  0  0  0  0  0
   40.7962   31.6474   39.8630 H   0  0  0  0  0  0  0  0  0  0  0  0
   41.6865   32.7972   40.9847 H   0  0  0  0  0  0  0  0  0  0  0  0
  1  6  1  0
  1 11  1  0
  2  1  2  0
  3  4  2  0
  3  2  1  0
  4  5  1  0
  5 19  1  0
  5  6  2  0
  7 15  1  0
  8  7  2  0
  9  8  1  0
 10 11  1  0
 10  9  2  0
 11 12  2  0
 12  7  1  0
 13 18  2  0
 14 13  1  0
 15 14  2  0
 15 16  1  0
 16 17  2  0
 17 18  1  0
 19 20  1  0
 20 25  1  0
 21 20  1  0
 21 22  2  0
 22 23  1  0
 24 23  1  0
 25 24  1  0
  2 26  1  0
  3 27  1  0
  4 28  1  0
  8 29  1  0
  9 30  1  0
 10 31  1  0
 13 32  1  0
 14 33  1  0
 17 34  1  0
 19 35  1  0
 19 36  1  0
 21 37  1  0
 22 38  1  0
 23 39  1  0
 24 40  1  0
 24 41  1  0
 25 42  1  0
 25 43  1  0
M  ISO  8  26  14  27  14  28  14  29  14  30  14  31  14  32  14  33  14
M  ISO  8  34  14  35   8  36   8  37  13  38  13  40  13  41  13  42  13
M  ISO  1  43  13
M  END
>  <minimizedAffinity>  (1) 
-6.25158167

>  <minimizedRMSD>  (1) 
1.53346789

$$$$
