
     RDKit          3D

 37 40  0  0  0  0  0  0  0  0999 V2000
   46.7420   34.7240   42.0870 C   0  0  0  0  0  0  0  0  0  0  0  0
   48.0270   35.2310   41.9890 C   0  0  0  0  0  0  0  0  0  0  0  0
   48.6200   35.0490   40.7630 C   0  0  0  0  0  0  0  0  0  0  0  0
   47.9740   34.4000   39.7040 C   0  0  0  0  0  0  0  0  0  0  0  0
   46.7020   33.9210   39.8700 C   0  0  0  0  0  0  0  0  0  0  0  0
   46.1280   34.1100   41.0870 N   0  0  0  0  0  0  0  0  0  0  0  0
   44.4950   35.9780   44.7790 C   0  0  0  0  0  0  0  0  0  0  0  0
   45.1660   35.8990   43.5440 C   0  0  0  0  0  0  0  0  0  0  0  0
   46.0220   34.8610   43.3370 C   0  0  0  0  0  0  0  0  0  0  0  0
   46.1600   33.9680   44.3610 N   0  0  0  0  0  0  0  0  0  0  0  0
   45.5190   34.0490   45.5320 C   0  0  0  0  0  0  0  0  0  0  0  0
   44.6770   35.0710   45.7380 N   0  0  0  0  0  0  0  0  0  0  0  0
   46.0100   33.2480   38.7940 C   0  0  0  0  0  0  0  0  0  0  0  0
   46.6270   33.0820   37.5920 C   0  0  0  0  0  0  0  0  0  0  0  0
   45.9820   32.4380   36.5390 C   0  0  0  0  0  0  0  0  0  0  0  0
   44.6880   32.0080   36.8600 C   0  0  0  0  0  0  0  0  0  0  0  0
   44.0410   32.1630   38.0690 C   0  0  0  0  0  0  0  0  0  0  0  0
   44.7450   32.8030   39.0390 N   0  0  0  0  0  0  0  0  0  0  0  0
   42.6900   31.6410   38.2430 C   0  0  0  0  0  0  0  0  0  0  0  0
   41.7020   32.7690   38.2150 C   0  0  0  0  0  0  0  0  0  0  0  0
   40.3170   32.5690   38.0300 C   0  0  0  0  0  0  0  0  0  0  0  0
   39.6790   34.3450   38.0930 S   0  0  0  0  0  0  0  0  0  0  0  0
   41.4440   34.9850   38.3620 C   0  0  0  0  0  0  0  0  0  0  0  0
   42.1420   34.0090   38.3690 N   0  0  0  0  0  0  0  0  0  0  0  0
   48.5318   35.7381   42.8245 H   0  0  0  0  0  0  0  0  0  0  0  0
   49.6411   35.4276   40.6077 H   0  0  0  0  0  0  0  0  0  0  0  0
   48.4878   34.2750   38.7394 H   0  0  0  0  0  0  0  0  0  0  0  0
   43.8006   36.8123   44.9574 H   0  0  0  0  0  0  0  0  0  0  0  0
   45.0025   36.6580   42.7648 H   0  0  0  0  0  0  0  0  0  0  0  0
   45.6800   33.2903   46.3121 H   0  0  0  0  0  0  0  0  0  0  0  0
   47.6496   33.4619   37.4504 H   0  0  0  0  0  0  0  0  0  0  0  0
   46.4432   32.2823   35.5525 H   0  0  0  0  0  0  0  0  0  0  0  0
   44.1290   31.4928   36.0650 H   0  0  0  0  0  0  0  0  0  0  0  0
   42.4631   30.9365   37.4292 H   0  0  0  0  0  0  0  0  0  0  0  0
   42.6226   31.1231   39.2111 H   0  0  0  0  0  0  0  0  0  0  0  0
   39.7597   31.6314   37.8876 H   0  0  0  0  0  0  0  0  0  0  0  0
   41.7611   36.0310   38.4856 H   0  0  0  0  0  0  0  0  0  0  0  0
  1  9  1  0
  2  1  2  0
  3  2  1  0
  4  5  1  0
  4  3  2  0
  5  6  2  0
  6  1  1  0
  7 12  2  0
  8  7  1  0
  9  8  2  0
  9 10  1  0
 10 11  2  0
 11 12  1  0
 13 18  1  0
 13  5  1  0
 14 13  2  0
 15 16  2  0
 15 14  1  0
 16 17  1  0
 17 19  1  0
 17 18  2  0
 20 19  1  0
 20 24  1  0
 21 22  1  0
 21 20  2  0
 22 23  1  0
 23 24  2  0
  2 25  1  0
  3 26  1  0
  4 27  1  0
  7 28  1  0
  8 29  1  0
 11 30  1  0
 14 31  1  0
 15 32  1  0
 16 33  1  0
 19 34  1  0
 19 35  1  0
 21 36  1  0
 23 37  1  0
M  ISO  8  25  14  26  14  27  14  28  14  29  14  30  14  31  14  32  14
M  ISO  5  33  14  34   8  35   8  36  14  37  14
M  END
>  <minimizedAffinity>  (1) 
-6.12960434

>  <minimizedRMSD>  (1) 
0.681553721

$$$$
