
     RDKit          3D

 38 40  0  0  0  0  0  0  0  0999 V2000
   46.0600   33.0980   38.8360 C   0  0  0  0  0  0  0  0  0  0  0  0
   46.7830   32.5200   37.8440 C   0  0  0  0  0  0  0  0  0  0  0  0
   46.1670   31.7880   36.8360 C   0  0  0  0  0  0  0  0  0  0  0  0
   44.7890   31.7100   36.9450 C   0  0  0  0  0  0  0  0  0  0  0  0
   44.0170   32.2860   37.9410 C   0  0  0  0  0  0  0  0  0  0  0  0
   44.6970   32.9910   38.8950 N   0  0  0  0  0  0  0  0  0  0  0  0
   46.7270   34.7120   42.0680 C   0  0  0  0  0  0  0  0  0  0  0  0
   47.9880   35.2730   41.9450 C   0  0  0  0  0  0  0  0  0  0  0  0
   48.5800   35.0760   40.7200 C   0  0  0  0  0  0  0  0  0  0  0  0
   47.9580   34.3700   39.6900 C   0  0  0  0  0  0  0  0  0  0  0  0
   46.7020   33.8400   39.8870 C   0  0  0  0  0  0  0  0  0  0  0  0
   46.1350   34.0400   41.0900 N   0  0  0  0  0  0  0  0  0  0  0  0
   44.5000   35.9830   44.7520 C   0  0  0  0  0  0  0  0  0  0  0  0
   45.1620   35.9050   43.5090 C   0  0  0  0  0  0  0  0  0  0  0  0
   46.0090   34.8550   43.3240 C   0  0  0  0  0  0  0  0  0  0  0  0
   46.1570   33.9530   44.3530 N   0  0  0  0  0  0  0  0  0  0  0  0
   45.5090   34.0590   45.5280 C   0  0  0  0  0  0  0  0  0  0  0  0
   44.6780   35.0820   45.7200 N   0  0  0  0  0  0  0  0  0  0  0  0
   42.5600   32.1220   37.9420 C   0  0  0  0  0  0  0  0  0  0  0  0
   41.8190   33.3550   37.9360 N   0  0  0  0  0  0  0  0  0  0  0  0
   40.3850   33.4070   38.0400 C   0  0  0  0  0  0  0  0  0  0  0  0
   39.8500   32.3100   38.5090 N   0  0  0  0  0  0  0  0  0  0  0  0
   39.6550   34.5840   37.6510 N   0  0  0  0  0  0  0  0  0  0  0  0
   38.8030   32.3380   38.5890 H   0  0  0  0  0  0  0  0  0  0  0  0
   47.8772   32.6329   37.8375 H   0  0  0  0  0  0  0  0  0  0  0  0
   46.7278   31.3102   36.0192 H   0  0  0  0  0  0  0  0  0  0  0  0
   44.2583   31.1382   36.1696 H   0  0  0  0  0  0  0  0  0  0  0  0
   48.4747   35.8295   42.7595 H   0  0  0  0  0  0  0  0  0  0  0  0
   49.5835   35.4913   40.5451 H   0  0  0  0  0  0  0  0  0  0  0  0
   48.4684   34.2372   38.7247 H   0  0  0  0  0  0  0  0  0  0  0  0
   43.8092   36.8202   44.9306 H   0  0  0  0  0  0  0  0  0  0  0  0
   45.0012   36.6587   42.7241 H   0  0  0  0  0  0  0  0  0  0  0  0
   45.6637   33.3106   46.3192 H   0  0  0  0  0  0  0  0  0  0  0  0
   42.2786   31.5482   37.0467 H   0  0  0  0  0  0  0  0  0  0  0  0
   42.3045   31.6091   38.8809 H   0  0  0  0  0  0  0  0  0  0  0  0
   42.3385   34.2406   37.8535 H   0  0  0  0  0  0  0  0  0  0  0  0
   38.6284   34.6036   37.7322 H   0  0  0  0  0  0  0  0  0  0  0  0
   40.1589   35.4071   37.2913 H   0  0  0  0  0  0  0  0  0  0  0  0
  1  6  1  0
  1 11  1  0
  2  1  2  0
  3  4  2  0
  3  2  1  0
  4  5  1  0
  5 19  1  0
  5  6  2  0
  7 15  1  0
  8  7  2  0
  9  8  1  0
 10 11  1  0
 10  9  2  0
 11 12  2  0
 12  7  1  0
 13 18  2  0
 14 13  1  0
 15 14  2  0
 15 16  1  0
 16 17  2  0
 17 18  1  0
 20 19  1  0
 20 21  1  0
 21 22  2  0
 22 24  1  0
 23 21  1  0
  2 25  1  0
  3 26  1  0
  4 27  1  0
  8 28  1  0
  9 29  1  0
 10 30  1  0
 13 31  1  0
 14 32  1  0
 17 33  1  0
 19 34  1  0
 19 35  1  0
 20 36  1  0
 23 37  1  0
 23 38  1  0
M  ISO  8  25  14  26  14  27  14  28  14  29  14  30  14  31  14  32  14
M  ISO  3  33  14  34   8  35   8
M  END
>  <minimizedAffinity>  (1) 
-6.10194874

>  <minimizedRMSD>  (1) 
1.1712575

$$$$
