
     RDKit          3D

 37 40  0  0  0  0  0  0  0  0999 V2000
   46.7800   34.7360   42.0670 C   0  0  0  0  0  0  0  0  0  0  0  0
   48.0580   35.2610   41.9830 C   0  0  0  0  0  0  0  0  0  0  0  0
   48.6580   35.0910   40.7560 C   0  0  0  0  0  0  0  0  0  0  0  0
   48.0230   34.4410   39.6920 C   0  0  0  0  0  0  0  0  0  0  0  0
   46.7470   33.9460   39.8580 C   0  0  0  0  0  0  0  0  0  0  0  0
   46.1720   34.1200   41.0640 N   0  0  0  0  0  0  0  0  0  0  0  0
   44.5040   35.9360   44.7470 C   0  0  0  0  0  0  0  0  0  0  0  0
   45.1750   35.8850   43.5120 C   0  0  0  0  0  0  0  0  0  0  0  0
   46.0460   34.8570   43.3230 C   0  0  0  0  0  0  0  0  0  0  0  0
   46.2050   33.9500   44.3470 N   0  0  0  0  0  0  0  0  0  0  0  0
   45.5480   34.0290   45.5160 C   0  0  0  0  0  0  0  0  0  0  0  0
   44.6850   35.0410   45.7120 N   0  0  0  0  0  0  0  0  0  0  0  0
   46.0840   33.2710   38.7780 C   0  0  0  0  0  0  0  0  0  0  0  0
   46.7080   33.1100   37.5720 C   0  0  0  0  0  0  0  0  0  0  0  0
   46.0860   32.4520   36.5150 C   0  0  0  0  0  0  0  0  0  0  0  0
   44.8010   31.9940   36.8200 C   0  0  0  0  0  0  0  0  0  0  0  0
   44.1430   32.1390   38.0220 C   0  0  0  0  0  0  0  0  0  0  0  0
   44.8340   32.7940   38.9900 N   0  0  0  0  0  0  0  0  0  0  0  0
   42.8000   31.5950   38.1890 C   0  0  0  0  0  0  0  0  0  0  0  0
   41.7470   32.5840   38.1920 N   0  0  0  0  0  0  0  0  0  0  0  0
   41.9570   33.8950   38.4720 C   0  0  0  0  0  0  0  0  0  0  0  0
   40.7820   34.5530   38.3920 N   0  0  0  0  0  0  0  0  0  0  0  0
   39.8530   33.6310   38.0590 C   0  0  0  0  0  0  0  0  0  0  0  0
   40.4390   32.4310   37.9370 N   0  0  0  0  0  0  0  0  0  0  0  0
   48.5514   35.7700   42.8241 H   0  0  0  0  0  0  0  0  0  0  0  0
   49.6756   35.4810   40.6061 H   0  0  0  0  0  0  0  0  0  0  0  0
   48.5394   34.3255   38.7277 H   0  0  0  0  0  0  0  0  0  0  0  0
   43.7941   36.7577   44.9226 H   0  0  0  0  0  0  0  0  0  0  0  0
   45.0032   36.6427   42.7333 H   0  0  0  0  0  0  0  0  0  0  0  0
   45.7137   33.2768   46.3013 H   0  0  0  0  0  0  0  0  0  0  0  0
   47.7237   33.5092   37.4342 H   0  0  0  0  0  0  0  0  0  0  0  0
   46.5603   32.3063   35.5333 H   0  0  0  0  0  0  0  0  0  0  0  0
   44.2612   31.4651   36.0207 H   0  0  0  0  0  0  0  0  0  0  0  0
   42.6091   30.8930   37.3640 H   0  0  0  0  0  0  0  0  0  0  0  0
   42.7790   31.1141   39.1781 H   0  0  0  0  0  0  0  0  0  0  0  0
   42.9275   34.3477   38.7234 H   0  0  0  0  0  0  0  0  0  0  0  0
   38.7819   33.8330   37.9108 H   0  0  0  0  0  0  0  0  0  0  0  0
  1  9  1  0
  2  1  2  0
  3  2  1  0
  4  5  1  0
  4  3  2  0
  5  6  2  0
  6  1  1  0
  7 12  2  0
  8  7  1  0
  9  8  2  0
  9 10  1  0
 10 11  2  0
 11 12  1  0
 13 18  1  0
 13  5  1  0
 14 13  2  0
 15 16  2  0
 15 14  1  0
 16 17  1  0
 17 19  1  0
 17 18  2  0
 19 20  1  0
 20 21  1  0
 22 21  2  0
 23 22  1  0
 24 23  2  0
 24 20  1  0
  2 25  1  0
  3 26  1  0
  4 27  1  0
  7 28  1  0
  8 29  1  0
 11 30  1  0
 14 31  1  0
 15 32  1  0
 16 33  1  0
 19 34  1  0
 19 35  1  0
 21 36  1  0
 23 37  1  0
M  ISO  8  25  14  26  14  27  14  28  14  29  14  30  14  31  14  32  14
M  ISO  5  33  14  34   8  35   8  36  14  37  14
M  END
>  <minimizedAffinity>  (1) 
-6.04184771

>  <minimizedRMSD>  (1) 
0.644839704

$$$$
