
     RDKit          3D

 32 34  0  0  0  0  0  0  0  0999 V2000
   46.8170   34.7470   42.0300 C   0  0  0  0  0  0  0  0  0  0  0  0
   48.0700   35.3030   41.9400 C   0  0  0  0  0  0  0  0  0  0  0  0
   48.6730   35.1390   40.7160 C   0  0  0  0  0  0  0  0  0  0  0  0
   48.0620   34.4650   39.6500 C   0  0  0  0  0  0  0  0  0  0  0  0
   46.8090   33.9360   39.8150 C   0  0  0  0  0  0  0  0  0  0  0  0
   46.2260   34.1030   41.0240 N   0  0  0  0  0  0  0  0  0  0  0  0
   44.5000   35.9310   44.7080 C   0  0  0  0  0  0  0  0  0  0  0  0
   45.1960   35.8670   43.4860 C   0  0  0  0  0  0  0  0  0  0  0  0
   46.0780   34.8520   43.2730 C   0  0  0  0  0  0  0  0  0  0  0  0
   46.2130   33.9650   44.2890 N   0  0  0  0  0  0  0  0  0  0  0  0
   45.5560   34.0170   45.4520 C   0  0  0  0  0  0  0  0  0  0  0  0
   44.6890   35.0180   45.6590 N   0  0  0  0  0  0  0  0  0  0  0  0
   46.1550   33.2400   38.7400 C   0  0  0  0  0  0  0  0  0  0  0  0
   46.8120   33.0350   37.5560 C   0  0  0  0  0  0  0  0  0  0  0  0
   46.1940   32.3650   36.5030 C   0  0  0  0  0  0  0  0  0  0  0  0
   44.8890   31.9490   36.7850 C   0  0  0  0  0  0  0  0  0  0  0  0
   44.2010   32.1390   37.9620 C   0  0  0  0  0  0  0  0  0  0  0  0
   44.8780   32.8050   38.9460 N   0  0  0  0  0  0  0  0  0  0  0  0
   42.8390   31.6370   38.1040 C   0  0  0  0  0  0  0  0  0  0  0  0
   41.8790   32.6380   38.2150 O   0  0  0  0  0  0  0  0  0  0  0  0
   48.5494   35.8338   42.7757 H   0  0  0  0  0  0  0  0  0  0  0  0
   49.6801   35.5553   40.5664 H   0  0  0  0  0  0  0  0  0  0  0  0
   48.5847   34.3614   38.6877 H   0  0  0  0  0  0  0  0  0  0  0  0
   43.7867   36.7504   44.8806 H   0  0  0  0  0  0  0  0  0  0  0  0
   45.0289   36.6295   42.7110 H   0  0  0  0  0  0  0  0  0  0  0  0
   45.7238   33.2524   46.2248 H   0  0  0  0  0  0  0  0  0  0  0  0
   47.8411   33.4043   37.4351 H   0  0  0  0  0  0  0  0  0  0  0  0
   46.6874   32.1799   35.5375 H   0  0  0  0  0  0  0  0  0  0  0  0
   44.3575   31.4149   35.9836 H   0  0  0  0  0  0  0  0  0  0  0  0
   42.6013   31.0252   37.2212 H   0  0  0  0  0  0  0  0  0  0  0  0
   42.8073   31.0584   39.0390 H   0  0  0  0  0  0  0  0  0  0  0  0
   41.7029   32.8217   39.1717 H   0  0  0  0  0  0  0  0  0  0  0  0
  1  9  1  0
  2  1  2  0
  3  2  1  0
  4  5  1  0
  4  3  2  0
  5  6  2  0
  6  1  1  0
  7 12  2  0
  8  7  1  0
  9  8  2  0
  9 10  1  0
 10 11  2  0
 11 12  1  0
 13 18  1  0
 13  5  1  0
 14 13  2  0
 15 16  2  0
 15 14  1  0
 16 17  1  0
 17 19  1  0
 17 18  2  0
 19 20  1  0
  2 21  1  0
  3 22  1  0
  4 23  1  0
  7 24  1  0
  8 25  1  0
 11 26  1  0
 14 27  1  0
 15 28  1  0
 16 29  1  0
 19 30  1  0
 19 31  1  0
 20 32  1  0
M  ISO  8  21  14  22  14  23  14  24  14  25  14  26  14  27  14  28  14
M  ISO  4  29  14  30   8  31   8  32   3
M  END
>  <minimizedAffinity>  (1) 
-5.42610359

>  <minimizedRMSD>  (1) 
0.352761716

$$$$
