
     RDKit          3D

 37 40  0  0  0  0  0  0  0  0999 V2000
   45.1810   35.1580   43.9290 C   0  0  0  0  0  0  0  0  0  0  0  0
   45.6730   35.1570   42.5990 C   0  0  0  0  0  0  0  0  0  0  0  0
   46.5280   34.1110   42.2280 C   0  0  0  0  0  0  0  0  0  0  0  0
   46.8300   33.1680   43.1680 N   0  0  0  0  0  0  0  0  0  0  0  0
   46.3510   33.1910   44.4160 C   0  0  0  0  0  0  0  0  0  0  0  0
   45.5300   34.1790   44.8020 N   0  0  0  0  0  0  0  0  0  0  0  0
   47.0050   34.1300   40.9050 N   0  0  0  0  0  0  0  0  0  0  0  0
   46.4740   33.5020   39.8440 C   0  0  0  0  0  0  0  0  0  0  0  0
   47.0250   33.5860   38.5800 C   0  0  0  0  0  0  0  0  0  0  0  0
   48.1720   34.3710   38.4860 C   0  0  0  0  0  0  0  0  0  0  0  0
   48.7230   34.4860   37.3480 O   0  0  0  0  0  0  0  0  0  0  0  0
   48.7170   35.0080   39.5430 N   0  0  0  0  0  0  0  0  0  0  0  0
   48.1280   34.8840   40.7600 C   0  0  0  0  0  0  0  0  0  0  0  0
   48.6950   35.5070   41.6900 O   0  0  0  0  0  0  0  0  0  0  0  0
   46.4290   32.8920   37.4300 C   0  0  0  0  0  0  0  0  0  0  0  0
   46.7520   32.1200   45.3220 C   0  0  0  0  0  0  0  0  0  0  0  0
   47.5840   31.0820   44.9540 C   0  0  0  0  0  0  0  0  0  0  0  0
   47.7500   30.2740   46.0230 N   0  0  0  0  0  0  0  0  0  0  0  0
   47.0460   30.7750   47.0530 C   0  0  0  0  0  0  0  0  0  0  0  0
   46.8980   30.3180   48.3390 C   0  0  0  0  0  0  0  0  0  0  0  0
   46.0930   31.0550   49.2030 C   0  0  0  0  0  0  0  0  0  0  0  0
   45.4390   32.2280   48.8190 C   0  0  0  0  0  0  0  0  0  0  0  0
   45.6120   32.6620   47.5070 C   0  0  0  0  0  0  0  0  0  0  0  0
   46.4110   31.9310   46.6450 C   0  0  0  0  0  0  0  0  0  0  0  0
   44.5074   35.9631   44.2577 H   0  0  0  0  0  0  0  0  0  0  0  0
   45.3941   35.9470   41.8862 H   0  0  0  0  0  0  0  0  0  0  0  0
   45.5659   32.8978   39.9865 H   0  0  0  0  0  0  0  0  0  0  0  0
   49.5664   35.5793   39.4286 H   0  0  0  0  0  0  0  0  0  0  0  0
   45.7515   32.1031   37.7887 H   0  0  0  0  0  0  0  0  0  0  0  0
   45.8633   33.6118   36.8202 H   0  0  0  0  0  0  0  0  0  0  0  0
   47.2260   32.4415   36.8202 H   0  0  0  0  0  0  0  0  0  0  0  0
   48.0343   30.9378   43.9608 H   0  0  0  0  0  0  0  0  0  0  0  0
   48.3207   29.4169   46.0456 H   0  0  0  0  0  0  0  0  0  0  0  0
   47.3995   29.3988   48.6759 H   0  0  0  0  0  0  0  0  0  0  0  0
   45.9661   30.6973   50.2354 H   0  0  0  0  0  0  0  0  0  0  0  0
   44.8105   32.7883   49.5268 H   0  0  0  0  0  0  0  0  0  0  0  0
   45.1167   33.5801   47.1579 H   0  0  0  0  0  0  0  0  0  0  0  0
  1  6  2  0
  2  1  1  0
  3  2  2  0
  3  4  1  0
  4  5  2  0
  5  6  1  0
  5 16  1  0
  7  3  1  0
  8  7  1  0
  9  8  2  0
 10  9  1  0
 10 12  1  0
 11 10  2  0
 12 13  1  0
 13  7  1  0
 13 14  2  0
 15  9  1  0
 16 24  1  0
 17 16  2  0
 17 18  1  0
 18 19  1  0
 19 20  2  0
 20 21  1  0
 22 21  2  0
 23 22  1  0
 24 19  1  0
 24 23  2  0
  1 25  1  0
  2 26  1  0
  8 27  1  0
 12 28  1  0
 15 29  1  0
 15 30  1  0
 15 31  1  0
 17 32  1  0
 18 33  1  0
 20 34  1  0
 21 35  1  0
 22 36  1  0
 23 37  1  0
M  ISO  8  25  14  26  14  27  14  28   9  29   8  30   8  31   8  32  14
M  ISO  5  33   9  34  14  35  14  36  14  37  14
M  END
>  <minimizedAffinity>  (1) 
-6.69799948

>  <minimizedRMSD>  (1) 
1.51324332

$$$$
