
     RDKit          3D

 30 32  0  0  0  0  0  0  0  0999 V2000
   46.5220   34.4300   41.6040 N   0  0  0  0  0  0  0  0  0  0  0  0
   45.9400   33.7980   40.5650 C   0  0  0  0  0  0  0  0  0  0  0  0
   46.5890   33.5670   39.3790 C   0  0  0  0  0  0  0  0  0  0  0  0
   47.8900   34.0300   39.3240 C   0  0  0  0  0  0  0  0  0  0  0  0
   48.5380   33.8420   38.2510 O   0  0  0  0  0  0  0  0  0  0  0  0
   48.5020   34.6640   40.3460 N   0  0  0  0  0  0  0  0  0  0  0  0
   47.8030   34.8630   41.4970 C   0  0  0  0  0  0  0  0  0  0  0  0
   48.4290   35.4560   42.3990 O   0  0  0  0  0  0  0  0  0  0  0  0
   44.5820   36.1940   44.1930 C   0  0  0  0  0  0  0  0  0  0  0  0
   45.1690   35.8900   42.9330 C   0  0  0  0  0  0  0  0  0  0  0  0
   45.9470   34.7150   42.8580 C   0  0  0  0  0  0  0  0  0  0  0  0
   46.0800   33.9670   43.9800 N   0  0  0  0  0  0  0  0  0  0  0  0
   45.5110   34.2880   45.1440 C   0  0  0  0  0  0  0  0  0  0  0  0
   44.7640   35.3980   45.2580 N   0  0  0  0  0  0  0  0  0  0  0  0
   45.6980   33.4320   46.3130 C   0  0  0  0  0  0  0  0  0  0  0  0
   46.6940   32.4940   46.4870 C   0  0  0  0  0  0  0  0  0  0  0  0
   46.5580   31.9040   47.6650 N   0  0  0  0  0  0  0  0  0  0  0  0
   45.4850   32.4500   48.2550 C   0  0  0  0  0  0  0  0  0  0  0  0
   44.9600   33.3790   47.4370 N   0  0  0  0  0  0  0  0  0  0  0  0
   45.9070   32.8670   38.2620 C   0  0  0  0  0  0  0  0  0  0  0  0
   44.9011   33.4531   40.6730 H   0  0  0  0  0  0  0  0  0  0  0  0
   49.4751   34.9897   40.2572 H   0  0  0  0  0  0  0  0  0  0  0  0
   43.9665   37.0998   44.2962 H   0  0  0  0  0  0  0  0  0  0  0  0
   45.0232   36.5406   42.0581 H   0  0  0  0  0  0  0  0  0  0  0  0
   47.4843   32.2692   45.7557 H   0  0  0  0  0  0  0  0  0  0  0  0
   45.0967   32.1812   49.2484 H   0  0  0  0  0  0  0  0  0  0  0  0
   44.1300   33.9550   47.6376 H   0  0  0  0  0  0  0  0  0  0  0  0
   45.1938   32.1350   38.6690 H   0  0  0  0  0  0  0  0  0  0  0  0
   45.3675   33.6003   37.6446 H   0  0  0  0  0  0  0  0  0  0  0  0
   46.6541   32.3468   37.6446 H   0  0  0  0  0  0  0  0  0  0  0  0
  1 11  1  0
  2  1  1  0
  3  2  2  0
  4  3  1  0
  4  6  1  0
  5  4  2  0
  6  7  1  0
  7  1  1  0
  7  8  2  0
  9 14  2  0
 10  9  1  0
 11 10  2  0
 11 12  1  0
 12 13  2  0
 13 14  1  0
 13 15  1  0
 15 16  2  0
 15 19  1  0
 16 17  1  0
 17 18  2  0
 19 18  1  0
 20  3  1  0
  2 21  1  0
  6 22  1  0
  9 23  1  0
 10 24  1  0
 16 25  1  0
 18 26  1  0
 19 27  1  0
 20 28  1  0
 20 29  1  0
 20 30  1  0
M  ISO  8  21  14  22   9  23  14  24  14  25  14  26  14  27   9  28   8
M  ISO  2  29   8  30   8
M  END
>  <minimizedAffinity>  (1) 
-6.4087038

>  <minimizedRMSD>  (1) 
0.45230943

$$$$
