
     RDKit          3D

 35 37  0  0  0  0  0  0  0  0999 V2000
   46.6040   34.3480   41.7700 N   0  0  0  0  0  0  0  0  0  0  0  0
   46.0110   33.7600   40.7050 C   0  0  0  0  0  0  0  0  0  0  0  0
   46.6390   33.6490   39.4840 C   0  0  0  0  0  0  0  0  0  0  0  0
   47.9100   34.1800   39.4260 C   0  0  0  0  0  0  0  0  0  0  0  0
   48.5360   34.1070   38.3290 O   0  0  0  0  0  0  0  0  0  0  0  0
   48.5140   34.7690   40.4810 N   0  0  0  0  0  0  0  0  0  0  0  0
   47.8450   34.8500   41.6640 C   0  0  0  0  0  0  0  0  0  0  0  0
   48.4610   35.4040   42.5860 O   0  0  0  0  0  0  0  0  0  0  0  0
   44.6650   35.8360   44.5280 C   0  0  0  0  0  0  0  0  0  0  0  0
   45.2370   35.6550   43.2430 C   0  0  0  0  0  0  0  0  0  0  0  0
   46.0430   34.5080   43.0580 C   0  0  0  0  0  0  0  0  0  0  0  0
   46.2320   33.6390   44.1080 N   0  0  0  0  0  0  0  0  0  0  0  0
   45.6540   33.8770   45.3010 C   0  0  0  0  0  0  0  0  0  0  0  0
   44.8820   34.9470   45.5310 N   0  0  0  0  0  0  0  0  0  0  0  0
   45.8970   32.9320   46.3380 N   0  0  0  0  0  0  0  0  0  0  0  0
   45.1550   32.8140   47.5800 C   0  0  0  0  0  0  0  0  0  0  0  0
   46.2030   32.4110   48.6240 C   0  0  0  0  0  0  0  0  0  0  0  0
   47.4570   32.1120   47.8180 C   0  0  0  0  0  0  0  0  0  0  0  0
   46.8950   31.8830   46.4360 C   0  0  0  0  0  0  0  0  0  0  0  0
   45.9740   33.0030   38.3320 C   0  0  0  0  0  0  0  0  0  0  0  0
   44.9936   33.3573   40.8182 H   0  0  0  0  0  0  0  0  0  0  0  0
   49.4663   35.1511   40.3918 H   0  0  0  0  0  0  0  0  0  0  0  0
   44.0319   36.7156   44.7162 H   0  0  0  0  0  0  0  0  0  0  0  0
   45.0619   36.3732   42.4284 H   0  0  0  0  0  0  0  0  0  0  0  0
   44.6910   33.7749   47.8473 H   0  0  0  0  0  0  0  0  0  0  0  0
   44.3372   32.0819   47.5078 H   0  0  0  0  0  0  0  0  0  0  0  0
   46.3833   33.2347   49.3304 H   0  0  0  0  0  0  0  0  0  0  0  0
   45.8801   31.5487   49.2259 H   0  0  0  0  0  0  0  0  0  0  0  0
   48.1526   32.9640   47.8304 H   0  0  0  0  0  0  0  0  0  0  0  0
   48.0412   31.2642   48.2051 H   0  0  0  0  0  0  0  0  0  0  0  0
   46.4370   30.8865   46.3509 H   0  0  0  0  0  0  0  0  0  0  0  0
   47.6520   31.9154   45.6386 H   0  0  0  0  0  0  0  0  0  0  0  0
   45.2296   32.2799   38.6966 H   0  0  0  0  0  0  0  0  0  0  0  0
   45.4731   33.7685   37.7212 H   0  0  0  0  0  0  0  0  0  0  0  0
   46.7247   32.4801   37.7212 H   0  0  0  0  0  0  0  0  0  0  0  0
  1 11  1  0
  2  1  1  0
  3  2  2  0
  4  3  1  0
  4  6  1  0
  5  4  2  0
  6  7  1  0
  7  1  1  0
  7  8  2  0
  9 14  2  0
 10  9  1  0
 11 10  2  0
 11 12  1  0
 12 13  2  0
 13 14  1  0
 13 15  1  0
 15 19  1  0
 15 16  1  0
 16 17  1  0
 18 17  1  0
 19 18  1  0
 20  3  1  0
  2 21  1  0
  6 22  1  0
  9 23  1  0
 10 24  1  0
 16 25  1  0
 16 26  1  0
 17 27  1  0
 17 28  1  0
 18 29  1  0
 18 30  1  0
 19 31  1  0
 19 32  1  0
 20 33  1  0
 20 34  1  0
 20 35  1  0
M  ISO  8  21  14  22   9  23  14  24  14  25  13  26  13  27  13  28  13
M  ISO  7  29  13  30  13  31  13  32  13  33   8  34   8  35   8
M  END
>  <minimizedAffinity>  (1) 
-6.27485847

>  <minimizedRMSD>  (1) 
0.274036705

$$$$
