
     RDKit          3D

 39 41  0  0  0  0  0  0  0  0999 V2000
   46.6300   34.2550   41.8750 N   0  0  0  0  0  0  0  0  0  0  0  0
   46.0370   33.6940   40.8150 C   0  0  0  0  0  0  0  0  0  0  0  0
   46.6030   33.6210   39.5670 C   0  0  0  0  0  0  0  0  0  0  0  0
   47.8660   34.1870   39.4800 C   0  0  0  0  0  0  0  0  0  0  0  0
   48.4600   34.1640   38.3620 O   0  0  0  0  0  0  0  0  0  0  0  0
   48.5050   34.7700   40.5360 N   0  0  0  0  0  0  0  0  0  0  0  0
   47.8690   34.7960   41.7390 C   0  0  0  0  0  0  0  0  0  0  0  0
   48.5110   35.3430   42.6570 O   0  0  0  0  0  0  0  0  0  0  0  0
   44.6380   35.5330   44.6970 C   0  0  0  0  0  0  0  0  0  0  0  0
   45.1640   35.3950   43.3800 C   0  0  0  0  0  0  0  0  0  0  0  0
   46.1260   34.3720   43.1820 C   0  0  0  0  0  0  0  0  0  0  0  0
   46.4890   33.5890   44.2430 N   0  0  0  0  0  0  0  0  0  0  0  0
   45.9570   33.7690   45.4650 C   0  0  0  0  0  0  0  0  0  0  0  0
   45.0430   34.7220   45.7010 N   0  0  0  0  0  0  0  0  0  0  0  0
   46.4010   32.8850   46.5520 C   0  0  0  0  0  0  0  0  0  0  0  0
   45.2480   32.7840   47.5510 C   0  0  0  0  0  0  0  0  0  0  0  0
   45.8900   32.3080   48.8580 C   0  0  0  0  0  0  0  0  0  0  0  0
   46.8670   31.1920   48.6090 C   0  0  0  0  0  0  0  0  0  0  0  0
   46.6410   30.5280   47.2660 C   0  0  0  0  0  0  0  0  0  0  0  0
   46.7440   31.4980   46.1120 C   0  0  0  0  0  0  0  0  0  0  0  0
   45.9140   32.9940   38.4300 C   0  0  0  0  0  0  0  0  0  0  0  0
   45.0336   33.2647   40.9524 H   0  0  0  0  0  0  0  0  0  0  0  0
   49.4436   35.1794   40.4253 H   0  0  0  0  0  0  0  0  0  0  0  0
   43.8894   36.3128   44.9009 H   0  0  0  0  0  0  0  0  0  0  0  0
   44.8399   36.0496   42.5575 H   0  0  0  0  0  0  0  0  0  0  0  0
   47.3186   33.3205   46.9743 H   0  0  0  0  0  0  0  0  0  0  0  0
   44.7712   33.7655   47.6904 H   0  0  0  0  0  0  0  0  0  0  0  0
   44.4625   32.0964   47.2043 H   0  0  0  0  0  0  0  0  0  0  0  0
   46.4198   33.1511   49.3254 H   0  0  0  0  0  0  0  0  0  0  0  0
   45.0954   31.9341   49.5205 H   0  0  0  0  0  0  0  0  0  0  0  0
   47.8877   31.6012   48.6354 H   0  0  0  0  0  0  0  0  0  0  0  0
   46.7219   30.4329   49.3917 H   0  0  0  0  0  0  0  0  0  0  0  0
   47.3961   29.7395   47.1316 H   0  0  0  0  0  0  0  0  0  0  0  0
   45.6204   30.1177   47.2654 H   0  0  0  0  0  0  0  0  0  0  0  0
   46.0481   31.1891   45.3180 H   0  0  0  0  0  0  0  0  0  0  0  0
   47.7785   31.4925   45.7380 H   0  0  0  0  0  0  0  0  0  0  0  0
   45.1488   32.2977   38.8037 H   0  0  0  0  0  0  0  0  0  0  0  0
   45.4343   33.7718   37.8177 H   0  0  0  0  0  0  0  0  0  0  0  0
   46.6433   32.4433   37.8177 H   0  0  0  0  0  0  0  0  0  0  0  0
  1 11  1  0
  2  1  1  0
  3  2  2  0
  4  3  1  0
  4  6  1  0
  5  4  2  0
  6  7  1  0
  7  1  1  0
  7  8  2  0
  9 14  2  0
 10  9  1  0
 11 10  2  0
 11 12  1  0
 12 13  2  0
 13 14  1  0
 13 15  1  0
 15 16  1  0
 16 17  1  0
 18 17  1  0
 19 18  1  0
 20 15  1  0
 20 19  1  0
 21  3  1  0
  2 22  1  0
  6 23  1  0
  9 24  1  0
 10 25  1  0
 15 26  1  0
 16 27  1  0
 16 28  1  0
 17 29  1  0
 17 30  1  0
 18 31  1  0
 18 32  1  0
 19 33  1  0
 19 34  1  0
 20 35  1  0
 20 36  1  0
 21 37  1  0
 21 38  1  0
 21 39  1  0
M  ISO  8  22  14  23   9  24  14  25  14  26  13  27  13  28  13  29  13
M  ISO  8  30  13  31  13  32  13  33  13  34  13  35  13  36  13  37   8
M  ISO  2  38   8  39   8
M  END
>  <minimizedAffinity>  (1) 
-6.24759388

>  <minimizedRMSD>  (1) 
0.65903461

$$$$
