
     RDKit          3D

 36 38  0  0  0  0  0  0  0  0999 V2000
   46.7780   34.0970   41.6680 N   0  0  0  0  0  0  0  0  0  0  0  0
   46.1780   33.5680   40.6000 C   0  0  0  0  0  0  0  0  0  0  0  0
   46.7420   33.6060   39.3400 C   0  0  0  0  0  0  0  0  0  0  0  0
   47.9670   34.2270   39.2670 C   0  0  0  0  0  0  0  0  0  0  0  0
   48.5540   34.3040   38.1410 O   0  0  0  0  0  0  0  0  0  0  0  0
   48.5960   34.7730   40.3410 N   0  0  0  0  0  0  0  0  0  0  0  0
   47.9870   34.7030   41.5580 C   0  0  0  0  0  0  0  0  0  0  0  0
   48.6270   35.2270   42.4960 O   0  0  0  0  0  0  0  0  0  0  0  0
   44.9340   35.2560   44.6520 C   0  0  0  0  0  0  0  0  0  0  0  0
   45.4450   35.1930   43.3340 C   0  0  0  0  0  0  0  0  0  0  0  0
   46.2940   34.1150   42.9930 C   0  0  0  0  0  0  0  0  0  0  0  0
   46.5760   33.1850   43.9660 N   0  0  0  0  0  0  0  0  0  0  0  0
   46.0620   33.2970   45.1970 C   0  0  0  0  0  0  0  0  0  0  0  0
   45.2550   34.3050   45.5530 N   0  0  0  0  0  0  0  0  0  0  0  0
   46.3830   32.3090   46.1700 N   0  0  0  0  0  0  0  0  0  0  0  0
   46.0550   30.9090   45.9790 C   0  0  0  0  0  0  0  0  0  0  0  0
   45.3580   30.4750   47.2660 C   0  0  0  0  0  0  0  0  0  0  0  0
   45.0430   31.5240   48.0940 O   0  0  0  0  0  0  0  0  0  0  0  0
   46.1130   32.2690   48.5400 C   0  0  0  0  0  0  0  0  0  0  0  0
   47.0580   32.6550   47.4090 C   0  0  0  0  0  0  0  0  0  0  0  0
   46.0640   33.0150   38.1710 C   0  0  0  0  0  0  0  0  0  0  0  0
   45.1985   33.0840   40.7278 H   0  0  0  0  0  0  0  0  0  0  0  0
   49.5133   35.2299   40.2373 H   0  0  0  0  0  0  0  0  0  0  0  0
   44.2717   36.0846   44.9432 H   0  0  0  0  0  0  0  0  0  0  0  0
   45.1880   35.9640   42.5927 H   0  0  0  0  0  0  0  0  0  0  0  0
   45.3827   30.7856   45.1171 H   0  0  0  0  0  0  0  0  0  0  0  0
   46.9507   30.3037   45.7755 H   0  0  0  0  0  0  0  0  0  0  0  0
   44.4291   29.9494   46.9997 H   0  0  0  0  0  0  0  0  0  0  0  0
   46.0588   29.8274   47.8133 H   0  0  0  0  0  0  0  0  0  0  0  0
   45.7330   33.1867   49.0127 H   0  0  0  0  0  0  0  0  0  0  0  0
   46.6775   31.6535   49.2560 H   0  0  0  0  0  0  0  0  0  0  0  0
   48.0021   32.0972   47.4958 H   0  0  0  0  0  0  0  0  0  0  0  0
   47.3013   33.7272   47.4429 H   0  0  0  0  0  0  0  0  0  0  0  0
   45.2759   32.3280   38.5128 H   0  0  0  0  0  0  0  0  0  0  0  0
   45.6151   33.8152   37.5642 H   0  0  0  0  0  0  0  0  0  0  0  0
   46.7954   32.4611   37.5642 H   0  0  0  0  0  0  0  0  0  0  0  0
  1 11  1  0
  2  1  1  0
  3  2  2  0
  4  3  1  0
  4  6  1  0
  5  4  2  0
  6  7  1  0
  7  1  1  0
  7  8  2  0
  9 14  2  0
 10  9  1  0
 11 10  2  0
 11 12  1  0
 12 13  2  0
 13 14  1  0
 13 15  1  0
 15 20  1  0
 16 15  1  0
 16 17  1  0
 17 18  1  0
 18 19  1  0
 20 19  1  0
 21  3  1  0
  2 22  1  0
  6 23  1  0
  9 24  1  0
 10 25  1  0
 16 26  1  0
 16 27  1  0
 17 28  1  0
 17 29  1  0
 19 30  1  0
 19 31  1  0
 20 32  1  0
 20 33  1  0
 21 34  1  0
 21 35  1  0
 21 36  1  0
M  ISO  8  22  14  23   9  24  14  25  14  26  13  27  13  28  13  29  13
M  ISO  7  30  13  31  13  32  13  33  13  34   8  35   8  36   8
M  END
>  <minimizedAffinity>  (1) 
-6.09488583

>  <minimizedRMSD>  (1) 
0.811583102

$$$$
