
     RDKit          3D

 36 38  0  0  0  0  0  0  0  0999 V2000
   44.8110   35.1790   43.6100 C   0  0  0  0  0  0  0  0  0  0  0  0
   45.3790   35.1020   42.3180 C   0  0  0  0  0  0  0  0  0  0  0  0
   46.4160   34.1980   42.0740 C   0  0  0  0  0  0  0  0  0  0  0  0
   46.8400   33.4150   43.1210 N   0  0  0  0  0  0  0  0  0  0  0  0
   46.2820   33.5070   44.3470 C   0  0  0  0  0  0  0  0  0  0  0  0
   45.2760   34.3790   44.5900 N   0  0  0  0  0  0  0  0  0  0  0  0
   46.9410   34.1680   40.7740 N   0  0  0  0  0  0  0  0  0  0  0  0
   46.4490   33.4960   39.7160 C   0  0  0  0  0  0  0  0  0  0  0  0
   47.0510   33.5370   38.4780 C   0  0  0  0  0  0  0  0  0  0  0  0
   48.1840   34.3090   38.3960 C   0  0  0  0  0  0  0  0  0  0  0  0
   48.7850   34.3860   37.2800 O   0  0  0  0  0  0  0  0  0  0  0  0
   48.7070   35.0010   39.4520 N   0  0  0  0  0  0  0  0  0  0  0  0
   48.0520   34.9070   40.6360 C   0  0  0  0  0  0  0  0  0  0  0  0
   48.5900   35.5740   41.5600 O   0  0  0  0  0  0  0  0  0  0  0  0
   46.4760   32.7900   37.3370 C   0  0  0  0  0  0  0  0  0  0  0  0
   47.6770   31.0140   47.5420 C   0  0  0  0  0  0  0  0  0  0  0  0
   47.1730   32.2880   47.7110 C   0  0  0  0  0  0  0  0  0  0  0  0
   46.7090   33.1440   46.7390 C   0  0  0  0  0  0  0  0  0  0  0  0
   46.7560   32.6600   45.4360 C   0  0  0  0  0  0  0  0  0  0  0  0
   47.2470   31.3930   45.1880 C   0  0  0  0  0  0  0  0  0  0  0  0
   47.7000   30.5870   46.2400 C   0  0  0  0  0  0  0  0  0  0  0  0
   48.2130   30.0940   48.9040 S   0  0  0  0  0  0  0  0  0  0  0  0
   49.0280   30.9020   49.8700 O   0  0  0  0  0  0  0  0  0  0  0  0
   48.9510   28.8880   48.4070 O   0  0  0  0  0  0  0  0  0  0  0  0
   43.9946   35.8873   43.8144 H   0  0  0  0  0  0  0  0  0  0  0  0
   45.0072   35.7494   41.5101 H   0  0  0  0  0  0  0  0  0  0  0  0
   45.5368   32.8949   39.8446 H   0  0  0  0  0  0  0  0  0  0  0  0
   49.5607   35.5687   39.3532 H   0  0  0  0  0  0  0  0  0  0  0  0
   45.8459   31.9714   37.7149 H   0  0  0  0  0  0  0  0  0  0  0  0
   45.8657   33.4696   36.7241 H   0  0  0  0  0  0  0  0  0  0  0  0
   47.2891   32.3739   36.7241 H   0  0  0  0  0  0  0  0  0  0  0  0
   47.1383   32.6629   48.7445 H   0  0  0  0  0  0  0  0  0  0  0  0
   46.3254   34.1470   46.9772 H   0  0  0  0  0  0  0  0  0  0  0  0
   47.2825   31.0140   44.1560 H   0  0  0  0  0  0  0  0  0  0  0  0
   48.0856   29.5818   46.0146 H   0  0  0  0  0  0  0  0  0  0  0  0
   47.1174   29.6923   49.6218 H   0  0  0  0  0  0  0  0  0  0  0  0
  1  6  2  0
  2  1  1  0
  3  2  2  0
  3  4  1  0
  4  5  2  0
  5  6  1  0
  5 19  1  0
  7  3  1  0
  8  7  1  0
  9  8  2  0
 10  9  1  0
 10 12  1  0
 11 10  2  0
 12 13  1  0
 13  7  1  0
 13 14  2  0
 15  9  1  0
 16 17  2  0
 16 22  1  0
 18 17  1  0
 19 18  2  0
 20 19  1  0
 20 21  2  0
 21 16  1  0
 22 23  2  0
 24 22  2  0
  1 25  1  0
  2 26  1  0
  8 27  1  0
 12 28  1  0
 15 29  1  0
 15 30  1  0
 15 31  1  0
 17 32  1  0
 18 33  1  0
 20 34  1  0
 21 35  1  0
 22 36  1  0
M  ISO  8  25  14  26  14  27  14  28   9  29   8  30   8  31   8  32  14
M  ISO  4  33  14  34  14  35  14  36  11
M  END
>  <minimizedAffinity>  (1) 
-5.97898865

>  <minimizedRMSD>  (1) 
1.32078207

$$$$
