
     RDKit          3D

 28 30  0  0  0  0  0  0  0  0999 V2000
   46.5910   34.4190   41.5410 N   0  0  0  0  0  0  0  0  0  0  0  0
   46.0170   33.7800   40.5030 C   0  0  0  0  0  0  0  0  0  0  0  0
   46.6700   33.6050   39.2910 C   0  0  0  0  0  0  0  0  0  0  0  0
   47.9400   34.1250   39.2200 C   0  0  0  0  0  0  0  0  0  0  0  0
   48.5860   33.9970   38.1400 O   0  0  0  0  0  0  0  0  0  0  0  0
   48.5410   34.7760   40.2590 N   0  0  0  0  0  0  0  0  0  0  0  0
   47.8470   34.9140   41.4180 C   0  0  0  0  0  0  0  0  0  0  0  0
   48.4660   35.5210   42.3230 O   0  0  0  0  0  0  0  0  0  0  0  0
   44.6120   36.0430   44.1950 C   0  0  0  0  0  0  0  0  0  0  0  0
   45.1980   35.7760   42.9250 C   0  0  0  0  0  0  0  0  0  0  0  0
   46.0290   34.6540   42.8100 C   0  0  0  0  0  0  0  0  0  0  0  0
   46.2440   33.8670   43.9150 N   0  0  0  0  0  0  0  0  0  0  0  0
   45.6610   34.1700   45.0970 C   0  0  0  0  0  0  0  0  0  0  0  0
   44.8600   35.2360   45.2410 N   0  0  0  0  0  0  0  0  0  0  0  0
   45.9350   33.2890   46.2270 C   0  0  0  0  0  0  0  0  0  0  0  0
   46.9150   32.3780   46.5050 N   0  0  0  0  0  0  0  0  0  0  0  0
   46.6840   31.8580   47.6760 O   0  0  0  0  0  0  0  0  0  0  0  0
   45.5820   32.3770   48.2090 C   0  0  0  0  0  0  0  0  0  0  0  0
   45.1090   33.2730   47.3100 N   0  0  0  0  0  0  0  0  0  0  0  0
   46.0050   32.8980   38.1740 C   0  0  0  0  0  0  0  0  0  0  0  0
   44.9974   33.3841   40.6200 H   0  0  0  0  0  0  0  0  0  0  0  0
   49.4953   35.1523   40.1661 H   0  0  0  0  0  0  0  0  0  0  0  0
   43.9527   36.9145   44.3208 H   0  0  0  0  0  0  0  0  0  0  0  0
   45.0044   36.4298   42.0618 H   0  0  0  0  0  0  0  0  0  0  0  0
   45.1419   32.1282   49.1859 H   0  0  0  0  0  0  0  0  0  0  0  0
   45.3039   32.1526   38.5775 H   0  0  0  0  0  0  0  0  0  0  0  0
   45.4542   33.6233   37.5571 H   0  0  0  0  0  0  0  0  0  0  0  0
   46.7626   32.3926   37.5571 H   0  0  0  0  0  0  0  0  0  0  0  0
  1 11  1  0
  2  1  1  0
  3  2  2  0
  4  3  1  0
  4  6  1  0
  5  4  2  0
  6  7  1  0
  7  1  1  0
  7  8  2  0
  9 14  2  0
 10  9  1  0
 11 10  2  0
 11 12  1  0
 12 13  2  0
 13 14  1  0
 13 15  1  0
 15 16  2  0
 15 19  1  0
 16 17  1  0
 17 18  1  0
 19 18  2  0
 20  3  1  0
  2 21  1  0
  6 22  1  0
  9 23  1  0
 10 24  1  0
 18 25  1  0
 20 26  1  0
 20 27  1  0
 20 28  1  0
M  ISO  8  21  14  22   9  23  14  24  14  25  14  26   8  27   8  28   8
M  END
>  <minimizedAffinity>  (1) 
-5.91845465

>  <minimizedRMSD>  (1) 
0.15130271

$$$$
