
     RDKit          3D

 25 26  0  0  0  0  0  0  0  0999 V2000
   46.5400   34.4210   41.5380 N   0  0  0  0  0  0  0  0  0  0  0  0
   45.9910   33.8120   40.4860 C   0  0  0  0  0  0  0  0  0  0  0  0
   46.6410   33.6220   39.2930 C   0  0  0  0  0  0  0  0  0  0  0  0
   47.9250   34.1050   39.2420 C   0  0  0  0  0  0  0  0  0  0  0  0
   48.5900   33.9660   38.1770 O   0  0  0  0  0  0  0  0  0  0  0  0
   48.5130   34.7250   40.2860 N   0  0  0  0  0  0  0  0  0  0  0  0
   47.8070   34.8810   41.4420 C   0  0  0  0  0  0  0  0  0  0  0  0
   48.4320   35.4690   42.3620 O   0  0  0  0  0  0  0  0  0  0  0  0
   44.6820   36.1310   44.2080 C   0  0  0  0  0  0  0  0  0  0  0  0
   45.2710   35.8810   42.9330 C   0  0  0  0  0  0  0  0  0  0  0  0
   45.9600   34.6630   42.7980 C   0  0  0  0  0  0  0  0  0  0  0  0
   46.0280   33.8010   43.8670 N   0  0  0  0  0  0  0  0  0  0  0  0
   45.4470   34.1020   45.0420 C   0  0  0  0  0  0  0  0  0  0  0  0
   44.7780   35.2540   45.2210 N   0  0  0  0  0  0  0  0  0  0  0  0
   45.5200   33.2080   46.1470 N   0  0  0  0  0  0  0  0  0  0  0  0
   45.9730   32.9500   38.1510 C   0  0  0  0  0  0  0  0  0  0  0  0
   44.9596   33.4415   40.5803 H   0  0  0  0  0  0  0  0  0  0  0  0
   49.4789   35.0746   40.2111 H   0  0  0  0  0  0  0  0  0  0  0  0
   44.1324   37.0706   44.3665 H   0  0  0  0  0  0  0  0  0  0  0  0
   45.1908   36.5994   42.1038 H   0  0  0  0  0  0  0  0  0  0  0  0
   45.0692   33.4546   47.0396 H   0  0  0  0  0  0  0  0  0  0  0  0
   46.0237   32.3144   46.0541 H   0  0  0  0  0  0  0  0  0  0  0  0
   45.2453   32.2179   38.5310 H   0  0  0  0  0  0  0  0  0  0  0  0
   45.4523   33.7002   37.5377 H   0  0  0  0  0  0  0  0  0  0  0  0
   46.7263   32.4338   37.5377 H   0  0  0  0  0  0  0  0  0  0  0  0
  1 11  1  0
  2  1  1  0
  3  2  2  0
  4  3  1  0
  4  6  1  0
  5  4  2  0
  6  7  1  0
  7  1  1  0
  7  8  2  0
  9 14  2  0
 10  9  1  0
 11 10  2  0
 11 12  1  0
 12 13  2  0
 13 14  1  0
 13 15  1  0
 16  3  1  0
  2 17  1  0
  6 18  1  0
  9 19  1  0
 10 20  1  0
 15 21  1  0
 15 22  1  0
 16 23  1  0
 16 24  1  0
 16 25  1  0
M  ISO  7  17  14  18   9  19  14  20  14  23   8  24   8  25   8
M  END
>  <minimizedAffinity>  (1) 
-5.20090771

>  <minimizedRMSD>  (1) 
0.123686068

$$$$
