
     RDKit          3D

 26 27  0  0  0  0  0  0  0  0999 V2000
   46.7050   34.3640   41.4260 N   0  0  0  0  0  0  0  0  0  0  0  0
   46.1470   33.7190   40.3780 C   0  0  0  0  0  0  0  0  0  0  0  0
   46.7450   33.6300   39.1470 C   0  0  0  0  0  0  0  0  0  0  0  0
   47.9730   34.2580   39.0610 C   0  0  0  0  0  0  0  0  0  0  0  0
   48.5850   34.2140   37.9420 O   0  0  0  0  0  0  0  0  0  0  0  0
   48.5600   34.9130   40.0900 N   0  0  0  0  0  0  0  0  0  0  0  0
   47.9120   34.9600   41.2770 C   0  0  0  0  0  0  0  0  0  0  0  0
   48.5030   35.5760   42.1860 O   0  0  0  0  0  0  0  0  0  0  0  0
   44.7050   35.7360   44.2030 C   0  0  0  0  0  0  0  0  0  0  0  0
   45.2620   35.5720   42.9030 C   0  0  0  0  0  0  0  0  0  0  0  0
   46.1690   34.5050   42.7150 C   0  0  0  0  0  0  0  0  0  0  0  0
   46.4420   33.7160   43.7840 N   0  0  0  0  0  0  0  0  0  0  0  0
   45.9000   33.8990   44.9920 C   0  0  0  0  0  0  0  0  0  0  0  0
   45.0330   34.9050   45.2060 N   0  0  0  0  0  0  0  0  0  0  0  0
   46.2440   33.0110   46.0870 C   0  0  0  0  0  0  0  0  0  0  0  0
   45.8290   31.8310   46.1290 O   0  0  0  0  0  0  0  0  0  0  0  0
   47.0390   33.4030   47.1400 O   0  0  0  0  0  0  0  0  0  0  0  0
   46.1170   32.9200   38.0290 C   0  0  0  0  0  0  0  0  0  0  0  0
   45.1657   33.2423   40.5190 H   0  0  0  0  0  0  0  0  0  0  0  0
   49.4781   35.3649   39.9722 H   0  0  0  0  0  0  0  0  0  0  0  0
   43.9953   36.5557   44.3888 H   0  0  0  0  0  0  0  0  0  0  0  0
   44.9967   36.2491   42.0777 H   0  0  0  0  0  0  0  0  0  0  0  0
   47.2487   32.7641   47.8666 H   0  0  0  0  0  0  0  0  0  0  0  0
   45.4358   32.1499   38.4200 H   0  0  0  0  0  0  0  0  0  0  0  0
   45.5492   33.6337   37.4140 H   0  0  0  0  0  0  0  0  0  0  0  0
   46.8947   32.4436   37.4140 H   0  0  0  0  0  0  0  0  0  0  0  0
  1 11  1  0
  2  1  1  0
  3  2  2  0
  4  3  1  0
  4  6  1  0
  5  4  2  0
  6  7  1  0
  7  1  1  0
  7  8  2  0
  9 14  2  0
 10  9  1  0
 11 10  2  0
 11 12  1  0
 12 13  2  0
 13 14  1  0
 13 15  1  0
 15 16  2  0
 15 17  1  0
 18  3  1  0
  2 19  1  0
  6 20  1  0
  9 21  1  0
 10 22  1  0
 17 23  1  0
 18 24  1  0
 18 25  1  0
 18 26  1  0
M  ISO  8  19  14  20   9  21  14  22  14  23   3  24   8  25   8  26   8
M  END
>  <minimizedAffinity>  (1) 
-5.75619698

>  <minimizedRMSD>  (1) 
0.429785848

$$$$
