
     RDKit          3D

 36 38  0  0  0  0  0  0  0  0999 V2000
   46.6020   34.2770   41.5790 N   0  0  0  0  0  0  0  0  0  0  0  0
   45.9960   33.6650   40.5370 C   0  0  0  0  0  0  0  0  0  0  0  0
   46.5710   33.5720   39.2830 C   0  0  0  0  0  0  0  0  0  0  0  0
   47.8100   34.1530   39.1780 C   0  0  0  0  0  0  0  0  0  0  0  0
   48.3810   34.0960   38.0490 O   0  0  0  0  0  0  0  0  0  0  0  0
   48.4410   34.7690   40.1940 N   0  0  0  0  0  0  0  0  0  0  0  0
   47.8270   34.8280   41.4010 C   0  0  0  0  0  0  0  0  0  0  0  0
   48.4640   35.4140   42.3040 O   0  0  0  0  0  0  0  0  0  0  0  0
   44.6860   35.6570   44.4070 C   0  0  0  0  0  0  0  0  0  0  0  0
   45.2040   35.4850   43.0930 C   0  0  0  0  0  0  0  0  0  0  0  0
   46.1070   34.4230   42.8790 C   0  0  0  0  0  0  0  0  0  0  0  0
   46.4070   33.6540   43.9440 N   0  0  0  0  0  0  0  0  0  0  0  0
   45.9070   33.8360   45.1660 C   0  0  0  0  0  0  0  0  0  0  0  0
   45.0470   34.8370   45.3990 N   0  0  0  0  0  0  0  0  0  0  0  0
   46.2880   32.9550   46.2560 C   0  0  0  0  0  0  0  0  0  0  0  0
   45.8540   31.7910   46.3460 O   0  0  0  0  0  0  0  0  0  0  0  0
   47.1540   33.3500   47.2590 O   0  0  0  0  0  0  0  0  0  0  0  0
   45.8650   32.8930   38.1880 C   0  0  0  0  0  0  0  0  0  0  0  0
   44.4450   32.8200   38.3110 N   0  0  0  0  0  0  0  0  0  0  0  0
   43.5360   33.8320   38.4330 C   0  0  0  0  0  0  0  0  0  0  0  0
   42.1860   33.5620   38.5370 C   0  0  0  0  0  0  0  0  0  0  0  0
   41.7420   32.2420   38.5180 C   0  0  0  0  0  0  0  0  0  0  0  0
   40.4930   32.1310   38.6210 O   0  0  0  0  0  0  0  0  0  0  0  0
   42.6620   31.2400   38.3960 N   0  0  0  0  0  0  0  0  0  0  0  0
   43.9450   31.5710   38.3000 C   0  0  0  0  0  0  0  0  0  0  0  0
   44.6750   30.5340   38.1920 O   0  0  0  0  0  0  0  0  0  0  0  0
   45.0016   33.2215   40.6937 H   0  0  0  0  0  0  0  0  0  0  0  0
   49.3722   35.1875   40.0574 H   0  0  0  0  0  0  0  0  0  0  0  0
   43.9793   36.4754   44.6091 H   0  0  0  0  0  0  0  0  0  0  0  0
   44.9105   36.1567   42.2729 H   0  0  0  0  0  0  0  0  0  0  0  0
   47.3899   32.7204   47.9857 H   0  0  0  0  0  0  0  0  0  0  0  0
   46.2509   31.8648   38.1249 H   0  0  0  0  0  0  0  0  0  0  0  0
   46.0547   33.5001   37.2905 H   0  0  0  0  0  0  0  0  0  0  0  0
   43.8839   34.8754   38.4486 H   0  0  0  0  0  0  0  0  0  0  0  0
   41.4640   34.3861   38.6345 H   0  0  0  0  0  0  0  0  0  0  0  0
   42.3686   30.2528   38.3789 H   0  0  0  0  0  0  0  0  0  0  0  0
  1 11  1  0
  2  1  1  0
  3  2  2  0
  4  3  1  0
  4  6  1  0
  5  4  2  0
  6  7  1  0
  7  1  1  0
  7  8  2  0
  9 14  2  0
 10  9  1  0
 11 10  2  0
 11 12  1  0
 12 13  2  0
 13 14  1  0
 13 15  1  0
 15 16  2  0
 15 17  1  0
 18 19  1  0
 18  3  1  0
 19 20  1  0
 20 21  2  0
 22 21  1  0
 22 23  2  0
 24 22  1  0
 25 19  1  0
 25 24  1  0
 26 25  2  0
  2 27  1  0
  6 28  1  0
  9 29  1  0
 10 30  1  0
 17 31  1  0
 18 32  1  0
 18 33  1  0
 20 34  1  0
 21 35  1  0
 24 36  1  0
M  ISO  8  27  14  28   9  29  14  30  14  31   3  32   8  33   8  34  14
M  ISO  2  35  14  36   9
M  END
>  <minimizedAffinity>  (1) 
-6.11535549

>  <minimizedRMSD>  (1) 
2.50113273

$$$$
