
     RDKit          3D

 33 35  0  0  0  0  0  0  0  0999 V2000
   46.6660   34.3710   41.4990 N   0  0  0  0  0  0  0  0  0  0  0  0
   46.0760   33.7260   40.4540 C   0  0  0  0  0  0  0  0  0  0  0  0
   46.6610   33.6190   39.2210 C   0  0  0  0  0  0  0  0  0  0  0  0
   47.9000   34.2180   39.1150 C   0  0  0  0  0  0  0  0  0  0  0  0
   48.5130   34.1630   38.0090 O   0  0  0  0  0  0  0  0  0  0  0  0
   48.5190   34.8730   40.1390 N   0  0  0  0  0  0  0  0  0  0  0  0
   47.8900   34.9440   41.3320 C   0  0  0  0  0  0  0  0  0  0  0  0
   48.4950   35.5520   42.2320 O   0  0  0  0  0  0  0  0  0  0  0  0
   44.7240   35.7810   44.2910 C   0  0  0  0  0  0  0  0  0  0  0  0
   45.2610   35.6060   42.9850 C   0  0  0  0  0  0  0  0  0  0  0  0
   46.1440   34.5250   42.7970 C   0  0  0  0  0  0  0  0  0  0  0  0
   46.4220   33.7290   43.8580 N   0  0  0  0  0  0  0  0  0  0  0  0
   45.8950   33.9260   45.0760 C   0  0  0  0  0  0  0  0  0  0  0  0
   45.0480   34.9520   45.2850 N   0  0  0  0  0  0  0  0  0  0  0  0
   46.2360   33.0370   46.1610 C   0  0  0  0  0  0  0  0  0  0  0  0
   45.7670   31.8670   46.2300 O   0  0  0  0  0  0  0  0  0  0  0  0
   47.0860   33.3950   47.1810 O   0  0  0  0  0  0  0  0  0  0  0  0
   46.0060   32.9400   38.1130 C   0  0  0  0  0  0  0  0  0  0  0  0
   44.6620   32.5830   38.4890 C   0  0  0  0  0  0  0  0  0  0  0  0
   43.6060   33.5030   38.2650 C   0  0  0  0  0  0  0  0  0  0  0  0
   42.3170   33.2570   38.5760 C   0  0  0  0  0  0  0  0  0  0  0  0
   42.0510   31.8730   39.2090 C   0  0  0  0  0  0  0  0  0  0  0  0
   43.8370   31.1550   39.2290 S   0  0  0  0  0  0  0  0  0  0  0  0
   45.0862   33.2713   40.6078 H   0  0  0  0  0  0  0  0  0  0  0  0
   49.4451   35.3036   40.0054 H   0  0  0  0  0  0  0  0  0  0  0  0
   44.0308   36.6129   44.4842 H   0  0  0  0  0  0  0  0  0  0  0  0
   44.9984   36.2842   42.1597 H   0  0  0  0  0  0  0  0  0  0  0  0
   47.2903   32.7506   47.9043 H   0  0  0  0  0  0  0  0  0  0  0  0
   46.5684   32.0297   37.8580 H   0  0  0  0  0  0  0  0  0  0  0  0
   45.9747   33.6108   37.2418 H   0  0  0  0  0  0  0  0  0  0  0  0
   43.8529   34.4741   37.8110 H   0  0  0  0  0  0  0  0  0  0  0  0
   41.5150   33.9872   38.3927 H   0  0  0  0  0  0  0  0  0  0  0  0
   41.1070   31.4243   39.5517 H   0  0  0  0  0  0  0  0  0  0  0  0
  1 11  1  0
  2  1  1  0
  3  2  2  0
  4  3  1  0
  4  6  1  0
  5  4  2  0
  6  7  1  0
  7  1  1  0
  7  8  2  0
  9 14  2  0
 10  9  1  0
 11 10  2  0
 11 12  1  0
 12 13  2  0
 13 14  1  0
 13 15  1  0
 15 16  2  0
 15 17  1  0
 18 19  1  0
 18  3  1  0
 19 23  1  0
 20 19  2  0
 20 21  1  0
 21 22  2  0
 22 23  1  0
  2 24  1  0
  6 25  1  0
  9 26  1  0
 10 27  1  0
 17 28  1  0
 18 29  1  0
 18 30  1  0
 20 31  1  0
 21 32  1  0
 22 33  1  0
M  ISO  8  24  14  25   9  26  14  27  14  28   3  29   8  30   8  31  14
M  ISO  2  32  14  33  14
M  END
>  <minimizedAffinity>  (1) 
-5.85112095

>  <minimizedRMSD>  (1) 
0.40807727

$$$$
