
     RDKit          3D

 33 35  0  0  0  0  0  0  0  0999 V2000
   46.6350   34.3070   41.4740 N   0  0  0  0  0  0  0  0  0  0  0  0
   46.0660   33.6560   40.4480 C   0  0  0  0  0  0  0  0  0  0  0  0
   46.6560   33.5600   39.2080 C   0  0  0  0  0  0  0  0  0  0  0  0
   47.8740   34.1810   39.0920 C   0  0  0  0  0  0  0  0  0  0  0  0
   48.4770   34.1310   37.9690 O   0  0  0  0  0  0  0  0  0  0  0  0
   48.4840   34.8510   40.1100 N   0  0  0  0  0  0  0  0  0  0  0  0
   47.8490   34.9050   41.2950 C   0  0  0  0  0  0  0  0  0  0  0  0
   48.4620   35.5370   42.1910 O   0  0  0  0  0  0  0  0  0  0  0  0
   44.7100   35.7540   44.2660 C   0  0  0  0  0  0  0  0  0  0  0  0
   45.2370   35.5650   42.9570 C   0  0  0  0  0  0  0  0  0  0  0  0
   46.1250   34.4740   42.7790 C   0  0  0  0  0  0  0  0  0  0  0  0
   46.4050   33.7010   43.8450 N   0  0  0  0  0  0  0  0  0  0  0  0
   45.8960   33.9000   45.0610 C   0  0  0  0  0  0  0  0  0  0  0  0
   45.0520   34.9200   45.2710 N   0  0  0  0  0  0  0  0  0  0  0  0
   46.2460   33.0190   46.1540 C   0  0  0  0  0  0  0  0  0  0  0  0
   45.8010   31.8500   46.2250 O   0  0  0  0  0  0  0  0  0  0  0  0
   47.0780   33.3980   47.1750 O   0  0  0  0  0  0  0  0  0  0  0  0
   46.0030   32.8460   38.1030 C   0  0  0  0  0  0  0  0  0  0  0  0
   44.5510   32.6990   38.4030 C   0  0  0  0  0  0  0  0  0  0  0  0
   43.7330   31.6960   38.8540 C   0  0  0  0  0  0  0  0  0  0  0  0
   42.4550   32.2140   38.9160 C   0  0  0  0  0  0  0  0  0  0  0  0
   42.5400   33.5250   38.4960 C   0  0  0  0  0  0  0  0  0  0  0  0
   43.7810   33.7480   38.2130 O   0  0  0  0  0  0  0  0  0  0  0  0
   45.0872   33.1791   40.6042 H   0  0  0  0  0  0  0  0  0  0  0  0
   49.4008   35.3011   39.9767 H   0  0  0  0  0  0  0  0  0  0  0  0
   44.0181   36.5868   44.4602 H   0  0  0  0  0  0  0  0  0  0  0  0
   44.9685   36.2324   42.1248 H   0  0  0  0  0  0  0  0  0  0  0  0
   47.2901   32.7614   47.9029 H   0  0  0  0  0  0  0  0  0  0  0  0
   46.4574   31.8508   37.9888 H   0  0  0  0  0  0  0  0  0  0  0  0
   46.1313   33.4140   37.1698 H   0  0  0  0  0  0  0  0  0  0  0  0
   44.0373   30.6721   39.1168 H   0  0  0  0  0  0  0  0  0  0  0  0
   41.5461   31.6845   39.2376 H   0  0  0  0  0  0  0  0  0  0  0  0
   41.7105   34.2431   38.4171 H   0  0  0  0  0  0  0  0  0  0  0  0
  1 11  1  0
  2  1  1  0
  3  2  2  0
  4  3  1  0
  4  6  1  0
  5  4  2  0
  6  7  1  0
  7  1  1  0
  7  8  2  0
  9 14  2  0
 10  9  1  0
 11 10  2  0
 11 12  1  0
 12 13  2  0
 13 14  1  0
 13 15  1  0
 15 16  2  0
 15 17  1  0
 18 19  1  0
 18  3  1  0
 19 20  2  0
 20 21  1  0
 22 21  2  0
 23 19  1  0
 23 22  1  0
  2 24  1  0
  6 25  1  0
  9 26  1  0
 10 27  1  0
 17 28  1  0
 18 29  1  0
 18 30  1  0
 20 31  1  0
 21 32  1  0
 22 33  1  0
M  ISO  8  24  14  25   9  26  14  27  14  28   3  29   8  30   8  31  14
M  ISO  2  32  14  33  14
M  END
>  <minimizedAffinity>  (1) 
-5.84068155

>  <minimizedRMSD>  (1) 
1.69524622

$$$$
