
     RDKit          3D

 32 34  0  0  0  0  0  0  0  0999 V2000
   46.6570   34.3180   41.4880 N   0  0  0  0  0  0  0  0  0  0  0  0
   46.0780   33.6360   40.4610 C   0  0  0  0  0  0  0  0  0  0  0  0
   46.6690   33.5360   39.2240 C   0  0  0  0  0  0  0  0  0  0  0  0
   47.8780   34.1720   39.0930 C   0  0  0  0  0  0  0  0  0  0  0  0
   48.4700   34.1110   37.9660 O   0  0  0  0  0  0  0  0  0  0  0  0
   48.4750   34.8600   40.1030 N   0  0  0  0  0  0  0  0  0  0  0  0
   47.8530   34.9240   41.2940 C   0  0  0  0  0  0  0  0  0  0  0  0
   48.4480   35.5690   42.1820 O   0  0  0  0  0  0  0  0  0  0  0  0
   44.7140   35.7560   44.2660 C   0  0  0  0  0  0  0  0  0  0  0  0
   45.2530   35.5670   42.9630 C   0  0  0  0  0  0  0  0  0  0  0  0
   46.1430   34.4770   42.7770 C   0  0  0  0  0  0  0  0  0  0  0  0
   46.4100   33.6990   43.8540 N   0  0  0  0  0  0  0  0  0  0  0  0
   45.8780   33.9140   45.0610 C   0  0  0  0  0  0  0  0  0  0  0  0
   45.0350   34.9350   45.2710 N   0  0  0  0  0  0  0  0  0  0  0  0
   46.2250   33.0210   46.1590 C   0  0  0  0  0  0  0  0  0  0  0  0
   45.7650   31.8700   46.2450 O   0  0  0  0  0  0  0  0  0  0  0  0
   47.0840   33.4020   47.1700 O   0  0  0  0  0  0  0  0  0  0  0  0
   46.0220   32.7940   38.1300 C   0  0  0  0  0  0  0  0  0  0  0  0
   44.6280   32.6290   38.4850 N   0  0  0  0  0  0  0  0  0  0  0  0
   43.8890   31.6930   39.0740 C   0  0  0  0  0  0  0  0  0  0  0  0
   42.5890   32.0940   39.1420 N   0  0  0  0  0  0  0  0  0  0  0  0
   42.5840   33.3250   38.5580 C   0  0  0  0  0  0  0  0  0  0  0  0
   43.8240   33.6250   38.1710 N   0  0  0  0  0  0  0  0  0  0  0  0
   45.1056   33.1493   40.6269 H   0  0  0  0  0  0  0  0  0  0  0  0
   49.3841   35.3222   39.9590 H   0  0  0  0  0  0  0  0  0  0  0  0
   44.0220   36.5911   44.4495 H   0  0  0  0  0  0  0  0  0  0  0  0
   44.9904   36.2389   42.1326 H   0  0  0  0  0  0  0  0  0  0  0  0
   47.2987   32.7703   47.9015 H   0  0  0  0  0  0  0  0  0  0  0  0
   46.4985   31.8099   38.0096 H   0  0  0  0  0  0  0  0  0  0  0  0
   46.1192   33.3393   37.1796 H   0  0  0  0  0  0  0  0  0  0  0  0
   44.2723   30.7336   39.4517 H   0  0  0  0  0  0  0  0  0  0  0  0
   41.7004   33.9670   38.4271 H   0  0  0  0  0  0  0  0  0  0  0  0
  1 11  1  0
  2  1  1  0
  3  2  2  0
  4  3  1  0
  4  6  1  0
  5  4  2  0
  6  7  1  0
  7  1  1  0
  7  8  2  0
  9 14  2  0
 10  9  1  0
 11 10  2  0
 11 12  1  0
 12 13  2  0
 13 14  1  0
 13 15  1  0
 15 16  2  0
 15 17  1  0
 18 19  1  0
 18  3  1  0
 19 20  1  0
 20 21  2  0
 22 21  1  0
 23 19  1  0
 23 22  2  0
  2 24  1  0
  6 25  1  0
  9 26  1  0
 10 27  1  0
 17 28  1  0
 18 29  1  0
 18 30  1  0
 20 31  1  0
 22 32  1  0
M  ISO  8  24  14  25   9  26  14  27  14  28   3  29   8  30   8  31  14
M  ISO  1  32  14
M  END
>  <minimizedAffinity>  (1) 
-5.79609203

>  <minimizedRMSD>  (1) 
1.80158865

$$$$
