
     RDKit          3D

 33 35  0  0  0  0  0  0  0  0999 V2000
   46.6590   34.2870   41.4720 N   0  0  0  0  0  0  0  0  0  0  0  0
   46.0930   33.5960   40.4670 C   0  0  0  0  0  0  0  0  0  0  0  0
   46.6790   33.5030   39.2250 C   0  0  0  0  0  0  0  0  0  0  0  0
   47.8750   34.1620   39.0910 C   0  0  0  0  0  0  0  0  0  0  0  0
   48.4730   34.1170   37.9690 O   0  0  0  0  0  0  0  0  0  0  0  0
   48.4650   34.8660   40.0970 N   0  0  0  0  0  0  0  0  0  0  0  0
   47.8370   34.9190   41.2910 C   0  0  0  0  0  0  0  0  0  0  0  0
   48.4270   35.5780   42.1690 O   0  0  0  0  0  0  0  0  0  0  0  0
   44.7040   35.7160   44.2620 C   0  0  0  0  0  0  0  0  0  0  0  0
   45.2410   35.5270   42.9620 C   0  0  0  0  0  0  0  0  0  0  0  0
   46.1420   34.4450   42.7780 C   0  0  0  0  0  0  0  0  0  0  0  0
   46.4280   33.6660   43.8510 N   0  0  0  0  0  0  0  0  0  0  0  0
   45.8960   33.8820   45.0600 C   0  0  0  0  0  0  0  0  0  0  0  0
   45.0430   34.8900   45.2760 N   0  0  0  0  0  0  0  0  0  0  0  0
   46.2510   33.0020   46.1610 C   0  0  0  0  0  0  0  0  0  0  0  0
   45.8060   31.8320   46.2350 O   0  0  0  0  0  0  0  0  0  0  0  0
   47.0880   33.3980   47.1790 O   0  0  0  0  0  0  0  0  0  0  0  0
   46.0330   32.7510   38.1350 C   0  0  0  0  0  0  0  0  0  0  0  0
   44.6310   32.5860   38.4860 N   0  0  0  0  0  0  0  0  0  0  0  0
   43.9520   31.5520   39.0440 C   0  0  0  0  0  0  0  0  0  0  0  0
   42.6240   31.9240   39.1550 C   0  0  0  0  0  0  0  0  0  0  0  0
   42.4960   33.1560   38.6760 N   0  0  0  0  0  0  0  0  0  0  0  0
   43.7230   33.5530   38.2690 C   0  0  0  0  0  0  0  0  0  0  0  0
   45.1324   33.0896   40.6427 H   0  0  0  0  0  0  0  0  0  0  0  0
   49.3653   35.3446   39.9508 H   0  0  0  0  0  0  0  0  0  0  0  0
   44.0039   36.5443   44.4461 H   0  0  0  0  0  0  0  0  0  0  0  0
   44.9698   36.1927   42.1294 H   0  0  0  0  0  0  0  0  0  0  0  0
   47.3069   32.7701   47.9124 H   0  0  0  0  0  0  0  0  0  0  0  0
   46.5105   31.7662   38.0243 H   0  0  0  0  0  0  0  0  0  0  0  0
   46.1319   33.2906   37.1816 H   0  0  0  0  0  0  0  0  0  0  0  0
   44.3817   30.5879   39.3535 H   0  0  0  0  0  0  0  0  0  0  0  0
   41.8137   31.3057   39.5688 H   0  0  0  0  0  0  0  0  0  0  0  0
   43.9472   34.5327   37.8218 H   0  0  0  0  0  0  0  0  0  0  0  0
  1 11  1  0
  2  1  1  0
  3  2  2  0
  4  3  1  0
  4  6  1  0
  5  4  2  0
  6  7  1  0
  7  1  1  0
  7  8  2  0
  9 14  2  0
 10  9  1  0
 11 10  2  0
 11 12  1  0
 12 13  2  0
 13 14  1  0
 13 15  1  0
 15 16  2  0
 15 17  1  0
 18 19  1  0
 18  3  1  0
 19 20  1  0
 20 21  2  0
 22 21  1  0
 23 19  1  0
 23 22  2  0
  2 24  1  0
  6 25  1  0
  9 26  1  0
 10 27  1  0
 17 28  1  0
 18 29  1  0
 18 30  1  0
 20 31  1  0
 21 32  1  0
 23 33  1  0
M  ISO  8  24  14  25   9  26  14  27  14  28   3  29   8  30   8  31  14
M  ISO  2  32  14  33  14
M  END
>  <minimizedAffinity>  (1) 
-5.75591898

>  <minimizedRMSD>  (1) 
1.84568608

$$$$
