
     RDKit          3D

 39 41  0  0  0  0  0  0  0  0999 V2000
   46.7170   34.3720   41.4270 N   0  0  0  0  0  0  0  0  0  0  0  0
   46.1800   33.7460   40.3710 C   0  0  0  0  0  0  0  0  0  0  0  0
   46.7690   33.6620   39.1350 C   0  0  0  0  0  0  0  0  0  0  0  0
   48.0010   34.3000   39.0630 C   0  0  0  0  0  0  0  0  0  0  0  0
   48.6260   34.2770   37.9520 O   0  0  0  0  0  0  0  0  0  0  0  0
   48.5820   34.9460   40.1020 N   0  0  0  0  0  0  0  0  0  0  0  0
   47.9250   34.9740   41.2840 C   0  0  0  0  0  0  0  0  0  0  0  0
   48.5140   35.5870   42.2080 O   0  0  0  0  0  0  0  0  0  0  0  0
   44.7010   35.7290   44.2000 C   0  0  0  0  0  0  0  0  0  0  0  0
   45.2660   35.5680   42.9020 C   0  0  0  0  0  0  0  0  0  0  0  0
   46.1850   34.5000   42.7080 C   0  0  0  0  0  0  0  0  0  0  0  0
   46.4520   33.7170   43.7750 N   0  0  0  0  0  0  0  0  0  0  0  0
   45.9000   33.9010   44.9810 C   0  0  0  0  0  0  0  0  0  0  0  0
   45.0270   34.9020   45.1970 N   0  0  0  0  0  0  0  0  0  0  0  0
   46.2480   33.0060   46.0750 C   0  0  0  0  0  0  0  0  0  0  0  0
   45.8410   31.8150   46.1020 O   0  0  0  0  0  0  0  0  0  0  0  0
   47.0330   33.3980   47.1340 O   0  0  0  0  0  0  0  0  0  0  0  0
   46.1530   32.9730   38.0120 C   0  0  0  0  0  0  0  0  0  0  0  0
   46.4560   31.4910   37.9380 C   0  0  0  0  0  0  0  0  0  0  0  0
   47.2700   31.2380   36.7120 C   0  0  0  0  0  0  0  0  0  0  0  0
   46.4360   30.4960   35.7130 C   0  0  0  0  0  0  0  0  0  0  0  0
   45.0990   30.2530   36.3310 C   0  0  0  0  0  0  0  0  0  0  0  0
   45.1980   30.6740   37.7590 C   0  0  0  0  0  0  0  0  0  0  0  0
   45.1991   33.2663   40.5044 H   0  0  0  0  0  0  0  0  0  0  0  0
   49.4987   35.4033   39.9950 H   0  0  0  0  0  0  0  0  0  0  0  0
   43.9868   36.5452   44.3835 H   0  0  0  0  0  0  0  0  0  0  0  0
   45.0005   36.2466   42.0780 H   0  0  0  0  0  0  0  0  0  0  0  0
   47.2451   32.7561   47.8572 H   0  0  0  0  0  0  0  0  0  0  0  0
   45.0628   33.0967   38.0899 H   0  0  0  0  0  0  0  0  0  0  0  0
   46.5746   33.4231   37.1011 H   0  0  0  0  0  0  0  0  0  0  0  0
   46.9668   31.2100   38.8708 H   0  0  0  0  0  0  0  0  0  0  0  0
   47.5944   32.1967   36.2812 H   0  0  0  0  0  0  0  0  0  0  0  0
   48.1553   30.6394   36.9726 H   0  0  0  0  0  0  0  0  0  0  0  0
   46.9139   29.5370   35.4642 H   0  0  0  0  0  0  0  0  0  0  0  0
   46.3325   31.0804   34.7868 H   0  0  0  0  0  0  0  0  0  0  0  0
   44.3301   30.8462   35.8143 H   0  0  0  0  0  0  0  0  0  0  0  0
   44.8158   29.1930   36.2520 H   0  0  0  0  0  0  0  0  0  0  0  0
   44.3210   31.2814   38.0273 H   0  0  0  0  0  0  0  0  0  0  0  0
   45.2317   29.7874   38.4092 H   0  0  0  0  0  0  0  0  0  0  0  0
  1 11  1  0
  2  1  1  0
  3  2  2  0
  4  3  1  0
  4  6  1  0
  5  4  2  0
  6  7  1  0
  7  1  1  0
  7  8  2  0
  9 14  2  0
 10  9  1  0
 11 10  2  0
 11 12  1  0
 12 13  2  0
 13 14  1  0
 13 15  1  0
 15 16  2  0
 15 17  1  0
 18  3  1  0
 19 18  1  0
 20 19  1  0
 21 22  1  0
 21 20  1  0
 22 23  1  0
 23 19  1  0
  2 24  1  0
  6 25  1  0
  9 26  1  0
 10 27  1  0
 17 28  1  0
 18 29  1  0
 18 30  1  0
 19 31  1  0
 20 32  1  0
 20 33  1  0
 21 34  1  0
 21 35  1  0
 22 36  1  0
 22 37  1  0
 23 38  1  0
 23 39  1  0
M  ISO  8  24  14  25   9  26  14  27  14  28   3  29   8  30   8  31  13
M  ISO  8  32  13  33  13  34  13  35  13  36  13  37  13  38  13  39  13
M  END
>  <minimizedAffinity>  (1) 
-5.68413973

>  <minimizedRMSD>  (1) 
0.273523003

$$$$
