
     RDKit          3D

 32 34  0  0  0  0  0  0  0  0999 V2000
   46.7100   34.3810   41.4100 N   0  0  0  0  0  0  0  0  0  0  0  0
   46.1500   33.7690   40.3560 C   0  0  0  0  0  0  0  0  0  0  0  0
   46.7330   33.6810   39.1280 C   0  0  0  0  0  0  0  0  0  0  0  0
   47.9810   34.2870   39.0490 C   0  0  0  0  0  0  0  0  0  0  0  0
   48.5910   34.2480   37.9360 O   0  0  0  0  0  0  0  0  0  0  0  0
   48.5780   34.9150   40.0940 N   0  0  0  0  0  0  0  0  0  0  0  0
   47.9280   34.9560   41.2820 C   0  0  0  0  0  0  0  0  0  0  0  0
   48.5280   35.5450   42.2000 O   0  0  0  0  0  0  0  0  0  0  0  0
   44.6990   35.7200   44.1990 C   0  0  0  0  0  0  0  0  0  0  0  0
   45.2570   35.5710   42.8950 C   0  0  0  0  0  0  0  0  0  0  0  0
   46.1740   34.5100   42.6970 C   0  0  0  0  0  0  0  0  0  0  0  0
   46.4370   33.7350   43.7650 N   0  0  0  0  0  0  0  0  0  0  0  0
   45.9120   33.8830   44.9760 C   0  0  0  0  0  0  0  0  0  0  0  0
   45.0320   34.8890   45.1920 N   0  0  0  0  0  0  0  0  0  0  0  0
   46.2580   32.9960   46.0660 C   0  0  0  0  0  0  0  0  0  0  0  0
   45.8610   31.8170   46.0950 O   0  0  0  0  0  0  0  0  0  0  0  0
   47.0360   33.3910   47.1290 O   0  0  0  0  0  0  0  0  0  0  0  0
   46.0970   33.0050   37.9950 C   0  0  0  0  0  0  0  0  0  0  0  0
   46.7470   31.6910   37.6500 C   0  0  0  0  0  0  0  0  0  0  0  0
   46.7300   30.6560   38.5660 C   0  0  0  0  0  0  0  0  0  0  0  0
   47.6060   29.3450   37.7080 S   0  0  0  0  0  0  0  0  0  0  0  0
   47.8700   30.4590   36.1670 C   0  0  0  0  0  0  0  0  0  0  0  0
   47.3550   31.4250   36.5060 N   0  0  0  0  0  0  0  0  0  0  0  0
   45.1595   33.3101   40.4915 H   0  0  0  0  0  0  0  0  0  0  0  0
   49.5050   35.3508   39.9861 H   0  0  0  0  0  0  0  0  0  0  0  0
   43.9826   36.5323   44.3910 H   0  0  0  0  0  0  0  0  0  0  0  0
   44.9859   36.2530   42.0756 H   0  0  0  0  0  0  0  0  0  0  0  0
   47.2475   32.7497   47.8529 H   0  0  0  0  0  0  0  0  0  0  0  0
   45.0423   32.8186   38.2458 H   0  0  0  0  0  0  0  0  0  0  0  0
   46.2024   33.6627   37.1196 H   0  0  0  0  0  0  0  0  0  0  0  0
   46.2882   30.6397   39.5733 H   0  0  0  0  0  0  0  0  0  0  0  0
   48.3772   30.2320   35.2177 H   0  0  0  0  0  0  0  0  0  0  0  0
  1 11  1  0
  2  1  1  0
  3  2  2  0
  4  3  1  0
  4  6  1  0
  5  4  2  0
  6  7  1  0
  7  1  1  0
  7  8  2  0
  9 14  2  0
 10  9  1  0
 11 10  2  0
 11 12  1  0
 12 13  2  0
 13 14  1  0
 13 15  1  0
 15 16  2  0
 15 17  1  0
 18  3  1  0
 19 18  1  0
 19 20  2  0
 21 20  1  0
 22 23  2  0
 22 21  1  0
 23 19  1  0
  2 24  1  0
  6 25  1  0
  9 26  1  0
 10 27  1  0
 17 28  1  0
 18 29  1  0
 18 30  1  0
 20 31  1  0
 22 32  1  0
M  ISO  8  24  14  25   9  26  14  27  14  28   3  29   8  30   8  31  14
M  ISO  1  32  14
M  END
>  <minimizedAffinity>  (1) 
-5.61651993

>  <minimizedRMSD>  (1) 
0.477389038

$$$$
