
     RDKit          3D

 33 35  0  0  0  0  0  0  0  0999 V2000
   46.7130   34.3750   41.4200 N   0  0  0  0  0  0  0  0  0  0  0  0
   46.1450   33.7520   40.3600 C   0  0  0  0  0  0  0  0  0  0  0  0
   46.7410   33.6720   39.1360 C   0  0  0  0  0  0  0  0  0  0  0  0
   47.9870   34.2800   39.0540 C   0  0  0  0  0  0  0  0  0  0  0  0
   48.6170   34.2560   37.9490 O   0  0  0  0  0  0  0  0  0  0  0  0
   48.5780   34.9090   40.1000 N   0  0  0  0  0  0  0  0  0  0  0  0
   47.9390   34.9540   41.2800 C   0  0  0  0  0  0  0  0  0  0  0  0
   48.5260   35.5410   42.2040 O   0  0  0  0  0  0  0  0  0  0  0  0
   44.7150   35.7240   44.2040 C   0  0  0  0  0  0  0  0  0  0  0  0
   45.2690   35.5770   42.8970 C   0  0  0  0  0  0  0  0  0  0  0  0
   46.1780   34.5100   42.7150 C   0  0  0  0  0  0  0  0  0  0  0  0
   46.4570   33.7080   43.7810 N   0  0  0  0  0  0  0  0  0  0  0  0
   45.9130   33.8870   44.9830 C   0  0  0  0  0  0  0  0  0  0  0  0
   45.0390   34.8950   45.2030 N   0  0  0  0  0  0  0  0  0  0  0  0
   46.2530   33.0010   46.0780 C   0  0  0  0  0  0  0  0  0  0  0  0
   45.8390   31.8110   46.1050 O   0  0  0  0  0  0  0  0  0  0  0  0
   47.0350   33.4000   47.1390 O   0  0  0  0  0  0  0  0  0  0  0  0
   46.1310   32.9820   38.0100 C   0  0  0  0  0  0  0  0  0  0  0  0
   44.9010   32.1840   38.4220 C   0  0  0  0  0  0  0  0  0  0  0  0
   44.1670   31.5580   37.2510 C   0  0  0  0  0  0  0  0  0  0  0  0
   43.5340   32.6360   38.0630 C   0  0  0  0  0  0  0  0  0  0  0  0
   45.1562   33.2886   40.4926 H   0  0  0  0  0  0  0  0  0  0  0  0
   49.5042   35.3461   39.9908 H   0  0  0  0  0  0  0  0  0  0  0  0
   44.0029   36.5403   44.3951 H   0  0  0  0  0  0  0  0  0  0  0  0
   45.0028   36.2578   42.0750 H   0  0  0  0  0  0  0  0  0  0  0  0
   47.2438   32.7627   47.8672 H   0  0  0  0  0  0  0  0  0  0  0  0
   46.8700   32.2938   37.5738 H   0  0  0  0  0  0  0  0  0  0  0  0
   45.8121   33.7416   37.2811 H   0  0  0  0  0  0  0  0  0  0  0  0
   45.3461   31.8740   39.3790 H   0  0  0  0  0  0  0  0  0  0  0  0
   43.7965   30.5246   37.3199 H   0  0  0  0  0  0  0  0  0  0  0  0
   44.3820   31.4060   36.1830 H   0  0  0  0  0  0  0  0  0  0  0  0
   43.3861   33.6342   37.6253 H   0  0  0  0  0  0  0  0  0  0  0  0
   42.5853   32.7302   38.6118 H   0  0  0  0  0  0  0  0  0  0  0  0
  1 11  1  0
  2  1  1  0
  3  2  2  0
  4  3  1  0
  4  6  1  0
  5  4  2  0
  6  7  1  0
  7  1  1  0
  7  8  2  0
  9 14  2  0
 10  9  1  0
 11 10  2  0
 11 12  1  0
 12 13  2  0
 13 14  1  0
 13 15  1  0
 15 16  2  0
 15 17  1  0
 18 19  1  0
 18  3  1  0
 20 21  1  0
 20 19  1  0
 21 19  1  0
  2 22  1  0
  6 23  1  0
  9 24  1  0
 10 25  1  0
 17 26  1  0
 18 27  1  0
 18 28  1  0
 19 29  1  0
 20 30  1  0
 20 31  1  0
 21 32  1  0
 21 33  1  0
M  ISO  8  22  14  23   9  24  14  25  14  26   3  27   8  28   8  29  13
M  ISO  4  30  13  31  13  32  13  33  13
M  END
>  <minimizedAffinity>  (1) 
-5.57612753

>  <minimizedRMSD>  (1) 
1.4050678

$$$$
