
     RDKit          3D

 39 41  0  0  0  0  0  0  0  0999 V2000
   44.9500   34.1330   41.1400 N   0  0  0  0  0  0  0  0  0  0  0  0
   46.0710   33.5780   40.6400 C   0  0  0  0  0  0  0  0  0  0  0  0
   47.3300   33.9450   41.0270 C   0  0  0  0  0  0  0  0  0  0  0  0
   47.3690   34.9370   41.9800 C   0  0  0  0  0  0  0  0  0  0  0  0
   48.5030   35.3480   42.4070 O   0  0  0  0  0  0  0  0  0  0  0  0
   46.2650   35.5250   42.5120 N   0  0  0  0  0  0  0  0  0  0  0  0
   45.0510   35.1110   42.0800 C   0  0  0  0  0  0  0  0  0  0  0  0
   44.0720   35.6820   42.5990 O   0  0  0  0  0  0  0  0  0  0  0  0
   41.8050   34.1030   39.2120 C   0  0  0  0  0  0  0  0  0  0  0  0
   43.1430   34.3970   39.5910 C   0  0  0  0  0  0  0  0  0  0  0  0
   43.6310   33.8240   40.7980 C   0  0  0  0  0  0  0  0  0  0  0  0
   42.7820   33.0440   41.4930 N   0  0  0  0  0  0  0  0  0  0  0  0
   41.5300   32.7830   41.1180 C   0  0  0  0  0  0  0  0  0  0  0  0
   41.0350   33.3090   39.9790 N   0  0  0  0  0  0  0  0  0  0  0  0
   40.6860   31.9330   41.9230 C   0  0  0  0  0  0  0  0  0  0  0  0
   39.4630   31.8070   41.6780 O   0  0  0  0  0  0  0  0  0  0  0  0
   41.1540   31.2180   42.9970 O   0  0  0  0  0  0  0  0  0  0  0  0
   48.5290   33.3510   40.4490 C   0  0  0  0  0  0  0  0  0  0  0  0
   48.0270   32.3510   36.3190 C   0  0  0  0  0  0  0  0  0  0  0  0
   48.2120   31.4250   37.3220 C   0  0  0  0  0  0  0  0  0  0  0  0
   48.3640   31.8250   38.6280 C   0  0  0  0  0  0  0  0  0  0  0  0
   48.3390   33.1780   38.9900 C   0  0  0  0  0  0  0  0  0  0  0  0
   48.1540   34.0960   37.9810 C   0  0  0  0  0  0  0  0  0  0  0  0
   48.0000   33.7030   36.6690 C   0  0  0  0  0  0  0  0  0  0  0  0
   47.8140   32.0740   34.6060 S   0  0  0  0  0  0  0  0  0  0  0  0
   48.6990   33.0180   33.8410 O   0  0  0  0  0  0  0  0  0  0  0  0
   46.3910   32.2710   34.1930 O   0  0  0  0  0  0  0  0  0  0  0  0
   45.9682   32.7885   39.8809 H   0  0  0  0  0  0  0  0  0  0  0  0
   46.3499   36.2647   43.2237 H   0  0  0  0  0  0  0  0  0  0  0  0
   41.3953   34.5280   38.2838 H   0  0  0  0  0  0  0  0  0  0  0  0
   43.7797   35.0459   38.9717 H   0  0  0  0  0  0  0  0  0  0  0  0
   40.5358   30.6479   43.5194 H   0  0  0  0  0  0  0  0  0  0  0  0
   49.3898   34.0112   40.6311 H   0  0  0  0  0  0  0  0  0  0  0  0
   48.7140   32.3714   40.9138 H   0  0  0  0  0  0  0  0  0  0  0  0
   48.2384   30.3535   37.0748 H   0  0  0  0  0  0  0  0  0  0  0  0
   48.5089   31.0636   39.4086 H   0  0  0  0  0  0  0  0  0  0  0  0
   48.1285   35.1677   38.2275 H   0  0  0  0  0  0  0  0  0  0  0  0
   47.8540   34.4635   35.8878 H   0  0  0  0  0  0  0  0  0  0  0  0
   48.1553   30.7760   34.3309 H   0  0  0  0  0  0  0  0  0  0  0  0
  1  7  1  0
  2  3  2  0
  2  1  1  0
  3  4  1  0
  4  5  2  0
  4  6  1  0
  7  6  1  0
  7  8  2  0
  9 10  2  0
  9 14  1  0
 10 11  1  0
 11  1  1  0
 11 12  2  0
 13 12  1  0
 13 15  1  0
 14 13  2  0
 15 17  1  0
 16 15  2  0
 18  3  1  0
 19 24  2  0
 19 20  1  0
 20 21  2  0
 21 22  1  0
 22 18  1  0
 23 22  2  0
 24 23  1  0
 25 19  1  0
 26 25  2  0
 27 25  2  0
  2 28  1  0
  6 29  1  0
  9 30  1  0
 10 31  1  0
 17 32  1  0
 18 33  1  0
 18 34  1  0
 20 35  1  0
 21 36  1  0
 23 37  1  0
 24 38  1  0
 25 39  1  0
M  ISO  8  28  14  29   9  30  14  31  14  32   3  33   8  34   8  35  14
M  ISO  4  36  14  37  14  38  14  39  11
M  END
>  <minimizedAffinity>  (1) 
-5.52623796

>  <minimizedRMSD>  (1) 
5.0216465

$$$$
