
     RDKit          3D

 29 30  0  0  1  0  0  0  0  0999 V2000
   46.4010   34.0200   41.8680 C   0  0  1  0  0  0  0  0  0  0  0  0
   45.1590   35.7340   43.2420 C   0  0  0  0  0  0  0  0  0  0  0  0
   45.8080   34.4790   43.1180 C   0  0  0  0  0  0  0  0  0  0  0  0
   45.8610   33.6840   44.2590 C   0  0  0  0  0  0  0  0  0  0  0  0
   45.2920   34.1570   45.4050 N   0  0  0  0  0  0  0  0  0  0  0  0
   44.6870   35.3410   45.4940 C   0  0  0  0  0  0  0  0  0  0  0  0
   44.6140   36.1510   44.3980 N   0  0  0  0  0  0  0  0  0  0  0  0
   45.4950   34.2090   40.7040 C   0  0  0  0  0  0  0  0  0  0  0  0
   47.7360   34.7210   41.6600 C   0  0  0  0  0  0  0  0  0  0  0  0
   48.8080   33.8010   41.4550 N   0  0  0  0  0  0  0  0  0  0  0  0
   48.8370   32.7090   40.6650 C   0  0  0  0  0  0  0  0  0  0  0  0
   49.9270   31.8920   40.5440 C   0  0  0  0  0  0  0  0  0  0  0  0
   51.0830   32.1630   41.2540 C   0  0  0  0  0  0  0  0  0  0  0  0
   52.1050   31.4370   41.1710 O   0  0  0  0  0  0  0  0  0  0  0  0
   51.0610   33.2540   42.0460 N   0  0  0  0  0  0  0  0  0  0  0  0
   49.9690   34.0320   42.1370 C   0  0  0  0  0  0  0  0  0  0  0  0
   50.0620   35.0160   42.9030 O   0  0  0  0  0  0  0  0  0  0  0  0
   46.5681   32.9353   41.9423 H   0  0  0  0  0  0  0  0  0  0  0  0
   45.0995   36.3896   42.3607 H   0  0  0  0  0  0  0  0  0  0  0  0
   46.3496   32.6987   44.2373 H   0  0  0  0  0  0  0  0  0  0  0  0
   44.2473   35.6648   46.4489 H   0  0  0  0  0  0  0  0  0  0  0  0
   44.4770   34.4214   41.0624 H   0  0  0  0  0  0  0  0  0  0  0  0
   45.8524   35.0519   40.0943 H   0  0  0  0  0  0  0  0  0  0  0  0
   45.4855   33.2935   40.0943 H   0  0  0  0  0  0  0  0  0  0  0  0
   47.6582   35.3747   40.7787 H   0  0  0  0  0  0  0  0  0  0  0  0
   47.9578   35.2967   42.5707 H   0  0  0  0  0  0  0  0  0  0  0  0
   47.9349   32.4617   40.0862 H   0  0  0  0  0  0  0  0  0  0  0  0
   49.8844   31.0162   39.8798 H   0  0  0  0  0  0  0  0  0  0  0  0
   51.8993   33.4964   42.5931 H   0  0  0  0  0  0  0  0  0  0  0  0
  1  3  1  0
  2  7  2  0
  3  2  1  0
  3  4  2  0
  4  5  1  0
  5  6  2  0
  7  6  1  0
  8  1  1  0
  9  1  1  0
 10  9  1  0
 10 16  1  0
 11 10  1  0
 12 11  2  0
 12 13  1  0
 13 15  1  0
 14 13  2  0
 15 16  1  0
 16 17  2  0
  1 18  1  1
  2 19  1  0
  4 20  1  0
  6 21  1  0
  8 22  1  0
  8 23  1  0
  8 24  1  0
  9 25  1  0
  9 26  1  0
 11 27  1  0
 12 28  1  0
 15 29  1  0
M  ISO  8  18   8  19  14  20  14  21  14  22   8  23   8  24   8  25   8
M  ISO  4  26   8  27  14  28  14  29   9
M  END
>  <minimizedAffinity>  (1) 
-4.88717747

>  <minimizedRMSD>  (1) 
3.13089681

$$$$
