
     RDKit          3D

 44 47  0  0  0  0  0  0  0  0999 V2000
   45.6120   33.9570   41.7480 N   0  0  0  0  0  0  0  0  0  0  0  0
   44.7630   33.3490   40.9170 C   0  0  0  0  0  0  0  0  0  0  0  0
   45.0030   33.1260   39.5950 C   0  0  0  0  0  0  0  0  0  0  0  0
   46.2400   33.5970   39.1730 C   0  0  0  0  0  0  0  0  0  0  0  0
   46.5820   33.4440   37.9460 O   0  0  0  0  0  0  0  0  0  0  0  0
   47.1310   34.2170   39.9740 N   0  0  0  0  0  0  0  0  0  0  0  0
   46.8020   34.3950   41.2800 C   0  0  0  0  0  0  0  0  0  0  0  0
   47.6670   34.9770   41.9770 O   0  0  0  0  0  0  0  0  0  0  0  0
   44.4710   35.6960   44.7960 C   0  0  0  0  0  0  0  0  0  0  0  0
   44.6810   35.3940   43.4190 C   0  0  0  0  0  0  0  0  0  0  0  0
   45.4240   34.2210   43.1150 C   0  0  0  0  0  0  0  0  0  0  0  0
   45.8720   33.4830   44.1460 N   0  0  0  0  0  0  0  0  0  0  0  0
   45.6560   33.7950   45.4220 C   0  0  0  0  0  0  0  0  0  0  0  0
   44.9610   34.8920   45.7600 N   0  0  0  0  0  0  0  0  0  0  0  0
   46.1750   32.9430   46.4780 C   0  0  0  0  0  0  0  0  0  0  0  0
   45.7010   31.7830   46.6690 O   0  0  0  0  0  0  0  0  0  0  0  0
   47.1900   33.3150   47.3290 O   0  0  0  0  0  0  0  0  0  0  0  0
   44.0650   32.4600   38.6900 C   0  0  0  0  0  0  0  0  0  0  0  0
   43.1820   33.4050   38.0940 N   0  0  0  0  0  0  0  0  0  0  0  0
   42.0040   34.0010   38.5920 C   0  0  0  0  0  0  0  0  0  0  0  0
   41.9540   35.2160   39.2350 C   0  0  0  0  0  0  0  0  0  0  0  0
   40.8240   35.8130   39.7440 C   0  0  0  0  0  0  0  0  0  0  0  0
   39.6440   35.1520   39.6060 C   0  0  0  0  0  0  0  0  0  0  0  0
   39.6240   33.9280   38.9710 C   0  0  0  0  0  0  0  0  0  0  0  0
   38.4000   33.3050   38.8600 C   0  0  0  0  0  0  0  0  0  0  0  0
   38.2710   32.0820   38.2420 C   0  0  0  0  0  0  0  0  0  0  0  0
   39.4130   31.4980   37.7370 C   0  0  0  0  0  0  0  0  0  0  0  0
   40.6110   32.1590   37.8740 C   0  0  0  0  0  0  0  0  0  0  0  0
   40.7810   33.3800   38.4820 C   0  0  0  0  0  0  0  0  0  0  0  0
   43.8028   33.0041   41.3283 H   0  0  0  0  0  0  0  0  0  0  0  0
   48.0350   34.5460   39.6059 H   0  0  0  0  0  0  0  0  0  0  0  0
   43.9026   36.5955   45.0749 H   0  0  0  0  0  0  0  0  0  0  0  0
   44.2842   36.0423   42.6239 H   0  0  0  0  0  0  0  0  0  0  0  0
   47.5017   32.6900   48.0307 H   0  0  0  0  0  0  0  0  0  0  0  0
   44.6303   31.9455   37.8990 H   0  0  0  0  0  0  0  0  0  0  0  0
   43.4706   31.7365   39.2673 H   0  0  0  0  0  0  0  0  0  0  0  0
   43.4465   33.7020   37.1439 H   0  0  0  0  0  0  0  0  0  0  0  0
   42.9032   35.7592   39.3528 H   0  0  0  0  0  0  0  0  0  0  0  0
   40.8734   36.7910   40.2451 H   0  0  0  0  0  0  0  0  0  0  0  0
   38.7137   35.5895   39.9973 H   0  0  0  0  0  0  0  0  0  0  0  0
   37.5068   33.7956   39.2742 H   0  0  0  0  0  0  0  0  0  0  0  0
   37.2919   31.5884   38.1542 H   0  0  0  0  0  0  0  0  0  0  0  0
   39.3668   30.5210   37.2336 H   0  0  0  0  0  0  0  0  0  0  0  0
   41.5069   31.6705   37.4633 H   0  0  0  0  0  0  0  0  0  0  0  0
  1 11  1  0
  2  1  1  0
  3  2  2  0
  4  3  1  0
  4  6  1  0
  5  4  2  0
  6  7  1  0
  7  1  1  0
  7  8  2  0
  9 14  2  0
 10  9  1  0
 11 10  2  0
 11 12  1  0
 12 13  2  0
 13 14  1  0
 13 15  1  0
 15 16  2  0
 15 17  1  0
 18  3  1  0
 19 20  1  0
 19 18  1  0
 20 21  2  0
 21 22  1  0
 23 22  2  0
 24 23  1  0
 25 24  2  0
 26 25  1  0
 27 28  1  0
 27 26  2  0
 28 29  2  0
 29 20  1  0
 29 24  1  0
  2 30  1  0
  6 31  1  0
  9 32  1  0
 10 33  1  0
 17 34  1  0
 18 35  1  0
 18 36  1  0
 19 37  1  0
 21 38  1  0
 22 39  1  0
 23 40  1  0
 25 41  1  0
 26 42  1  0
 27 43  1  0
 28 44  1  0
M  ISO  8  30  14  31   9  32  14  33  14  34   3  35   8  36   8  38  14
M  ISO  6  39  14  40  14  41  14  42  14  43  14  44  14
M  END
>  <minimizedAffinity>  (1) 
-7.49882317

>  <minimizedRMSD>  (1) 
2.59729862

$$$$
