
     RDKit          3D

 35 37  0  0  0  0  0  0  0  0999 V2000
   46.7530   34.3000   41.2470 N   0  0  0  0  0  0  0  0  0  0  0  0
   46.2490   33.5880   40.2270 C   0  0  0  0  0  0  0  0  0  0  0  0
   46.8790   33.5120   38.9980 C   0  0  0  0  0  0  0  0  0  0  0  0
   48.0490   34.2140   38.9020 C   0  0  0  0  0  0  0  0  0  0  0  0
   48.6630   34.1730   37.7830 O   0  0  0  0  0  0  0  0  0  0  0  0
   48.5740   34.9340   39.9100 N   0  0  0  0  0  0  0  0  0  0  0  0
   47.9180   34.9770   41.0930 C   0  0  0  0  0  0  0  0  0  0  0  0
   48.4630   35.6650   41.9840 O   0  0  0  0  0  0  0  0  0  0  0  0
   44.6960   35.6940   43.9800 C   0  0  0  0  0  0  0  0  0  0  0  0
   45.2790   35.5090   42.6920 C   0  0  0  0  0  0  0  0  0  0  0  0
   46.2030   34.4480   42.5380 C   0  0  0  0  0  0  0  0  0  0  0  0
   46.4630   33.6910   43.6170 N   0  0  0  0  0  0  0  0  0  0  0  0
   45.9020   33.8900   44.8080 C   0  0  0  0  0  0  0  0  0  0  0  0
   45.0300   34.8730   45.0040 N   0  0  0  0  0  0  0  0  0  0  0  0
   46.2480   33.0200   45.9250 C   0  0  0  0  0  0  0  0  0  0  0  0
   45.9010   31.8150   45.9480 O   0  0  0  0  0  0  0  0  0  0  0  0
   46.9720   33.4540   47.0210 O   0  0  0  0  0  0  0  0  0  0  0  0
   46.2740   32.7170   37.9130 C   0  0  0  0  0  0  0  0  0  0  0  0
   46.0810   33.5440   36.7580 N   0  0  0  0  0  0  0  0  0  0  0  0
   45.3960   32.7170   35.8040 C   0  0  0  0  0  0  0  0  0  0  0  0
   44.6310   31.7330   36.4350 C   0  0  0  0  0  0  0  0  0  0  0  0
   44.0090   30.9720   35.4380 C   0  0  0  0  0  0  0  0  0  0  0  0
   44.4220   31.5240   34.2540 N   0  0  0  0  0  0  0  0  0  0  0  0
   45.2410   32.5540   34.4680 N   0  0  0  0  0  0  0  0  0  0  0  0
   45.3028   33.0465   40.3734 H   0  0  0  0  0  0  0  0  0  0  0  0
   49.4600   35.4438   39.7835 H   0  0  0  0  0  0  0  0  0  0  0  0
   43.9724   36.5064   44.1425 H   0  0  0  0  0  0  0  0  0  0  0  0
   45.0202   36.1667   41.8491 H   0  0  0  0  0  0  0  0  0  0  0  0
   47.1826   32.8249   47.7558 H   0  0  0  0  0  0  0  0  0  0  0  0
   46.9411   31.8808   37.6567 H   0  0  0  0  0  0  0  0  0  0  0  0
   45.3020   32.3250   38.2470 H   0  0  0  0  0  0  0  0  0  0  0  0
   46.3722   34.5246   36.6376 H   0  0  0  0  0  0  0  0  0  0  0  0
   44.5346   31.5830   37.5205 H   0  0  0  0  0  0  0  0  0  0  0  0
   43.3336   30.1148   35.5757 H   0  0  0  0  0  0  0  0  0  0  0  0
   44.1377   31.1880   33.3228 H   0  0  0  0  0  0  0  0  0  0  0  0
  1 11  1  0
  2  1  1  0
  3  2  2  0
  4  3  1  0
  4  6  1  0
  5  4  2  0
  6  7  1  0
  7  1  1  0
  7  8  2  0
  9 14  2  0
 10  9  1  0
 11 10  2  0
 11 12  1  0
 12 13  2  0
 13 14  1  0
 13 15  1  0
 15 16  2  0
 15 17  1  0
 18  3  1  0
 19 18  1  0
 20 21  1  0
 20 19  1  0
 22 21  2  0
 23 24  1  0
 23 22  1  0
 24 20  2  0
  2 25  1  0
  6 26  1  0
  9 27  1  0
 10 28  1  0
 17 29  1  0
 18 30  1  0
 18 31  1  0
 19 32  1  0
 21 33  1  0
 22 34  1  0
 23 35  1  0
M  ISO  8  25  14  26   9  27  14  28  14  29   3  30   8  31   8  33  14
M  ISO  2  34  14  35   9
M  END
>  <minimizedAffinity>  (1) 
-6.76184893

>  <minimizedRMSD>  (1) 
0.174962938

$$$$
