
     RDKit          3D

 35 37  0  0  0  0  0  0  0  0999 V2000
   46.4600   34.3930   41.7580 N   0  0  0  0  0  0  0  0  0  0  0  0
   45.8890   33.7150   40.7520 C   0  0  0  0  0  0  0  0  0  0  0  0
   46.5330   33.4710   39.5540 C   0  0  0  0  0  0  0  0  0  0  0  0
   47.8030   33.9750   39.4720 C   0  0  0  0  0  0  0  0  0  0  0  0
   48.4570   33.7840   38.3920 O   0  0  0  0  0  0  0  0  0  0  0  0
   48.4000   34.6560   40.4640 N   0  0  0  0  0  0  0  0  0  0  0  0
   47.7130   34.8620   41.6150 C   0  0  0  0  0  0  0  0  0  0  0  0
   48.3320   35.5090   42.5040 O   0  0  0  0  0  0  0  0  0  0  0  0
   44.5680   36.2140   44.3460 C   0  0  0  0  0  0  0  0  0  0  0  0
   45.1520   35.8940   43.0860 C   0  0  0  0  0  0  0  0  0  0  0  0
   45.8910   34.6920   43.0090 C   0  0  0  0  0  0  0  0  0  0  0  0
   45.9860   33.9420   44.1320 N   0  0  0  0  0  0  0  0  0  0  0  0
   45.4220   34.2790   45.2940 C   0  0  0  0  0  0  0  0  0  0  0  0
   44.7160   35.4050   45.4130 N   0  0  0  0  0  0  0  0  0  0  0  0
   45.5770   33.4120   46.4500 C   0  0  0  0  0  0  0  0  0  0  0  0
   46.4680   32.5180   46.4920 O   0  0  0  0  0  0  0  0  0  0  0  0
   44.7810   33.4940   47.5670 O   0  0  0  0  0  0  0  0  0  0  0  0
   45.8660   32.7230   38.4790 C   0  0  0  0  0  0  0  0  0  0  0  0
   45.8500   33.5100   37.2770 N   0  0  0  0  0  0  0  0  0  0  0  0
   45.9620   32.8700   36.0050 C   0  0  0  0  0  0  0  0  0  0  0  0
   47.0050   32.0710   35.5470 C   0  0  0  0  0  0  0  0  0  0  0  0
   46.7240   31.6650   34.2960 N   0  0  0  0  0  0  0  0  0  0  0  0
   45.5150   32.2070   33.9770 C   0  0  0  0  0  0  0  0  0  0  0  0
   45.0550   32.9320   35.0020 N   0  0  0  0  0  0  0  0  0  0  0  0
   44.8647   33.3371   40.8860 H   0  0  0  0  0  0  0  0  0  0  0  0
   49.3593   35.0142   40.3529 H   0  0  0  0  0  0  0  0  0  0  0  0
   43.9844   37.1407   44.4494 H   0  0  0  0  0  0  0  0  0  0  0  0
   45.0329   36.5527   42.2131 H   0  0  0  0  0  0  0  0  0  0  0  0
   44.9301   32.8778   48.3274 H   0  0  0  0  0  0  0  0  0  0  0  0
   46.4103   31.7851   38.2944 H   0  0  0  0  0  0  0  0  0  0  0  0
   44.8322   32.4980   38.7800 H   0  0  0  0  0  0  0  0  0  0  0  0
   45.7579   34.5344   37.3325 H   0  0  0  0  0  0  0  0  0  0  0  0
   47.9111   31.8135   36.1151 H   0  0  0  0  0  0  0  0  0  0  0  0
   44.9944   32.0685   33.0179 H   0  0  0  0  0  0  0  0  0  0  0  0
   44.1642   33.4486   35.0245 H   0  0  0  0  0  0  0  0  0  0  0  0
  1 11  1  0
  2  1  1  0
  3  2  2  0
  4  3  1  0
  4  6  1  0
  5  4  2  0
  6  7  1  0
  7  1  1  0
  7  8  2  0
  9 14  2  0
 10  9  1  0
 11 10  2  0
 11 12  1  0
 12 13  2  0
 13 14  1  0
 13 15  1  0
 15 16  2  0
 15 17  1  0
 18  3  1  0
 19 18  1  0
 20 19  1  0
 21 20  2  0
 22 21  1  0
 23 22  2  0
 23 24  1  0
 24 20  1  0
  2 25  1  0
  6 26  1  0
  9 27  1  0
 10 28  1  0
 17 29  1  0
 18 30  1  0
 18 31  1  0
 19 32  1  0
 21 33  1  0
 23 34  1  0
 24 35  1  0
M  ISO  8  25  14  26   9  27  14  28  14  29   3  30   8  31   8  33  14
M  ISO  2  34  14  35   9
M  END
>  <minimizedAffinity>  (1) 
-6.38719749

>  <minimizedRMSD>  (1) 
1.05844963

$$$$
