
     RDKit          3D

 35 37  0  0  0  0  0  0  0  0999 V2000
   46.4190   34.2440   41.5210 N   0  0  0  0  0  0  0  0  0  0  0  0
   45.7280   33.6820   40.4980 C   0  0  0  0  0  0  0  0  0  0  0  0
   46.2450   33.5510   39.2450 C   0  0  0  0  0  0  0  0  0  0  0  0
   47.5240   34.0310   39.0850 C   0  0  0  0  0  0  0  0  0  0  0  0
   48.0730   33.9430   37.9400 O   0  0  0  0  0  0  0  0  0  0  0  0
   48.2380   34.5940   40.0700 N   0  0  0  0  0  0  0  0  0  0  0  0
   47.6690   34.7000   41.3070 C   0  0  0  0  0  0  0  0  0  0  0  0
   48.3820   35.2330   42.1870 O   0  0  0  0  0  0  0  0  0  0  0  0
   44.6640   35.7280   44.4000 C   0  0  0  0  0  0  0  0  0  0  0  0
   45.1230   35.5260   43.0620 C   0  0  0  0  0  0  0  0  0  0  0  0
   45.9800   34.4250   42.8410 C   0  0  0  0  0  0  0  0  0  0  0  0
   46.2930   33.6570   43.9070 N   0  0  0  0  0  0  0  0  0  0  0  0
   45.8510   33.8700   45.1390 C   0  0  0  0  0  0  0  0  0  0  0  0
   45.0350   34.9060   45.3940 N   0  0  0  0  0  0  0  0  0  0  0  0
   46.2410   32.9910   46.2280 C   0  0  0  0  0  0  0  0  0  0  0  0
   45.7980   31.8070   46.3100 O   0  0  0  0  0  0  0  0  0  0  0  0
   47.1010   33.3720   47.2280 O   0  0  0  0  0  0  0  0  0  0  0  0
   45.4730   32.9330   38.1530 C   0  0  0  0  0  0  0  0  0  0  0  0
   44.3430   33.7580   37.8260 N   0  0  0  0  0  0  0  0  0  0  0  0
   43.1120   33.8940   38.4350 C   0  0  0  0  0  0  0  0  0  0  0  0
   42.2970   35.0920   38.3840 C   0  0  0  0  0  0  0  0  0  0  0  0
   41.0970   35.0610   39.0390 C   0  0  0  0  0  0  0  0  0  0  0  0
   40.6900   33.9170   39.7210 C   0  0  0  0  0  0  0  0  0  0  0  0
   42.0630   32.7130   39.4770 S   0  0  0  0  0  0  0  0  0  0  0  0
   44.7079   33.3170   40.6884 H   0  0  0  0  0  0  0  0  0  0  0  0
   49.1933   34.9385   39.8979 H   0  0  0  0  0  0  0  0  0  0  0  0
   43.9943   36.5726   44.6194 H   0  0  0  0  0  0  0  0  0  0  0  0
   44.8232   36.1961   42.2428 H   0  0  0  0  0  0  0  0  0  0  0  0
   47.3356   32.7349   47.9485 H   0  0  0  0  0  0  0  0  0  0  0  0
   46.1157   32.8266   37.2667 H   0  0  0  0  0  0  0  0  0  0  0  0
   45.1178   31.9431   38.4754 H   0  0  0  0  0  0  0  0  0  0  0  0
   44.4743   34.3501   36.9935 H   0  0  0  0  0  0  0  0  0  0  0  0
   42.6301   35.9887   37.8409 H   0  0  0  0  0  0  0  0  0  0  0  0
   40.4469   35.9483   39.0271 H   0  0  0  0  0  0  0  0  0  0  0  0
   39.7556   33.7657   40.2813 H   0  0  0  0  0  0  0  0  0  0  0  0
  1 11  1  0
  2  1  1  0
  3  2  2  0
  4  3  1  0
  4  6  1  0
  5  4  2  0
  6  7  1  0
  7  1  1  0
  7  8  2  0
  9 14  2  0
 10  9  1  0
 11 10  2  0
 11 12  1  0
 12 13  2  0
 13 14  1  0
 13 15  1  0
 15 16  2  0
 15 17  1  0
 18  3  1  0
 19 18  1  0
 19 20  1  0
 20 24  1  0
 21 20  2  0
 21 22  1  0
 22 23  2  0
 24 23  1  0
  2 25  1  0
  6 26  1  0
  9 27  1  0
 10 28  1  0
 17 29  1  0
 18 30  1  0
 18 31  1  0
 19 32  1  0
 21 33  1  0
 22 34  1  0
 23 35  1  0
M  ISO  8  25  14  26   9  27  14  28  14  29   3  30   8  31   8  33  14
M  ISO  2  34  14  35  14
M  END
>  <minimizedAffinity>  (1) 
-6.24994373

>  <minimizedRMSD>  (1) 
1.87279975

$$$$
