
     RDKit          3D

 32 33  0  0  0  0  0  0  0  0999 V2000
   46.6810   34.2850   41.6450 N   0  0  0  0  0  0  0  0  0  0  0  0
   46.1540   33.5610   40.6260 C   0  0  0  0  0  0  0  0  0  0  0  0
   46.7440   33.4810   39.3930 C   0  0  0  0  0  0  0  0  0  0  0  0
   47.9130   34.1880   39.2590 C   0  0  0  0  0  0  0  0  0  0  0  0
   48.5150   34.1540   38.1300 O   0  0  0  0  0  0  0  0  0  0  0  0
   48.4630   34.9150   40.2460 N   0  0  0  0  0  0  0  0  0  0  0  0
   47.8340   34.9600   41.4540 C   0  0  0  0  0  0  0  0  0  0  0  0
   48.4000   35.6530   42.3250 O   0  0  0  0  0  0  0  0  0  0  0  0
   44.6980   35.6580   44.4260 C   0  0  0  0  0  0  0  0  0  0  0  0
   45.2420   35.4920   43.1160 C   0  0  0  0  0  0  0  0  0  0  0  0
   46.1590   34.4310   42.9380 C   0  0  0  0  0  0  0  0  0  0  0  0
   46.4560   33.6530   44.0110 N   0  0  0  0  0  0  0  0  0  0  0  0
   45.9180   33.8510   45.2150 C   0  0  0  0  0  0  0  0  0  0  0  0
   45.0490   34.8390   45.4320 N   0  0  0  0  0  0  0  0  0  0  0  0
   46.2840   32.9760   46.3160 C   0  0  0  0  0  0  0  0  0  0  0  0
   45.7890   31.8330   46.4470 O   0  0  0  0  0  0  0  0  0  0  0  0
   47.2010   33.3430   47.2920 O   0  0  0  0  0  0  0  0  0  0  0  0
   46.1550   32.6920   38.3070 C   0  0  0  0  0  0  0  0  0  0  0  0
   45.2790   33.5040   37.5140 N   0  0  0  0  0  0  0  0  0  0  0  0
   43.8950   33.4450   37.8880 C   0  0  0  0  0  0  0  0  0  0  0  0
   43.1340   34.6270   37.9860 N   0  0  0  0  0  0  0  0  0  0  0  0
   43.2020   32.4080   38.1640 O   0  0  0  0  0  0  0  0  0  0  0  0
   45.2141   33.0158   40.7973 H   0  0  0  0  0  0  0  0  0  0  0  0
   49.3428   35.4282   40.0926 H   0  0  0  0  0  0  0  0  0  0  0  0
   43.9799   36.4696   44.6147 H   0  0  0  0  0  0  0  0  0  0  0  0
   44.9612   36.1572   42.2861 H   0  0  0  0  0  0  0  0  0  0  0  0
   47.4214   32.7153   48.0252 H   0  0  0  0  0  0  0  0  0  0  0  0
   46.9594   32.2975   37.6688 H   0  0  0  0  0  0  0  0  0  0  0  0
   45.5758   31.8644   38.7424 H   0  0  0  0  0  0  0  0  0  0  0  0
   45.6177   34.0859   36.7345 H   0  0  0  0  0  0  0  0  0  0  0  0
   42.1409   34.5793   38.2549 H   0  0  0  0  0  0  0  0  0  0  0  0
   43.5709   35.5386   37.7888 H   0  0  0  0  0  0  0  0  0  0  0  0
  1 11  1  0
  2  1  1  0
  3  2  2  0
  4  3  1  0
  4  6  1  0
  5  4  2  0
  6  7  1  0
  7  1  1  0
  7  8  2  0
  9 14  2  0
 10  9  1  0
 11 10  2  0
 11 12  1  0
 12 13  2  0
 13 14  1  0
 13 15  1  0
 15 16  2  0
 15 17  1  0
 18  3  1  0
 19 20  1  0
 19 18  1  0
 20 21  1  0
 20 22  2  0
  2 23  1  0
  6 24  1  0
  9 25  1  0
 10 26  1  0
 17 27  1  0
 18 28  1  0
 18 29  1  0
 19 30  1  0
 21 31  1  0
 21 32  1  0
M  ISO  7  23  14  24   9  25  14  26  14  27   3  28   8  29   8
M  END
>  <minimizedAffinity>  (1) 
-6.15990305

>  <minimizedRMSD>  (1) 
0.927220047

$$$$
