
     RDKit          3D

 37 39  0  0  0  0  0  0  0  0999 V2000
   45.7620   34.0390   41.8140 N   0  0  0  0  0  0  0  0  0  0  0  0
   44.8690   33.6650   40.8890 C   0  0  0  0  0  0  0  0  0  0  0  0
   45.1930   33.4540   39.5800 C   0  0  0  0  0  0  0  0  0  0  0  0
   46.5200   33.6570   39.2750 C   0  0  0  0  0  0  0  0  0  0  0  0
   46.9130   33.4810   38.0630 O   0  0  0  0  0  0  0  0  0  0  0  0
   47.4530   34.0360   40.1820 N   0  0  0  0  0  0  0  0  0  0  0  0
   47.0490   34.2250   41.4690 C   0  0  0  0  0  0  0  0  0  0  0  0
   47.9630   34.5750   42.2520 O   0  0  0  0  0  0  0  0  0  0  0  0
   44.5010   35.7020   44.8640 C   0  0  0  0  0  0  0  0  0  0  0  0
   44.7620   35.4330   43.4880 C   0  0  0  0  0  0  0  0  0  0  0  0
   45.5190   34.2800   43.1880 C   0  0  0  0  0  0  0  0  0  0  0  0
   45.9360   33.5280   44.2180 N   0  0  0  0  0  0  0  0  0  0  0  0
   45.6750   33.8080   45.4890 C   0  0  0  0  0  0  0  0  0  0  0  0
   44.9620   34.8860   45.8230 N   0  0  0  0  0  0  0  0  0  0  0  0
   46.1730   32.9260   46.5450 C   0  0  0  0  0  0  0  0  0  0  0  0
   45.6870   31.7920   46.7450 O   0  0  0  0  0  0  0  0  0  0  0  0
   47.2090   33.2820   47.3900 O   0  0  0  0  0  0  0  0  0  0  0  0
   44.2160   33.0450   38.5720 C   0  0  0  0  0  0  0  0  0  0  0  0
   42.9830   32.6490   39.1840 N   0  0  0  0  0  0  0  0  0  0  0  0
   42.0040   33.6230   39.5230 C   0  0  0  0  0  0  0  0  0  0  0  0
   41.7920   34.7370   38.7050 C   0  0  0  0  0  0  0  0  0  0  0  0
   40.8360   35.6600   39.0650 C   0  0  0  0  0  0  0  0  0  0  0  0
   40.0650   35.5470   40.2040 C   0  0  0  0  0  0  0  0  0  0  0  0
   40.3170   34.4150   40.9870 C   0  0  0  0  0  0  0  0  0  0  0  0
   41.2510   33.5170   40.6330 N   0  0  0  0  0  0  0  0  0  0  0  0
   43.8235   33.5208   41.1991 H   0  0  0  0  0  0  0  0  0  0  0  0
   48.4356   34.1765   39.9070 H   0  0  0  0  0  0  0  0  0  0  0  0
   43.9142   36.5899   45.1421 H   0  0  0  0  0  0  0  0  0  0  0  0
   44.3890   36.0963   42.6937 H   0  0  0  0  0  0  0  0  0  0  0  0
   47.5140   32.6534   48.0913 H   0  0  0  0  0  0  0  0  0  0  0  0
   44.6223   32.1977   38.0001 H   0  0  0  0  0  0  0  0  0  0  0  0
   44.0192   33.8992   37.9074 H   0  0  0  0  0  0  0  0  0  0  0  0
   42.8046   31.6536   39.3795 H   0  0  0  0  0  0  0  0  0  0  0  0
   42.3811   34.8741   37.7862 H   0  0  0  0  0  0  0  0  0  0  0  0
   40.6788   36.5312   38.4120 H   0  0  0  0  0  0  0  0  0  0  0  0
   39.3056   36.2944   40.4772 H   0  0  0  0  0  0  0  0  0  0  0  0
   39.7393   34.2576   41.9098 H   0  0  0  0  0  0  0  0  0  0  0  0
  1 11  1  0
  2  1  1  0
  3  2  2  0
  4  3  1  0
  4  6  1  0
  5  4  2  0
  6  7  1  0
  7  1  1  0
  7  8  2  0
  9 14  2  0
 10  9  1  0
 11 10  2  0
 11 12  1  0
 12 13  2  0
 13 14  1  0
 13 15  1  0
 15 16  2  0
 15 17  1  0
 18 19  1  0
 18  3  1  0
 19 20  1  0
 20 25  2  0
 21 22  2  0
 21 20  1  0
 22 23  1  0
 23 24  2  0
 25 24  1  0
  2 26  1  0
  6 27  1  0
  9 28  1  0
 10 29  1  0
 17 30  1  0
 18 31  1  0
 18 32  1  0
 19 33  1  0
 21 34  1  0
 22 35  1  0
 23 36  1  0
 24 37  1  0
M  ISO  8  26  14  27   9  28  14  29  14  30   3  31   8  32   8  34  14
M  ISO  3  35  14  36  14  37  14
M  END
>  <minimizedAffinity>  (1) 
-6.14563084

>  <minimizedRMSD>  (1) 
3.72600627

$$$$
