
     RDKit          3D

 34 36  0  0  0  0  0  0  0  0999 V2000
   46.7320   34.3310   41.4720 N   0  0  0  0  0  0  0  0  0  0  0  0
   46.2370   33.6030   40.4570 C   0  0  0  0  0  0  0  0  0  0  0  0
   46.8410   33.5080   39.2380 C   0  0  0  0  0  0  0  0  0  0  0  0
   48.0210   34.2320   39.1250 C   0  0  0  0  0  0  0  0  0  0  0  0
   48.6540   34.1970   38.0100 O   0  0  0  0  0  0  0  0  0  0  0  0
   48.5500   34.9770   40.1240 N   0  0  0  0  0  0  0  0  0  0  0  0
   47.8890   35.0160   41.3020 C   0  0  0  0  0  0  0  0  0  0  0  0
   48.4350   35.7260   42.1890 O   0  0  0  0  0  0  0  0  0  0  0  0
   44.7010   35.7440   44.2110 C   0  0  0  0  0  0  0  0  0  0  0  0
   45.2800   35.5520   42.9210 C   0  0  0  0  0  0  0  0  0  0  0  0
   46.1800   34.4940   42.7660 C   0  0  0  0  0  0  0  0  0  0  0  0
   46.4380   33.7310   43.8490 N   0  0  0  0  0  0  0  0  0  0  0  0
   45.8980   33.9190   45.0380 C   0  0  0  0  0  0  0  0  0  0  0  0
   45.0260   34.9220   45.2370 N   0  0  0  0  0  0  0  0  0  0  0  0
   46.2260   33.0550   46.1500 C   0  0  0  0  0  0  0  0  0  0  0  0
   45.7300   31.9030   46.2540 O   0  0  0  0  0  0  0  0  0  0  0  0
   47.0840   33.4130   47.1620 O   0  0  0  0  0  0  0  0  0  0  0  0
   46.3090   32.7120   38.1440 C   0  0  0  0  0  0  0  0  0  0  0  0
   46.1520   33.5250   36.9540 N   0  0  0  0  0  0  0  0  0  0  0  0
   46.1970   32.6800   35.7800 C   0  0  0  0  0  0  0  0  0  0  0  0
   47.4460   32.2900   35.3590 C   0  0  0  0  0  0  0  0  0  0  0  0
   47.0490   31.2520   33.8740 S   0  0  0  0  0  0  0  0  0  0  0  0
   45.1980   31.5810   34.1490 C   0  0  0  0  0  0  0  0  0  0  0  0
   45.1920   32.2320   35.0560 N   0  0  0  0  0  0  0  0  0  0  0  0
   45.2965   33.0556   40.6175 H   0  0  0  0  0  0  0  0  0  0  0  0
   49.4286   35.4977   39.9904 H   0  0  0  0  0  0  0  0  0  0  0  0
   43.9865   36.5645   44.3730 H   0  0  0  0  0  0  0  0  0  0  0  0
   45.0271   36.2129   42.0788 H   0  0  0  0  0  0  0  0  0  0  0  0
   47.2717   32.7794   47.8992 H   0  0  0  0  0  0  0  0  0  0  0  0
   47.0011   31.8846   37.9284 H   0  0  0  0  0  0  0  0  0  0  0  0
   45.3252   32.3169   38.4372 H   0  0  0  0  0  0  0  0  0  0  0  0
   46.0275   34.5474   36.9454 H   0  0  0  0  0  0  0  0  0  0  0  0
   48.4282   32.5314   35.7915 H   0  0  0  0  0  0  0  0  0  0  0  0
   44.3427   31.2191   33.5596 H   0  0  0  0  0  0  0  0  0  0  0  0
  1 11  1  0
  2  1  1  0
  3  2  2  0
  4  3  1  0
  4  6  1  0
  5  4  2  0
  6  7  1  0
  7  1  1  0
  7  8  2  0
  9 14  2  0
 10  9  1  0
 11 10  2  0
 11 12  1  0
 12 13  2  0
 13 14  1  0
 13 15  1  0
 15 16  2  0
 15 17  1  0
 18  3  1  0
 19 18  1  0
 20 19  1  0
 21 20  2  0
 22 23  1  0
 22 21  1  0
 23 24  2  0
 24 20  1  0
  2 25  1  0
  6 26  1  0
  9 27  1  0
 10 28  1  0
 17 29  1  0
 18 30  1  0
 18 31  1  0
 19 32  1  0
 21 33  1  0
 23 34  1  0
M  ISO  8  25  14  26   9  27  14  28  14  29   3  30   8  31   8  33  14
M  ISO  1  34  14
M  END
>  <minimizedAffinity>  (1) 
-6.11127377

>  <minimizedRMSD>  (1) 
0.762117445

$$$$
