
     RDKit          3D

 31 32  0  0  0  0  0  0  0  0999 V2000
   46.7180   34.2890   41.6340 N   0  0  0  0  0  0  0  0  0  0  0  0
   46.2330   33.5570   40.6220 C   0  0  0  0  0  0  0  0  0  0  0  0
   46.8150   33.4810   39.3890 C   0  0  0  0  0  0  0  0  0  0  0  0
   47.9660   34.2270   39.2550 C   0  0  0  0  0  0  0  0  0  0  0  0
   48.5800   34.2160   38.1320 O   0  0  0  0  0  0  0  0  0  0  0  0
   48.4920   34.9750   40.2360 N   0  0  0  0  0  0  0  0  0  0  0  0
   47.8570   35.0040   41.4390 C   0  0  0  0  0  0  0  0  0  0  0  0
   48.3970   35.7210   42.3180 O   0  0  0  0  0  0  0  0  0  0  0  0
   44.7120   35.6370   44.4020 C   0  0  0  0  0  0  0  0  0  0  0  0
   45.2620   35.4730   43.1040 C   0  0  0  0  0  0  0  0  0  0  0  0
   46.1910   34.4260   42.9260 C   0  0  0  0  0  0  0  0  0  0  0  0
   46.4890   33.6630   43.9920 N   0  0  0  0  0  0  0  0  0  0  0  0
   45.9610   33.8340   45.2000 C   0  0  0  0  0  0  0  0  0  0  0  0
   45.0680   34.8210   45.4190 N   0  0  0  0  0  0  0  0  0  0  0  0
   46.3260   32.9750   46.3000 C   0  0  0  0  0  0  0  0  0  0  0  0
   45.8500   31.8090   46.4110 O   0  0  0  0  0  0  0  0  0  0  0  0
   47.2020   33.3410   47.2970 O   0  0  0  0  0  0  0  0  0  0  0  0
   46.2500   32.6660   38.3090 C   0  0  0  0  0  0  0  0  0  0  0  0
   45.3460   33.4410   37.5190 N   0  0  0  0  0  0  0  0  0  0  0  0
   43.9620   33.4840   37.8260 C   0  0  0  0  0  0  0  0  0  0  0  0
   43.2770   32.4430   38.1140 O   0  0  0  0  0  0  0  0  0  0  0  0
   43.2240   34.6590   37.8430 O   0  0  0  0  0  0  0  0  0  0  0  0
   45.3108   32.9829   40.7947 H   0  0  0  0  0  0  0  0  0  0  0  0
   49.3559   35.5145   40.0825 H   0  0  0  0  0  0  0  0  0  0  0  0
   43.9840   36.4414   44.5834 H   0  0  0  0  0  0  0  0  0  0  0  0
   44.9763   36.1338   42.2723 H   0  0  0  0  0  0  0  0  0  0  0  0
   47.4138   32.7069   48.0272 H   0  0  0  0  0  0  0  0  0  0  0  0
   47.0652   32.2970   37.6693 H   0  0  0  0  0  0  0  0  0  0  0  0
   45.7024   31.8202   38.7502 H   0  0  0  0  0  0  0  0  0  0  0  0
   45.7046   33.9760   36.7152 H   0  0  0  0  0  0  0  0  0  0  0  0
   42.2593   34.6345   38.0639 H   0  0  0  0  0  0  0  0  0  0  0  0
  1 11  1  0
  2  1  1  0
  3  2  2  0
  4  3  1  0
  4  6  1  0
  5  4  2  0
  6  7  1  0
  7  1  1  0
  7  8  2  0
  9 14  2  0
 10  9  1  0
 11 10  2  0
 11 12  1  0
 12 13  2  0
 13 14  1  0
 13 15  1  0
 15 16  2  0
 15 17  1  0
 18  3  1  0
 19 20  1  0
 19 18  1  0
 20 22  1  0
 20 21  2  0
  2 23  1  0
  6 24  1  0
  9 25  1  0
 10 26  1  0
 17 27  1  0
 18 28  1  0
 18 29  1  0
 19 30  1  0
 22 31  1  0
M  ISO  8  23  14  24   9  25  14  26  14  27   3  28   8  29   8  31   3
M  END
>  <minimizedAffinity>  (1) 
-6.10822153

>  <minimizedRMSD>  (1) 
0.946418822

$$$$
