
     RDKit          3D

 38 40  0  0  0  0  0  0  0  0999 V2000
   45.9230   34.3140   42.8330 N   0  0  0  0  0  0  0  0  0  0  0  0
   46.3840   33.6860   43.9280 C   0  0  0  0  0  0  0  0  0  0  0  0
   45.8910   33.9010   45.1820 C   0  0  0  0  0  0  0  0  0  0  0  0
   44.8720   34.8200   45.2580 C   0  0  0  0  0  0  0  0  0  0  0  0
   44.3480   35.0880   46.3890 O   0  0  0  0  0  0  0  0  0  0  0  0
   44.3770   35.4760   44.1820 N   0  0  0  0  0  0  0  0  0  0  0  0
   44.9120   35.2160   42.9570 C   0  0  0  0  0  0  0  0  0  0  0  0
   44.4170   35.8480   42.0070 O   0  0  0  0  0  0  0  0  0  0  0  0
   48.1370   34.4700   39.8960 C   0  0  0  0  0  0  0  0  0  0  0  0
   47.6580   34.6120   41.2340 C   0  0  0  0  0  0  0  0  0  0  0  0
   46.3620   34.1600   41.5130 C   0  0  0  0  0  0  0  0  0  0  0  0
   45.6730   33.6270   40.4910 N   0  0  0  0  0  0  0  0  0  0  0  0
   46.1280   33.5010   39.2550 C   0  0  0  0  0  0  0  0  0  0  0  0
   47.3600   33.9200   38.9450 N   0  0  0  0  0  0  0  0  0  0  0  0
   45.3030   32.9090   38.2110 C   0  0  0  0  0  0  0  0  0  0  0  0
   45.2710   31.6690   38.0160 O   0  0  0  0  0  0  0  0  0  0  0  0
   44.5070   33.6540   37.3700 O   0  0  0  0  0  0  0  0  0  0  0  0
   46.4040   33.2070   46.3690 C   0  0  0  0  0  0  0  0  0  0  0  0
   45.4240   32.2990   46.8830 N   0  0  0  0  0  0  0  0  0  0  0  0
   45.7200   30.9130   47.0210 C   0  0  0  0  0  0  0  0  0  0  0  0
   44.9030   30.0460   47.7130 C   0  0  0  0  0  0  0  0  0  0  0  0
   45.1410   28.6990   47.8770 C   0  0  0  0  0  0  0  0  0  0  0  0
   46.2990   28.1920   47.2950 C   0  0  0  0  0  0  0  0  0  0  0  0
   47.1430   29.0310   46.5940 C   0  0  0  0  0  0  0  0  0  0  0  0
   46.8550   30.3640   46.4620 C   0  0  0  0  0  0  0  0  0  0  0  0
   47.2019   32.9604   43.8070 H   0  0  0  0  0  0  0  0  0  0  0  0
   43.6119   36.1574   44.2878 H   0  0  0  0  0  0  0  0  0  0  0  0
   49.1503   34.8134   39.6406 H   0  0  0  0  0  0  0  0  0  0  0  0
   48.2852   35.0608   42.0183 H   0  0  0  0  0  0  0  0  0  0  0  0
   43.9639   33.2042   36.6751 H   0  0  0  0  0  0  0  0  0  0  0  0
   47.3098   32.6455   46.0965 H   0  0  0  0  0  0  0  0  0  0  0  0
   46.6379   33.9527   47.1431 H   0  0  0  0  0  0  0  0  0  0  0  0
   44.4955   32.6517   47.1557 H   0  0  0  0  0  0  0  0  0  0  0  0
   43.9919   30.4606   48.1690 H   0  0  0  0  0  0  0  0  0  0  0  0
   44.4494   28.0555   48.4406 H   0  0  0  0  0  0  0  0  0  0  0  0
   46.5420   27.1237   47.3932 H   0  0  0  0  0  0  0  0  0  0  0  0
   48.0569   28.6243   46.1364 H   0  0  0  0  0  0  0  0  0  0  0  0
   47.5438   31.0102   45.8981 H   0  0  0  0  0  0  0  0  0  0  0  0
  1  7  1  0
  1  2  1  0
  2  3  2  0
  3  4  1  0
  3 18  1  0
  4  5  2  0
  6  4  1  0
  7  6  1  0
  8  7  2  0
  9 10  2  0
 10 11  1  0
 11  1  1  0
 12 11  2  0
 13 12  1  0
 14 13  2  0
 14  9  1  0
 15 13  1  0
 16 15  2  0
 17 15  1  0
 18 19  1  0
 19 20  1  0
 20 21  2  0
 21 22  1  0
 23 22  2  0
 24 23  1  0
 25 24  2  0
 25 20  1  0
  2 26  1  0
  6 27  1  0
  9 28  1  0
 10 29  1  0
 17 30  1  0
 18 31  1  0
 18 32  1  0
 19 33  1  0
 21 34  1  0
 22 35  1  0
 23 36  1  0
 24 37  1  0
 25 38  1  0
M  ISO  8  26  14  27   9  28  14  29  14  30   3  31   8  32   8  34  14
M  ISO  4  35  14  36  14  37  14  38  14
M  END
>  <minimizedAffinity>  (1) 
-6.09179688

>  <minimizedRMSD>  (1) 
8.61626053

$$$$
