
     RDKit          3D

 35 37  0  0  0  0  0  0  0  0999 V2000
   46.7220   34.3470   41.4990 N   0  0  0  0  0  0  0  0  0  0  0  0
   46.2130   33.6180   40.4910 C   0  0  0  0  0  0  0  0  0  0  0  0
   46.8330   33.5180   39.2610 C   0  0  0  0  0  0  0  0  0  0  0  0
   48.0040   34.2180   39.1470 C   0  0  0  0  0  0  0  0  0  0  0  0
   48.6240   34.1650   38.0330 O   0  0  0  0  0  0  0  0  0  0  0  0
   48.5310   34.9520   40.1360 N   0  0  0  0  0  0  0  0  0  0  0  0
   47.8830   35.0140   41.3190 C   0  0  0  0  0  0  0  0  0  0  0  0
   48.4370   35.7190   42.1950 O   0  0  0  0  0  0  0  0  0  0  0  0
   44.7290   35.7790   44.2500 C   0  0  0  0  0  0  0  0  0  0  0  0
   45.2930   35.5920   42.9500 C   0  0  0  0  0  0  0  0  0  0  0  0
   46.1740   34.5160   42.7890 C   0  0  0  0  0  0  0  0  0  0  0  0
   46.4220   33.7440   43.8700 N   0  0  0  0  0  0  0  0  0  0  0  0
   45.8850   33.9380   45.0690 C   0  0  0  0  0  0  0  0  0  0  0  0
   45.0380   34.9550   45.2670 N   0  0  0  0  0  0  0  0  0  0  0  0
   46.2070   33.0610   46.1740 C   0  0  0  0  0  0  0  0  0  0  0  0
   45.6960   31.9210   46.2850 O   0  0  0  0  0  0  0  0  0  0  0  0
   47.0960   33.4150   47.1790 O   0  0  0  0  0  0  0  0  0  0  0  0
   46.2390   32.7110   38.1930 C   0  0  0  0  0  0  0  0  0  0  0  0
   46.2290   33.4460   36.9620 N   0  0  0  0  0  0  0  0  0  0  0  0
   46.4370   32.7210   35.7400 C   0  0  0  0  0  0  0  0  0  0  0  0
   45.4120   32.1360   35.0410 C   0  0  0  0  0  0  0  0  0  0  0  0
   45.9960   31.5300   33.9210 C   0  0  0  0  0  0  0  0  0  0  0  0
   47.3440   31.7950   34.0250 C   0  0  0  0  0  0  0  0  0  0  0  0
   47.5560   32.4980   35.1110 O   0  0  0  0  0  0  0  0  0  0  0  0
   45.2667   33.0807   40.6518 H   0  0  0  0  0  0  0  0  0  0  0  0
   49.4157   35.4606   39.9963 H   0  0  0  0  0  0  0  0  0  0  0  0
   44.0303   36.6111   44.4216 H   0  0  0  0  0  0  0  0  0  0  0  0
   45.0460   36.2630   42.1141 H   0  0  0  0  0  0  0  0  0  0  0  0
   47.2866   32.7827   47.9166 H   0  0  0  0  0  0  0  0  0  0  0  0
   46.8285   31.7916   38.0621 H   0  0  0  0  0  0  0  0  0  0  0  0
   45.2042   32.4587   38.4680 H   0  0  0  0  0  0  0  0  0  0  0  0
   46.0770   34.4647   36.9544 H   0  0  0  0  0  0  0  0  0  0  0  0
   44.3446   32.1416   35.3068 H   0  0  0  0  0  0  0  0  0  0  0  0
   45.4868   30.9633   33.1276 H   0  0  0  0  0  0  0  0  0  0  0  0
   48.1166   31.4697   33.3128 H   0  0  0  0  0  0  0  0  0  0  0  0
  1 11  1  0
  2  1  1  0
  3  2  2  0
  4  3  1  0
  4  6  1  0
  5  4  2  0
  6  7  1  0
  7  1  1  0
  7  8  2  0
  9 14  2  0
 10  9  1  0
 11 10  2  0
 11 12  1  0
 12 13  2  0
 13 14  1  0
 13 15  1  0
 15 16  2  0
 15 17  1  0
 18  3  1  0
 19 18  1  0
 20 19  1  0
 21 20  2  0
 22 23  2  0
 22 21  1  0
 23 24  1  0
 24 20  1  0
  2 25  1  0
  6 26  1  0
  9 27  1  0
 10 28  1  0
 17 29  1  0
 18 30  1  0
 18 31  1  0
 19 32  1  0
 21 33  1  0
 22 34  1  0
 23 35  1  0
M  ISO  8  25  14  26   9  27  14  28  14  29   3  30   8  31   8  33  14
M  ISO  2  34  14  35  14
M  END
>  <minimizedAffinity>  (1) 
-5.96631527

>  <minimizedRMSD>  (1) 
0.997828186

$$$$
