
     RDKit          3D

 37 38  0  0  0  0  0  0  0  0999 V2000
   46.6930   34.2910   41.4110 N   0  0  0  0  0  0  0  0  0  0  0  0
   46.1830   33.5600   40.4020 C   0  0  0  0  0  0  0  0  0  0  0  0
   46.7880   33.4660   39.1740 C   0  0  0  0  0  0  0  0  0  0  0  0
   47.9550   34.1660   39.0350 C   0  0  0  0  0  0  0  0  0  0  0  0
   48.5640   34.1170   37.9150 O   0  0  0  0  0  0  0  0  0  0  0  0
   48.4990   34.9100   40.0260 N   0  0  0  0  0  0  0  0  0  0  0  0
   47.8500   34.9640   41.2240 C   0  0  0  0  0  0  0  0  0  0  0  0
   48.4180   35.6730   42.0870 O   0  0  0  0  0  0  0  0  0  0  0  0
   44.7280   35.7350   44.1670 C   0  0  0  0  0  0  0  0  0  0  0  0
   45.2820   35.5370   42.8690 C   0  0  0  0  0  0  0  0  0  0  0  0
   46.1650   34.4590   42.7030 C   0  0  0  0  0  0  0  0  0  0  0  0
   46.4310   33.6870   43.7760 N   0  0  0  0  0  0  0  0  0  0  0  0
   45.9030   33.8900   44.9820 C   0  0  0  0  0  0  0  0  0  0  0  0
   45.0500   34.9090   45.1930 N   0  0  0  0  0  0  0  0  0  0  0  0
   46.2350   33.0180   46.0910 C   0  0  0  0  0  0  0  0  0  0  0  0
   45.7930   31.8450   46.1640 O   0  0  0  0  0  0  0  0  0  0  0  0
   47.0520   33.4190   47.1350 O   0  0  0  0  0  0  0  0  0  0  0  0
   46.2080   32.6640   38.0960 C   0  0  0  0  0  0  0  0  0  0  0  0
   45.9920   33.4680   36.9320 N   0  0  0  0  0  0  0  0  0  0  0  0
   45.7390   32.7250   35.7170 C   0  0  0  0  0  0  0  0  0  0  0  0
   47.1110   32.2170   35.2600 C   0  0  0  0  0  0  0  0  0  0  0  0
   44.7690   31.6080   35.9060 C   0  0  0  0  0  0  0  0  0  0  0  0
   45.2420   33.0153   40.5690 H   0  0  0  0  0  0  0  0  0  0  0  0
   49.3805   35.4222   39.8791 H   0  0  0  0  0  0  0  0  0  0  0  0
   44.0306   36.5682   44.3387 H   0  0  0  0  0  0  0  0  0  0  0  0
   45.0277   36.2025   42.0309 H   0  0  0  0  0  0  0  0  0  0  0  0
   47.2544   32.7922   47.8741 H   0  0  0  0  0  0  0  0  0  0  0  0
   46.8957   31.8427   37.8459 H   0  0  0  0  0  0  0  0  0  0  0  0
   45.2418   32.2609   38.4336 H   0  0  0  0  0  0  0  0  0  0  0  0
   45.1803   34.0767   37.1097 H   0  0  0  0  0  0  0  0  0  0  0  0
   45.2640   33.3665   34.9602 H   0  0  0  0  0  0  0  0  0  0  0  0
   47.7292   31.9881   36.1406 H   0  0  0  0  0  0  0  0  0  0  0  0
   46.9824   31.3069   34.6557 H   0  0  0  0  0  0  0  0  0  0  0  0
   47.6061   32.9914   34.6557 H   0  0  0  0  0  0  0  0  0  0  0  0
   44.6167   31.4326   36.9812 H   0  0  0  0  0  0  0  0  0  0  0  0
   43.8093   31.8727   35.4381 H   0  0  0  0  0  0  0  0  0  0  0  0
   45.1656   30.6949   35.4381 H   0  0  0  0  0  0  0  0  0  0  0  0
  1 11  1  0
  2  1  1  0
  3  2  2  0
  4  3  1  0
  4  6  1  0
  5  4  2  0
  6  7  1  0
  7  1  1  0
  7  8  2  0
  9 14  2  0
 10  9  1  0
 11 10  2  0
 11 12  1  0
 12 13  2  0
 13 14  1  0
 13 15  1  0
 15 16  2  0
 15 17  1  0
 18  3  1  0
 19 18  1  0
 20 22  1  0
 20 19  1  0
 21 20  1  0
  2 23  1  0
  6 24  1  0
  9 25  1  0
 10 26  1  0
 17 27  1  0
 18 28  1  0
 18 29  1  0
 19 30  1  0
 20 31  1  0
 21 32  1  0
 21 33  1  0
 21 34  1  0
 22 35  1  0
 22 36  1  0
 22 37  1  0
M  ISO  8  23  14  24   9  25  14  26  14  27   3  28   8  29   8  30   5
M  ISO  7  31   8  32   8  33   8  34   8  35   8  36   8  37   8
M  END
>  <minimizedAffinity>  (1) 
-5.69642639

>  <minimizedRMSD>  (1) 
0.344262719

$$$$
