
     RDKit          3D

 35 37  0  0  0  0  0  0  0  0999 V2000
   46.7440   34.3080   41.4290 N   0  0  0  0  0  0  0  0  0  0  0  0
   46.2600   33.5660   40.4170 C   0  0  0  0  0  0  0  0  0  0  0  0
   46.8830   33.4860   39.1870 C   0  0  0  0  0  0  0  0  0  0  0  0
   48.0320   34.2210   39.0750 C   0  0  0  0  0  0  0  0  0  0  0  0
   48.6560   34.1880   37.9590 O   0  0  0  0  0  0  0  0  0  0  0  0
   48.5470   34.9750   40.0620 N   0  0  0  0  0  0  0  0  0  0  0  0
   47.8930   35.0170   41.2510 C   0  0  0  0  0  0  0  0  0  0  0  0
   48.4250   35.7390   42.1340 O   0  0  0  0  0  0  0  0  0  0  0  0
   44.7030   35.7160   44.1540 C   0  0  0  0  0  0  0  0  0  0  0  0
   45.2770   35.5330   42.8590 C   0  0  0  0  0  0  0  0  0  0  0  0
   46.1970   34.4620   42.7130 C   0  0  0  0  0  0  0  0  0  0  0  0
   46.4530   33.7120   43.7950 N   0  0  0  0  0  0  0  0  0  0  0  0
   45.9000   33.9100   44.9870 C   0  0  0  0  0  0  0  0  0  0  0  0
   45.0240   34.9100   45.1780 N   0  0  0  0  0  0  0  0  0  0  0  0
   46.2370   33.0470   46.1070 C   0  0  0  0  0  0  0  0  0  0  0  0
   45.7640   31.8770   46.1920 O   0  0  0  0  0  0  0  0  0  0  0  0
   47.0680   33.4180   47.1330 O   0  0  0  0  0  0  0  0  0  0  0  0
   46.3120   32.6590   38.1150 C   0  0  0  0  0  0  0  0  0  0  0  0
   46.1690   33.4550   36.9190 N   0  0  0  0  0  0  0  0  0  0  0  0
   46.5590   32.7410   35.7260 C   0  0  0  0  0  0  0  0  0  0  0  0
   46.1750   31.3320   35.5180 C   0  0  0  0  0  0  0  0  0  0  0  0
   45.3660   32.3690   34.8340 C   0  0  0  0  0  0  0  0  0  0  0  0
   45.3302   32.9999   40.5754 H   0  0  0  0  0  0  0  0  0  0  0  0
   49.4168   35.5079   39.9194 H   0  0  0  0  0  0  0  0  0  0  0  0
   43.9843   36.5330   44.3151 H   0  0  0  0  0  0  0  0  0  0  0  0
   45.0186   36.1902   42.0156 H   0  0  0  0  0  0  0  0  0  0  0  0
   47.2594   32.7840   47.8689 H   0  0  0  0  0  0  0  0  0  0  0  0
   46.9799   31.8088   37.9122 H   0  0  0  0  0  0  0  0  0  0  0  0
   45.3260   32.2838   38.4264 H   0  0  0  0  0  0  0  0  0  0  0  0
   45.1828   33.7373   36.8268 H   0  0  0  0  0  0  0  0  0  0  0  0
   47.5254   33.2607   35.6490 H   0  0  0  0  0  0  0  0  0  0  0  0
   46.8269   30.6736   34.9252 H   0  0  0  0  0  0  0  0  0  0  0  0
   45.9329   30.4997   36.1952 H   0  0  0  0  0  0  0  0  0  0  0  0
   45.4305   32.4917   33.7428 H   0  0  0  0  0  0  0  0  0  0  0  0
   44.2996   32.6359   34.7951 H   0  0  0  0  0  0  0  0  0  0  0  0
  1 11  1  0
  2  1  1  0
  3  2  2  0
  4  3  1  0
  4  6  1  0
  5  4  2  0
  6  7  1  0
  7  1  1  0
  7  8  2  0
  9 14  2  0
 10  9  1  0
 11 10  2  0
 11 12  1  0
 12 13  2  0
 13 14  1  0
 13 15  1  0
 15 16  2  0
 15 17  1  0
 18  3  1  0
 19 18  1  0
 20 19  1  0
 21 20  1  0
 22 21  1  0
 22 20  1  0
  2 23  1  0
  6 24  1  0
  9 25  1  0
 10 26  1  0
 17 27  1  0
 18 28  1  0
 18 29  1  0
 19 30  1  0
 20 31  1  0
 21 32  1  0
 21 33  1  0
 22 34  1  0
 22 35  1  0
M  ISO  8  23  14  24   9  25  14  26  14  27   3  28   8  29   8  30   5
M  ISO  5  31  13  32  13  33  13  34  13  35  13
M  END
>  <minimizedAffinity>  (1) 
-5.62287664

>  <minimizedRMSD>  (1) 
0.513453543

$$$$
