
     RDKit          3D

 31 32  0  0  0  0  0  0  0  0999 V2000
   46.6950   34.2740   41.3980 N   0  0  0  0  0  0  0  0  0  0  0  0
   46.1760   33.5480   40.3970 C   0  0  0  0  0  0  0  0  0  0  0  0
   46.7640   33.4390   39.1560 C   0  0  0  0  0  0  0  0  0  0  0  0
   47.9460   34.1440   39.0200 C   0  0  0  0  0  0  0  0  0  0  0  0
   48.5570   34.0970   37.8990 O   0  0  0  0  0  0  0  0  0  0  0  0
   48.4900   34.8800   40.0060 N   0  0  0  0  0  0  0  0  0  0  0  0
   47.8590   34.9460   41.2040 C   0  0  0  0  0  0  0  0  0  0  0  0
   48.4260   35.6510   42.0720 O   0  0  0  0  0  0  0  0  0  0  0  0
   44.7330   35.7330   44.1540 C   0  0  0  0  0  0  0  0  0  0  0  0
   45.2840   35.5290   42.8540 C   0  0  0  0  0  0  0  0  0  0  0  0
   46.1730   34.4450   42.6860 C   0  0  0  0  0  0  0  0  0  0  0  0
   46.4290   33.6910   43.7640 N   0  0  0  0  0  0  0  0  0  0  0  0
   45.9010   33.9050   44.9610 C   0  0  0  0  0  0  0  0  0  0  0  0
   45.0570   34.9130   45.1750 N   0  0  0  0  0  0  0  0  0  0  0  0
   46.2390   33.0300   46.0760 C   0  0  0  0  0  0  0  0  0  0  0  0
   45.8050   31.8410   46.1380 O   0  0  0  0  0  0  0  0  0  0  0  0
   47.0400   33.4210   47.1270 O   0  0  0  0  0  0  0  0  0  0  0  0
   46.1800   32.6390   38.0760 C   0  0  0  0  0  0  0  0  0  0  0  0
   46.0200   33.4660   36.8920 N   0  0  0  0  0  0  0  0  0  0  0  0
   46.1180   32.5910   35.7360 C   0  0  0  0  0  0  0  0  0  0  0  0
   47.3890   32.6510   35.2070 F   0  0  0  0  0  0  0  0  0  0  0  0
   45.8250   31.3080   36.1660 F   0  0  0  0  0  0  0  0  0  0  0  0
   45.2420   32.8820   34.7360 F   0  0  0  0  0  0  0  0  0  0  0  0
   45.2323   33.0120   40.5761 H   0  0  0  0  0  0  0  0  0  0  0  0
   49.3737   35.3864   39.8528 H   0  0  0  0  0  0  0  0  0  0  0  0
   44.0370   36.5673   44.3256 H   0  0  0  0  0  0  0  0  0  0  0  0
   45.0260   36.1911   42.0143 H   0  0  0  0  0  0  0  0  0  0  0  0
   47.2390   32.7865   47.8604 H   0  0  0  0  0  0  0  0  0  0  0  0
   46.8448   31.7935   37.8455 H   0  0  0  0  0  0  0  0  0  0  0  0
   45.1978   32.2579   38.3922 H   0  0  0  0  0  0  0  0  0  0  0  0
   45.0997   33.9283   36.9069 H   0  0  0  0  0  0  0  0  0  0  0  0
  1 11  1  0
  2  1  1  0
  3  2  2  0
  4  3  1  0
  4  6  1  0
  5  4  2  0
  6  7  1  0
  7  1  1  0
  7  8  2  0
  9 14  2  0
 10  9  1  0
 11 10  2  0
 11 12  1  0
 12 13  2  0
 13 14  1  0
 13 15  1  0
 15 16  2  0
 15 17  1  0
 18  3  1  0
 19 18  1  0
 20 22  1  0
 20 19  1  0
 21 20  1  0
 23 20  1  0
  2 24  1  0
  6 25  1  0
  9 26  1  0
 10 27  1  0
 17 28  1  0
 18 29  1  0
 18 30  1  0
 19 31  1  0
M  ISO  8  24  14  25   9  26  14  27  14  28   3  29   8  30   8  31   5
M  END
>  <minimizedAffinity>  (1) 
-5.89108801

>  <minimizedRMSD>  (1) 
0.533177078

$$$$
