
     RDKit          3D

 34 35  0  0  0  0  0  0  0  0999 V2000
   46.8500   33.8440   41.4360 N   0  0  0  0  0  0  0  0  0  0  0  0
   46.5480   32.8650   40.5870 C   0  0  0  0  0  0  0  0  0  0  0  0
   47.1680   32.7200   39.3410 C   0  0  0  0  0  0  0  0  0  0  0  0
   48.1100   33.6530   39.0580 C   0  0  0  0  0  0  0  0  0  0  0  0
   48.6960   33.5630   37.9490 O   0  0  0  0  0  0  0  0  0  0  0  0
   48.4250   34.6410   39.9000 N   0  0  0  0  0  0  0  0  0  0  0  0
   47.8020   34.7470   41.0910 C   0  0  0  0  0  0  0  0  0  0  0  0
   48.1690   35.7110   41.8060 O   0  0  0  0  0  0  0  0  0  0  0  0
   44.7860   35.4760   44.0260 C   0  0  0  0  0  0  0  0  0  0  0  0
   45.3780   35.1840   42.7670 C   0  0  0  0  0  0  0  0  0  0  0  0
   46.2940   34.0970   42.6960 C   0  0  0  0  0  0  0  0  0  0  0  0
   46.5330   33.4270   43.8230 N   0  0  0  0  0  0  0  0  0  0  0  0
   45.9620   33.7270   44.9860 C   0  0  0  0  0  0  0  0  0  0  0  0
   45.0990   34.7320   45.1100 N   0  0  0  0  0  0  0  0  0  0  0  0
   46.2890   32.9350   46.1690 C   0  0  0  0  0  0  0  0  0  0  0  0
   45.8430   31.7730   46.3400 O   0  0  0  0  0  0  0  0  0  0  0  0
   47.1110   33.4110   47.1790 O   0  0  0  0  0  0  0  0  0  0  0  0
   46.6560   31.6320   38.4400 C   0  0  0  0  0  0  0  0  0  0  0  0
   46.3600   32.1630   37.1640 N   0  0  0  0  0  0  0  0  0  0  0  0
   45.6570   32.7970   36.0910 C   0  0  0  0  0  0  0  0  0  0  0  0
   45.3440   32.7770   34.8490 O   0  0  0  0  0  0  0  0  0  0  0  0
   46.9790   31.3060   36.1290 C   0  0  0  0  0  0  0  0  0  0  0  0
   47.6490   32.0030   35.2110 F   0  0  0  0  0  0  0  0  0  0  0  0
   47.8460   30.4320   36.8240 F   0  0  0  0  0  0  0  0  0  0  0  0
   46.1000   30.4610   35.5250 F   0  0  0  0  0  0  0  0  0  0  0  0
   45.0840   33.9120   36.7350 O   0  0  0  0  0  0  0  0  0  0  0  0
   45.7763   32.1370   40.8777 H   0  0  0  0  0  0  0  0  0  0  0  0
   49.1482   35.3260   39.6378 H   0  0  0  0  0  0  0  0  0  0  0  0
   44.0726   36.3082   44.1180 H   0  0  0  0  0  0  0  0  0  0  0  0
   45.1355   35.7800   41.8748 H   0  0  0  0  0  0  0  0  0  0  0  0
   47.3087   32.8429   47.9653 H   0  0  0  0  0  0  0  0  0  0  0  0
   47.4230   30.8499   38.3405 H   0  0  0  0  0  0  0  0  0  0  0  0
   45.7411   31.2028   38.8745 H   0  0  0  0  0  0  0  0  0  0  0  0
   44.5261   34.5480   36.2208 H   0  0  0  0  0  0  0  0  0  0  0  0
  1 11  1  0
  2  1  1  0
  3  2  2  0
  4  3  1  0
  4  6  1  0
  5  4  2  0
  6  7  1  0
  7  1  1  0
  7  8  2  0
  9 14  2  0
 10  9  1  0
 11 10  2  0
 11 12  1  0
 12 13  2  0
 13 14  1  0
 13 15  1  0
 15 16  2  0
 15 17  1  0
 18  3  1  0
 19 18  1  0
 20 26  1  0
 20 19  1  0
 21 20  2  0
 22 24  1  0
 22 19  1  0
 23 22  1  0
 25 22  1  0
  2 27  1  0
  6 28  1  0
  9 29  1  0
 10 30  1  0
 17 31  1  0
 18 32  1  0
 18 33  1  0
 26 34  1  0
M  ISO  8  27  14  28   9  29  14  30  14  31   3  32   8  33   8  34   3
M  END
>  <minimizedAffinity>  (1) 
-5.94337082

>  <minimizedRMSD>  (1) 
1.10676837

$$$$
