
     RDKit          3D

 47 49  0  0  0  0  0  0  0  0999 V2000
   46.7670   34.1330   41.4890 N   0  0  0  0  0  0  0  0  0  0  0  0
   46.3540   33.2650   40.5600 C   0  0  0  0  0  0  0  0  0  0  0  0
   46.9360   33.1090   39.3340 C   0  0  0  0  0  0  0  0  0  0  0  0
   48.0260   33.9570   39.1260 C   0  0  0  0  0  0  0  0  0  0  0  0
   48.6640   33.9080   38.0030 O   0  0  0  0  0  0  0  0  0  0  0  0
   48.4810   34.8530   40.0360 N   0  0  0  0  0  0  0  0  0  0  0  0
   47.8270   34.9280   41.2330 C   0  0  0  0  0  0  0  0  0  0  0  0
   48.2900   35.7730   42.0380 O   0  0  0  0  0  0  0  0  0  0  0  0
   44.7420   35.6290   44.1700 C   0  0  0  0  0  0  0  0  0  0  0  0
   45.3170   35.4000   42.8830 C   0  0  0  0  0  0  0  0  0  0  0  0
   46.2180   34.3340   42.7580 C   0  0  0  0  0  0  0  0  0  0  0  0
   46.4700   33.6100   43.8680 N   0  0  0  0  0  0  0  0  0  0  0  0
   45.9200   33.8500   45.0490 C   0  0  0  0  0  0  0  0  0  0  0  0
   45.0570   34.8490   45.2160 N   0  0  0  0  0  0  0  0  0  0  0  0
   46.2500   33.0140   46.1970 C   0  0  0  0  0  0  0  0  0  0  0  0
   45.7430   31.8610   46.3360 O   0  0  0  0  0  0  0  0  0  0  0  0
   47.1150   33.4030   47.1920 O   0  0  0  0  0  0  0  0  0  0  0  0
   46.5310   32.1670   38.3110 C   0  0  0  0  0  0  0  0  0  0  0  0
   45.6480   32.8380   37.3370 N   0  0  0  0  0  0  0  0  0  0  0  0
   44.2670   32.5250   37.6740 C   0  0  0  0  0  0  0  0  0  0  0  0
   43.5310   33.6390   38.3370 C   0  0  0  0  0  0  0  0  0  0  0  0
   42.2010   33.0330   38.8120 C   0  0  0  0  0  0  0  0  0  0  0  0
   42.6350   32.2270   40.0320 C   0  0  0  0  0  0  0  0  0  0  0  0
   43.5350   31.0880   39.6500 C   0  0  0  0  0  0  0  0  0  0  0  0
   44.1880   31.2080   38.3200 C   0  0  0  0  0  0  0  0  0  0  0  0
   46.0770   32.4980   36.0270 C   0  0  0  0  0  0  0  0  0  0  0  0
   47.3210   33.0710   35.7360 F   0  0  0  0  0  0  0  0  0  0  0  0
   46.2860   31.1040   36.0320 F   0  0  0  0  0  0  0  0  0  0  0  0
   45.2480   32.7320   35.0120 F   0  0  0  0  0  0  0  0  0  0  0  0
   45.4860   32.6330   40.7992 H   0  0  0  0  0  0  0  0  0  0  0  0
   49.2910   35.4557   39.8321 H   0  0  0  0  0  0  0  0  0  0  0  0
   44.0305   36.4568   44.3061 H   0  0  0  0  0  0  0  0  0  0  0  0
   45.0623   36.0362   42.0225 H   0  0  0  0  0  0  0  0  0  0  0  0
   47.3035   32.7946   47.9499 H   0  0  0  0  0  0  0  0  0  0  0  0
   47.4227   31.7844   37.7929 H   0  0  0  0  0  0  0  0  0  0  0  0
   45.9886   31.3323   38.7791 H   0  0  0  0  0  0  0  0  0  0  0  0
   43.6932   32.4309   36.7403 H   0  0  0  0  0  0  0  0  0  0  0  0
   44.1054   34.0224   39.1932 H   0  0  0  0  0  0  0  0  0  0  0  0
   43.3706   34.4845   37.6519 H   0  0  0  0  0  0  0  0  0  0  0  0
   41.4805   33.8173   39.0872 H   0  0  0  0  0  0  0  0  0  0  0  0
   41.6886   32.4338   38.0450 H   0  0  0  0  0  0  0  0  0  0  0  0
   43.1732   32.8903   40.7251 H   0  0  0  0  0  0  0  0  0  0  0  0
   41.7347   31.8099   40.5069 H   0  0  0  0  0  0  0  0  0  0  0  0
   44.3261   31.0111   40.4105 H   0  0  0  0  0  0  0  0  0  0  0  0
   42.8896   30.1992   39.5910 H   0  0  0  0  0  0  0  0  0  0  0  0
   43.6407   30.5459   37.6329 H   0  0  0  0  0  0  0  0  0  0  0  0
   45.2389   30.9535   38.5219 H   0  0  0  0  0  0  0  0  0  0  0  0
  1 11  1  0
  2  1  1  0
  3  2  2  0
  4  3  1  0
  4  6  1  0
  5  4  2  0
  6  7  1  0
  7  1  1  0
  7  8  2  0
  9 14  2  0
 10  9  1  0
 11 10  2  0
 11 12  1  0
 12 13  2  0
 13 14  1  0
 13 15  1  0
 15 16  2  0
 15 17  1  0
 18  3  1  0
 19 20  1  0
 19 18  1  0
 20 25  1  0
 20 21  1  0
 21 22  1  0
 22 23  1  0
 24 23  1  0
 25 24  1  0
 26 28  1  0
 26 19  1  0
 27 26  1  0
 29 26  1  0
  2 30  1  0
  6 31  1  0
  9 32  1  0
 10 33  1  0
 17 34  1  0
 18 35  1  0
 18 36  1  0
 20 37  1  0
 21 38  1  0
 21 39  1  0
 22 40  1  0
 22 41  1  0
 23 42  1  0
 23 43  1  0
 24 44  1  0
 24 45  1  0
 25 46  1  0
 25 47  1  0
M  ISO  8  30  14  31   9  32  14  33  14  34   3  35   8  36   8  37  13
M  ISO  8  38  13  39  13  40  13  41  13  42  13  43  13  44  13  45  13
M  ISO  2  46  13  47  13
M  END
>  <minimizedAffinity>  (1) 
-5.91722441

>  <minimizedRMSD>  (1) 
1.60470307

$$$$
