
     RDKit          3D

 40 42  0  0  0  0  0  0  0  0999 V2000
   46.7970   33.9040   41.5800 N   0  0  0  0  0  0  0  0  0  0  0  0
   46.4240   32.9480   40.7080 C   0  0  0  0  0  0  0  0  0  0  0  0
   47.0420   32.7820   39.4730 C   0  0  0  0  0  0  0  0  0  0  0  0
   48.0570   33.6600   39.2110 C   0  0  0  0  0  0  0  0  0  0  0  0
   48.6550   33.5560   38.1050 O   0  0  0  0  0  0  0  0  0  0  0  0
   48.4330   34.6140   40.0730 N   0  0  0  0  0  0  0  0  0  0  0  0
   47.8060   34.7400   41.2610 C   0  0  0  0  0  0  0  0  0  0  0  0
   48.2200   35.6540   42.0030 O   0  0  0  0  0  0  0  0  0  0  0  0
   44.7550   35.5160   44.1830 C   0  0  0  0  0  0  0  0  0  0  0  0
   45.3380   35.2310   42.9170 C   0  0  0  0  0  0  0  0  0  0  0  0
   46.2430   34.1540   42.8400 C   0  0  0  0  0  0  0  0  0  0  0  0
   46.4690   33.4960   43.9750 N   0  0  0  0  0  0  0  0  0  0  0  0
   45.9230   33.7690   45.1420 C   0  0  0  0  0  0  0  0  0  0  0  0
   45.0660   34.7690   45.2700 N   0  0  0  0  0  0  0  0  0  0  0  0
   46.2530   32.9670   46.3250 C   0  0  0  0  0  0  0  0  0  0  0  0
   45.7100   31.8570   46.5520 O   0  0  0  0  0  0  0  0  0  0  0  0
   47.1810   33.3800   47.2610 O   0  0  0  0  0  0  0  0  0  0  0  0
   46.5730   31.7190   38.5510 C   0  0  0  0  0  0  0  0  0  0  0  0
   45.4090   32.1640   37.8580 N   0  0  0  0  0  0  0  0  0  0  0  0
   44.0100   32.3050   38.0140 C   0  0  0  0  0  0  0  0  0  0  0  0
   43.7150   33.6220   38.3910 C   0  0  0  0  0  0  0  0  0  0  0  0
   42.4080   34.0390   38.6130 C   0  0  0  0  0  0  0  0  0  0  0  0
   41.4200   33.0930   38.4440 C   0  0  0  0  0  0  0  0  0  0  0  0
   41.7190   31.7990   38.0730 C   0  0  0  0  0  0  0  0  0  0  0  0
   42.9960   31.4350   37.8670 N   0  0  0  0  0  0  0  0  0  0  0  0
   45.8100   32.5770   36.5120 C   0  0  0  0  0  0  0  0  0  0  0  0
   46.0080   33.9160   36.4970 F   0  0  0  0  0  0  0  0  0  0  0  0
   46.8980   31.8240   36.1640 F   0  0  0  0  0  0  0  0  0  0  0  0
   44.8320   32.3160   35.5690 F   0  0  0  0  0  0  0  0  0  0  0  0
   45.5998   32.2732   40.9826 H   0  0  0  0  0  0  0  0  0  0  0  0
   49.2028   35.2530   39.8282 H   0  0  0  0  0  0  0  0  0  0  0  0
   44.0451   36.3506   44.2804 H   0  0  0  0  0  0  0  0  0  0  0  0
   45.0907   35.8309   42.0288 H   0  0  0  0  0  0  0  0  0  0  0  0
   47.3777   32.8115   48.0473 H   0  0  0  0  0  0  0  0  0  0  0  0
   47.3660   31.4892   37.8241 H   0  0  0  0  0  0  0  0  0  0  0  0
   46.3298   30.8157   39.1297 H   0  0  0  0  0  0  0  0  0  0  0  0
   44.5370   34.3425   38.5141 H   0  0  0  0  0  0  0  0  0  0  0  0
   42.1738   35.0723   38.9088 H   0  0  0  0  0  0  0  0  0  0  0  0
   40.3700   33.3764   38.6087 H   0  0  0  0  0  0  0  0  0  0  0  0
   40.9109   31.0636   37.9455 H   0  0  0  0  0  0  0  0  0  0  0  0
  1 11  1  0
  2  1  1  0
  3  2  2  0
  4  3  1  0
  4  6  1  0
  5  4  2  0
  6  7  1  0
  7  1  1  0
  7  8  2  0
  9 14  2  0
 10  9  1  0
 11 10  2  0
 11 12  1  0
 12 13  2  0
 13 14  1  0
 13 15  1  0
 15 16  2  0
 15 17  1  0
 18  3  1  0
 19 20  1  0
 19 18  1  0
 20 21  2  0
 21 22  1  0
 23 22  2  0
 24 23  1  0
 25 20  1  0
 25 24  2  0
 26 19  1  0
 27 26  1  0
 28 26  1  0
 29 26  1  0
  2 30  1  0
  6 31  1  0
  9 32  1  0
 10 33  1  0
 17 34  1  0
 18 35  1  0
 18 36  1  0
 21 37  1  0
 22 38  1  0
 23 39  1  0
 24 40  1  0
M  ISO  8  30  14  31   9  32  14  33  14  34   3  35   8  36   8  37  14
M  ISO  3  38  14  39  14  40  14
M  END
>  <minimizedAffinity>  (1) 
-5.85993814

>  <minimizedRMSD>  (1) 
2.51236916

$$$$
