
     RDKit          3D

 41 43  0  0  1  0  0  0  0  0999 V2000
   46.8260   34.3460   41.2010 N   0  0  0  0  0  0  0  0  0  0  0  0
   46.2740   33.7580   40.1310 C   0  0  0  0  0  0  0  0  0  0  0  0
   46.8600   33.7090   38.9010 C   0  0  0  0  0  0  0  0  0  0  0  0
   48.1080   34.3350   38.8490 C   0  0  0  0  0  0  0  0  0  0  0  0
   48.7650   34.3560   37.7380 O   0  0  0  0  0  0  0  0  0  0  0  0
   48.7010   34.9410   39.9090 N   0  0  0  0  0  0  0  0  0  0  0  0
   48.0430   34.9400   41.0970 C   0  0  0  0  0  0  0  0  0  0  0  0
   48.6350   35.5120   42.0390 O   0  0  0  0  0  0  0  0  0  0  0  0
   44.7500   35.5950   43.9820 C   0  0  0  0  0  0  0  0  0  0  0  0
   45.3300   35.4680   42.6830 C   0  0  0  0  0  0  0  0  0  0  0  0
   46.2840   34.4340   42.4900 C   0  0  0  0  0  0  0  0  0  0  0  0
   46.5580   33.6630   43.5420 N   0  0  0  0  0  0  0  0  0  0  0  0
   46.0060   33.7990   44.7390 C   0  0  0  0  0  0  0  0  0  0  0  0
   45.1040   34.7560   44.9760 N   0  0  0  0  0  0  0  0  0  0  0  0
   46.3730   32.9070   45.8230 C   0  0  0  0  0  0  0  0  0  0  0  0
   46.0480   31.6850   45.8030 O   0  0  0  0  0  0  0  0  0  0  0  0
   47.0840   33.3080   46.9330 O   0  0  0  0  0  0  0  0  0  0  0  0
   46.3100   33.0740   37.7260 C   0  0  0  0  0  0  0  0  0  0  0  0
   46.7360   31.6740   37.6430 N   0  0  0  0  0  0  0  0  0  0  0  0
   47.2420   32.6570   35.5730 N   0  0  0  0  0  0  0  0  0  0  0  0
   48.5140   32.6790   34.9340 C   0  0  0  0  0  0  0  0  0  0  0  0
   49.2010   31.3570   35.1580 C   0  0  0  0  0  0  0  0  0  0  0  0
   48.2660   30.5610   36.0220 C   0  0  0  0  0  0  0  0  0  0  0  0
   47.0710   31.3960   36.2650 C   0  0  1  0  0  0  0  0  0  0  0  0
   45.6300   30.8420   38.0040 C   0  0  0  0  0  0  0  0  0  0  0  0
   45.6730   30.4660   39.3460 F   0  0  0  0  0  0  0  0  0  0  0  0
   44.4800   31.6420   37.8470 F   0  0  0  0  0  0  0  0  0  0  0  0
   45.4260   29.7590   37.2480 F   0  0  0  0  0  0  0  0  0  0  0  0
   45.2879   33.2860   40.2524 H   0  0  0  0  0  0  0  0  0  0  0  0
   49.6238   35.3889   39.8150 H   0  0  0  0  0  0  0  0  0  0  0  0
   44.0080   36.3843   44.1730 H   0  0  0  0  0  0  0  0  0  0  0  0
   45.0484   36.1453   41.8633 H   0  0  0  0  0  0  0  0  0  0  0  0
   47.3058   32.6534   47.6418 H   0  0  0  0  0  0  0  0  0  0  0  0
   45.2118   33.1144   37.7749 H   0  0  0  0  0  0  0  0  0  0  0  0
   46.6736   33.6065   36.8348 H   0  0  0  0  0  0  0  0  0  0  0  0
   46.5503   33.4198   35.5472 H   0  0  0  0  0  0  0  0  0  0  0  0
   48.9288   33.5257   34.3674 H   0  0  0  0  0  0  0  0  0  0  0  0
   50.1809   31.0415   34.7703 H   0  0  0  0  0  0  0  0  0  0  0  0
   47.9777   29.6323   35.5079 H   0  0  0  0  0  0  0  0  0  0  0  0
   48.7503   30.2898   36.9717 H   0  0  0  0  0  0  0  0  0  0  0  0
   46.2309   30.7939   35.8885 H   0  0  0  0  0  0  0  0  0  0  0  0
  1 11  1  0
  2  1  1  0
  3  2  2  0
  4  3  1  0
  4  6  1  0
  5  4  2  0
  6  7  1  0
  7  1  1  0
  7  8  2  0
  9 14  2  0
 10  9  1  0
 11 10  2  0
 11 12  1  0
 12 13  2  0
 13 14  1  0
 13 15  1  0
 15 17  1  0
 16 15  2  0
 18  3  1  0
 19 18  1  0
 19 25  1  0
 20 24  1  0
 21 22  2  0
 21 20  1  0
 22 23  1  0
 23 24  1  0
 24 19  1  0
 25 26  1  0
 27 25  1  0
 28 25  1  0
  2 29  1  0
  6 30  1  0
  9 31  1  0
 10 32  1  0
 17 33  1  0
 18 34  1  0
 18 35  1  0
 20 36  1  0
 21 37  1  0
 22 38  1  0
 23 39  1  0
 23 40  1  0
 24 41  1  6
M  ISO  8  29  14  30   9  31  14  32  14  33   3  34   8  35   8  37  13
M  ISO  4  38  13  39  13  40  13  41  13
M  END
>  <minimizedAffinity>  (1) 
-5.81961346

>  <minimizedRMSD>  (1) 
2.71086979

$$$$
