
     RDKit          3D

 34 35  0  0  0  0  0  0  0  0999 V2000
   46.7740   34.1780   41.4590 N   0  0  0  0  0  0  0  0  0  0  0  0
   46.3530   33.3490   40.5070 C   0  0  0  0  0  0  0  0  0  0  0  0
   46.9340   33.2190   39.2780 C   0  0  0  0  0  0  0  0  0  0  0  0
   48.0400   34.0520   39.0930 C   0  0  0  0  0  0  0  0  0  0  0  0
   48.6790   34.0250   37.9720 O   0  0  0  0  0  0  0  0  0  0  0  0
   48.5020   34.9100   40.0360 N   0  0  0  0  0  0  0  0  0  0  0  0
   47.8550   34.9670   41.2300 C   0  0  0  0  0  0  0  0  0  0  0  0
   48.3330   35.7780   42.0580 O   0  0  0  0  0  0  0  0  0  0  0  0
   44.7440   35.6130   44.1700 C   0  0  0  0  0  0  0  0  0  0  0  0
   45.3140   35.4100   42.8740 C   0  0  0  0  0  0  0  0  0  0  0  0
   46.2270   34.3580   42.7350 C   0  0  0  0  0  0  0  0  0  0  0  0
   46.4920   33.6210   43.8350 N   0  0  0  0  0  0  0  0  0  0  0  0
   45.9490   33.8320   45.0240 C   0  0  0  0  0  0  0  0  0  0  0  0
   45.0770   34.8180   45.2070 N   0  0  0  0  0  0  0  0  0  0  0  0
   46.2920   32.9880   46.1550 C   0  0  0  0  0  0  0  0  0  0  0  0
   45.8430   31.8050   46.2500 O   0  0  0  0  0  0  0  0  0  0  0  0
   47.1100   33.3950   47.1850 O   0  0  0  0  0  0  0  0  0  0  0  0
   46.5220   32.3040   38.2340 C   0  0  0  0  0  0  0  0  0  0  0  0
   45.6760   33.0170   37.2580 N   0  0  0  0  0  0  0  0  0  0  0  0
   45.9420   32.4770   35.9640 C   0  0  0  0  0  0  0  0  0  0  0  0
   47.2770   32.6850   35.5990 F   0  0  0  0  0  0  0  0  0  0  0  0
   45.7750   31.0820   36.0720 F   0  0  0  0  0  0  0  0  0  0  0  0
   45.1490   32.8610   34.9620 F   0  0  0  0  0  0  0  0  0  0  0  0
   44.2910   32.9230   37.6830 C   0  0  0  0  0  0  0  0  0  0  0  0
   45.4746   32.7240   40.7255 H   0  0  0  0  0  0  0  0  0  0  0  0
   49.3231   35.5040   39.8520 H   0  0  0  0  0  0  0  0  0  0  0  0
   44.0233   36.4298   44.3231 H   0  0  0  0  0  0  0  0  0  0  0  0
   45.0463   36.0532   42.0227 H   0  0  0  0  0  0  0  0  0  0  0  0
   47.3103   32.7768   47.9319 H   0  0  0  0  0  0  0  0  0  0  0  0
   47.4116   31.9047   37.7249 H   0  0  0  0  0  0  0  0  0  0  0  0
   45.9498   31.4761   38.6781 H   0  0  0  0  0  0  0  0  0  0  0  0
   44.2441   32.9198   38.7820 H   0  0  0  0  0  0  0  0  0  0  0  0
   43.7289   33.7851   37.2945 H   0  0  0  0  0  0  0  0  0  0  0  0
   43.8506   31.9929   37.2945 H   0  0  0  0  0  0  0  0  0  0  0  0
  1 11  1  0
  2  1  1  0
  3  2  2  0
  4  3  1  0
  4  6  1  0
  5  4  2  0
  6  7  1  0
  7  1  1  0
  7  8  2  0
  9 14  2  0
 10  9  1  0
 11 10  2  0
 11 12  1  0
 12 13  2  0
 13 14  1  0
 13 15  1  0
 15 16  2  0
 15 17  1  0
 18  3  1  0
 19 24  1  0
 19 18  1  0
 20 22  1  0
 20 19  1  0
 21 20  1  0
 23 20  1  0
  2 25  1  0
  6 26  1  0
  9 27  1  0
 10 28  1  0
 17 29  1  0
 18 30  1  0
 18 31  1  0
 24 32  1  0
 24 33  1  0
 24 34  1  0
M  ISO  8  25  14  26   9  27  14  28  14  29   3  30   8  31   8  32   8
M  ISO  2  33   8  34   8
M  END
>  <minimizedAffinity>  (1) 
-5.71363592

>  <minimizedRMSD>  (1) 
0.39544946

$$$$
