
     RDKit          3D

 38 40  0  0  0  0  0  0  0  0999 V2000
   46.2950   33.8810   41.8310 N   0  0  0  0  0  0  0  0  0  0  0  0
   45.8190   32.9700   40.9850 C   0  0  0  0  0  0  0  0  0  0  0  0
   46.3200   32.7910   39.7000 C   0  0  0  0  0  0  0  0  0  0  0  0
   47.3480   33.6250   39.3590 C   0  0  0  0  0  0  0  0  0  0  0  0
   47.8430   33.5070   38.2030 O   0  0  0  0  0  0  0  0  0  0  0  0
   47.8450   34.5480   40.1890 N   0  0  0  0  0  0  0  0  0  0  0  0
   47.3210   34.6830   41.4330 C   0  0  0  0  0  0  0  0  0  0  0  0
   47.8500   35.5760   42.1400 O   0  0  0  0  0  0  0  0  0  0  0  0
   44.5580   35.5810   44.6000 C   0  0  0  0  0  0  0  0  0  0  0  0
   45.0070   35.2710   43.2820 C   0  0  0  0  0  0  0  0  0  0  0  0
   45.8750   34.1540   43.1380 C   0  0  0  0  0  0  0  0  0  0  0  0
   46.2040   33.4790   44.2460 N   0  0  0  0  0  0  0  0  0  0  0  0
   45.7670   33.7960   45.4560 C   0  0  0  0  0  0  0  0  0  0  0  0
   44.9560   34.8260   45.6570 N   0  0  0  0  0  0  0  0  0  0  0  0
   46.1810   32.9980   46.6070 C   0  0  0  0  0  0  0  0  0  0  0  0
   45.5540   31.9460   46.9420 O   0  0  0  0  0  0  0  0  0  0  0  0
   47.2600   33.3190   47.3980 O   0  0  0  0  0  0  0  0  0  0  0  0
   45.7150   31.7670   38.8130 C   0  0  0  0  0  0  0  0  0  0  0  0
   44.6930   32.3610   38.0180 N   0  0  0  0  0  0  0  0  0  0  0  0
   43.4660   32.9820   38.4090 C   0  0  0  0  0  0  0  0  0  0  0  0
   43.0330   34.2240   38.5250 C   0  0  0  0  0  0  0  0  0  0  0  0
   41.7430   34.4370   38.9380 C   0  0  0  0  0  0  0  0  0  0  0  0
   40.9480   33.3830   39.2150 C   0  0  0  0  0  0  0  0  0  0  0  0
   42.0960   31.9720   38.8700 S   0  0  0  0  0  0  0  0  0  0  0  0
   45.0750   32.2250   36.6130 C   0  0  0  0  0  0  0  0  0  0  0  0
   45.2770   33.4540   36.0820 F   0  0  0  0  0  0  0  0  0  0  0  0
   46.1530   31.3870   36.5600 F   0  0  0  0  0  0  0  0  0  0  0  0
   44.0780   31.6330   35.8560 F   0  0  0  0  0  0  0  0  0  0  0  0
   44.9900   32.3283   41.3181 H   0  0  0  0  0  0  0  0  0  0  0  0
   48.6213   35.1531   39.8856 H   0  0  0  0  0  0  0  0  0  0  0  0
   43.8855   36.4364   44.7615 H   0  0  0  0  0  0  0  0  0  0  0  0
   44.6951   35.8705   42.4141 H   0  0  0  0  0  0  0  0  0  0  0  0
   47.4983   32.7435   48.1675 H   0  0  0  0  0  0  0  0  0  0  0  0
   46.4915   31.3479   38.1562 H   0  0  0  0  0  0  0  0  0  0  0  0
   45.2780   30.9662   39.4276 H   0  0  0  0  0  0  0  0  0  0  0  0
   43.6948   35.0719   38.2946 H   0  0  0  0  0  0  0  0  0  0  0  0
   41.3583   35.4622   39.0429 H   0  0  0  0  0  0  0  0  0  0  0  0
   39.9016   33.3664   39.5539 H   0  0  0  0  0  0  0  0  0  0  0  0
  1 11  1  0
  2  1  1  0
  3  2  2  0
  4  3  1  0
  4  6  1  0
  5  4  2  0
  6  7  1  0
  7  1  1  0
  7  8  2  0
  9 14  2  0
 10  9  1  0
 11 10  2  0
 11 12  1  0
 12 13  2  0
 13 14  1  0
 13 15  1  0
 15 16  2  0
 15 17  1  0
 18  3  1  0
 19 20  1  0
 19 18  1  0
 20 21  2  0
 20 24  1  0
 21 22  1  0
 22 23  2  0
 24 23  1  0
 25 19  1  0
 26 25  1  0
 27 25  1  0
 28 25  1  0
  2 29  1  0
  6 30  1  0
  9 31  1  0
 10 32  1  0
 17 33  1  0
 18 34  1  0
 18 35  1  0
 21 36  1  0
 22 37  1  0
 23 38  1  0
M  ISO  8  29  14  30   9  31  14  32  14  33   3  34   8  35   8  36  14
M  ISO  2  37  14  38  14
M  END
>  <minimizedAffinity>  (1) 
-5.6796546

>  <minimizedRMSD>  (1) 
2.2793417

$$$$
