
     RDKit          3D

 26 27  0  0  1  0  0  0  0  0999 V2000
   46.2500   34.0430   41.8980 C   0  0  1  0  0  0  0  0  0  0  0  0
   45.1350   35.8340   43.3200 C   0  0  0  0  0  0  0  0  0  0  0  0
   45.6850   34.5340   43.1550 C   0  0  0  0  0  0  0  0  0  0  0  0
   45.6630   33.7100   44.2760 C   0  0  0  0  0  0  0  0  0  0  0  0
   45.1290   34.1900   45.4320 N   0  0  0  0  0  0  0  0  0  0  0  0
   44.6190   35.4170   45.5520 C   0  0  0  0  0  0  0  0  0  0  0  0
   44.6220   36.2520   44.4840 N   0  0  0  0  0  0  0  0  0  0  0  0
   45.2910   34.2300   40.7710 C   0  0  0  0  0  0  0  0  0  0  0  0
   47.5520   34.7850   41.6400 C   0  0  0  0  0  0  0  0  0  0  0  0
   48.6000   34.5030   42.6570 C   0  0  0  0  0  0  0  0  0  0  0  0
   49.8010   33.7230   42.1320 C   0  0  0  0  0  0  0  0  0  0  0  0
   49.9820   35.1470   42.4580 C   0  0  0  0  0  0  0  0  0  0  0  0
   46.4467   32.9633   41.9731 H   0  0  0  0  0  0  0  0  0  0  0  0
   45.1306   36.5211   42.4610 H   0  0  0  0  0  0  0  0  0  0  0  0
   46.0699   32.6891   44.2286 H   0  0  0  0  0  0  0  0  0  0  0  0
   44.1983   35.7494   46.5125 H   0  0  0  0  0  0  0  0  0  0  0  0
   44.2861   34.4259   41.1733 H   0  0  0  0  0  0  0  0  0  0  0  0
   45.6117   35.0825   40.1543 H   0  0  0  0  0  0  0  0  0  0  0  0
   45.2679   33.3194   40.1543 H   0  0  0  0  0  0  0  0  0  0  0  0
   47.9342   34.4869   40.6525 H   0  0  0  0  0  0  0  0  0  0  0  0
   47.3298   35.8611   41.6902 H   0  0  0  0  0  0  0  0  0  0  0  0
   47.8900   34.4328   43.4942 H   0  0  0  0  0  0  0  0  0  0  0  0
   49.8226   33.3971   41.0816 H   0  0  0  0  0  0  0  0  0  0  0  0
   50.3069   32.7952   42.4374 H   0  0  0  0  0  0  0  0  0  0  0  0
   50.5824   35.4364   43.3331 H   0  0  0  0  0  0  0  0  0  0  0  0
   50.3538   36.0244   41.9085 H   0  0  0  0  0  0  0  0  0  0  0  0
  1  3  1  0
  2  7  2  0
  3  2  1  0
  3  4  2  0
  4  5  1  0
  5  6  2  0
  7  6  1  0
  8  1  1  0
  9  1  1  0
  9 10  1  0
 11 12  1  0
 11 10  1  0
 12 10  1  0
  1 13  1  1
  2 14  1  0
  4 15  1  0
  6 16  1  0
  8 17  1  0
  8 18  1  0
  8 19  1  0
  9 20  1  0
  9 21  1  0
 10 22  1  0
 11 23  1  0
 11 24  1  0
 12 25  1  0
 12 26  1  0
M  ISO  8  13   8  14  14  15  14  16  14  17   8  18   8  19   8  20   8
M  ISO  6  21   8  22  13  23  13  24  13  25  13  26  13
M  END
>  <minimizedAffinity>  (1) 
-4.1169734

>  <minimizedRMSD>  (1) 
0.941737533

$$$$
