
     RDKit          3D

 37 38  0  0  0  0  0  0  0  0999 V2000
   46.8120   34.1060   41.4460 N   0  0  0  0  0  0  0  0  0  0  0  0
   46.4460   33.2240   40.5180 C   0  0  0  0  0  0  0  0  0  0  0  0
   47.0560   33.1000   39.2950 C   0  0  0  0  0  0  0  0  0  0  0  0
   48.1110   33.9880   39.0990 C   0  0  0  0  0  0  0  0  0  0  0  0
   48.7520   33.9590   37.9890 O   0  0  0  0  0  0  0  0  0  0  0  0
   48.5130   34.8950   40.0090 N   0  0  0  0  0  0  0  0  0  0  0  0
   47.8560   34.9560   41.2020 C   0  0  0  0  0  0  0  0  0  0  0  0
   48.2800   35.8200   42.0060 O   0  0  0  0  0  0  0  0  0  0  0  0
   44.7480   35.5550   44.1170 C   0  0  0  0  0  0  0  0  0  0  0  0
   45.3330   35.3410   42.8320 C   0  0  0  0  0  0  0  0  0  0  0  0
   46.2540   34.2950   42.7110 C   0  0  0  0  0  0  0  0  0  0  0  0
   46.5140   33.5750   43.8230 N   0  0  0  0  0  0  0  0  0  0  0  0
   45.9550   33.7970   45.0010 C   0  0  0  0  0  0  0  0  0  0  0  0
   45.0760   34.7760   45.1660 N   0  0  0  0  0  0  0  0  0  0  0  0
   46.2940   32.9700   46.1480 C   0  0  0  0  0  0  0  0  0  0  0  0
   45.8530   31.7870   46.2610 O   0  0  0  0  0  0  0  0  0  0  0  0
   47.1030   33.3990   47.1770 O   0  0  0  0  0  0  0  0  0  0  0  0
   46.6770   32.1370   38.2770 C   0  0  0  0  0  0  0  0  0  0  0  0
   45.6720   32.7420   37.3760 N   0  0  0  0  0  0  0  0  0  0  0  0
   46.0230   32.3690   36.0260 C   0  0  0  0  0  0  0  0  0  0  0  0
   47.2820   32.8200   35.6650 F   0  0  0  0  0  0  0  0  0  0  0  0
   46.0600   30.9630   36.0180 F   0  0  0  0  0  0  0  0  0  0  0  0
   45.1350   32.7150   35.0850 F   0  0  0  0  0  0  0  0  0  0  0  0
   44.1530   31.9200   37.6610 S   0  0  0  0  0  0  0  0  0  0  0  0
   43.5750   31.0990   36.2290 C   0  0  0  0  0  0  0  0  0  0  0  0
   44.4310   30.9100   38.7380 O   0  0  0  0  0  0  0  0  0  0  0  0
   43.1660   32.9240   38.1870 O   0  0  0  0  0  0  0  0  0  0  0  0
   45.6036   32.5542   40.7455 H   0  0  0  0  0  0  0  0  0  0  0  0
   49.2996   35.5289   39.8083 H   0  0  0  0  0  0  0  0  0  0  0  0
   44.0191   36.3676   44.2522 H   0  0  0  0  0  0  0  0  0  0  0  0
   45.0699   35.9736   41.9714 H   0  0  0  0  0  0  0  0  0  0  0  0
   47.3021   32.7943   47.9352 H   0  0  0  0  0  0  0  0  0  0  0  0
   47.5652   31.8496   37.6953 H   0  0  0  0  0  0  0  0  0  0  0  0
   46.2490   31.2448   38.7574 H   0  0  0  0  0  0  0  0  0  0  0  0
   42.9650   30.2325   36.5242 H   0  0  0  0  0  0  0  0  0  0  0  0
   42.9638   31.7911   35.6311 H   0  0  0  0  0  0  0  0  0  0  0  0
   44.4326   30.7570   35.6311 H   0  0  0  0  0  0  0  0  0  0  0  0
  1 11  1  0
  2  1  1  0
  3  2  2  0
  4  3  1  0
  4  6  1  0
  5  4  2  0
  6  7  1  0
  7  1  1  0
  7  8  2  0
  9 14  2  0
 10  9  1  0
 11 10  2  0
 11 12  1  0
 12 13  2  0
 13 14  1  0
 13 15  1  0
 15 16  2  0
 15 17  1  0
 18  3  1  0
 19 24  1  0
 19 18  1  0
 20 19  1  0
 21 20  1  0
 22 20  1  0
 23 20  1  0
 24 27  2  0
 24 26  2  0
 25 24  1  0
  2 28  1  0
  6 29  1  0
  9 30  1  0
 10 31  1  0
 17 32  1  0
 18 33  1  0
 18 34  1  0
 25 35  1  0
 25 36  1  0
 25 37  1  0
M  ISO  8  28  14  29   9  30  14  31  14  32   3  33   8  34   8  35   8
M  ISO  2  36   8  37   8
M  END
>  <minimizedAffinity>  (1) 
-5.57199049

>  <minimizedRMSD>  (1) 
1.06179798

$$$$
