
     RDKit          3D

 30 32  0  0  1  0  0  0  0  0999 V2000
   45.9020   33.4280   41.8790 C   0  0  1  0  0  0  0  0  0  0  0  0
   44.8200   32.9950   40.9760 C   0  0  0  0  0  0  0  0  0  0  0  0
   45.6280   32.5620   39.7570 C   0  0  0  0  0  0  0  0  0  0  0  0
   46.6420   33.6820   39.6430 C   0  0  0  0  0  0  0  0  0  0  0  0
   46.7720   34.3090   41.0040 C   0  0  2  0  0  0  0  0  0  0  0  0
   44.4850   35.9350   44.3400 C   0  0  0  0  0  0  0  0  0  0  0  0
   44.8630   35.3350   43.1280 C   0  0  0  0  0  0  0  0  0  0  0  0
   45.4900   34.0900   43.1160 C   0  0  0  0  0  0  0  0  0  0  0  0
   45.7090   33.5050   44.3100 N   0  0  0  0  0  0  0  0  0  0  0  0
   45.3380   34.0960   45.4840 C   0  0  0  0  0  0  0  0  0  0  0  0
   44.7280   35.3080   45.4900 N   0  0  0  0  0  0  0  0  0  0  0  0
   48.1590   34.2260   41.5570 C   0  0  0  0  0  0  0  0  0  0  0  0
   48.9290   35.1500   42.1190 C   0  0  0  0  0  0  0  0  0  0  0  0
   50.1760   34.8120   42.5480 C   0  0  0  0  0  0  0  0  0  0  0  0
   50.5770   33.5240   42.3730 C   0  0  0  0  0  0  0  0  0  0  0  0
   49.1320   32.7340   41.5660 S   0  0  0  0  0  0  0  0  0  0  0  0
   46.4258   32.5507   42.2864 H   0  0  0  0  0  0  0  0  0  0  0  0
   44.2474   32.1577   41.4014 H   0  0  0  0  0  0  0  0  0  0  0  0
   44.0600   33.7635   40.7715 H   0  0  0  0  0  0  0  0  0  0  0  0
   46.1195   31.5925   39.9261 H   0  0  0  0  0  0  0  0  0  0  0  0
   45.0224   32.4156   38.8504 H   0  0  0  0  0  0  0  0  0  0  0  0
   47.6132   33.2789   39.3201 H   0  0  0  0  0  0  0  0  0  0  0  0
   46.3177   34.4265   38.9010 H   0  0  0  0  0  0  0  0  0  0  0  0
   46.5018   35.3744   40.9615 H   0  0  0  0  0  0  0  0  0  0  0  0
   43.9908   36.9177   44.3398 H   0  0  0  0  0  0  0  0  0  0  0  0
   44.6623   35.8527   42.1784 H   0  0  0  0  0  0  0  0  0  0  0  0
   45.5362   33.5830   46.4367 H   0  0  0  0  0  0  0  0  0  0  0  0
   48.5624   36.1804   42.2371 H   0  0  0  0  0  0  0  0  0  0  0  0
   50.8363   35.5546   43.0197 H   0  0  0  0  0  0  0  0  0  0  0  0
   51.5381   33.0659   42.6494 H   0  0  0  0  0  0  0  0  0  0  0  0
  1  8  1  0
  2  1  1  0
  3  2  1  0
  4  3  1  0
  4  5  1  0
  5 12  1  0
  5  1  1  0
  6 11  2  0
  7  6  1  0
  8  7  2  0
  8  9  1  0
  9 10  2  0
 10 11  1  0
 12 16  1  0
 12 13  2  0
 13 14  1  0
 15 14  2  0
 16 15  1  0
  1 17  1  1
  2 18  1  0
  2 19  1  0
  3 20  1  0
  3 21  1  0
  4 22  1  0
  4 23  1  0
  5 24  1  6
  6 25  1  0
  7 26  1  0
 10 27  1  0
 13 28  1  0
 14 29  1  0
 15 30  1  0
M  ISO  8  17  13  18  13  19  13  20  13  21  13  22  13  23  13  24  13
M  ISO  6  25  14  26  14  27  14  28  14  29  14  30  14
M  END
>  <minimizedAffinity>  (1) 
-4.8830719

>  <minimizedRMSD>  (1) 
1.73241627

$$$$
