
     RDKit          3D

 37 40  0  0  1  0  0  0  0  0999 V2000
   43.6610   31.9810   38.9740 C   0  0  1  0  0  0  0  0  0  0  0  0
   43.2400   31.5430   37.6260 C   0  0  0  0  0  0  0  0  0  0  0  0
   44.5410   31.7550   36.8550 C   0  0  0  0  0  0  0  0  0  0  0  0
   44.9360   33.1400   37.3440 C   0  0  0  0  0  0  0  0  0  0  0  0
   44.3270   33.3150   38.7010 C   0  0  2  0  0  0  0  0  0  0  0  0
   45.4040   33.4750   39.6590 N   0  0  0  0  0  0  0  0  0  0  0  0
   46.6600   33.0400   39.5030 C   0  0  0  0  0  0  0  0  0  0  0  0
   47.4280   33.3370   40.5590 N   0  0  0  0  0  0  0  0  0  0  0  0
   46.6320   33.9970   41.4470 C   0  0  0  0  0  0  0  0  0  0  0  0
   46.8940   34.5320   42.6990 C   0  0  0  0  0  0  0  0  0  0  0  0
   48.0330   34.4650   43.2290 O   0  0  0  0  0  0  0  0  0  0  0  0
   45.8410   35.1340   43.3180 N   0  0  0  0  0  0  0  0  0  0  0  0
   44.6270   35.2020   42.7470 C   0  0  0  0  0  0  0  0  0  0  0  0
   43.6120   35.8580   43.4970 N   0  0  0  0  0  0  0  0  0  0  0  0
   44.3870   34.6750   41.5230 N   0  0  0  0  0  0  0  0  0  0  0  0
   45.3710   34.0650   40.8510 C   0  0  0  0  0  0  0  0  0  0  0  0
   40.5730   33.0410   40.8960 C   0  0  0  0  0  0  0  0  0  0  0  0
   41.5500   33.0060   39.8850 C   0  0  0  0  0  0  0  0  0  0  0  0
   42.6040   32.0760   39.9870 C   0  0  0  0  0  0  0  0  0  0  0  0
   42.6160   31.2600   41.0620 N   0  0  0  0  0  0  0  0  0  0  0  0
   41.6690   31.3090   42.0220 C   0  0  0  0  0  0  0  0  0  0  0  0
   40.6460   32.1980   41.9420 N   0  0  0  0  0  0  0  0  0  0  0  0
   44.3164   31.2297   39.4389 H   0  0  0  0  0  0  0  0  0  0  0  0
   42.9294   30.4878   37.6189 H   0  0  0  0  0  0  0  0  0  0  0  0
   42.3693   32.0773   37.2180 H   0  0  0  0  0  0  0  0  0  0  0  0
   44.3747   31.7412   35.7677 H   0  0  0  0  0  0  0  0  0  0  0  0
   45.3018   30.9780   37.0208 H   0  0  0  0  0  0  0  0  0  0  0  0
   46.0312   33.2199   37.4082 H   0  0  0  0  0  0  0  0  0  0  0  0
   44.5811   33.9171   36.6511 H   0  0  0  0  0  0  0  0  0  0  0  0
   43.6406   34.1722   38.7643 H   0  0  0  0  0  0  0  0  0  0  0  0
   47.0189   32.5023   38.6130 H   0  0  0  0  0  0  0  0  0  0  0  0
   45.9793   35.5490   44.2505 H   0  0  0  0  0  0  0  0  0  0  0  0
   42.6603   35.9420   43.1122 H   0  0  0  0  0  0  0  0  0  0  0  0
   43.8287   36.2491   44.4249 H   0  0  0  0  0  0  0  0  0  0  0  0
   39.7445   33.7617   40.8312 H   0  0  0  0  0  0  0  0  0  0  0  0
   41.4924   33.6935   39.0283 H   0  0  0  0  0  0  0  0  0  0  0  0
   41.7265   30.6213   42.8786 H   0  0  0  0  0  0  0  0  0  0  0  0
  1 19  1  0
  2  1  1  0
  3  4  1  0
  3  2  1  0
  4  5  1  0
  5  1  1  0
  5  6  1  0
  6 16  1  0
  7  6  1  0
  7  8  2  0
  8  9  1  0
  9 10  1  0
 10 11  2  0
 10 12  1  0
 13 12  1  0
 13 14  1  0
 15 13  2  0
 16  9  2  0
 16 15  1  0
 17 22  2  0
 18 19  2  0
 18 17  1  0
 19 20  1  0
 20 21  2  0
 22 21  1  0
  1 23  1  1
  2 24  1  0
  2 25  1  0
  3 26  1  0
  3 27  1  0
  4 28  1  0
  4 29  1  0
  5 30  1  6
  7 31  1  0
 12 32  1  0
 14 33  1  0
 14 34  1  0
 17 35  1  0
 18 36  1  0
 21 37  1  0
M  ISO  8  23  13  24  13  25  13  26  13  27  13  28  13  29  13  30  13
M  ISO  5  31  14  32   9  35  14  36  14  37  14
M  END
>  <minimizedAffinity>  (1) 
-4.84713316

>  <minimizedRMSD>  (1) 
5.88283682

$$$$
