
     RDKit          3D

 29 31  0  0  1  0  0  0  0  0999 V2000
   46.0490   33.9700   41.2530 C   0  0  1  0  0  0  0  0  0  0  0  0
   46.9960   34.1630   40.1340 C   0  0  0  0  0  0  0  0  0  0  0  0
   48.3080   34.2810   40.9050 C   0  0  0  0  0  0  0  0  0  0  0  0
   47.9140   35.1850   42.0570 C   0  0  0  0  0  0  0  0  0  0  0  0
   46.4240   35.0680   42.2360 C   0  0  2  0  0  0  0  0  0  0  0  0
   42.5090   35.1390   40.5850 C   0  0  0  0  0  0  0  0  0  0  0  0
   43.8730   35.1640   40.9190 C   0  0  0  0  0  0  0  0  0  0  0  0
   44.6290   33.9830   40.9090 C   0  0  0  0  0  0  0  0  0  0  0  0
   43.9810   32.8540   40.5700 N   0  0  0  0  0  0  0  0  0  0  0  0
   42.6670   32.8260   40.2490 C   0  0  0  0  0  0  0  0  0  0  0  0
   41.9390   33.9630   40.2570 N   0  0  0  0  0  0  0  0  0  0  0  0
   46.0650   34.6360   43.6350 C   0  0  0  0  0  0  0  0  0  0  0  0
   46.7510   33.5480   44.1760 C   0  0  0  0  0  0  0  0  0  0  0  0
   45.9340   33.4640   45.8520 S   0  0  0  0  0  0  0  0  0  0  0  0
   44.8310   34.9220   45.4780 C   0  0  0  0  0  0  0  0  0  0  0  0
   45.1490   35.2090   44.3990 N   0  0  0  0  0  0  0  0  0  0  0  0
   46.1490   32.9534   41.6611 H   0  0  0  0  0  0  0  0  0  0  0  0
   46.7739   35.0785   39.5660 H   0  0  0  0  0  0  0  0  0  0  0  0
   46.9785   33.3684   39.3735 H   0  0  0  0  0  0  0  0  0  0  0  0
   48.6498   33.2996   41.2655 H   0  0  0  0  0  0  0  0  0  0  0  0
   49.1439   34.6670   40.3031 H   0  0  0  0  0  0  0  0  0  0  0  0
   48.4286   34.8678   42.9760 H   0  0  0  0  0  0  0  0  0  0  0  0
   48.1979   36.2266   41.8462 H   0  0  0  0  0  0  0  0  0  0  0  0
   45.9054   36.0236   42.0690 H   0  0  0  0  0  0  0  0  0  0  0  0
   41.9154   36.0650   40.5911 H   0  0  0  0  0  0  0  0  0  0  0  0
   44.3515   36.1166   41.1903 H   0  0  0  0  0  0  0  0  0  0  0  0
   42.1895   31.8722   39.9802 H   0  0  0  0  0  0  0  0  0  0  0  0
   47.5435   32.9215   43.7409 H   0  0  0  0  0  0  0  0  0  0  0  0
   44.0704   35.3916   46.1190 H   0  0  0  0  0  0  0  0  0  0  0  0
  1  5  1  0
  2  3  1  0
  2  1  1  0
  3  4  1  0
  4  5  1  0
  5 12  1  0
  6  7  2  0
  8  7  1  0
  8  1  1  0
  9  8  2  0
 10 11  2  0
 10  9  1  0
 11  6  1  0
 12 13  2  0
 12 16  1  0
 13 14  1  0
 15 14  1  0
 16 15  2  0
  1 17  1  1
  2 18  1  0
  2 19  1  0
  3 20  1  0
  3 21  1  0
  4 22  1  0
  4 23  1  0
  5 24  1  6
  6 25  1  0
  7 26  1  0
 10 27  1  0
 13 28  1  0
 15 29  1  0
M  ISO  8  17  13  18  13  19  13  20  13  21  13  22  13  23  13  24  13
M  ISO  5  25  14  26  14  27  14  28  14  29  14
M  END
>  <minimizedAffinity>  (1) 
-4.70467138

>  <minimizedRMSD>  (1) 
4.08714199

$$$$
