
     RDKit          3D

 21 21  0  0  1  0  0  0  0  0999 V2000
   47.2860   34.3490   41.9980 C   0  0  1  0  0  0  0  0  0  0  0  0
   45.5230   35.8470   43.0650 C   0  0  0  0  0  0  0  0  0  0  0  0
   46.3740   34.7110   43.0760 C   0  0  0  0  0  0  0  0  0  0  0  0
   46.3060   33.8980   44.2180 C   0  0  0  0  0  0  0  0  0  0  0  0
   45.4490   34.2460   45.2120 N   0  0  0  0  0  0  0  0  0  0  0  0
   44.6620   35.3240   45.1650 C   0  0  0  0  0  0  0  0  0  0  0  0
   44.6980   36.1390   44.0760 N   0  0  0  0  0  0  0  0  0  0  0  0
   46.5320   34.1830   40.7010 C   0  0  0  0  0  0  0  0  0  0  0  0
   48.3310   35.4430   41.8760 C   0  0  0  0  0  0  0  0  0  0  0  0
   48.8440   35.4570   40.5430 N   0  0  0  0  0  0  0  0  0  0  0  0
   47.7740   33.3889   42.2217 H   0  0  0  0  0  0  0  0  0  0  0  0
   45.5430   36.5135   42.1902 H   0  0  0  0  0  0  0  0  0  0  0  0
   46.9332   32.9986   44.3059 H   0  0  0  0  0  0  0  0  0  0  0  0
   43.9874   35.5521   46.0033 H   0  0  0  0  0  0  0  0  0  0  0  0
   45.4785   33.9511   40.9164 H   0  0  0  0  0  0  0  0  0  0  0  0
   46.5909   35.1156   40.1207 H   0  0  0  0  0  0  0  0  0  0  0  0
   46.9771   33.3613   40.1207 H   0  0  0  0  0  0  0  0  0  0  0  0
   47.8725   36.4166   42.1039 H   0  0  0  0  0  0  0  0  0  0  0  0
   49.1501   35.2519   42.5849 H   0  0  0  0  0  0  0  0  0  0  0  0
   49.8732   35.4851   40.5715 H   0  0  0  0  0  0  0  0  0  0  0  0
   48.5373   34.6073   40.0481 H   0  0  0  0  0  0  0  0  0  0  0  0
  1  3  1  0
  2  3  2  0
  2  7  1  0
  3  4  1  0
  4  5  2  0
  6  5  1  0
  7  6  2  0
  8  1  1  0
  9  1  1  0
 10  9  1  0
  1 11  1  1
  2 12  1  0
  4 13  1  0
  6 14  1  0
  8 15  1  0
  8 16  1  0
  8 17  1  0
  9 18  1  0
  9 19  1  0
 10 20  1  0
 10 21  1  0
M  ISO  8  11   8  12  14  13  14  14  14  15   8  16   8  17   8  18   8
M  ISO  3  19   8  20   5  21   5
M  END
>  <minimizedAffinity>  (1) 
-3.82720518

>  <minimizedRMSD>  (1) 
0.225735947

$$$$
