
     RDKit          3D

 31 33  0  0  1  0  0  0  0  0999 V2000
   46.3900   34.9980   43.1220 C   0  0  1  0  0  0  0  0  0  0  0  0
   45.1750   35.7810   42.8080 C   0  0  0  0  0  0  0  0  0  0  0  0
   44.7180   36.1530   44.2220 C   0  0  0  0  0  0  0  0  0  0  0  0
   44.9230   34.8410   44.9550 C   0  0  0  0  0  0  0  0  0  0  0  0
   45.9900   34.0810   44.2290 C   0  0  1  0  0  0  0  0  0  0  0  0
   47.2000   33.7080   39.6890 C   0  0  0  0  0  0  0  0  0  0  0  0
   46.5230   34.3030   40.7730 C   0  0  0  0  0  0  0  0  0  0  0  0
   47.1110   34.3910   42.0180 C   0  0  0  0  0  0  0  0  0  0  0  0
   48.3510   33.8910   42.1470 N   0  0  0  0  0  0  0  0  0  0  0  0
   49.0120   33.3190   41.1190 C   0  0  0  0  0  0  0  0  0  0  0  0
   48.4370   33.2280   39.8910 N   0  0  0  0  0  0  0  0  0  0  0  0
   45.5080   32.7460   43.8630 C   0  0  0  0  0  0  0  0  0  0  0  0
   46.1810   31.7030   44.5160 C   0  0  0  0  0  0  0  0  0  0  0  0
   45.8620   30.3530   44.3260 C   0  0  0  0  0  0  0  0  0  0  0  0
   44.8500   30.0320   43.4660 N   0  0  0  0  0  0  0  0  0  0  0  0
   44.2200   31.0630   42.8500 C   0  0  0  0  0  0  0  0  0  0  0  0
   44.5250   32.3590   43.0310 N   0  0  0  0  0  0  0  0  0  0  0  0
   47.1938   35.6806   43.4351 H   0  0  0  0  0  0  0  0  0  0  0  0
   45.4090   36.6727   42.2078 H   0  0  0  0  0  0  0  0  0  0  0  0
   44.4248   35.2466   42.2067 H   0  0  0  0  0  0  0  0  0  0  0  0
   45.3397   36.9540   44.6485 H   0  0  0  0  0  0  0  0  0  0  0  0
   43.6910   36.5434   44.2756 H   0  0  0  0  0  0  0  0  0  0  0  0
   45.2388   35.0349   45.9907 H   0  0  0  0  0  0  0  0  0  0  0  0
   43.9874   34.2632   44.9836 H   0  0  0  0  0  0  0  0  0  0  0  0
   46.8868   33.8360   44.8169 H   0  0  0  0  0  0  0  0  0  0  0  0
   46.7249   33.6387   38.6993 H   0  0  0  0  0  0  0  0  0  0  0  0
   45.5095   34.7036   40.6238 H   0  0  0  0  0  0  0  0  0  0  0  0
   50.0259   32.9226   41.2765 H   0  0  0  0  0  0  0  0  0  0  0  0
   46.9966   31.9572   45.2090 H   0  0  0  0  0  0  0  0  0  0  0  0
   46.4156   29.5659   44.8589 H   0  0  0  0  0  0  0  0  0  0  0  0
   43.4030   30.8216   42.1542 H   0  0  0  0  0  0  0  0  0  0  0  0
  1  5  1  0
  2  1  1  0
  2  3  1  0
  3  4  1  0
  5  4  1  0
  6 11  2  0
  6  7  1  0
  7  8  2  0
  8  9  1  0
  8  1  1  0
 10  9  2  0
 11 10  1  0
 12  5  1  0
 12 13  2  0
 14 13  1  0
 15 14  2  0
 16 17  2  0
 16 15  1  0
 17 12  1  0
  1 18  1  1
  2 19  1  0
  2 20  1  0
  3 21  1  0
  3 22  1  0
  4 23  1  0
  4 24  1  0
  5 25  1  1
  6 26  1  0
  7 27  1  0
 10 28  1  0
 13 29  1  0
 14 30  1  0
 16 31  1  0
M  ISO  8  18  13  19  13  20  13  21  13  22  13  23  13  24  13  25  13
M  ISO  6  26  14  27  14  28  14  29  14  30  14  31  14
M  END
>  <minimizedAffinity>  (1) 
-4.30455732

>  <minimizedRMSD>  (1) 
5.8368063

$$$$
