
     RDKit          3D

 31 32  0  0  1  0  0  0  0  0999 V2000
   45.7640   34.0650   41.7490 C   0  0  1  0  0  0  0  0  0  0  0  0
   44.7940   35.7530   43.3800 C   0  0  0  0  0  0  0  0  0  0  0  0
   45.3800   34.5170   43.0770 C   0  0  0  0  0  0  0  0  0  0  0  0
   45.6120   33.6480   44.1660 C   0  0  0  0  0  0  0  0  0  0  0  0
   45.2620   34.0470   45.4150 N   0  0  0  0  0  0  0  0  0  0  0  0
   44.7000   35.2450   45.6670 C   0  0  0  0  0  0  0  0  0  0  0  0
   44.4680   36.0980   44.6310 N   0  0  0  0  0  0  0  0  0  0  0  0
   44.6910   34.3900   40.7450 C   0  0  0  0  0  0  0  0  0  0  0  0
   47.0780   34.7430   41.3730 C   0  0  0  0  0  0  0  0  0  0  0  0
   47.7480   33.9110   40.4910 N   0  0  0  0  0  0  0  0  0  0  0  0
   48.0330   32.5830   40.8520 C   0  0  0  0  0  0  0  0  0  0  0  0
   49.1530   32.2260   39.8640 C   0  0  0  0  0  0  0  0  0  0  0  0
   48.6160   32.9310   38.6100 C   0  0  0  0  0  0  0  0  0  0  0  0
   48.0960   34.2440   39.2030 C   0  0  0  0  0  0  0  0  0  0  0  0
   45.8942   32.9727   41.7496 H   0  0  0  0  0  0  0  0  0  0  0  0
   44.5956   36.4626   42.5632 H   0  0  0  0  0  0  0  0  0  0  0  0
   46.0702   32.6612   44.0039 H   0  0  0  0  0  0  0  0  0  0  0  0
   44.4322   35.5303   46.6951 H   0  0  0  0  0  0  0  0  0  0  0  0
   43.7674   34.6697   41.2730 H   0  0  0  0  0  0  0  0  0  0  0  0
   45.0210   35.2285   40.1141 H   0  0  0  0  0  0  0  0  0  0  0  0
   44.5003   33.5093   40.1141 H   0  0  0  0  0  0  0  0  0  0  0  0
   46.8750   35.7115   40.8926 H   0  0  0  0  0  0  0  0  0  0  0  0
   47.6882   34.9216   42.2707 H   0  0  0  0  0  0  0  0  0  0  0  0
   48.3806   32.5163   41.8935 H   0  0  0  0  0  0  0  0  0  0  0  0
   47.1638   31.9106   40.8040 H   0  0  0  0  0  0  0  0  0  0  0  0
   50.1247   32.6335   40.1799 H   0  0  0  0  0  0  0  0  0  0  0  0
   49.3513   31.1502   39.7486 H   0  0  0  0  0  0  0  0  0  0  0  0
   47.8069   32.3536   38.1389 H   0  0  0  0  0  0  0  0  0  0  0  0
   49.3621   33.0614   37.8123 H   0  0  0  0  0  0  0  0  0  0  0  0
   48.8813   35.0143   39.1966 H   0  0  0  0  0  0  0  0  0  0  0  0
   47.2549   34.6635   38.6316 H   0  0  0  0  0  0  0  0  0  0  0  0
  1  3  1  0
  2  7  2  0
  3  2  1  0
  3  4  2  0
  4  5  1  0
  5  6  2  0
  7  6  1  0
  8  1  1  0
  9  1  1  0
 10 11  1  0
 10  9  1  0
 12 11  1  0
 13 14  1  0
 13 12  1  0
 14 10  1  0
  1 15  1  1
  2 16  1  0
  4 17  1  0
  6 18  1  0
  8 19  1  0
  8 20  1  0
  8 21  1  0
  9 22  1  0
  9 23  1  0
 11 24  1  0
 11 25  1  0
 12 26  1  0
 12 27  1  0
 13 28  1  0
 13 29  1  0
 14 30  1  0
 14 31  1  0
M  ISO  8  15   8  16  14  17  14  18  14  19   8  20   8  21   8  22   8
M  ISO  8  23   8  24  13  25  13  26  13  27  13  28  13  29  13  30  13
M  ISO  1  31  13
M  END
>  <minimizedAffinity>  (1) 
-3.70799327

>  <minimizedRMSD>  (1) 
1.41420341

$$$$
