
     RDKit          3D

 28 29  0  0  1  0  0  0  0  0999 V2000
   47.3800   34.1550   42.3170 C   0  0  1  0  0  0  0  0  0  0  0  0
   46.6160   34.5250   41.1240 C   0  0  0  0  0  0  0  0  0  0  0  0
   47.7560   34.6060   40.0970 C   0  0  0  0  0  0  0  0  0  0  0  0
   48.8120   35.3630   40.8730 C   0  0  0  0  0  0  0  0  0  0  0  0
   48.5300   35.1680   42.3330 C   0  0  2  0  0  0  0  0  0  0  0  0
   44.9020   34.9070   45.0870 C   0  0  0  0  0  0  0  0  0  0  0  0
   45.5580   34.9770   43.8390 C   0  0  0  0  0  0  0  0  0  0  0  0
   46.6620   34.1170   43.5930 C   0  0  0  0  0  0  0  0  0  0  0  0
   47.0180   33.2820   44.5740 N   0  0  0  0  0  0  0  0  0  0  0  0
   46.3920   33.2170   45.7620 C   0  0  0  0  0  0  0  0  0  0  0  0
   45.3380   34.0270   46.0160 N   0  0  0  0  0  0  0  0  0  0  0  0
   49.6690   34.5140   42.9480 N   0  0  0  0  0  0  0  0  0  0  0  0
   50.3670   33.4340   42.3010 C   0  0  0  0  0  0  0  0  0  0  0  0
   51.3390   32.8810   42.8330 O   0  0  0  0  0  0  0  0  0  0  0  0
   49.9140   33.0210   41.0390 O   0  0  0  0  0  0  0  0  0  0  0  0
   47.6902   33.1026   42.2377 H   0  0  0  0  0  0  0  0  0  0  0  0
   45.8780   33.7547   40.8558 H   0  0  0  0  0  0  0  0  0  0  0  0
   46.0135   35.4400   41.2230 H   0  0  0  0  0  0  0  0  0  0  0  0
   47.4469   35.1576   39.1969 H   0  0  0  0  0  0  0  0  0  0  0  0
   48.0913   33.6275   39.7228 H   0  0  0  0  0  0  0  0  0  0  0  0
   49.8102   34.9709   40.6283 H   0  0  0  0  0  0  0  0  0  0  0  0
   48.7885   36.4320   40.6148 H   0  0  0  0  0  0  0  0  0  0  0  0
   48.3170   36.1055   42.8676 H   0  0  0  0  0  0  0  0  0  0  0  0
   44.0446   35.5619   45.3014 H   0  0  0  0  0  0  0  0  0  0  0  0
   45.2198   35.6861   43.0691 H   0  0  0  0  0  0  0  0  0  0  0  0
   46.7363   32.5058   46.5272 H   0  0  0  0  0  0  0  0  0  0  0  0
   49.9877   34.8315   43.8746 H   0  0  0  0  0  0  0  0  0  0  0  0
   49.1361   33.4689   40.6213 H   0  0  0  0  0  0  0  0  0  0  0  0
  1  5  1  0
  1  8  1  0
  2  1  1  0
  3  4  1  0
  3  2  1  0
  4  5  1  0
  5 12  1  0
  6 11  2  0
  7  6  1  0
  8  7  2  0
  8  9  1  0
  9 10  2  0
 10 11  1  0
 13 14  2  0
 13 12  1  0
 15 13  1  0
  1 16  1  6
  2 17  1  0
  2 18  1  0
  3 19  1  0
  3 20  1  0
  4 21  1  0
  4 22  1  0
  5 23  1  1
  6 24  1  0
  7 25  1  0
 10 26  1  0
 12 27  1  0
 15 28  1  0
M  ISO  8  16  13  17  13  18  13  19  13  20  13  21  13  22  13  23  13
M  ISO  4  24  14  25  14  26  14  28   3
M  END
>  <minimizedAffinity>  (1) 
-5.10741901

>  <minimizedRMSD>  (1) 
1.76891124

$$$$
