
     RDKit          3D

 28 29  0  0  1  0  0  0  0  0999 V2000
   46.3650   33.6380   41.2310 C   0  0  1  0  0  0  0  0  0  0  0  0
   45.4670   33.6770   40.0750 C   0  0  0  0  0  0  0  0  0  0  0  0
   46.4110   33.2350   38.9720 C   0  0  0  0  0  0  0  0  0  0  0  0
   47.6690   34.0150   39.3000 C   0  0  0  0  0  0  0  0  0  0  0  0
   47.5970   34.4130   40.7480 C   0  0  2  0  0  0  0  0  0  0  0  0
   44.6320   35.8100   43.7980 C   0  0  0  0  0  0  0  0  0  0  0  0
   45.1030   35.3340   42.5610 C   0  0  0  0  0  0  0  0  0  0  0  0
   45.8630   34.1490   42.4980 C   0  0  0  0  0  0  0  0  0  0  0  0
   46.1000   33.5210   43.6670 N   0  0  0  0  0  0  0  0  0  0  0  0
   45.6480   33.9790   44.8460 C   0  0  0  0  0  0  0  0  0  0  0  0
   44.9110   35.1250   44.9150 N   0  0  0  0  0  0  0  0  0  0  0  0
   48.7480   33.8690   41.4280 N   0  0  0  0  0  0  0  0  0  0  0  0
   49.5020   34.8130   42.1890 C   0  0  0  0  0  0  0  0  0  0  0  0
   48.9720   34.8630   43.4660 F   0  0  0  0  0  0  0  0  0  0  0  0
   49.4400   36.0760   41.6270 F   0  0  0  0  0  0  0  0  0  0  0  0
   50.8320   34.5120   42.3290 F   0  0  0  0  0  0  0  0  0  0  0  0
   46.5488   32.5896   41.5087 H   0  0  0  0  0  0  0  0  0  0  0  0
   44.6249   32.9790   40.1919 H   0  0  0  0  0  0  0  0  0  0  0  0
   44.9865   34.6513   39.9022 H   0  0  0  0  0  0  0  0  0  0  0  0
   46.0206   33.5056   37.9799 H   0  0  0  0  0  0  0  0  0  0  0  0
   46.5634   32.1464   38.9293 H   0  0  0  0  0  0  0  0  0  0  0  0
   48.5550   33.3861   39.1282 H   0  0  0  0  0  0  0  0  0  0  0  0
   47.7473   34.9059   38.6595 H   0  0  0  0  0  0  0  0  0  0  0  0
   47.5572   35.4994   40.9157 H   0  0  0  0  0  0  0  0  0  0  0  0
   44.0402   36.7359   43.8477 H   0  0  0  0  0  0  0  0  0  0  0  0
   44.8771   35.8893   41.6387 H   0  0  0  0  0  0  0  0  0  0  0  0
   45.8749   33.4230   45.7676 H   0  0  0  0  0  0  0  0  0  0  0  0
   48.4216   33.1308   42.0678 H   0  0  0  0  0  0  0  0  0  0  0  0
  1  8  1  0
  2  1  1  0
  3  4  1  0
  3  2  1  0
  4  5  1  0
  5  1  1  0
  5 12  1  0
  6 11  2  0
  7  6  1  0
  8  7  2  0
  8  9  1  0
  9 10  2  0
 10 11  1  0
 12 13  1  0
 13 16  1  0
 13 14  1  0
 15 13  1  0
  1 17  1  1
  2 18  1  0
  2 19  1  0
  3 20  1  0
  3 21  1  0
  4 22  1  0
  4 23  1  0
  5 24  1  6
  6 25  1  0
  7 26  1  0
 10 27  1  0
 12 28  1  0
M  ISO  8  17  13  18  13  19  13  20  13  21  13  22  13  23  13  24  13
M  ISO  4  25  14  26  14  27  14  28   5
M  END
>  <minimizedAffinity>  (1) 
-4.68813276

>  <minimizedRMSD>  (1) 
1.40502274

$$$$
