
     RDKit          3D

 42 45  0  0  1  0  0  0  0  0999 V2000
   46.2470   33.6210   41.0660 C   0  0  1  0  0  0  0  0  0  0  0  0
   45.3370   33.5650   39.9290 C   0  0  0  0  0  0  0  0  0  0  0  0
   46.2380   33.0150   38.8540 C   0  0  0  0  0  0  0  0  0  0  0  0
   47.5030   33.8420   39.0800 C   0  0  0  0  0  0  0  0  0  0  0  0
   47.5040   34.3080   40.4820 C   0  0  2  0  0  0  0  0  0  0  0  0
   48.6390   33.8240   41.2110 N   0  0  0  0  0  0  0  0  0  0  0  0
   49.2660   32.5800   41.3490 C   0  0  0  0  0  0  0  0  0  0  0  0
   50.1680   32.3410   40.3500 N   0  0  0  0  0  0  0  0  0  0  0  0
   50.8760   31.1980   40.2920 C   0  0  0  0  0  0  0  0  0  0  0  0
   50.7180   30.2270   41.2340 N   0  0  0  0  0  0  0  0  0  0  0  0
   49.8420   30.4170   42.2360 C   0  0  0  0  0  0  0  0  0  0  0  0
   49.5950   29.4930   43.2510 C   0  0  0  0  0  0  0  0  0  0  0  0
   48.6700   29.7760   44.2370 C   0  0  0  0  0  0  0  0  0  0  0  0
   47.9500   30.9740   44.2700 C   0  0  0  0  0  0  0  0  0  0  0  0
   48.1930   31.8890   43.2670 C   0  0  0  0  0  0  0  0  0  0  0  0
   49.1160   31.5870   42.2980 C   0  0  0  0  0  0  0  0  0  0  0  0
   49.2630   34.8230   42.0420 C   0  0  0  0  0  0  0  0  0  0  0  0
   48.6010   34.7730   43.2650 F   0  0  0  0  0  0  0  0  0  0  0  0
   49.2320   36.0640   41.4990 F   0  0  0  0  0  0  0  0  0  0  0  0
   50.5790   34.5600   42.3660 F   0  0  0  0  0  0  0  0  0  0  0  0
   45.0620   36.2320   43.5240 C   0  0  0  0  0  0  0  0  0  0  0  0
   45.5180   35.6340   42.3350 C   0  0  0  0  0  0  0  0  0  0  0  0
   45.7800   34.2610   42.2750 C   0  0  0  0  0  0  0  0  0  0  0  0
   45.5670   33.5730   43.4160 N   0  0  0  0  0  0  0  0  0  0  0  0
   45.1330   34.1410   44.5490 C   0  0  0  0  0  0  0  0  0  0  0  0
   44.8780   35.4820   44.6050 N   0  0  0  0  0  0  0  0  0  0  0  0
   46.4088   32.6035   41.4513 H   0  0  0  0  0  0  0  0  0  0  0  0
   44.4885   32.8931   40.1255 H   0  0  0  0  0  0  0  0  0  0  0  0
   44.8728   34.5298   39.6766 H   0  0  0  0  0  0  0  0  0  0  0  0
   45.8192   33.1837   37.8509 H   0  0  0  0  0  0  0  0  0  0  0  0
   46.3929   31.9272   38.9058 H   0  0  0  0  0  0  0  0  0  0  0  0
   48.3920   33.2218   38.8929 H   0  0  0  0  0  0  0  0  0  0  0  0
   47.5236   34.7012   38.3934 H   0  0  0  0  0  0  0  0  0  0  0  0
   47.5253   35.4060   40.5448 H   0  0  0  0  0  0  0  0  0  0  0  0
   51.5929   31.0457   39.4717 H   0  0  0  0  0  0  0  0  0  0  0  0
   50.1381   28.5366   43.2664 H   0  0  0  0  0  0  0  0  0  0  0  0
   48.4931   29.0305   45.0262 H   0  0  0  0  0  0  0  0  0  0  0  0
   47.2180   31.1789   45.0651 H   0  0  0  0  0  0  0  0  0  0  0  0
   47.6541   32.8477   43.2443 H   0  0  0  0  0  0  0  0  0  0  0  0
   44.8593   37.3126   43.5583 H   0  0  0  0  0  0  0  0  0  0  0  0
   45.6707   36.2547   41.4398 H   0  0  0  0  0  0  0  0  0  0  0  0
   44.9802   33.5206   45.4444 H   0  0  0  0  0  0  0  0  0  0  0  0
  1 23  1  0
  2  1  1  0
  3  4  1  0
  3  2  1  0
  4  5  1  0
  5  1  1  0
  5  6  1  0
  6  7  1  0
  6 17  1  0
  7 16  1  0
  8  7  2  0
  9  8  1  0
  9 10  2  0
 10 11  1  0
 11 16  2  0
 11 12  1  0
 12 13  2  0
 13 14  1  0
 15 14  2  0
 16 15  1  0
 17 20  1  0
 17 18  1  0
 19 17  1  0
 21 26  2  0
 22 21  1  0
 23 22  2  0
 23 24  1  0
 24 25  2  0
 25 26  1  0
  1 27  1  1
  2 28  1  0
  2 29  1  0
  3 30  1  0
  3 31  1  0
  4 32  1  0
  4 33  1  0
  5 34  1  6
  9 35  1  0
 12 36  1  0
 13 37  1  0
 14 38  1  0
 15 39  1  0
 21 40  1  0
 22 41  1  0
 25 42  1  0
M  ISO  8  27  13  28  13  29  13  30  13  31  13  32  13  33  13  34  13
M  ISO  8  35  14  36  14  37  14  38  14  39  14  40  14  41  14  42  14
M  END
>  <minimizedAffinity>  (1) 
-5.87740183

>  <minimizedRMSD>  (1) 
0.403233945

$$$$
