
     RDKit          3D

 42 45  0  0  1  0  0  0  0  0999 V2000
   46.3330   33.6470   41.1720 C   0  0  1  0  0  0  0  0  0  0  0  0
   45.4270   33.5980   40.0340 C   0  0  0  0  0  0  0  0  0  0  0  0
   46.3510   33.1540   38.9300 C   0  0  0  0  0  0  0  0  0  0  0  0
   47.5970   33.9710   39.1980 C   0  0  0  0  0  0  0  0  0  0  0  0
   47.5620   34.4070   40.6210 C   0  0  2  0  0  0  0  0  0  0  0  0
   44.9680   36.0510   43.7400 C   0  0  0  0  0  0  0  0  0  0  0  0
   45.4370   35.5430   42.5140 C   0  0  0  0  0  0  0  0  0  0  0  0
   45.8450   34.2060   42.4110 C   0  0  0  0  0  0  0  0  0  0  0  0
   45.7540   33.4880   43.5420 N   0  0  0  0  0  0  0  0  0  0  0  0
   45.3120   33.9590   44.7080 C   0  0  0  0  0  0  0  0  0  0  0  0
   44.9120   35.2630   44.8080 N   0  0  0  0  0  0  0  0  0  0  0  0
   48.7160   33.9160   41.3270 N   0  0  0  0  0  0  0  0  0  0  0  0
   49.2920   32.6200   41.3620 C   0  0  0  0  0  0  0  0  0  0  0  0
   50.1840   32.0410   40.4830 C   0  0  0  0  0  0  0  0  0  0  0  0
   50.5120   30.7880   40.8240 N   0  0  0  0  0  0  0  0  0  0  0  0
   49.8350   30.5060   41.9520 C   0  0  0  0  0  0  0  0  0  0  0  0
   49.8240   29.3330   42.7140 C   0  0  0  0  0  0  0  0  0  0  0  0
   49.0470   29.2500   43.8490 C   0  0  0  0  0  0  0  0  0  0  0  0
   48.2990   30.3560   44.1890 C   0  0  0  0  0  0  0  0  0  0  0  0
   48.3190   31.5040   43.4310 C   0  0  0  0  0  0  0  0  0  0  0  0
   49.0860   31.6170   42.2910 C   0  0  0  0  0  0  0  0  0  0  0  0
   49.3450   34.9040   42.1670 C   0  0  0  0  0  0  0  0  0  0  0  0
   48.7610   34.7730   43.4200 F   0  0  0  0  0  0  0  0  0  0  0  0
   49.2320   36.1690   41.6890 F   0  0  0  0  0  0  0  0  0  0  0  0
   50.6900   34.6660   42.3770 F   0  0  0  0  0  0  0  0  0  0  0  0
   46.5343   32.6206   41.5125 H   0  0  0  0  0  0  0  0  0  0  0  0
   44.6174   32.8712   40.1965 H   0  0  0  0  0  0  0  0  0  0  0  0
   44.9116   34.5484   39.8311 H   0  0  0  0  0  0  0  0  0  0  0  0
   45.9288   33.3855   37.9410 H   0  0  0  0  0  0  0  0  0  0  0  0
   46.5317   32.0690   38.9189 H   0  0  0  0  0  0  0  0  0  0  0  0
   48.4920   33.3576   39.0171 H   0  0  0  0  0  0  0  0  0  0  0  0
   47.6328   34.8447   38.5307 H   0  0  0  0  0  0  0  0  0  0  0  0
   47.5322   35.5015   40.7270 H   0  0  0  0  0  0  0  0  0  0  0  0
   44.6478   37.1008   43.8138 H   0  0  0  0  0  0  0  0  0  0  0  0
   45.4836   36.1987   41.6320 H   0  0  0  0  0  0  0  0  0  0  0  0
   45.2691   33.3003   45.5879 H   0  0  0  0  0  0  0  0  0  0  0  0
   50.5836   32.5542   39.5959 H   0  0  0  0  0  0  0  0  0  0  0  0
   51.1569   30.1622   40.3207 H   0  0  0  0  0  0  0  0  0  0  0  0
   50.4378   28.4737   42.4061 H   0  0  0  0  0  0  0  0  0  0  0  0
   49.0248   28.3357   44.4602 H   0  0  0  0  0  0  0  0  0  0  0  0
   47.6693   30.3202   45.0902 H   0  0  0  0  0  0  0  0  0  0  0  0
   47.7029   32.3596   43.7448 H   0  0  0  0  0  0  0  0  0  0  0  0
  1  8  1  0
  2  1  1  0
  3  4  1  0
  3  2  1  0
  4  5  1  0
  5  1  1  0
  5 12  1  0
  6 11  2  0
  7  6  1  0
  8  7  2  0
  8  9  1  0
  9 10  2  0
 10 11  1  0
 12 13  1  0
 12 22  1  0
 13 21  1  0
 14 15  1  0
 14 13  2  0
 15 16  1  0
 16 21  2  0
 16 17  1  0
 17 18  2  0
 18 19  1  0
 20 19  2  0
 21 20  1  0
 22 25  1  0
 22 23  1  0
 24 22  1  0
  1 26  1  1
  2 27  1  0
  2 28  1  0
  3 29  1  0
  3 30  1  0
  4 31  1  0
  4 32  1  0
  5 33  1  6
  6 34  1  0
  7 35  1  0
 10 36  1  0
 14 37  1  0
 15 38  1  0
 17 39  1  0
 18 40  1  0
 19 41  1  0
 20 42  1  0
M  ISO  8  26  13  27  13  28  13  29  13  30  13  31  13  32  13  33  13
M  ISO  8  34  14  35  14  36  14  37  14  38   9  39  14  40  14  41  14
M  ISO  1  42  14
M  END
>  <minimizedAffinity>  (1) 
-5.59217405

>  <minimizedRMSD>  (1) 
0.464599997

$$$$
