
     RDKit          3D

 39 42  0  0  1  0  0  0  0  0999 V2000
   46.1160   33.6670   41.4000 C   0  0  1  0  0  0  0  0  0  0  0  0
   45.1720   33.6620   40.2910 C   0  0  0  0  0  0  0  0  0  0  0  0
   46.0440   33.1290   39.1730 C   0  0  0  0  0  0  0  0  0  0  0  0
   47.3240   33.9270   39.3850 C   0  0  0  0  0  0  0  0  0  0  0  0
   47.3510   34.3790   40.8020 C   0  0  2  0  0  0  0  0  0  0  0  0
   44.8010   36.1000   43.9690 C   0  0  0  0  0  0  0  0  0  0  0  0
   45.2060   35.5540   42.7380 C   0  0  0  0  0  0  0  0  0  0  0  0
   45.6950   34.2470   42.6550 C   0  0  0  0  0  0  0  0  0  0  0  0
   45.7450   33.5740   43.8160 N   0  0  0  0  0  0  0  0  0  0  0  0
   45.3620   34.0840   44.9900 C   0  0  0  0  0  0  0  0  0  0  0  0
   44.8860   35.3580   45.0690 N   0  0  0  0  0  0  0  0  0  0  0  0
   48.5110   33.8590   41.4760 N   0  0  0  0  0  0  0  0  0  0  0  0
   50.7380   29.9730   40.1130 N   0  0  0  0  0  0  0  0  0  0  0  0
   50.7930   30.9370   39.1490 C   0  0  0  0  0  0  0  0  0  0  0  0
   50.1320   32.0040   39.6300 N   0  0  0  0  0  0  0  0  0  0  0  0
   49.6740   31.7220   40.8620 C   0  0  0  0  0  0  0  0  0  0  0  0
   48.9490   32.5570   41.6890 C   0  0  0  0  0  0  0  0  0  0  0  0
   48.6120   32.0130   42.8950 N   0  0  0  0  0  0  0  0  0  0  0  0
   48.9800   30.7580   43.2070 C   0  0  0  0  0  0  0  0  0  0  0  0
   49.6910   29.9430   42.3920 N   0  0  0  0  0  0  0  0  0  0  0  0
   50.0460   30.4370   41.1920 C   0  0  0  0  0  0  0  0  0  0  0  0
   49.3370   34.8680   42.0770 C   0  0  0  0  0  0  0  0  0  0  0  0
   48.8440   35.0460   43.3680 F   0  0  0  0  0  0  0  0  0  0  0  0
   49.3550   36.0300   41.3790 F   0  0  0  0  0  0  0  0  0  0  0  0
   50.6490   34.4730   42.2530 F   0  0  0  0  0  0  0  0  0  0  0  0
   46.2852   32.6336   41.7370 H   0  0  0  0  0  0  0  0  0  0  0  0
   44.3185   32.9972   40.4898 H   0  0  0  0  0  0  0  0  0  0  0  0
   44.7126   34.6393   40.0817 H   0  0  0  0  0  0  0  0  0  0  0  0
   45.6020   33.3318   38.1863 H   0  0  0  0  0  0  0  0  0  0  0  0
   46.1851   32.0383   39.1933 H   0  0  0  0  0  0  0  0  0  0  0  0
   48.1986   33.2927   39.1782 H   0  0  0  0  0  0  0  0  0  0  0  0
   47.3534   34.7920   38.7060 H   0  0  0  0  0  0  0  0  0  0  0  0
   47.3616   35.4749   40.8967 H   0  0  0  0  0  0  0  0  0  0  0  0
   44.4180   37.1298   44.0213 H   0  0  0  0  0  0  0  0  0  0  0  0
   45.1369   36.1650   41.8259 H   0  0  0  0  0  0  0  0  0  0  0  0
   45.4316   33.4702   45.9002 H   0  0  0  0  0  0  0  0  0  0  0  0
   51.1567   29.0350   40.0369 H   0  0  0  0  0  0  0  0  0  0  0  0
   51.2835   30.8565   38.1677 H   0  0  0  0  0  0  0  0  0  0  0  0
   48.6833   30.3666   44.1913 H   0  0  0  0  0  0  0  0  0  0  0  0
  1  8  1  0
  2  1  1  0
  3  4  1  0
  3  2  1  0
  4  5  1  0
  5  1  1  0
  5 12  1  0
  6 11  2  0
  7  6  1  0
  8  7  2  0
  8  9  1  0
  9 10  2  0
 10 11  1  0
 12 17  1  0
 12 22  1  0
 13 21  1  0
 14 15  2  0
 14 13  1  0
 15 16  1  0
 16 21  2  0
 16 17  1  0
 17 18  2  0
 18 19  1  0
 20 19  2  0
 21 20  1  0
 22 25  1  0
 22 23  1  0
 24 22  1  0
  1 26  1  1
  2 27  1  0
  2 28  1  0
  3 29  1  0
  3 30  1  0
  4 31  1  0
  4 32  1  0
  5 33  1  6
  6 34  1  0
  7 35  1  0
 10 36  1  0
 13 37  1  0
 14 38  1  0
 19 39  1  0
M  ISO  8  26  13  27  13  28  13  29  13  30  13  31  13  32  13  33  13
M  ISO  6  34  14  35  14  36  14  37   9  38  14  39  14
M  END
>  <minimizedAffinity>  (1) 
-5.51817608

>  <minimizedRMSD>  (1) 
0.672201097

$$$$
