
     RDKit          3D

 40 42  0  0  1  0  0  0  0  0999 V2000
   46.4380   33.6370   41.0640 C   0  0  1  0  0  0  0  0  0  0  0  0
   45.5290   33.5920   39.9080 C   0  0  0  0  0  0  0  0  0  0  0  0
   46.4920   33.1350   38.8220 C   0  0  0  0  0  0  0  0  0  0  0  0
   47.6850   34.0360   39.0940 C   0  0  0  0  0  0  0  0  0  0  0  0
   47.6150   34.4220   40.5310 C   0  0  2  0  0  0  0  0  0  0  0  0
   44.9710   35.9210   43.6780 C   0  0  0  0  0  0  0  0  0  0  0  0
   45.4640   35.4460   42.4390 C   0  0  0  0  0  0  0  0  0  0  0  0
   45.9300   34.1130   42.3310 C   0  0  0  0  0  0  0  0  0  0  0  0
   45.8800   33.3440   43.4330 N   0  0  0  0  0  0  0  0  0  0  0  0
   45.4080   33.8110   44.6060 C   0  0  0  0  0  0  0  0  0  0  0  0
   44.9510   35.1010   44.7300 N   0  0  0  0  0  0  0  0  0  0  0  0
   48.8170   34.0940   41.2060 N   0  0  0  0  0  0  0  0  0  0  0  0
   50.6150   32.4860   40.8540 N   0  0  0  0  0  0  0  0  0  0  0  0
   50.5360   31.0340   40.9100 C   0  0  0  0  0  0  0  0  0  0  0  0
   49.9930   30.8150   42.3060 C   0  0  0  0  0  0  0  0  0  0  0  0
   49.2690   32.1300   42.6460 C   0  0  0  0  0  0  0  0  0  0  0  0
   49.2580   32.7950   41.2570 C   0  0  1  0  0  0  0  0  0  0  0  0
   49.3390   35.0570   42.1080 C   0  0  0  0  0  0  0  0  0  0  0  0
   48.6880   34.8950   43.3110 F   0  0  0  0  0  0  0  0  0  0  0  0
   49.1940   36.3260   41.6240 F   0  0  0  0  0  0  0  0  0  0  0  0
   50.6780   34.9200   42.3990 F   0  0  0  0  0  0  0  0  0  0  0  0
   46.6765   32.6143   41.3914 H   0  0  0  0  0  0  0  0  0  0  0  0
   44.7137   32.8693   40.0593 H   0  0  0  0  0  0  0  0  0  0  0  0
   45.0092   34.5375   39.6941 H   0  0  0  0  0  0  0  0  0  0  0  0
   46.0780   33.3053   37.8172 H   0  0  0  0  0  0  0  0  0  0  0  0
   46.7220   32.0595   38.8433 H   0  0  0  0  0  0  0  0  0  0  0  0
   48.6215   33.4953   38.8925 H   0  0  0  0  0  0  0  0  0  0  0  0
   47.6643   34.9243   38.4456 H   0  0  0  0  0  0  0  0  0  0  0  0
   47.4898   35.5051   40.6767 H   0  0  0  0  0  0  0  0  0  0  0  0
   44.6083   36.9552   43.7723 H   0  0  0  0  0  0  0  0  0  0  0  0
   45.4851   36.1104   41.5625 H   0  0  0  0  0  0  0  0  0  0  0  0
   45.3882   33.1459   45.4819 H   0  0  0  0  0  0  0  0  0  0  0  0
   51.3103   32.8619   41.5144 H   0  0  0  0  0  0  0  0  0  0  0  0
   49.8505   30.6391   40.1457 H   0  0  0  0  0  0  0  0  0  0  0  0
   51.4915   30.5250   40.7154 H   0  0  0  0  0  0  0  0  0  0  0  0
   49.2906   29.9686   42.3221 H   0  0  0  0  0  0  0  0  0  0  0  0
   50.7845   30.5728   43.0305 H   0  0  0  0  0  0  0  0  0  0  0  0
   48.2506   31.9503   43.0208 H   0  0  0  0  0  0  0  0  0  0  0  0
   49.7397   32.7261   43.4417 H   0  0  0  0  0  0  0  0  0  0  0  0
   48.5029   32.4296   40.5454 H   0  0  0  0  0  0  0  0  0  0  0  0
  1  8  1  0
  2  1  1  0
  3  4  1  0
  3  2  1  0
  4  5  1  0
  5  1  1  0
  5 12  1  0
  6 11  2  0
  7  6  1  0
  8  7  2  0
  8  9  1  0
  9 10  2  0
 10 11  1  0
 12 18  1  0
 13 14  1  0
 13 17  1  0
 14 15  1  0
 15 16  1  0
 17 12  1  0
 17 16  1  0
 18 21  1  0
 18 19  1  0
 20 18  1  0
  1 22  1  1
  2 23  1  0
  2 24  1  0
  3 25  1  0
  3 26  1  0
  4 27  1  0
  4 28  1  0
  5 29  1  6
  6 30  1  0
  7 31  1  0
 10 32  1  0
 13 33  1  0
 14 34  1  0
 14 35  1  0
 15 36  1  0
 15 37  1  0
 16 38  1  0
 16 39  1  0
 17 40  1  6
M  ISO  8  22  13  23  13  24  13  25  13  26  13  27  13  28  13  29  13
M  ISO  8  30  14  31  14  32  14  33   5  34  13  35  13  36  13  37  13
M  ISO  3  38  13  39  13  40  13
M  END
>  <minimizedAffinity>  (1) 
-5.45878124

>  <minimizedRMSD>  (1) 
0.516979873

$$$$
