
     RDKit          3D

 36 38  0  0  1  0  0  0  0  0999 V2000
   46.3880   33.6570   41.2340 C   0  0  1  0  0  0  0  0  0  0  0  0
   45.4900   33.6150   40.0880 C   0  0  0  0  0  0  0  0  0  0  0  0
   46.4270   33.1700   38.9920 C   0  0  0  0  0  0  0  0  0  0  0  0
   47.6660   34.0000   39.2790 C   0  0  0  0  0  0  0  0  0  0  0  0
   47.6070   34.4410   40.7000 C   0  0  2  0  0  0  0  0  0  0  0  0
   44.8450   35.9640   43.7910 C   0  0  0  0  0  0  0  0  0  0  0  0
   45.3260   35.4650   42.5670 C   0  0  0  0  0  0  0  0  0  0  0  0
   45.8880   34.1880   42.4810 C   0  0  0  0  0  0  0  0  0  0  0  0
   45.9320   33.4930   43.6310 N   0  0  0  0  0  0  0  0  0  0  0  0
   45.4770   33.9590   44.8020 C   0  0  0  0  0  0  0  0  0  0  0  0
   44.9270   35.2070   44.8810 N   0  0  0  0  0  0  0  0  0  0  0  0
   48.7650   33.9730   41.4150 N   0  0  0  0  0  0  0  0  0  0  0  0
   49.2490   32.6720   41.5150 C   0  0  0  0  0  0  0  0  0  0  0  0
   49.0000   31.8300   42.5910 C   0  0  0  0  0  0  0  0  0  0  0  0
   49.4860   30.5420   42.6800 C   0  0  0  0  0  0  0  0  0  0  0  0
   50.2450   30.0710   41.6650 N   0  0  0  0  0  0  0  0  0  0  0  0
   50.4770   30.9120   40.6200 C   0  0  0  0  0  0  0  0  0  0  0  0
   50.0090   32.1690   40.5240 N   0  0  0  0  0  0  0  0  0  0  0  0
   49.4570   34.9970   42.1420 C   0  0  0  0  0  0  0  0  0  0  0  0
   48.8820   35.0150   43.4120 F   0  0  0  0  0  0  0  0  0  0  0  0
   49.3960   36.2140   41.5460 F   0  0  0  0  0  0  0  0  0  0  0  0
   50.7880   34.7120   42.3660 F   0  0  0  0  0  0  0  0  0  0  0  0
   46.5988   32.6282   41.5614 H   0  0  0  0  0  0  0  0  0  0  0  0
   44.6764   32.8906   40.2406 H   0  0  0  0  0  0  0  0  0  0  0  0
   44.9777   34.5666   39.8829 H   0  0  0  0  0  0  0  0  0  0  0  0
   46.0153   33.3972   37.9976 H   0  0  0  0  0  0  0  0  0  0  0  0
   46.6125   32.0858   38.9804 H   0  0  0  0  0  0  0  0  0  0  0  0
   48.5683   33.3928   39.1140 H   0  0  0  0  0  0  0  0  0  0  0  0
   47.7043   34.8723   38.6100 H   0  0  0  0  0  0  0  0  0  0  0  0
   47.5537   35.5344   40.8083 H   0  0  0  0  0  0  0  0  0  0  0  0
   44.4053   36.9708   43.8459 H   0  0  0  0  0  0  0  0  0  0  0  0
   45.2589   36.0892   41.6637 H   0  0  0  0  0  0  0  0  0  0  0  0
   45.5467   33.3335   45.7042 H   0  0  0  0  0  0  0  0  0  0  0  0
   48.3816   32.2108   43.4172 H   0  0  0  0  0  0  0  0  0  0  0  0
   49.2617   29.9139   43.5548 H   0  0  0  0  0  0  0  0  0  0  0  0
   51.0941   30.5347   39.7912 H   0  0  0  0  0  0  0  0  0  0  0  0
  1  8  1  0
  2  1  1  0
  3  4  1  0
  3  2  1  0
  4  5  1  0
  5  1  1  0
  5 12  1  0
  6 11  2  0
  7  6  1  0
  8  7  2  0
  8  9  1  0
  9 10  2  0
 10 11  1  0
 12 13  1  0
 12 19  1  0
 13 14  2  0
 14 15  1  0
 16 15  2  0
 17 16  1  0
 18 17  2  0
 18 13  1  0
 19 22  1  0
 19 20  1  0
 21 19  1  0
  1 23  1  1
  2 24  1  0
  2 25  1  0
  3 26  1  0
  3 27  1  0
  4 28  1  0
  4 29  1  0
  5 30  1  6
  6 31  1  0
  7 32  1  0
 10 33  1  0
 14 34  1  0
 15 35  1  0
 17 36  1  0
M  ISO  8  23  13  24  13  25  13  26  13  27  13  28  13  29  13  30  13
M  ISO  6  31  14  32  14  33  14  34  14  35  14  36  14
M  END
>  <minimizedAffinity>  (1) 
-5.29547501

>  <minimizedRMSD>  (1) 
0.206799373

$$$$
