
     RDKit          3D

 41 43  0  0  1  0  0  0  0  0999 V2000
   46.2140   33.6160   41.3030 C   0  0  1  0  0  0  0  0  0  0  0  0
   45.2790   33.6430   40.1670 C   0  0  0  0  0  0  0  0  0  0  0  0
   46.1710   33.1570   39.0590 C   0  0  0  0  0  0  0  0  0  0  0  0
   47.4600   33.9120   39.3190 C   0  0  0  0  0  0  0  0  0  0  0  0
   47.4620   34.2950   40.7510 C   0  0  2  0  0  0  0  0  0  0  0  0
   44.8230   36.0280   43.8540 C   0  0  0  0  0  0  0  0  0  0  0  0
   45.2540   35.5000   42.6220 C   0  0  0  0  0  0  0  0  0  0  0  0
   45.7620   34.2030   42.5680 C   0  0  0  0  0  0  0  0  0  0  0  0
   45.8150   33.5070   43.7210 N   0  0  0  0  0  0  0  0  0  0  0  0
   45.4030   34.0170   44.8910 C   0  0  0  0  0  0  0  0  0  0  0  0
   44.9050   35.2800   44.9610 N   0  0  0  0  0  0  0  0  0  0  0  0
   48.6120   33.8480   41.4200 N   0  0  0  0  0  0  0  0  0  0  0  0
   49.0440   32.5410   41.4340 C   0  0  0  0  0  0  0  0  0  0  0  0
   50.4070   32.2430   40.8350 C   0  0  0  0  0  0  0  0  0  0  0  0
   51.0790   31.3170   41.8300 C   0  0  0  0  0  0  0  0  0  0  0  0
   50.0460   30.8410   42.7980 C   0  0  0  0  0  0  0  0  0  0  0  0
   48.9650   31.9000   42.7860 C   0  0  0  0  0  0  0  0  0  0  0  0
   49.3640   34.8240   42.1340 C   0  0  0  0  0  0  0  0  0  0  0  0
   48.8360   34.8890   43.4060 F   0  0  0  0  0  0  0  0  0  0  0  0
   49.3410   36.0360   41.5160 F   0  0  0  0  0  0  0  0  0  0  0  0
   50.6990   34.5160   42.3080 F   0  0  0  0  0  0  0  0  0  0  0  0
   46.3643   32.5763   41.6293 H   0  0  0  0  0  0  0  0  0  0  0  0
   44.4268   32.9662   40.3275 H   0  0  0  0  0  0  0  0  0  0  0  0
   44.8141   34.6226   39.9820 H   0  0  0  0  0  0  0  0  0  0  0  0
   45.7540   33.4104   38.0731 H   0  0  0  0  0  0  0  0  0  0  0  0
   46.2981   32.0644   39.0462 H   0  0  0  0  0  0  0  0  0  0  0  0
   48.3246   33.2683   39.0998 H   0  0  0  0  0  0  0  0  0  0  0  0
   47.5277   34.8022   38.6764 H   0  0  0  0  0  0  0  0  0  0  0  0
   47.4628   35.3866   40.8869 H   0  0  0  0  0  0  0  0  0  0  0  0
   44.4208   37.0505   43.9066 H   0  0  0  0  0  0  0  0  0  0  0  0
   45.1902   36.1075   41.7072 H   0  0  0  0  0  0  0  0  0  0  0  0
   45.4688   33.4067   45.8038 H   0  0  0  0  0  0  0  0  0  0  0  0
   48.3112   32.0921   40.7474 H   0  0  0  0  0  0  0  0  0  0  0  0
   50.3003   31.7489   39.8580 H   0  0  0  0  0  0  0  0  0  0  0  0
   50.9917   33.1586   40.6626 H   0  0  0  0  0  0  0  0  0  0  0  0
   51.5175   30.4578   41.3013 H   0  0  0  0  0  0  0  0  0  0  0  0
   51.8808   31.8497   42.3623 H   0  0  0  0  0  0  0  0  0  0  0  0
   49.6377   29.8707   42.4788 H   0  0  0  0  0  0  0  0  0  0  0  0
   50.4650   30.6959   43.8047 H   0  0  0  0  0  0  0  0  0  0  0  0
   49.1478   32.6443   43.5751 H   0  0  0  0  0  0  0  0  0  0  0  0
   47.9707   31.4689   42.9746 H   0  0  0  0  0  0  0  0  0  0  0  0
  1  8  1  0
  2  1  1  0
  3  4  1  0
  3  2  1  0
  4  5  1  0
  5  1  1  0
  5 12  1  0
  6 11  2  0
  7  6  1  0
  8  7  2  0
  8  9  1  0
  9 10  2  0
 10 11  1  0
 12 13  1  0
 12 18  1  0
 13 17  1  0
 14 13  1  0
 14 15  1  0
 15 16  1  0
 17 16  1  0
 18 21  1  0
 18 19  1  0
 20 18  1  0
  1 22  1  1
  2 23  1  0
  2 24  1  0
  3 25  1  0
  3 26  1  0
  4 27  1  0
  4 28  1  0
  5 29  1  6
  6 30  1  0
  7 31  1  0
 10 32  1  0
 13 33  1  0
 14 34  1  0
 14 35  1  0
 15 36  1  0
 15 37  1  0
 16 38  1  0
 16 39  1  0
 17 40  1  0
 17 41  1  0
M  ISO  8  22  13  23  13  24  13  25  13  26  13  27  13  28  13  29  13
M  ISO  8  30  14  31  14  32  14  33  13  34  13  35  13  36  13  37  13
M  ISO  4  38  13  39  13  40  13  41  13
M  END
>  <minimizedAffinity>  (1) 
-5.25821733

>  <minimizedRMSD>  (1) 
0.541625798

$$$$
