
     RDKit          3D

 30 31  0  0  1  0  0  0  0  0999 V2000
   46.4040   33.6410   41.2250 C   0  0  1  0  0  0  0  0  0  0  0  0
   45.5040   33.6720   40.0730 C   0  0  0  0  0  0  0  0  0  0  0  0
   46.4290   33.2340   38.9600 C   0  0  0  0  0  0  0  0  0  0  0  0
   47.6980   34.0080   39.2830 C   0  0  0  0  0  0  0  0  0  0  0  0
   47.6140   34.4440   40.7210 C   0  0  2  0  0  0  0  0  0  0  0  0
   44.8700   35.9530   43.8090 C   0  0  0  0  0  0  0  0  0  0  0  0
   45.3430   35.4660   42.5770 C   0  0  0  0  0  0  0  0  0  0  0  0
   45.9080   34.1700   42.4840 C   0  0  0  0  0  0  0  0  0  0  0  0
   45.9640   33.4520   43.6160 N   0  0  0  0  0  0  0  0  0  0  0  0
   45.5080   33.9290   44.7920 C   0  0  0  0  0  0  0  0  0  0  0  0
   44.9610   35.1760   44.8940 N   0  0  0  0  0  0  0  0  0  0  0  0
   48.7890   33.9570   41.3770 N   0  0  0  0  0  0  0  0  0  0  0  0
   49.2370   32.6300   41.1300 C   0  0  0  0  0  0  0  0  0  0  0  0
   50.4780   32.3730   41.2050 O   0  0  0  0  0  0  0  0  0  0  0  0
   49.4690   34.8970   42.1970 C   0  0  0  0  0  0  0  0  0  0  0  0
   48.9490   34.8060   43.4900 F   0  0  0  0  0  0  0  0  0  0  0  0
   49.3040   36.1690   41.7460 F   0  0  0  0  0  0  0  0  0  0  0  0
   50.8200   34.6460   42.3530 F   0  0  0  0  0  0  0  0  0  0  0  0
   46.5992   32.5971   41.5116 H   0  0  0  0  0  0  0  0  0  0  0  0
   44.6655   32.9712   40.1985 H   0  0  0  0  0  0  0  0  0  0  0  0
   45.0255   34.6476   39.9023 H   0  0  0  0  0  0  0  0  0  0  0  0
   46.0295   33.5144   37.9742 H   0  0  0  0  0  0  0  0  0  0  0  0
   46.5745   32.1450   38.9060 H   0  0  0  0  0  0  0  0  0  0  0  0
   48.5774   33.3633   39.1377 H   0  0  0  0  0  0  0  0  0  0  0  0
   47.7963   34.8808   38.6207 H   0  0  0  0  0  0  0  0  0  0  0  0
   47.5295   35.5291   40.8804 H   0  0  0  0  0  0  0  0  0  0  0  0
   44.4312   36.9592   43.8792 H   0  0  0  0  0  0  0  0  0  0  0  0
   45.2737   36.0966   41.6783 H   0  0  0  0  0  0  0  0  0  0  0  0
   45.5784   33.2985   45.6906 H   0  0  0  0  0  0  0  0  0  0  0  0
   48.5179   31.8369   40.8774 H   0  0  0  0  0  0  0  0  0  0  0  0
  1  8  1  0
  2  1  1  0
  3  4  1  0
  3  2  1  0
  4  5  1  0
  5  1  1  0
  5 12  1  0
  6 11  2  0
  7  6  1  0
  8  7  2  0
  8  9  1  0
  9 10  2  0
 10 11  1  0
 12 15  1  0
 13 14  2  0
 13 12  1  0
 15 18  1  0
 15 16  1  0
 17 15  1  0
  1 19  1  1
  2 20  1  0
  2 21  1  0
  3 22  1  0
  3 23  1  0
  4 24  1  0
  4 25  1  0
  5 26  1  6
  6 27  1  0
  7 28  1  0
 10 29  1  0
 13 30  1  0
M  ISO  8  19  13  20  13  21  13  22  13  23  13  24  13  25  13  26  13
M  ISO  4  27  14  28  14  29  14  30   6
M  END
>  <minimizedAffinity>  (1) 
-5.10041475

>  <minimizedRMSD>  (1) 
0.145734057

$$$$
