
     RDKit          3D

 17 18  0  0  0  0  0  0  0  0999 V2000
   44.2250   35.5820   43.7250 C   0  0  0  0  0  0  0  0  0  0  0  0
   44.3600   34.4470   42.9140 C   0  0  0  0  0  0  0  0  0  0  0  0
   45.0090   33.3250   43.4210 C   0  0  0  0  0  0  0  0  0  0  0  0
   45.4890   33.3870   44.7030 N   0  0  0  0  0  0  0  0  0  0  0  0
   45.3430   34.4900   45.4550 C   0  0  0  0  0  0  0  0  0  0  0  0
   44.7200   35.5810   44.9810 N   0  0  0  0  0  0  0  0  0  0  0  0
   43.8090   34.5440   41.6120 N   0  0  0  0  0  0  0  0  0  0  0  0
   44.1410   33.6750   40.6910 N   0  0  0  0  0  0  0  0  0  0  0  0
   43.4850   33.9730   39.5310 C   0  0  0  0  0  0  0  0  0  0  0  0
   42.7280   35.1080   39.8430 C   0  0  0  0  0  0  0  0  0  0  0  0
   42.9450   35.4620   41.1790 C   0  0  0  0  0  0  0  0  0  0  0  0
   43.7145   36.4758   43.3372 H   0  0  0  0  0  0  0  0  0  0  0  0
   45.1327   32.4174   42.8120 H   0  0  0  0  0  0  0  0  0  0  0  0
   45.7419   34.4999   46.4801 H   0  0  0  0  0  0  0  0  0  0  0  0
   43.5393   33.4415   38.5695 H   0  0  0  0  0  0  0  0  0  0  0  0
   42.0645   35.6399   39.1452 H   0  0  0  0  0  0  0  0  0  0  0  0
   42.5061   36.3003   41.7399 H   0  0  0  0  0  0  0  0  0  0  0  0
  1  6  2  0
  2  3  2  0
  2  1  1  0
  3  4  1  0
  4  5  2  0
  6  5  1  0
  7  2  1  0
  8  7  1  0
  9 10  1  0
  9  8  2  0
 10 11  2  0
 11  7  1  0
  1 12  1  0
  3 13  1  0
  5 14  1  0
  9 15  1  0
 10 16  1  0
 11 17  1  0
M  ISO  6  12  14  13  14  14  14  15  14  16  14  17  14
M  END
>  <minimizedAffinity>  (1) 
-3.14659762

>  <minimizedRMSD>  (1) 
2.37659431

$$$$
