
     RDKit          3D

 27 29  0  0  0  0  0  0  0  0999 V2000
   44.6280   34.0140   41.0100 N   0  0  0  0  0  0  0  0  0  0  0  0
   45.6450   33.4020   40.4170 N   0  0  0  0  0  0  0  0  0  0  0  0
   45.2980   33.0850   39.1410 C   0  0  0  0  0  0  0  0  0  0  0  0
   43.9750   33.5660   39.0240 C   0  0  0  0  0  0  0  0  0  0  0  0
   43.5650   34.1610   40.2420 C   0  0  0  0  0  0  0  0  0  0  0  0
   44.5850   35.7290   42.6490 C   0  0  0  0  0  0  0  0  0  0  0  0
   44.7500   34.3960   42.3520 C   0  0  0  0  0  0  0  0  0  0  0  0
   45.0130   33.5190   43.4260 C   0  0  0  0  0  0  0  0  0  0  0  0
   45.0930   34.0090   44.6920 N   0  0  0  0  0  0  0  0  0  0  0  0
   44.9210   35.3310   44.9300 C   0  0  0  0  0  0  0  0  0  0  0  0
   44.6670   36.1960   43.9090 N   0  0  0  0  0  0  0  0  0  0  0  0
   42.2270   34.6220   40.1970 C   0  0  0  0  0  0  0  0  0  0  0  0
   41.4920   35.6260   40.7690 C   0  0  0  0  0  0  0  0  0  0  0  0
   40.1570   35.8940   40.6480 C   0  0  0  0  0  0  0  0  0  0  0  0
   39.4270   35.0560   39.8450 C   0  0  0  0  0  0  0  0  0  0  0  0
   39.9960   34.0060   39.1960 C   0  0  0  0  0  0  0  0  0  0  0  0
   41.3630   33.8340   39.3980 C   0  0  0  0  0  0  0  0  0  0  0  0
   45.9049   32.5741   38.3790 H   0  0  0  0  0  0  0  0  0  0  0  0
   43.3541   33.4896   38.1192 H   0  0  0  0  0  0  0  0  0  0  0  0
   44.3796   36.4355   41.8313 H   0  0  0  0  0  0  0  0  0  0  0  0
   45.1527   32.4439   43.2399 H   0  0  0  0  0  0  0  0  0  0  0  0
   44.9872   35.7108   45.9602 H   0  0  0  0  0  0  0  0  0  0  0  0
   42.0552   36.3136   41.4171 H   0  0  0  0  0  0  0  0  0  0  0  0
   39.6903   36.7422   41.1703 H   0  0  0  0  0  0  0  0  0  0  0  0
   38.3492   35.2388   39.7224 H   0  0  0  0  0  0  0  0  0  0  0  0
   39.4123   33.3332   38.5506 H   0  0  0  0  0  0  0  0  0  0  0  0
   41.8271   32.9850   38.8747 H   0  0  0  0  0  0  0  0  0  0  0  0
  1  7  1  0
  2  1  1  0
  3  2  2  0
  4  3  1  0
  4  5  2  0
  5  1  1  0
  6 11  2  0
  7  6  1  0
  7  8  2  0
  8  9  1  0
  9 10  2  0
 11 10  1  0
 12  5  1  0
 12 13  2  0
 14 13  1  0
 15 14  2  0
 16 17  2  0
 16 15  1  0
 17 12  1  0
  3 18  1  0
  4 19  1  0
  6 20  1  0
  8 21  1  0
 10 22  1  0
 13 23  1  0
 14 24  1  0
 15 25  1  0
 16 26  1  0
 17 27  1  0
M  ISO  8  18  14  19  14  20  14  21  14  22  14  23  14  24  14  25  14
M  ISO  2  26  14  27  14
M  END
>  <minimizedAffinity>  (1) 
-4.88153458

>  <minimizedRMSD>  (1) 
2.20492792

$$$$
