
     RDKit          3D

 32 34  0  0  0  0  0  0  0  0999 V2000
   44.5200   33.9980   41.4250 N   0  0  0  0  0  0  0  0  0  0  0  0
   45.5550   33.7130   40.6740 N   0  0  0  0  0  0  0  0  0  0  0  0
   45.1250   33.4610   39.4060 C   0  0  0  0  0  0  0  0  0  0  0  0
   43.7460   33.6160   39.4530 C   0  0  0  0  0  0  0  0  0  0  0  0
   43.3880   33.9590   40.7500 C   0  0  0  0  0  0  0  0  0  0  0  0
   44.3420   35.5580   43.2160 C   0  0  0  0  0  0  0  0  0  0  0  0
   44.6820   34.2890   42.7860 C   0  0  0  0  0  0  0  0  0  0  0  0
   45.1620   33.3820   43.7430 C   0  0  0  0  0  0  0  0  0  0  0  0
   45.2780   33.7710   45.0420 N   0  0  0  0  0  0  0  0  0  0  0  0
   44.9310   35.0270   45.4130 C   0  0  0  0  0  0  0  0  0  0  0  0
   44.4640   35.9170   44.5040 N   0  0  0  0  0  0  0  0  0  0  0  0
   42.0220   34.1800   41.0290 N   0  0  0  0  0  0  0  0  0  0  0  0
   41.1130   33.0440   41.0660 C   0  0  0  0  0  0  0  0  0  0  0  0
   40.0210   33.1880   40.0240 C   0  0  0  0  0  0  0  0  0  0  0  0
   39.2340   34.4630   40.3330 C   0  0  0  0  0  0  0  0  0  0  0  0
   40.2140   35.6130   40.2380 C   0  0  0  0  0  0  0  0  0  0  0  0
   41.2590   35.4150   41.2830 C   0  0  0  0  0  0  0  0  0  0  0  0
   45.7382   33.1926   38.5331 H   0  0  0  0  0  0  0  0  0  0  0  0
   43.0548   33.4887   38.6068 H   0  0  0  0  0  0  0  0  0  0  0  0
   43.9633   36.2896   42.4871 H   0  0  0  0  0  0  0  0  0  0  0  0
   45.4432   32.3613   43.4447 H   0  0  0  0  0  0  0  0  0  0  0  0
   45.0297   35.3284   46.4663 H   0  0  0  0  0  0  0  0  0  0  0  0
   41.6803   32.1227   40.8676 H   0  0  0  0  0  0  0  0  0  0  0  0
   40.6451   33.0017   42.0606 H   0  0  0  0  0  0  0  0  0  0  0  0
   39.3503   32.3170   40.0640 H   0  0  0  0  0  0  0  0  0  0  0  0
   40.4603   33.2461   39.0172 H   0  0  0  0  0  0  0  0  0  0  0  0
   38.4231   34.5946   39.6015 H   0  0  0  0  0  0  0  0  0  0  0  0
   38.7775   34.4137   41.3326 H   0  0  0  0  0  0  0  0  0  0  0  0
   40.6800   35.6251   39.2416 H   0  0  0  0  0  0  0  0  0  0  0  0
   39.6956   36.5708   40.3925 H   0  0  0  0  0  0  0  0  0  0  0  0
   40.7754   35.3445   42.2685 H   0  0  0  0  0  0  0  0  0  0  0  0
   41.9509   36.2698   41.2578 H   0  0  0  0  0  0  0  0  0  0  0  0
  1  7  1  0
  2  1  1  0
  3  4  1  0
  3  2  2  0
  4  5  2  0
  5 12  1  0
  5  1  1  0
  6 11  2  0
  7  6  1  0
  7  8  2  0
  8  9  1  0
  9 10  2  0
 11 10  1  0
 12 13  1  0
 12 17  1  0
 14 15  1  0
 14 13  1  0
 16 15  1  0
 16 17  1  0
  3 18  1  0
  4 19  1  0
  6 20  1  0
  8 21  1  0
 10 22  1  0
 13 23  1  0
 13 24  1  0
 14 25  1  0
 14 26  1  0
 15 27  1  0
 15 28  1  0
 16 29  1  0
 16 30  1  0
 17 31  1  0
 17 32  1  0
M  ISO  8  18  14  19  14  20  14  21  14  22  14  23  13  24  13  25  13
M  ISO  7  26  13  27  13  28  13  29  13  30  13  31  13  32  13
M  END
>  <minimizedAffinity>  (1) 
-4.72587729

>  <minimizedRMSD>  (1) 
2.25865245

$$$$
