
     RDKit          3D

 27 29  0  0  0  0  0  0  0  0999 V2000
   44.7440   33.4620   40.1300 N   0  0  0  0  0  0  0  0  0  0  0  0
   45.6110   32.8140   39.3690 N   0  0  0  0  0  0  0  0  0  0  0  0
   45.0440   32.7380   38.1110 C   0  0  0  0  0  0  0  0  0  0  0  0
   43.7930   33.3860   38.2060 C   0  0  0  0  0  0  0  0  0  0  0  0
   43.6090   33.8500   39.5220 C   0  0  0  0  0  0  0  0  0  0  0  0
   45.8450   34.8570   41.7430 C   0  0  0  0  0  0  0  0  0  0  0  0
   45.0600   33.7120   41.4820 C   0  0  0  0  0  0  0  0  0  0  0  0
   44.6380   32.8940   42.5500 C   0  0  0  0  0  0  0  0  0  0  0  0
   45.0250   33.2680   43.8160 N   0  0  0  0  0  0  0  0  0  0  0  0
   45.7770   34.3750   44.0280 C   0  0  0  0  0  0  0  0  0  0  0  0
   46.1920   35.1720   43.0120 N   0  0  0  0  0  0  0  0  0  0  0  0
   42.3990   34.5330   39.8820 C   0  0  0  0  0  0  0  0  0  0  0  0
   42.1640   35.3580   40.9880 C   0  0  0  0  0  0  0  0  0  0  0  0
   40.9400   35.9530   41.2090 C   0  0  0  0  0  0  0  0  0  0  0  0
   39.9220   35.7290   40.3120 C   0  0  0  0  0  0  0  0  0  0  0  0
   40.0720   34.9320   39.1980 C   0  0  0  0  0  0  0  0  0  0  0  0
   41.3030   34.3680   39.0280 C   0  0  0  0  0  0  0  0  0  0  0  0
   45.4791   32.2679   37.2167 H   0  0  0  0  0  0  0  0  0  0  0  0
   43.0754   33.5088   37.3814 H   0  0  0  0  0  0  0  0  0  0  0  0
   46.1757   35.4955   40.9105 H   0  0  0  0  0  0  0  0  0  0  0  0
   44.0261   31.9961   42.3784 H   0  0  0  0  0  0  0  0  0  0  0  0
   46.0604   34.6360   45.0583 H   0  0  0  0  0  0  0  0  0  0  0  0
   42.9808   35.5371   41.7027 H   0  0  0  0  0  0  0  0  0  0  0  0
   40.7806   36.5956   42.0874 H   0  0  0  0  0  0  0  0  0  0  0  0
   38.9472   36.2060   40.4913 H   0  0  0  0  0  0  0  0  0  0  0  0
   39.2491   34.7607   38.4885 H   0  0  0  0  0  0  0  0  0  0  0  0
   41.4458   33.7291   38.1440 H   0  0  0  0  0  0  0  0  0  0  0  0
  1  7  1  0
  2  1  1  0
  3  4  1  0
  3  2  2  0
  4  5  2  0
  5 12  1  0
  5  1  1  0
  6 11  2  0
  7  6  1  0
  7  8  2  0
  8  9  1  0
  9 10  2  0
 11 10  1  0
 12 13  2  0
 13 14  1  0
 15 14  2  0
 16 15  1  0
 17 16  2  0
 17 12  1  0
  3 18  1  0
  4 19  1  0
  6 20  1  0
  8 21  1  0
 10 22  1  0
 13 23  1  0
 14 24  1  0
 15 25  1  0
 16 26  1  0
 17 27  1  0
M  ISO  8  18  14  19  14  20  14  21  14  22  14  23  14  24  14  25  14
M  ISO  2  26  14  27  14
M  END
>  <minimizedAffinity>  (1) 
-4.55953121

>  <minimizedRMSD>  (1) 
2.51610422

$$$$
