
     RDKit          3D

 25 27  0  0  0  0  0  0  0  0999 V2000
   44.8010   33.9090   41.5050 N   0  0  0  0  0  0  0  0  0  0  0  0
   45.9470   33.5320   40.9150 N   0  0  0  0  0  0  0  0  0  0  0  0
   45.6490   33.3080   39.5840 C   0  0  0  0  0  0  0  0  0  0  0  0
   44.2860   33.5740   39.4650 C   0  0  0  0  0  0  0  0  0  0  0  0
   43.7340   33.9630   40.7290 C   0  0  0  0  0  0  0  0  0  0  0  0
   44.4250   35.5920   43.2010 C   0  0  0  0  0  0  0  0  0  0  0  0
   44.8210   34.2860   42.8580 C   0  0  0  0  0  0  0  0  0  0  0  0
   45.2520   33.4010   43.8950 C   0  0  0  0  0  0  0  0  0  0  0  0
   45.2460   33.9050   45.1810 N   0  0  0  0  0  0  0  0  0  0  0  0
   44.8500   35.1710   45.4500 C   0  0  0  0  0  0  0  0  0  0  0  0
   44.4330   36.0360   44.4670 N   0  0  0  0  0  0  0  0  0  0  0  0
   42.3360   34.1950   40.7120 C   0  0  0  0  0  0  0  0  0  0  0  0
   41.5230   35.2450   40.4350 C   0  0  0  0  0  0  0  0  0  0  0  0
   40.1840   35.4020   40.5460 C   0  0  0  0  0  0  0  0  0  0  0  0
   39.5760   34.2910   41.0270 N   0  0  0  0  0  0  0  0  0  0  0  0
   40.2260   33.1880   41.3480 C   0  0  0  0  0  0  0  0  0  0  0  0
   41.4970   33.3730   41.1190 N   0  0  0  0  0  0  0  0  0  0  0  0
   46.3393   32.9885   38.7894 H   0  0  0  0  0  0  0  0  0  0  0  0
   43.7128   33.4961   38.5294 H   0  0  0  0  0  0  0  0  0  0  0  0
   44.0970   36.2735   42.4023 H   0  0  0  0  0  0  0  0  0  0  0  0
   45.5722   32.3709   43.6796 H   0  0  0  0  0  0  0  0  0  0  0  0
   44.8624   35.5201   46.4931 H   0  0  0  0  0  0  0  0  0  0  0  0
   42.0488   36.1310   40.0496 H   0  0  0  0  0  0  0  0  0  0  0  0
   39.6503   36.3254   40.2767 H   0  0  0  0  0  0  0  0  0  0  0  0
   39.7721   32.2670   41.7425 H   0  0  0  0  0  0  0  0  0  0  0  0
  1  7  1  0
  2  1  1  0
  3  2  2  0
  4  3  1  0
  4  5  2  0
  5  1  1  0
  6 11  2  0
  7  6  1  0
  7  8  2  0
  8  9  1  0
  9 10  2  0
 11 10  1  0
 12  5  1  0
 12 17  2  0
 13 14  2  0
 13 12  1  0
 14 15  1  0
 15 16  2  0
 17 16  1  0
  3 18  1  0
  4 19  1  0
  6 20  1  0
  8 21  1  0
 10 22  1  0
 13 23  1  0
 14 24  1  0
 16 25  1  0
M  ISO  8  18  14  19  14  20  14  21  14  22  14  23  14  24  14  25  14
M  END
>  <minimizedAffinity>  (1) 
-4.49087143

>  <minimizedRMSD>  (1) 
2.21614647

$$$$
