
     RDKit          3D

 33 36  0  0  0  0  0  0  0  0999 V2000
   43.8890   31.8860   40.0840 N   0  0  0  0  0  0  0  0  0  0  0  0
   44.5500   31.8090   41.2330 N   0  0  0  0  0  0  0  0  0  0  0  0
   43.6750   31.9040   42.2660 C   0  0  0  0  0  0  0  0  0  0  0  0
   42.4190   32.0440   41.6320 C   0  0  0  0  0  0  0  0  0  0  0  0
   42.5840   32.0290   40.2250 C   0  0  0  0  0  0  0  0  0  0  0  0
   41.3480   32.2100   39.5660 C   0  0  0  0  0  0  0  0  0  0  0  0
   40.2350   31.4200   39.3800 C   0  0  0  0  0  0  0  0  0  0  0  0
   39.0840   31.6620   38.6810 C   0  0  0  0  0  0  0  0  0  0  0  0
   39.0290   32.8830   38.0690 C   0  0  0  0  0  0  0  0  0  0  0  0
   40.0550   33.7810   38.1570 C   0  0  0  0  0  0  0  0  0  0  0  0
   39.8990   34.9790   37.4980 C   0  0  0  0  0  0  0  0  0  0  0  0
   40.9110   35.9080   37.5570 C   0  0  0  0  0  0  0  0  0  0  0  0
   42.0470   35.6210   38.2680 C   0  0  0  0  0  0  0  0  0  0  0  0
   42.1510   34.4090   38.9100 C   0  0  0  0  0  0  0  0  0  0  0  0
   41.1680   33.4330   38.8890 C   0  0  0  0  0  0  0  0  0  0  0  0
   44.3330   30.8110   37.9990 C   0  0  0  0  0  0  0  0  0  0  0  0
   44.5710   31.8610   38.8560 C   0  0  0  0  0  0  0  0  0  0  0  0
   45.4680   32.8800   38.4550 C   0  0  0  0  0  0  0  0  0  0  0  0
   46.0620   32.7810   37.2280 N   0  0  0  0  0  0  0  0  0  0  0  0
   45.7860   31.7310   36.4380 C   0  0  0  0  0  0  0  0  0  0  0  0
   44.9270   30.7410   36.8080 N   0  0  0  0  0  0  0  0  0  0  0  0
   43.8921   31.8781   43.3441 H   0  0  0  0  0  0  0  0  0  0  0  0
   41.4564   32.1490   42.1539 H   0  0  0  0  0  0  0  0  0  0  0  0
   40.2786   30.4373   39.8723 H   0  0  0  0  0  0  0  0  0  0  0  0
   38.2655   30.9300   38.6165 H   0  0  0  0  0  0  0  0  0  0  0  0
   38.1332   33.1502   37.4892 H   0  0  0  0  0  0  0  0  0  0  0  0
   38.9792   35.1901   36.9329 H   0  0  0  0  0  0  0  0  0  0  0  0
   40.8098   36.8727   37.0383 H   0  0  0  0  0  0  0  0  0  0  0  0
   42.8669   36.3522   38.3246 H   0  0  0  0  0  0  0  0  0  0  0  0
   43.0717   34.2018   39.4751 H   0  0  0  0  0  0  0  0  0  0  0  0
   43.6388   30.0137   38.3029 H   0  0  0  0  0  0  0  0  0  0  0  0
   45.6822   33.7326   39.1162 H   0  0  0  0  0  0  0  0  0  0  0  0
   46.2727   31.6679   35.4535 H   0  0  0  0  0  0  0  0  0  0  0  0
  1  5  1  0
  1  2  1  0
  2  3  2  0
  4  3  1  0
  5  4  2  0
  6  5  1  0
  7  6  2  0
  8  7  1  0
  9 10  1  0
  9  8  2  0
 10 15  2  0
 11 12  2  0
 11 10  1  0
 12 13  1  0
 13 14  2  0
 15 14  1  0
 15  6  1  0
 16 17  2  0
 17  1  1  0
 18 17  1  0
 19 18  2  0
 20 21  2  0
 20 19  1  0
 21 16  1  0
  3 22  1  0
  4 23  1  0
  7 24  1  0
  8 25  1  0
  9 26  1  0
 11 27  1  0
 12 28  1  0
 13 29  1  0
 14 30  1  0
 16 31  1  0
 18 32  1  0
 20 33  1  0
M  ISO  8  22  14  23  14  24  14  25  14  26  14  27  14  28  14  29  14
M  ISO  4  30  14  31  14  32  14  33  14
M  END
>  <minimizedAffinity>  (1) 
-4.42550659

>  <minimizedRMSD>  (1) 
5.53075314

$$$$
