
     RDKit          3D

 30 32  0  0  0  0  0  0  0  0999 V2000
   44.7260   33.9370   41.0870 N   0  0  0  0  0  0  0  0  0  0  0  0
   45.8160   33.5100   40.4710 N   0  0  0  0  0  0  0  0  0  0  0  0
   45.4950   33.1600   39.2080 C   0  0  0  0  0  0  0  0  0  0  0  0
   44.1080   33.4110   39.1110 C   0  0  0  0  0  0  0  0  0  0  0  0
   43.6580   33.9020   40.3210 C   0  0  0  0  0  0  0  0  0  0  0  0
   44.5360   35.6910   42.6950 C   0  0  0  0  0  0  0  0  0  0  0  0
   44.7900   34.3560   42.4330 C   0  0  0  0  0  0  0  0  0  0  0  0
   45.0960   33.4750   43.4930 C   0  0  0  0  0  0  0  0  0  0  0  0
   45.1270   33.9910   44.7530 N   0  0  0  0  0  0  0  0  0  0  0  0
   44.8740   35.2890   44.9590 C   0  0  0  0  0  0  0  0  0  0  0  0
   44.5790   36.1460   43.9500 N   0  0  0  0  0  0  0  0  0  0  0  0
   42.2970   34.2300   40.4280 N   0  0  0  0  0  0  0  0  0  0  0  0
   41.1990   33.6870   41.2450 C   0  0  0  0  0  0  0  0  0  0  0  0
   39.9770   33.6960   40.3410 C   0  0  0  0  0  0  0  0  0  0  0  0
   39.4910   34.9990   40.3200 O   0  0  0  0  0  0  0  0  0  0  0  0
   40.5250   35.9120   40.1650 C   0  0  0  0  0  0  0  0  0  0  0  0
   41.7600   35.3000   39.5650 C   0  0  0  0  0  0  0  0  0  0  0  0
   46.1638   32.7670   38.4281 H   0  0  0  0  0  0  0  0  0  0  0  0
   43.4880   33.2429   38.2180 H   0  0  0  0  0  0  0  0  0  0  0  0
   44.2986   36.3777   41.8692 H   0  0  0  0  0  0  0  0  0  0  0  0
   45.3019   32.4104   43.3079 H   0  0  0  0  0  0  0  0  0  0  0  0
   44.9066   35.6763   45.9880 H   0  0  0  0  0  0  0  0  0  0  0  0
   41.4309   32.6613   41.5677 H   0  0  0  0  0  0  0  0  0  0  0  0
   41.0365   34.2808   42.1566 H   0  0  0  0  0  0  0  0  0  0  0  0
   40.2575   33.3819   39.3248 H   0  0  0  0  0  0  0  0  0  0  0  0
   39.2111   32.9993   40.7125 H   0  0  0  0  0  0  0  0  0  0  0  0
   40.1807   36.7241   39.5077 H   0  0  0  0  0  0  0  0  0  0  0  0
   40.7923   36.2814   41.1660 H   0  0  0  0  0  0  0  0  0  0  0  0
   41.5091   34.8761   38.5815 H   0  0  0  0  0  0  0  0  0  0  0  0
   42.5247   36.0843   39.4649 H   0  0  0  0  0  0  0  0  0  0  0  0
  1  7  1  0
  2  1  1  0
  3  2  2  0
  4  3  1  0
  4  5  2  0
  5 12  1  0
  5  1  1  0
  6 11  2  0
  7  6  1  0
  7  8  2  0
  8  9  1  0
  9 10  2  0
 11 10  1  0
 12 13  1  0
 14 13  1  0
 15 14  1  0
 16 15  1  0
 17 16  1  0
 17 12  1  0
  3 18  1  0
  4 19  1  0
  6 20  1  0
  8 21  1  0
 10 22  1  0
 13 23  1  0
 13 24  1  0
 14 25  1  0
 14 26  1  0
 16 27  1  0
 16 28  1  0
 17 29  1  0
 17 30  1  0
M  ISO  8  18  14  19  14  20  14  21  14  22  14  23  13  24  13  25  13
M  ISO  5  26  13  27  13  28  13  29  13  30  13
M  END
>  <minimizedAffinity>  (1) 
-4.34695482

>  <minimizedRMSD>  (1) 
2.54249907

$$$$
