
     RDKit          3D

 24 26  0  0  0  0  0  0  0  0999 V2000
   40.8620   33.9430   41.0570 N   0  0  0  0  0  0  0  0  0  0  0  0
   39.7290   34.2580   40.4200 N   0  0  0  0  0  0  0  0  0  0  0  0
   39.7200   35.6290   40.2700 C   0  0  0  0  0  0  0  0  0  0  0  0
   40.9220   36.0650   40.8660 C   0  0  0  0  0  0  0  0  0  0  0  0
   41.6690   34.9610   41.3850 C   0  0  0  0  0  0  0  0  0  0  0  0
   42.1470   31.9940   40.4670 C   0  0  0  0  0  0  0  0  0  0  0  0
   41.1510   32.5790   41.2810 C   0  0  0  0  0  0  0  0  0  0  0  0
   40.4920   31.7980   42.2560 C   0  0  0  0  0  0  0  0  0  0  0  0
   40.8610   30.4760   42.3700 N   0  0  0  0  0  0  0  0  0  0  0  0
   41.8270   29.9520   41.5670 C   0  0  0  0  0  0  0  0  0  0  0  0
   42.4740   30.6910   40.6190 N   0  0  0  0  0  0  0  0  0  0  0  0
   42.8940   35.2050   42.0490 C   0  0  0  0  0  0  0  0  0  0  0  0
   44.1510   35.0540   41.4510 C   0  0  0  0  0  0  0  0  0  0  0  0
   45.1520   35.2940   42.3080 N   0  0  0  0  0  0  0  0  0  0  0  0
   44.6110   35.6110   43.4930 C   0  0  0  0  0  0  0  0  0  0  0  0
   43.2960   35.5420   43.2780 N   0  0  0  0  0  0  0  0  0  0  0  0
   38.9459   36.2466   39.7910 H   0  0  0  0  0  0  0  0  0  0  0  0
   41.2426   37.1156   40.9240 H   0  0  0  0  0  0  0  0  0  0  0  0
   42.6587   32.6016   39.7061 H   0  0  0  0  0  0  0  0  0  0  0  0
   39.7124   32.2299   42.9008 H   0  0  0  0  0  0  0  0  0  0  0  0
   42.0967   28.8923   41.6865 H   0  0  0  0  0  0  0  0  0  0  0  0
   44.2994   34.7708   40.3985 H   0  0  0  0  0  0  0  0  0  0  0  0
   45.1314   35.8686   44.4273 H   0  0  0  0  0  0  0  0  0  0  0  0
   42.6188   35.7403   44.0283 H   0  0  0  0  0  0  0  0  0  0  0  0
  1  7  1  0
  1  5  1  0
  2  1  1  0
  3  2  2  0
  3  4  1  0
  4  5  2  0
  5 12  1  0
  6 11  2  0
  6  7  1  0
  7  8  2  0
  8  9  1  0
 10  9  2  0
 11 10  1  0
 12 16  1  0
 13 12  2  0
 13 14  1  0
 14 15  2  0
 16 15  1  0
  3 17  1  0
  4 18  1  0
  6 19  1  0
  8 20  1  0
 10 21  1  0
 13 22  1  0
 15 23  1  0
 16 24  1  0
M  ISO  8  17  14  18  14  19  14  20  14  21  14  22  14  23  14  24   9
M  END
>  <minimizedAffinity>  (1) 
-4.28737545

>  <minimizedRMSD>  (1) 
4.546422

$$$$
