
     RDKit          3D

 24 26  0  0  0  0  0  0  0  0999 V2000
   40.9060   34.2090   39.1750 N   0  0  0  0  0  0  0  0  0  0  0  0
   40.1210   34.6090   38.1670 N   0  0  0  0  0  0  0  0  0  0  0  0
   40.7920   35.5980   37.5010 C   0  0  0  0  0  0  0  0  0  0  0  0
   42.0170   35.7420   38.1900 C   0  0  0  0  0  0  0  0  0  0  0  0
   42.0880   34.8310   39.2900 C   0  0  0  0  0  0  0  0  0  0  0  0
   40.4440   31.8630   39.4530 C   0  0  0  0  0  0  0  0  0  0  0  0
   40.4560   33.1600   40.0130 C   0  0  0  0  0  0  0  0  0  0  0  0
   40.0420   33.3680   41.3530 C   0  0  0  0  0  0  0  0  0  0  0  0
   39.6360   32.2610   42.0700 N   0  0  0  0  0  0  0  0  0  0  0  0
   39.6420   31.0270   41.4920 C   0  0  0  0  0  0  0  0  0  0  0  0
   40.0370   30.8090   40.2020 N   0  0  0  0  0  0  0  0  0  0  0  0
   43.2120   34.8080   40.1930 C   0  0  0  0  0  0  0  0  0  0  0  0
   43.2550   35.5480   41.3540 C   0  0  0  0  0  0  0  0  0  0  0  0
   44.4270   35.3550   42.0370 C   0  0  0  0  0  0  0  0  0  0  0  0
   45.1020   34.4640   41.2440 C   0  0  0  0  0  0  0  0  0  0  0  0
   44.3530   34.2030   40.2240 O   0  0  0  0  0  0  0  0  0  0  0  0
   40.4511   36.1600   36.6190 H   0  0  0  0  0  0  0  0  0  0  0  0
   42.8076   36.4567   37.9177 H   0  0  0  0  0  0  0  0  0  0  0  0
   40.7641   31.7088   38.4119 H   0  0  0  0  0  0  0  0  0  0  0  0
   40.0443   34.3717   41.8031 H   0  0  0  0  0  0  0  0  0  0  0  0
   39.3134   30.1657   42.0921 H   0  0  0  0  0  0  0  0  0  0  0  0
   42.4466   36.2131   41.6918 H   0  0  0  0  0  0  0  0  0  0  0  0
   44.7475   35.8048   42.9883 H   0  0  0  0  0  0  0  0  0  0  0  0
   46.1006   34.0466   41.4403 H   0  0  0  0  0  0  0  0  0  0  0  0
  1  5  1  0
  1  7  1  0
  2  1  1  0
  3  2  2  0
  3  4  1  0
  4  5  2  0
  5 12  1  0
  6  7  2  0
  6 11  1  0
  7  8  1  0
  8  9  2  0
 10  9  1  0
 11 10  2  0
 12 16  1  0
 12 13  2  0
 13 14  1  0
 15 14  2  0
 16 15  1  0
  3 17  1  0
  4 18  1  0
  6 19  1  0
  8 20  1  0
 10 21  1  0
 13 22  1  0
 14 23  1  0
 15 24  1  0
M  ISO  8  17  14  18  14  19  14  20  14  21  14  22  14  23  14  24  14
M  END
>  <minimizedAffinity>  (1) 
-4.24822903

>  <minimizedRMSD>  (1) 
5.13019371

$$$$
