
     RDKit          3D

 29 30  0  0  0  0  0  0  0  0999 V2000
   42.5760   33.6790   39.9530 N   0  0  0  0  0  0  0  0  0  0  0  0
   43.1430   33.0090   38.9580 N   0  0  0  0  0  0  0  0  0  0  0  0
   42.1470   32.8170   38.0170 C   0  0  0  0  0  0  0  0  0  0  0  0
   40.9910   33.4240   38.5580 C   0  0  0  0  0  0  0  0  0  0  0  0
   41.2760   33.9760   39.8040 C   0  0  0  0  0  0  0  0  0  0  0  0
   43.6610   35.3850   41.2060 C   0  0  0  0  0  0  0  0  0  0  0  0
   43.3600   34.0390   41.0630 C   0  0  0  0  0  0  0  0  0  0  0  0
   43.8480   33.1150   42.0110 C   0  0  0  0  0  0  0  0  0  0  0  0
   44.6090   33.6000   43.0460 N   0  0  0  0  0  0  0  0  0  0  0  0
   44.8800   34.9270   43.1510 C   0  0  0  0  0  0  0  0  0  0  0  0
   44.4130   35.8240   42.2370 N   0  0  0  0  0  0  0  0  0  0  0  0
   40.1640   34.6310   40.5180 C   0  0  0  0  0  0  0  0  0  0  0  0
   40.2340   36.1390   40.5230 C   0  0  0  0  0  0  0  0  0  0  0  0
   39.9010   34.0630   41.9020 C   0  0  0  0  0  0  0  0  0  0  0  0
   38.8260   34.3440   39.7770 C   0  0  0  0  0  0  0  0  0  0  0  0
   42.2362   32.3001   37.0501 H   0  0  0  0  0  0  0  0  0  0  0  0
   40.0079   33.4557   38.0656 H   0  0  0  0  0  0  0  0  0  0  0  0
   43.2809   36.1062   40.4675 H   0  0  0  0  0  0  0  0  0  0  0  0
   43.6261   32.0411   41.9238 H   0  0  0  0  0  0  0  0  0  0  0  0
   45.4903   35.2859   43.9929 H   0  0  0  0  0  0  0  0  0  0  0  0
   40.2508   36.5018   41.5613 H   0  0  0  0  0  0  0  0  0  0  0  0
   41.1483   36.4653   40.0057 H   0  0  0  0  0  0  0  0  0  0  0  0
   39.3539   36.5486   40.0057 H   0  0  0  0  0  0  0  0  0  0  0  0
   40.2346   34.7834   42.6634 H   0  0  0  0  0  0  0  0  0  0  0  0
   38.8240   33.8745   42.0224 H   0  0  0  0  0  0  0  0  0  0  0  0
   40.4540   33.1198   42.0224 H   0  0  0  0  0  0  0  0  0  0  0  0
   38.0279   34.1728   40.5144 H   0  0  0  0  0  0  0  0  0  0  0  0
   38.5638   35.2063   39.1464 H   0  0  0  0  0  0  0  0  0  0  0  0
   38.9405   33.4500   39.1464 H   0  0  0  0  0  0  0  0  0  0  0  0
  1  7  1  0
  2  1  1  0
  3  4  1  0
  3  2  2  0
  4  5  2  0
  5  1  1  0
  5 12  1  0
  6 11  2  0
  7  6  1  0
  7  8  2  0
  8  9  1  0
  9 10  2  0
 11 10  1  0
 12 13  1  0
 12 14  1  0
 15 12  1  0
  3 16  1  0
  4 17  1  0
  6 18  1  0
  8 19  1  0
 10 20  1  0
 13 21  1  0
 13 22  1  0
 13 23  1  0
 14 24  1  0
 14 25  1  0
 14 26  1  0
 15 27  1  0
 15 28  1  0
 15 29  1  0
M  ISO  8  16  14  17  14  18  14  19  14  20  14  21   8  22   8  23   8
M  ISO  6  24   8  25   8  26   8  27   8  28   8  29   8
M  END
>  <minimizedAffinity>  (1) 
-4.23424482

>  <minimizedRMSD>  (1) 
2.43599963

$$$$
