
     RDKit          3D

 23 25  0  0  0  0  0  0  0  0999 V2000
   44.7280   33.9010   41.0650 N   0  0  0  0  0  0  0  0  0  0  0  0
   45.8500   33.4640   40.4760 N   0  0  0  0  0  0  0  0  0  0  0  0
   45.5130   33.1440   39.1790 C   0  0  0  0  0  0  0  0  0  0  0  0
   44.1350   33.4270   39.0820 C   0  0  0  0  0  0  0  0  0  0  0  0
   43.6070   33.9240   40.3210 C   0  0  0  0  0  0  0  0  0  0  0  0
   44.5830   35.7180   42.6380 C   0  0  0  0  0  0  0  0  0  0  0  0
   44.8090   34.3390   42.4120 C   0  0  0  0  0  0  0  0  0  0  0  0
   45.0830   33.4720   43.4980 C   0  0  0  0  0  0  0  0  0  0  0  0
   45.1130   34.0340   44.7560 N   0  0  0  0  0  0  0  0  0  0  0  0
   44.8880   35.3650   44.9350 C   0  0  0  0  0  0  0  0  0  0  0  0
   44.6240   36.2140   43.8970 N   0  0  0  0  0  0  0  0  0  0  0  0
   42.2090   34.2340   40.5430 C   0  0  0  0  0  0  0  0  0  0  0  0
   41.6310   35.3190   39.7030 C   0  0  0  0  0  0  0  0  0  0  0  0
   39.9840   35.4240   40.2170 S   0  0  0  0  0  0  0  0  0  0  0  0
   40.1660   34.0380   41.5000 C   0  0  0  0  0  0  0  0  0  0  0  0
   41.3400   33.7220   41.3670 N   0  0  0  0  0  0  0  0  0  0  0  0
   46.1742   32.7533   38.3915 H   0  0  0  0  0  0  0  0  0  0  0  0
   43.5380   33.2845   38.1692 H   0  0  0  0  0  0  0  0  0  0  0  0
   44.3740   36.3870   41.7902 H   0  0  0  0  0  0  0  0  0  0  0  0
   45.2638   32.3979   43.3442 H   0  0  0  0  0  0  0  0  0  0  0  0
   44.9200   35.7732   45.9559 H   0  0  0  0  0  0  0  0  0  0  0  0
   42.1369   35.9175   38.9311 H   0  0  0  0  0  0  0  0  0  0  0  0
   39.4112   33.6256   42.1857 H   0  0  0  0  0  0  0  0  0  0  0  0
  1  7  1  0
  2  1  1  0
  3  2  2  0
  4  3  1  0
  4  5  2  0
  5 12  1  0
  5  1  1  0
  6 11  2  0
  7  6  1  0
  7  8  2  0
  8  9  1  0
  9 10  2  0
 11 10  1  0
 12 16  1  0
 13 14  1  0
 13 12  2  0
 14 15  1  0
 16 15  2  0
  3 17  1  0
  4 18  1  0
  6 19  1  0
  8 20  1  0
 10 21  1  0
 13 22  1  0
 15 23  1  0
M  ISO  7  17  14  18  14  19  14  20  14  21  14  22  14  23  14
M  END
>  <minimizedAffinity>  (1) 
-4.10183191

>  <minimizedRMSD>  (1) 
2.06985736

$$$$
