
     RDKit          3D

 20 21  0  0  0  0  0  0  0  0999 V2000
   41.1310   34.3660   40.3520 N   0  0  0  0  0  0  0  0  0  0  0  0
   40.2310   33.7850   41.0680 N   0  0  0  0  0  0  0  0  0  0  0  0
   39.0270   33.7990   40.4270 C   0  0  0  0  0  0  0  0  0  0  0  0
   39.2800   34.4530   39.2360 C   0  0  0  0  0  0  0  0  0  0  0  0
   40.6120   34.7930   39.2260 C   0  0  0  0  0  0  0  0  0  0  0  0
   43.3220   33.4440   40.4180 C   0  0  0  0  0  0  0  0  0  0  0  0
   42.4620   34.4730   40.7910 C   0  0  0  0  0  0  0  0  0  0  0  0
   42.9190   35.5510   41.5780 C   0  0  0  0  0  0  0  0  0  0  0  0
   44.2170   35.5400   41.9500 N   0  0  0  0  0  0  0  0  0  0  0  0
   45.0470   34.5310   41.5800 C   0  0  0  0  0  0  0  0  0  0  0  0
   44.6030   33.4980   40.8220 N   0  0  0  0  0  0  0  0  0  0  0  0
   41.1510   35.5010   38.1170 C   0  0  0  0  0  0  0  0  0  0  0  0
   40.4940   35.8020   37.0600 O   0  0  0  0  0  0  0  0  0  0  0  0
   41.8230   36.1740   37.1680 O   0  0  0  0  0  0  0  0  0  0  0  0
   38.0710   33.3837   40.7785 H   0  0  0  0  0  0  0  0  0  0  0  0
   38.5491   34.6631   38.4413 H   0  0  0  0  0  0  0  0  0  0  0  0
   42.9611   32.6045   39.8057 H   0  0  0  0  0  0  0  0  0  0  0  0
   42.2451   36.3675   41.8765 H   0  0  0  0  0  0  0  0  0  0  0  0
   46.0989   34.5520   41.9011 H   0  0  0  0  0  0  0  0  0  0  0  0
   41.3668   36.4344   36.3289 H   0  0  0  0  0  0  0  0  0  0  0  0
  1  7  1  0
  1  2  1  0
  3  2  2  0
  4  3  1  0
  5  4  2  0
  5  1  1  0
  6  7  2  0
  6 11  1  0
  7  8  1  0
  8  9  2  0
 10  9  1  0
 11 10  2  0
 12  5  1  0
 13 12  2  0
 14 12  1  0
  3 15  1  0
  4 16  1  0
  6 17  1  0
  8 18  1  0
 10 19  1  0
 14 20  1  0
M  ISO  6  15  14  16  14  17  14  18  14  19  14  20   3
M  END
>  <minimizedAffinity>  (1) 
-4.087852

>  <minimizedRMSD>  (1) 
4.11554098

$$$$
