
     RDKit          3D

 20 21  0  0  0  0  0  0  0  0999 V2000
   44.2380   35.6420   43.3530 C   0  0  0  0  0  0  0  0  0  0  0  0
   44.3320   34.4130   42.7040 C   0  0  0  0  0  0  0  0  0  0  0  0
   44.9080   33.3240   43.3920 C   0  0  0  0  0  0  0  0  0  0  0  0
   45.3500   33.5270   44.6740 N   0  0  0  0  0  0  0  0  0  0  0  0
   45.2310   34.7470   45.2570 C   0  0  0  0  0  0  0  0  0  0  0  0
   44.6800   35.8080   44.6120 N   0  0  0  0  0  0  0  0  0  0  0  0
   43.8370   34.3400   41.3880 N   0  0  0  0  0  0  0  0  0  0  0  0
   44.5980   33.8160   40.4360 N   0  0  0  0  0  0  0  0  0  0  0  0
   43.8940   33.8610   39.2570 C   0  0  0  0  0  0  0  0  0  0  0  0
   42.6590   34.4550   39.6020 C   0  0  0  0  0  0  0  0  0  0  0  0
   42.6400   34.7570   40.9830 C   0  0  0  0  0  0  0  0  0  0  0  0
   41.4640   35.3690   41.6270 C   0  0  0  0  0  0  0  0  0  0  0  0
   43.7918   36.4965   42.8232 H   0  0  0  0  0  0  0  0  0  0  0  0
   45.0000   32.3383   42.9126 H   0  0  0  0  0  0  0  0  0  0  0  0
   45.5931   34.8811   46.2870 H   0  0  0  0  0  0  0  0  0  0  0  0
   44.2191   33.5124   38.2656 H   0  0  0  0  0  0  0  0  0  0  0  0
   41.8352   34.6529   38.9005 H   0  0  0  0  0  0  0  0  0  0  0  0
   41.5734   35.3121   42.7201 H   0  0  0  0  0  0  0  0  0  0  0  0
   41.3851   36.4226   41.3208 H   0  0  0  0  0  0  0  0  0  0  0  0
   40.5558   34.8291   41.3208 H   0  0  0  0  0  0  0  0  0  0  0  0
  1  6  2  0
  2  1  1  0
  2  3  2  0
  3  4  1  0
  4  5  2  0
  6  5  1  0
  7  2  1  0
  8  7  1  0
  9 10  1  0
  9  8  2  0
 10 11  2  0
 11  7  1  0
 11 12  1  0
  1 13  1  0
  3 14  1  0
  5 15  1  0
  9 16  1  0
 10 17  1  0
 12 18  1  0
 12 19  1  0
 12 20  1  0
M  ISO  8  13  14  14  14  15  14  16  14  17  14  18   8  19   8  20   8
M  END
>  <minimizedAffinity>  (1) 
-3.35757422

>  <minimizedRMSD>  (1) 
0.535990417

$$$$
