
     RDKit          3D

 20 21  0  0  0  0  0  0  0  0999 V2000
   42.8110   34.2810   40.3000 N   0  0  0  0  0  0  0  0  0  0  0  0
   43.3170   33.6840   39.2300 N   0  0  0  0  0  0  0  0  0  0  0  0
   42.3500   33.6980   38.2480 C   0  0  0  0  0  0  0  0  0  0  0  0
   41.2440   34.3530   38.8400 C   0  0  0  0  0  0  0  0  0  0  0  0
   41.5520   34.7250   40.1670 C   0  0  0  0  0  0  0  0  0  0  0  0
   43.9360   35.6960   41.8570 C   0  0  0  0  0  0  0  0  0  0  0  0
   43.5890   34.4100   41.4580 C   0  0  0  0  0  0  0  0  0  0  0  0
   44.0290   33.3150   42.2350 C   0  0  0  0  0  0  0  0  0  0  0  0
   44.7820   33.5830   43.3540 N   0  0  0  0  0  0  0  0  0  0  0  0
   45.0910   34.8600   43.6980 C   0  0  0  0  0  0  0  0  0  0  0  0
   44.6720   35.9230   42.9550 N   0  0  0  0  0  0  0  0  0  0  0  0
   40.5250   35.3970   40.9880 C   0  0  0  0  0  0  0  0  0  0  0  0
   40.1510   34.6520   42.1090 F   0  0  0  0  0  0  0  0  0  0  0  0
   39.3020   35.4450   40.2640 F   0  0  0  0  0  0  0  0  0  0  0  0
   40.7780   36.7130   41.2570 F   0  0  0  0  0  0  0  0  0  0  0  0
   42.4220   33.2901   37.2290 H   0  0  0  0  0  0  0  0  0  0  0  0
   40.2836   34.5446   38.3391 H   0  0  0  0  0  0  0  0  0  0  0  0
   43.5971   36.5518   41.2548 H   0  0  0  0  0  0  0  0  0  0  0  0
   43.7774   32.2817   41.9539 H   0  0  0  0  0  0  0  0  0  0  0  0
   45.6949   35.0410   44.5994 H   0  0  0  0  0  0  0  0  0  0  0  0
  1  7  1  0
  2  1  1  0
  3  4  1  0
  3  2  2  0
  4  5  2  0
  5  1  1  0
  5 12  1  0
  6 11  2  0
  7  6  1  0
  7  8  2  0
  8  9  1  0
  9 10  2  0
 11 10  1  0
 12 15  1  0
 12 13  1  0
 14 12  1  0
  3 16  1  0
  4 17  1  0
  6 18  1  0
  8 19  1  0
 10 20  1  0
M  ISO  5  16  14  17  14  18  14  19  14  20  14
M  END
>  <minimizedAffinity>  (1) 
-4.27596283

>  <minimizedRMSD>  (1) 
1.81238449

$$$$
