
     RDKit          3D

 34 36  0  0  0  0  0  0  0  0999 V2000
   43.0320   35.6060   41.4390 C   0  0  0  0  0  0  0  0  0  0  0  0
   42.6320   34.5090   40.6980 C   0  0  0  0  0  0  0  0  0  0  0  0
   43.1970   33.2620   41.0040 C   0  0  0  0  0  0  0  0  0  0  0  0
   44.1140   33.1900   42.0170 N   0  0  0  0  0  0  0  0  0  0  0  0
   44.4680   34.3030   42.7090 C   0  0  0  0  0  0  0  0  0  0  0  0
   43.9320   35.5120   42.4270 N   0  0  0  0  0  0  0  0  0  0  0  0
   45.4160   34.2840   43.7710 N   0  0  0  0  0  0  0  0  0  0  0  0
   46.7790   33.8710   43.6390 C   0  0  0  0  0  0  0  0  0  0  0  0
   47.0870   32.7280   44.6080 C   0  0  0  0  0  0  0  0  0  0  0  0
   46.9280   33.2320   45.9470 N   0  0  0  0  0  0  0  0  0  0  0  0
   45.5570   33.6270   46.1290 C   0  0  0  0  0  0  0  0  0  0  0  0
   45.1180   34.6840   45.1340 C   0  0  0  0  0  0  0  0  0  0  0  0
   41.6900   34.7170   39.6940 N   0  0  0  0  0  0  0  0  0  0  0  0
   42.0410   35.3670   38.5860 N   0  0  0  0  0  0  0  0  0  0  0  0
   40.9260   35.4290   37.7710 C   0  0  0  0  0  0  0  0  0  0  0  0
   39.9060   34.7660   38.4930 C   0  0  0  0  0  0  0  0  0  0  0  0
   40.4140   34.3160   39.7220 C   0  0  0  0  0  0  0  0  0  0  0  0
   39.5100   33.5870   40.6490 C   0  0  0  0  0  0  0  0  0  0  0  0
   39.5540   32.1970   40.4400 F   0  0  0  0  0  0  0  0  0  0  0  0
   38.1630   33.8640   40.3180 F   0  0  0  0  0  0  0  0  0  0  0  0
   39.5950   33.9560   41.9520 F   0  0  0  0  0  0  0  0  0  0  0  0
   42.5963   36.5896   41.2093 H   0  0  0  0  0  0  0  0  0  0  0  0
   42.9091   32.3615   40.4417 H   0  0  0  0  0  0  0  0  0  0  0  0
   46.9560   33.5298   42.6083 H   0  0  0  0  0  0  0  0  0  0  0  0
   47.4340   34.7232   43.8732 H   0  0  0  0  0  0  0  0  0  0  0  0
   46.3903   31.8941   44.4368 H   0  0  0  0  0  0  0  0  0  0  0  0
   48.1123   32.3600   44.4550 H   0  0  0  0  0  0  0  0  0  0  0  0
   47.1701   32.4961   46.6258 H   0  0  0  0  0  0  0  0  0  0  0  0
   44.9161   32.7413   46.0079 H   0  0  0  0  0  0  0  0  0  0  0  0
   45.4655   34.0591   47.1364 H   0  0  0  0  0  0  0  0  0  0  0  0
   45.6450   35.6240   45.3545 H   0  0  0  0  0  0  0  0  0  0  0  0
   44.0298   34.8158   45.2262 H   0  0  0  0  0  0  0  0  0  0  0  0
   40.8487   35.8932   36.7767 H   0  0  0  0  0  0  0  0  0  0  0  0
   38.8723   34.6246   38.1445 H   0  0  0  0  0  0  0  0  0  0  0  0
  1  6  2  0
  2  3  2  0
  2  1  1  0
  3  4  1  0
  4  5  2  0
  5  7  1  0
  6  5  1  0
  7 12  1  0
  8  7  1  0
  8  9  1  0
  9 10  1  0
 10 11  1  0
 12 11  1  0
 13 17  1  0
 13  2  1  0
 14 13  1  0
 15 16  1  0
 15 14  2  0
 16 17  2  0
 17 18  1  0
 18 21  1  0
 19 18  1  0
 20 18  1  0
  1 22  1  0
  3 23  1  0
  8 24  1  0
  8 25  1  0
  9 26  1  0
  9 27  1  0
 10 28  1  0
 11 29  1  0
 11 30  1  0
 12 31  1  0
 12 32  1  0
 15 33  1  0
 16 34  1  0
M  ISO  8  22  14  23  14  24  13  25  13  26  13  27  13  28   5  29  13
M  ISO  5  30  13  31  13  32  13  33  14  34  14
M  END
>  <minimizedAffinity>  (1) 
-6.28701305

>  <minimizedRMSD>  (1) 
1.87517834

$$$$
