
     RDKit          3D

 33 36  0  0  0  0  0  0  0  0999 V2000
   43.1020   35.5620   41.3920 C   0  0  0  0  0  0  0  0  0  0  0  0
   42.5920   34.4880   40.6620 C   0  0  0  0  0  0  0  0  0  0  0  0
   42.9420   33.1830   41.0440 C   0  0  0  0  0  0  0  0  0  0  0  0
   43.7770   33.0320   42.1260 N   0  0  0  0  0  0  0  0  0  0  0  0
   44.2410   34.1080   42.7950 C   0  0  0  0  0  0  0  0  0  0  0  0
   43.9140   35.3780   42.4430 N   0  0  0  0  0  0  0  0  0  0  0  0
   45.0840   33.6830   43.8730 N   0  0  0  0  0  0  0  0  0  0  0  0
   45.7000   34.3050   44.9060 C   0  0  0  0  0  0  0  0  0  0  0  0
   46.3770   33.3850   45.6190 N   0  0  0  0  0  0  0  0  0  0  0  0
   46.2070   32.1620   45.0540 C   0  0  0  0  0  0  0  0  0  0  0  0
   46.7130   30.9390   45.4440 C   0  0  0  0  0  0  0  0  0  0  0  0
   46.3560   29.9040   44.6660 N   0  0  0  0  0  0  0  0  0  0  0  0
   45.5680   30.0340   43.5880 C   0  0  0  0  0  0  0  0  0  0  0  0
   45.1100   31.2480   43.2640 N   0  0  0  0  0  0  0  0  0  0  0  0
   45.3990   32.3700   43.9690 C   0  0  0  0  0  0  0  0  0  0  0  0
   41.7520   34.7920   39.5820 N   0  0  0  0  0  0  0  0  0  0  0  0
   42.2320   35.4560   38.5300 N   0  0  0  0  0  0  0  0  0  0  0  0
   41.2060   35.6160   37.6320 C   0  0  0  0  0  0  0  0  0  0  0  0
   40.0950   34.9980   38.2310 C   0  0  0  0  0  0  0  0  0  0  0  0
   40.4580   34.4710   39.4860 C   0  0  0  0  0  0  0  0  0  0  0  0
   39.4360   33.7690   40.3070 C   0  0  0  0  0  0  0  0  0  0  0  0
   39.3070   32.4140   39.9500 F   0  0  0  0  0  0  0  0  0  0  0  0
   38.1430   34.2590   39.9650 F   0  0  0  0  0  0  0  0  0  0  0  0
   39.5140   33.9860   41.6460 F   0  0  0  0  0  0  0  0  0  0  0  0
   47.5520   30.7510   46.5780 N   0  0  0  0  0  0  0  0  0  0  0  0
   42.8308   36.5866   41.0976 H   0  0  0  0  0  0  0  0  0  0  0  0
   42.5604   32.3094   40.4952 H   0  0  0  0  0  0  0  0  0  0  0  0
   45.6549   35.3818   45.1260 H   0  0  0  0  0  0  0  0  0  0  0  0
   45.3029   29.1562   42.9804 H   0  0  0  0  0  0  0  0  0  0  0  0
   41.2451   36.1193   36.6547 H   0  0  0  0  0  0  0  0  0  0  0  0
   39.0910   34.9351   37.7860 H   0  0  0  0  0  0  0  0  0  0  0  0
   47.8959   29.8092   46.8137 H   0  0  0  0  0  0  0  0  0  0  0  0
   47.8154   31.5568   47.1630 H   0  0  0  0  0  0  0  0  0  0  0  0
  1  6  2  0
  2  3  2  0
  2  1  1  0
  3  4  1  0
  4  5  2  0
  5  7  1  0
  6  5  1  0
  7 15  1  0
  7  8  1  0
  8  9  2  0
 10 11  2  0
 10  9  1  0
 11 25  1  0
 12 11  1  0
 13 12  2  0
 14 13  1  0
 14 15  2  0
 15 10  1  0
 16  2  1  0
 17 16  1  0
 18 19  1  0
 18 17  2  0
 19 20  2  0
 20 16  1  0
 20 21  1  0
 21 24  1  0
 22 21  1  0
 23 21  1  0
  1 26  1  0
  3 27  1  0
  8 28  1  0
 13 29  1  0
 18 30  1  0
 19 31  1  0
 25 32  1  0
 25 33  1  0
M  ISO  6  26  14  27  14  28  14  29  14  30  14  31  14
M  END
>  <minimizedAffinity>  (1) 
-5.97543478

>  <minimizedRMSD>  (1) 
2.15606332

$$$$
