
     RDKit          3D

 27 28  0  0  0  0  0  0  0  0999 V2000
   43.8200   35.5150   42.3580 C   0  0  0  0  0  0  0  0  0  0  0  0
   43.6410   34.3150   41.6630 C   0  0  0  0  0  0  0  0  0  0  0  0
   44.1110   33.1100   42.2220 C   0  0  0  0  0  0  0  0  0  0  0  0
   44.7320   33.1790   43.4450 N   0  0  0  0  0  0  0  0  0  0  0  0
   44.8860   34.3550   44.0860 C   0  0  0  0  0  0  0  0  0  0  0  0
   44.4380   35.5160   43.5570 N   0  0  0  0  0  0  0  0  0  0  0  0
   45.5350   34.3740   45.3520 N   0  0  0  0  0  0  0  0  0  0  0  0
   46.0120   33.1590   45.9210 C   0  0  0  0  0  0  0  0  0  0  0  0
   45.4280   32.0720   45.5190 N   0  0  0  0  0  0  0  0  0  0  0  0
   47.0720   33.2190   46.8710 N   0  0  0  0  0  0  0  0  0  0  0  0
   45.6770   31.1230   45.8520 H   0  0  0  0  0  0  0  0  0  0  0  0
   42.9890   34.4000   40.4210 N   0  0  0  0  0  0  0  0  0  0  0  0
   43.6140   33.9800   39.3220 N   0  0  0  0  0  0  0  0  0  0  0  0
   42.7570   34.1760   38.2640 C   0  0  0  0  0  0  0  0  0  0  0  0
   41.5970   34.7380   38.8310 C   0  0  0  0  0  0  0  0  0  0  0  0
   41.7600   34.8760   40.2150 C   0  0  0  0  0  0  0  0  0  0  0  0
   40.6600   35.4500   41.0260 C   0  0  0  0  0  0  0  0  0  0  0  0
   40.3300   34.6440   42.1300 F   0  0  0  0  0  0  0  0  0  0  0  0
   39.4460   35.3940   40.2910 F   0  0  0  0  0  0  0  0  0  0  0  0
   40.7780   36.7660   41.3320 F   0  0  0  0  0  0  0  0  0  0  0  0
   43.4565   36.4593   41.9265 H   0  0  0  0  0  0  0  0  0  0  0  0
   43.9853   32.1506   41.6988 H   0  0  0  0  0  0  0  0  0  0  0  0
   45.6594   35.2640   45.8554 H   0  0  0  0  0  0  0  0  0  0  0  0
   47.4328   32.3527   47.2954 H   0  0  0  0  0  0  0  0  0  0  0  0
   47.4775   34.1287   47.1334 H   0  0  0  0  0  0  0  0  0  0  0  0
   42.9386   33.9439   37.2042 H   0  0  0  0  0  0  0  0  0  0  0  0
   40.6959   35.0261   38.2697 H   0  0  0  0  0  0  0  0  0  0  0  0
  1  6  2  0
  2  3  2  0
  2  1  1  0
  3  4  1  0
  4  5  2  0
  5  7  1  0
  6  5  1  0
  7  8  1  0
  8 10  1  0
  9 11  1  0
  9  8  2  0
 12  2  1  0
 13 12  1  0
 14 15  1  0
 14 13  2  0
 15 16  2  0
 16 12  1  0
 16 17  1  0
 17 20  1  0
 17 18  1  0
 19 17  1  0
  1 21  1  0
  3 22  1  0
  7 23  1  0
 10 24  1  0
 10 25  1  0
 14 26  1  0
 15 27  1  0
M  ISO  4  21  14  22  14  26  14  27  14
M  END
>  <minimizedAffinity>  (1) 
-5.92052603

>  <minimizedRMSD>  (1) 
0.578312695

$$$$
