
     RDKit          3D

 33 35  0  0  0  0  0  0  0  0999 V2000
   43.2000   35.1770   40.9860 C   0  0  0  0  0  0  0  0  0  0  0  0
   42.8750   34.3890   39.9000 C   0  0  0  0  0  0  0  0  0  0  0  0
   43.8510   33.5140   39.4020 C   0  0  0  0  0  0  0  0  0  0  0  0
   45.0700   33.4780   40.0070 N   0  0  0  0  0  0  0  0  0  0  0  0
   45.3380   34.2760   41.0750 C   0  0  0  0  0  0  0  0  0  0  0  0
   44.4130   35.1300   41.5730 N   0  0  0  0  0  0  0  0  0  0  0  0
   46.6180   34.2250   41.6920 N   0  0  0  0  0  0  0  0  0  0  0  0
   47.3750   35.4020   42.0750 C   0  0  0  0  0  0  0  0  0  0  0  0
   48.6970   35.3080   41.3160 C   0  0  0  0  0  0  0  0  0  0  0  0
   49.3310   34.1260   41.6060 O   0  0  0  0  0  0  0  0  0  0  0  0
   48.6210   32.9870   41.3190 C   0  0  0  0  0  0  0  0  0  0  0  0
   47.2430   32.9460   41.9770 C   0  0  0  0  0  0  0  0  0  0  0  0
   41.5850   34.5140   39.3610 N   0  0  0  0  0  0  0  0  0  0  0  0
   41.4140   35.0090   38.1490 N   0  0  0  0  0  0  0  0  0  0  0  0
   40.0720   35.0150   37.8860 C   0  0  0  0  0  0  0  0  0  0  0  0
   39.4650   34.4780   39.0520 C   0  0  0  0  0  0  0  0  0  0  0  0
   40.4560   34.1610   39.9920 C   0  0  0  0  0  0  0  0  0  0  0  0
   40.0520   33.5820   41.2940 C   0  0  0  0  0  0  0  0  0  0  0  0
   40.7790   32.4280   41.6160 F   0  0  0  0  0  0  0  0  0  0  0  0
   38.7410   33.0450   41.1980 F   0  0  0  0  0  0  0  0  0  0  0  0
   39.9510   34.4650   42.3240 F   0  0  0  0  0  0  0  0  0  0  0  0
   42.4429   35.8673   41.3864 H   0  0  0  0  0  0  0  0  0  0  0  0
   43.6355   32.8682   38.5380 H   0  0  0  0  0  0  0  0  0  0  0  0
   46.8333   36.3160   41.7900 H   0  0  0  0  0  0  0  0  0  0  0  0
   47.5335   35.4467   43.1626 H   0  0  0  0  0  0  0  0  0  0  0  0
   49.3440   36.1480   41.6091 H   0  0  0  0  0  0  0  0  0  0  0  0
   48.4925   35.3481   40.2359 H   0  0  0  0  0  0  0  0  0  0  0  0
   48.4883   32.9249   40.2288 H   0  0  0  0  0  0  0  0  0  0  0  0
   49.1956   32.1383   41.7183 H   0  0  0  0  0  0  0  0  0  0  0  0
   47.3435   32.8047   43.0632 H   0  0  0  0  0  0  0  0  0  0  0  0
   46.6399   32.1111   41.5908 H   0  0  0  0  0  0  0  0  0  0  0  0
   39.5712   35.3609   36.9697 H   0  0  0  0  0  0  0  0  0  0  0  0
   38.3841   34.3331   39.1957 H   0  0  0  0  0  0  0  0  0  0  0  0
  1  6  2  0
  2  1  1  0
  3  2  2  0
  3  4  1  0
  4  5  2  0
  5  6  1  0
  5  7  1  0
  7 12  1  0
  7  8  1  0
  9 10  1  0
  9  8  1  0
 11 10  1  0
 11 12  1  0
 13  2  1  0
 13 17  1  0
 14 13  1  0
 15 14  2  0
 15 16  1  0
 16 17  2  0
 17 18  1  0
 18 19  1  0
 18 21  1  0
 20 18  1  0
  1 22  1  0
  3 23  1  0
  8 24  1  0
  8 25  1  0
  9 26  1  0
  9 27  1  0
 11 28  1  0
 11 29  1  0
 12 30  1  0
 12 31  1  0
 15 32  1  0
 16 33  1  0
M  ISO  8  22  14  23  14  24  13  25  13  26  13  27  13  28  13  29  13
M  ISO  4  30  13  31  13  32  14  33  14
M  END
>  <minimizedAffinity>  (1) 
-5.55687141

>  <minimizedRMSD>  (1) 
3.02717638

$$$$
