
     RDKit          3D

 27 29  0  0  0  0  0  0  0  0999 V2000
   43.7420   35.7240   41.6270 C   0  0  0  0  0  0  0  0  0  0  0  0
   43.2010   34.6880   40.8610 C   0  0  0  0  0  0  0  0  0  0  0  0
   43.4010   33.3600   41.2830 C   0  0  0  0  0  0  0  0  0  0  0  0
   44.1190   33.1540   42.4270 N   0  0  0  0  0  0  0  0  0  0  0  0
   44.6230   34.1910   43.1340 C   0  0  0  0  0  0  0  0  0  0  0  0
   44.4400   35.4890   42.7420 N   0  0  0  0  0  0  0  0  0  0  0  0
   45.3250   33.7030   44.2740 N   0  0  0  0  0  0  0  0  0  0  0  0
   45.4410   34.0650   45.5400 N   0  0  0  0  0  0  0  0  0  0  0  0
   46.2750   33.1880   46.1710 C   0  0  0  0  0  0  0  0  0  0  0  0
   46.7000   32.2330   45.2580 C   0  0  0  0  0  0  0  0  0  0  0  0
   46.0820   32.5870   44.0710 C   0  0  0  0  0  0  0  0  0  0  0  0
   42.4840   35.0510   39.7070 N   0  0  0  0  0  0  0  0  0  0  0  0
   43.0950   35.0130   38.5250 N   0  0  0  0  0  0  0  0  0  0  0  0
   42.1670   35.4150   37.5850 C   0  0  0  0  0  0  0  0  0  0  0  0
   40.9940   35.6810   38.3100 C   0  0  0  0  0  0  0  0  0  0  0  0
   41.2110   35.4430   39.6800 C   0  0  0  0  0  0  0  0  0  0  0  0
   40.1030   35.6610   40.6400 C   0  0  0  0  0  0  0  0  0  0  0  0
   40.1860   34.8010   41.7490 F   0  0  0  0  0  0  0  0  0  0  0  0
   38.8780   35.2260   40.0520 F   0  0  0  0  0  0  0  0  0  0  0  0
   39.8490   36.9600   40.9580 F   0  0  0  0  0  0  0  0  0  0  0  0
   43.5887   36.7638   41.3025 H   0  0  0  0  0  0  0  0  0  0  0  0
   42.9921   32.5148   40.7098 H   0  0  0  0  0  0  0  0  0  0  0  0
   46.5636   33.2311   47.2316 H   0  0  0  0  0  0  0  0  0  0  0  0
   47.3766   31.3845   45.4375 H   0  0  0  0  0  0  0  0  0  0  0  0
   46.1852   32.0526   43.1151 H   0  0  0  0  0  0  0  0  0  0  0  0
   42.3150   35.5073   36.4989 H   0  0  0  0  0  0  0  0  0  0  0  0
   40.0455   36.0247   37.8717 H   0  0  0  0  0  0  0  0  0  0  0  0
  1  6  2  0
  2  3  2  0
  2  1  1  0
  3  4  1  0
  4  5  2  0
  5  7  1  0
  6  5  1  0
  7  8  1  0
  8  9  2  0
 10  9  1  0
 11  7  1  0
 11 10  2  0
 12  2  1  0
 13 12  1  0
 14 15  1  0
 14 13  2  0
 15 16  2  0
 16 12  1  0
 16 17  1  0
 17 20  1  0
 17 18  1  0
 19 17  1  0
  1 21  1  0
  3 22  1  0
  9 23  1  0
 10 24  1  0
 11 25  1  0
 14 26  1  0
 15 27  1  0
M  ISO  7  21  14  22  14  23  14  24  14  25  14  26  14  27  14
M  END
>  <minimizedAffinity>  (1) 
-5.43711519

>  <minimizedRMSD>  (1) 
1.28630662

$$$$
