
     RDKit          3D

 33 35  0  0  0  0  0  0  0  0999 V2000
   42.8800   35.5780   41.6970 C   0  0  0  0  0  0  0  0  0  0  0  0
   42.8960   34.7140   40.6060 C   0  0  0  0  0  0  0  0  0  0  0  0
   43.9230   33.7590   40.5220 C   0  0  0  0  0  0  0  0  0  0  0  0
   44.8570   33.7370   41.5340 N   0  0  0  0  0  0  0  0  0  0  0  0
   44.7990   34.5960   42.5720 C   0  0  0  0  0  0  0  0  0  0  0  0
   43.8150   35.5200   42.6620 N   0  0  0  0  0  0  0  0  0  0  0  0
   41.8750   34.8600   39.6560 N   0  0  0  0  0  0  0  0  0  0  0  0
   42.1320   35.4540   38.5010 N   0  0  0  0  0  0  0  0  0  0  0  0
   40.9650   35.4570   37.7750 C   0  0  0  0  0  0  0  0  0  0  0  0
   40.0160   34.8230   38.5950 C   0  0  0  0  0  0  0  0  0  0  0  0
   40.6070   34.4370   39.8110 C   0  0  0  0  0  0  0  0  0  0  0  0
   39.8000   33.7450   40.8440 C   0  0  0  0  0  0  0  0  0  0  0  0
   40.0200   32.3650   40.8540 F   0  0  0  0  0  0  0  0  0  0  0  0
   38.4270   33.8030   40.4770 F   0  0  0  0  0  0  0  0  0  0  0  0
   39.8170   34.3310   42.0820 F   0  0  0  0  0  0  0  0  0  0  0  0
   45.8360   34.5280   43.6400 C   0  0  0  0  0  0  0  0  0  0  0  0
   46.8100   33.4070   43.3370 C   0  0  0  0  0  0  0  0  0  0  0  0
   46.6130   32.4410   44.4700 C   0  0  0  0  0  0  0  0  0  0  0  0
   46.3690   33.3990   45.6240 C   0  0  0  0  0  0  0  0  0  0  0  0
   45.2750   34.2770   45.0050 C   0  0  0  0  0  0  0  0  0  0  0  0
   42.0802   36.3294   41.7721 H   0  0  0  0  0  0  0  0  0  0  0  0
   43.9791   33.0547   39.6789 H   0  0  0  0  0  0  0  0  0  0  0  0
   40.8074   35.8681   36.7669 H   0  0  0  0  0  0  0  0  0  0  0  0
   38.9633   34.6533   38.3247 H   0  0  0  0  0  0  0  0  0  0  0  0
   46.3253   35.5131   43.6455 H   0  0  0  0  0  0  0  0  0  0  0  0
   46.5735   32.9330   42.3730 H   0  0  0  0  0  0  0  0  0  0  0  0
   47.8491   33.7585   43.2551 H   0  0  0  0  0  0  0  0  0  0  0  0
   45.7460   31.7864   44.2974 H   0  0  0  0  0  0  0  0  0  0  0  0
   47.4509   31.7456   44.6256 H   0  0  0  0  0  0  0  0  0  0  0  0
   46.0132   32.8746   46.5231 H   0  0  0  0  0  0  0  0  0  0  0  0
   47.2590   33.9418   45.9751 H   0  0  0  0  0  0  0  0  0  0  0  0
   45.1460   35.2145   45.5658 H   0  0  0  0  0  0  0  0  0  0  0  0
   44.2759   33.8168   45.0033 H   0  0  0  0  0  0  0  0  0  0  0  0
  1  6  2  0
  2  1  1  0
  3  2  2  0
  3  4  1  0
  4  5  2  0
  5  6  1  0
  5 16  1  0
  7 11  1  0
  7  2  1  0
  8  7  1  0
  9  8  2  0
  9 10  1  0
 10 11  2  0
 11 12  1  0
 12 13  1  0
 12 15  1  0
 14 12  1  0
 16 20  1  0
 17 16  1  0
 17 18  1  0
 18 19  1  0
 20 19  1  0
  1 21  1  0
  3 22  1  0
  9 23  1  0
 10 24  1  0
 16 25  1  0
 17 26  1  0
 17 27  1  0
 18 28  1  0
 18 29  1  0
 19 30  1  0
 19 31  1  0
 20 32  1  0
 20 33  1  0
M  ISO  8  21  14  22  14  23  14  24  14  25  13  26  13  27  13  28  13
M  ISO  5  29  13  30  13  31  13  32  13  33  13
M  END
>  <minimizedAffinity>  (1) 
-5.42838669

>  <minimizedRMSD>  (1) 
2.15407443

$$$$
