
     RDKit          3D

 27 29  0  0  0  0  0  0  0  0999 V2000
   41.6420   33.2090   39.5140 N   0  0  0  0  0  0  0  0  0  0  0  0
   42.0750   32.4220   38.5260 N   0  0  0  0  0  0  0  0  0  0  0  0
   40.9940   32.0790   37.7610 C   0  0  0  0  0  0  0  0  0  0  0  0
   39.8860   32.7270   38.3760 C   0  0  0  0  0  0  0  0  0  0  0  0
   40.3230   33.4410   39.4920 C   0  0  0  0  0  0  0  0  0  0  0  0
   42.8270   35.0760   40.4010 C   0  0  0  0  0  0  0  0  0  0  0  0
   42.5500   33.7060   40.4500 C   0  0  0  0  0  0  0  0  0  0  0  0
   43.1940   32.9290   41.4270 C   0  0  0  0  0  0  0  0  0  0  0  0
   44.0650   33.5420   42.2900 N   0  0  0  0  0  0  0  0  0  0  0  0
   44.2960   34.8830   42.1930 C   0  0  0  0  0  0  0  0  0  0  0  0
   43.6790   35.6570   41.2500 N   0  0  0  0  0  0  0  0  0  0  0  0
   45.2490   35.5130   43.1470 C   0  0  0  0  0  0  0  0  0  0  0  0
   45.1390   36.9170   43.5490 C   0  0  0  0  0  0  0  0  0  0  0  0
   44.6320   35.9140   44.5230 C   0  0  0  0  0  0  0  0  0  0  0  0
   39.3400   34.2060   40.3050 C   0  0  0  0  0  0  0  0  0  0  0  0
   39.4050   33.8690   41.6700 F   0  0  0  0  0  0  0  0  0  0  0  0
   38.0270   33.7460   39.9900 F   0  0  0  0  0  0  0  0  0  0  0  0
   39.2870   35.5390   40.0560 F   0  0  0  0  0  0  0  0  0  0  0  0
   40.9834   31.4409   36.8651 H   0  0  0  0  0  0  0  0  0  0  0  0
   38.8448   32.6731   38.0252 H   0  0  0  0  0  0  0  0  0  0  0  0
   42.3280   35.6940   39.6400 H   0  0  0  0  0  0  0  0  0  0  0  0
   43.0029   31.8481   41.4983 H   0  0  0  0  0  0  0  0  0  0  0  0
   46.0868   34.9154   42.7583 H   0  0  0  0  0  0  0  0  0  0  0  0
   46.0521   37.4835   43.7845 H   0  0  0  0  0  0  0  0  0  0  0  0
   44.6913   37.8042   43.0773 H   0  0  0  0  0  0  0  0  0  0  0  0
   43.5518   35.8073   44.7015 H   0  0  0  0  0  0  0  0  0  0  0  0
   44.8206   35.6679   45.5784 H   0  0  0  0  0  0  0  0  0  0  0  0
  1  7  1  0
  2  1  1  0
  3  4  1  0
  3  2  2  0
  4  5  2  0
  5  1  1  0
  5 15  1  0
  6  7  2  0
  6 11  1  0
  7  8  1  0
  8  9  2  0
 10  9  1  0
 10 12  1  0
 11 10  2  0
 12 13  1  0
 12 14  1  0
 13 14  1  0
 15 16  1  0
 17 15  1  0
 18 15  1  0
  3 19  1  0
  4 20  1  0
  6 21  1  0
  8 22  1  0
 12 23  1  0
 13 24  1  0
 13 25  1  0
 14 26  1  0
 14 27  1  0
M  ISO  8  19  14  20  14  21  14  22  14  23  13  24  13  25  13  26  13
M  ISO  1  27  13
M  END
>  <minimizedAffinity>  (1) 
-5.07288551

>  <minimizedRMSD>  (1) 
1.94289756

$$$$
