
     RDKit          3D

 23 24  0  0  0  0  0  0  0  0999 V2000
   42.8420   34.4280   40.2630 N   0  0  0  0  0  0  0  0  0  0  0  0
   43.4230   34.0310   39.1340 N   0  0  0  0  0  0  0  0  0  0  0  0
   42.5260   34.2740   38.1070 C   0  0  0  0  0  0  0  0  0  0  0  0
   41.3970   34.8380   38.7290 C   0  0  0  0  0  0  0  0  0  0  0  0
   41.6100   34.9310   40.1100 C   0  0  0  0  0  0  0  0  0  0  0  0
   43.8000   35.4610   42.1730 C   0  0  0  0  0  0  0  0  0  0  0  0
   43.5320   34.2960   41.4820 C   0  0  0  0  0  0  0  0  0  0  0  0
   43.9520   33.0680   42.0160 C   0  0  0  0  0  0  0  0  0  0  0  0
   44.6140   33.0840   43.2100 N   0  0  0  0  0  0  0  0  0  0  0  0
   44.8550   34.2540   43.8550 C   0  0  0  0  0  0  0  0  0  0  0  0
   44.4520   35.4500   43.3460 N   0  0  0  0  0  0  0  0  0  0  0  0
   45.5870   34.2280   45.1680 C   0  0  0  0  0  0  0  0  0  0  0  0
   40.5460   35.5000   40.9790 C   0  0  0  0  0  0  0  0  0  0  0  0
   40.2170   34.6510   42.0500 F   0  0  0  0  0  0  0  0  0  0  0  0
   39.3190   35.5210   40.2630 F   0  0  0  0  0  0  0  0  0  0  0  0
   40.7160   36.7990   41.3350 F   0  0  0  0  0  0  0  0  0  0  0  0
   42.6662   34.0699   37.0352 H   0  0  0  0  0  0  0  0  0  0  0  0
   40.4828   35.1583   38.2079 H   0  0  0  0  0  0  0  0  0  0  0  0
   43.4708   36.4222   41.7515 H   0  0  0  0  0  0  0  0  0  0  0  0
   43.7542   32.1227   41.4894 H   0  0  0  0  0  0  0  0  0  0  0  0
   44.8604   34.2538   45.9935 H   0  0  0  0  0  0  0  0  0  0  0  0
   46.1862   33.3080   45.2356 H   0  0  0  0  0  0  0  0  0  0  0  0
   46.2500   35.1032   45.2356 H   0  0  0  0  0  0  0  0  0  0  0  0
  1  7  1  0
  2  1  1  0
  3  4  1  0
  3  2  2  0
  4  5  2  0
  5  1  1  0
  5 13  1  0
  6 11  2  0
  7  8  2  0
  7  6  1  0
  8  9  1  0
  9 10  2  0
 10 12  1  0
 11 10  1  0
 13 16  1  0
 13 14  1  0
 15 13  1  0
  3 17  1  0
  4 18  1  0
  6 19  1  0
  8 20  1  0
 12 21  1  0
 12 22  1  0
 12 23  1  0
M  ISO  7  17  14  18  14  19  14  20  14  21   8  22   8  23   8
M  END
>  <minimizedAffinity>  (1) 
-4.4536314

>  <minimizedRMSD>  (1) 
0.456027538

$$$$
