
     RDKit          3D

 22 23  0  0  0  0  0  0  0  0999 V2000
   42.8180   34.4540   40.1990 N   0  0  0  0  0  0  0  0  0  0  0  0
   43.3680   34.0560   39.0650 N   0  0  0  0  0  0  0  0  0  0  0  0
   42.4580   34.2790   38.0600 C   0  0  0  0  0  0  0  0  0  0  0  0
   41.3280   34.8420   38.6980 C   0  0  0  0  0  0  0  0  0  0  0  0
   41.5760   34.9470   40.0740 C   0  0  0  0  0  0  0  0  0  0  0  0
   43.9000   35.5150   42.0370 C   0  0  0  0  0  0  0  0  0  0  0  0
   43.5300   34.3420   41.4050 C   0  0  0  0  0  0  0  0  0  0  0  0
   43.8800   33.1150   41.9940 C   0  0  0  0  0  0  0  0  0  0  0  0
   44.5770   33.1350   43.1750 N   0  0  0  0  0  0  0  0  0  0  0  0
   44.9140   34.3260   43.7520 C   0  0  0  0  0  0  0  0  0  0  0  0
   44.5810   35.5140   43.1910 N   0  0  0  0  0  0  0  0  0  0  0  0
   45.6390   34.3640   44.9790 N   0  0  0  0  0  0  0  0  0  0  0  0
   40.5280   35.5140   40.9590 C   0  0  0  0  0  0  0  0  0  0  0  0
   40.2180   34.6570   42.0300 F   0  0  0  0  0  0  0  0  0  0  0  0
   39.2830   35.5360   40.2750 F   0  0  0  0  0  0  0  0  0  0  0  0
   40.7020   36.8090   41.3220 F   0  0  0  0  0  0  0  0  0  0  0  0
   42.5818   34.0653   36.9881 H   0  0  0  0  0  0  0  0  0  0  0  0
   40.4000   35.1493   38.1936 H   0  0  0  0  0  0  0  0  0  0  0  0
   43.6273   36.4772   41.5789 H   0  0  0  0  0  0  0  0  0  0  0  0
   43.6019   32.1623   41.5196 H   0  0  0  0  0  0  0  0  0  0  0  0
   45.8866   35.2694   45.4031 H   0  0  0  0  0  0  0  0  0  0  0  0
   45.9152   33.4860   45.4414 H   0  0  0  0  0  0  0  0  0  0  0  0
  1  7  1  0
  2  1  1  0
  3  4  1  0
  3  2  2  0
  4  5  2  0
  5  1  1  0
  5 13  1  0
  6 11  2  0
  7  8  2  0
  7  6  1  0
  8  9  1  0
  9 10  2  0
 10 12  1  0
 11 10  1  0
 13 16  1  0
 13 14  1  0
 15 13  1  0
  3 17  1  0
  4 18  1  0
  6 19  1  0
  8 20  1  0
 12 21  1  0
 12 22  1  0
M  ISO  4  17  14  18  14  19  14  20  14
M  END
>  <minimizedAffinity>  (1) 
-4.38146305

>  <minimizedRMSD>  (1) 
0.409001589

$$$$
