
     RDKit          3D

 28 29  0  0  0  0  0  0  0  0999 V2000
   43.0440   35.1640   40.4830 C   0  0  0  0  0  0  0  0  0  0  0  0
   42.7130   33.8200   40.5920 C   0  0  0  0  0  0  0  0  0  0  0  0
   43.3190   33.0500   41.5980 C   0  0  0  0  0  0  0  0  0  0  0  0
   44.2140   33.6490   42.4370 N   0  0  0  0  0  0  0  0  0  0  0  0
   44.5010   34.9710   42.2850 C   0  0  0  0  0  0  0  0  0  0  0  0
   43.9240   35.7410   41.3140 N   0  0  0  0  0  0  0  0  0  0  0  0
   41.7790   33.3170   39.6730 N   0  0  0  0  0  0  0  0  0  0  0  0
   42.1750   32.5180   38.7000 N   0  0  0  0  0  0  0  0  0  0  0  0
   41.0600   32.1810   37.9580 C   0  0  0  0  0  0  0  0  0  0  0  0
   39.9980   32.8510   38.5850 C   0  0  0  0  0  0  0  0  0  0  0  0
   40.4610   33.5730   39.6760 C   0  0  0  0  0  0  0  0  0  0  0  0
   39.5160   34.3650   40.4970 C   0  0  0  0  0  0  0  0  0  0  0  0
   39.5770   34.0410   41.8560 F   0  0  0  0  0  0  0  0  0  0  0  0
   38.1710   33.9630   40.2010 F   0  0  0  0  0  0  0  0  0  0  0  0
   39.4750   35.7000   40.2600 F   0  0  0  0  0  0  0  0  0  0  0  0
   45.4910   35.5570   43.2390 C   0  0  0  0  0  0  0  0  0  0  0  0
   44.6850   36.2040   44.3600 C   0  0  0  0  0  0  0  0  0  0  0  0
   44.3050   35.2670   45.3770 N   0  0  0  0  0  0  0  0  0  0  0  0
   42.5727   35.7704   39.6955 H   0  0  0  0  0  0  0  0  0  0  0  0
   43.0767   31.9827   41.7081 H   0  0  0  0  0  0  0  0  0  0  0  0
   41.0144   31.5312   37.0716 H   0  0  0  0  0  0  0  0  0  0  0  0
   38.9485   32.8097   38.2583 H   0  0  0  0  0  0  0  0  0  0  0  0
   46.1401   34.7673   43.6452 H   0  0  0  0  0  0  0  0  0  0  0  0
   46.1365   36.2936   42.7383 H   0  0  0  0  0  0  0  0  0  0  0  0
   45.2942   36.9959   44.8203 H   0  0  0  0  0  0  0  0  0  0  0  0
   43.7626   36.6078   43.9172 H   0  0  0  0  0  0  0  0  0  0  0  0
   44.4728   35.6809   46.3051 H   0  0  0  0  0  0  0  0  0  0  0  0
   43.3053   35.0397   45.2781 H   0  0  0  0  0  0  0  0  0  0  0  0
  1  2  2  0
  1  6  1  0
  2  3  1  0
  3  4  2  0
  5  4  1  0
  5 16  1  0
  6  5  2  0
  7 11  1  0
  7  2  1  0
  8  7  1  0
  9 10  1  0
  9  8  2  0
 10 11  2  0
 11 12  1  0
 12 13  1  0
 14 12  1  0
 15 12  1  0
 16 17  1  0
 17 18  1  0
  1 19  1  0
  3 20  1  0
  9 21  1  0
 10 22  1  0
 16 23  1  0
 16 24  1  0
 17 25  1  0
 17 26  1  0
 18 27  1  0
 18 28  1  0
M  ISO  8  19  14  20  14  21  14  22  14  23   8  24   8  25   8  26   8
M  ISO  2  27   5  28   5
M  END
>  <minimizedAffinity>  (1) 
-5.18382883

>  <minimizedRMSD>  (1) 
0.426650137

$$$$
