
     RDKit          3D

 45 47  0  0  1  0  0  0  0  0999 V2000
   41.2990   35.1440   41.2150 C   0  0  0  0  0  0  0  0  0  0  0  0
   41.4290   34.4450   40.0320 C   0  0  0  0  0  0  0  0  0  0  0  0
   42.7110   34.1360   39.5910 C   0  0  0  0  0  0  0  0  0  0  0  0
   43.7940   34.5160   40.3150 N   0  0  0  0  0  0  0  0  0  0  0  0
   43.6300   35.1910   41.4570 C   0  0  0  0  0  0  0  0  0  0  0  0
   42.3700   35.5160   41.9240 N   0  0  0  0  0  0  0  0  0  0  0  0
   40.2520   34.0940   39.3600 N   0  0  0  0  0  0  0  0  0  0  0  0
   39.9440   34.6800   38.2140 N   0  0  0  0  0  0  0  0  0  0  0  0
   38.7450   34.1440   37.7910 C   0  0  0  0  0  0  0  0  0  0  0  0
   38.3840   33.2040   38.7820 C   0  0  0  0  0  0  0  0  0  0  0  0
   39.3530   33.1800   39.7800 C   0  0  0  0  0  0  0  0  0  0  0  0
   39.1870   32.2560   40.9350 C   0  0  0  0  0  0  0  0  0  0  0  0
   39.7720   31.0010   40.7070 F   0  0  0  0  0  0  0  0  0  0  0  0
   37.8230   31.8580   41.0440 F   0  0  0  0  0  0  0  0  0  0  0  0
   39.4620   32.7720   42.1470 F   0  0  0  0  0  0  0  0  0  0  0  0
   44.7830   35.6080   42.3240 C   0  0  0  0  0  0  0  0  0  0  0  0
   45.2890   34.3830   43.0040 C   0  0  2  0  0  0  0  0  0  0  0  0
   44.2530   33.4850   43.3160 N   0  0  0  0  0  0  0  0  0  0  0  0
   44.1270   32.3020   42.5620 C   0  0  0  0  0  0  0  0  0  0  0  0
   44.9810   31.8700   41.6920 N   0  0  0  0  0  0  0  0  0  0  0  0
   42.9420   31.5030   42.7430 N   0  0  0  0  0  0  0  0  0  0  0  0
   45.8240   32.4000   41.5080 H   0  0  0  0  0  0  0  0  0  0  0  0
   46.4150   34.2800   43.7650 N   0  0  0  0  0  0  0  0  0  0  0  0
   46.4350   33.4810   44.9510 C   0  0  0  0  0  0  0  0  0  0  0  0
   47.1350   32.2190   44.5140 C   0  0  0  0  0  0  0  0  0  0  0  0
   47.9730   32.6560   43.3030 C   0  0  0  0  0  0  0  0  0  0  0  0
   47.7130   34.1530   43.2470 C   0  0  0  0  0  0  0  0  0  0  0  0
   40.2942   35.4002   41.5820 H   0  0  0  0  0  0  0  0  0  0  0  0
   42.8479   33.5811   38.6511 H   0  0  0  0  0  0  0  0  0  0  0  0
   38.1883   34.3953   36.8762 H   0  0  0  0  0  0  0  0  0  0  0  0
   37.4748   32.5850   38.7668 H   0  0  0  0  0  0  0  0  0  0  0  0
   45.5778   36.0516   41.7063 H   0  0  0  0  0  0  0  0  0  0  0  0
   44.4651   36.3603   43.0609 H   0  0  0  0  0  0  0  0  0  0  0  0
   45.9395   34.1021   42.1626 H   0  0  0  0  0  0  0  0  0  0  0  0
   43.5969   33.6889   44.0834 H   0  0  0  0  0  0  0  0  0  0  0  0
   42.8209   30.6325   42.2060 H   0  0  0  0  0  0  0  0  0  0  0  0
   42.2159   31.8023   43.4094 H   0  0  0  0  0  0  0  0  0  0  0  0
   46.9947   33.9831   45.7539 H   0  0  0  0  0  0  0  0  0  0  0  0
   45.4305   33.2944   45.3586 H   0  0  0  0  0  0  0  0  0  0  0  0
   47.7804   31.8324   45.3165 H   0  0  0  0  0  0  0  0  0  0  0  0
   46.4320   31.4086   44.2708 H   0  0  0  0  0  0  0  0  0  0  0  0
   49.0407   32.4434   43.4607 H   0  0  0  0  0  0  0  0  0  0  0  0
   47.7092   32.1297   42.3738 H   0  0  0  0  0  0  0  0  0  0  0  0
   48.4386   34.7014   43.8657 H   0  0  0  0  0  0  0  0  0  0  0  0
   47.8118   34.5672   42.2328 H   0  0  0  0  0  0  0  0  0  0  0  0
  1  6  2  0
  2  1  1  0
  3  2  2  0
  3  4  1  0
  4  5  2  0
  5  6  1  0
  5 16  1  0
  7 11  1  0
  7  2  1  0
  8  7  1  0
  9  8  2  0
  9 10  1  0
 10 11  2  0
 11 12  1  0
 12 14  1  0
 12 15  1  0
 13 12  1  0
 16 17  1  0
 17 18  1  0
 17 23  1  0
 19 21  1  0
 19 18  1  0
 20 19  2  0
 22 20  1  0
 23 24  1  0
 25 24  1  0
 26 25  1  0
 27 26  1  0
 27 23  1  0
  1 28  1  0
  3 29  1  0
  9 30  1  0
 10 31  1  0
 16 32  1  0
 16 33  1  0
 17 34  1  6
 18 35  1  0
 21 36  1  0
 21 37  1  0
 24 38  1  0
 24 39  1  0
 25 40  1  0
 25 41  1  0
 26 42  1  0
 26 43  1  0
 27 44  1  0
 27 45  1  0
M  ISO  8  28  14  29  14  30  14  31  14  32   8  33   8  34   8  38  13
M  ISO  7  39  13  40  13  41  13  42  13  43  13  44  13  45  13
M  END
>  <minimizedAffinity>  (1) 
-6.08715487

>  <minimizedRMSD>  (1) 
1.33156145

$$$$
