
     RDKit          3D

 40 42  0  0  1  0  0  0  0  0999 V2000
   42.5790   35.4480   41.2450 C   0  0  0  0  0  0  0  0  0  0  0  0
   42.5760   34.6950   40.0930 C   0  0  0  0  0  0  0  0  0  0  0  0
   43.7290   33.9950   39.7600 C   0  0  0  0  0  0  0  0  0  0  0  0
   44.8220   34.0590   40.5590 N   0  0  0  0  0  0  0  0  0  0  0  0
   44.7910   34.8000   41.6740 C   0  0  0  0  0  0  0  0  0  0  0  0
   43.6610   35.5090   42.0320 N   0  0  0  0  0  0  0  0  0  0  0  0
   41.4010   34.6880   39.3320 N   0  0  0  0  0  0  0  0  0  0  0  0
   41.3930   35.2170   38.1180 N   0  0  0  0  0  0  0  0  0  0  0  0
   40.1170   35.0670   37.6160 C   0  0  0  0  0  0  0  0  0  0  0  0
   39.3940   34.4130   38.6300 C   0  0  0  0  0  0  0  0  0  0  0  0
   40.2160   34.1710   39.7280 C   0  0  0  0  0  0  0  0  0  0  0  0
   39.6650   33.4890   40.9250 C   0  0  0  0  0  0  0  0  0  0  0  0
   40.1110   32.1680   41.0470 F   0  0  0  0  0  0  0  0  0  0  0  0
   38.2700   33.2550   40.7470 F   0  0  0  0  0  0  0  0  0  0  0  0
   39.7190   34.1880   42.0810 F   0  0  0  0  0  0  0  0  0  0  0  0
   45.9520   34.8920   42.6240 C   0  0  0  0  0  0  0  0  0  0  0  0
   45.9050   33.6710   43.4750 C   0  0  2  0  0  0  0  0  0  0  0  0
   44.6110   33.1360   43.5670 N   0  0  0  0  0  0  0  0  0  0  0  0
   44.3320   31.9550   42.8340 C   0  0  0  0  0  0  0  0  0  0  0  0
   45.2140   31.2180   42.2310 N   0  0  0  0  0  0  0  0  0  0  0  0
   42.9620   31.5300   42.7240 N   0  0  0  0  0  0  0  0  0  0  0  0
   46.1920   31.4850   42.2560 H   0  0  0  0  0  0  0  0  0  0  0  0
   46.8100   33.4310   44.5880 C   0  0  0  0  0  0  0  0  0  0  0  0
   46.9000   32.1480   45.3270 C   0  0  0  0  0  0  0  0  0  0  0  0
   46.3330   33.3090   46.0080 C   0  0  0  0  0  0  0  0  0  0  0  0
   41.6759   36.0103   41.5246 H   0  0  0  0  0  0  0  0  0  0  0  0
   43.7549   33.3863   38.8441 H   0  0  0  0  0  0  0  0  0  0  0  0
   39.7444   35.3899   36.6327 H   0  0  0  0  0  0  0  0  0  0  0  0
   38.3322   34.1330   38.5651 H   0  0  0  0  0  0  0  0  0  0  0  0
   46.8982   34.9280   42.0642 H   0  0  0  0  0  0  0  0  0  0  0  0
   45.8916   35.8040   43.2361 H   0  0  0  0  0  0  0  0  0  0  0  0
   46.5428   33.0204   42.8587 H   0  0  0  0  0  0  0  0  0  0  0  0
   43.8886   33.5859   44.1472 H   0  0  0  0  0  0  0  0  0  0  0  0
   42.7284   30.6759   42.1978 H   0  0  0  0  0  0  0  0  0  0  0  0
   42.2147   32.0798   43.1715 H   0  0  0  0  0  0  0  0  0  0  0  0
   47.5224   34.0641   44.0387 H   0  0  0  0  0  0  0  0  0  0  0  0
   46.2480   31.3082   45.0446 H   0  0  0  0  0  0  0  0  0  0  0  0
   47.7159   31.4458   45.5531 H   0  0  0  0  0  0  0  0  0  0  0  0
   46.8919   33.7976   46.8197 H   0  0  0  0  0  0  0  0  0  0  0  0
   45.3887   33.5187   46.5317 H   0  0  0  0  0  0  0  0  0  0  0  0
  1  6  2  0
  2  1  1  0
  3  2  2  0
  3  4  1  0
  4  5  2  0
  5  6  1  0
  5 16  1  0
  7 11  1  0
  7  2  1  0
  8  7  1  0
  9  8  2  0
  9 10  1  0
 10 11  2  0
 11 12  1  0
 12 13  1  0
 12 15  1  0
 14 12  1  0
 16 17  1  0
 17 18  1  0
 17 23  1  0
 19 18  1  0
 20 22  1  0
 20 19  2  0
 21 19  1  0
 23 24  1  0
 23 25  1  0
 24 25  1  0
  1 26  1  0
  3 27  1  0
  9 28  1  0
 10 29  1  0
 16 30  1  0
 16 31  1  0
 17 32  1  6
 18 33  1  0
 21 34  1  0
 21 35  1  0
 23 36  1  0
 24 37  1  0
 24 38  1  0
 25 39  1  0
 25 40  1  0
M  ISO  8  26  14  27  14  28  14  29  14  30   8  31   8  32   8  36  13
M  ISO  4  37  13  38  13  39  13  40  13
M  END
>  <minimizedAffinity>  (1) 
-5.97352123

>  <minimizedRMSD>  (1) 
0.678184211

$$$$
