
     RDKit          3D

 35 36  0  0  1  0  0  0  0  0999 V2000
   42.7370   35.5590   41.3690 C   0  0  0  0  0  0  0  0  0  0  0  0
   42.7500   34.7700   40.2380 C   0  0  0  0  0  0  0  0  0  0  0  0
   43.9000   34.0410   39.9540 C   0  0  0  0  0  0  0  0  0  0  0  0
   44.9730   34.1130   40.7770 N   0  0  0  0  0  0  0  0  0  0  0  0
   44.9300   34.8890   41.8670 C   0  0  0  0  0  0  0  0  0  0  0  0
   43.8010   35.6250   42.1780 N   0  0  0  0  0  0  0  0  0  0  0  0
   41.5910   34.7580   39.4510 N   0  0  0  0  0  0  0  0  0  0  0  0
   41.6170   35.2700   38.2290 N   0  0  0  0  0  0  0  0  0  0  0  0
   40.3530   35.1270   37.7010 C   0  0  0  0  0  0  0  0  0  0  0  0
   39.5970   34.4920   38.7110 C   0  0  0  0  0  0  0  0  0  0  0  0
   40.3930   34.2580   39.8270 C   0  0  0  0  0  0  0  0  0  0  0  0
   39.8100   33.5960   41.0210 C   0  0  0  0  0  0  0  0  0  0  0  0
   40.2720   32.2830   41.1850 F   0  0  0  0  0  0  0  0  0  0  0  0
   38.4280   33.3310   40.7990 F   0  0  0  0  0  0  0  0  0  0  0  0
   39.8140   34.3200   42.1600 F   0  0  0  0  0  0  0  0  0  0  0  0
   46.0610   35.0000   42.8510 C   0  0  0  0  0  0  0  0  0  0  0  0
   46.1000   33.7070   43.6010 C   0  0  2  0  0  0  0  0  0  0  0  0
   44.8240   33.1370   43.7320 N   0  0  0  0  0  0  0  0  0  0  0  0
   44.5900   31.9020   43.0710 C   0  0  0  0  0  0  0  0  0  0  0  0
   45.5000   31.1630   42.5130 N   0  0  0  0  0  0  0  0  0  0  0  0
   43.2380   31.4130   42.9860 N   0  0  0  0  0  0  0  0  0  0  0  0
   46.4680   31.4680   42.5210 H   0  0  0  0  0  0  0  0  0  0  0  0
   47.0350   33.5490   44.5860 N   0  0  0  0  0  0  0  0  0  0  0  0
   41.8371   36.1438   41.6102 H   0  0  0  0  0  0  0  0  0  0  0  0
   43.9380   33.4040   39.0580 H   0  0  0  0  0  0  0  0  0  0  0  0
   40.0063   35.4404   36.7052 H   0  0  0  0  0  0  0  0  0  0  0  0
   38.5340   34.2220   38.6271 H   0  0  0  0  0  0  0  0  0  0  0  0
   47.0114   35.1606   42.3210 H   0  0  0  0  0  0  0  0  0  0  0  0
   45.9132   35.8507   43.5325 H   0  0  0  0  0  0  0  0  0  0  0  0
   46.6240   32.9916   42.9501 H   0  0  0  0  0  0  0  0  0  0  0  0
   44.0867   33.5962   44.2855 H   0  0  0  0  0  0  0  0  0  0  0  0
   43.0422   30.5199   42.5117 H   0  0  0  0  0  0  0  0  0  0  0  0
   42.4669   31.9564   43.3995 H   0  0  0  0  0  0  0  0  0  0  0  0
   46.5800   33.6259   45.5068 H   0  0  0  0  0  0  0  0  0  0  0  0
   47.4746   32.6218   44.4966 H   0  0  0  0  0  0  0  0  0  0  0  0
  1  6  2  0
  2  1  1  0
  3  2  2  0
  3  4  1  0
  4  5  2  0
  5  6  1  0
  5 16  1  0
  7 11  1  0
  7  2  1  0
  8  7  1  0
  9  8  2  0
  9 10  1  0
 10 11  2  0
 11 12  1  0
 12 13  1  0
 12 15  1  0
 14 12  1  0
 16 17  1  0
 17 18  1  0
 17 23  1  0
 19 18  1  0
 20 22  1  0
 20 19  2  0
 21 19  1  0
  1 24  1  0
  3 25  1  0
  9 26  1  0
 10 27  1  0
 16 28  1  0
 16 29  1  0
 17 30  1  6
 18 31  1  0
 21 32  1  0
 21 33  1  0
 23 34  1  0
 23 35  1  0
M  ISO  8  24  14  25  14  26  14  27  14  28   8  29   8  30   8  34   5
M  ISO  1  35   5
M  END
>  <minimizedAffinity>  (1) 
-5.72426558

>  <minimizedRMSD>  (1) 
0.20981285

$$$$
