
     RDKit          3D

 43 45  0  0  1  0  0  0  0  0999 V2000
   45.9230   33.9960   43.0330 C   0  0  0  0  0  0  0  0  0  0  0  0
   42.8610   35.2420   41.4160 C   0  0  0  0  0  0  0  0  0  0  0  0
   42.8830   34.6570   40.1690 C   0  0  0  0  0  0  0  0  0  0  0  0
   43.9550   33.8320   39.8500 C   0  0  0  0  0  0  0  0  0  0  0  0
   44.9450   33.6170   40.7500 N   0  0  0  0  0  0  0  0  0  0  0  0
   44.8930   34.2020   41.9550 C   0  0  0  0  0  0  0  0  0  0  0  0
   43.8390   35.0280   42.3010 N   0  0  0  0  0  0  0  0  0  0  0  0
   41.8150   34.9320   39.3080 N   0  0  0  0  0  0  0  0  0  0  0  0
   42.0270   35.5940   38.1810 N   0  0  0  0  0  0  0  0  0  0  0  0
   40.8070   35.7180   37.5460 C   0  0  0  0  0  0  0  0  0  0  0  0
   39.8820   35.0810   38.3870 C   0  0  0  0  0  0  0  0  0  0  0  0
   40.5280   34.5780   39.5160 C   0  0  0  0  0  0  0  0  0  0  0  0
   39.7450   33.8570   40.5530 C   0  0  0  0  0  0  0  0  0  0  0  0
   39.9440   32.4720   40.5100 F   0  0  0  0  0  0  0  0  0  0  0  0
   38.3570   33.9070   40.2310 F   0  0  0  0  0  0  0  0  0  0  0  0
   39.7960   34.3760   41.7990 F   0  0  0  0  0  0  0  0  0  0  0  0
   45.5520   32.7330   43.7370 C   0  0  1  0  0  0  0  0  0  0  0  0
   46.1520   32.4460   44.9750 C   0  0  0  0  0  0  0  0  0  0  0  0
   46.7500   31.1810   45.0490 C   0  0  0  0  0  0  0  0  0  0  0  0
   47.3950   30.7230   46.2040 C   0  0  0  0  0  0  0  0  0  0  0  0
   47.4570   31.5250   47.3250 C   0  0  0  0  0  0  0  0  0  0  0  0
   46.8870   32.7740   47.3100 C   0  0  0  0  0  0  0  0  0  0  0  0
   46.2620   33.1880   46.1520 C   0  0  0  0  0  0  0  0  0  0  0  0
   44.2140   32.3750   43.4960 N   0  0  0  0  0  0  0  0  0  0  0  0
   43.9800   31.2960   42.6010 C   0  0  0  0  0  0  0  0  0  0  0  0
   44.8890   30.4940   42.1360 N   0  0  0  0  0  0  0  0  0  0  0  0
   42.6370   31.0590   42.1450 N   0  0  0  0  0  0  0  0  0  0  0  0
   45.8600   30.6260   42.3950 H   0  0  0  0  0  0  0  0  0  0  0  0
   45.9108   34.8412   43.7369 H   0  0  0  0  0  0  0  0  0  0  0  0
   46.9359   33.9325   42.6088 H   0  0  0  0  0  0  0  0  0  0  0  0
   42.0215   35.8984   41.6887 H   0  0  0  0  0  0  0  0  0  0  0  0
   44.0001   33.3510   38.8618 H   0  0  0  0  0  0  0  0  0  0  0  0
   40.6034   36.2117   36.5843 H   0  0  0  0  0  0  0  0  0  0  0  0
   38.8044   34.9914   38.1852 H   0  0  0  0  0  0  0  0  0  0  0  0
   46.1234   31.9321   43.2449 H   0  0  0  0  0  0  0  0  0  0  0  0
   46.7112   30.5240   44.1676 H   0  0  0  0  0  0  0  0  0  0  0  0
   47.8528   29.7229   46.2178 H   0  0  0  0  0  0  0  0  0  0  0  0
   47.9637   31.1633   48.2319 H   0  0  0  0  0  0  0  0  0  0  0  0
   46.9275   33.4254   48.1954 H   0  0  0  0  0  0  0  0  0  0  0  0
   45.8106   34.1911   46.1567 H   0  0  0  0  0  0  0  0  0  0  0  0
   43.4354   32.8741   43.9494 H   0  0  0  0  0  0  0  0  0  0  0  0
   42.4428   30.2830   41.4961 H   0  0  0  0  0  0  0  0  0  0  0  0
   41.8692   31.6652   42.4672 H   0  0  0  0  0  0  0  0  0  0  0  0
  1 17  1  0
  2  7  2  0
  3  2  1  0
  4  3  2  0
  4  5  1  0
  5  6  2  0
  6  7  1  0
  6  1  1  0
  8 12  1  0
  8  3  1  0
  9  8  1  0
 10  9  2  0
 10 11  1  0
 11 12  2  0
 12 13  1  0
 13 16  1  0
 14 13  1  0
 15 13  1  0
 17 18  1  0
 18 19  2  0
 18 23  1  0
 19 20  1  0
 20 21  2  0
 22 21  1  0
 23 22  2  0
 24 17  1  0
 25 24  1  0
 26 28  1  0
 26 25  2  0
 27 25  1  0
  1 29  1  0
  1 30  1  0
  2 31  1  0
  4 32  1  0
 10 33  1  0
 11 34  1  0
 17 35  1  6
 19 36  1  0
 20 37  1  0
 21 38  1  0
 22 39  1  0
 23 40  1  0
 24 41  1  0
 27 42  1  0
 27 43  1  0
M  ISO  8  29   8  30   8  31  14  32  14  33  14  34  14  35   8  36  14
M  ISO  4  37  14  38  14  39  14  40  14
M  END
>  <minimizedAffinity>  (1) 
-5.70651102

>  <minimizedRMSD>  (1) 
1.17712724

$$$$
