
     RDKit          3D

 27 29  0  0  0  0  0  0  0  0999 V2000
   44.1820   35.8010   42.1900 C   0  0  0  0  0  0  0  0  0  0  0  0
   43.7910   35.3440   40.9150 C   0  0  0  0  0  0  0  0  0  0  0  0
   44.1780   34.0580   40.5190 C   0  0  0  0  0  0  0  0  0  0  0  0
   44.9120   33.3320   41.3980 N   0  0  0  0  0  0  0  0  0  0  0  0
   45.2810   33.7690   42.6060 C   0  0  0  0  0  0  0  0  0  0  0  0
   44.9160   35.0110   43.0100 N   0  0  0  0  0  0  0  0  0  0  0  0
   46.0510   32.8840   43.4090 N   0  0  0  0  0  0  0  0  0  0  0  0
   46.9620   31.9920   42.9150 C   0  0  0  0  0  0  0  0  0  0  0  0
   47.5350   31.2970   43.8860 N   0  0  0  0  0  0  0  0  0  0  0  0
   47.0210   31.7070   45.0570 C   0  0  0  0  0  0  0  0  0  0  0  0
   47.2440   31.3370   46.3680 C   0  0  0  0  0  0  0  0  0  0  0  0
   48.0800   30.4510   46.5790 O   0  0  0  0  0  0  0  0  0  0  0  0
   46.5200   31.9850   47.3400 N   0  0  0  0  0  0  0  0  0  0  0  0
   45.6290   32.9430   47.0020 C   0  0  0  0  0  0  0  0  0  0  0  0
   44.9720   33.5030   48.1120 N   0  0  0  0  0  0  0  0  0  0  0  0
   45.4040   33.3110   45.7170 N   0  0  0  0  0  0  0  0  0  0  0  0
   46.1070   32.6870   44.7300 C   0  0  0  0  0  0  0  0  0  0  0  0
   46.7860   31.5660   48.7020 C   0  0  0  0  0  0  0  0  0  0  0  0
   45.9800   32.2100   49.5900 F   0  0  0  0  0  0  0  0  0  0  0  0
   48.1090   31.8650   49.0560 F   0  0  0  0  0  0  0  0  0  0  0  0
   46.6390   30.1920   48.7220 F   0  0  0  0  0  0  0  0  0  0  0  0
   43.8885   36.8078   42.5219 H   0  0  0  0  0  0  0  0  0  0  0  0
   43.1955   35.9831   40.2465 H   0  0  0  0  0  0  0  0  0  0  0  0
   43.8981   33.6533   39.5352 H   0  0  0  0  0  0  0  0  0  0  0  0
   47.1902   31.8674   41.8462 H   0  0  0  0  0  0  0  0  0  0  0  0
   44.2698   34.2440   47.9750 H   0  0  0  0  0  0  0  0  0  0  0  0
   45.1929   33.1722   49.0621 H   0  0  0  0  0  0  0  0  0  0  0  0
  1  6  2  0
  2  1  1  0
  3  2  2  0
  3  4  1  0
  4  5  2  0
  5  6  1  0
  5  7  1  0
  7 17  1  0
  8  7  1  0
  8  9  2  0
  9 10  1  0
 10 11  1  0
 11 12  2  0
 11 13  1  0
 13 18  1  0
 14 13  1  0
 14 15  1  0
 16 14  2  0
 17 10  2  0
 17 16  1  0
 18 21  1  0
 18 20  1  0
 18 19  1  0
  1 22  1  0
  2 23  1  0
  3 24  1  0
  8 25  1  0
 15 26  1  0
 15 27  1  0
M  ISO  4  22  14  23  14  24  14  25  14
M  END
>  <minimizedAffinity>  (1) 
-5.47686625

>  <minimizedRMSD>  (1) 
2.2381196

$$$$
