
     RDKit          3D

 47 51  0  0  1  0  0  0  0  0999 V2000
   44.3030   36.0010   42.6390 C   0  0  0  0  0  0  0  0  0  0  0  0
   43.7220   35.7010   41.3970 C   0  0  0  0  0  0  0  0  0  0  0  0
   43.9240   34.4280   40.8610 C   0  0  0  0  0  0  0  0  0  0  0  0
   44.6730   33.5270   41.5560 N   0  0  0  0  0  0  0  0  0  0  0  0
   45.2190   33.8260   42.7360 C   0  0  0  0  0  0  0  0  0  0  0  0
   45.0390   35.0720   43.2930 N   0  0  0  0  0  0  0  0  0  0  0  0
   45.9870   32.8210   43.3810 N   0  0  0  0  0  0  0  0  0  0  0  0
   46.7450   31.8970   42.7190 C   0  0  0  0  0  0  0  0  0  0  0  0
   47.3670   31.0790   43.5440 N   0  0  0  0  0  0  0  0  0  0  0  0
   47.0330   31.4440   44.8170 C   0  0  0  0  0  0  0  0  0  0  0  0
   47.3870   30.9490   46.0270 C   0  0  0  0  0  0  0  0  0  0  0  0
   48.1560   29.9790   46.0790 O   0  0  0  0  0  0  0  0  0  0  0  0
   46.8810   31.5410   47.1350 N   0  0  0  0  0  0  0  0  0  0  0  0
   46.0440   32.5970   46.9910 C   0  0  0  0  0  0  0  0  0  0  0  0
   45.5710   33.1600   48.2060 N   0  0  0  0  0  0  0  0  0  0  0  0
   45.6720   33.1150   45.7760 N   0  0  0  0  0  0  0  0  0  0  0  0
   46.1850   32.5150   44.6700 C   0  0  0  0  0  0  0  0  0  0  0  0
   47.2430   31.0420   48.4110 C   0  0  2  0  0  0  0  0  0  0  0  0
   46.0490   31.0670   49.3320 C   0  0  0  0  0  0  0  0  0  0  0  0
   48.4580   31.6470   49.0260 C   0  0  0  0  0  0  0  0  0  0  0  0
   49.3780   30.7080   49.6970 C   0  0  0  0  0  0  0  0  0  0  0  0
   49.4650   29.3500   49.4620 C   0  0  0  0  0  0  0  0  0  0  0  0
   50.4090   28.7220   50.1840 N   0  0  0  0  0  0  0  0  0  0  0  0
   50.9700   29.6830   50.9240 C   0  0  0  0  0  0  0  0  0  0  0  0
   51.9920   29.7080   51.8800 C   0  0  0  0  0  0  0  0  0  0  0  0
   52.3910   30.8560   52.5260 C   0  0  0  0  0  0  0  0  0  0  0  0
   51.7840   32.0770   52.2520 C   0  0  0  0  0  0  0  0  0  0  0  0
   50.7840   32.0330   51.3120 C   0  0  0  0  0  0  0  0  0  0  0  0
   50.3740   30.8960   50.6580 C   0  0  0  0  0  0  0  0  0  0  0  0
   44.1594   36.9969   43.0835 H   0  0  0  0  0  0  0  0  0  0  0  0
   43.1224   36.4504   40.8594 H   0  0  0  0  0  0  0  0  0  0  0  0
   43.4841   34.1560   39.8902 H   0  0  0  0  0  0  0  0  0  0  0  0
   46.8267   31.8422   41.6234 H   0  0  0  0  0  0  0  0  0  0  0  0
   44.9302   33.9661   48.1850 H   0  0  0  0  0  0  0  0  0  0  0  0
   45.8687   32.7622   49.1082 H   0  0  0  0  0  0  0  0  0  0  0  0
   47.5547   30.0001   48.2456 H   0  0  0  0  0  0  0  0  0  0  0  0
   46.3919   31.0598   50.3772 H   0  0  0  0  0  0  0  0  0  0  0  0
   45.4609   31.9777   49.1453 H   0  0  0  0  0  0  0  0  0  0  0  0
   45.4233   30.1818   49.1453 H   0  0  0  0  0  0  0  0  0  0  0  0
   49.0196   32.1578   48.2300 H   0  0  0  0  0  0  0  0  0  0  0  0
   48.0887   32.3170   49.8164 H   0  0  0  0  0  0  0  0  0  0  0  0
   48.8164   28.8263   48.7444 H   0  0  0  0  0  0  0  0  0  0  0  0
   50.6476   27.7201   50.1700 H   0  0  0  0  0  0  0  0  0  0  0  0
   52.5009   28.7646   52.1270 H   0  0  0  0  0  0  0  0  0  0  0  0
   53.2008   30.8071   53.2689 H   0  0  0  0  0  0  0  0  0  0  0  0
   52.0832   33.0100   52.7519 H   0  0  0  0  0  0  0  0  0  0  0  0
   50.2743   32.9759   51.0646 H   0  0  0  0  0  0  0  0  0  0  0  0
  1  6  2  0
  2  1  1  0
  3  2  2  0
  3  4  1  0
  4  5  2  0
  5  6  1  0
  5  7  1  0
  7 17  1  0
  8  7  1  0
  8  9  2  0
  9 10  1  0
 10 11  1  0
 11 12  2  0
 11 13  1  0
 13 18  1  0
 14 13  1  0
 14 15  1  0
 16 14  2  0
 17 10  2  0
 17 16  1  0
 18 20  1  0
 18 19  1  0
 20 21  1  0
 21 29  1  0
 22 21  2  0
 22 23  1  0
 23 24  1  0
 24 25  2  0
 25 26  1  0
 27 26  2  0
 28 27  1  0
 29 24  1  0
 29 28  2  0
  1 30  1  0
  2 31  1  0
  3 32  1  0
  8 33  1  0
 15 34  1  0
 15 35  1  0
 18 36  1  6
 19 37  1  0
 19 38  1  0
 19 39  1  0
 20 40  1  0
 20 41  1  0
 22 42  1  0
 23 43  1  0
 25 44  1  0
 26 45  1  0
 27 46  1  0
 28 47  1  0
M  ISO  8  30  14  31  14  32  14  33  14  36   8  37   8  38   8  39   8
M  ISO  8  40   8  41   8  42  14  43   9  44  14  45  14  46  14  47  14
M  END
>  <minimizedAffinity>  (1) 
-6.62534428

>  <minimizedRMSD>  (1) 
1.78750551

$$$$
