
     RDKit          3D

 46 49  0  0  1  0  0  0  0  0999 V2000
   44.0290   35.8520   42.1740 C   0  0  0  0  0  0  0  0  0  0  0  0
   43.4590   35.4700   40.9500 C   0  0  0  0  0  0  0  0  0  0  0  0
   43.7240   34.1680   40.4770 C   0  0  0  0  0  0  0  0  0  0  0  0
   44.5160   33.3500   41.2270 N   0  0  0  0  0  0  0  0  0  0  0  0
   45.0470   33.7460   42.3940 C   0  0  0  0  0  0  0  0  0  0  0  0
   44.8120   35.0070   42.8900 N   0  0  0  0  0  0  0  0  0  0  0  0
   45.8560   32.8150   43.0930 N   0  0  0  0  0  0  0  0  0  0  0  0
   46.6590   31.9000   42.4790 C   0  0  0  0  0  0  0  0  0  0  0  0
   47.3070   31.1510   43.3480 N   0  0  0  0  0  0  0  0  0  0  0  0
   46.9450   31.5540   44.5990 C   0  0  0  0  0  0  0  0  0  0  0  0
   47.3100   31.1280   45.8300 C   0  0  0  0  0  0  0  0  0  0  0  0
   48.1200   30.2010   45.9440 O   0  0  0  0  0  0  0  0  0  0  0  0
   46.7590   31.7520   46.9140 N   0  0  0  0  0  0  0  0  0  0  0  0
   45.8790   32.7610   46.7090 C   0  0  0  0  0  0  0  0  0  0  0  0
   45.3630   33.3540   47.8930 N   0  0  0  0  0  0  0  0  0  0  0  0
   45.4960   33.2080   45.4740 N   0  0  0  0  0  0  0  0  0  0  0  0
   46.0520   32.5800   44.3970 C   0  0  0  0  0  0  0  0  0  0  0  0
   47.1280   31.3190   48.2150 C   0  0  2  0  0  0  0  0  0  0  0  0
   45.9150   31.2920   49.1090 C   0  0  0  0  0  0  0  0  0  0  0  0
   48.2800   32.0450   48.8250 C   0  0  0  0  0  0  0  0  0  0  0  0
   51.1670   29.7000   50.8290 C   0  0  0  0  0  0  0  0  0  0  0  0
   51.1340   31.0880   50.9690 C   0  0  0  0  0  0  0  0  0  0  0  0
   50.1730   31.7730   50.2910 C   0  0  0  0  0  0  0  0  0  0  0  0
   49.2570   31.1240   49.4880 C   0  0  0  0  0  0  0  0  0  0  0  0
   49.2630   29.7520   49.3300 C   0  0  0  0  0  0  0  0  0  0  0  0
   50.2460   29.0370   50.0220 C   0  0  0  0  0  0  0  0  0  0  0  0
   52.3680   28.7610   51.6690 S   0  0  0  0  0  0  0  0  0  0  0  0
   51.8630   27.4150   52.1030 O   0  0  0  0  0  0  0  0  0  0  0  0
   52.7990   29.5130   52.9140 O   0  0  0  0  0  0  0  0  0  0  0  0
   43.8359   36.8627   42.5628 H   0  0  0  0  0  0  0  0  0  0  0  0
   42.8257   36.1638   40.3777 H   0  0  0  0  0  0  0  0  0  0  0  0
   43.3007   33.8199   39.5233 H   0  0  0  0  0  0  0  0  0  0  0  0
   46.7545   31.7991   41.3878 H   0  0  0  0  0  0  0  0  0  0  0  0
   44.6874   34.1288   47.8287 H   0  0  0  0  0  0  0  0  0  0  0  0
   45.6647   33.0090   48.8154 H   0  0  0  0  0  0  0  0  0  0  0  0
   47.5151   30.2956   48.1015 H   0  0  0  0  0  0  0  0  0  0  0  0
   46.2349   31.2991   50.1614 H   0  0  0  0  0  0  0  0  0  0  0  0
   45.2924   32.1765   48.9090 H   0  0  0  0  0  0  0  0  0  0  0  0
   45.3323   30.3807   48.9090 H   0  0  0  0  0  0  0  0  0  0  0  0
   48.8030   32.6030   48.0343 H   0  0  0  0  0  0  0  0  0  0  0  0
   47.8782   32.7162   49.5984 H   0  0  0  0  0  0  0  0  0  0  0  0
   51.8613   31.6117   51.6068 H   0  0  0  0  0  0  0  0  0  0  0  0
   50.1253   32.8679   50.3851 H   0  0  0  0  0  0  0  0  0  0  0  0
   48.5276   29.2442   48.6886 H   0  0  0  0  0  0  0  0  0  0  0  0
   50.2919   27.9420   49.9280 H   0  0  0  0  0  0  0  0  0  0  0  0
   53.4039   28.5672   50.7937 H   0  0  0  0  0  0  0  0  0  0  0  0
  1  6  2  0
  2  1  1  0
  3  2  2  0
  3  4  1  0
  4  5  2  0
  5  6  1  0
  5  7  1  0
  7 17  1  0
  8  7  1  0
  8  9  2  0
  9 10  1  0
 10 11  1  0
 11 12  2  0
 11 13  1  0
 13 18  1  0
 14 13  1  0
 14 15  1  0
 16 14  2  0
 17 10  2  0
 17 16  1  0
 18 20  1  0
 18 19  1  0
 20 24  1  0
 21 22  2  0
 21 27  1  0
 23 22  1  0
 24 23  2  0
 25 24  1  0
 25 26  2  0
 26 21  1  0
 27 28  2  0
 27 29  2  0
  1 30  1  0
  2 31  1  0
  3 32  1  0
  8 33  1  0
 15 34  1  0
 15 35  1  0
 18 36  1  6
 19 37  1  0
 19 38  1  0
 19 39  1  0
 20 40  1  0
 20 41  1  0
 22 42  1  0
 23 43  1  0
 25 44  1  0
 26 45  1  0
 27 46  1  0
M  ISO  8  30  14  31  14  32  14  33  14  36   8  37   8  38   8  39   8
M  ISO  7  40   8  41   8  42  14  43  14  44  14  45  14  46  11
M  END
>  <minimizedAffinity>  (1) 
-6.2883935

>  <minimizedRMSD>  (1) 
2.50335932

$$$$
