
     RDKit          3D

 46 49  0  0  1  0  0  0  0  0999 V2000
   44.1540   35.8410   42.3910 C   0  0  0  0  0  0  0  0  0  0  0  0
   43.5780   35.4750   41.1590 C   0  0  0  0  0  0  0  0  0  0  0  0
   43.8220   34.1780   40.6730 C   0  0  0  0  0  0  0  0  0  0  0  0
   44.6010   33.3400   41.4150 N   0  0  0  0  0  0  0  0  0  0  0  0
   45.1390   33.7090   42.5820 C   0  0  0  0  0  0  0  0  0  0  0  0
   44.9220   34.9710   43.0900 N   0  0  0  0  0  0  0  0  0  0  0  0
   45.9310   32.7640   43.2660 N   0  0  0  0  0  0  0  0  0  0  0  0
   46.7230   31.8370   42.6400 C   0  0  0  0  0  0  0  0  0  0  0  0
   47.3630   31.0720   43.4990 N   0  0  0  0  0  0  0  0  0  0  0  0
   47.0140   31.4700   44.7560 C   0  0  0  0  0  0  0  0  0  0  0  0
   47.3790   31.0240   45.9810 C   0  0  0  0  0  0  0  0  0  0  0  0
   48.1750   30.0840   46.0830 O   0  0  0  0  0  0  0  0  0  0  0  0
   46.8460   31.6420   47.0640 N   0  0  0  0  0  0  0  0  0  0  0  0
   45.9770   32.6680   46.8840 C   0  0  0  0  0  0  0  0  0  0  0  0
   45.4650   33.2550   48.0750 N   0  0  0  0  0  0  0  0  0  0  0  0
   45.5970   33.1300   45.6480 N   0  0  0  0  0  0  0  0  0  0  0  0
   46.1320   32.5110   44.5690 C   0  0  0  0  0  0  0  0  0  0  0  0
   47.2130   31.1990   48.3680 C   0  0  2  0  0  0  0  0  0  0  0  0
   45.9920   31.0890   49.2400 C   0  0  0  0  0  0  0  0  0  0  0  0
   48.3220   31.9800   49.0120 C   0  0  0  0  0  0  0  0  0  0  0  0
   49.4080   31.1260   49.4530 N   0  0  0  0  0  0  0  0  0  0  0  0
   49.3200   29.7830   49.4390 C   0  0  0  0  0  0  0  0  0  0  0  0
   50.4360   29.0760   49.8890 C   0  0  0  0  0  0  0  0  0  0  0  0
   50.3840   27.5940   49.8920 C   0  0  0  0  0  0  0  0  0  0  0  0
   51.5930   29.7240   50.3350 C   0  0  0  0  0  0  0  0  0  0  0  0
   52.5710   29.0240   50.7300 O   0  0  0  0  0  0  0  0  0  0  0  0
   51.6050   31.0700   50.3180 N   0  0  0  0  0  0  0  0  0  0  0  0
   50.5240   31.7460   49.8820 C   0  0  0  0  0  0  0  0  0  0  0  0
   50.6730   33.0030   49.9210 O   0  0  0  0  0  0  0  0  0  0  0  0
   43.9774   36.8499   42.7923 H   0  0  0  0  0  0  0  0  0  0  0  0
   42.9551   36.1833   40.5931 H   0  0  0  0  0  0  0  0  0  0  0  0
   43.3939   33.8468   39.7154 H   0  0  0  0  0  0  0  0  0  0  0  0
   46.8132   31.7433   41.5477 H   0  0  0  0  0  0  0  0  0  0  0  0
   44.7998   34.0393   48.0178 H   0  0  0  0  0  0  0  0  0  0  0  0
   45.7596   32.8956   48.9942 H   0  0  0  0  0  0  0  0  0  0  0  0
   47.6499   30.1971   48.2443 H   0  0  0  0  0  0  0  0  0  0  0  0
   46.2931   31.1161   50.2976 H   0  0  0  0  0  0  0  0  0  0  0  0
   45.3145   31.9297   49.0300 H   0  0  0  0  0  0  0  0  0  0  0  0
   45.4757   30.1407   49.0300 H   0  0  0  0  0  0  0  0  0  0  0  0
   48.7145   32.7047   48.2835 H   0  0  0  0  0  0  0  0  0  0  0  0
   47.9092   32.4862   49.8971 H   0  0  0  0  0  0  0  0  0  0  0  0
   48.4129   29.2679   49.0900 H   0  0  0  0  0  0  0  0  0  0  0  0
   50.3712   27.2297   50.9298 H   0  0  0  0  0  0  0  0  0  0  0  0
   49.4735   27.2580   49.3742 H   0  0  0  0  0  0  0  0  0  0  0  0
   51.2687   27.1950   49.3742 H   0  0  0  0  0  0  0  0  0  0  0  0
   52.4393   31.5824   50.6378 H   0  0  0  0  0  0  0  0  0  0  0  0
  1  6  2  0
  2  1  1  0
  3  2  2  0
  3  4  1  0
  4  5  2  0
  5  6  1  0
  5  7  1  0
  7 17  1  0
  8  7  1  0
  8  9  2  0
  9 10  1  0
 10 11  1  0
 11 12  2  0
 11 13  1  0
 13 18  1  0
 14 13  1  0
 14 15  1  0
 16 14  2  0
 17 10  2  0
 17 16  1  0
 18 20  1  0
 18 19  1  0
 20 21  1  0
 21 28  1  0
 22 21  1  0
 22 23  2  0
 23 24  1  0
 23 25  1  0
 25 26  2  0
 27 25  1  0
 28 29  2  0
 28 27  1  0
  1 30  1  0
  2 31  1  0
  3 32  1  0
  8 33  1  0
 15 34  1  0
 15 35  1  0
 18 36  1  6
 19 37  1  0
 19 38  1  0
 19 39  1  0
 20 40  1  0
 20 41  1  0
 22 42  1  0
 24 43  1  0
 24 44  1  0
 24 45  1  0
 27 46  1  0
M  ISO  8  30  14  31  14  32  14  33  14  36   8  37   8  38   8  39   8
M  ISO  7  40   8  41   8  42  14  43   8  44   8  45   8  46   9
M  END
>  <minimizedAffinity>  (1) 
-6.15380383

>  <minimizedRMSD>  (1) 
1.81631804

$$$$
