
     RDKit          3D

 40 42  0  0  1  0  0  0  0  0999 V2000
   44.7800   36.1150   42.8280 C   0  0  0  0  0  0  0  0  0  0  0  0
   44.1020   35.9190   41.5990 C   0  0  0  0  0  0  0  0  0  0  0  0
   44.0010   34.6190   41.1090 C   0  0  0  0  0  0  0  0  0  0  0  0
   44.5530   33.6010   41.8270 N   0  0  0  0  0  0  0  0  0  0  0  0
   45.1890   33.8010   42.9840 C   0  0  0  0  0  0  0  0  0  0  0  0
   45.3110   35.0660   43.5010 N   0  0  0  0  0  0  0  0  0  0  0  0
   45.7250   32.6750   43.6470 N   0  0  0  0  0  0  0  0  0  0  0  0
   46.2460   31.5840   42.9980 C   0  0  0  0  0  0  0  0  0  0  0  0
   46.6800   30.6720   43.8420 N   0  0  0  0  0  0  0  0  0  0  0  0
   46.4610   31.1310   45.1070 C   0  0  0  0  0  0  0  0  0  0  0  0
   46.7190   30.5890   46.3200 C   0  0  0  0  0  0  0  0  0  0  0  0
   47.2470   29.4790   46.3960 O   0  0  0  0  0  0  0  0  0  0  0  0
   46.3730   31.3130   47.4260 N   0  0  0  0  0  0  0  0  0  0  0  0
   45.7940   32.5270   47.2630 C   0  0  0  0  0  0  0  0  0  0  0  0
   45.4690   33.2080   48.4680 N   0  0  0  0  0  0  0  0  0  0  0  0
   45.5270   33.0900   46.0430 N   0  0  0  0  0  0  0  0  0  0  0  0
   45.8730   32.3640   44.9380 C   0  0  0  0  0  0  0  0  0  0  0  0
   46.6330   30.7650   48.7110 C   0  0  2  0  0  0  0  0  0  0  0  0
   45.5150   31.1190   49.6520 C   0  0  0  0  0  0  0  0  0  0  0  0
   47.9870   31.0900   49.2670 C   0  0  0  0  0  0  0  0  0  0  0  0
   48.8300   29.9030   49.3640 N   0  0  0  0  0  0  0  0  0  0  0  0
   49.7740   30.0820   50.4230 C   0  0  0  0  0  0  0  0  0  0  0  0
   50.1140   31.1760   51.0550 N   0  0  0  0  0  0  0  0  0  0  0  0
   50.5660   29.0630   51.0280 N   0  0  0  0  0  0  0  0  0  0  0  0
   49.6920   32.1090   50.8280 H   0  0  0  0  0  0  0  0  0  0  0  0
   44.8762   37.1303   43.2401 H   0  0  0  0  0  0  0  0  0  0  0  0
   43.6688   36.7674   41.0489 H   0  0  0  0  0  0  0  0  0  0  0  0
   43.4846   34.4177   40.1589 H   0  0  0  0  0  0  0  0  0  0  0  0
   46.2951   31.4836   41.9037 H   0  0  0  0  0  0  0  0  0  0  0  0
   45.0259   34.1371   48.4311 H   0  0  0  0  0  0  0  0  0  0  0  0
   45.6767   32.7723   49.3779 H   0  0  0  0  0  0  0  0  0  0  0  0
   46.6636   29.6720   48.5905 H   0  0  0  0  0  0  0  0  0  0  0  0
   45.8611   31.0094   50.6904 H   0  0  0  0  0  0  0  0  0  0  0  0
   45.2041   32.1595   49.4770 H   0  0  0  0  0  0  0  0  0  0  0  0
   44.6618   30.4470   49.4770 H   0  0  0  0  0  0  0  0  0  0  0  0
   48.4766   31.8220   48.6079 H   0  0  0  0  0  0  0  0  0  0  0  0
   47.8527   31.4987   50.2794 H   0  0  0  0  0  0  0  0  0  0  0  0
   48.7567   29.0685   48.7647 H   0  0  0  0  0  0  0  0  0  0  0  0
   51.2189   29.3014   51.7882 H   0  0  0  0  0  0  0  0  0  0  0  0
   50.4855   28.0883   50.7050 H   0  0  0  0  0  0  0  0  0  0  0  0
  1  6  2  0
  2  1  1  0
  3  2  2  0
  3  4  1  0
  4  5  2  0
  5  6  1  0
  5  7  1  0
  7 17  1  0
  8  7  1  0
  8  9  2  0
  9 10  1  0
 10 11  1  0
 11 12  2  0
 11 13  1  0
 13 18  1  0
 14 13  1  0
 14 15  1  0
 16 14  2  0
 17 10  2  0
 17 16  1  0
 18 20  1  0
 18 19  1  0
 20 21  1  0
 21 22  1  0
 22 24  1  0
 22 23  2  0
 25 23  1  0
  1 26  1  0
  2 27  1  0
  3 28  1  0
  8 29  1  0
 15 30  1  0
 15 31  1  0
 18 32  1  6
 19 33  1  0
 19 34  1  0
 19 35  1  0
 20 36  1  0
 20 37  1  0
 21 38  1  0
 24 39  1  0
 24 40  1  0
M  ISO  8  26  14  27  14  28  14  29  14  32   8  33   8  34   8  35   8
M  ISO  2  36   8  37   8
M  END
>  <minimizedAffinity>  (1) 
-6.0907979

>  <minimizedRMSD>  (1) 
0.771576285

$$$$
