
     RDKit          3D

 40 43  0  0  1  0  0  0  0  0999 V2000
   44.4120   36.0010   42.6360 C   0  0  0  0  0  0  0  0  0  0  0  0
   43.7580   35.7320   41.4100 C   0  0  0  0  0  0  0  0  0  0  0  0
   43.8180   34.4180   40.9010 C   0  0  0  0  0  0  0  0  0  0  0  0
   44.5030   33.4890   41.6200 N   0  0  0  0  0  0  0  0  0  0  0  0
   45.1120   33.7520   42.7670 C   0  0  0  0  0  0  0  0  0  0  0  0
   45.0750   35.0230   43.2960 N   0  0  0  0  0  0  0  0  0  0  0  0
   45.7930   32.7040   43.4210 N   0  0  0  0  0  0  0  0  0  0  0  0
   46.4440   31.6910   42.7620 C   0  0  0  0  0  0  0  0  0  0  0  0
   47.0000   30.8400   43.5940 N   0  0  0  0  0  0  0  0  0  0  0  0
   46.7370   31.2590   44.8630 C   0  0  0  0  0  0  0  0  0  0  0  0
   47.0740   30.7510   46.0720 C   0  0  0  0  0  0  0  0  0  0  0  0
   47.7430   29.7180   46.1410 O   0  0  0  0  0  0  0  0  0  0  0  0
   46.6490   31.4230   47.1830 N   0  0  0  0  0  0  0  0  0  0  0  0
   45.9190   32.5500   47.0340 C   0  0  0  0  0  0  0  0  0  0  0  0
   45.5250   33.1800   48.2450 N   0  0  0  0  0  0  0  0  0  0  0  0
   45.5680   33.0770   45.8180 N   0  0  0  0  0  0  0  0  0  0  0  0
   45.9940   32.4060   44.7140 C   0  0  0  0  0  0  0  0  0  0  0  0
   46.9940   30.9090   48.4650 C   0  0  2  0  0  0  0  0  0  0  0  0
   45.7940   30.9480   49.3730 C   0  0  0  0  0  0  0  0  0  0  0  0
   48.2090   31.5250   49.0890 C   0  0  0  0  0  0  0  0  0  0  0  0
   49.1130   30.4990   49.6480 C   0  0  0  0  0  0  0  0  0  0  0  0
   49.5970   29.2890   49.1960 C   0  0  0  0  0  0  0  0  0  0  0  0
   50.4050   28.7650   50.1430 N   0  0  0  0  0  0  0  0  0  0  0  0
   50.4350   29.6220   51.1740 C   0  0  0  0  0  0  0  0  0  0  0  0
   49.6540   30.6760   50.8860 N   0  0  0  0  0  0  0  0  0  0  0  0
   44.3811   37.0167   43.0573 H   0  0  0  0  0  0  0  0  0  0  0  0
   43.2188   36.5243   40.8701 H   0  0  0  0  0  0  0  0  0  0  0  0
   43.3266   34.1532   39.9531 H   0  0  0  0  0  0  0  0  0  0  0  0
   46.4942   31.6023   41.6667 H   0  0  0  0  0  0  0  0  0  0  0  0
   44.9659   34.0446   48.2175 H   0  0  0  0  0  0  0  0  0  0  0  0
   45.7985   32.7721   49.1504 H   0  0  0  0  0  0  0  0  0  0  0  0
   47.2939   29.8623   48.3087 H   0  0  0  0  0  0  0  0  0  0  0  0
   46.1269   30.9372   50.4213 H   0  0  0  0  0  0  0  0  0  0  0  0
   45.2183   31.8653   49.1806 H   0  0  0  0  0  0  0  0  0  0  0  0
   45.1599   30.0700   49.1806 H   0  0  0  0  0  0  0  0  0  0  0  0
   48.7511   32.0995   48.3234 H   0  0  0  0  0  0  0  0  0  0  0  0
   47.8800   32.1781   49.9107 H   0  0  0  0  0  0  0  0  0  0  0  0
   49.3636   28.8274   48.2252 H   0  0  0  0  0  0  0  0  0  0  0  0
   51.0061   29.4842   52.1040 H   0  0  0  0  0  0  0  0  0  0  0  0
   49.4906   31.4861   51.5008 H   0  0  0  0  0  0  0  0  0  0  0  0
  1  6  2  0
  2  1  1  0
  3  2  2  0
  3  4  1  0
  4  5  2  0
  5  6  1  0
  5  7  1  0
  7 17  1  0
  8  7  1  0
  8  9  2  0
  9 10  1  0
 10 11  1  0
 11 12  2  0
 11 13  1  0
 13 18  1  0
 14 13  1  0
 14 15  1  0
 16 14  2  0
 17 10  2  0
 17 16  1  0
 18 20  1  0
 18 19  1  0
 20 21  1  0
 21 25  1  0
 22 21  2  0
 22 23  1  0
 23 24  2  0
 25 24  1  0
  1 26  1  0
  2 27  1  0
  3 28  1  0
  8 29  1  0
 15 30  1  0
 15 31  1  0
 18 32  1  6
 19 33  1  0
 19 34  1  0
 19 35  1  0
 20 36  1  0
 20 37  1  0
 22 38  1  0
 24 39  1  0
 25 40  1  0
M  ISO  8  26  14  27  14  28  14  29  14  32   8  33   8  34   8  35   8
M  ISO  5  36   8  37   8  38  14  39  14  40   9
M  END
>  <minimizedAffinity>  (1) 
-6.03200912

>  <minimizedRMSD>  (1) 
1.33892679

$$$$
