
     RDKit          3D

 42 45  0  0  1  0  0  0  0  0999 V2000
   44.2660   35.9240   42.5950 C   0  0  0  0  0  0  0  0  0  0  0  0
   43.6000   35.6160   41.3880 C   0  0  0  0  0  0  0  0  0  0  0  0
   43.7170   34.3140   40.9070 C   0  0  0  0  0  0  0  0  0  0  0  0
   44.4530   33.3830   41.5900 N   0  0  0  0  0  0  0  0  0  0  0  0
   45.0700   33.7150   42.7340 C   0  0  0  0  0  0  0  0  0  0  0  0
   44.9880   34.9880   43.2570 N   0  0  0  0  0  0  0  0  0  0  0  0
   45.8200   32.7050   43.3840 N   0  0  0  0  0  0  0  0  0  0  0  0
   46.5240   31.7280   42.7120 C   0  0  0  0  0  0  0  0  0  0  0  0
   47.1440   30.9170   43.5420 N   0  0  0  0  0  0  0  0  0  0  0  0
   46.8710   31.3320   44.8180 C   0  0  0  0  0  0  0  0  0  0  0  0
   47.2590   30.8480   46.0270 C   0  0  0  0  0  0  0  0  0  0  0  0
   47.9940   29.8560   46.0830 O   0  0  0  0  0  0  0  0  0  0  0  0
   46.8090   31.4920   47.1340 N   0  0  0  0  0  0  0  0  0  0  0  0
   46.0060   32.5730   46.9910 C   0  0  0  0  0  0  0  0  0  0  0  0
   45.5790   33.1810   48.2100 N   0  0  0  0  0  0  0  0  0  0  0  0
   45.6060   33.0740   45.7780 N   0  0  0  0  0  0  0  0  0  0  0  0
   46.0550   32.4300   44.6740 C   0  0  0  0  0  0  0  0  0  0  0  0
   47.2020   31.0100   48.4120 C   0  0  2  0  0  0  0  0  0  0  0  0
   46.0080   30.9740   49.3230 C   0  0  0  0  0  0  0  0  0  0  0  0
   48.3840   31.7110   49.0190 C   0  0  0  0  0  0  0  0  0  0  0  0
   49.3410   30.7470   49.6370 C   0  0  0  0  0  0  0  0  0  0  0  0
   50.2030   31.2150   50.6120 C   0  0  0  0  0  0  0  0  0  0  0  0
   51.1180   30.3920   51.2340 C   0  0  0  0  0  0  0  0  0  0  0  0
   51.1140   29.0760   50.8150 C   0  0  0  0  0  0  0  0  0  0  0  0
   50.2670   28.5830   49.8460 C   0  0  0  0  0  0  0  0  0  0  0  0
   49.3870   29.4370   49.2680 N   0  0  0  0  0  0  0  0  0  0  0  0
   44.1972   36.9424   43.0050 H   0  0  0  0  0  0  0  0  0  0  0  0
   43.0124   36.3741   40.8494 H   0  0  0  0  0  0  0  0  0  0  0  0
   43.2139   34.0313   39.9705 H   0  0  0  0  0  0  0  0  0  0  0  0
   46.5625   31.6378   41.6164 H   0  0  0  0  0  0  0  0  0  0  0  0
   44.9660   34.0084   48.1857 H   0  0  0  0  0  0  0  0  0  0  0  0
   45.8839   32.7923   49.1138 H   0  0  0  0  0  0  0  0  0  0  0  0
   47.5749   29.9855   48.2662 H   0  0  0  0  0  0  0  0  0  0  0  0
   46.3452   30.9842   50.3700 H   0  0  0  0  0  0  0  0  0  0  0  0
   45.3752   31.8535   49.1330 H   0  0  0  0  0  0  0  0  0  0  0  0
   45.4293   30.0580   49.1330 H   0  0  0  0  0  0  0  0  0  0  0  0
   48.9056   32.2762   48.2325 H   0  0  0  0  0  0  0  0  0  0  0  0
   48.0157   32.3820   49.8090 H   0  0  0  0  0  0  0  0  0  0  0  0
   50.1573   32.2757   50.9000 H   0  0  0  0  0  0  0  0  0  0  0  0
   51.8046   30.7588   52.0112 H   0  0  0  0  0  0  0  0  0  0  0  0
   51.8280   28.3813   51.2816 H   0  0  0  0  0  0  0  0  0  0  0  0
   50.3040   27.5244   49.5494 H   0  0  0  0  0  0  0  0  0  0  0  0
  1  6  2  0
  2  1  1  0
  3  2  2  0
  3  4  1  0
  4  5  2  0
  5  6  1  0
  5  7  1  0
  7 17  1  0
  8  7  1  0
  8  9  2  0
  9 10  1  0
 10 11  1  0
 11 12  2  0
 11 13  1  0
 13 18  1  0
 14 13  1  0
 14 15  1  0
 16 14  2  0
 17 10  2  0
 17 16  1  0
 18 20  1  0
 18 19  1  0
 20 21  1  0
 21 22  2  0
 22 23  1  0
 24 23  2  0
 25 24  1  0
 26 21  1  0
 26 25  2  0
  1 27  1  0
  2 28  1  0
  3 29  1  0
  8 30  1  0
 15 31  1  0
 15 32  1  0
 18 33  1  6
 19 34  1  0
 19 35  1  0
 19 36  1  0
 20 37  1  0
 20 38  1  0
 22 39  1  0
 23 40  1  0
 24 41  1  0
 25 42  1  0
M  ISO  8  27  14  28  14  29  14  30  14  33   8  34   8  35   8  36   8
M  ISO  6  37   8  38   8  39  14  40  14  41  14  42  14
M  END
>  <minimizedAffinity>  (1) 
-5.91788054

>  <minimizedRMSD>  (1) 
1.54020214

$$$$
