
     RDKit          3D

 40 43  0  0  1  0  0  0  0  0999 V2000
   44.4030   35.9950   42.6490 C   0  0  0  0  0  0  0  0  0  0  0  0
   43.7420   35.7420   41.4450 C   0  0  0  0  0  0  0  0  0  0  0  0
   43.7860   34.4290   40.9210 C   0  0  0  0  0  0  0  0  0  0  0  0
   44.4710   33.4800   41.6210 N   0  0  0  0  0  0  0  0  0  0  0  0
   45.0940   33.7600   42.7780 C   0  0  0  0  0  0  0  0  0  0  0  0
   45.0680   35.0120   43.3010 N   0  0  0  0  0  0  0  0  0  0  0  0
   45.7740   32.6720   43.4090 N   0  0  0  0  0  0  0  0  0  0  0  0
   46.3850   31.6530   42.7470 C   0  0  0  0  0  0  0  0  0  0  0  0
   46.9300   30.7910   43.5760 N   0  0  0  0  0  0  0  0  0  0  0  0
   46.6950   31.2160   44.8490 C   0  0  0  0  0  0  0  0  0  0  0  0
   47.0340   30.7040   46.0550 C   0  0  0  0  0  0  0  0  0  0  0  0
   47.6790   29.6520   46.1170 O   0  0  0  0  0  0  0  0  0  0  0  0
   46.6460   31.3760   47.1640 N   0  0  0  0  0  0  0  0  0  0  0  0
   45.9360   32.5300   47.0270 C   0  0  0  0  0  0  0  0  0  0  0  0
   45.5770   33.1710   48.2440 N   0  0  0  0  0  0  0  0  0  0  0  0
   45.5830   33.0670   45.8160 N   0  0  0  0  0  0  0  0  0  0  0  0
   45.9780   32.3830   44.7080 C   0  0  0  0  0  0  0  0  0  0  0  0
   46.9830   30.8620   48.4490 C   0  0  2  0  0  0  0  0  0  0  0  0
   45.7790   30.8900   49.3520 C   0  0  0  0  0  0  0  0  0  0  0  0
   48.2000   31.4830   49.0730 C   0  0  0  0  0  0  0  0  0  0  0  0
   49.1160   30.4220   49.6020 C   0  0  0  0  0  0  0  0  0  0  0  0
   49.4880   29.2360   48.9940 C   0  0  0  0  0  0  0  0  0  0  0  0
   50.3540   28.5780   49.8680 C   0  0  0  0  0  0  0  0  0  0  0  0
   50.4610   29.4150   50.9750 C   0  0  0  0  0  0  0  0  0  0  0  0
   49.7280   30.4680   50.7750 O   0  0  0  0  0  0  0  0  0  0  0  0
   44.3831   37.0092   43.0745 H   0  0  0  0  0  0  0  0  0  0  0  0
   43.2017   36.5424   40.9184 H   0  0  0  0  0  0  0  0  0  0  0  0
   43.2819   34.1803   39.9755 H   0  0  0  0  0  0  0  0  0  0  0  0
   46.4189   31.5615   41.6513 H   0  0  0  0  0  0  0  0  0  0  0  0
   45.0390   34.0491   48.2244 H   0  0  0  0  0  0  0  0  0  0  0  0
   45.8548   32.7573   49.1454 H   0  0  0  0  0  0  0  0  0  0  0  0
   47.2820   29.8140   48.2994 H   0  0  0  0  0  0  0  0  0  0  0  0
   46.1077   30.8824   50.4017 H   0  0  0  0  0  0  0  0  0  0  0  0
   45.1956   31.8020   49.1571 H   0  0  0  0  0  0  0  0  0  0  0  0
   45.1538   30.0062   49.1571 H   0  0  0  0  0  0  0  0  0  0  0  0
   48.7326   32.0766   48.3154 H   0  0  0  0  0  0  0  0  0  0  0  0
   47.8836   32.1283   49.9058 H   0  0  0  0  0  0  0  0  0  0  0  0
   49.1619   28.8786   48.0061 H   0  0  0  0  0  0  0  0  0  0  0  0
   50.8465   27.6064   49.7150 H   0  0  0  0  0  0  0  0  0  0  0  0
   51.0667   29.2170   51.8716 H   0  0  0  0  0  0  0  0  0  0  0  0
  1  6  2  0
  2  1  1  0
  3  2  2  0
  3  4  1  0
  4  5  2  0
  5  6  1  0
  5  7  1  0
  7 17  1  0
  8  7  1  0
  8  9  2  0
  9 10  1  0
 10 11  1  0
 11 12  2  0
 11 13  1  0
 13 18  1  0
 14 13  1  0
 14 15  1  0
 16 14  2  0
 17 10  2  0
 17 16  1  0
 18 20  1  0
 18 19  1  0
 20 21  1  0
 21 25  1  0
 22 21  2  0
 22 23  1  0
 23 24  2  0
 25 24  1  0
  1 26  1  0
  2 27  1  0
  3 28  1  0
  8 29  1  0
 15 30  1  0
 15 31  1  0
 18 32  1  6
 19 33  1  0
 19 34  1  0
 19 35  1  0
 20 36  1  0
 20 37  1  0
 22 38  1  0
 23 39  1  0
 24 40  1  0
M  ISO  8  26  14  27  14  28  14  29  14  32   8  33   8  34   8  35   8
M  ISO  5  36   8  37   8  38  14  39  14  40  14
M  END
>  <minimizedAffinity>  (1) 
-5.81114817

>  <minimizedRMSD>  (1) 
1.31145346

$$$$
