
     RDKit          3D

 38 41  0  0  1  0  0  0  0  0999 V2000
   44.3580   35.9230   42.6180 C   0  0  0  0  0  0  0  0  0  0  0  0
   43.6770   35.6640   41.4260 C   0  0  0  0  0  0  0  0  0  0  0  0
   43.6780   34.3430   40.9220 C   0  0  0  0  0  0  0  0  0  0  0  0
   44.3500   33.3930   41.6370 N   0  0  0  0  0  0  0  0  0  0  0  0
   44.9940   33.6630   42.7730 C   0  0  0  0  0  0  0  0  0  0  0  0
   44.9970   34.9290   43.2610 N   0  0  0  0  0  0  0  0  0  0  0  0
   45.6500   32.5740   43.4130 N   0  0  0  0  0  0  0  0  0  0  0  0
   46.2090   31.5220   42.7660 C   0  0  0  0  0  0  0  0  0  0  0  0
   46.7450   30.6600   43.6010 N   0  0  0  0  0  0  0  0  0  0  0  0
   46.5520   31.1250   44.8690 C   0  0  0  0  0  0  0  0  0  0  0  0
   46.9010   30.6250   46.0770 C   0  0  0  0  0  0  0  0  0  0  0  0
   47.5100   29.5550   46.1500 O   0  0  0  0  0  0  0  0  0  0  0  0
   46.5550   31.3430   47.1850 N   0  0  0  0  0  0  0  0  0  0  0  0
   45.8860   32.5120   47.0300 C   0  0  0  0  0  0  0  0  0  0  0  0
   45.5710   33.1940   48.2400 N   0  0  0  0  0  0  0  0  0  0  0  0
   45.5250   33.0310   45.8150 N   0  0  0  0  0  0  0  0  0  0  0  0
   45.8730   32.3090   44.7130 C   0  0  0  0  0  0  0  0  0  0  0  0
   46.9030   30.8360   48.4660 C   0  0  2  0  0  0  0  0  0  0  0  0
   45.7130   30.9150   49.3830 C   0  0  0  0  0  0  0  0  0  0  0  0
   48.1400   31.4420   49.0620 C   0  0  0  0  0  0  0  0  0  0  0  0
   49.0740   30.3700   49.5620 C   0  0  0  0  0  0  0  0  0  0  0  0
   49.3760   29.1980   48.9380 N   0  0  0  0  0  0  0  0  0  0  0  0
   50.2140   28.5500   49.6860 O   0  0  0  0  0  0  0  0  0  0  0  0
   50.4870   29.2310   50.7780 C   0  0  0  0  0  0  0  0  0  0  0  0
   49.7810   30.3620   50.7060 N   0  0  0  0  0  0  0  0  0  0  0  0
   44.3718   36.9421   43.0318 H   0  0  0  0  0  0  0  0  0  0  0  0
   43.1519   36.4695   40.8917 H   0  0  0  0  0  0  0  0  0  0  0  0
   43.1562   34.0895   39.9874 H   0  0  0  0  0  0  0  0  0  0  0  0
   46.2135   31.4039   41.6724 H   0  0  0  0  0  0  0  0  0  0  0  0
   45.0635   34.0897   48.2092 H   0  0  0  0  0  0  0  0  0  0  0  0
   45.8507   32.7915   49.1459 H   0  0  0  0  0  0  0  0  0  0  0  0
   47.1781   29.7797   48.3294 H   0  0  0  0  0  0  0  0  0  0  0  0
   46.0537   30.8924   50.4287 H   0  0  0  0  0  0  0  0  0  0  0  0
   45.1671   31.8514   49.1954 H   0  0  0  0  0  0  0  0  0  0  0  0
   45.0481   30.0590   49.1954 H   0  0  0  0  0  0  0  0  0  0  0  0
   48.6545   32.0394   48.2949 H   0  0  0  0  0  0  0  0  0  0  0  0
   47.8473   32.0781   49.9103 H   0  0  0  0  0  0  0  0  0  0  0  0
   51.1638   28.9282   51.5906 H   0  0  0  0  0  0  0  0  0  0  0  0
  1  6  2  0
  2  1  1  0
  3  2  2  0
  3  4  1  0
  4  5  2  0
  5  6  1  0
  5  7  1  0
  7 17  1  0
  8  7  1  0
  8  9  2  0
  9 10  1  0
 10 11  1  0
 11 12  2  0
 11 13  1  0
 13 18  1  0
 14 13  1  0
 14 15  1  0
 16 14  2  0
 17 10  2  0
 17 16  1  0
 18 20  1  0
 18 19  1  0
 20 21  1  0
 21 25  1  0
 22 21  2  0
 22 23  1  0
 23 24  1  0
 25 24  2  0
  1 26  1  0
  2 27  1  0
  3 28  1  0
  8 29  1  0
 15 30  1  0
 15 31  1  0
 18 32  1  6
 19 33  1  0
 19 34  1  0
 19 35  1  0
 20 36  1  0
 20 37  1  0
 24 38  1  0
M  ISO  8  26  14  27  14  28  14  29  14  32   8  33   8  34   8  35   8
M  ISO  3  36   8  37   8  38  14
M  END
>  <minimizedAffinity>  (1) 
-5.74659204

>  <minimizedRMSD>  (1) 
1.29154444

$$$$
