
     RDKit          3D

 40 43  0  0  1  0  0  0  0  0999 V2000
   44.4350   35.9490   42.6660 C   0  0  0  0  0  0  0  0  0  0  0  0
   43.7070   35.7050   41.4760 C   0  0  0  0  0  0  0  0  0  0  0  0
   43.6630   34.3970   41.0020 C   0  0  0  0  0  0  0  0  0  0  0  0
   44.3170   33.4220   41.6960 N   0  0  0  0  0  0  0  0  0  0  0  0
   45.0000   33.6810   42.8200 C   0  0  0  0  0  0  0  0  0  0  0  0
   45.0700   34.9490   43.3250 N   0  0  0  0  0  0  0  0  0  0  0  0
   45.6390   32.5800   43.4540 N   0  0  0  0  0  0  0  0  0  0  0  0
   46.1720   31.5180   42.7900 C   0  0  0  0  0  0  0  0  0  0  0  0
   46.7020   30.6390   43.6110 N   0  0  0  0  0  0  0  0  0  0  0  0
   46.5350   31.0970   44.8840 C   0  0  0  0  0  0  0  0  0  0  0  0
   46.8870   30.5910   46.0890 C   0  0  0  0  0  0  0  0  0  0  0  0
   47.4800   29.5030   46.1430 O   0  0  0  0  0  0  0  0  0  0  0  0
   46.5700   31.3070   47.2030 N   0  0  0  0  0  0  0  0  0  0  0  0
   45.9230   32.4840   47.0630 C   0  0  0  0  0  0  0  0  0  0  0  0
   45.6380   33.1650   48.2770 N   0  0  0  0  0  0  0  0  0  0  0  0
   45.5550   33.0180   45.8580 N   0  0  0  0  0  0  0  0  0  0  0  0
   45.8750   32.2970   44.7450 C   0  0  0  0  0  0  0  0  0  0  0  0
   46.9320   30.7830   48.4740 C   0  0  2  0  0  0  0  0  0  0  0  0
   45.7410   30.8160   49.3950 C   0  0  0  0  0  0  0  0  0  0  0  0
   48.1440   31.3980   49.0900 C   0  0  0  0  0  0  0  0  0  0  0  0
   49.0680   30.4120   49.6180 N   0  0  0  0  0  0  0  0  0  0  0  0
   49.7450   30.3050   50.7340 N   0  0  0  0  0  0  0  0  0  0  0  0
   50.4800   29.1900   50.7640 C   0  0  0  0  0  0  0  0  0  0  0  0
   50.2650   28.5200   49.5820 C   0  0  0  0  0  0  0  0  0  0  0  0
   49.3730   29.3080   48.8770 C   0  0  0  0  0  0  0  0  0  0  0  0
   44.4863   36.9730   43.0645 H   0  0  0  0  0  0  0  0  0  0  0  0
   43.1943   36.5205   40.9449 H   0  0  0  0  0  0  0  0  0  0  0  0
   43.1099   34.1537   40.0828 H   0  0  0  0  0  0  0  0  0  0  0  0
   46.1605   31.4084   41.6955 H   0  0  0  0  0  0  0  0  0  0  0  0
   45.1466   34.0700   48.2567 H   0  0  0  0  0  0  0  0  0  0  0  0
   45.9228   32.7537   49.1773 H   0  0  0  0  0  0  0  0  0  0  0  0
   47.2353   29.7393   48.3045 H   0  0  0  0  0  0  0  0  0  0  0  0
   46.0850   30.8065   50.4398 H   0  0  0  0  0  0  0  0  0  0  0  0
   45.1589   31.7306   49.2090 H   0  0  0  0  0  0  0  0  0  0  0  0
   45.1091   29.9350   49.2090 H   0  0  0  0  0  0  0  0  0  0  0  0
   48.6641   31.9926   48.3245 H   0  0  0  0  0  0  0  0  0  0  0  0
   47.8078   32.0211   49.9319 H   0  0  0  0  0  0  0  0  0  0  0  0
   51.1374   28.8665   51.5845 H   0  0  0  0  0  0  0  0  0  0  0  0
   50.7071   27.5637   49.2656 H   0  0  0  0  0  0  0  0  0  0  0  0
   48.9732   29.0805   47.8778 H   0  0  0  0  0  0  0  0  0  0  0  0
  1  6  2  0
  2  1  1  0
  3  2  2  0
  3  4  1  0
  4  5  2  0
  5  6  1  0
  5  7  1  0
  7 17  1  0
  8  7  1  0
  8  9  2  0
  9 10  1  0
 10 11  1  0
 11 12  2  0
 11 13  1  0
 13 18  1  0
 14 13  1  0
 14 15  1  0
 16 14  2  0
 17 10  2  0
 17 16  1  0
 18 20  1  0
 18 19  1  0
 20 21  1  0
 21 22  1  0
 22 23  2  0
 24 23  1  0
 25 24  2  0
 25 21  1  0
  1 26  1  0
  2 27  1  0
  3 28  1  0
  8 29  1  0
 15 30  1  0
 15 31  1  0
 18 32  1  6
 19 33  1  0
 19 34  1  0
 19 35  1  0
 20 36  1  0
 20 37  1  0
 23 38  1  0
 24 39  1  0
 25 40  1  0
M  ISO  8  26  14  27  14  28  14  29  14  32   8  33   8  34   8  35   8
M  ISO  5  36   8  37   8  38  14  39  14  40  14
M  END
>  <minimizedAffinity>  (1) 
-5.65645599

>  <minimizedRMSD>  (1) 
1.30153131

$$$$
