
     RDKit          3D

 40 43  0  0  1  0  0  0  0  0999 V2000
   44.3670   35.8970   42.5010 C   0  0  0  0  0  0  0  0  0  0  0  0
   43.6680   35.6140   41.3030 C   0  0  0  0  0  0  0  0  0  0  0  0
   43.6520   34.2920   40.8600 C   0  0  0  0  0  0  0  0  0  0  0  0
   44.3000   33.3300   41.5830 N   0  0  0  0  0  0  0  0  0  0  0  0
   44.9530   33.6220   42.7090 C   0  0  0  0  0  0  0  0  0  0  0  0
   44.9960   34.9140   43.1850 N   0  0  0  0  0  0  0  0  0  0  0  0
   45.5980   32.5580   43.3840 N   0  0  0  0  0  0  0  0  0  0  0  0
   46.1750   31.4970   42.7480 C   0  0  0  0  0  0  0  0  0  0  0  0
   46.7140   30.6460   43.5980 N   0  0  0  0  0  0  0  0  0  0  0  0
   46.5080   31.1280   44.8570 C   0  0  0  0  0  0  0  0  0  0  0  0
   46.8590   30.6510   46.0790 C   0  0  0  0  0  0  0  0  0  0  0  0
   47.4760   29.5900   46.1640 O   0  0  0  0  0  0  0  0  0  0  0  0
   46.4990   31.3910   47.1720 N   0  0  0  0  0  0  0  0  0  0  0  0
   45.8220   32.5410   46.9950 C   0  0  0  0  0  0  0  0  0  0  0  0
   45.4820   33.2340   48.1890 N   0  0  0  0  0  0  0  0  0  0  0  0
   45.4620   33.0360   45.7700 N   0  0  0  0  0  0  0  0  0  0  0  0
   45.8190   32.3040   44.6840 C   0  0  0  0  0  0  0  0  0  0  0  0
   46.8860   30.9030   48.4480 C   0  0  2  0  0  0  0  0  0  0  0  0
   45.6670   30.9420   49.3660 C   0  0  0  0  0  0  0  0  0  0  0  0
   48.0670   31.5710   49.0660 C   0  0  0  0  0  0  0  0  0  0  0  0
   49.1160   30.7190   49.6580 C   0  0  0  0  0  0  0  0  0  0  0  0
   50.4880   30.5680   49.1840 C   0  0  0  0  0  0  0  0  0  0  0  0
   50.2650   31.4510   50.3630 C   0  0  0  0  0  0  0  0  0  0  0  0
   44.3991   36.9290   42.8804 H   0  0  0  0  0  0  0  0  0  0  0  0
   43.1555   36.4090   40.7414 H   0  0  0  0  0  0  0  0  0  0  0  0
   43.1211   34.0249   39.9343 H   0  0  0  0  0  0  0  0  0  0  0  0
   46.1885   31.3676   41.6557 H   0  0  0  0  0  0  0  0  0  0  0  0
   44.9635   34.1225   48.1389 H   0  0  0  0  0  0  0  0  0  0  0  0
   45.7542   32.8475   49.1041 H   0  0  0  0  0  0  0  0  0  0  0  0
   47.2381   29.8714   48.3001 H   0  0  0  0  0  0  0  0  0  0  0  0
   45.9976   30.9314   50.4151 H   0  0  0  0  0  0  0  0  0  0  0  0
   45.0912   31.8590   49.1722 H   0  0  0  0  0  0  0  0  0  0  0  0
   45.0338   30.0637   49.1722 H   0  0  0  0  0  0  0  0  0  0  0  0
   48.5438   32.1805   48.2842 H   0  0  0  0  0  0  0  0  0  0  0  0
   47.6516   32.1268   49.9196 H   0  0  0  0  0  0  0  0  0  0  0  0
   48.3420   29.9663   49.8688 H   0  0  0  0  0  0  0  0  0  0  0  0
   51.0050   29.6062   49.3167 H   0  0  0  0  0  0  0  0  0  0  0  0
   50.9768   30.7085   48.2086 H   0  0  0  0  0  0  0  0  0  0  0  0
   50.3704   32.5419   50.2689 H   0  0  0  0  0  0  0  0  0  0  0  0
   50.6522   31.5111   51.3908 H   0  0  0  0  0  0  0  0  0  0  0  0
  1  6  2  0
  2  1  1  0
  3  2  2  0
  3  4  1  0
  4  5  2  0
  5  6  1  0
  5  7  1  0
  7 17  1  0
  8  7  1  0
  8  9  2  0
  9 10  1  0
 10 11  1  0
 11 12  2  0
 11 13  1  0
 13 18  1  0
 14 13  1  0
 14 15  1  0
 16 14  2  0
 17 10  2  0
 17 16  1  0
 18 20  1  0
 18 19  1  0
 20 21  1  0
 21 23  1  0
 22 21  1  0
 22 23  1  0
  1 24  1  0
  2 25  1  0
  3 26  1  0
  8 27  1  0
 15 28  1  0
 15 29  1  0
 18 30  1  6
 19 31  1  0
 19 32  1  0
 19 33  1  0
 20 34  1  0
 20 35  1  0
 21 36  1  0
 22 37  1  0
 22 38  1  0
 23 39  1  0
 23 40  1  0
M  ISO  8  24  14  25  14  26  14  27  14  30   8  31   8  32   8  33   8
M  ISO  7  34   8  35   8  36  13  37  13  38  13  39  13  40  13
M  END
>  <minimizedAffinity>  (1) 
-5.52056122

>  <minimizedRMSD>  (1) 
0.805531502

$$$$
