
     RDKit          3D

 51 55  0  0  1  0  0  0  0  0999 V2000
   44.4010   35.8930   42.4930 C   0  0  0  0  0  0  0  0  0  0  0  0
   43.7020   35.6240   41.2940 C   0  0  0  0  0  0  0  0  0  0  0  0
   43.6700   34.3100   40.8580 C   0  0  0  0  0  0  0  0  0  0  0  0
   44.2970   33.3320   41.5750 N   0  0  0  0  0  0  0  0  0  0  0  0
   44.9530   33.6190   42.7100 C   0  0  0  0  0  0  0  0  0  0  0  0
   45.0080   34.8990   43.1720 N   0  0  0  0  0  0  0  0  0  0  0  0
   45.5760   32.5480   43.3930 N   0  0  0  0  0  0  0  0  0  0  0  0
   46.1360   31.4660   42.7640 C   0  0  0  0  0  0  0  0  0  0  0  0
   46.6510   30.6070   43.6230 N   0  0  0  0  0  0  0  0  0  0  0  0
   46.4400   31.1090   44.8820 C   0  0  0  0  0  0  0  0  0  0  0  0
   46.7670   30.6280   46.1040 C   0  0  0  0  0  0  0  0  0  0  0  0
   47.3690   29.5400   46.2150 O   0  0  0  0  0  0  0  0  0  0  0  0
   46.4270   31.3530   47.1800 N   0  0  0  0  0  0  0  0  0  0  0  0
   45.7760   32.5260   47.0040 C   0  0  0  0  0  0  0  0  0  0  0  0
   45.4410   33.2530   48.1880 N   0  0  0  0  0  0  0  0  0  0  0  0
   45.4310   33.0390   45.7750 N   0  0  0  0  0  0  0  0  0  0  0  0
   45.7850   32.2900   44.6860 C   0  0  0  0  0  0  0  0  0  0  0  0
   46.7460   30.8900   48.4880 C   0  0  2  0  0  0  0  0  0  0  0  0
   45.5080   30.8730   49.3590 C   0  0  0  0  0  0  0  0  0  0  0  0
   47.9030   31.5710   49.1370 C   0  0  0  0  0  0  0  0  0  0  0  0
   48.6780   30.6040   49.8880 N   0  0  0  0  0  0  0  0  0  0  0  0
   49.9750   30.9890   50.2490 C   0  0  0  0  0  0  0  0  0  0  0  0
   50.4990   32.2310   49.9590 C   0  0  0  0  0  0  0  0  0  0  0  0
   51.7600   32.6790   50.2810 C   0  0  0  0  0  0  0  0  0  0  0  0
   52.5960   31.8180   50.9590 C   0  0  0  0  0  0  0  0  0  0  0  0
   52.1500   30.5590   51.2860 C   0  0  0  0  0  0  0  0  0  0  0  0
   53.0130   29.7240   51.9630 C   0  0  0  0  0  0  0  0  0  0  0  0
   52.6030   28.4560   52.3090 C   0  0  0  0  0  0  0  0  0  0  0  0
   51.3330   28.0480   51.9660 C   0  0  0  0  0  0  0  0  0  0  0  0
   50.5120   28.9140   51.2940 C   0  0  0  0  0  0  0  0  0  0  0  0
   50.8730   30.1920   50.9260 C   0  0  0  0  0  0  0  0  0  0  0  0
   44.4501   36.9232   42.8756 H   0  0  0  0  0  0  0  0  0  0  0  0
   43.2036   36.4262   40.7301 H   0  0  0  0  0  0  0  0  0  0  0  0
   43.1374   34.0533   39.9304 H   0  0  0  0  0  0  0  0  0  0  0  0
   46.1538   31.3302   41.6726 H   0  0  0  0  0  0  0  0  0  0  0  0
   44.9450   34.1529   48.1168 H   0  0  0  0  0  0  0  0  0  0  0  0
   45.6956   32.8771   49.1125 H   0  0  0  0  0  0  0  0  0  0  0  0
   47.1026   29.8567   48.3648 H   0  0  0  0  0  0  0  0  0  0  0  0
   45.8048   30.8771   50.4182 H   0  0  0  0  0  0  0  0  0  0  0  0
   44.8975   31.7628   49.1459 H   0  0  0  0  0  0  0  0  0  0  0  0
   44.9221   29.9667   49.1459 H   0  0  0  0  0  0  0  0  0  0  0  0
   48.5385   32.0289   48.3646 H   0  0  0  0  0  0  0  0  0  0  0  0
   47.5323   32.3505   49.8189 H   0  0  0  0  0  0  0  0  0  0  0  0
   48.2952   29.6824   50.1428 H   0  0  0  0  0  0  0  0  0  0  0  0
   49.8460   32.9316   49.4179 H   0  0  0  0  0  0  0  0  0  0  0  0
   52.0900   33.6917   50.0061 H   0  0  0  0  0  0  0  0  0  0  0  0
   53.6120   32.1355   51.2363 H   0  0  0  0  0  0  0  0  0  0  0  0
   54.0240   30.0690   52.2254 H   0  0  0  0  0  0  0  0  0  0  0  0
   53.2795   27.7790   52.8512 H   0  0  0  0  0  0  0  0  0  0  0  0
   50.9824   27.0390   52.2286 H   0  0  0  0  0  0  0  0  0  0  0  0
   49.5014   28.5679   51.0316 H   0  0  0  0  0  0  0  0  0  0  0  0
  1  6  2  0
  2  1  1  0
  3  2  2  0
  3  4  1  0
  4  5  2  0
  5  6  1  0
  5  7  1  0
  7 17  1  0
  8  7  1  0
  8  9  2  0
  9 10  1  0
 10 11  1  0
 11 12  2  0
 11 13  1  0
 13 18  1  0
 14 13  1  0
 14 15  1  0
 16 14  2  0
 17 10  2  0
 17 16  1  0
 18 20  1  0
 18 19  1  0
 20 21  1  0
 21 22  1  0
 22 31  1  0
 23 22  2  0
 23 24  1  0
 24 25  2  0
 25 26  1  0
 26 27  1  0
 27 28  2  0
 29 28  1  0
 30 29  2  0
 31 26  2  0
 31 30  1  0
  1 32  1  0
  2 33  1  0
  3 34  1  0
  8 35  1  0
 15 36  1  0
 15 37  1  0
 18 38  1  6
 19 39  1  0
 19 40  1  0
 19 41  1  0
 20 42  1  0
 20 43  1  0
 21 44  1  0
 23 45  1  0
 24 46  1  0
 25 47  1  0
 27 48  1  0
 28 49  1  0
 29 50  1  0
 30 51  1  0
M  ISO  8  32  14  33  14  34  14  35  14  38   8  39   8  40   8  41   8
M  ISO  8  42   8  43   8  45  14  46  14  47  14  48  14  49  14  50  14
M  ISO  1  51  14
M  END
>  <minimizedAffinity>  (1) 
-7.08691216

>  <minimizedRMSD>  (1) 
0.470338136

$$$$
