
     RDKit          3D

 48 51  0  0  1  0  0  0  0  0999 V2000
   44.4340   35.9620   42.5910 C   0  0  0  0  0  0  0  0  0  0  0  0
   43.7290   35.7210   41.3980 C   0  0  0  0  0  0  0  0  0  0  0  0
   43.6900   34.4030   40.9200 C   0  0  0  0  0  0  0  0  0  0  0  0
   44.3310   33.4360   41.6300 N   0  0  0  0  0  0  0  0  0  0  0  0
   44.9930   33.6830   42.7580 C   0  0  0  0  0  0  0  0  0  0  0  0
   45.0490   34.9560   43.2480 N   0  0  0  0  0  0  0  0  0  0  0  0
   45.6230   32.5950   43.4130 N   0  0  0  0  0  0  0  0  0  0  0  0
   46.1750   31.5310   42.7630 C   0  0  0  0  0  0  0  0  0  0  0  0
   46.6950   30.6580   43.5960 N   0  0  0  0  0  0  0  0  0  0  0  0
   46.4960   31.1340   44.8660 C   0  0  0  0  0  0  0  0  0  0  0  0
   46.8320   30.6300   46.0690 C   0  0  0  0  0  0  0  0  0  0  0  0
   47.4350   29.5390   46.1610 O   0  0  0  0  0  0  0  0  0  0  0  0
   46.5040   31.3250   47.1710 N   0  0  0  0  0  0  0  0  0  0  0  0
   45.8490   32.5070   47.0220 C   0  0  0  0  0  0  0  0  0  0  0  0
   45.5250   33.2090   48.2240 N   0  0  0  0  0  0  0  0  0  0  0  0
   45.5000   33.0350   45.8100 N   0  0  0  0  0  0  0  0  0  0  0  0
   45.8370   32.3200   44.7070 C   0  0  0  0  0  0  0  0  0  0  0  0
   46.8380   30.8320   48.4810 C   0  0  2  0  0  0  0  0  0  0  0  0
   45.6410   30.9440   49.3880 C   0  0  0  0  0  0  0  0  0  0  0  0
   48.0940   31.4090   49.0450 C   0  0  0  0  0  0  0  0  0  0  0  0
   48.5850   30.5010   50.0680 N   0  0  0  0  0  0  0  0  0  0  0  0
   50.2790   30.4750   50.1850 S   0  0  0  0  0  0  0  0  0  0  0  0
   50.7010   29.2450   50.9350 O   0  0  0  0  0  0  0  0  0  0  0  0
   50.8340   30.3580   48.7940 O   0  0  0  0  0  0  0  0  0  0  0  0
   50.9820   31.8820   50.9040 C   0  0  0  0  0  0  0  0  0  0  0  0
   51.1880   33.0220   50.1370 C   0  0  0  0  0  0  0  0  0  0  0  0
   51.7440   34.1790   50.6440 C   0  0  0  0  0  0  0  0  0  0  0  0
   52.1200   34.2120   51.9870 C   0  0  0  0  0  0  0  0  0  0  0  0
   51.9230   33.0920   52.7580 C   0  0  0  0  0  0  0  0  0  0  0  0
   51.3650   31.9470   52.2300 C   0  0  0  0  0  0  0  0  0  0  0  0
   44.4849   36.9842   42.9941 H   0  0  0  0  0  0  0  0  0  0  0  0
   43.2260   36.5374   40.8590 H   0  0  0  0  0  0  0  0  0  0  0  0
   43.1532   34.1569   39.9920 H   0  0  0  0  0  0  0  0  0  0  0  0
   46.1839   31.4168   41.6690 H   0  0  0  0  0  0  0  0  0  0  0  0
   45.0288   34.1104   48.1762 H   0  0  0  0  0  0  0  0  0  0  0  0
   45.7877   32.8136   49.1381 H   0  0  0  0  0  0  0  0  0  0  0  0
   47.0847   29.7640   48.3883 H   0  0  0  0  0  0  0  0  0  0  0  0
   45.9715   30.9131   50.4367 H   0  0  0  0  0  0  0  0  0  0  0  0
   45.1223   31.8946   49.1949 H   0  0  0  0  0  0  0  0  0  0  0  0
   44.9549   30.1061   49.1949 H   0  0  0  0  0  0  0  0  0  0  0  0
   48.8457   31.5165   48.2492 H   0  0  0  0  0  0  0  0  0  0  0  0
   47.8985   32.4017   49.4768 H   0  0  0  0  0  0  0  0  0  0  0  0
   48.1988   30.7930   50.9771 H   0  0  0  0  0  0  0  0  0  0  0  0
   50.8945   33.0015   49.0771 H   0  0  0  0  0  0  0  0  0  0  0  0
   51.8881   35.0595   50.0006 H   0  0  0  0  0  0  0  0  0  0  0  0
   52.5664   35.1188   52.4211 H   0  0  0  0  0  0  0  0  0  0  0  0
   52.2164   33.1091   53.8180 H   0  0  0  0  0  0  0  0  0  0  0  0
   51.2220   31.0687   52.8766 H   0  0  0  0  0  0  0  0  0  0  0  0
  1  6  2  0
  2  1  1  0
  3  2  2  0
  3  4  1  0
  4  5  2  0
  5  6  1  0
  5  7  1  0
  7 17  1  0
  8  7  1  0
  8  9  2  0
  9 10  1  0
 10 11  1  0
 11 12  2  0
 11 13  1  0
 13 18  1  0
 14 13  1  0
 14 15  1  0
 16 14  2  0
 17 10  2  0
 17 16  1  0
 18 20  1  0
 18 19  1  0
 20 21  1  0
 21 22  1  0
 22 25  1  0
 22 23  2  0
 24 22  2  0
 25 30  2  0
 26 27  2  0
 26 25  1  0
 27 28  1  0
 28 29  2  0
 30 29  1  0
  1 31  1  0
  2 32  1  0
  3 33  1  0
  8 34  1  0
 15 35  1  0
 15 36  1  0
 18 37  1  6
 19 38  1  0
 19 39  1  0
 19 40  1  0
 20 41  1  0
 20 42  1  0
 21 43  1  0
 26 44  1  0
 27 45  1  0
 28 46  1  0
 29 47  1  0
 30 48  1  0
M  ISO  8  31  14  32  14  33  14  34  14  37   8  38   8  39   8  40   8
M  ISO  8  41   8  42   8  43   5  44  14  45  14  46  14  47  14  48  14
M  END
>  <minimizedAffinity>  (1) 
-6.81135035

>  <minimizedRMSD>  (1) 
0.889352739

$$$$
