
     RDKit          3D

 45 48  0  0  1  0  0  0  0  0999 V2000
   44.5150   35.9490   42.6760 C   0  0  0  0  0  0  0  0  0  0  0  0
   43.7980   35.7330   41.4870 C   0  0  0  0  0  0  0  0  0  0  0  0
   43.7040   34.4150   41.0200 C   0  0  0  0  0  0  0  0  0  0  0  0
   44.3080   33.4210   41.7350 N   0  0  0  0  0  0  0  0  0  0  0  0
   44.9800   33.6420   42.8540 C   0  0  0  0  0  0  0  0  0  0  0  0
   45.0900   34.9240   43.3370 N   0  0  0  0  0  0  0  0  0  0  0  0
   45.5700   32.5610   43.5280 N   0  0  0  0  0  0  0  0  0  0  0  0
   46.0900   31.4640   42.8740 C   0  0  0  0  0  0  0  0  0  0  0  0
   46.5880   30.5820   43.7130 N   0  0  0  0  0  0  0  0  0  0  0  0
   46.4180   31.0670   44.9870 C   0  0  0  0  0  0  0  0  0  0  0  0
   46.7450   30.5650   46.1910 C   0  0  0  0  0  0  0  0  0  0  0  0
   47.3120   29.4620   46.2830 O   0  0  0  0  0  0  0  0  0  0  0  0
   46.4450   31.2810   47.2820 N   0  0  0  0  0  0  0  0  0  0  0  0
   45.8240   32.4850   47.1320 C   0  0  0  0  0  0  0  0  0  0  0  0
   45.5290   33.2030   48.3290 N   0  0  0  0  0  0  0  0  0  0  0  0
   45.4820   33.0120   45.9150 N   0  0  0  0  0  0  0  0  0  0  0  0
   45.7950   32.2680   44.8050 C   0  0  0  0  0  0  0  0  0  0  0  0
   46.7680   30.7960   48.5930 C   0  0  2  0  0  0  0  0  0  0  0  0
   45.5820   30.9410   49.5120 C   0  0  0  0  0  0  0  0  0  0  0  0
   48.0450   31.3450   49.1510 C   0  0  0  0  0  0  0  0  0  0  0  0
   48.7310   30.2910   49.8720 N   0  0  0  0  0  0  0  0  0  0  0  0
   49.8960   30.5350   50.6060 C   0  0  0  0  0  0  0  0  0  0  0  0
   50.5620   31.7430   50.5970 C   0  0  0  0  0  0  0  0  0  0  0  0
   51.7200   31.9620   51.3350 C   0  0  0  0  0  0  0  0  0  0  0  0
   52.2470   30.9430   52.1180 C   0  0  0  0  0  0  0  0  0  0  0  0
   51.6110   29.7130   52.1570 C   0  0  0  0  0  0  0  0  0  0  0  0
   50.4600   29.5390   51.4050 C   0  0  0  0  0  0  0  0  0  0  0  0
   44.6087   36.9703   43.0738 H   0  0  0  0  0  0  0  0  0  0  0  0
   43.3286   36.5663   40.9437 H   0  0  0  0  0  0  0  0  0  0  0  0
   43.1542   34.1858   40.0952 H   0  0  0  0  0  0  0  0  0  0  0  0
   46.0885   31.3412   41.7809 H   0  0  0  0  0  0  0  0  0  0  0  0
   45.0603   34.1188   48.2780 H   0  0  0  0  0  0  0  0  0  0  0  0
   45.7847   32.8056   49.2442 H   0  0  0  0  0  0  0  0  0  0  0  0
   46.9820   29.7209   48.5012 H   0  0  0  0  0  0  0  0  0  0  0  0
   45.9211   30.8995   50.5576 H   0  0  0  0  0  0  0  0  0  0  0  0
   45.0887   31.9061   49.3245 H   0  0  0  0  0  0  0  0  0  0  0  0
   44.8707   30.1231   49.3245 H   0  0  0  0  0  0  0  0  0  0  0  0
   48.6819   31.7065   48.3302 H   0  0  0  0  0  0  0  0  0  0  0  0
   47.8266   32.1818   49.8307 H   0  0  0  0  0  0  0  0  0  0  0  0
   48.3493   29.3348   49.8428 H   0  0  0  0  0  0  0  0  0  0  0  0
   50.1621   32.5636   49.9832 H   0  0  0  0  0  0  0  0  0  0  0  0
   52.2185   32.9419   51.2987 H   0  0  0  0  0  0  0  0  0  0  0  0
   53.1631   31.1115   52.7031 H   0  0  0  0  0  0  0  0  0  0  0  0
   52.0107   28.8926   52.7712 H   0  0  0  0  0  0  0  0  0  0  0  0
   49.9618   28.5589   51.4398 H   0  0  0  0  0  0  0  0  0  0  0  0
  1  6  2  0
  2  1  1  0
  3  2  2  0
  3  4  1  0
  4  5  2  0
  5  6  1  0
  5  7  1  0
  7 17  1  0
  8  7  1  0
  8  9  2  0
  9 10  1  0
 10 11  1  0
 11 12  2  0
 11 13  1  0
 13 18  1  0
 14 13  1  0
 14 15  1  0
 16 14  2  0
 17 10  2  0
 17 16  1  0
 18 20  1  0
 18 19  1  0
 20 21  1  0
 21 22  1  0
 22 27  1  0
 23 22  2  0
 23 24  1  0
 24 25  2  0
 25 26  1  0
 27 26  2  0
  1 28  1  0
  2 29  1  0
  3 30  1  0
  8 31  1  0
 15 32  1  0
 15 33  1  0
 18 34  1  6
 19 35  1  0
 19 36  1  0
 19 37  1  0
 20 38  1  0
 20 39  1  0
 21 40  1  0
 23 41  1  0
 24 42  1  0
 25 43  1  0
 26 44  1  0
 27 45  1  0
M  ISO  8  28  14  29  14  30  14  31  14  34   8  35   8  36   8  37   8
M  ISO  7  38   8  39   8  41  14  42  14  43  14  44  14  45  14
M  END
>  <minimizedAffinity>  (1) 
-6.39233923

>  <minimizedRMSD>  (1) 
0.153481022

$$$$
