
     RDKit          3D

 50 53  0  0  1  0  0  0  0  0999 V2000
   44.4710   35.9900   42.6290 C   0  0  0  0  0  0  0  0  0  0  0  0
   43.7490   35.7480   41.4300 C   0  0  0  0  0  0  0  0  0  0  0  0
   43.6980   34.4420   40.9590 C   0  0  0  0  0  0  0  0  0  0  0  0
   44.3340   33.4630   41.6580 N   0  0  0  0  0  0  0  0  0  0  0  0
   45.0090   33.7030   42.7820 C   0  0  0  0  0  0  0  0  0  0  0  0
   45.0830   34.9800   43.2810 N   0  0  0  0  0  0  0  0  0  0  0  0
   45.6350   32.6170   43.4350 N   0  0  0  0  0  0  0  0  0  0  0  0
   46.1910   31.5550   42.7810 C   0  0  0  0  0  0  0  0  0  0  0  0
   46.7130   30.6750   43.6200 N   0  0  0  0  0  0  0  0  0  0  0  0
   46.5110   31.1420   44.8840 C   0  0  0  0  0  0  0  0  0  0  0  0
   46.8430   30.6370   46.0840 C   0  0  0  0  0  0  0  0  0  0  0  0
   47.4460   29.5480   46.1740 O   0  0  0  0  0  0  0  0  0  0  0  0
   46.5100   31.3320   47.1910 N   0  0  0  0  0  0  0  0  0  0  0  0
   45.8560   32.5090   47.0520 C   0  0  0  0  0  0  0  0  0  0  0  0
   45.5330   33.2000   48.2490 N   0  0  0  0  0  0  0  0  0  0  0  0
   45.5040   33.0490   45.8340 N   0  0  0  0  0  0  0  0  0  0  0  0
   45.8510   32.3290   44.7290 C   0  0  0  0  0  0  0  0  0  0  0  0
   46.8400   30.8370   48.4920 C   0  0  2  0  0  0  0  0  0  0  0  0
   45.6520   30.9610   49.4210 C   0  0  0  0  0  0  0  0  0  0  0  0
   48.1020   31.3860   49.0690 C   0  0  0  0  0  0  0  0  0  0  0  0
   48.6050   30.4340   50.0430 N   0  0  0  0  0  0  0  0  0  0  0  0
   52.0930   30.7530   52.1070 N   0  0  0  0  0  0  0  0  0  0  0  0
   51.1600   29.6520   52.2630 C   0  0  0  0  0  0  0  0  0  0  0  0
   50.5690   29.3440   50.9370 C   0  0  0  0  0  0  0  0  0  0  0  0
   50.0720   30.4770   50.1290 C   0  0  0  0  0  0  0  0  0  0  0  0
   50.5770   31.8300   50.4990 C   0  0  0  0  0  0  0  0  0  0  0  0
   51.2440   31.9060   51.8420 C   0  0  0  0  0  0  0  0  0  0  0  0
   44.5318   37.0124   43.0304 H   0  0  0  0  0  0  0  0  0  0  0  0
   43.2475   36.5665   40.8928 H   0  0  0  0  0  0  0  0  0  0  0  0
   43.1516   34.2029   40.0347 H   0  0  0  0  0  0  0  0  0  0  0  0
   46.2034   31.4442   41.6867 H   0  0  0  0  0  0  0  0  0  0  0  0
   45.0355   34.1008   48.2054 H   0  0  0  0  0  0  0  0  0  0  0  0
   45.7961   32.8006   49.1612 H   0  0  0  0  0  0  0  0  0  0  0  0
   47.0685   29.7680   48.3696 H   0  0  0  0  0  0  0  0  0  0  0  0
   45.9974   30.9249   50.4647 H   0  0  0  0  0  0  0  0  0  0  0  0
   45.1407   31.9174   49.2368 H   0  0  0  0  0  0  0  0  0  0  0  0
   44.9543   30.1308   49.2368 H   0  0  0  0  0  0  0  0  0  0  0  0
   48.8449   31.5303   48.2707 H   0  0  0  0  0  0  0  0  0  0  0  0
   47.9103   32.3569   49.5493 H   0  0  0  0  0  0  0  0  0  0  0  0
   48.2087   30.6589   50.9667 H   0  0  0  0  0  0  0  0  0  0  0  0
   52.6404   30.8927   52.9682 H   0  0  0  0  0  0  0  0  0  0  0  0
   51.6901   28.7681   52.6473 H   0  0  0  0  0  0  0  0  0  0  0  0
   50.3673   29.9277   52.9741 H   0  0  0  0  0  0  0  0  0  0  0  0
   51.3404   28.8306   50.3442 H   0  0  0  0  0  0  0  0  0  0  0  0
   49.6726   28.7478   51.1627 H   0  0  0  0  0  0  0  0  0  0  0  0
   50.5094   30.3258   49.1311 H   0  0  0  0  0  0  0  0  0  0  0  0
   51.3052   32.1440   49.7367 H   0  0  0  0  0  0  0  0  0  0  0  0
   49.6958   32.4862   50.5526 H   0  0  0  0  0  0  0  0  0  0  0  0
   51.8619   32.8153   51.8784 H   0  0  0  0  0  0  0  0  0  0  0  0
   50.4545   31.9238   52.6077 H   0  0  0  0  0  0  0  0  0  0  0  0
  1  6  2  0
  2  1  1  0
  3  2  2  0
  3  4  1  0
  4  5  2  0
  5  6  1  0
  5  7  1  0
  7 17  1  0
  8  7  1  0
  8  9  2  0
  9 10  1  0
 10 11  1  0
 11 12  2  0
 11 13  1  0
 13 18  1  0
 14 13  1  0
 14 15  1  0
 16 14  2  0
 17 10  2  0
 17 16  1  0
 18 20  1  0
 18 19  1  0
 20 21  1  0
 21 25  1  0
 22 23  1  0
 24 23  1  0
 25 26  1  0
 25 24  1  0
 26 27  1  0
 27 22  1  0
  1 28  1  0
  2 29  1  0
  3 30  1  0
  8 31  1  0
 15 32  1  0
 15 33  1  0
 18 34  1  6
 19 35  1  0
 19 36  1  0
 19 37  1  0
 20 38  1  0
 20 39  1  0
 21 40  1  0
 22 41  1  0
 23 42  1  0
 23 43  1  0
 24 44  1  0
 24 45  1  0
 25 46  1  0
 26 47  1  0
 26 48  1  0
 27 49  1  0
 27 50  1  0
M  ISO  8  28  14  29  14  30  14  31  14  34   8  35   8  36   8  37   8
M  ISO  8  38   8  39   8  40   5  41   5  42  13  43  13  44  13  45  13
M  ISO  5  46  13  47  13  48  13  49  13  50  13
M  END
>  <minimizedAffinity>  (1) 
-6.38765955

>  <minimizedRMSD>  (1) 
0.540950179

$$$$
