
     RDKit          3D

 44 47  0  0  1  0  0  0  0  0999 V2000
   44.5420   35.9610   42.6670 C   0  0  0  0  0  0  0  0  0  0  0  0
   43.8010   35.7310   41.4750 C   0  0  0  0  0  0  0  0  0  0  0  0
   43.6940   34.4160   41.0240 C   0  0  0  0  0  0  0  0  0  0  0  0
   44.2960   33.4250   41.7380 N   0  0  0  0  0  0  0  0  0  0  0  0
   44.9890   33.6660   42.8580 C   0  0  0  0  0  0  0  0  0  0  0  0
   45.1180   34.9370   43.3330 N   0  0  0  0  0  0  0  0  0  0  0  0
   45.5750   32.5590   43.5220 N   0  0  0  0  0  0  0  0  0  0  0  0
   46.0830   31.4640   42.8810 C   0  0  0  0  0  0  0  0  0  0  0  0
   46.5680   30.5800   43.7250 N   0  0  0  0  0  0  0  0  0  0  0  0
   46.3950   31.0660   44.9870 C   0  0  0  0  0  0  0  0  0  0  0  0
   46.7080   30.5680   46.1950 C   0  0  0  0  0  0  0  0  0  0  0  0
   47.2650   29.4570   46.2960 O   0  0  0  0  0  0  0  0  0  0  0  0
   46.4090   31.2920   47.2960 N   0  0  0  0  0  0  0  0  0  0  0  0
   45.8010   32.4980   47.1320 C   0  0  0  0  0  0  0  0  0  0  0  0
   45.5130   33.2120   48.3240 N   0  0  0  0  0  0  0  0  0  0  0  0
   45.4710   33.0300   45.9160 N   0  0  0  0  0  0  0  0  0  0  0  0
   45.7830   32.2810   44.8150 C   0  0  0  0  0  0  0  0  0  0  0  0
   46.7260   30.7950   48.6060 C   0  0  2  0  0  0  0  0  0  0  0  0
   45.5440   30.9610   49.5220 C   0  0  0  0  0  0  0  0  0  0  0  0
   48.0040   31.3280   49.1610 C   0  0  0  0  0  0  0  0  0  0  0  0
   48.6840   30.2500   49.8540 N   0  0  0  0  0  0  0  0  0  0  0  0
   49.8710   30.5360   50.5950 C   0  0  0  0  0  0  0  0  0  0  0  0
   50.5190   31.7460   50.4620 C   0  0  0  0  0  0  0  0  0  0  0  0
   51.6630   31.9800   51.1980 C   0  0  0  0  0  0  0  0  0  0  0  0
   52.1730   31.0150   52.0710 C   0  0  0  0  0  0  0  0  0  0  0  0
   51.4940   29.8130   52.1770 C   0  0  0  0  0  0  0  0  0  0  0  0
   50.3950   29.6460   51.4410 N   0  0  0  0  0  0  0  0  0  0  0  0
   44.6473   36.9862   43.0514 H   0  0  0  0  0  0  0  0  0  0  0  0
   43.3292   36.5609   40.9284 H   0  0  0  0  0  0  0  0  0  0  0  0
   43.1328   34.1831   40.1070 H   0  0  0  0  0  0  0  0  0  0  0  0
   46.0858   31.3372   41.7883 H   0  0  0  0  0  0  0  0  0  0  0  0
   45.0532   34.1324   48.2747 H   0  0  0  0  0  0  0  0  0  0  0  0
   45.7637   32.8099   49.2385 H   0  0  0  0  0  0  0  0  0  0  0  0
   46.9242   29.7169   48.5147 H   0  0  0  0  0  0  0  0  0  0  0  0
   45.8812   30.9136   50.5680 H   0  0  0  0  0  0  0  0  0  0  0  0
   45.0682   31.9348   49.3339 H   0  0  0  0  0  0  0  0  0  0  0  0
   44.8184   30.1559   49.3339 H   0  0  0  0  0  0  0  0  0  0  0  0
   48.6373   31.7024   48.3432 H   0  0  0  0  0  0  0  0  0  0  0  0
   47.7995   32.1559   49.8558 H   0  0  0  0  0  0  0  0  0  0  0  0
   48.3149   29.2893   49.8121 H   0  0  0  0  0  0  0  0  0  0  0  0
   50.1293   32.5146   49.7783 H   0  0  0  0  0  0  0  0  0  0  0  0
   52.1830   32.9439   51.0956 H   0  0  0  0  0  0  0  0  0  0  0  0
   53.0853   31.2045   52.6556 H   0  0  0  0  0  0  0  0  0  0  0  0
   51.8510   29.0188   52.8491 H   0  0  0  0  0  0  0  0  0  0  0  0
  1  6  2  0
  2  1  1  0
  3  2  2  0
  3  4  1  0
  4  5  2  0
  5  6  1  0
  5  7  1  0
  7 17  1  0
  8  7  1  0
  8  9  2  0
  9 10  1  0
 10 11  1  0
 11 12  2  0
 11 13  1  0
 13 18  1  0
 14 13  1  0
 14 15  1  0
 16 14  2  0
 17 10  2  0
 17 16  1  0
 18 20  1  0
 18 19  1  0
 20 21  1  0
 21 22  1  0
 22 27  1  0
 23 22  2  0
 23 24  1  0
 24 25  2  0
 25 26  1  0
 27 26  2  0
  1 28  1  0
  2 29  1  0
  3 30  1  0
  8 31  1  0
 15 32  1  0
 15 33  1  0
 18 34  1  6
 19 35  1  0
 19 36  1  0
 19 37  1  0
 20 38  1  0
 20 39  1  0
 21 40  1  0
 23 41  1  0
 24 42  1  0
 25 43  1  0
 26 44  1  0
M  ISO  8  28  14  29  14  30  14  31  14  34   8  35   8  36   8  37   8
M  ISO  6  38   8  39   8  41  14  42  14  43  14  44  14
M  END
>  <minimizedAffinity>  (1) 
-6.36818075

>  <minimizedRMSD>  (1) 
0.317414284

$$$$
