
     RDKit          3D

 43 46  0  0  1  0  0  0  0  0999 V2000
   44.5000   35.9910   42.6390 C   0  0  0  0  0  0  0  0  0  0  0  0
   43.7930   35.7510   41.4270 C   0  0  0  0  0  0  0  0  0  0  0  0
   43.7340   34.4430   40.9570 C   0  0  0  0  0  0  0  0  0  0  0  0
   44.3500   33.4620   41.6730 N   0  0  0  0  0  0  0  0  0  0  0  0
   45.0100   33.7010   42.8080 C   0  0  0  0  0  0  0  0  0  0  0  0
   45.0900   34.9680   43.2990 N   0  0  0  0  0  0  0  0  0  0  0  0
   45.6140   32.6040   43.4680 N   0  0  0  0  0  0  0  0  0  0  0  0
   46.1540   31.5280   42.8220 C   0  0  0  0  0  0  0  0  0  0  0  0
   46.6490   30.6490   43.6630 N   0  0  0  0  0  0  0  0  0  0  0  0
   46.4540   31.1170   44.9280 C   0  0  0  0  0  0  0  0  0  0  0  0
   46.7660   30.6170   46.1330 C   0  0  0  0  0  0  0  0  0  0  0  0
   47.3490   29.5150   46.2250 O   0  0  0  0  0  0  0  0  0  0  0  0
   46.4420   31.3180   47.2390 N   0  0  0  0  0  0  0  0  0  0  0  0
   45.8100   32.5090   47.0830 C   0  0  0  0  0  0  0  0  0  0  0  0
   45.4920   33.2100   48.2770 N   0  0  0  0  0  0  0  0  0  0  0  0
   45.4780   33.0460   45.8610 N   0  0  0  0  0  0  0  0  0  0  0  0
   45.8150   32.3200   44.7630 C   0  0  0  0  0  0  0  0  0  0  0  0
   46.7590   30.8130   48.5430 C   0  0  2  0  0  0  0  0  0  0  0  0
   45.5600   30.9520   49.4570 C   0  0  0  0  0  0  0  0  0  0  0  0
   48.0130   31.3720   49.1260 C   0  0  0  0  0  0  0  0  0  0  0  0
   48.6910   30.2950   49.8410 N   0  0  0  0  0  0  0  0  0  0  0  0
   49.8720   30.6040   50.5740 C   0  0  0  0  0  0  0  0  0  0  0  0
   50.5260   31.8150   50.4550 C   0  0  0  0  0  0  0  0  0  0  0  0
   51.6790   32.1310   51.1630 C   0  0  0  0  0  0  0  0  0  0  0  0
   52.1790   31.2080   52.0070 N   0  0  0  0  0  0  0  0  0  0  0  0
   51.5550   30.0200   52.1360 C   0  0  0  0  0  0  0  0  0  0  0  0
   50.4240   29.7350   51.4290 N   0  0  0  0  0  0  0  0  0  0  0  0
   44.5669   37.0128   43.0407 H   0  0  0  0  0  0  0  0  0  0  0  0
   43.3089   36.5733   40.8797 H   0  0  0  0  0  0  0  0  0  0  0  0
   43.2001   34.2057   40.0250 H   0  0  0  0  0  0  0  0  0  0  0  0
   46.1720   31.4118   41.7283 H   0  0  0  0  0  0  0  0  0  0  0  0
   45.0120   34.1200   48.2277 H   0  0  0  0  0  0  0  0  0  0  0  0
   45.7414   32.8082   49.1920 H   0  0  0  0  0  0  0  0  0  0  0  0
   46.9844   29.7421   48.4317 H   0  0  0  0  0  0  0  0  0  0  0  0
   45.8915   30.9136   50.5051 H   0  0  0  0  0  0  0  0  0  0  0  0
   45.0621   31.9139   49.2650 H   0  0  0  0  0  0  0  0  0  0  0  0
   44.8552   30.1295   49.2650 H   0  0  0  0  0  0  0  0  0  0  0  0
   48.6609   31.7543   48.3234 H   0  0  0  0  0  0  0  0  0  0  0  0
   47.7822   32.2019   49.8101 H   0  0  0  0  0  0  0  0  0  0  0  0
   48.3234   29.3332   49.8159 H   0  0  0  0  0  0  0  0  0  0  0  0
   50.1135   32.5663   49.7656 H   0  0  0  0  0  0  0  0  0  0  0  0
   52.1697   33.1075   51.0378 H   0  0  0  0  0  0  0  0  0  0  0  0
   51.9656   29.2665   52.8242 H   0  0  0  0  0  0  0  0  0  0  0  0
  1  6  2  0
  2  1  1  0
  3  2  2  0
  3  4  1  0
  4  5  2  0
  5  6  1  0
  5  7  1  0
  7 17  1  0
  8  7  1  0
  8  9  2  0
  9 10  1  0
 10 11  1  0
 11 12  2  0
 11 13  1  0
 13 18  1  0
 14 13  1  0
 14 15  1  0
 16 14  2  0
 17 10  2  0
 17 16  1  0
 18 20  1  0
 18 19  1  0
 20 21  1  0
 21 22  1  0
 22 27  1  0
 23 22  2  0
 23 24  1  0
 24 25  2  0
 25 26  1  0
 27 26  2  0
  1 28  1  0
  2 29  1  0
  3 30  1  0
  8 31  1  0
 15 32  1  0
 15 33  1  0
 18 34  1  6
 19 35  1  0
 19 36  1  0
 19 37  1  0
 20 38  1  0
 20 39  1  0
 21 40  1  0
 23 41  1  0
 24 42  1  0
 26 43  1  0
M  ISO  8  28  14  29  14  30  14  31  14  34   8  35   8  36   8  37   8
M  ISO  5  38   8  39   8  41  14  42  14  43  14
M  END
>  <minimizedAffinity>  (1) 
-6.34460449

>  <minimizedRMSD>  (1) 
0.156261593

$$$$
