
     RDKit          3D

 51 54  0  0  1  0  0  0  0  0999 V2000
   44.5130   35.9360   42.6290 C   0  0  0  0  0  0  0  0  0  0  0  0
   43.7690   35.7110   41.4570 C   0  0  0  0  0  0  0  0  0  0  0  0
   43.6360   34.3930   40.9960 C   0  0  0  0  0  0  0  0  0  0  0  0
   44.2380   33.3960   41.7100 N   0  0  0  0  0  0  0  0  0  0  0  0
   44.9450   33.6290   42.8270 C   0  0  0  0  0  0  0  0  0  0  0  0
   45.0840   34.9140   43.2920 N   0  0  0  0  0  0  0  0  0  0  0  0
   45.5350   32.5340   43.4900 N   0  0  0  0  0  0  0  0  0  0  0  0
   46.0330   31.4240   42.8400 C   0  0  0  0  0  0  0  0  0  0  0  0
   46.5190   30.5510   43.6710 N   0  0  0  0  0  0  0  0  0  0  0  0
   46.3650   31.0430   44.9410 C   0  0  0  0  0  0  0  0  0  0  0  0
   46.6960   30.5390   46.1570 C   0  0  0  0  0  0  0  0  0  0  0  0
   47.2440   29.4300   46.2470 O   0  0  0  0  0  0  0  0  0  0  0  0
   46.4090   31.2810   47.2560 N   0  0  0  0  0  0  0  0  0  0  0  0
   45.8060   32.4910   47.1040 C   0  0  0  0  0  0  0  0  0  0  0  0
   45.5380   33.2020   48.3030 N   0  0  0  0  0  0  0  0  0  0  0  0
   45.4640   33.0220   45.8780 N   0  0  0  0  0  0  0  0  0  0  0  0
   45.7590   32.2600   44.7780 C   0  0  0  0  0  0  0  0  0  0  0  0
   46.7530   30.7670   48.5430 C   0  0  2  0  0  0  0  0  0  0  0  0
   45.5380   30.8610   49.4610 C   0  0  0  0  0  0  0  0  0  0  0  0
   47.9600   31.3760   49.1630 C   0  0  0  0  0  0  0  0  0  0  0  0
   48.6200   30.3640   49.9690 N   0  0  0  0  0  0  0  0  0  0  0  0
   49.9930   30.5010   50.2100 C   0  0  0  0  0  0  0  0  0  0  0  0
   50.6140   31.8380   50.2900 C   0  0  0  0  0  0  0  0  0  0  0  0
   51.1460   32.1550   51.6980 C   0  0  0  0  0  0  0  0  0  0  0  0
   52.3060   31.2360   51.9950 C   0  0  0  0  0  0  0  0  0  0  0  0
   51.9800   29.8650   51.4880 C   0  0  0  0  0  0  0  0  0  0  0  0
   50.4840   29.6320   51.3830 C   0  0  0  0  0  0  0  0  0  0  0  0
   44.6297   36.9617   43.0089 H   0  0  0  0  0  0  0  0  0  0  0  0
   43.3031   36.5475   40.9155 H   0  0  0  0  0  0  0  0  0  0  0  0
   43.0627   34.1683   40.0845 H   0  0  0  0  0  0  0  0  0  0  0  0
   46.0203   31.2933   41.7479 H   0  0  0  0  0  0  0  0  0  0  0  0
   45.0830   34.1252   48.2635 H   0  0  0  0  0  0  0  0  0  0  0  0
   45.7985   32.7947   49.2125 H   0  0  0  0  0  0  0  0  0  0  0  0
   47.0387   29.7152   48.3946 H   0  0  0  0  0  0  0  0  0  0  0  0
   45.8682   30.8355   50.5100 H   0  0  0  0  0  0  0  0  0  0  0  0
   45.0042   31.8031   49.2674 H   0  0  0  0  0  0  0  0  0  0  0  0
   44.8657   30.0122   49.2674 H   0  0  0  0  0  0  0  0  0  0  0  0
   48.6436   31.7293   48.3769 H   0  0  0  0  0  0  0  0  0  0  0  0
   47.6719   32.2317   49.7913 H   0  0  0  0  0  0  0  0  0  0  0  0
   48.1493   30.3484   50.8850 H   0  0  0  0  0  0  0  0  0  0  0  0
   50.3562   30.1335   49.2389 H   0  0  0  0  0  0  0  0  0  0  0  0
   51.4514   31.8816   49.5780 H   0  0  0  0  0  0  0  0  0  0  0  0
   49.8403   32.5818   50.0489 H   0  0  0  0  0  0  0  0  0  0  0  0
   51.4826   33.2014   51.7396 H   0  0  0  0  0  0  0  0  0  0  0  0
   50.3496   32.0060   52.4420 H   0  0  0  0  0  0  0  0  0  0  0  0
   53.2110   31.6097   51.4937 H   0  0  0  0  0  0  0  0  0  0  0  0
   52.4849   31.1998   53.0798 H   0  0  0  0  0  0  0  0  0  0  0  0
   52.4285   29.7402   50.4914 H   0  0  0  0  0  0  0  0  0  0  0  0
   52.3854   29.1354   52.2044 H   0  0  0  0  0  0  0  0  0  0  0  0
   49.9850   29.9338   52.3157 H   0  0  0  0  0  0  0  0  0  0  0  0
   50.2554   28.5690   51.2164 H   0  0  0  0  0  0  0  0  0  0  0  0
  1  6  2  0
  2  1  1  0
  3  2  2  0
  3  4  1  0
  4  5  2  0
  5  6  1  0
  5  7  1  0
  7 17  1  0
  8  7  1  0
  8  9  2  0
  9 10  1  0
 10 11  1  0
 11 12  2  0
 11 13  1  0
 13 18  1  0
 14 13  1  0
 14 15  1  0
 16 14  2  0
 17 10  2  0
 17 16  1  0
 18 20  1  0
 18 19  1  0
 20 21  1  0
 21 22  1  0
 22 23  1  0
 22 27  1  0
 23 24  1  0
 24 25  1  0
 26 25  1  0
 27 26  1  0
  1 28  1  0
  2 29  1  0
  3 30  1  0
  8 31  1  0
 15 32  1  0
 15 33  1  0
 18 34  1  6
 19 35  1  0
 19 36  1  0
 19 37  1  0
 20 38  1  0
 20 39  1  0
 21 40  1  0
 22 41  1  0
 23 42  1  0
 23 43  1  0
 24 44  1  0
 24 45  1  0
 25 46  1  0
 25 47  1  0
 26 48  1  0
 26 49  1  0
 27 50  1  0
 27 51  1  0
M  ISO  8  28  14  29  14  30  14  31  14  34   8  35   8  36   8  37   8
M  ISO  8  38   8  39   8  40   5  41  13  42  13  43  13  44  13  45  13
M  ISO  6  46  13  47  13  48  13  49  13  50  13  51  13
M  END
>  <minimizedAffinity>  (1) 
-6.34302235

>  <minimizedRMSD>  (1) 
0.843022466

$$$$
