
     RDKit          3D

 48 51  0  0  1  0  0  0  0  0999 V2000
   44.4570   35.9760   42.6300 C   0  0  0  0  0  0  0  0  0  0  0  0
   43.7350   35.7300   41.4260 C   0  0  0  0  0  0  0  0  0  0  0  0
   43.6870   34.4210   40.9510 C   0  0  0  0  0  0  0  0  0  0  0  0
   44.3270   33.4540   41.6580 N   0  0  0  0  0  0  0  0  0  0  0  0
   44.9980   33.6880   42.7790 C   0  0  0  0  0  0  0  0  0  0  0  0
   45.0690   34.9640   43.2800 N   0  0  0  0  0  0  0  0  0  0  0  0
   45.6270   32.6090   43.4330 N   0  0  0  0  0  0  0  0  0  0  0  0
   46.1810   31.5460   42.7750 C   0  0  0  0  0  0  0  0  0  0  0  0
   46.7080   30.6700   43.6040 N   0  0  0  0  0  0  0  0  0  0  0  0
   46.5190   31.1320   44.8740 C   0  0  0  0  0  0  0  0  0  0  0  0
   46.8600   30.6290   46.0700 C   0  0  0  0  0  0  0  0  0  0  0  0
   47.4660   29.5400   46.1600 O   0  0  0  0  0  0  0  0  0  0  0  0
   46.5330   31.3250   47.1850 N   0  0  0  0  0  0  0  0  0  0  0  0
   45.8760   32.5000   47.0430 C   0  0  0  0  0  0  0  0  0  0  0  0
   45.5600   33.1900   48.2430 N   0  0  0  0  0  0  0  0  0  0  0  0
   45.5160   33.0360   45.8260 N   0  0  0  0  0  0  0  0  0  0  0  0
   45.8560   32.3170   44.7230 C   0  0  0  0  0  0  0  0  0  0  0  0
   46.8760   30.8270   48.4860 C   0  0  2  0  0  0  0  0  0  0  0  0
   45.6820   30.9290   49.4050 C   0  0  0  0  0  0  0  0  0  0  0  0
   48.1420   31.3880   49.0430 C   0  0  0  0  0  0  0  0  0  0  0  0
   48.6110   30.5310   50.0880 N   0  0  0  0  0  0  0  0  0  0  0  0
   50.0070   30.2730   50.1250 C   0  0  0  0  0  0  0  0  0  0  0  0
   50.7350   31.2440   51.0100 C   0  0  0  0  0  0  0  0  0  0  0  0
   51.3170   30.4680   52.1680 C   0  0  0  0  0  0  0  0  0  0  0  0
   50.8670   29.0340   52.0050 C   0  0  0  0  0  0  0  0  0  0  0  0
   50.4300   28.9280   50.5680 C   0  0  0  0  0  0  0  0  0  0  0  0
   44.5158   36.9981   43.0323 H   0  0  0  0  0  0  0  0  0  0  0  0
   43.2317   36.5475   40.8889 H   0  0  0  0  0  0  0  0  0  0  0  0
   43.1440   34.1768   40.0260 H   0  0  0  0  0  0  0  0  0  0  0  0
   46.1857   31.4359   41.6805 H   0  0  0  0  0  0  0  0  0  0  0  0
   45.0606   34.0899   48.2034 H   0  0  0  0  0  0  0  0  0  0  0  0
   45.8302   32.7906   49.1532 H   0  0  0  0  0  0  0  0  0  0  0  0
   47.1211   29.7594   48.3849 H   0  0  0  0  0  0  0  0  0  0  0  0
   46.0209   30.9000   50.4511 H   0  0  0  0  0  0  0  0  0  0  0  0
   45.1541   31.8755   49.2167 H   0  0  0  0  0  0  0  0  0  0  0  0
   45.0012   30.0857   49.2167 H   0  0  0  0  0  0  0  0  0  0  0  0
   48.8997   31.4488   48.2479 H   0  0  0  0  0  0  0  0  0  0  0  0
   47.9574   32.3957   49.4435 H   0  0  0  0  0  0  0  0  0  0  0  0
   48.3498   30.9626   50.9860 H   0  0  0  0  0  0  0  0  0  0  0  0
   50.2685   30.3740   49.0613 H   0  0  0  0  0  0  0  0  0  0  0  0
   51.5418   31.7332   50.4444 H   0  0  0  0  0  0  0  0  0  0  0  0
   50.0469   32.0205   51.3755 H   0  0  0  0  0  0  0  0  0  0  0  0
   52.4154   30.5246   52.1475 H   0  0  0  0  0  0  0  0  0  0  0  0
   50.9773   30.8808   53.1294 H   0  0  0  0  0  0  0  0  0  0  0  0
   51.6972   28.3419   52.2094 H   0  0  0  0  0  0  0  0  0  0  0  0
   50.0600   28.7704   52.7045 H   0  0  0  0  0  0  0  0  0  0  0  0
   49.5888   28.2243   50.4835 H   0  0  0  0  0  0  0  0  0  0  0  0
   51.2551   28.5585   49.9413 H   0  0  0  0  0  0  0  0  0  0  0  0
  1  6  2  0
  2  1  1  0
  3  2  2  0
  3  4  1  0
  4  5  2  0
  5  6  1  0
  5  7  1  0
  7 17  1  0
  8  7  1  0
  8  9  2  0
  9 10  1  0
 10 11  1  0
 11 12  2  0
 11 13  1  0
 13 18  1  0
 14 13  1  0
 14 15  1  0
 16 14  2  0
 17 10  2  0
 17 16  1  0
 18 20  1  0
 18 19  1  0
 20 21  1  0
 21 22  1  0
 22 26  1  0
 22 23  1  0
 23 24  1  0
 25 24  1  0
 26 25  1  0
  1 27  1  0
  2 28  1  0
  3 29  1  0
  8 30  1  0
 15 31  1  0
 15 32  1  0
 18 33  1  6
 19 34  1  0
 19 35  1  0
 19 36  1  0
 20 37  1  0
 20 38  1  0
 21 39  1  0
 22 40  1  0
 23 41  1  0
 23 42  1  0
 24 43  1  0
 24 44  1  0
 25 45  1  0
 25 46  1  0
 26 47  1  0
 26 48  1  0
M  ISO  8  27  14  28  14  29  14  30  14  33   8  34   8  35   8  36   8
M  ISO  8  37   8  38   8  39   5  40  13  41  13  42  13  43  13  44  13
M  ISO  4  45  13  46  13  47  13  48  13
M  END
>  <minimizedAffinity>  (1) 
-6.16395378

>  <minimizedRMSD>  (1) 
0.457109213

$$$$
