
     RDKit          3D

 41 43  0  0  1  0  0  0  0  0999 V2000
   44.4540   35.9580   42.6090 C   0  0  0  0  0  0  0  0  0  0  0  0
   43.7600   35.7140   41.4110 C   0  0  0  0  0  0  0  0  0  0  0  0
   43.7240   34.4000   40.9340 C   0  0  0  0  0  0  0  0  0  0  0  0
   44.3590   33.4250   41.6480 N   0  0  0  0  0  0  0  0  0  0  0  0
   45.0120   33.6900   42.7850 C   0  0  0  0  0  0  0  0  0  0  0  0
   45.0650   34.9510   43.2740 N   0  0  0  0  0  0  0  0  0  0  0  0
   45.6350   32.5900   43.4400 N   0  0  0  0  0  0  0  0  0  0  0  0
   46.1840   31.5210   42.7940 C   0  0  0  0  0  0  0  0  0  0  0  0
   46.6920   30.6470   43.6320 N   0  0  0  0  0  0  0  0  0  0  0  0
   46.4910   31.1250   44.9010 C   0  0  0  0  0  0  0  0  0  0  0  0
   46.8160   30.6230   46.1080 C   0  0  0  0  0  0  0  0  0  0  0  0
   47.4120   29.5290   46.1980 O   0  0  0  0  0  0  0  0  0  0  0  0
   46.4870   31.3250   47.2070 N   0  0  0  0  0  0  0  0  0  0  0  0
   45.8410   32.5070   47.0500 C   0  0  0  0  0  0  0  0  0  0  0  0
   45.5180   33.2090   48.2520 N   0  0  0  0  0  0  0  0  0  0  0  0
   45.4950   33.0480   45.8410 N   0  0  0  0  0  0  0  0  0  0  0  0
   45.8420   32.3150   44.7350 C   0  0  0  0  0  0  0  0  0  0  0  0
   46.8140   30.8260   48.5180 C   0  0  2  0  0  0  0  0  0  0  0  0
   45.6170   30.9600   49.4240 C   0  0  0  0  0  0  0  0  0  0  0  0
   48.0740   31.3890   49.0850 C   0  0  0  0  0  0  0  0  0  0  0  0
   48.6300   30.4120   50.0080 N   0  0  0  0  0  0  0  0  0  0  0  0
   50.2980   30.6960   50.3300 S   0  0  0  0  0  0  0  0  0  0  0  0
   51.2910   30.1380   48.9700 C   0  0  0  0  0  0  0  0  0  0  0  0
   50.6680   29.8690   51.5250 O   0  0  0  0  0  0  0  0  0  0  0  0
   50.5580   32.1410   50.6620 O   0  0  0  0  0  0  0  0  0  0  0  0
   44.5007   36.9810   43.0107 H   0  0  0  0  0  0  0  0  0  0  0  0
   43.2617   36.5298   40.8668 H   0  0  0  0  0  0  0  0  0  0  0  0
   43.1941   34.1566   40.0013 H   0  0  0  0  0  0  0  0  0  0  0  0
   46.1993   31.4050   41.7002 H   0  0  0  0  0  0  0  0  0  0  0  0
   45.0272   34.1133   48.2042 H   0  0  0  0  0  0  0  0  0  0  0  0
   45.7760   32.8107   49.1662 H   0  0  0  0  0  0  0  0  0  0  0  0
   47.0469   29.7550   48.4245 H   0  0  0  0  0  0  0  0  0  0  0  0
   45.9453   30.9232   50.4732 H   0  0  0  0  0  0  0  0  0  0  0  0
   45.1159   31.9198   49.2300 H   0  0  0  0  0  0  0  0  0  0  0  0
   44.9161   30.1347   49.2300 H   0  0  0  0  0  0  0  0  0  0  0  0
   48.7914   31.5873   48.2751 H   0  0  0  0  0  0  0  0  0  0  0  0
   47.8674   32.3339   49.6089 H   0  0  0  0  0  0  0  0  0  0  0  0
   48.1083   30.4593   50.8949 H   0  0  0  0  0  0  0  0  0  0  0  0
   52.1894   29.6332   49.3548 H   0  0  0  0  0  0  0  0  0  0  0  0
   50.7097   29.4344   48.3559 H   0  0  0  0  0  0  0  0  0  0  0  0
   51.5897   31.0004   48.3559 H   0  0  0  0  0  0  0  0  0  0  0  0
  1  6  2  0
  2  1  1  0
  3  2  2  0
  3  4  1  0
  4  5  2  0
  5  6  1  0
  5  7  1  0
  7 17  1  0
  8  7  1  0
  8  9  2  0
  9 10  1  0
 10 11  1  0
 11 12  2  0
 11 13  1  0
 13 18  1  0
 14 13  1  0
 14 15  1  0
 16 14  2  0
 17 10  2  0
 17 16  1  0
 18 20  1  0
 18 19  1  0
 20 21  1  0
 21 22  1  0
 22 25  2  0
 22 24  2  0
 23 22  1  0
  1 26  1  0
  2 27  1  0
  3 28  1  0
  8 29  1  0
 15 30  1  0
 15 31  1  0
 18 32  1  6
 19 33  1  0
 19 34  1  0
 19 35  1  0
 20 36  1  0
 20 37  1  0
 21 38  1  0
 23 39  1  0
 23 40  1  0
 23 41  1  0
M  ISO  8  26  14  27  14  28  14  29  14  32   8  33   8  34   8  35   8
M  ISO  6  36   8  37   8  38   5  39   8  40   8  41   8
M  END
>  <minimizedAffinity>  (1) 
-5.83389854

>  <minimizedRMSD>  (1) 
0.474190265

$$$$
