
     RDKit          3D

 37 38  0  0  1  0  0  0  0  0999 V2000
   47.6920   34.0190   40.9750 N   0  0  0  0  0  0  0  0  0  0  0  0
   47.0800   32.7560   40.7110 C   0  0  0  0  0  0  0  0  0  0  0  0
   47.8480   31.5890   41.2370 C   0  0  0  0  0  0  0  0  0  0  0  0
   48.6110   31.7860   42.4830 C   0  0  0  0  0  0  0  0  0  0  0  0
   48.8590   33.2080   42.8540 C   0  0  0  0  0  0  0  0  0  0  0  0
   48.9510   34.0070   41.5880 C   0  0  2  0  0  0  0  0  0  0  0  0
   46.7600   34.8610   41.6360 C   0  0  0  0  0  0  0  0  0  0  0  0
   45.4520   34.1880   42.0010 C   0  0  1  0  0  0  0  0  0  0  0  0
   44.6610   35.4780   44.0650 C   0  0  0  0  0  0  0  0  0  0  0  0
   45.2360   34.3440   43.4370 C   0  0  0  0  0  0  0  0  0  0  0  0
   45.6360   33.3060   44.2760 C   0  0  0  0  0  0  0  0  0  0  0  0
   45.4660   33.4160   45.6150 N   0  0  0  0  0  0  0  0  0  0  0  0
   44.9120   34.5160   46.1750 C   0  0  0  0  0  0  0  0  0  0  0  0
   44.5020   35.5670   45.3840 N   0  0  0  0  0  0  0  0  0  0  0  0
   44.3500   34.8920   41.2330 C   0  0  0  0  0  0  0  0  0  0  0  0
   49.4230   35.3650   41.9190 C   0  0  0  0  0  0  0  0  0  0  0  0
   49.4190   36.5510   41.5690 O   0  0  0  0  0  0  0  0  0  0  0  0
   50.1710   35.2530   43.1020 O   0  0  0  0  0  0  0  0  0  0  0  0
   46.0824   32.7511   41.1744 H   0  0  0  0  0  0  0  0  0  0  0  0
   47.0388   32.6439   39.6175 H   0  0  0  0  0  0  0  0  0  0  0  0
   47.1303   30.7745   41.4146 H   0  0  0  0  0  0  0  0  0  0  0  0
   48.6093   31.3839   40.4699 H   0  0  0  0  0  0  0  0  0  0  0  0
   48.0521   31.3122   43.3034 H   0  0  0  0  0  0  0  0  0  0  0  0
   49.6004   31.3372   42.3107 H   0  0  0  0  0  0  0  0  0  0  0  0
   48.0302   33.5826   43.4726 H   0  0  0  0  0  0  0  0  0  0  0  0
   49.7917   33.2959   43.4304 H   0  0  0  0  0  0  0  0  0  0  0  0
   49.6682   33.5632   40.8818 H   0  0  0  0  0  0  0  0  0  0  0  0
   47.2265   35.2296   42.5615 H   0  0  0  0  0  0  0  0  0  0  0  0
   46.5104   35.6661   40.9292 H   0  0  0  0  0  0  0  0  0  0  0  0
   45.4642   33.1166   41.7519 H   0  0  0  0  0  0  0  0  0  0  0  0
   44.3327   36.3189   43.4365 H   0  0  0  0  0  0  0  0  0  0  0  0
   46.0893   32.3982   43.8512 H   0  0  0  0  0  0  0  0  0  0  0  0
   44.7884   34.5715   47.2666 H   0  0  0  0  0  0  0  0  0  0  0  0
   43.6410   35.3450   41.9416 H   0  0  0  0  0  0  0  0  0  0  0  0
   44.7884   35.6777   40.6002 H   0  0  0  0  0  0  0  0  0  0  0  0
   43.8213   34.1640   40.6002 H   0  0  0  0  0  0  0  0  0  0  0  0
   50.5846   36.0575   43.5042 H   0  0  0  0  0  0  0  0  0  0  0  0
  1  6  1  0
  1  7  1  0
  2  1  1  0
  2  3  1  0
  3  4  1  0
  4  5  1  0
  6 16  1  0
  6  5  1  0
  7  8  1  0
  8 10  1  0
  9 14  2  0
 10  9  1  0
 10 11  2  0
 11 12  1  0
 12 13  2  0
 14 13  1  0
 15  8  1  0
 16 18  1  0
 17 16  2  0
  2 19  1  0
  2 20  1  0
  3 21  1  0
  3 22  1  0
  4 23  1  0
  4 24  1  0
  5 25  1  0
  5 26  1  0
  6 27  1  6
  7 28  1  0
  7 29  1  0
  8 30  1  1
  9 31  1  0
 11 32  1  0
 13 33  1  0
 15 34  1  0
 15 35  1  0
 15 36  1  0
 18 37  1  0
M  ISO  8  19  13  20  13  21  13  22  13  23  13  24  13  25  13  26  13
M  ISO  8  27  13  28   8  29   8  30   8  31  14  32  14  33  14  34   8
M  ISO  3  35   8  36   8  37   3
M  END
>  <minimizedAffinity>  (1) 
-5.08230019

>  <minimizedRMSD>  (1) 
1.52352726

$$$$
