
     RDKit          3D

 37 39  0  0  1  0  0  0  0  0999 V2000
   44.4800   35.9470   42.6490 C   0  0  0  0  0  0  0  0  0  0  0  0
   43.7520   35.7130   41.4670 C   0  0  0  0  0  0  0  0  0  0  0  0
   43.6920   34.4050   41.0170 C   0  0  0  0  0  0  0  0  0  0  0  0
   44.3190   33.4130   41.7050 N   0  0  0  0  0  0  0  0  0  0  0  0
   45.0070   33.6730   42.8290 C   0  0  0  0  0  0  0  0  0  0  0  0
   45.0910   34.9370   43.3070 N   0  0  0  0  0  0  0  0  0  0  0  0
   45.6270   32.5670   43.4780 N   0  0  0  0  0  0  0  0  0  0  0  0
   46.1630   31.4950   42.8340 C   0  0  0  0  0  0  0  0  0  0  0  0
   46.6680   30.6260   43.6730 N   0  0  0  0  0  0  0  0  0  0  0  0
   46.4820   31.0980   44.9390 C   0  0  0  0  0  0  0  0  0  0  0  0
   46.8080   30.6000   46.1450 C   0  0  0  0  0  0  0  0  0  0  0  0
   47.3950   29.5020   46.2310 O   0  0  0  0  0  0  0  0  0  0  0  0
   46.4900   31.3040   47.2440 N   0  0  0  0  0  0  0  0  0  0  0  0
   45.8510   32.4930   47.0960 C   0  0  0  0  0  0  0  0  0  0  0  0
   45.5400   33.1980   48.2950 N   0  0  0  0  0  0  0  0  0  0  0  0
   45.5040   33.0310   45.8820 N   0  0  0  0  0  0  0  0  0  0  0  0
   45.8400   32.2920   44.7770 C   0  0  0  0  0  0  0  0  0  0  0  0
   46.8210   30.8050   48.5530 C   0  0  2  0  0  0  0  0  0  0  0  0
   45.6130   30.9230   49.4590 C   0  0  0  0  0  0  0  0  0  0  0  0
   48.0710   31.3780   49.1320 C   0  0  0  0  0  0  0  0  0  0  0  0
   48.6820   30.3640   49.9780 N   0  0  0  0  0  0  0  0  0  0  0  0
   50.0000   30.6480   50.4310 C   0  0  0  0  0  0  0  0  0  0  0  0
   50.4740   31.7150   50.9040 O   0  0  0  0  0  0  0  0  0  0  0  0
   44.5529   36.9709   43.0443 H   0  0  0  0  0  0  0  0  0  0  0  0
   43.2540   36.5312   40.9261 H   0  0  0  0  0  0  0  0  0  0  0  0
   43.1348   34.1669   40.0990 H   0  0  0  0  0  0  0  0  0  0  0  0
   46.1711   31.3732   41.7408 H   0  0  0  0  0  0  0  0  0  0  0  0
   45.0556   34.1058   48.2478 H   0  0  0  0  0  0  0  0  0  0  0  0
   45.7996   32.7997   49.2087 H   0  0  0  0  0  0  0  0  0  0  0  0
   47.0712   29.7386   48.4516 H   0  0  0  0  0  0  0  0  0  0  0  0
   45.9380   30.8913   50.5094 H   0  0  0  0  0  0  0  0  0  0  0  0
   45.0992   31.8756   49.2628 H   0  0  0  0  0  0  0  0  0  0  0  0
   44.9245   30.0878   49.2628 H   0  0  0  0  0  0  0  0  0  0  0  0
   48.7633   31.6561   48.3236 H   0  0  0  0  0  0  0  0  0  0  0  0
   47.8411   32.2783   49.7207 H   0  0  0  0  0  0  0  0  0  0  0  0
   48.1909   29.4952   50.2328 H   0  0  0  0  0  0  0  0  0  0  0  0
   50.7109   29.8118   50.3574 H   0  0  0  0  0  0  0  0  0  0  0  0
  1  6  2  0
  2  1  1  0
  3  2  2  0
  3  4  1  0
  4  5  2  0
  5  6  1  0
  5  7  1  0
  7 17  1  0
  8  7  1  0
  8  9  2  0
  9 10  1  0
 10 11  1  0
 11 12  2  0
 11 13  1  0
 13 18  1  0
 14 13  1  0
 14 15  1  0
 16 14  2  0
 17 10  2  0
 17 16  1  0
 18 20  1  0
 18 19  1  0
 20 21  1  0
 21 22  1  0
 22 23  2  0
  1 24  1  0
  2 25  1  0
  3 26  1  0
  8 27  1  0
 15 28  1  0
 15 29  1  0
 18 30  1  6
 19 31  1  0
 19 32  1  0
 19 33  1  0
 20 34  1  0
 20 35  1  0
 21 36  1  0
 22 37  1  0
M  ISO  8  24  14  25  14  26  14  27  14  30   8  31   8  32   8  33   8
M  ISO  3  34   8  35   8  37   6
M  END
>  <minimizedAffinity>  (1) 
-5.78582621

>  <minimizedRMSD>  (1) 
0.125085309

$$$$
