
     RDKit          3D

 42 45  0  0  1  0  0  0  0  0999 V2000
   44.4050   35.9110   42.5040 C   0  0  0  0  0  0  0  0  0  0  0  0
   43.7000   35.6430   41.2950 C   0  0  0  0  0  0  0  0  0  0  0  0
   43.6640   34.3320   40.8510 C   0  0  0  0  0  0  0  0  0  0  0  0
   44.2930   33.3630   41.5750 N   0  0  0  0  0  0  0  0  0  0  0  0
   44.9490   33.6250   42.7020 C   0  0  0  0  0  0  0  0  0  0  0  0
   45.0080   34.9090   43.1770 N   0  0  0  0  0  0  0  0  0  0  0  0
   45.5700   32.5620   43.3840 N   0  0  0  0  0  0  0  0  0  0  0  0
   46.1290   31.4790   42.7500 C   0  0  0  0  0  0  0  0  0  0  0  0
   46.6450   30.6270   43.6000 N   0  0  0  0  0  0  0  0  0  0  0  0
   46.4470   31.1150   44.8610 C   0  0  0  0  0  0  0  0  0  0  0  0
   46.7810   30.6340   46.0720 C   0  0  0  0  0  0  0  0  0  0  0  0
   47.3850   29.5450   46.1840 O   0  0  0  0  0  0  0  0  0  0  0  0
   46.4480   31.3520   47.1620 N   0  0  0  0  0  0  0  0  0  0  0  0
   45.7930   32.5250   46.9960 C   0  0  0  0  0  0  0  0  0  0  0  0
   45.4690   33.2430   48.1800 N   0  0  0  0  0  0  0  0  0  0  0  0
   45.4410   33.0410   45.7690 N   0  0  0  0  0  0  0  0  0  0  0  0
   45.7870   32.2990   44.6780 C   0  0  0  0  0  0  0  0  0  0  0  0
   46.7810   30.8790   48.4800 C   0  0  2  0  0  0  0  0  0  0  0  0
   45.5670   30.9630   49.3770 C   0  0  0  0  0  0  0  0  0  0  0  0
   48.0090   31.4920   49.0640 C   0  0  0  0  0  0  0  0  0  0  0  0
   48.6150   30.5220   49.9560 N   0  0  0  0  0  0  0  0  0  0  0  0
   50.0140   30.6110   50.1110 C   0  0  0  0  0  0  0  0  0  0  0  0
   50.7350   31.3890   51.1140 C   0  0  0  0  0  0  0  0  0  0  0  0
   50.5880   29.8830   51.3330 C   0  0  0  0  0  0  0  0  0  0  0  0
   44.4579   36.9395   42.8904 H   0  0  0  0  0  0  0  0  0  0  0  0
   43.2025   36.4484   40.7348 H   0  0  0  0  0  0  0  0  0  0  0  0
   43.1328   34.0747   39.9227 H   0  0  0  0  0  0  0  0  0  0  0  0
   46.1416   31.3437   41.6584 H   0  0  0  0  0  0  0  0  0  0  0  0
   44.9707   34.1422   48.1169 H   0  0  0  0  0  0  0  0  0  0  0  0
   45.7326   32.8638   49.1007 H   0  0  0  0  0  0  0  0  0  0  0  0
   47.0623   29.8196   48.3878 H   0  0  0  0  0  0  0  0  0  0  0  0
   45.8864   30.9409   50.4294 H   0  0  0  0  0  0  0  0  0  0  0  0
   45.0276   31.9006   49.1772 H   0  0  0  0  0  0  0  0  0  0  0  0
   44.9036   30.1086   49.1772 H   0  0  0  0  0  0  0  0  0  0  0  0
   48.7143   31.7519   48.2609 H   0  0  0  0  0  0  0  0  0  0  0  0
   47.7527   32.4090   49.6148 H   0  0  0  0  0  0  0  0  0  0  0  0
   48.1873   30.6391   50.8856 H   0  0  0  0  0  0  0  0  0  0  0  0
   50.1127   30.6148   49.0154 H   0  0  0  0  0  0  0  0  0  0  0  0
   51.7214   31.8109   50.8712 H   0  0  0  0  0  0  0  0  0  0  0  0
   50.4943   32.2791   51.7139 H   0  0  0  0  0  0  0  0  0  0  0  0
   49.9203   29.4953   52.1165 H   0  0  0  0  0  0  0  0  0  0  0  0
   51.2662   29.0347   51.5074 H   0  0  0  0  0  0  0  0  0  0  0  0
  1  6  2  0
  2  1  1  0
  3  2  2  0
  3  4  1  0
  4  5  2  0
  5  6  1  0
  5  7  1  0
  7 17  1  0
  8  7  1  0
  8  9  2  0
  9 10  1  0
 10 11  1  0
 11 12  2  0
 11 13  1  0
 13 18  1  0
 14 13  1  0
 14 15  1  0
 16 14  2  0
 17 10  2  0
 17 16  1  0
 18 20  1  0
 18 19  1  0
 20 21  1  0
 21 22  1  0
 22 23  1  0
 22 24  1  0
 23 24  1  0
  1 25  1  0
  2 26  1  0
  3 27  1  0
  8 28  1  0
 15 29  1  0
 15 30  1  0
 18 31  1  6
 19 32  1  0
 19 33  1  0
 19 34  1  0
 20 35  1  0
 20 36  1  0
 21 37  1  0
 22 38  1  0
 23 39  1  0
 23 40  1  0
 24 41  1  0
 24 42  1  0
M  ISO  8  25  14  26  14  27  14  28  14  31   8  32   8  33   8  34   8
M  ISO  8  35   8  36   8  37   5  38  13  39  13  40  13  41  13  42  13
M  END
>  <minimizedAffinity>  (1) 
-5.7186799

>  <minimizedRMSD>  (1) 
0.279254586

$$$$
