
     RDKit          3D

 36 39  0  0  1  0  0  0  0  0999 V2000
   46.9080   34.2620   42.2600 C   0  0  1  0  0  0  0  0  0  0  0  0
   46.2430   34.4610   40.9510 C   0  0  1  0  0  0  0  0  0  0  0  0
   47.3970   34.1950   40.0030 C   0  0  0  0  0  0  0  0  0  0  0  0
   48.5230   34.9660   40.6790 C   0  0  0  0  0  0  0  0  0  0  0  0
   48.1680   35.1010   42.1420 C   0  0  0  0  0  0  0  0  0  0  0  0
   44.5490   36.0120   44.6530 C   0  0  0  0  0  0  0  0  0  0  0  0
   45.2810   35.7710   43.4690 C   0  0  0  0  0  0  0  0  0  0  0  0
   46.0930   34.6200   43.4390 C   0  0  0  0  0  0  0  0  0  0  0  0
   46.1200   33.8280   44.5320 N   0  0  0  0  0  0  0  0  0  0  0  0
   45.4100   34.0820   45.6510 C   0  0  0  0  0  0  0  0  0  0  0  0
   44.6170   35.1880   45.7030 N   0  0  0  0  0  0  0  0  0  0  0  0
   45.0980   33.6320   40.7350 N   0  0  0  0  0  0  0  0  0  0  0  0
   45.1790   32.2760   40.7570 C   0  0  0  0  0  0  0  0  0  0  0  0
   43.9260   31.8040   40.5180 N   0  0  0  0  0  0  0  0  0  0  0  0
   43.1030   32.8580   40.3570 C   0  0  0  0  0  0  0  0  0  0  0  0
   41.7450   32.9190   40.0960 C   0  0  0  0  0  0  0  0  0  0  0  0
   41.1650   34.1390   39.9800 N   0  0  0  0  0  0  0  0  0  0  0  0
   41.9190   35.2670   40.1200 C   0  0  0  0  0  0  0  0  0  0  0  0
   43.2400   35.2100   40.3730 N   0  0  0  0  0  0  0  0  0  0  0  0
   43.8360   34.0340   40.4920 C   0  0  0  0  0  0  0  0  0  0  0  0
   40.9460   31.7520   39.9480 N   0  0  0  0  0  0  0  0  0  0  0  0
   47.1038   33.1959   42.4471 H   0  0  0  0  0  0  0  0  0  0  0  0
   45.7863   35.4545   40.8309 H   0  0  0  0  0  0  0  0  0  0  0  0
   47.1892   34.5861   38.9961 H   0  0  0  0  0  0  0  0  0  0  0  0
   47.6133   33.1281   39.8452 H   0  0  0  0  0  0  0  0  0  0  0  0
   49.4706   34.4177   40.5717 H   0  0  0  0  0  0  0  0  0  0  0  0
   48.6451   35.9569   40.2173 H   0  0  0  0  0  0  0  0  0  0  0  0
   48.9696   34.7047   42.7826 H   0  0  0  0  0  0  0  0  0  0  0  0
   48.0288   36.1441   42.4624 H   0  0  0  0  0  0  0  0  0  0  0  0
   43.9055   36.9022   44.7123 H   0  0  0  0  0  0  0  0  0  0  0  0
   45.2197   36.4525   42.6077 H   0  0  0  0  0  0  0  0  0  0  0  0
   45.4712   33.4019   46.5134 H   0  0  0  0  0  0  0  0  0  0  0  0
   46.0835   31.6756   40.9340 H   0  0  0  0  0  0  0  0  0  0  0  0
   41.4346   36.2499   40.0236 H   0  0  0  0  0  0  0  0  0  0  0  0
   39.9382   31.8391   39.7541 H   0  0  0  0  0  0  0  0  0  0  0  0
   41.3751   30.8197   40.0347 H   0  0  0  0  0  0  0  0  0  0  0  0
  1  8  1  0
  2  1  1  0
  3  4  1  0
  3  2  1  0
  4  5  1  0
  5  1  1  0
  6 11  2  0
  7  6  1  0
  8  7  2  0
  8  9  1  0
  9 10  2  0
 10 11  1  0
 12 13  1  0
 12  2  1  0
 14 13  2  0
 15 20  2  0
 15 14  1  0
 16 15  1  0
 17 16  2  0
 17 18  1  0
 18 19  2  0
 19 20  1  0
 20 12  1  0
 21 16  1  0
  1 22  1  1
  2 23  1  1
  3 24  1  0
  3 25  1  0
  4 26  1  0
  4 27  1  0
  5 28  1  0
  5 29  1  0
  6 30  1  0
  7 31  1  0
 10 32  1  0
 13 33  1  0
 18 34  1  0
 21 35  1  0
 21 36  1  0
M  ISO  8  22  13  23  13  24  13  25  13  26  13  27  13  28  13  29  13
M  ISO  5  30  14  31  14  32  14  33  14  34  14
M  END
>  <minimizedAffinity>  (1) 
-5.95905685

>  <minimizedRMSD>  (1) 
1.37151372

$$$$
