
     RDKit          3D

 37 39  0  0  1  0  0  0  0  0999 V2000
   46.8370   34.2550   42.3220 C   0  0  1  0  0  0  0  0  0  0  0  0
   46.1460   34.4260   41.0240 C   0  0  1  0  0  0  0  0  0  0  0  0
   47.2890   34.1550   40.0580 C   0  0  0  0  0  0  0  0  0  0  0  0
   48.4070   34.9500   40.6930 C   0  0  0  0  0  0  0  0  0  0  0  0
   48.0780   35.1110   42.1530 C   0  0  0  0  0  0  0  0  0  0  0  0
   44.5340   36.0290   44.7440 C   0  0  0  0  0  0  0  0  0  0  0  0
   45.2490   35.7730   43.5590 C   0  0  0  0  0  0  0  0  0  0  0  0
   46.0490   34.6120   43.5130 C   0  0  0  0  0  0  0  0  0  0  0  0
   46.0810   33.8190   44.6030 N   0  0  0  0  0  0  0  0  0  0  0  0
   45.3750   34.1020   45.7300 C   0  0  0  0  0  0  0  0  0  0  0  0
   44.6050   35.2070   45.7920 N   0  0  0  0  0  0  0  0  0  0  0  0
   44.9990   33.6350   40.8130 N   0  0  0  0  0  0  0  0  0  0  0  0
   45.0380   32.3230   41.3970 C   0  0  0  0  0  0  0  0  0  0  0  0
   43.9650   32.1250   42.4380 C   0  0  0  0  0  0  0  0  0  0  0  0
   42.6420   32.4050   41.9630 N   0  0  0  0  0  0  0  0  0  0  0  0
   42.6720   33.2040   40.7510 C   0  0  0  0  0  0  0  0  0  0  0  0
   43.7340   34.2860   40.9060 C   0  0  0  0  0  0  0  0  0  0  0  0
   47.0485   33.1953   42.5278 H   0  0  0  0  0  0  0  0  0  0  0  0
   45.6779   35.4157   40.9176 H   0  0  0  0  0  0  0  0  0  0  0  0
   47.0576   34.5218   39.0471 H   0  0  0  0  0  0  0  0  0  0  0  0
   47.5176   33.0882   39.9179 H   0  0  0  0  0  0  0  0  0  0  0  0
   49.3603   34.4129   40.5802 H   0  0  0  0  0  0  0  0  0  0  0  0
   48.5061   35.9326   40.2085 H   0  0  0  0  0  0  0  0  0  0  0  0
   48.8998   34.7445   42.7858 H   0  0  0  0  0  0  0  0  0  0  0  0
   47.9240   36.1593   42.4487 H   0  0  0  0  0  0  0  0  0  0  0  0
   43.9023   36.9273   44.8073 H   0  0  0  0  0  0  0  0  0  0  0  0
   45.1861   36.4549   42.6982 H   0  0  0  0  0  0  0  0  0  0  0  0
   45.4324   33.4259   46.5958 H   0  0  0  0  0  0  0  0  0  0  0  0
   44.8991   31.5774   40.6003 H   0  0  0  0  0  0  0  0  0  0  0  0
   46.0126   32.2057   41.8934 H   0  0  0  0  0  0  0  0  0  0  0  0
   43.9983   31.0788   42.7762 H   0  0  0  0  0  0  0  0  0  0  0  0
   44.1715   32.8362   43.2514 H   0  0  0  0  0  0  0  0  0  0  0  0
   42.1614   31.5155   41.7661 H   0  0  0  0  0  0  0  0  0  0  0  0
   41.6888   33.6705   40.5906 H   0  0  0  0  0  0  0  0  0  0  0  0
   42.9098   32.5661   39.8870 H   0  0  0  0  0  0  0  0  0  0  0  0
   43.6326   34.7794   41.8839 H   0  0  0  0  0  0  0  0  0  0  0  0
   43.6284   35.0581   40.1296 H   0  0  0  0  0  0  0  0  0  0  0  0
  1  8  1  0
  2  1  1  0
  3  4  1  0
  3  2  1  0
  4  5  1  0
  5  1  1  0
  6 11  2  0
  7  6  1  0
  8  7  2  0
  8  9  1  0
  9 10  2  0
 10 11  1  0
 12 17  1  0
 12  2  1  0
 12 13  1  0
 13 14  1  0
 15 14  1  0
 16 17  1  0
 16 15  1  0
  1 18  1  1
  2 19  1  1
  3 20  1  0
  3 21  1  0
  4 22  1  0
  4 23  1  0
  5 24  1  0
  5 25  1  0
  6 26  1  0
  7 27  1  0
 10 28  1  0
 13 29  1  0
 13 30  1  0
 14 31  1  0
 14 32  1  0
 15 33  1  0
 16 34  1  0
 16 35  1  0
 17 36  1  0
 17 37  1  0
M  ISO  8  18  13  19  13  20  13  21  13  22  13  23  13  24  13  25  13
M  ISO  8  26  14  27  14  28  14  29  13  30  13  31  13  32  13  33   5
M  ISO  4  34  13  35  13  36  13  37  13
M  END
>  <minimizedAffinity>  (1) 
-5.39562082

>  <minimizedRMSD>  (1) 
0.462863773

$$$$
