
     RDKit          3D

 36 38  0  0  1  0  0  0  0  0999 V2000
   46.8960   34.2480   42.3280 C   0  0  1  0  0  0  0  0  0  0  0  0
   46.2700   34.5410   41.0310 C   0  0  1  0  0  0  0  0  0  0  0  0
   47.4240   34.2720   40.0770 C   0  0  0  0  0  0  0  0  0  0  0  0
   48.5720   34.9620   40.7990 C   0  0  0  0  0  0  0  0  0  0  0  0
   48.1870   35.0490   42.2450 C   0  0  0  0  0  0  0  0  0  0  0  0
   44.5370   35.9280   44.7630 C   0  0  0  0  0  0  0  0  0  0  0  0
   45.2750   35.6780   43.5900 C   0  0  0  0  0  0  0  0  0  0  0  0
   46.1080   34.5580   43.5180 C   0  0  0  0  0  0  0  0  0  0  0  0
   46.1640   33.7560   44.5980 N   0  0  0  0  0  0  0  0  0  0  0  0
   45.4450   34.0070   45.7270 C   0  0  0  0  0  0  0  0  0  0  0  0
   44.6310   35.1030   45.7970 N   0  0  0  0  0  0  0  0  0  0  0  0
   45.1200   33.7330   40.5900 C   0  0  0  0  0  0  0  0  0  0  0  0
   45.2390   33.0530   39.2680 C   0  0  0  0  0  0  0  0  0  0  0  0
   43.8760   32.3490   39.2110 C   0  0  0  0  0  0  0  0  0  0  0  0
   42.9740   33.5420   39.5430 C   0  0  0  0  0  0  0  0  0  0  0  0
   43.7970   34.4210   40.4940 C   0  0  0  0  0  0  0  0  0  0  0  0
   47.0310   33.1655   42.4691 H   0  0  0  0  0  0  0  0  0  0  0  0
   45.8302   35.5481   41.0789 H   0  0  0  0  0  0  0  0  0  0  0  0
   47.2425   34.7194   39.0886 H   0  0  0  0  0  0  0  0  0  0  0  0
   47.5978   33.2061   39.8682 H   0  0  0  0  0  0  0  0  0  0  0  0
   49.4958   34.3753   40.6881 H   0  0  0  0  0  0  0  0  0  0  0  0
   48.7566   35.9621   40.3797 H   0  0  0  0  0  0  0  0  0  0  0  0
   48.9645   34.6058   42.8845 H   0  0  0  0  0  0  0  0  0  0  0  0
   48.0659   36.0863   42.5904 H   0  0  0  0  0  0  0  0  0  0  0  0
   43.8813   36.8093   44.8217 H   0  0  0  0  0  0  0  0  0  0  0  0
   45.1961   36.3625   42.7325 H   0  0  0  0  0  0  0  0  0  0  0  0
   45.5196   33.3247   46.5866 H   0  0  0  0  0  0  0  0  0  0  0  0
   45.1520   33.0213   41.4282 H   0  0  0  0  0  0  0  0  0  0  0  0
   45.3612   33.7745   38.4467 H   0  0  0  0  0  0  0  0  0  0  0  0
   46.1097   32.3890   39.1637 H   0  0  0  0  0  0  0  0  0  0  0  0
   43.6656   31.9385   38.2124 H   0  0  0  0  0  0  0  0  0  0  0  0
   43.7671   31.4762   39.8716 H   0  0  0  0  0  0  0  0  0  0  0  0
   42.7187   34.0979   38.6288 H   0  0  0  0  0  0  0  0  0  0  0  0
   42.0245   33.2235   39.9981 H   0  0  0  0  0  0  0  0  0  0  0  0
   43.9148   35.4343   40.0825 H   0  0  0  0  0  0  0  0  0  0  0  0
   43.3153   34.5394   41.4758 H   0  0  0  0  0  0  0  0  0  0  0  0
  1  8  1  0
  2  1  1  0
  3  4  1  0
  3  2  1  0
  4  5  1  0
  5  1  1  0
  6 11  2  0
  7  6  1  0
  8  7  2  0
  8  9  1  0
  9 10  2  0
 10 11  1  0
 12  2  1  0
 13 12  1  0
 14 13  1  0
 14 15  1  0
 15 16  1  0
 16 12  1  0
  1 17  1  6
  2 18  1  1
  3 19  1  0
  3 20  1  0
  4 21  1  0
  4 22  1  0
  5 23  1  0
  5 24  1  0
  6 25  1  0
  7 26  1  0
 10 27  1  0
 12 28  1  0
 13 29  1  0
 13 30  1  0
 14 31  1  0
 14 32  1  0
 15 33  1  0
 15 34  1  0
 16 35  1  0
 16 36  1  0
M  ISO  8  17  13  18  13  19  13  20  13  21  13  22  13  23  13  24  13
M  ISO  8  25  14  26  14  27  14  28  13  29  13  30  13  31  13  32  13
M  ISO  4  33  13  34  13  35  13  36  13
M  END
>  <minimizedAffinity>  (1) 
-5.13233995

>  <minimizedRMSD>  (1) 
0.82289964

$$$$
