
     RDKit          3D

 38 40  0  0  1  0  0  0  0  0999 V2000
   47.0810   34.3800   42.1520 C   0  0  1  0  0  0  0  0  0  0  0  0
   46.4080   34.3570   40.8340 C   0  0  1  0  0  0  0  0  0  0  0  0
   47.6090   34.1590   39.9130 C   0  0  0  0  0  0  0  0  0  0  0  0
   48.5790   35.1650   40.4900 C   0  0  0  0  0  0  0  0  0  0  0  0
   48.1980   35.3880   41.9350 C   0  0  0  0  0  0  0  0  0  0  0  0
   44.6020   36.1000   44.4400 C   0  0  0  0  0  0  0  0  0  0  0  0
   45.4040   35.8400   43.3120 C   0  0  0  0  0  0  0  0  0  0  0  0
   46.2270   34.6970   43.2980 C   0  0  0  0  0  0  0  0  0  0  0  0
   46.2130   33.8900   44.3780 N   0  0  0  0  0  0  0  0  0  0  0  0
   45.4250   34.1620   45.4640 C   0  0  0  0  0  0  0  0  0  0  0  0
   44.6270   35.2610   45.4880 N   0  0  0  0  0  0  0  0  0  0  0  0
   45.3680   33.4300   40.6390 N   0  0  0  0  0  0  0  0  0  0  0  0
   45.6180   32.0970   41.0840 C   0  0  0  0  0  0  0  0  0  0  0  0
   44.7580   31.6510   42.2200 C   0  0  0  0  0  0  0  0  0  0  0  0
   43.3000   31.9650   42.0830 C   0  0  0  0  0  0  0  0  0  0  0  0
   43.1050   32.6980   40.7790 C   0  0  0  0  0  0  0  0  0  0  0  0
   44.0370   33.9010   40.8400 C   0  0  0  0  0  0  0  0  0  0  0  0
   47.4324   33.3788   42.4422 H   0  0  0  0  0  0  0  0  0  0  0  0
   45.8164   35.2677   40.6591 H   0  0  0  0  0  0  0  0  0  0  0  0
   47.3595   34.3913   38.8672 H   0  0  0  0  0  0  0  0  0  0  0  0
   47.9903   33.1278   39.8779 H   0  0  0  0  0  0  0  0  0  0  0  0
   49.6055   34.7746   40.4284 H   0  0  0  0  0  0  0  0  0  0  0  0
   48.5362   36.1098   39.9284 H   0  0  0  0  0  0  0  0  0  0  0  0
   49.0479   35.1868   42.6038 H   0  0  0  0  0  0  0  0  0  0  0  0
   47.8957   36.4237   42.1493 H   0  0  0  0  0  0  0  0  0  0  0  0
   43.9556   36.9897   44.4625 H   0  0  0  0  0  0  0  0  0  0  0  0
   45.3879   36.5231   42.4500 H   0  0  0  0  0  0  0  0  0  0  0  0
   45.4383   33.4818   46.3283 H   0  0  0  0  0  0  0  0  0  0  0  0
   45.4495   31.4151   40.2375 H   0  0  0  0  0  0  0  0  0  0  0  0
   46.6547   32.0795   41.4514 H   0  0  0  0  0  0  0  0  0  0  0  0
   44.8627   30.5603   42.3172 H   0  0  0  0  0  0  0  0  0  0  0  0
   45.1069   32.2086   43.1017 H   0  0  0  0  0  0  0  0  0  0  0  0
   42.7156   31.0331   42.0791 H   0  0  0  0  0  0  0  0  0  0  0  0
   42.9603   32.5848   42.9259 H   0  0  0  0  0  0  0  0  0  0  0  0
   42.0603   33.0268   40.6762 H   0  0  0  0  0  0  0  0  0  0  0  0
   43.3273   32.0553   39.9144 H   0  0  0  0  0  0  0  0  0  0  0  0
   43.9564   34.3877   41.8232 H   0  0  0  0  0  0  0  0  0  0  0  0
   43.7679   34.6359   40.0670 H   0  0  0  0  0  0  0  0  0  0  0  0
  1  8  1  0
  2  1  1  0
  3  4  1  0
  3  2  1  0
  4  5  1  0
  5  1  1  0
  6 11  2  0
  7  6  1  0
  8  7  2  0
  8  9  1  0
  9 10  2  0
 10 11  1  0
 12  2  1  0
 12 17  1  0
 12 13  1  0
 13 14  1  0
 15 14  1  0
 16 17  1  0
 16 15  1  0
  1 18  1  1
  2 19  1  6
  3 20  1  0
  3 21  1  0
  4 22  1  0
  4 23  1  0
  5 24  1  0
  5 25  1  0
  6 26  1  0
  7 27  1  0
 10 28  1  0
 13 29  1  0
 13 30  1  0
 14 31  1  0
 14 32  1  0
 15 33  1  0
 15 34  1  0
 16 35  1  0
 16 36  1  0
 17 37  1  0
 17 38  1  0
M  ISO  8  18  13  19  13  20  13  21  13  22  13  23  13  24  13  25  13
M  ISO  8  26  14  27  14  28  14  29  13  30  13  31  13  32  13  33  13
M  ISO  5  34  13  35  13  36  13  37  13  38  13
M  END
>  <minimizedAffinity>  (1) 
-5.11594105

>  <minimizedRMSD>  (1) 
0.402341723

$$$$
