
     RDKit          3D

 30 32  0  0  1  0  0  0  0  0999 V2000
   46.9440   34.3320   42.2340 C   0  0  1  0  0  0  0  0  0  0  0  0
   46.2720   34.4240   40.9220 C   0  0  1  0  0  0  0  0  0  0  0  0
   47.4300   34.1810   39.9750 C   0  0  0  0  0  0  0  0  0  0  0  0
   48.5030   35.0550   40.6040 C   0  0  0  0  0  0  0  0  0  0  0  0
   48.1260   35.2710   42.0510 C   0  0  0  0  0  0  0  0  0  0  0  0
   44.5690   36.0290   44.6190 C   0  0  0  0  0  0  0  0  0  0  0  0
   45.3130   35.8060   43.4450 C   0  0  0  0  0  0  0  0  0  0  0  0
   46.1320   34.6600   43.4020 C   0  0  0  0  0  0  0  0  0  0  0  0
   46.1480   33.8590   44.4840 N   0  0  0  0  0  0  0  0  0  0  0  0
   45.4220   34.0980   45.6000 C   0  0  0  0  0  0  0  0  0  0  0  0
   44.6230   35.2050   45.6570 N   0  0  0  0  0  0  0  0  0  0  0  0
   45.1040   33.6340   40.7150 C   0  0  0  0  0  0  0  0  0  0  0  0
   43.9450   34.1720   40.3010 C   0  0  0  0  0  0  0  0  0  0  0  0
   42.7810   33.5330   40.0710 C   0  0  0  0  0  0  0  0  0  0  0  0
   42.8950   32.0840   40.3320 C   0  0  0  0  0  0  0  0  0  0  0  0
   44.7030   31.8310   40.8850 S   0  0  0  0  0  0  0  0  0  0  0  0
   47.2128   33.2926   42.4737 H   0  0  0  0  0  0  0  0  0  0  0  0
   45.7735   35.3934   40.7745 H   0  0  0  0  0  0  0  0  0  0  0  0
   47.1911   34.5070   38.9519 H   0  0  0  0  0  0  0  0  0  0  0  0
   47.7122   33.1237   39.8637 H   0  0  0  0  0  0  0  0  0  0  0  0
   49.4798   34.5530   40.5418 H   0  0  0  0  0  0  0  0  0  0  0  0
   48.5760   36.0172   40.0760 H   0  0  0  0  0  0  0  0  0  0  0  0
   48.9550   35.0000   42.7213 H   0  0  0  0  0  0  0  0  0  0  0  0
   47.8909   36.3190   42.2884 H   0  0  0  0  0  0  0  0  0  0  0  0
   43.9213   36.9161   44.6775 H   0  0  0  0  0  0  0  0  0  0  0  0
   45.2572   36.5000   42.5934 H   0  0  0  0  0  0  0  0  0  0  0  0
   45.4744   33.4071   46.4544 H   0  0  0  0  0  0  0  0  0  0  0  0
   43.9461   35.2586   40.1301 H   0  0  0  0  0  0  0  0  0  0  0  0
   41.8601   34.0293   39.7310 H   0  0  0  0  0  0  0  0  0  0  0  0
   42.1107   31.3195   40.2301 H   0  0  0  0  0  0  0  0  0  0  0  0
  1  8  1  0
  2  1  1  0
  3  4  1  0
  3  2  1  0
  4  5  1  0
  5  1  1  0
  6 11  2  0
  7  6  1  0
  8  7  2  0
  8  9  1  0
  9 10  2  0
 10 11  1  0
 12 16  1  0
 12  2  1  0
 13 12  2  0
 14 13  1  0
 14 15  2  0
 15 16  1  0
  1 17  1  1
  2 18  1  6
  3 19  1  0
  3 20  1  0
  4 21  1  0
  4 22  1  0
  5 23  1  0
  5 24  1  0
  6 25  1  0
  7 26  1  0
 10 27  1  0
 13 28  1  0
 14 29  1  0
 15 30  1  0
M  ISO  8  17  13  18  13  19  13  20  13  21  13  22  13  23  13  24  13
M  ISO  6  25  14  26  14  27  14  28  14  29  14  30  14
M  END
>  <minimizedAffinity>  (1) 
-5.10285759

>  <minimizedRMSD>  (1) 
0.513901353

$$$$
