
     RDKit          3D

 44 46  0  0  1  0  0  0  0  0999 V2000
   44.9990   34.0450   42.5930 N   0  0  0  0  0  0  0  0  0  0  0  0
   44.6190   32.6880   42.7260 C   0  0  0  0  0  0  0  0  0  0  0  0
   44.2440   32.0390   41.4390 C   0  0  0  0  0  0  0  0  0  0  0  0
   44.9690   32.4620   40.2270 C   0  0  0  0  0  0  0  0  0  0  0  0
   45.6370   33.8010   40.3540 C   0  0  0  0  0  0  0  0  0  0  0  0
   44.9060   34.6540   41.3100 C   0  0  1  0  0  0  0  0  0  0  0  0
   43.5420   34.9450   41.0520 N   0  0  0  0  0  0  0  0  0  0  0  0
   42.9980   34.6780   39.8230 C   0  0  0  0  0  0  0  0  0  0  0  0
   41.6870   34.9260   39.4860 C   0  0  0  0  0  0  0  0  0  0  0  0
   40.8550   35.4780   40.4320 C   0  0  0  0  0  0  0  0  0  0  0  0
   39.6570   35.7000   40.1060 O   0  0  0  0  0  0  0  0  0  0  0  0
   41.3650   35.7450   41.6290 N   0  0  0  0  0  0  0  0  0  0  0  0
   42.6550   35.4810   41.9030 C   0  0  0  0  0  0  0  0  0  0  0  0
   43.0390   35.7630   43.0440 O   0  0  0  0  0  0  0  0  0  0  0  0
   46.2750   34.2580   43.1820 C   0  0  0  0  0  0  0  0  0  0  0  0
   46.9700   32.9800   43.6160 C   0  0  1  0  0  0  0  0  0  0  0  0
   49.1010   34.1710   42.8530 C   0  0  0  0  0  0  0  0  0  0  0  0
   48.3430   33.0000   43.0980 C   0  0  0  0  0  0  0  0  0  0  0  0
   48.9560   31.7830   42.8080 C   0  0  0  0  0  0  0  0  0  0  0  0
   50.2160   31.7560   42.3170 N   0  0  0  0  0  0  0  0  0  0  0  0
   50.9110   32.8960   42.0950 C   0  0  0  0  0  0  0  0  0  0  0  0
   50.3430   34.1210   42.3680 N   0  0  0  0  0  0  0  0  0  0  0  0
   46.9860   32.9310   45.1270 C   0  0  0  0  0  0  0  0  0  0  0  0
   45.4630   32.1327   43.1612 H   0  0  0  0  0  0  0  0  0  0  0  0
   43.7254   32.6673   43.3671 H   0  0  0  0  0  0  0  0  0  0  0  0
   44.4027   30.9569   41.5571 H   0  0  0  0  0  0  0  0  0  0  0  0
   43.2022   32.3453   41.2637 H   0  0  0  0  0  0  0  0  0  0  0  0
   44.2525   32.5100   39.3938 H   0  0  0  0  0  0  0  0  0  0  0  0
   45.7654   31.7226   40.0569 H   0  0  0  0  0  0  0  0  0  0  0  0
   46.6679   33.6590   40.7104 H   0  0  0  0  0  0  0  0  0  0  0  0
   45.6405   34.2918   39.3696 H   0  0  0  0  0  0  0  0  0  0  0  0
   45.3966   35.6346   41.2225 H   0  0  0  0  0  0  0  0  0  0  0  0
   43.6516   34.2368   39.0561 H   0  0  0  0  0  0  0  0  0  0  0  0
   41.3118   34.6875   38.4798 H   0  0  0  0  0  0  0  0  0  0  0  0
   40.7651   36.1594   42.3565 H   0  0  0  0  0  0  0  0  0  0  0  0
   46.9151   34.7688   42.4476 H   0  0  0  0  0  0  0  0  0  0  0  0
   46.1131   34.8588   44.0891 H   0  0  0  0  0  0  0  0  0  0  0  0
   46.4448   32.0947   43.2282 H   0  0  0  0  0  0  0  0  0  0  0  0
   48.6521   35.1517   43.0692 H   0  0  0  0  0  0  0  0  0  0  0  0
   48.4137   30.8413   42.9788 H   0  0  0  0  0  0  0  0  0  0  0  0
   51.9343   32.8441   41.6947 H   0  0  0  0  0  0  0  0  0  0  0  0
   46.6682   33.9044   45.5288 H   0  0  0  0  0  0  0  0  0  0  0  0
   46.2970   32.1477   45.4758 H   0  0  0  0  0  0  0  0  0  0  0  0
   48.0045   32.7053   45.4758 H   0  0  0  0  0  0  0  0  0  0  0  0
  1  2  1  0
  1 15  1  0
  3  2  1  0
  4  5  1  0
  4  3  1  0
  5  6  1  0
  6  1  1  0
  7  6  1  0
  7 13  1  0
  8  7  1  0
  9  8  2  0
  9 10  1  0
 10 12  1  0
 11 10  2  0
 12 13  1  0
 13 14  2  0
 15 16  1  0
 16 23  1  0
 17 18  2  0
 18 16  1  0
 19 18  1  0
 20 19  2  0
 21 20  1  0
 21 22  2  0
 22 17  1  0
  2 24  1  0
  2 25  1  0
  3 26  1  0
  3 27  1  0
  4 28  1  0
  4 29  1  0
  5 30  1  0
  5 31  1  0
  6 32  1  1
  8 33  1  0
  9 34  1  0
 12 35  1  0
 15 36  1  0
 15 37  1  0
 16 38  1  6
 17 39  1  0
 19 40  1  0
 21 41  1  0
 23 42  1  0
 23 43  1  0
 23 44  1  0
M  ISO  8  24  13  25  13  26  13  27  13  28  13  29  13  30  13  31  13
M  ISO  8  32  13  33  14  34  14  35   9  36   8  37   8  38   8  39  14
M  ISO  5  40  14  41  14  42   8  43   8  44   8
M  END
>  <minimizedAffinity>  (1) 
-4.81841326

>  <minimizedRMSD>  (1) 
6.60239553

$$$$
