
     RDKit          3D

 33 35  0  0  1  0  0  0  0  0999 V2000
   46.7910   34.1780   42.3770 C   0  0  1  0  0  0  0  0  0  0  0  0
   46.1900   34.5960   41.0910 C   0  0  1  0  0  0  0  0  0  0  0  0
   47.3320   34.2720   40.1300 C   0  0  0  0  0  0  0  0  0  0  0  0
   48.5440   34.7330   40.9080 C   0  0  0  0  0  0  0  0  0  0  0  0
   48.1510   34.8490   42.3580 C   0  0  0  0  0  0  0  0  0  0  0  0
   44.5150   35.9100   44.8520 C   0  0  0  0  0  0  0  0  0  0  0  0
   45.2000   35.6870   43.6380 C   0  0  0  0  0  0  0  0  0  0  0  0
   46.0130   34.5350   43.5760 C   0  0  0  0  0  0  0  0  0  0  0  0
   46.0710   33.7490   44.6710 N   0  0  0  0  0  0  0  0  0  0  0  0
   45.4010   33.9950   45.8150 C   0  0  0  0  0  0  0  0  0  0  0  0
   44.6180   35.0900   45.8970 N   0  0  0  0  0  0  0  0  0  0  0  0
   45.0200   33.7740   40.6760 C   0  0  0  0  0  0  0  0  0  0  0  0
   45.0200   32.4250   40.5000 C   0  0  0  0  0  0  0  0  0  0  0  0
   43.8790   31.7580   40.1130 C   0  0  0  0  0  0  0  0  0  0  0  0
   42.6810   32.4260   39.8850 C   0  0  0  0  0  0  0  0  0  0  0  0
   42.6800   33.7830   40.0620 C   0  0  0  0  0  0  0  0  0  0  0  0
   43.8250   34.4550   40.4510 C   0  0  0  0  0  0  0  0  0  0  0  0
   46.8335   33.0815   42.4538 H   0  0  0  0  0  0  0  0  0  0  0  0
   45.8253   35.6331   41.1295 H   0  0  0  0  0  0  0  0  0  0  0  0
   47.2289   34.8275   39.1862 H   0  0  0  0  0  0  0  0  0  0  0  0
   47.3734   33.2134   39.8341 H   0  0  0  0  0  0  0  0  0  0  0  0
   49.3578   34.0009   40.7994 H   0  0  0  0  0  0  0  0  0  0  0  0
   48.8946   35.7041   40.5286 H   0  0  0  0  0  0  0  0  0  0  0  0
   48.8648   34.3217   43.0079 H   0  0  0  0  0  0  0  0  0  0  0  0
   48.1375   35.8841   42.7300 H   0  0  0  0  0  0  0  0  0  0  0  0
   43.8700   36.7968   44.9387 H   0  0  0  0  0  0  0  0  0  0  0  0
   45.1051   36.3751   42.7850 H   0  0  0  0  0  0  0  0  0  0  0  0
   45.4920   33.3106   46.6713 H   0  0  0  0  0  0  0  0  0  0  0  0
   45.9469   31.8575   40.6697 H   0  0  0  0  0  0  0  0  0  0  0  0
   43.9164   30.6666   39.9806 H   0  0  0  0  0  0  0  0  0  0  0  0
   41.7733   31.8870   39.5757 H   0  0  0  0  0  0  0  0  0  0  0  0
   41.7525   34.3494   39.8920 H   0  0  0  0  0  0  0  0  0  0  0  0
   43.7916   35.5463   40.5851 H   0  0  0  0  0  0  0  0  0  0  0  0
  1  8  1  0
  2  1  1  0
  3  4  1  0
  3  2  1  0
  4  5  1  0
  5  1  1  0
  6 11  2  0
  7  6  1  0
  8  7  2  0
  8  9  1  0
  9 10  2  0
 10 11  1  0
 12  2  1  0
 13 12  2  0
 14 13  1  0
 15 16  1  0
 15 14  2  0
 16 17  2  0
 17 12  1  0
  1 18  1  6
  2 19  1  1
  3 20  1  0
  3 21  1  0
  4 22  1  0
  4 23  1  0
  5 24  1  0
  5 25  1  0
  6 26  1  0
  7 27  1  0
 10 28  1  0
 13 29  1  0
 14 30  1  0
 15 31  1  0
 16 32  1  0
 17 33  1  0
M  ISO  8  18  13  19  13  20  13  21  13  22  13  23  13  24  13  25  13
M  ISO  8  26  14  27  14  28  14  29  14  30  14  31  14  32  14  33  14
M  END
>  <minimizedAffinity>  (1) 
-5.07924604

>  <minimizedRMSD>  (1) 
1.2549088

$$$$
