
     RDKit          3D

 35 36  0  0  1  0  0  0  0  0999 V2000
   47.0710   34.3900   42.1640 C   0  0  1  0  0  0  0  0  0  0  0  0
   46.4280   34.4180   40.8380 C   0  0  1  0  0  0  0  0  0  0  0  0
   47.6630   34.2630   39.9360 C   0  0  0  0  0  0  0  0  0  0  0  0
   48.6340   35.2210   40.5770 C   0  0  0  0  0  0  0  0  0  0  0  0
   48.2090   35.3860   42.0080 C   0  0  0  0  0  0  0  0  0  0  0  0
   44.5910   36.0280   44.5010 C   0  0  0  0  0  0  0  0  0  0  0  0
   45.3770   35.8210   43.3440 C   0  0  0  0  0  0  0  0  0  0  0  0
   46.2190   34.6930   43.3130 C   0  0  0  0  0  0  0  0  0  0  0  0
   46.2220   33.8820   44.3960 N   0  0  0  0  0  0  0  0  0  0  0  0
   45.4650   34.0960   45.4930 C   0  0  0  0  0  0  0  0  0  0  0  0
   44.6470   35.1780   45.5390 N   0  0  0  0  0  0  0  0  0  0  0  0
   45.5080   33.3070   40.4910 C   0  0  0  0  0  0  0  0  0  0  0  0
   45.7030   32.0710   41.3360 C   0  0  0  0  0  0  0  0  0  0  0  0
   44.0780   33.7520   40.7280 C   0  0  0  0  0  0  0  0  0  0  0  0
   45.5740   32.8710   39.0580 C   0  0  0  0  0  0  0  0  0  0  0  0
   47.3851   33.3662   42.4154 H   0  0  0  0  0  0  0  0  0  0  0  0
   45.7910   35.3111   40.7568 H   0  0  0  0  0  0  0  0  0  0  0  0
   47.4403   34.5526   38.8985 H   0  0  0  0  0  0  0  0  0  0  0  0
   48.0364   33.2308   39.8649 H   0  0  0  0  0  0  0  0  0  0  0  0
   49.6541   34.8121   40.5308 H   0  0  0  0  0  0  0  0  0  0  0  0
   48.6338   36.1885   40.0537 H   0  0  0  0  0  0  0  0  0  0  0  0
   49.0360   35.1468   42.6927 H   0  0  0  0  0  0  0  0  0  0  0  0
   47.9086   36.4168   42.2470 H   0  0  0  0  0  0  0  0  0  0  0  0
   43.9224   36.9000   44.5516 H   0  0  0  0  0  0  0  0  0  0  0  0
   45.3321   36.5191   42.4951 H   0  0  0  0  0  0  0  0  0  0  0  0
   45.5108   33.3990   46.3428 H   0  0  0  0  0  0  0  0  0  0  0  0
   45.6599   32.3442   42.4007 H   0  0  0  0  0  0  0  0  0  0  0  0
   44.9084   31.3442   41.1115 H   0  0  0  0  0  0  0  0  0  0  0  0
   46.6828   31.6242   41.1115 H   0  0  0  0  0  0  0  0  0  0  0  0
   43.8870   33.8114   41.8097 H   0  0  0  0  0  0  0  0  0  0  0  0
   43.9217   34.7413   40.2731 H   0  0  0  0  0  0  0  0  0  0  0  0
   43.3879   33.0261   40.2731 H   0  0  0  0  0  0  0  0  0  0  0  0
   45.7385   31.7843   39.0126 H   0  0  0  0  0  0  0  0  0  0  0  0
   44.6279   33.1200   38.5550 H   0  0  0  0  0  0  0  0  0  0  0  0
   46.4040   33.3888   38.5550 H   0  0  0  0  0  0  0  0  0  0  0  0
  1  8  1  0
  2  1  1  0
  3  4  1  0
  3  2  1  0
  4  5  1  0
  5  1  1  0
  6 11  2  0
  7  6  1  0
  8  7  2  0
  8  9  1  0
  9 10  2  0
 10 11  1  0
 12 14  1  0
 12  2  1  0
 12 13  1  0
 15 12  1  0
  1 16  1  1
  2 17  1  6
  3 18  1  0
  3 19  1  0
  4 20  1  0
  4 21  1  0
  5 22  1  0
  5 23  1  0
  6 24  1  0
  7 25  1  0
 10 26  1  0
 13 27  1  0
 13 28  1  0
 13 29  1  0
 14 30  1  0
 14 31  1  0
 14 32  1  0
 15 33  1  0
 15 34  1  0
 15 35  1  0
M  ISO  8  16  13  17  13  18  13  19  13  20  13  21  13  22  13  23  13
M  ISO  8  24  14  25  14  26  14  27   8  28   8  29   8  30   8  31   8
M  ISO  4  32   8  33   8  34   8  35   8
M  END
>  <minimizedAffinity>  (1) 
-4.96989202

>  <minimizedRMSD>  (1) 
0.154222682

$$$$
