
     RDKit          3D

 30 32  0  0  1  0  0  0  0  0999 V2000
   46.9800   34.3410   42.2090 C   0  0  1  0  0  0  0  0  0  0  0  0
   46.2940   34.4380   40.9000 C   0  0  1  0  0  0  0  0  0  0  0  0
   47.4620   34.1790   39.9690 C   0  0  0  0  0  0  0  0  0  0  0  0
   48.5260   35.0730   40.5920 C   0  0  0  0  0  0  0  0  0  0  0  0
   48.1570   35.2890   42.0330 C   0  0  0  0  0  0  0  0  0  0  0  0
   44.5750   36.0210   44.5920 C   0  0  0  0  0  0  0  0  0  0  0  0
   45.3270   35.7990   43.4210 C   0  0  0  0  0  0  0  0  0  0  0  0
   46.1560   34.6600   43.3830 C   0  0  0  0  0  0  0  0  0  0  0  0
   46.1830   33.8490   44.4630 N   0  0  0  0  0  0  0  0  0  0  0  0
   45.4420   34.0960   45.5770 C   0  0  0  0  0  0  0  0  0  0  0  0
   44.6370   35.1900   45.6300 N   0  0  0  0  0  0  0  0  0  0  0  0
   45.1750   33.4930   40.7260 C   0  0  0  0  0  0  0  0  0  0  0  0
   43.9190   33.8510   40.3340 C   0  0  0  0  0  0  0  0  0  0  0  0
   43.1370   32.7130   40.2790 C   0  0  0  0  0  0  0  0  0  0  0  0
   43.9320   31.6700   40.6410 N   0  0  0  0  0  0  0  0  0  0  0  0
   45.1580   32.1400   40.9100 N   0  0  0  0  0  0  0  0  0  0  0  0
   47.2667   33.3041   42.4386 H   0  0  0  0  0  0  0  0  0  0  0  0
   45.7761   35.3943   40.7346 H   0  0  0  0  0  0  0  0  0  0  0  0
   47.2321   34.4820   38.9369 H   0  0  0  0  0  0  0  0  0  0  0  0
   47.7496   33.1208   39.8821 H   0  0  0  0  0  0  0  0  0  0  0  0
   49.5099   34.5854   40.5265 H   0  0  0  0  0  0  0  0  0  0  0  0
   48.5799   36.0345   40.0605 H   0  0  0  0  0  0  0  0  0  0  0  0
   48.9882   35.0214   42.7020 H   0  0  0  0  0  0  0  0  0  0  0  0
   47.9213   36.3355   42.2763 H   0  0  0  0  0  0  0  0  0  0  0  0
   43.9204   36.9031   44.6497 H   0  0  0  0  0  0  0  0  0  0  0  0
   45.2690   36.4901   42.5672 H   0  0  0  0  0  0  0  0  0  0  0  0
   45.4944   33.4100   46.4353 H   0  0  0  0  0  0  0  0  0  0  0  0
   43.5848   34.8728   40.1010 H   0  0  0  0  0  0  0  0  0  0  0  0
   42.0752   32.6605   39.9966 H   0  0  0  0  0  0  0  0  0  0  0  0
   43.6404   30.6838   40.6987 H   0  0  0  0  0  0  0  0  0  0  0  0
  1  8  1  0
  2  1  1  0
  3  4  1  0
  3  2  1  0
  4  5  1  0
  5  1  1  0
  6 11  2  0
  7  6  1  0
  8  7  2  0
  8  9  1  0
  9 10  2  0
 10 11  1  0
 12  2  1  0
 12 16  2  0
 13 12  1  0
 14 13  2  0
 14 15  1  0
 15 16  1  0
  1 17  1  1
  2 18  1  6
  3 19  1  0
  3 20  1  0
  4 21  1  0
  4 22  1  0
  5 23  1  0
  5 24  1  0
  6 25  1  0
  7 26  1  0
 10 27  1  0
 13 28  1  0
 14 29  1  0
 15 30  1  0
M  ISO  8  17  13  18  13  19  13  20  13  21  13  22  13  23  13  24  13
M  ISO  6  25  14  26  14  27  14  28  14  29  14  30   9
M  END
>  <minimizedAffinity>  (1) 
-4.9639864

>  <minimizedRMSD>  (1) 
0.431412101

$$$$
