
     RDKit          3D

 30 32  0  0  1  0  0  0  0  0999 V2000
   47.0050   34.3470   42.1870 C   0  0  1  0  0  0  0  0  0  0  0  0
   46.3300   34.4160   40.8700 C   0  0  1  0  0  0  0  0  0  0  0  0
   47.5310   34.2000   39.9480 C   0  0  0  0  0  0  0  0  0  0  0  0
   48.5660   35.1020   40.5920 C   0  0  0  0  0  0  0  0  0  0  0  0
   48.1480   35.3340   42.0150 C   0  0  0  0  0  0  0  0  0  0  0  0
   44.5690   36.0050   44.5610 C   0  0  0  0  0  0  0  0  0  0  0  0
   45.3170   35.8100   43.3770 C   0  0  0  0  0  0  0  0  0  0  0  0
   46.1600   34.6820   43.3490 C   0  0  0  0  0  0  0  0  0  0  0  0
   46.1920   33.8750   44.4460 N   0  0  0  0  0  0  0  0  0  0  0  0
   45.4590   34.1040   45.5540 C   0  0  0  0  0  0  0  0  0  0  0  0
   44.6430   35.1820   45.6030 N   0  0  0  0  0  0  0  0  0  0  0  0
   45.4190   33.2640   40.7080 C   0  0  0  0  0  0  0  0  0  0  0  0
   44.0780   33.3190   40.3900 C   0  0  0  0  0  0  0  0  0  0  0  0
   43.6670   32.0050   40.3530 C   0  0  0  0  0  0  0  0  0  0  0  0
   44.7700   31.2130   40.6470 C   0  0  0  0  0  0  0  0  0  0  0  0
   45.8080   32.0200   40.8550 O   0  0  0  0  0  0  0  0  0  0  0  0
   47.3130   33.3184   42.4260 H   0  0  0  0  0  0  0  0  0  0  0  0
   45.7404   35.3296   40.7033 H   0  0  0  0  0  0  0  0  0  0  0  0
   47.3090   34.5137   38.9173 H   0  0  0  0  0  0  0  0  0  0  0  0
   47.8443   33.1497   39.8549 H   0  0  0  0  0  0  0  0  0  0  0  0
   49.5532   34.6175   40.5659 H   0  0  0  0  0  0  0  0  0  0  0  0
   48.6349   36.0569   40.0504 H   0  0  0  0  0  0  0  0  0  0  0  0
   48.9706   35.1150   42.7117 H   0  0  0  0  0  0  0  0  0  0  0  0
   47.8632   36.3757   42.2242 H   0  0  0  0  0  0  0  0  0  0  0  0
   43.8976   36.8741   44.6228 H   0  0  0  0  0  0  0  0  0  0  0  0
   45.2445   36.5014   42.5245 H   0  0  0  0  0  0  0  0  0  0  0  0
   45.5239   33.4191   46.4123 H   0  0  0  0  0  0  0  0  0  0  0  0
   43.4694   34.2167   40.2060 H   0  0  0  0  0  0  0  0  0  0  0  0
   42.6506   31.6477   40.1311 H   0  0  0  0  0  0  0  0  0  0  0  0
   44.7832   30.1143   40.6987 H   0  0  0  0  0  0  0  0  0  0  0  0
  1  8  1  0
  2  1  1  0
  3  4  1  0
  3  2  1  0
  4  5  1  0
  5  1  1  0
  6 11  2  0
  7  6  1  0
  8  7  2  0
  8  9  1  0
  9 10  2  0
 10 11  1  0
 12 16  1  0
 12  2  1  0
 13 12  2  0
 14 13  1  0
 14 15  2  0
 15 16  1  0
  1 17  1  1
  2 18  1  6
  3 19  1  0
  3 20  1  0
  4 21  1  0
  4 22  1  0
  5 23  1  0
  5 24  1  0
  6 25  1  0
  7 26  1  0
 10 27  1  0
 13 28  1  0
 14 29  1  0
 15 30  1  0
M  ISO  8  17  13  18  13  19  13  20  13  21  13  22  13  23  13  24  13
M  ISO  6  25  14  26  14  27  14  28  14  29  14  30  14
M  END
>  <minimizedAffinity>  (1) 
-4.83633327

>  <minimizedRMSD>  (1) 
0.622655272

$$$$
