
     RDKit          3D

 30 32  0  0  1  0  0  0  0  0999 V2000
   47.0250   34.3530   42.1780 C   0  0  1  0  0  0  0  0  0  0  0  0
   46.3410   34.3900   40.8630 C   0  0  1  0  0  0  0  0  0  0  0  0
   47.5210   34.1850   39.9320 C   0  0  0  0  0  0  0  0  0  0  0  0
   48.5770   35.0910   40.5660 C   0  0  0  0  0  0  0  0  0  0  0  0
   48.1620   35.3430   41.9890 C   0  0  0  0  0  0  0  0  0  0  0  0
   44.5780   36.0080   44.5330 C   0  0  0  0  0  0  0  0  0  0  0  0
   45.3430   35.7900   43.3710 C   0  0  0  0  0  0  0  0  0  0  0  0
   46.1900   34.6630   43.3380 C   0  0  0  0  0  0  0  0  0  0  0  0
   46.2080   33.8680   44.4260 N   0  0  0  0  0  0  0  0  0  0  0  0
   45.4690   34.0910   45.5320 C   0  0  0  0  0  0  0  0  0  0  0  0
   44.6440   35.1790   45.5770 N   0  0  0  0  0  0  0  0  0  0  0  0
   45.3140   33.3820   40.7170 N   0  0  0  0  0  0  0  0  0  0  0  0
   45.4590   32.0740   40.8720 N   0  0  0  0  0  0  0  0  0  0  0  0
   44.2920   31.4610   40.6570 C   0  0  0  0  0  0  0  0  0  0  0  0
   43.3940   32.4630   40.3530 C   0  0  0  0  0  0  0  0  0  0  0  0
   44.0480   33.6870   40.3910 C   0  0  0  0  0  0  0  0  0  0  0  0
   47.3510   33.3327   42.4285 H   0  0  0  0  0  0  0  0  0  0  0  0
   45.7714   35.3126   40.6776 H   0  0  0  0  0  0  0  0  0  0  0  0
   47.2827   34.5036   38.9065 H   0  0  0  0  0  0  0  0  0  0  0  0
   47.8345   33.1353   39.8329 H   0  0  0  0  0  0  0  0  0  0  0  0
   49.5590   34.5958   40.5434 H   0  0  0  0  0  0  0  0  0  0  0  0
   48.6570   36.0383   40.0126 H   0  0  0  0  0  0  0  0  0  0  0  0
   48.9877   35.1385   42.6864 H   0  0  0  0  0  0  0  0  0  0  0  0
   47.8731   36.3863   42.1842 H   0  0  0  0  0  0  0  0  0  0  0  0
   43.9109   36.8813   44.5814 H   0  0  0  0  0  0  0  0  0  0  0  0
   45.2817   36.4780   42.5149 H   0  0  0  0  0  0  0  0  0  0  0  0
   45.5299   33.4040   46.3889 H   0  0  0  0  0  0  0  0  0  0  0  0
   44.0891   30.3812   40.7111 H   0  0  0  0  0  0  0  0  0  0  0  0
   42.3295   32.3157   40.1180 H   0  0  0  0  0  0  0  0  0  0  0  0
   43.6239   34.6833   40.1974 H   0  0  0  0  0  0  0  0  0  0  0  0
  1  8  1  0
  2  1  1  0
  3  4  1  0
  3  2  1  0
  4  5  1  0
  5  1  1  0
  6 11  2  0
  7  6  1  0
  8  7  2  0
  8  9  1  0
  9 10  2  0
 10 11  1  0
 12  2  1  0
 12 13  1  0
 14 13  2  0
 15 16  2  0
 15 14  1  0
 16 12  1  0
  1 17  1  1
  2 18  1  6
  3 19  1  0
  3 20  1  0
  4 21  1  0
  4 22  1  0
  5 23  1  0
  5 24  1  0
  6 25  1  0
  7 26  1  0
 10 27  1  0
 14 28  1  0
 15 29  1  0
 16 30  1  0
M  ISO  8  17  13  18  13  19  13  20  13  21  13  22  13  23  13  24  13
M  ISO  6  25  14  26  14  27  14  28  14  29  14  30  14
M  END
>  <minimizedAffinity>  (1) 
-4.81097412

>  <minimizedRMSD>  (1) 
0.603860319

$$$$
