
     RDKit          3D

 26 27  0  0  1  0  0  0  0  0999 V2000
   47.1300   34.4510   42.1600 C   0  0  1  0  0  0  0  0  0  0  0  0
   46.5160   34.5620   40.8200 C   0  0  1  0  0  0  0  0  0  0  0  0
   47.7550   34.3210   39.9590 C   0  0  0  0  0  0  0  0  0  0  0  0
   48.7520   35.2470   40.6390 C   0  0  0  0  0  0  0  0  0  0  0  0
   48.2950   35.4240   42.0710 C   0  0  0  0  0  0  0  0  0  0  0  0
   44.5940   36.0320   44.4730 C   0  0  0  0  0  0  0  0  0  0  0  0
   45.4030   35.8330   43.3460 C   0  0  0  0  0  0  0  0  0  0  0  0
   46.2600   34.7170   43.3050 C   0  0  0  0  0  0  0  0  0  0  0  0
   46.2530   33.8880   44.3730 N   0  0  0  0  0  0  0  0  0  0  0  0
   45.4590   34.1050   45.4510 C   0  0  0  0  0  0  0  0  0  0  0  0
   44.6260   35.1870   45.4970 N   0  0  0  0  0  0  0  0  0  0  0  0
   45.4170   33.6350   40.5260 C   0  0  0  0  0  0  0  0  0  0  0  0
   45.6050   32.4040   40.8180 O   0  0  0  0  0  0  0  0  0  0  0  0
   44.2630   34.1050   39.9630 O   0  0  0  0  0  0  0  0  0  0  0  0
   47.4135   33.4094   42.3715 H   0  0  0  0  0  0  0  0  0  0  0  0
   45.9897   35.5150   40.6627 H   0  0  0  0  0  0  0  0  0  0  0  0
   47.5833   34.6087   38.9113 H   0  0  0  0  0  0  0  0  0  0  0  0
   48.0736   33.2698   39.8996 H   0  0  0  0  0  0  0  0  0  0  0  0
   49.7569   34.8002   40.6167 H   0  0  0  0  0  0  0  0  0  0  0  0
   48.7993   36.2167   40.1219 H   0  0  0  0  0  0  0  0  0  0  0  0
   49.0926   35.1569   42.7799 H   0  0  0  0  0  0  0  0  0  0  0  0
   48.0247   36.4601   42.3230 H   0  0  0  0  0  0  0  0  0  0  0  0
   43.9218   36.9020   44.5100 H   0  0  0  0  0  0  0  0  0  0  0  0
   45.3687   36.5400   42.5040 H   0  0  0  0  0  0  0  0  0  0  0  0
   45.4860   33.4025   46.2971 H   0  0  0  0  0  0  0  0  0  0  0  0
   44.1696   35.0688   39.7568 H   0  0  0  0  0  0  0  0  0  0  0  0
  1  8  1  0
  2  1  1  0
  3  4  1  0
  3  2  1  0
  4  5  1  0
  5  1  1  0
  6 11  2  0
  7  6  1  0
  8  7  2  0
  8  9  1  0
  9 10  2  0
 10 11  1  0
 12 13  2  0
 12  2  1  0
 14 12  1  0
  1 15  1  1
  2 16  1  6
  3 17  1  0
  3 18  1  0
  4 19  1  0
  4 20  1  0
  5 21  1  0
  5 22  1  0
  6 23  1  0
  7 24  1  0
 10 25  1  0
 14 26  1  0
M  ISO  8  15  13  16  13  17  13  18  13  19  13  20  13  21  13  22  13
M  ISO  4  23  14  24  14  25  14  26   3
M  END
>  <minimizedAffinity>  (1) 
-4.79820681

>  <minimizedRMSD>  (1) 
0.421920359

$$$$
