
     RDKit          3D

 26 27  0  0  1  0  0  0  0  0999 V2000
   47.0860   34.3550   42.1640 C   0  0  1  0  0  0  0  0  0  0  0  0
   46.4100   34.3260   40.8480 C   0  0  1  0  0  0  0  0  0  0  0  0
   47.6320   34.1720   39.9360 C   0  0  0  0  0  0  0  0  0  0  0  0
   48.5690   35.1980   40.5210 C   0  0  0  0  0  0  0  0  0  0  0  0
   48.1990   35.3710   41.9730 C   0  0  0  0  0  0  0  0  0  0  0  0
   44.5890   36.0050   44.4800 C   0  0  0  0  0  0  0  0  0  0  0  0
   45.3660   35.8060   43.3140 C   0  0  0  0  0  0  0  0  0  0  0  0
   46.2190   34.6830   43.3100 C   0  0  0  0  0  0  0  0  0  0  0  0
   46.2320   33.8880   44.4080 N   0  0  0  0  0  0  0  0  0  0  0  0
   45.4740   34.1140   45.4990 C   0  0  0  0  0  0  0  0  0  0  0  0
   44.6480   35.1870   45.5260 N   0  0  0  0  0  0  0  0  0  0  0  0
   45.6240   33.0220   40.6880 C   0  0  0  0  0  0  0  0  0  0  0  0
   47.4454   33.3519   42.4374 H   0  0  0  0  0  0  0  0  0  0  0  0
   45.7344   35.1766   40.6749 H   0  0  0  0  0  0  0  0  0  0  0  0
   47.3848   34.4029   38.8893 H   0  0  0  0  0  0  0  0  0  0  0  0
   48.0440   33.1526   39.9035 H   0  0  0  0  0  0  0  0  0  0  0  0
   49.6087   34.8488   40.4370 H   0  0  0  0  0  0  0  0  0  0  0  0
   48.4842   36.1532   39.9822 H   0  0  0  0  0  0  0  0  0  0  0  0
   49.0541   35.1489   42.6283 H   0  0  0  0  0  0  0  0  0  0  0  0
   47.8967   36.3983   42.2244 H   0  0  0  0  0  0  0  0  0  0  0  0
   43.9103   36.8697   44.5222 H   0  0  0  0  0  0  0  0  0  0  0  0
   45.3076   36.4915   42.4557 H   0  0  0  0  0  0  0  0  0  0  0  0
   45.5257   33.4324   46.3608 H   0  0  0  0  0  0  0  0  0  0  0  0
   45.3798   32.6169   41.6811 H   0  0  0  0  0  0  0  0  0  0  0  0
   44.6945   33.2198   40.1340 H   0  0  0  0  0  0  0  0  0  0  0  0
   46.2329   32.2924   40.1340 H   0  0  0  0  0  0  0  0  0  0  0  0
  1  8  1  0
  2  1  1  0
  3  4  1  0
  3  2  1  0
  4  5  1  0
  5  1  1  0
  6 11  2  0
  7  6  1  0
  8  7  2  0
  8  9  1  0
  9 10  2  0
 10 11  1  0
 12  2  1  0
  1 13  1  1
  2 14  1  6
  3 15  1  0
  3 16  1  0
  4 17  1  0
  4 18  1  0
  5 19  1  0
  5 20  1  0
  6 21  1  0
  7 22  1  0
 10 23  1  0
 12 24  1  0
 12 25  1  0
 12 26  1  0
M  ISO  8  13  13  14  13  15  13  16  13  17  13  18  13  19  13  20  13
M  ISO  6  21  14  22  14  23  14  24   8  25   8  26   8
M  END
>  <minimizedAffinity>  (1) 
-4.73518324

>  <minimizedRMSD>  (1) 
0.0314470343

$$$$
