
     RDKit          3D

 24 25  0  0  1  0  0  0  0  0999 V2000
   47.0340   34.1710   42.3600 C   0  0  1  0  0  0  0  0  0  0  0  0
   46.3420   33.6310   41.1610 C   0  0  2  0  0  0  0  0  0  0  0  0
   47.5330   33.4920   40.2150 C   0  0  0  0  0  0  0  0  0  0  0  0
   48.2540   34.8160   40.4490 C   0  0  0  0  0  0  0  0  0  0  0  0
   47.8390   35.3280   41.8080 C   0  0  0  0  0  0  0  0  0  0  0  0
   44.5870   35.9650   44.5880 C   0  0  0  0  0  0  0  0  0  0  0  0
   45.3820   35.6610   43.4670 C   0  0  0  0  0  0  0  0  0  0  0  0
   46.2030   34.5220   43.4990 C   0  0  0  0  0  0  0  0  0  0  0  0
   46.1980   33.7600   44.6080 N   0  0  0  0  0  0  0  0  0  0  0  0
   45.4140   34.0790   45.6850 C   0  0  0  0  0  0  0  0  0  0  0  0
   44.6120   35.1830   45.6680 N   0  0  0  0  0  0  0  0  0  0  0  0
   45.4820   34.5010   40.5460 O   0  0  0  0  0  0  0  0  0  0  0  0
   47.6489   33.3900   42.8312 H   0  0  0  0  0  0  0  0  0  0  0  0
   45.7403   32.7462   41.4160 H   0  0  0  0  0  0  0  0  0  0  0  0
   47.2073   33.3898   39.1693 H   0  0  0  0  0  0  0  0  0  0  0  0
   48.1531   32.6020   40.3978 H   0  0  0  0  0  0  0  0  0  0  0  0
   49.3426   34.6600   40.4233 H   0  0  0  0  0  0  0  0  0  0  0  0
   47.9916   35.5425   39.6658 H   0  0  0  0  0  0  0  0  0  0  0  0
   48.7155   35.5394   42.4382 H   0  0  0  0  0  0  0  0  0  0  0  0
   47.2787   36.2738   41.7688 H   0  0  0  0  0  0  0  0  0  0  0  0
   43.9400   36.8545   44.5732 H   0  0  0  0  0  0  0  0  0  0  0  0
   45.3605   36.3073   42.5772 H   0  0  0  0  0  0  0  0  0  0  0  0
   45.4311   33.4356   46.5770 H   0  0  0  0  0  0  0  0  0  0  0  0
   44.9800   35.0088   41.2317 H   0  0  0  0  0  0  0  0  0  0  0  0
  1  8  1  0
  2  1  1  0
  3  4  1  0
  3  2  1  0
  4  5  1  0
  5  1  1  0
  6 11  2  0
  7  8  2  0
  7  6  1  0
  8  9  1  0
  9 10  2  0
 11 10  1  0
 12  2  1  0
  1 13  1  1
  2 14  1  1
  3 15  1  0
  3 16  1  0
  4 17  1  0
  4 18  1  0
  5 19  1  0
  5 20  1  0
  6 21  1  0
  7 22  1  0
 10 23  1  0
 12 24  1  0
M  ISO  8  13  13  14  13  15  13  16  13  17  13  18  13  19  13  20  13
M  ISO  4  21  14  22  14  23  14  24   3
M  END
>  <minimizedAffinity>  (1) 
-4.62367249

>  <minimizedRMSD>  (1) 
0.481334597

$$$$
