
     RDKit          3D

 25 26  0  0  1  0  0  0  0  0999 V2000
   47.0720   34.1750   42.3750 C   0  0  1  0  0  0  0  0  0  0  0  0
   46.4290   33.6010   41.1800 C   0  0  2  0  0  0  0  0  0  0  0  0
   47.6380   33.5390   40.2360 C   0  0  0  0  0  0  0  0  0  0  0  0
   48.2960   34.8740   40.4800 C   0  0  0  0  0  0  0  0  0  0  0  0
   47.8570   35.3570   41.8350 C   0  0  0  0  0  0  0  0  0  0  0  0
   44.5970   35.9650   44.5810 C   0  0  0  0  0  0  0  0  0  0  0  0
   45.4020   35.6580   43.4730 C   0  0  0  0  0  0  0  0  0  0  0  0
   46.2170   34.5300   43.5030 C   0  0  0  0  0  0  0  0  0  0  0  0
   46.1840   33.7800   44.6240 N   0  0  0  0  0  0  0  0  0  0  0  0
   45.4050   34.0850   45.6810 C   0  0  0  0  0  0  0  0  0  0  0  0
   44.6130   35.1750   45.6610 N   0  0  0  0  0  0  0  0  0  0  0  0
   45.4460   34.4090   40.5430 N   0  0  0  0  0  0  0  0  0  0  0  0
   47.6895   33.4023   42.8562 H   0  0  0  0  0  0  0  0  0  0  0  0
   45.8910   32.6757   41.4338 H   0  0  0  0  0  0  0  0  0  0  0  0
   47.3215   33.4352   39.1877 H   0  0  0  0  0  0  0  0  0  0  0  0
   48.2992   32.6790   40.4184 H   0  0  0  0  0  0  0  0  0  0  0  0
   49.3901   34.7624   40.4580 H   0  0  0  0  0  0  0  0  0  0  0  0
   48.0073   35.5949   39.7009 H   0  0  0  0  0  0  0  0  0  0  0  0
   48.7228   35.5832   42.4747 H   0  0  0  0  0  0  0  0  0  0  0  0
   47.2720   36.2878   41.7972 H   0  0  0  0  0  0  0  0  0  0  0  0
   43.9522   36.8560   44.5616 H   0  0  0  0  0  0  0  0  0  0  0  0
   45.3889   36.3063   42.5844 H   0  0  0  0  0  0  0  0  0  0  0  0
   45.4160   33.4369   46.5697 H   0  0  0  0  0  0  0  0  0  0  0  0
   44.8730   34.8800   41.2577 H   0  0  0  0  0  0  0  0  0  0  0  0
   45.9108   35.1156   39.9551 H   0  0  0  0  0  0  0  0  0  0  0  0
  1  8  1  0
  2  1  1  0
  3  4  1  0
  3  2  1  0
  4  5  1  0
  5  1  1  0
  6 11  2  0
  7  8  2  0
  7  6  1  0
  8  9  1  0
  9 10  2  0
 11 10  1  0
 12  2  1  0
  1 13  1  1
  2 14  1  1
  3 15  1  0
  3 16  1  0
  4 17  1  0
  4 18  1  0
  5 19  1  0
  5 20  1  0
  6 21  1  0
  7 22  1  0
 10 23  1  0
 12 24  1  0
 12 25  1  0
M  ISO  8  13  13  14  13  15  13  16  13  17  13  18  13  19  13  20  13
M  ISO  5  21  14  22  14  23  14  24   5  25   5
M  END
>  <minimizedAffinity>  (1) 
-4.62250328

>  <minimizedRMSD>  (1) 
0.483618617

$$$$
