
     RDKit          3D

 40 43  0  0  1  0  0  0  0  0999 V2000
   44.6180   36.0210   44.3690 C   0  0  0  0  0  0  0  0  0  0  0  0
   45.4100   35.8030   43.2280 C   0  0  0  0  0  0  0  0  0  0  0  0
   46.2860   34.6870   43.2090 C   0  0  0  0  0  0  0  0  0  0  0  0
   46.2870   33.9150   44.3070 N   0  0  0  0  0  0  0  0  0  0  0  0
   45.5280   34.1300   45.3970 C   0  0  0  0  0  0  0  0  0  0  0  0
   44.6910   35.1880   45.4220 N   0  0  0  0  0  0  0  0  0  0  0  0
   47.1450   34.3810   42.0730 C   0  0  1  0  0  0  0  0  0  0  0  0
   46.4950   34.3370   40.7540 C   0  0  1  0  0  0  0  0  0  0  0  0
   47.6940   34.1990   39.8380 C   0  0  0  0  0  0  0  0  0  0  0  0
   48.6600   35.2010   40.4500 C   0  0  0  0  0  0  0  0  0  0  0  0
   48.2280   35.4360   41.8680 C   0  0  0  0  0  0  0  0  0  0  0  0
   45.6680   33.0400   40.7260 C   0  0  0  0  0  0  0  0  0  0  0  0
   46.2160   32.0830   41.5320 F   0  0  0  0  0  0  0  0  0  0  0  0
   45.5920   32.6720   39.3950 F   0  0  0  0  0  0  0  0  0  0  0  0
   44.3840   33.2990   41.1590 F   0  0  0  0  0  0  0  0  0  0  0  0
   45.6020   33.2300   46.5420 C   0  0  0  0  0  0  0  0  0  0  0  0
   44.9520   33.3980   47.7430 C   0  0  0  0  0  0  0  0  0  0  0  0
   45.2760   32.3600   48.5360 N   0  0  0  0  0  0  0  0  0  0  0  0
   46.1100   31.5430   47.8690 C   0  0  0  0  0  0  0  0  0  0  0  0
   46.6880   30.3630   48.3050 C   0  0  0  0  0  0  0  0  0  0  0  0
   47.5180   29.7140   47.4040 C   0  0  0  0  0  0  0  0  0  0  0  0
   47.7800   30.1910   46.1250 C   0  0  0  0  0  0  0  0  0  0  0  0
   47.1720   31.3850   45.7360 C   0  0  0  0  0  0  0  0  0  0  0  0
   46.3410   32.0650   46.5950 C   0  0  0  0  0  0  0  0  0  0  0  0
   43.9325   36.8807   44.4006 H   0  0  0  0  0  0  0  0  0  0  0  0
   45.3516   36.4845   42.3666 H   0  0  0  0  0  0  0  0  0  0  0  0
   47.5127   33.3848   42.3600 H   0  0  0  0  0  0  0  0  0  0  0  0
   45.8428   35.1848   40.4973 H   0  0  0  0  0  0  0  0  0  0  0  0
   47.4407   34.4665   38.8015 H   0  0  0  0  0  0  0  0  0  0  0  0
   48.0919   33.1757   39.7712 H   0  0  0  0  0  0  0  0  0  0  0  0
   49.6827   34.7964   40.4311 H   0  0  0  0  0  0  0  0  0  0  0  0
   48.6529   36.1428   39.8817 H   0  0  0  0  0  0  0  0  0  0  0  0
   49.0643   35.2858   42.5666 H   0  0  0  0  0  0  0  0  0  0  0  0
   47.8756   36.4619   42.0507 H   0  0  0  0  0  0  0  0  0  0  0  0
   44.2859   34.2324   48.0079 H   0  0  0  0  0  0  0  0  0  0  0  0
   44.9394   32.2149   49.4986 H   0  0  0  0  0  0  0  0  0  0  0  0
   46.4989   29.9621   49.3117 H   0  0  0  0  0  0  0  0  0  0  0  0
   47.9938   28.7730   47.7174 H   0  0  0  0  0  0  0  0  0  0  0  0
   48.4458   29.6443   45.4410 H   0  0  0  0  0  0  0  0  0  0  0  0
   47.3597   31.7874   44.7296 H   0  0  0  0  0  0  0  0  0  0  0  0
  1  6  2  0
  2  1  1  0
  3  2  2  0
  3  4  1  0
  4  5  2  0
  5  6  1  0
  5 16  1  0
  7  3  1  0
  8  7  1  0
  9 10  1  0
  9  8  1  0
 10 11  1  0
 11  7  1  0
 12  8  1  0
 12 15  1  0
 12 13  1  0
 14 12  1  0
 16 24  1  0
 16 17  2  0
 17 18  1  0
 19 20  2  0
 19 18  1  0
 21 20  1  0
 22 21  2  0
 23 22  1  0
 23 24  2  0
 24 19  1  0
  1 25  1  0
  2 26  1  0
  7 27  1  1
  8 28  1  6
  9 29  1  0
  9 30  1  0
 10 31  1  0
 10 32  1  0
 11 33  1  0
 11 34  1  0
 17 35  1  0
 18 36  1  0
 20 37  1  0
 21 38  1  0
 22 39  1  0
 23 40  1  0
M  ISO  8  25  14  26  14  27  13  28  13  29  13  30  13  31  13  32  13
M  ISO  8  33  13  34  13  35  14  36   9  37  14  38  14  39  14  40  14
M  END
>  <minimizedAffinity>  (1) 
-6.64478636

>  <minimizedRMSD>  (1) 
0.368139744

$$$$
