
     RDKit          3D

 39 42  0  0  1  0  0  0  0  0999 V2000
   44.7400   36.0960   44.1550 C   0  0  0  0  0  0  0  0  0  0  0  0
   45.6100   35.9280   43.0600 C   0  0  0  0  0  0  0  0  0  0  0  0
   46.4530   34.7880   43.0350 C   0  0  0  0  0  0  0  0  0  0  0  0
   46.3520   33.9500   44.0760 N   0  0  0  0  0  0  0  0  0  0  0  0
   45.5180   34.1170   45.1200 C   0  0  0  0  0  0  0  0  0  0  0  0
   44.7040   35.2050   45.1560 N   0  0  0  0  0  0  0  0  0  0  0  0
   45.4390   33.2040   46.2080 N   0  0  0  0  0  0  0  0  0  0  0  0
   45.0480   33.5770   47.4610 C   0  0  0  0  0  0  0  0  0  0  0  0
   45.0530   32.5290   48.3240 N   0  0  0  0  0  0  0  0  0  0  0  0
   45.4580   31.4610   47.6080 C   0  0  0  0  0  0  0  0  0  0  0  0
   45.6810   30.1210   47.8460 C   0  0  0  0  0  0  0  0  0  0  0  0
   46.0970   29.2730   46.9010 N   0  0  0  0  0  0  0  0  0  0  0  0
   46.3150   29.7260   45.6400 C   0  0  0  0  0  0  0  0  0  0  0  0
   46.1080   31.0420   45.3600 N   0  0  0  0  0  0  0  0  0  0  0  0
   45.6890   31.8870   46.3190 C   0  0  0  0  0  0  0  0  0  0  0  0
   47.3910   34.5260   41.9410 C   0  0  1  0  0  0  0  0  0  0  0  0
   46.8060   34.4030   40.5990 C   0  0  1  0  0  0  0  0  0  0  0  0
   48.0610   34.3330   39.7490 C   0  0  0  0  0  0  0  0  0  0  0  0
   48.9220   35.4210   40.3810 C   0  0  0  0  0  0  0  0  0  0  0  0
   48.3920   35.6630   41.7610 C   0  0  0  0  0  0  0  0  0  0  0  0
   46.0850   33.0430   40.5670 C   0  0  0  0  0  0  0  0  0  0  0  0
   46.7080   32.1280   41.3660 F   0  0  0  0  0  0  0  0  0  0  0  0
   46.0320   32.6730   39.2370 F   0  0  0  0  0  0  0  0  0  0  0  0
   44.7840   33.2010   41.0020 F   0  0  0  0  0  0  0  0  0  0  0  0
   45.4610   29.6150   49.1570 N   0  0  0  0  0  0  0  0  0  0  0  0
   44.0783   36.9740   44.1894 H   0  0  0  0  0  0  0  0  0  0  0  0
   45.6349   36.6642   42.2431 H   0  0  0  0  0  0  0  0  0  0  0  0
   44.7632   34.6027   47.7383 H   0  0  0  0  0  0  0  0  0  0  0  0
   46.6553   29.0370   44.8529 H   0  0  0  0  0  0  0  0  0  0  0  0
   47.8264   33.5692   42.2649 H   0  0  0  0  0  0  0  0  0  0  0  0
   46.1020   35.1896   40.2898 H   0  0  0  0  0  0  0  0  0  0  0  0
   47.8438   34.5556   38.6939 H   0  0  0  0  0  0  0  0  0  0  0  0
   48.5353   33.3406   39.7330 H   0  0  0  0  0  0  0  0  0  0  0  0
   49.9695   35.0894   40.4329 H   0  0  0  0  0  0  0  0  0  0  0  0
   48.8855   36.3432   39.7825 H   0  0  0  0  0  0  0  0  0  0  0  0
   49.1956   35.6061   42.5100 H   0  0  0  0  0  0  0  0  0  0  0  0
   47.9464   36.6606   41.8883 H   0  0  0  0  0  0  0  0  0  0  0  0
   45.6212   28.6175   49.3576 H   0  0  0  0  0  0  0  0  0  0  0  0
   45.1415   30.2461   49.9057 H   0  0  0  0  0  0  0  0  0  0  0  0
  1  6  2  0
  2  1  1  0
  3  2  2  0
  3  4  1  0
  4  5  2  0
  5  6  1  0
  5  7  1  0
  7 15  1  0
  7  8  1  0
  8  9  2  0
 10 11  2  0
 10  9  1  0
 11 25  1  0
 12 11  1  0
 13 12  2  0
 14 13  1  0
 14 15  2  0
 15 10  1  0
 16  3  1  0
 17 16  1  0
 18 19  1  0
 18 17  1  0
 19 20  1  0
 20 16  1  0
 21 17  1  0
 21 24  1  0
 21 22  1  0
 23 21  1  0
  1 26  1  0
  2 27  1  0
  8 28  1  0
 13 29  1  0
 16 30  1  1
 17 31  1  6
 18 32  1  0
 18 33  1  0
 19 34  1  0
 19 35  1  0
 20 36  1  0
 20 37  1  0
 25 38  1  0
 25 39  1  0
M  ISO  8  26  14  27  14  28  14  29  14  30  13  31  13  32  13  33  13
M  ISO  4  34  13  35  13  36  13  37  13
M  END
>  <minimizedAffinity>  (1) 
-6.53650904

>  <minimizedRMSD>  (1) 
0.497653753

$$$$
