
     RDKit          3D

 41 43  0  0  1  0  0  0  0  0999 V2000
   47.2030   34.2710   42.1790 C   0  0  1  0  0  0  0  0  0  0  0  0
   46.4880   34.2980   40.8940 C   0  0  1  0  0  0  0  0  0  0  0  0
   47.6350   34.2760   39.9110 C   0  0  0  0  0  0  0  0  0  0  0  0
   48.6040   35.2630   40.5500 C   0  0  0  0  0  0  0  0  0  0  0  0
   48.2340   35.3810   42.0040 C   0  0  0  0  0  0  0  0  0  0  0  0
   44.6780   35.5980   44.6720 C   0  0  0  0  0  0  0  0  0  0  0  0
   45.4130   35.4900   43.4780 C   0  0  0  0  0  0  0  0  0  0  0  0
   46.3880   34.4660   43.3740 C   0  0  0  0  0  0  0  0  0  0  0  0
   46.5300   33.6680   44.4460 N   0  0  0  0  0  0  0  0  0  0  0  0
   45.8230   33.7790   45.5820 C   0  0  0  0  0  0  0  0  0  0  0  0
   44.8890   34.7480   45.7040 N   0  0  0  0  0  0  0  0  0  0  0  0
   46.0500   32.8820   46.6650 N   0  0  0  0  0  0  0  0  0  0  0  0
   47.2440   32.0580   46.6930 C   0  0  0  0  0  0  0  0  0  0  0  0
   46.9580   30.7370   47.3270 C   0  0  0  0  0  0  0  0  0  0  0  0
   46.4910   30.9540   48.7320 C   0  0  0  0  0  0  0  0  0  0  0  0
   45.8030   32.2680   48.9650 C   0  0  0  0  0  0  0  0  0  0  0  0
   45.0780   32.7960   47.7410 C   0  0  0  0  0  0  0  0  0  0  0  0
   45.7020   32.9720   40.8120 C   0  0  0  0  0  0  0  0  0  0  0  0
   46.3070   31.9970   41.5530 F   0  0  0  0  0  0  0  0  0  0  0  0
   45.6170   32.6770   39.4670 F   0  0  0  0  0  0  0  0  0  0  0  0
   44.4200   33.1600   41.2910 F   0  0  0  0  0  0  0  0  0  0  0  0
   47.6214   33.2721   42.3717 H   0  0  0  0  0  0  0  0  0  0  0  0
   45.7952   35.1373   40.7341 H   0  0  0  0  0  0  0  0  0  0  0  0
   47.3161   34.6146   38.9142 H   0  0  0  0  0  0  0  0  0  0  0  0
   48.0609   33.2760   39.7421 H   0  0  0  0  0  0  0  0  0  0  0  0
   49.6354   34.8930   40.4535 H   0  0  0  0  0  0  0  0  0  0  0  0
   48.5436   36.2427   40.0535 H   0  0  0  0  0  0  0  0  0  0  0  0
   49.1085   35.2156   42.6505 H   0  0  0  0  0  0  0  0  0  0  0  0
   47.8545   36.3763   42.2783 H   0  0  0  0  0  0  0  0  0  0  0  0
   43.9180   36.3873   44.7690 H   0  0  0  0  0  0  0  0  0  0  0  0
   45.2355   36.1844   42.6435 H   0  0  0  0  0  0  0  0  0  0  0  0
   47.5953   31.8960   45.6633 H   0  0  0  0  0  0  0  0  0  0  0  0
   48.0162   32.5738   47.2826 H   0  0  0  0  0  0  0  0  0  0  0  0
   46.1750   30.2169   46.7556 H   0  0  0  0  0  0  0  0  0  0  0  0
   47.8721   30.1252   47.3327 H   0  0  0  0  0  0  0  0  0  0  0  0
   45.7876   30.1480   48.9883 H   0  0  0  0  0  0  0  0  0  0  0  0
   47.3917   30.9569   49.3634 H   0  0  0  0  0  0  0  0  0  0  0  0
   45.0702   32.1387   49.7751 H   0  0  0  0  0  0  0  0  0  0  0  0
   46.5824   33.0008   49.2211 H   0  0  0  0  0  0  0  0  0  0  0  0
   44.6607   33.7918   47.9514 H   0  0  0  0  0  0  0  0  0  0  0  0
   44.2482   32.1295   47.4630 H   0  0  0  0  0  0  0  0  0  0  0  0
  1  8  1  0
  2  1  1  0
  3  4  1  0
  3  2  1  0
  4  5  1  0
  5  1  1  0
  6 11  2  0
  7  6  1  0
  8  7  2  0
  8  9  1  0
  9 10  2  0
 10 11  1  0
 10 12  1  0
 12 13  1  0
 12 17  1  0
 13 14  1  0
 14 15  1  0
 15 16  1  0
 17 16  1  0
 18  2  1  0
 18 21  1  0
 18 19  1  0
 20 18  1  0
  1 22  1  1
  2 23  1  1
  3 24  1  0
  3 25  1  0
  4 26  1  0
  4 27  1  0
  5 28  1  0
  5 29  1  0
  6 30  1  0
  7 31  1  0
 13 32  1  0
 13 33  1  0
 14 34  1  0
 14 35  1  0
 15 36  1  0
 15 37  1  0
 16 38  1  0
 16 39  1  0
 17 40  1  0
 17 41  1  0
M  ISO  8  22  13  23  13  24  13  25  13  26  13  27  13  28  13  29  13
M  ISO  8  30  14  31  14  32  13  33  13  34  13  35  13  36  13  37  13
M  ISO  4  38  13  39  13  40  13  41  13
M  END
>  <minimizedAffinity>  (1) 
-6.4705739

>  <minimizedRMSD>  (1) 
0.475903779

$$$$
