
     RDKit          3D

 36 38  0  0  1  0  0  0  0  0999 V2000
   47.1120   34.2510   42.2570 C   0  0  1  0  0  0  0  0  0  0  0  0
   46.3940   34.3150   40.9760 C   0  0  1  0  0  0  0  0  0  0  0  0
   47.5460   34.2660   39.9910 C   0  0  0  0  0  0  0  0  0  0  0  0
   48.5450   35.2190   40.6370 C   0  0  0  0  0  0  0  0  0  0  0  0
   48.1830   35.3200   42.0890 C   0  0  0  0  0  0  0  0  0  0  0  0
   44.6100   35.6060   44.7620 C   0  0  0  0  0  0  0  0  0  0  0  0
   45.3360   35.4780   43.5630 C   0  0  0  0  0  0  0  0  0  0  0  0
   46.3140   34.4560   43.4580 C   0  0  0  0  0  0  0  0  0  0  0  0
   46.4710   33.6760   44.5400 N   0  0  0  0  0  0  0  0  0  0  0  0
   45.7750   33.8040   45.6810 C   0  0  0  0  0  0  0  0  0  0  0  0
   44.8420   34.7730   45.7910 N   0  0  0  0  0  0  0  0  0  0  0  0
   46.0190   32.9050   46.8030 C   0  0  0  0  0  0  0  0  0  0  0  0
   47.1850   32.1700   46.8500 C   0  0  0  0  0  0  0  0  0  0  0  0
   47.4760   31.3080   47.8750 C   0  0  0  0  0  0  0  0  0  0  0  0
   46.5520   31.1710   48.9140 C   0  0  0  0  0  0  0  0  0  0  0  0
   45.3900   31.9200   48.8400 C   0  0  0  0  0  0  0  0  0  0  0  0
   45.0880   32.7890   47.8150 C   0  0  0  0  0  0  0  0  0  0  0  0
   45.5730   33.0240   40.8780 C   0  0  0  0  0  0  0  0  0  0  0  0
   46.1220   32.0200   41.6240 F   0  0  0  0  0  0  0  0  0  0  0  0
   45.4860   32.7290   39.5340 F   0  0  0  0  0  0  0  0  0  0  0  0
   44.2930   33.2570   41.3390 F   0  0  0  0  0  0  0  0  0  0  0  0
   47.4935   33.2351   42.4372 H   0  0  0  0  0  0  0  0  0  0  0  0
   45.7256   35.1760   40.8278 H   0  0  0  0  0  0  0  0  0  0  0  0
   47.2386   34.6210   38.9963 H   0  0  0  0  0  0  0  0  0  0  0  0
   47.9419   33.2547   39.8166 H   0  0  0  0  0  0  0  0  0  0  0  0
   49.5663   34.8248   40.5293 H   0  0  0  0  0  0  0  0  0  0  0  0
   48.5108   36.2074   40.1554 H   0  0  0  0  0  0  0  0  0  0  0  0
   49.0534   35.1098   42.7279 H   0  0  0  0  0  0  0  0  0  0  0  0
   47.8389   36.3239   42.3785 H   0  0  0  0  0  0  0  0  0  0  0  0
   43.8476   36.3931   44.8576 H   0  0  0  0  0  0  0  0  0  0  0  0
   45.1479   36.1598   42.7206 H   0  0  0  0  0  0  0  0  0  0  0  0
   47.9113   32.2801   46.0312 H   0  0  0  0  0  0  0  0  0  0  0  0
   48.4160   30.7368   47.8796 H   0  0  0  0  0  0  0  0  0  0  0  0
   46.7408   30.4931   49.7595 H   0  0  0  0  0  0  0  0  0  0  0  0
   44.6586   31.8139   49.6548 H   0  0  0  0  0  0  0  0  0  0  0  0
   44.1497   33.3630   47.8036 H   0  0  0  0  0  0  0  0  0  0  0  0
  1  8  1  0
  2  1  1  0
  3  4  1  0
  3  2  1  0
  4  5  1  0
  5  1  1  0
  6 11  2  0
  7  6  1  0
  8  7  2  0
  8  9  1  0
  9 10  2  0
 10 11  1  0
 10 12  1  0
 12 13  2  0
 12 17  1  0
 13 14  1  0
 14 15  2  0
 16 15  1  0
 17 16  2  0
 18  2  1  0
 18 21  1  0
 18 19  1  0
 20 18  1  0
  1 22  1  1
  2 23  1  1
  3 24  1  0
  3 25  1  0
  4 26  1  0
  4 27  1  0
  5 28  1  0
  5 29  1  0
  6 30  1  0
  7 31  1  0
 13 32  1  0
 14 33  1  0
 15 34  1  0
 16 35  1  0
 17 36  1  0
M  ISO  8  22  13  23  13  24  13  25  13  26  13  27  13  28  13  29  13
M  ISO  7  30  14  31  14  32  14  33  14  34  14  35  14  36  14
M  END
>  <minimizedAffinity>  (1) 
-6.46935654

>  <minimizedRMSD>  (1) 
0.470132798

$$$$
