
     RDKit          3D

 35 37  0  0  1  0  0  0  0  0999 V2000
   47.2290   34.2810   42.2070 C   0  0  1  0  0  0  0  0  0  0  0  0
   46.5180   34.3070   40.9190 C   0  0  1  0  0  0  0  0  0  0  0  0
   47.6930   34.2950   39.9530 C   0  0  0  0  0  0  0  0  0  0  0  0
   48.6300   35.2990   40.6020 C   0  0  0  0  0  0  0  0  0  0  0  0
   48.2530   35.3950   42.0440 C   0  0  0  0  0  0  0  0  0  0  0  0
   44.6540   35.5650   44.6780 C   0  0  0  0  0  0  0  0  0  0  0  0
   45.3980   35.4630   43.4900 C   0  0  0  0  0  0  0  0  0  0  0  0
   46.4020   34.4650   43.3990 C   0  0  0  0  0  0  0  0  0  0  0  0
   46.5620   33.6820   44.4790 N   0  0  0  0  0  0  0  0  0  0  0  0
   45.8460   33.7880   45.6120 C   0  0  0  0  0  0  0  0  0  0  0  0
   44.8860   34.7320   45.7170 N   0  0  0  0  0  0  0  0  0  0  0  0
   46.1020   32.8850   46.7280 C   0  0  0  0  0  0  0  0  0  0  0  0
   45.1780   32.7620   47.7380 C   0  0  0  0  0  0  0  0  0  0  0  0
   45.4450   31.9060   48.7750 C   0  0  0  0  0  0  0  0  0  0  0  0
   46.6210   31.1530   48.8460 C   0  0  0  0  0  0  0  0  0  0  0  0
   47.5270   31.3150   47.7920 C   0  0  0  0  0  0  0  0  0  0  0  0
   47.2200   32.1660   46.7980 N   0  0  0  0  0  0  0  0  0  0  0  0
   45.7530   32.9800   40.8240 C   0  0  0  0  0  0  0  0  0  0  0  0
   46.3350   32.0090   41.5790 F   0  0  0  0  0  0  0  0  0  0  0  0
   45.6850   32.6890   39.4740 F   0  0  0  0  0  0  0  0  0  0  0  0
   44.4570   33.1710   41.2650 F   0  0  0  0  0  0  0  0  0  0  0  0
   47.6564   33.2855   42.3973 H   0  0  0  0  0  0  0  0  0  0  0  0
   45.8135   35.1353   40.7530 H   0  0  0  0  0  0  0  0  0  0  0  0
   47.3894   34.6208   38.9472 H   0  0  0  0  0  0  0  0  0  0  0  0
   48.1377   33.3005   39.8006 H   0  0  0  0  0  0  0  0  0  0  0  0
   49.6712   34.9570   40.5076 H   0  0  0  0  0  0  0  0  0  0  0  0
   48.5464   36.2806   40.1127 H   0  0  0  0  0  0  0  0  0  0  0  0
   49.1256   35.2274   42.6924 H   0  0  0  0  0  0  0  0  0  0  0  0
   47.8639   36.3849   42.3246 H   0  0  0  0  0  0  0  0  0  0  0  0
   43.8718   36.3336   44.7635 H   0  0  0  0  0  0  0  0  0  0  0  0
   45.2056   36.1435   42.6475 H   0  0  0  0  0  0  0  0  0  0  0  0
   44.2420   33.3394   47.7147 H   0  0  0  0  0  0  0  0  0  0  0  0
   44.7050   31.8077   49.5829 H   0  0  0  0  0  0  0  0  0  0  0  0
   46.8229   30.4705   49.6847 H   0  0  0  0  0  0  0  0  0  0  0  0
   48.4740   30.7556   47.7772 H   0  0  0  0  0  0  0  0  0  0  0  0
  1  8  1  0
  2  1  1  0
  3  4  1  0
  3  2  1  0
  4  5  1  0
  5  1  1  0
  6 11  2  0
  7  6  1  0
  8  7  2  0
  8  9  1  0
  9 10  2  0
 10 11  1  0
 10 12  1  0
 12 17  1  0
 12 13  2  0
 13 14  1  0
 14 15  2  0
 16 15  1  0
 17 16  2  0
 18  2  1  0
 18 21  1  0
 18 19  1  0
 20 18  1  0
  1 22  1  1
  2 23  1  1
  3 24  1  0
  3 25  1  0
  4 26  1  0
  4 27  1  0
  5 28  1  0
  5 29  1  0
  6 30  1  0
  7 31  1  0
 13 32  1  0
 14 33  1  0
 15 34  1  0
 16 35  1  0
M  ISO  8  22  13  23  13  24  13  25  13  26  13  27  13  28  13  29  13
M  ISO  6  30  14  31  14  32  14  33  14  34  14  35  14
M  END
>  <minimizedAffinity>  (1) 
-6.35099649

>  <minimizedRMSD>  (1) 
0.506782949

$$$$
