
     RDKit          3D

 40 42  0  0  1  0  0  0  0  0999 V2000
   47.1430   34.2640   42.1900 C   0  0  1  0  0  0  0  0  0  0  0  0
   46.4290   34.3070   40.9050 C   0  0  1  0  0  0  0  0  0  0  0  0
   47.5790   34.2610   39.9210 C   0  0  0  0  0  0  0  0  0  0  0  0
   48.5710   35.2270   40.5610 C   0  0  0  0  0  0  0  0  0  0  0  0
   48.2120   35.3340   42.0110 C   0  0  0  0  0  0  0  0  0  0  0  0
   44.6450   35.6370   44.6810 C   0  0  0  0  0  0  0  0  0  0  0  0
   45.3760   35.5070   43.4840 C   0  0  0  0  0  0  0  0  0  0  0  0
   46.3420   34.4730   43.3860 C   0  0  0  0  0  0  0  0  0  0  0  0
   46.4820   33.6870   44.4650 N   0  0  0  0  0  0  0  0  0  0  0  0
   45.7830   33.8150   45.6030 C   0  0  0  0  0  0  0  0  0  0  0  0
   44.8580   34.7940   45.7180 N   0  0  0  0  0  0  0  0  0  0  0  0
   46.0000   32.9330   46.6980 N   0  0  0  0  0  0  0  0  0  0  0  0
   45.0470   32.8570   47.7840 C   0  0  0  0  0  0  0  0  0  0  0  0
   45.8030   32.1850   48.9370 C   0  0  0  0  0  0  0  0  0  0  0  0
   46.2350   30.8590   48.5700 N   0  0  0  0  0  0  0  0  0  0  0  0
   46.7260   30.7420   47.2240 C   0  0  0  0  0  0  0  0  0  0  0  0
   47.1850   32.0980   46.7340 C   0  0  0  0  0  0  0  0  0  0  0  0
   45.6160   33.0040   40.8200 C   0  0  0  0  0  0  0  0  0  0  0  0
   46.1830   32.0160   41.5640 F   0  0  0  0  0  0  0  0  0  0  0  0
   45.5250   32.6940   39.4800 F   0  0  0  0  0  0  0  0  0  0  0  0
   44.3360   33.2390   41.2870 F   0  0  0  0  0  0  0  0  0  0  0  0
   47.5292   33.2527   42.3853 H   0  0  0  0  0  0  0  0  0  0  0  0
   45.7542   35.1611   40.7461 H   0  0  0  0  0  0  0  0  0  0  0  0
   47.2682   34.6071   38.9242 H   0  0  0  0  0  0  0  0  0  0  0  0
   47.9831   33.2519   39.7526 H   0  0  0  0  0  0  0  0  0  0  0  0
   49.5955   34.8411   40.4538 H   0  0  0  0  0  0  0  0  0  0  0  0
   48.5264   36.2123   40.0739 H   0  0  0  0  0  0  0  0  0  0  0  0
   49.0846   35.1291   42.6487 H   0  0  0  0  0  0  0  0  0  0  0  0
   47.8655   36.3388   42.2946 H   0  0  0  0  0  0  0  0  0  0  0  0
   43.8919   36.4334   44.7740 H   0  0  0  0  0  0  0  0  0  0  0  0
   45.2013   36.1934   42.6424 H   0  0  0  0  0  0  0  0  0  0  0  0
   44.7141   33.8639   48.0761 H   0  0  0  0  0  0  0  0  0  0  0  0
   44.1453   32.2943   47.5007 H   0  0  0  0  0  0  0  0  0  0  0  0
   46.6840   32.7925   49.1916 H   0  0  0  0  0  0  0  0  0  0  0  0
   45.1260   32.1060   49.8003 H   0  0  0  0  0  0  0  0  0  0  0  0
   46.9888   30.5770   49.2128 H   0  0  0  0  0  0  0  0  0  0  0  0
   47.5717   30.0389   47.2022 H   0  0  0  0  0  0  0  0  0  0  0  0
   45.9221   30.3697   46.5719 H   0  0  0  0  0  0  0  0  0  0  0  0
   47.6230   32.0127   45.7286 H   0  0  0  0  0  0  0  0  0  0  0  0
   47.9574   32.5234   47.3916 H   0  0  0  0  0  0  0  0  0  0  0  0
  1  8  1  0
  2  1  1  0
  3  4  1  0
  3  2  1  0
  4  5  1  0
  5  1  1  0
  6 11  2  0
  7  6  1  0
  8  7  2  0
  8  9  1  0
  9 10  2  0
 10 11  1  0
 10 12  1  0
 12 17  1  0
 12 13  1  0
 13 14  1  0
 15 14  1  0
 16 15  1  0
 17 16  1  0
 18  2  1  0
 18 21  1  0
 18 19  1  0
 20 18  1  0
  1 22  1  1
  2 23  1  1
  3 24  1  0
  3 25  1  0
  4 26  1  0
  4 27  1  0
  5 28  1  0
  5 29  1  0
  6 30  1  0
  7 31  1  0
 13 32  1  0
 13 33  1  0
 14 34  1  0
 14 35  1  0
 15 36  1  0
 16 37  1  0
 16 38  1  0
 17 39  1  0
 17 40  1  0
M  ISO  8  22  13  23  13  24  13  25  13  26  13  27  13  28  13  29  13
M  ISO  8  30  14  31  14  32  13  33  13  34  13  35  13  36   5  37  13
M  ISO  3  38  13  39  13  40  13
M  END
>  <minimizedAffinity>  (1) 
-6.35056591

>  <minimizedRMSD>  (1) 
0.435149044

$$$$
