
     RDKit          3D

 39 41  0  0  1  0  0  0  0  0999 V2000
   47.4300   34.3810   42.2310 C   0  0  1  0  0  0  0  0  0  0  0  0
   46.7850   34.4010   40.9130 C   0  0  1  0  0  0  0  0  0  0  0  0
   47.9840   34.4880   39.9980 C   0  0  0  0  0  0  0  0  0  0  0  0
   48.8540   35.5090   40.7170 C   0  0  0  0  0  0  0  0  0  0  0  0
   48.4040   35.5440   42.1500 C   0  0  0  0  0  0  0  0  0  0  0  0
   44.7530   35.5310   44.6590 C   0  0  0  0  0  0  0  0  0  0  0  0
   45.5660   35.5060   43.5130 C   0  0  0  0  0  0  0  0  0  0  0  0
   46.5420   34.4850   43.3860 C   0  0  0  0  0  0  0  0  0  0  0  0
   46.6080   33.6060   44.3970 N   0  0  0  0  0  0  0  0  0  0  0  0
   45.8290   33.6330   45.4910 C   0  0  0  0  0  0  0  0  0  0  0  0
   44.8950   34.5990   45.6270 N   0  0  0  0  0  0  0  0  0  0  0  0
   45.9820   32.6490   46.5080 N   0  0  0  0  0  0  0  0  0  0  0  0
   46.9830   31.6090   46.3690 C   0  0  0  0  0  0  0  0  0  0  0  0
   47.6470   31.5140   47.7480 C   0  0  0  0  0  0  0  0  0  0  0  0
   46.6650   31.2550   48.7160 O   0  0  0  0  0  0  0  0  0  0  0  0
   45.9650   32.4210   48.9180 C   0  0  0  0  0  0  0  0  0  0  0  0
   45.1300   32.6960   47.6830 C   0  0  0  0  0  0  0  0  0  0  0  0
   46.0960   33.0300   40.7500 C   0  0  0  0  0  0  0  0  0  0  0  0
   46.7730   32.0590   41.4250 F   0  0  0  0  0  0  0  0  0  0  0  0
   46.0150   32.8090   39.3870 F   0  0  0  0  0  0  0  0  0  0  0  0
   44.8040   33.0980   41.2360 F   0  0  0  0  0  0  0  0  0  0  0  0
   47.8975   33.4026   42.4159 H   0  0  0  0  0  0  0  0  0  0  0  0
   46.0449   35.1956   40.7372 H   0  0  0  0  0  0  0  0  0  0  0  0
   47.6980   34.8408   38.9961 H   0  0  0  0  0  0  0  0  0  0  0  0
   48.4822   33.5226   39.8251 H   0  0  0  0  0  0  0  0  0  0  0  0
   49.9110   35.2098   40.6609 H   0  0  0  0  0  0  0  0  0  0  0  0
   48.7571   36.5014   40.2525 H   0  0  0  0  0  0  0  0  0  0  0  0
   49.2525   35.3974   42.8345 H   0  0  0  0  0  0  0  0  0  0  0  0
   47.9558   36.5057   42.4402 H   0  0  0  0  0  0  0  0  0  0  0  0
   43.9925   36.3181   44.7692 H   0  0  0  0  0  0  0  0  0  0  0  0
   45.4472   36.2663   42.7270 H   0  0  0  0  0  0  0  0  0  0  0  0
   46.5121   30.6521   46.0994 H   0  0  0  0  0  0  0  0  0  0  0  0
   47.7090   31.8364   45.5745 H   0  0  0  0  0  0  0  0  0  0  0  0
   48.3852   30.6985   47.7455 H   0  0  0  0  0  0  0  0  0  0  0  0
   48.1538   32.4623   47.9802 H   0  0  0  0  0  0  0  0  0  0  0  0
   45.3087   32.3136   49.7942 H   0  0  0  0  0  0  0  0  0  0  0  0
   46.6606   33.2539   49.0979 H   0  0  0  0  0  0  0  0  0  0  0  0
   44.6706   33.6922   47.7643 H   0  0  0  0  0  0  0  0  0  0  0  0
   44.3394   31.9362   47.5958 H   0  0  0  0  0  0  0  0  0  0  0  0
  1  8  1  0
  2  1  1  0
  3  4  1  0
  3  2  1  0
  4  5  1  0
  5  1  1  0
  6 11  2  0
  7  6  1  0
  8  7  2  0
  8  9  1  0
  9 10  2  0
 10 11  1  0
 10 12  1  0
 12 17  1  0
 13 12  1  0
 13 14  1  0
 14 15  1  0
 15 16  1  0
 17 16  1  0
 18  2  1  0
 18 21  1  0
 18 19  1  0
 20 18  1  0
  1 22  1  1
  2 23  1  1
  3 24  1  0
  3 25  1  0
  4 26  1  0
  4 27  1  0
  5 28  1  0
  5 29  1  0
  6 30  1  0
  7 31  1  0
 13 32  1  0
 13 33  1  0
 14 34  1  0
 14 35  1  0
 16 36  1  0
 16 37  1  0
 17 38  1  0
 17 39  1  0
M  ISO  8  22  13  23  13  24  13  25  13  26  13  27  13  28  13  29  13
M  ISO  8  30  14  31  14  32  13  33  13  34  13  35  13  36  13  37  13
M  ISO  2  38  13  39  13
M  END
>  <minimizedAffinity>  (1) 
-6.24330807

>  <minimizedRMSD>  (1) 
0.606238186

$$$$
