
     RDKit          3D

 34 36  0  0  1  0  0  0  0  0999 V2000
   47.1170   34.2900   42.2020 C   0  0  1  0  0  0  0  0  0  0  0  0
   46.4050   34.3150   40.9150 C   0  0  1  0  0  0  0  0  0  0  0  0
   47.5660   34.2620   39.9380 C   0  0  0  0  0  0  0  0  0  0  0  0
   48.5630   35.2160   40.5820 C   0  0  0  0  0  0  0  0  0  0  0  0
   48.1670   35.3780   42.0160 C   0  0  0  0  0  0  0  0  0  0  0  0
   44.5920   35.6780   44.6690 C   0  0  0  0  0  0  0  0  0  0  0  0
   45.3280   35.5390   43.4770 C   0  0  0  0  0  0  0  0  0  0  0  0
   46.3020   34.5130   43.3940 C   0  0  0  0  0  0  0  0  0  0  0  0
   46.4450   33.7400   44.4840 N   0  0  0  0  0  0  0  0  0  0  0  0
   45.7420   33.8740   45.6220 C   0  0  0  0  0  0  0  0  0  0  0  0
   44.8100   34.8480   45.7150 N   0  0  0  0  0  0  0  0  0  0  0  0
   46.0090   32.9570   46.7250 C   0  0  0  0  0  0  0  0  0  0  0  0
   45.1360   32.8350   47.7840 C   0  0  0  0  0  0  0  0  0  0  0  0
   45.4960   31.9370   48.7670 C   0  0  0  0  0  0  0  0  0  0  0  0
   46.6330   31.2200   48.6950 N   0  0  0  0  0  0  0  0  0  0  0  0
   47.4810   31.3590   47.6350 C   0  0  0  0  0  0  0  0  0  0  0  0
   47.1410   32.2320   46.6720 N   0  0  0  0  0  0  0  0  0  0  0  0
   45.6020   33.0090   40.8450 C   0  0  0  0  0  0  0  0  0  0  0  0
   46.1690   32.0280   41.5970 F   0  0  0  0  0  0  0  0  0  0  0  0
   45.5050   32.6980   39.4980 F   0  0  0  0  0  0  0  0  0  0  0  0
   44.3160   33.2350   41.3010 F   0  0  0  0  0  0  0  0  0  0  0  0
   47.5174   33.2863   42.4077 H   0  0  0  0  0  0  0  0  0  0  0  0
   45.7247   35.1617   40.7408 H   0  0  0  0  0  0  0  0  0  0  0  0
   47.2649   34.6121   38.9396 H   0  0  0  0  0  0  0  0  0  0  0  0
   47.9626   33.2492   39.7739 H   0  0  0  0  0  0  0  0  0  0  0  0
   49.5785   34.7981   40.5175 H   0  0  0  0  0  0  0  0  0  0  0  0
   48.5589   36.1876   40.0663 H   0  0  0  0  0  0  0  0  0  0  0  0
   49.0258   35.2181   42.6845 H   0  0  0  0  0  0  0  0  0  0  0  0
   47.7961   36.3859   42.2539 H   0  0  0  0  0  0  0  0  0  0  0  0
   43.8322   36.4692   44.7508 H   0  0  0  0  0  0  0  0  0  0  0  0
   45.1505   36.2137   42.6265 H   0  0  0  0  0  0  0  0  0  0  0  0
   44.2061   33.4197   47.8421 H   0  0  0  0  0  0  0  0  0  0  0  0
   44.8344   31.8027   49.6355 H   0  0  0  0  0  0  0  0  0  0  0  0
   48.4116   30.7760   47.5711 H   0  0  0  0  0  0  0  0  0  0  0  0
  1  8  1  0
  2  1  1  0
  3  4  1  0
  3  2  1  0
  4  5  1  0
  5  1  1  0
  6 11  2  0
  7  6  1  0
  8  7  2  0
  8  9  1  0
  9 10  2  0
 10 11  1  0
 10 12  1  0
 12 13  2  0
 13 14  1  0
 15 14  2  0
 16 15  1  0
 17 12  1  0
 17 16  2  0
 18  2  1  0
 18 21  1  0
 18 19  1  0
 20 18  1  0
  1 22  1  1
  2 23  1  6
  3 24  1  0
  3 25  1  0
  4 26  1  0
  4 27  1  0
  5 28  1  0
  5 29  1  0
  6 30  1  0
  7 31  1  0
 13 32  1  0
 14 33  1  0
 16 34  1  0
M  ISO  8  22  13  23  13  24  13  25  13  26  13  27  13  28  13  29  13
M  ISO  5  30  14  31  14  32  14  33  14  34  14
M  END
>  <minimizedAffinity>  (1) 
-6.22923565

>  <minimizedRMSD>  (1) 
0.383612543

$$$$
