
     RDKit          3D

 42 44  0  0  1  0  0  0  0  0999 V2000
   47.2660   34.2270   42.2220 C   0  0  1  0  0  0  0  0  0  0  0  0
   46.5600   34.3190   40.9350 C   0  0  1  0  0  0  0  0  0  0  0  0
   47.7340   34.3590   39.9720 C   0  0  0  0  0  0  0  0  0  0  0  0
   48.6710   35.3260   40.6690 C   0  0  0  0  0  0  0  0  0  0  0  0
   48.2890   35.3530   42.1160 C   0  0  0  0  0  0  0  0  0  0  0  0
   44.8000   35.4630   44.8260 C   0  0  0  0  0  0  0  0  0  0  0  0
   45.5540   35.4370   43.6370 C   0  0  0  0  0  0  0  0  0  0  0  0
   46.4370   34.3480   43.4230 C   0  0  0  0  0  0  0  0  0  0  0  0
   46.4800   33.4190   44.3890 N   0  0  0  0  0  0  0  0  0  0  0  0
   45.7590   33.4500   45.5220 C   0  0  0  0  0  0  0  0  0  0  0  0
   44.9120   34.4800   45.7420 N   0  0  0  0  0  0  0  0  0  0  0  0
   45.8720   32.3760   46.5370 C   0  0  0  0  0  0  0  0  0  0  0  0
   45.1930   32.8350   47.8100 C   0  0  0  0  0  0  0  0  0  0  0  0
   45.3930   31.8360   48.9240 C   0  0  0  0  0  0  0  0  0  0  0  0
   46.7920   31.3340   49.0560 C   0  0  0  0  0  0  0  0  0  0  0  0
   47.7180   32.1920   48.2170 C   0  0  0  0  0  0  0  0  0  0  0  0
   47.2950   31.9860   46.7570 C   0  0  0  0  0  0  0  0  0  0  0  0
   45.7920   32.9990   40.7710 C   0  0  0  0  0  0  0  0  0  0  0  0
   46.4200   31.9730   41.4040 F   0  0  0  0  0  0  0  0  0  0  0  0
   45.6570   32.8100   39.4100 F   0  0  0  0  0  0  0  0  0  0  0  0
   44.5220   33.1450   41.3040 F   0  0  0  0  0  0  0  0  0  0  0  0
   47.6925   33.2230   42.3633 H   0  0  0  0  0  0  0  0  0  0  0  0
   45.8568   35.1555   40.8096 H   0  0  0  0  0  0  0  0  0  0  0  0
   47.4299   34.7367   38.9846 H   0  0  0  0  0  0  0  0  0  0  0  0
   48.1791   33.3736   39.7696 H   0  0  0  0  0  0  0  0  0  0  0  0
   49.7114   34.9857   40.5609 H   0  0  0  0  0  0  0  0  0  0  0  0
   48.5925   36.3303   40.2272 H   0  0  0  0  0  0  0  0  0  0  0  0
   49.1601   35.1574   42.7586 H   0  0  0  0  0  0  0  0  0  0  0  0
   47.8965   36.3273   42.4425 H   0  0  0  0  0  0  0  0  0  0  0  0
   44.1087   36.2985   45.0104 H   0  0  0  0  0  0  0  0  0  0  0  0
   45.4604   36.2414   42.8926 H   0  0  0  0  0  0  0  0  0  0  0  0
   45.3640   31.4688   46.1779 H   0  0  0  0  0  0  0  0  0  0  0  0
   45.6179   33.8027   48.1149 H   0  0  0  0  0  0  0  0  0  0  0  0
   44.1145   32.9300   47.6157 H   0  0  0  0  0  0  0  0  0  0  0  0
   45.1085   32.3159   49.8720 H   0  0  0  0  0  0  0  0  0  0  0  0
   44.7676   30.9643   48.6809 H   0  0  0  0  0  0  0  0  0  0  0  0
   47.1013   31.3835   50.1104 H   0  0  0  0  0  0  0  0  0  0  0  0
   46.8420   30.2918   48.7077 H   0  0  0  0  0  0  0  0  0  0  0  0
   47.6140   33.2506   48.4975 H   0  0  0  0  0  0  0  0  0  0  0  0
   48.7703   31.9110   48.3707 H   0  0  0  0  0  0  0  0  0  0  0  0
   47.4186   30.9246   46.4959 H   0  0  0  0  0  0  0  0  0  0  0  0
   47.9283   32.6232   46.1223 H   0  0  0  0  0  0  0  0  0  0  0  0
  1  8  1  0
  2  1  1  0
  3  4  1  0
  3  2  1  0
  4  5  1  0
  5  1  1  0
  6 11  2  0
  7  6  1  0
  8  7  2  0
  8  9  1  0
  9 10  2  0
 10 11  1  0
 10 12  1  0
 12 17  1  0
 12 13  1  0
 13 14  1  0
 14 15  1  0
 16 15  1  0
 17 16  1  0
 18  2  1  0
 18 21  1  0
 18 19  1  0
 20 18  1  0
  1 22  1  1
  2 23  1  1
  3 24  1  0
  3 25  1  0
  4 26  1  0
  4 27  1  0
  5 28  1  0
  5 29  1  0
  6 30  1  0
  7 31  1  0
 12 32  1  0
 13 33  1  0
 13 34  1  0
 14 35  1  0
 14 36  1  0
 15 37  1  0
 15 38  1  0
 16 39  1  0
 16 40  1  0
 17 41  1  0
 17 42  1  0
M  ISO  8  22  13  23  13  24  13  25  13  26  13  27  13  28  13  29  13
M  ISO  8  30  14  31  14  32  13  33  13  34  13  35  13  36  13  37  13
M  ISO  5  38  13  39  13  40  13  41  13  42  13
M  END
>  <minimizedAffinity>  (1) 
-6.1917901

>  <minimizedRMSD>  (1) 
0.621879697

$$$$
