
     RDKit          3D

 33 35  0  0  1  0  0  0  0  0999 V2000
   47.0550   34.2950   42.2070 C   0  0  1  0  0  0  0  0  0  0  0  0
   46.3570   34.3010   40.9160 C   0  0  1  0  0  0  0  0  0  0  0  0
   47.5280   34.1880   39.9580 C   0  0  0  0  0  0  0  0  0  0  0  0
   48.5130   35.1780   40.5740 C   0  0  0  0  0  0  0  0  0  0  0  0
   48.1370   35.3480   42.0070 C   0  0  0  0  0  0  0  0  0  0  0  0
   44.5390   35.7880   44.6170 C   0  0  0  0  0  0  0  0  0  0  0  0
   45.2790   35.6040   43.4350 C   0  0  0  0  0  0  0  0  0  0  0  0
   46.2380   34.5610   43.3880 C   0  0  0  0  0  0  0  0  0  0  0  0
   46.3590   33.8260   44.5010 N   0  0  0  0  0  0  0  0  0  0  0  0
   45.6500   34.0040   45.6290 C   0  0  0  0  0  0  0  0  0  0  0  0
   44.7320   34.9930   45.6890 N   0  0  0  0  0  0  0  0  0  0  0  0
   45.8750   33.1340   46.7750 C   0  0  0  0  0  0  0  0  0  0  0  0
   47.0150   32.4250   47.0950 C   0  0  0  0  0  0  0  0  0  0  0  0
   46.8260   31.7180   48.2640 C   0  0  0  0  0  0  0  0  0  0  0  0
   45.5280   32.0510   48.6050 C   0  0  0  0  0  0  0  0  0  0  0  0
   44.9920   32.8770   47.7230 O   0  0  0  0  0  0  0  0  0  0  0  0
   45.5230   33.0090   40.8700 C   0  0  0  0  0  0  0  0  0  0  0  0
   46.0790   32.0340   41.6420 F   0  0  0  0  0  0  0  0  0  0  0  0
   45.4190   32.6780   39.5340 F   0  0  0  0  0  0  0  0  0  0  0  0
   44.2460   33.2650   41.3320 F   0  0  0  0  0  0  0  0  0  0  0  0
   47.4279   33.2866   42.4395 H   0  0  0  0  0  0  0  0  0  0  0  0
   45.6986   35.1583   40.7122 H   0  0  0  0  0  0  0  0  0  0  0  0
   47.2438   34.4845   38.9375 H   0  0  0  0  0  0  0  0  0  0  0  0
   47.9237   33.1676   39.8477 H   0  0  0  0  0  0  0  0  0  0  0  0
   49.5377   34.7853   40.4982 H   0  0  0  0  0  0  0  0  0  0  0  0
   48.4761   36.1422   40.0458 H   0  0  0  0  0  0  0  0  0  0  0  0
   48.9975   35.1603   42.6661 H   0  0  0  0  0  0  0  0  0  0  0  0
   47.7989   36.3667   42.2476 H   0  0  0  0  0  0  0  0  0  0  0  0
   43.7911   36.5930   44.6677 H   0  0  0  0  0  0  0  0  0  0  0  0
   45.1168   36.2565   42.5644 H   0  0  0  0  0  0  0  0  0  0  0  0
   47.9418   32.4239   46.5025 H   0  0  0  0  0  0  0  0  0  0  0  0
   47.5294   31.0569   48.7913 H   0  0  0  0  0  0  0  0  0  0  0  0
   45.0069   31.6757   49.4981 H   0  0  0  0  0  0  0  0  0  0  0  0
  1  8  1  0
  2  1  1  0
  3  4  1  0
  3  2  1  0
  4  5  1  0
  5  1  1  0
  6 11  2  0
  7  6  1  0
  8  7  2  0
  8  9  1  0
  9 10  2  0
 10 11  1  0
 10 12  1  0
 12 13  2  0
 12 16  1  0
 13 14  1  0
 14 15  2  0
 16 15  1  0
 17  2  1  0
 17 20  1  0
 17 18  1  0
 19 17  1  0
  1 21  1  1
  2 22  1  6
  3 23  1  0
  3 24  1  0
  4 25  1  0
  4 26  1  0
  5 27  1  0
  5 28  1  0
  6 29  1  0
  7 30  1  0
 13 31  1  0
 14 32  1  0
 15 33  1  0
M  ISO  8  21  13  22  13  23  13  24  13  25  13  26  13  27  13  28  13
M  ISO  5  29  14  30  14  31  14  32  14  33  14
M  END
>  <minimizedAffinity>  (1) 
-6.11206579

>  <minimizedRMSD>  (1) 
0.479897797

$$$$
