
     RDKit          3D

 35 36  0  0  1  0  0  0  0  0999 V2000
   47.0590   35.2100   42.1630 C   0  0  0  0  0  0  0  0  0  0  0  0
   47.9670   34.6520   41.2010 N   0  0  0  0  0  0  0  0  0  0  0  0
   47.8290   33.2500   41.1890 C   0  0  0  0  0  0  0  0  0  0  0  0
   49.1040   32.5120   41.3940 C   0  0  0  0  0  0  0  0  0  0  0  0
   50.0940   33.1120   42.3070 C   0  0  0  0  0  0  0  0  0  0  0  0
   49.8940   34.5640   42.5800 C   0  0  0  0  0  0  0  0  0  0  0  0
   49.2650   35.2020   41.3810 C   0  0  2  0  0  0  0  0  0  0  0  0
   49.1350   36.5620   41.6810 O   0  0  0  0  0  0  0  0  0  0  0  0
   45.8130   34.3690   42.3770 C   0  0  1  0  0  0  0  0  0  0  0  0
   44.7540   35.3590   44.4880 C   0  0  0  0  0  0  0  0  0  0  0  0
   45.5020   34.3650   43.8090 C   0  0  0  0  0  0  0  0  0  0  0  0
   45.9880   33.3080   44.5770 C   0  0  0  0  0  0  0  0  0  0  0  0
   45.7380   33.2660   45.9060 N   0  0  0  0  0  0  0  0  0  0  0  0
   45.0200   34.2350   46.5200 C   0  0  0  0  0  0  0  0  0  0  0  0
   44.5190   35.2970   45.8000 N   0  0  0  0  0  0  0  0  0  0  0  0
   44.6820   35.0160   41.6040 C   0  0  0  0  0  0  0  0  0  0  0  0
   46.7509   36.2067   41.8141 H   0  0  0  0  0  0  0  0  0  0  0  0
   47.5911   35.2514   43.1248 H   0  0  0  0  0  0  0  0  0  0  0  0
   47.1321   32.9647   41.9908 H   0  0  0  0  0  0  0  0  0  0  0  0
   47.4616   32.9762   40.1890 H   0  0  0  0  0  0  0  0  0  0  0  0
   48.8501   31.5175   41.7895 H   0  0  0  0  0  0  0  0  0  0  0  0
   49.5922   32.5131   40.4083 H   0  0  0  0  0  0  0  0  0  0  0  0
   50.0459   32.5739   43.2652 H   0  0  0  0  0  0  0  0  0  0  0  0
   51.0699   33.0226   41.8073 H   0  0  0  0  0  0  0  0  0  0  0  0
   49.2354   34.6882   43.4522 H   0  0  0  0  0  0  0  0  0  0  0  0
   50.8632   35.0402   42.7895 H   0  0  0  0  0  0  0  0  0  0  0  0
   49.8638   35.0395   40.4727 H   0  0  0  0  0  0  0  0  0  0  0  0
   49.1234   36.6836   42.6634 H   0  0  0  0  0  0  0  0  0  0  0  0
   45.9591   33.3347   42.0322 H   0  0  0  0  0  0  0  0  0  0  0  0
   44.3544   36.2088   43.9151 H   0  0  0  0  0  0  0  0  0  0  0  0
   46.5749   32.5078   44.1024 H   0  0  0  0  0  0  0  0  0  0  0  0
   44.8350   34.1740   47.6026 H   0  0  0  0  0  0  0  0  0  0  0  0
   43.9490   35.4353   42.3089 H   0  0  0  0  0  0  0  0  0  0  0  0
   45.0839   35.8208   40.9709 H   0  0  0  0  0  0  0  0  0  0  0  0
   44.1919   34.2616   40.9709 H   0  0  0  0  0  0  0  0  0  0  0  0
  1  9  1  0
  2  7  1  0
  2  1  1  0
  3  2  1  0
  3  4  1  0
  4  5  1  0
  5  6  1  0
  7  8  1  0
  7  6  1  0
  9 11  1  0
 10 15  2  0
 11 10  1  0
 11 12  2  0
 12 13  1  0
 13 14  2  0
 15 14  1  0
 16  9  1  0
  1 17  1  0
  1 18  1  0
  3 19  1  0
  3 20  1  0
  4 21  1  0
  4 22  1  0
  5 23  1  0
  5 24  1  0
  6 25  1  0
  6 26  1  0
  7 27  1  6
  8 28  1  0
  9 29  1  6
 10 30  1  0
 12 31  1  0
 14 32  1  0
 16 33  1  0
 16 34  1  0
 16 35  1  0
M  ISO  8  17   8  18   8  19  13  20  13  21  13  22  13  23  13  24  13
M  ISO  8  25  13  26  13  27  13  28   3  29   8  30  14  31  14  32  14
M  ISO  3  33   8  34   8  35   8
M  END
>  <minimizedAffinity>  (1) 
-4.48833418

>  <minimizedRMSD>  (1) 
0.392191827

$$$$
