
     RDKit          3D

 44 47  0  0  1  0  0  0  0  0999 V2000
   44.5920   35.6590   44.2310 C   0  0  0  0  0  0  0  0  0  0  0  0
   45.4470   35.5570   43.1240 C   0  0  0  0  0  0  0  0  0  0  0  0
   46.5190   34.6760   43.1840 C   0  0  0  0  0  0  0  0  0  0  0  0
   46.6610   33.9670   44.3350 N   0  0  0  0  0  0  0  0  0  0  0  0
   45.8160   34.0830   45.4020 C   0  0  0  0  0  0  0  0  0  0  0  0
   44.8030   34.9280   45.3200 N   0  0  0  0  0  0  0  0  0  0  0  0
   47.4670   34.5250   42.0760 C   0  0  1  0  0  0  0  0  0  0  0  0
   46.8930   34.2840   40.7520 C   0  0  1  0  0  0  0  0  0  0  0  0
   48.1510   34.3380   39.8900 C   0  0  0  0  0  0  0  0  0  0  0  0
   48.9090   35.5130   40.5100 C   0  0  0  0  0  0  0  0  0  0  0  0
   48.3730   35.7190   41.8890 C   0  0  0  0  0  0  0  0  0  0  0  0
   46.3750   32.8380   40.7660 C   0  0  0  0  0  0  0  0  0  0  0  0
   47.1070   32.0200   41.5780 F   0  0  0  0  0  0  0  0  0  0  0  0
   46.3440   32.4200   39.4510 F   0  0  0  0  0  0  0  0  0  0  0  0
   45.0570   32.8410   41.2240 F   0  0  0  0  0  0  0  0  0  0  0  0
   46.4540   33.1420   46.2570 C   0  0  0  0  0  0  0  0  0  0  0  0
   46.9950   32.3370   46.9810 N   0  0  0  0  0  0  0  0  0  0  0  0
   47.6220   31.7550   47.8720 C   0  0  0  0  0  0  0  0  0  0  0  0
   47.3230   30.6120   47.2390 N   0  0  0  0  0  0  0  0  0  0  0  0
   46.5810   30.6450   46.0900 C   0  0  0  0  0  0  0  0  0  0  0  0
   46.3420   29.3480   45.5270 C   0  0  0  0  0  0  0  0  0  0  0  0
   45.6070   29.3220   44.3760 C   0  0  0  0  0  0  0  0  0  0  0  0
   45.0810   30.4140   43.7190 C   0  0  0  0  0  0  0  0  0  0  0  0
   45.3960   31.5810   44.3810 C   0  0  0  0  0  0  0  0  0  0  0  0
   46.1300   31.9010   45.5720 C   0  0  0  0  0  0  0  0  0  0  0  0
   43.7379   36.3514   44.1972 H   0  0  0  0  0  0  0  0  0  0  0  0
   45.2716   36.1643   42.2238 H   0  0  0  0  0  0  0  0  0  0  0  0
   48.0076   33.6279   42.4120 H   0  0  0  0  0  0  0  0  0  0  0  0
   46.0882   34.9623   40.4325 H   0  0  0  0  0  0  0  0  0  0  0  0
   47.9053   34.5322   38.8355 H   0  0  0  0  0  0  0  0  0  0  0  0
   48.7219   33.3978   39.8780 H   0  0  0  0  0  0  0  0  0  0  0  0
   49.9839   35.2838   40.5557 H   0  0  0  0  0  0  0  0  0  0  0  0
   48.7760   36.4214   39.9041 H   0  0  0  0  0  0  0  0  0  0  0  0
   49.1833   35.7222   42.6329 H   0  0  0  0  0  0  0  0  0  0  0  0
   47.8572   36.6821   42.0171 H   0  0  0  0  0  0  0  0  0  0  0  0
   45.5323   33.0572   46.8514 H   0  0  0  0  0  0  0  0  0  0  0  0
   46.1377   31.7846   47.1255 H   0  0  0  0  0  0  0  0  0  0  0  0
   48.6953   31.9929   47.9107 H   0  0  0  0  0  0  0  0  0  0  0  0
   47.3966   31.9071   48.9379 H   0  0  0  0  0  0  0  0  0  0  0  0
   47.6509   29.7115   47.6165 H   0  0  0  0  0  0  0  0  0  0  0  0
   46.7273   28.4295   45.9938 H   0  0  0  0  0  0  0  0  0  0  0  0
   45.4164   28.3346   43.9303 H   0  0  0  0  0  0  0  0  0  0  0  0
   44.4903   30.3610   42.7926 H   0  0  0  0  0  0  0  0  0  0  0  0
   44.9913   32.4733   43.8810 H   0  0  0  0  0  0  0  0  0  0  0  0
  1  6  2  0
  2  3  2  0
  2  1  1  0
  3  4  1  0
  4  5  2  0
  6  5  1  0
  7  3  1  0
  8 12  1  0
  8  7  1  0
  9 10  1  0
  9  8  1  0
 10 11  1  0
 11  7  1  0
 12 15  1  0
 12 13  1  0
 14 12  1  0
 16  5  1  0
 16 17  1  0
 17 18  1  0
 19 18  1  0
 20 19  1  0
 21 20  2  0
 22 21  1  0
 23 22  2  0
 23 24  1  0
 24 25  2  0
 25 20  1  0
 25 16  1  0
  1 26  1  0
  2 27  1  0
  7 28  1  1
  8 29  1  6
  9 30  1  0
  9 31  1  0
 10 32  1  0
 10 33  1  0
 11 34  1  0
 11 35  1  0
 16 36  1  0
 17 37  1  0
 18 38  1  0
 18 39  1  0
 19 40  1  0
 21 41  1  0
 22 42  1  0
 23 43  1  0
 24 44  1  0
M  ISO  8  26  14  27  14  28  13  29  13  30  13  31  13  32  13  33  13
M  ISO  8  34  13  35  13  36  13  37   5  38  13  39  13  41  14  42  14
M  ISO  2  43  14  44  14
M  END
>  <minimizedAffinity>  (1) 
-6.0619545

>  <minimizedRMSD>  (1) 
1.05747318

$$$$
