
     RDKit          3D

 32 34  0  0  1  0  0  0  0  0999 V2000
   47.0980   34.2710   42.1990 C   0  0  1  0  0  0  0  0  0  0  0  0
   46.3840   34.2900   40.9120 C   0  0  1  0  0  0  0  0  0  0  0  0
   47.5340   34.2130   39.9360 C   0  0  0  0  0  0  0  0  0  0  0  0
   48.5250   35.1870   40.5500 C   0  0  0  0  0  0  0  0  0  0  0  0
   48.1570   35.3470   42.0000 C   0  0  0  0  0  0  0  0  0  0  0  0
   44.5700   35.7110   44.6360 C   0  0  0  0  0  0  0  0  0  0  0  0
   45.3040   35.5420   43.4580 C   0  0  0  0  0  0  0  0  0  0  0  0
   46.2840   34.5230   43.3860 C   0  0  0  0  0  0  0  0  0  0  0  0
   46.4300   33.7840   44.4890 N   0  0  0  0  0  0  0  0  0  0  0  0
   45.7280   33.9350   45.6330 C   0  0  0  0  0  0  0  0  0  0  0  0
   44.7860   34.9240   45.6880 N   0  0  0  0  0  0  0  0  0  0  0  0
   45.9840   33.0480   46.7940 C   0  0  0  0  0  0  0  0  0  0  0  0
   44.9910   32.7860   47.8340 C   0  0  0  0  0  0  0  0  0  0  0  0
   45.8640   31.6900   48.9010 S   0  0  0  0  0  0  0  0  0  0  0  0
   47.4320   31.7070   47.8500 C   0  0  0  0  0  0  0  0  0  0  0  0
   47.1500   32.4370   46.9430 N   0  0  0  0  0  0  0  0  0  0  0  0
   45.5590   32.9880   40.8600 C   0  0  0  0  0  0  0  0  0  0  0  0
   46.1280   32.0130   41.6210 F   0  0  0  0  0  0  0  0  0  0  0  0
   45.4580   32.6760   39.5190 F   0  0  0  0  0  0  0  0  0  0  0  0
   44.2780   33.2280   41.3340 F   0  0  0  0  0  0  0  0  0  0  0  0
   47.4887   33.2659   42.4161 H   0  0  0  0  0  0  0  0  0  0  0  0
   45.7150   35.1438   40.7292 H   0  0  0  0  0  0  0  0  0  0  0  0
   47.2277   34.5338   38.9294 H   0  0  0  0  0  0  0  0  0  0  0  0
   47.9339   33.1978   39.7964 H   0  0  0  0  0  0  0  0  0  0  0  0
   49.5468   34.7891   40.4629 H   0  0  0  0  0  0  0  0  0  0  0  0
   48.4905   36.1561   40.0307 H   0  0  0  0  0  0  0  0  0  0  0  0
   49.0263   35.1728   42.6511 H   0  0  0  0  0  0  0  0  0  0  0  0
   47.8037   36.3580   42.2510 H   0  0  0  0  0  0  0  0  0  0  0  0
   43.8071   36.5014   44.6941 H   0  0  0  0  0  0  0  0  0  0  0  0
   45.1212   36.1965   42.5930 H   0  0  0  0  0  0  0  0  0  0  0  0
   43.9654   33.1727   47.9263 H   0  0  0  0  0  0  0  0  0  0  0  0
   48.3779   31.1743   48.0278 H   0  0  0  0  0  0  0  0  0  0  0  0
  1  8  1  0
  2  1  1  0
  3  4  1  0
  3  2  1  0
  4  5  1  0
  5  1  1  0
  6 11  2  0
  7  6  1  0
  8  7  2  0
  8  9  1  0
  9 10  2  0
 10 11  1  0
 10 12  1  0
 12 16  1  0
 12 13  2  0
 13 14  1  0
 15 14  1  0
 16 15  2  0
 17  2  1  0
 17 20  1  0
 17 18  1  0
 19 17  1  0
  1 21  1  1
  2 22  1  6
  3 23  1  0
  3 24  1  0
  4 25  1  0
  4 26  1  0
  5 27  1  0
  5 28  1  0
  6 29  1  0
  7 30  1  0
 13 31  1  0
 15 32  1  0
M  ISO  8  21  13  22  13  23  13  24  13  25  13  26  13  27  13  28  13
M  ISO  4  29  14  30  14  31  14  32  14
M  END
>  <minimizedAffinity>  (1) 
-5.90047407

>  <minimizedRMSD>  (1) 
0.332079202

$$$$
