
     RDKit          3D

 39 41  0  0  1  0  0  0  0  0999 V2000
   47.3950   34.2280   42.2850 C   0  0  1  0  0  0  0  0  0  0  0  0
   46.6620   34.2560   41.0100 C   0  0  1  0  0  0  0  0  0  0  0  0
   47.8070   34.3450   40.0210 C   0  0  0  0  0  0  0  0  0  0  0  0
   48.6870   35.3910   40.6830 C   0  0  0  0  0  0  0  0  0  0  0  0
   48.3450   35.4120   42.1460 C   0  0  0  0  0  0  0  0  0  0  0  0
   44.7640   35.2310   44.8260 C   0  0  0  0  0  0  0  0  0  0  0  0
   45.4870   35.2170   43.6200 C   0  0  0  0  0  0  0  0  0  0  0  0
   46.5800   34.3210   43.4960 C   0  0  0  0  0  0  0  0  0  0  0  0
   46.8390   33.5450   44.5630 N   0  0  0  0  0  0  0  0  0  0  0  0
   46.1420   33.5670   45.7110 C   0  0  0  0  0  0  0  0  0  0  0  0
   45.0980   34.4120   45.8500 N   0  0  0  0  0  0  0  0  0  0  0  0
   46.4500   32.6970   46.8770 C   0  0  0  0  0  0  0  0  0  0  0  0
   46.7810   31.3080   46.4430 C   0  0  0  0  0  0  0  0  0  0  0  0
   45.5620   30.5170   46.8190 C   0  0  0  0  0  0  0  0  0  0  0  0
   45.1730   31.1520   48.1560 C   0  0  0  0  0  0  0  0  0  0  0  0
   45.2810   32.6340   47.8310 C   0  0  0  0  0  0  0  0  0  0  0  0
   45.9840   32.8860   40.8790 C   0  0  0  0  0  0  0  0  0  0  0  0
   46.5860   31.9480   41.6590 F   0  0  0  0  0  0  0  0  0  0  0  0
   46.0010   32.5790   39.5330 F   0  0  0  0  0  0  0  0  0  0  0  0
   44.6560   32.9980   41.2660 F   0  0  0  0  0  0  0  0  0  0  0  0
   47.8849   33.2542   42.4324 H   0  0  0  0  0  0  0  0  0  0  0  0
   45.9083   35.0482   40.8904 H   0  0  0  0  0  0  0  0  0  0  0  0
   47.4602   34.6775   39.0315 H   0  0  0  0  0  0  0  0  0  0  0  0
   48.3118   33.3871   39.8270 H   0  0  0  0  0  0  0  0  0  0  0  0
   49.7469   35.1287   40.5492 H   0  0  0  0  0  0  0  0  0  0  0  0
   48.5175   36.3800   40.2323 H   0  0  0  0  0  0  0  0  0  0  0  0
   49.2435   35.2745   42.7654 H   0  0  0  0  0  0  0  0  0  0  0  0
   47.9068   36.3647   42.4782 H   0  0  0  0  0  0  0  0  0  0  0  0
   43.9131   35.9189   44.9388 H   0  0  0  0  0  0  0  0  0  0  0  0
   45.2113   35.8858   42.7913 H   0  0  0  0  0  0  0  0  0  0  0  0
   47.3194   33.1405   47.3844 H   0  0  0  0  0  0  0  0  0  0  0  0
   47.6700   30.9334   46.9716 H   0  0  0  0  0  0  0  0  0  0  0  0
   47.0179   31.2417   45.3709 H   0  0  0  0  0  0  0  0  0  0  0  0
   44.7627   30.6350   46.0726 H   0  0  0  0  0  0  0  0  0  0  0  0
   45.7364   29.4324   46.8763 H   0  0  0  0  0  0  0  0  0  0  0  0
   44.1483   30.8783   48.4478 H   0  0  0  0  0  0  0  0  0  0  0  0
   45.7977   30.8320   49.0030 H   0  0  0  0  0  0  0  0  0  0  0  0
   45.4809   33.2227   48.7384 H   0  0  0  0  0  0  0  0  0  0  0  0
   44.3557   33.0496   47.4055 H   0  0  0  0  0  0  0  0  0  0  0  0
  1  8  1  0
  2  1  1  0
  3  4  1  0
  3  2  1  0
  4  5  1  0
  5  1  1  0
  6 11  2  0
  7  6  1  0
  8  7  2  0
  8  9  1  0
  9 10  2  0
 10 11  1  0
 10 12  1  0
 12 16  1  0
 13 14  1  0
 13 12  1  0
 14 15  1  0
 16 15  1  0
 17  2  1  0
 17 20  1  0
 17 18  1  0
 19 17  1  0
  1 21  1  1
  2 22  1  1
  3 23  1  0
  3 24  1  0
  4 25  1  0
  4 26  1  0
  5 27  1  0
  5 28  1  0
  6 29  1  0
  7 30  1  0
 12 31  1  0
 13 32  1  0
 13 33  1  0
 14 34  1  0
 14 35  1  0
 15 36  1  0
 15 37  1  0
 16 38  1  0
 16 39  1  0
M  ISO  8  21  13  22  13  23  13  24  13  25  13  26  13  27  13  28  13
M  ISO  8  29  14  30  14  31  13  32  13  33  13  34  13  35  13  36  13
M  ISO  3  37  13  38  13  39  13
M  END
>  <minimizedAffinity>  (1) 
-5.89311457

>  <minimizedRMSD>  (1) 
1.10017407

$$$$
