
     RDKit          3D

 35 36  0  0  1  0  0  0  0  0999 V2000
   47.5510   34.3540   42.1120 C   0  0  1  0  0  0  0  0  0  0  0  0
   46.8750   34.3120   40.8060 C   0  0  1  0  0  0  0  0  0  0  0  0
   48.0480   34.4460   39.8570 C   0  0  0  0  0  0  0  0  0  0  0  0
   48.8630   35.5450   40.5470 C   0  0  0  0  0  0  0  0  0  0  0  0
   48.4410   35.5840   41.9810 C   0  0  0  0  0  0  0  0  0  0  0  0
   44.8130   35.3290   44.5510 C   0  0  0  0  0  0  0  0  0  0  0  0
   45.5970   35.3280   43.3820 C   0  0  0  0  0  0  0  0  0  0  0  0
   46.6850   34.4220   43.2850 C   0  0  0  0  0  0  0  0  0  0  0  0
   46.8860   33.6190   44.3430 N   0  0  0  0  0  0  0  0  0  0  0  0
   46.1310   33.6260   45.4580 C   0  0  0  0  0  0  0  0  0  0  0  0
   45.0910   34.4810   45.5670 N   0  0  0  0  0  0  0  0  0  0  0  0
   46.3830   32.7180   46.6150 C   0  0  0  0  0  0  0  0  0  0  0  0
   46.5320   31.2990   46.1510 C   0  0  0  0  0  0  0  0  0  0  0  0
   45.2650   32.7860   47.6300 C   0  0  0  0  0  0  0  0  0  0  0  0
   46.2670   32.9080   40.6800 C   0  0  0  0  0  0  0  0  0  0  0  0
   46.9400   32.0000   41.4360 F   0  0  0  0  0  0  0  0  0  0  0  0
   46.2680   32.6230   39.3290 F   0  0  0  0  0  0  0  0  0  0  0  0
   44.9460   32.9470   41.0940 F   0  0  0  0  0  0  0  0  0  0  0  0
   48.0858   33.4125   42.3060 H   0  0  0  0  0  0  0  0  0  0  0  0
   46.0876   35.0615   40.6377 H   0  0  0  0  0  0  0  0  0  0  0  0
   47.7215   34.7559   38.8533 H   0  0  0  0  0  0  0  0  0  0  0  0
   48.6020   33.5108   39.6882 H   0  0  0  0  0  0  0  0  0  0  0  0
   49.9367   35.3161   40.4775 H   0  0  0  0  0  0  0  0  0  0  0  0
   48.6877   36.5180   40.0649 H   0  0  0  0  0  0  0  0  0  0  0  0
   49.3109   35.5153   42.6508 H   0  0  0  0  0  0  0  0  0  0  0  0
   47.9307   36.5187   42.2566 H   0  0  0  0  0  0  0  0  0  0  0  0
   43.9665   36.0259   44.6389 H   0  0  0  0  0  0  0  0  0  0  0  0
   45.3699   36.0187   42.5565 H   0  0  0  0  0  0  0  0  0  0  0  0
   47.3156   33.0549   47.0911 H   0  0  0  0  0  0  0  0  0  0  0  0
   46.6019   30.6332   47.0239 H   0  0  0  0  0  0  0  0  0  0  0  0
   45.6584   31.0179   45.5445 H   0  0  0  0  0  0  0  0  0  0  0  0
   47.4449   31.2055   45.5445 H   0  0  0  0  0  0  0  0  0  0  0  0
   45.6889   32.7602   48.6447 H   0  0  0  0  0  0  0  0  0  0  0  0
   44.7008   33.7201   47.4920 H   0  0  0  0  0  0  0  0  0  0  0  0
   44.5917   31.9271   47.4920 H   0  0  0  0  0  0  0  0  0  0  0  0
  1  8  1  0
  2  1  1  0
  3  4  1  0
  3  2  1  0
  4  5  1  0
  5  1  1  0
  6 11  2  0
  7  6  1  0
  8  7  2  0
  8  9  1  0
  9 10  2  0
 10 11  1  0
 10 12  1  0
 12 14  1  0
 13 12  1  0
 15  2  1  0
 15 18  1  0
 15 16  1  0
 17 15  1  0
  1 19  1  1
  2 20  1  1
  3 21  1  0
  3 22  1  0
  4 23  1  0
  4 24  1  0
  5 25  1  0
  5 26  1  0
  6 27  1  0
  7 28  1  0
 12 29  1  0
 13 30  1  0
 13 31  1  0
 13 32  1  0
 14 33  1  0
 14 34  1  0
 14 35  1  0
M  ISO  8  19  13  20  13  21  13  22  13  23  13  24  13  25  13  26  13
M  ISO  8  27  14  28  14  29   8  30   8  31   8  32   8  33   8  34   8
M  ISO  1  35   8
M  END
>  <minimizedAffinity>  (1) 
-5.29470968

>  <minimizedRMSD>  (1) 
0.789135098

$$$$
