
     RDKit          3D

 35 36  0  0  0  0  0  0  0  0999 V2000
   47.5810   34.3110   41.8700 C   0  0  0  0  0  0  0  0  0  0  0  0
   45.7420   35.6650   42.8960 C   0  0  0  0  0  0  0  0  0  0  0  0
   46.6290   34.5500   42.9970 C   0  0  0  0  0  0  0  0  0  0  0  0
   46.5270   33.7980   44.1520 C   0  0  0  0  0  0  0  0  0  0  0  0
   45.6380   34.1190   45.1080 N   0  0  0  0  0  0  0  0  0  0  0  0
   44.8070   35.1980   44.9670 C   0  0  0  0  0  0  0  0  0  0  0  0
   44.8720   35.9480   43.8710 N   0  0  0  0  0  0  0  0  0  0  0  0
   48.4630   35.5580   41.7700 C   0  0  0  0  0  0  0  0  0  0  0  0
   46.8010   34.2140   40.6010 C   0  0  0  0  0  0  0  0  0  0  0  0
   48.4160   33.1260   42.1740 C   0  0  0  0  0  0  0  0  0  0  0  0
   49.5540   32.8490   41.3920 N   0  0  0  0  0  0  0  0  0  0  0  0
   50.6810   32.6490   42.2860 C   0  0  0  0  0  0  0  0  0  0  0  0
   51.2500   31.2610   42.2540 C   0  0  0  0  0  0  0  0  0  0  0  0
   51.6960   30.8860   40.9890 O   0  0  0  0  0  0  0  0  0  0  0  0
   50.9590   31.5320   39.9900 C   0  0  0  0  0  0  0  0  0  0  0  0
   49.5150   31.7610   40.4850 C   0  0  0  0  0  0  0  0  0  0  0  0
   45.7753   36.3023   42.0000 H   0  0  0  0  0  0  0  0  0  0  0  0
   47.1819   32.9252   44.2909 H   0  0  0  0  0  0  0  0  0  0  0  0
   44.0858   35.4443   45.7602 H   0  0  0  0  0  0  0  0  0  0  0  0
   48.7134   35.9120   42.7809 H   0  0  0  0  0  0  0  0  0  0  0  0
   49.3880   35.3104   41.2286 H   0  0  0  0  0  0  0  0  0  0  0  0
   47.9215   36.3477   41.2286 H   0  0  0  0  0  0  0  0  0  0  0  0
   45.7345   34.0814   40.8354 H   0  0  0  0  0  0  0  0  0  0  0  0
   46.9360   35.1359   40.0162 H   0  0  0  0  0  0  0  0  0  0  0  0
   47.1577   33.3533   40.0162 H   0  0  0  0  0  0  0  0  0  0  0  0
   48.7632   33.2395   43.2116 H   0  0  0  0  0  0  0  0  0  0  0  0
   47.7464   32.2811   41.9555 H   0  0  0  0  0  0  0  0  0  0  0  0
   51.4759   33.3547   42.0029 H   0  0  0  0  0  0  0  0  0  0  0  0
   50.3087   32.8156   43.3076 H   0  0  0  0  0  0  0  0  0  0  0  0
   52.0978   31.2132   42.9533 H   0  0  0  0  0  0  0  0  0  0  0  0
   50.4445   30.5679   42.5384 H   0  0  0  0  0  0  0  0  0  0  0  0
   50.9419   30.9074   39.0847 H   0  0  0  0  0  0  0  0  0  0  0  0
   51.4256   32.5006   39.7575 H   0  0  0  0  0  0  0  0  0  0  0  0
   48.8584   32.0009   39.6357 H   0  0  0  0  0  0  0  0  0  0  0  0
   49.1202   30.8578   40.9732 H   0  0  0  0  0  0  0  0  0  0  0  0
  1 10  1  0
  1  3  1  0
  2  3  2  0
  2  7  1  0
  3  4  1  0
  4  5  2  0
  6  5  1  0
  7  6  2  0
  8  1  1  0
  9  1  1  0
 11 10  1  0
 11 12  1  0
 13 12  1  0
 14 13  1  0
 15 16  1  0
 15 14  1  0
 16 11  1  0
  2 17  1  0
  4 18  1  0
  6 19  1  0
  8 20  1  0
  8 21  1  0
  8 22  1  0
  9 23  1  0
  9 24  1  0
  9 25  1  0
 10 26  1  0
 10 27  1  0
 12 28  1  0
 12 29  1  0
 13 30  1  0
 13 31  1  0
 15 32  1  0
 15 33  1  0
 16 34  1  0
 16 35  1  0
M  ISO  8  17  14  18  14  19  14  20   8  21   8  22   8  23   8  24   8
M  ISO  8  25   8  26   8  27   8  28  13  29  13  30  13  31  13  32  13
M  ISO  3  33  13  34  13  35  13
M  END
>  <minimizedAffinity>  (1) 
-4.33346367

>  <minimizedRMSD>  (1) 
3.69911218

$$$$
