
     RDKit          3D

 29 30  0  0  0  0  0  0  0  0999 V2000
   45.6880   34.5430   42.7330 C   0  0  0  0  0  0  0  0  0  0  0  0
   45.2300   34.3270   45.1460 C   0  0  0  0  0  0  0  0  0  0  0  0
   45.9720   33.8880   44.0310 C   0  0  0  0  0  0  0  0  0  0  0  0
   46.9160   32.8720   44.2310 C   0  0  0  0  0  0  0  0  0  0  0  0
   47.0720   32.3570   45.4780 N   0  0  0  0  0  0  0  0  0  0  0  0
   46.3210   32.8220   46.5270 C   0  0  0  0  0  0  0  0  0  0  0  0
   45.4200   33.7860   46.3650 N   0  0  0  0  0  0  0  0  0  0  0  0
   45.4160   36.0070   42.9690 C   0  0  0  0  0  0  0  0  0  0  0  0
   44.4640   33.9360   42.1160 C   0  0  0  0  0  0  0  0  0  0  0  0
   46.8820   34.4160   41.8120 C   0  0  0  0  0  0  0  0  0  0  0  0
   47.9200   35.4580   42.0610 C   0  0  0  0  0  0  0  0  0  0  0  0
   48.8900   35.6280   40.8940 C   0  0  0  0  0  0  0  0  0  0  0  0
   49.3420   35.1680   42.2240 C   0  0  0  0  0  0  0  0  0  0  0  0
   44.4833   35.1247   45.0187 H   0  0  0  0  0  0  0  0  0  0  0  0
   47.5208   32.4977   43.3919 H   0  0  0  0  0  0  0  0  0  0  0  0
   46.4677   32.3869   47.5266 H   0  0  0  0  0  0  0  0  0  0  0  0
   45.3795   36.2034   44.0507 H   0  0  0  0  0  0  0  0  0  0  0  0
   46.2181   36.6069   42.5142 H   0  0  0  0  0  0  0  0  0  0  0  0
   44.4520   36.2788   42.5142 H   0  0  0  0  0  0  0  0  0  0  0  0
   43.7822   33.5979   42.9103 H   0  0  0  0  0  0  0  0  0  0  0  0
   43.9568   34.6870   41.4925 H   0  0  0  0  0  0  0  0  0  0  0  0
   44.7549   33.0777   41.4925 H   0  0  0  0  0  0  0  0  0  0  0  0
   46.5347   34.5078   40.7723 H   0  0  0  0  0  0  0  0  0  0  0  0
   47.3445   33.4366   42.0039 H   0  0  0  0  0  0  0  0  0  0  0  0
   47.2306   36.0512   42.6797 H   0  0  0  0  0  0  0  0  0  0  0  0
   48.8641   34.9298   40.0444 H   0  0  0  0  0  0  0  0  0  0  0  0
   49.1620   36.4428   40.2069 H   0  0  0  0  0  0  0  0  0  0  0  0
   49.9631   35.8302   42.8450 H   0  0  0  0  0  0  0  0  0  0  0  0
   49.9056   34.2915   42.5763 H   0  0  0  0  0  0  0  0  0  0  0  0
  1  8  1  0
  1  3  1  0
  2  7  2  0
  3  4  2  0
  3  2  1  0
  4  5  1  0
  5  6  2  0
  7  6  1  0
  9  1  1  0
 10 11  1  0
 10  1  1  0
 11 13  1  0
 12 11  1  0
 12 13  1  0
  2 14  1  0
  4 15  1  0
  6 16  1  0
  8 17  1  0
  8 18  1  0
  8 19  1  0
  9 20  1  0
  9 21  1  0
  9 22  1  0
 10 23  1  0
 10 24  1  0
 11 25  1  0
 12 26  1  0
 12 27  1  0
 13 28  1  0
 13 29  1  0
M  ISO  8  14  14  15  14  16  14  17   8  18   8  19   8  20   8  21   8
M  ISO  8  22   8  23   8  24   8  25  13  26  13  27  13  28  13  29  13
M  END
>  <minimizedAffinity>  (1) 
-4.24695396

>  <minimizedRMSD>  (1) 
0.893118382

$$$$
