
     RDKit          3D

 28 29  0  0  0  0  0  0  0  0999 V2000
   45.3580   35.3410   42.9360 C   0  0  0  0  0  0  0  0  0  0  0  0
   43.1760   35.4360   41.7880 C   0  0  0  0  0  0  0  0  0  0  0  0
   44.5030   34.9400   41.7910 C   0  0  0  0  0  0  0  0  0  0  0  0
   44.8840   34.1310   40.7300 C   0  0  0  0  0  0  0  0  0  0  0  0
   43.9990   33.8450   39.7470 N   0  0  0  0  0  0  0  0  0  0  0  0
   42.7280   34.3490   39.7880 C   0  0  0  0  0  0  0  0  0  0  0  0
   42.3180   35.1380   40.7990 N   0  0  0  0  0  0  0  0  0  0  0  0
   45.2080   36.8150   43.1890 C   0  0  0  0  0  0  0  0  0  0  0  0
   46.8000   35.0660   42.5960 C   0  0  0  0  0  0  0  0  0  0  0  0
   44.9520   34.5500   44.1690 C   0  0  0  0  0  0  0  0  0  0  0  0
   45.7170   33.3590   44.3390 N   0  0  0  0  0  0  0  0  0  0  0  0
   45.3480   32.1750   43.7750 C   0  0  0  0  0  0  0  0  0  0  0  0
   46.2510   31.2090   44.0970 N   0  0  0  0  0  0  0  0  0  0  0  0
   47.1650   31.8370   44.8610 C   0  0  0  0  0  0  0  0  0  0  0  0
   46.8470   33.1550   45.0150 N   0  0  0  0  0  0  0  0  0  0  0  0
   42.8409   36.0798   42.6146 H   0  0  0  0  0  0  0  0  0  0  0  0
   45.9045   33.7225   40.6880 H   0  0  0  0  0  0  0  0  0  0  0  0
   42.0257   34.1044   38.9775 H   0  0  0  0  0  0  0  0  0  0  0  0
   45.1891   37.0009   44.2730 H   0  0  0  0  0  0  0  0  0  0  0  0
   46.0561   37.3523   42.7396 H   0  0  0  0  0  0  0  0  0  0  0  0
   44.2690   37.1705   42.7396 H   0  0  0  0  0  0  0  0  0  0  0  0
   47.3807   34.9552   43.5236 H   0  0  0  0  0  0  0  0  0  0  0  0
   46.8677   34.1388   42.0081 H   0  0  0  0  0  0  0  0  0  0  0  0
   47.2042   35.9032   42.0081 H   0  0  0  0  0  0  0  0  0  0  0  0
   45.0905   35.1860   45.0557 H   0  0  0  0  0  0  0  0  0  0  0  0
   43.9009   34.2524   44.0398 H   0  0  0  0  0  0  0  0  0  0  0  0
   44.4540   32.0226   43.1525 H   0  0  0  0  0  0  0  0  0  0  0  0
   48.0489   31.3527   45.3016 H   0  0  0  0  0  0  0  0  0  0  0  0
  1  8  1  0
  1 10  1  0
  2  3  2  0
  3  1  1  0
  4  3  1  0
  5  6  1  0
  5  4  2  0
  6  7  2  0
  7  2  1  0
  9  1  1  0
 10 11  1  0
 11 15  1  0
 12 13  2  0
 12 11  1  0
 13 14  1  0
 14 15  2  0
  2 16  1  0
  4 17  1  0
  6 18  1  0
  8 19  1  0
  8 20  1  0
  8 21  1  0
  9 22  1  0
  9 23  1  0
  9 24  1  0
 10 25  1  0
 10 26  1  0
 12 27  1  0
 14 28  1  0
M  ISO  8  16  14  17  14  18  14  19   8  20   8  21   8  22   8  23   8
M  ISO  5  24   8  25   8  26   8  27  14  28  14
M  END
>  <minimizedAffinity>  (1) 
-3.66488624

>  <minimizedRMSD>  (1) 
4.76288414

$$$$
