
     RDKit          3D

 24 24  0  0  0  0  0  0  0  0999 V2000
   45.6290   34.5660   42.6970 C   0  0  0  0  0  0  0  0  0  0  0  0
   45.2120   34.3420   45.1200 C   0  0  0  0  0  0  0  0  0  0  0  0
   45.9380   33.9140   43.9860 C   0  0  0  0  0  0  0  0  0  0  0  0
   46.8820   32.9220   44.1830 C   0  0  0  0  0  0  0  0  0  0  0  0
   47.0860   32.3980   45.4110 N   0  0  0  0  0  0  0  0  0  0  0  0
   46.3600   32.8430   46.4820 C   0  0  0  0  0  0  0  0  0  0  0  0
   45.4450   33.7940   46.3330 N   0  0  0  0  0  0  0  0  0  0  0  0
   45.3970   36.0510   42.9540 C   0  0  0  0  0  0  0  0  0  0  0  0
   44.3750   34.0100   42.1150 C   0  0  0  0  0  0  0  0  0  0  0  0
   46.7900   34.4120   41.7490 C   0  0  0  0  0  0  0  0  0  0  0  0
   47.7890   35.4210   41.9110 N   0  0  0  0  0  0  0  0  0  0  0  0
   44.4502   35.1285   45.0145 H   0  0  0  0  0  0  0  0  0  0  0  0
   47.4728   32.5561   43.3303 H   0  0  0  0  0  0  0  0  0  0  0  0
   46.5361   32.4084   47.4771 H   0  0  0  0  0  0  0  0  0  0  0  0
   45.3682   36.2354   44.0381 H   0  0  0  0  0  0  0  0  0  0  0  0
   46.2151   36.6331   42.5047 H   0  0  0  0  0  0  0  0  0  0  0  0
   44.4403   36.3558   42.5047 H   0  0  0  0  0  0  0  0  0  0  0  0
   43.6961   33.7090   42.9265 H   0  0  0  0  0  0  0  0  0  0  0  0
   43.8875   34.7763   41.4944 H   0  0  0  0  0  0  0  0  0  0  0  0
   44.6156   33.1342   41.4944 H   0  0  0  0  0  0  0  0  0  0  0  0
   46.4083   34.4607   40.7185 H   0  0  0  0  0  0  0  0  0  0  0  0
   47.2649   33.4446   41.9695 H   0  0  0  0  0  0  0  0  0  0  0  0
   47.9516   35.5852   42.9148 H   0  0  0  0  0  0  0  0  0  0  0  0
   48.6654   35.1108   41.4675 H   0  0  0  0  0  0  0  0  0  0  0  0
  1  8  1  0
  1  3  1  0
  2  7  2  0
  3  4  2  0
  3  2  1  0
  4  5  1  0
  5  6  2  0
  7  6  1  0
  9  1  1  0
 10 11  1  0
 10  1  1  0
  2 12  1  0
  4 13  1  0
  6 14  1  0
  8 15  1  0
  8 16  1  0
  8 17  1  0
  9 18  1  0
  9 19  1  0
  9 20  1  0
 10 21  1  0
 10 22  1  0
 11 23  1  0
 11 24  1  0
M  ISO  8  12  14  13  14  14  14  15   8  16   8  17   8  18   8  19   8
M  ISO  5  20   8  21   8  22   8  23   5  24   5
M  END
>  <minimizedAffinity>  (1) 
-3.20685625

>  <minimizedRMSD>  (1) 
0.589817822

$$$$
