
     RDKit          3D

 49 51  0  0  1  0  0  0  0  0999 V2000
   42.7120   34.4280   39.9950 C   0  0  2  0  0  0  0  0  0  0  0  0
   42.2890   35.3570   38.8890 C   0  0  0  0  0  0  0  0  0  0  0  0
   40.8050   35.2010   38.5650 C   0  0  0  0  0  0  0  0  0  0  0  0
   39.8760   35.4970   39.6770 C   0  0  0  0  0  0  0  0  0  0  0  0
   40.7240   35.4090   40.9440 C   0  0  0  0  0  0  0  0  0  0  0  0
   41.5200   34.1300   40.7950 C   0  0  1  0  0  0  0  0  0  0  0  0
   40.6450   33.0620   40.5440 N   0  0  0  0  0  0  0  0  0  0  0  0
   39.4740   33.1460   41.2520 C   0  0  0  0  0  0  0  0  0  0  0  0
   38.5170   32.1670   41.1140 C   0  0  0  0  0  0  0  0  0  0  0  0
   38.6920   31.0670   40.2660 C   0  0  0  0  0  0  0  0  0  0  0  0
   37.7310   30.0350   40.0950 N   0  0  0  0  0  0  0  0  0  0  0  0
   39.8490   31.0100   39.5840 N   0  0  0  0  0  0  0  0  0  0  0  0
   40.7600   31.9850   39.7440 C   0  0  0  0  0  0  0  0  0  0  0  0
   41.8100   31.9040   39.1040 O   0  0  0  0  0  0  0  0  0  0  0  0
   43.7480   35.0610   40.8980 C   0  0  0  0  0  0  0  0  0  0  0  0
   44.7150   34.1840   41.5760 C   0  0  0  0  0  0  0  0  0  0  0  0
   45.3470   33.3980   43.8320 C   0  0  0  0  0  0  0  0  0  0  0  0
   44.8080   34.4150   43.0170 C   0  0  0  0  0  0  0  0  0  0  0  0
   44.3950   35.5480   43.6640 C   0  0  0  0  0  0  0  0  0  0  0  0
   44.5010   35.6720   45.0000 N   0  0  0  0  0  0  0  0  0  0  0  0
   45.0280   34.6640   45.7490 C   0  0  0  0  0  0  0  0  0  0  0  0
   45.4450   33.5410   45.1610 N   0  0  0  0  0  0  0  0  0  0  0  0
   44.4640   32.7250   41.3010 C   0  0  0  0  0  0  0  0  0  0  0  0
   46.1070   34.4080   40.9630 C   0  0  0  0  0  0  0  0  0  0  0  0
   43.1564   33.5243   39.5525 H   0  0  0  0  0  0  0  0  0  0  0  0
   42.4798   36.3945   39.2009 H   0  0  0  0  0  0  0  0  0  0  0  0
   42.8676   35.1068   37.9875 H   0  0  0  0  0  0  0  0  0  0  0  0
   40.5663   35.8809   37.7339 H   0  0  0  0  0  0  0  0  0  0  0  0
   40.6586   34.1377   38.3241 H   0  0  0  0  0  0  0  0  0  0  0  0
   39.4517   36.5058   39.5665 H   0  0  0  0  0  0  0  0  0  0  0  0
   39.0283   34.7964   39.7011 H   0  0  0  0  0  0  0  0  0  0  0  0
   41.3965   36.2762   41.0201 H   0  0  0  0  0  0  0  0  0  0  0  0
   40.1071   35.4078   41.8547 H   0  0  0  0  0  0  0  0  0  0  0  0
   42.0027   33.7180   41.6935 H   0  0  0  0  0  0  0  0  0  0  0  0
   39.2997   33.9949   41.9295 H   0  0  0  0  0  0  0  0  0  0  0  0
   37.5832   32.2515   41.6892 H   0  0  0  0  0  0  0  0  0  0  0  0
   37.9242   29.2525   39.4537 H   0  0  0  0  0  0  0  0  0  0  0  0
   36.8410   30.0692   40.6123 H   0  0  0  0  0  0  0  0  0  0  0  0
   44.3252   35.7686   40.2846 H   0  0  0  0  0  0  0  0  0  0  0  0
   43.1601   35.4998   41.7177 H   0  0  0  0  0  0  0  0  0  0  0  0
   45.6954   32.4647   43.3656 H   0  0  0  0  0  0  0  0  0  0  0  0
   43.9670   36.3756   43.0793 H   0  0  0  0  0  0  0  0  0  0  0  0
   45.1100   34.7757   46.8402 H   0  0  0  0  0  0  0  0  0  0  0  0
   44.3708   32.1831   42.2537 H   0  0  0  0  0  0  0  0  0  0  0  0
   43.5338   32.6153   40.7242 H   0  0  0  0  0  0  0  0  0  0  0  0
   45.3041   32.3108   40.7242 H   0  0  0  0  0  0  0  0  0  0  0  0
   46.8472   34.5271   41.7679 H   0  0  0  0  0  0  0  0  0  0  0  0
   46.3776   33.5418   40.3413 H   0  0  0  0  0  0  0  0  0  0  0  0
   46.0922   35.3153   40.3413 H   0  0  0  0  0  0  0  0  0  0  0  0
  1  6  1  0
  1 15  1  0
  2  1  1  0
  3  2  1  0
  3  4  1  0
  4  5  1  0
  6  5  1  0
  7  6  1  0
  7  8  1  0
  9  8  2  0
 10  9  1  0
 11 10  1  0
 12 13  1  0
 12 10  2  0
 13  7  1  0
 14 13  2  0
 15 16  1  0
 16 18  1  0
 17 22  2  0
 18 19  2  0
 18 17  1  0
 19 20  1  0
 20 21  2  0
 22 21  1  0
 23 16  1  0
 24 16  1  0
  1 25  1  6
  2 26  1  0
  2 27  1  0
  3 28  1  0
  3 29  1  0
  4 30  1  0
  4 31  1  0
  5 32  1  0
  5 33  1  0
  6 34  1  1
  8 35  1  0
  9 36  1  0
 11 37  1  0
 11 38  1  0
 15 39  1  0
 15 40  1  0
 17 41  1  0
 19 42  1  0
 21 43  1  0
 23 44  1  0
 23 45  1  0
 23 46  1  0
 24 47  1  0
 24 48  1  0
 24 49  1  0
M  ISO  8  25  13  26  13  27  13  28  13  29  13  30  13  31  13  32  13
M  ISO  8  33  13  34  13  35  14  36  14  39   8  40   8  41  14  42  14
M  ISO  7  43  14  44   8  45   8  46   8  47   8  48   8  49   8
M  END
>  <minimizedAffinity>  (1) 
-6.17199039

>  <minimizedRMSD>  (1) 
1.05624866

$$$$
