
     RDKit          3D

 45 46  0  0  1  0  0  0  0  0999 V2000
   42.8100   34.4310   40.0700 C   0  0  2  0  0  0  0  0  0  0  0  0
   42.5060   35.2600   38.8520 C   0  0  0  0  0  0  0  0  0  0  0  0
   41.0080   35.0780   38.4790 C   0  0  0  0  0  0  0  0  0  0  0  0
   40.1240   35.7420   39.4830 C   0  0  0  0  0  0  0  0  0  0  0  0
   40.8470   35.6500   40.8210 C   0  0  0  0  0  0  0  0  0  0  0  0
   41.5510   34.2930   40.8370 C   0  0  1  0  0  0  0  0  0  0  0  0
   40.5580   33.3560   40.4780 N   0  0  0  0  0  0  0  0  0  0  0  0
   39.5270   32.9270   41.3790 C   0  0  0  0  0  0  0  0  0  0  0  0
   39.8880   32.6360   42.5800 N   0  0  0  0  0  0  0  0  0  0  0  0
   38.1440   32.8170   40.9830 N   0  0  0  0  0  0  0  0  0  0  0  0
   39.1610   32.3230   43.2530 H   0  0  0  0  0  0  0  0  0  0  0  0
   43.8470   35.0560   40.9630 C   0  0  0  0  0  0  0  0  0  0  0  0
   44.8230   34.2070   41.6510 C   0  0  0  0  0  0  0  0  0  0  0  0
   45.3960   33.3990   43.9180 C   0  0  0  0  0  0  0  0  0  0  0  0
   44.8690   34.4160   43.0960 C   0  0  0  0  0  0  0  0  0  0  0  0
   44.4300   35.5380   43.7470 C   0  0  0  0  0  0  0  0  0  0  0  0
   44.5020   35.6470   45.0870 N   0  0  0  0  0  0  0  0  0  0  0  0
   45.0180   34.6390   45.8390 C   0  0  0  0  0  0  0  0  0  0  0  0
   45.4540   33.5400   45.2510 N   0  0  0  0  0  0  0  0  0  0  0  0
   44.6250   32.7480   41.3540 C   0  0  0  0  0  0  0  0  0  0  0  0
   46.2280   34.4820   41.0770 C   0  0  0  0  0  0  0  0  0  0  0  0
   43.2123   33.4634   39.7355 H   0  0  0  0  0  0  0  0  0  0  0  0
   42.7066   36.3199   39.0674 H   0  0  0  0  0  0  0  0  0  0  0  0
   43.1404   34.9365   38.0136 H   0  0  0  0  0  0  0  0  0  0  0  0
   40.8267   35.5229   37.4895 H   0  0  0  0  0  0  0  0  0  0  0  0
   40.7776   34.0025   38.4649 H   0  0  0  0  0  0  0  0  0  0  0  0
   39.9621   36.7952   39.2098 H   0  0  0  0  0  0  0  0  0  0  0  0
   39.1379   35.2567   39.5286 H   0  0  0  0  0  0  0  0  0  0  0  0
   41.5834   36.4620   40.9125 H   0  0  0  0  0  0  0  0  0  0  0  0
   40.1444   35.7454   41.6620 H   0  0  0  0  0  0  0  0  0  0  0  0
   41.9339   33.9059   41.7928 H   0  0  0  0  0  0  0  0  0  0  0  0
   40.5743   32.9625   39.5263 H   0  0  0  0  0  0  0  0  0  0  0  0
   37.4367   32.5046   41.6635 H   0  0  0  0  0  0  0  0  0  0  0  0
   37.8639   33.0509   40.0198 H   0  0  0  0  0  0  0  0  0  0  0  0
   44.4196   35.7603   40.3416 H   0  0  0  0  0  0  0  0  0  0  0  0
   43.2527   35.4797   41.7860 H   0  0  0  0  0  0  0  0  0  0  0  0
   45.7670   32.4715   43.4573 H   0  0  0  0  0  0  0  0  0  0  0  0
   44.0091   36.3689   43.1619 H   0  0  0  0  0  0  0  0  0  0  0  0
   45.0721   34.7384   46.9332 H   0  0  0  0  0  0  0  0  0  0  0  0
   44.5491   32.1886   42.2981 H   0  0  0  0  0  0  0  0  0  0  0  0
   43.7005   32.6142   40.7732 H   0  0  0  0  0  0  0  0  0  0  0  0
   45.4804   32.3727   40.7732 H   0  0  0  0  0  0  0  0  0  0  0  0
   46.9407   34.6215   41.9032 H   0  0  0  0  0  0  0  0  0  0  0  0
   46.5451   33.6289   40.4592 H   0  0  0  0  0  0  0  0  0  0  0  0
   46.2001   35.3917   40.4592 H   0  0  0  0  0  0  0  0  0  0  0  0
  1  6  1  0
  1 12  1  0
  2  1  1  0
  3  2  1  0
  3  4  1  0
  4  5  1  0
  5  6  1  0
  7  6  1  0
  7  8  1  0
  8  9  2  0
  9 11  1  0
 10  8  1  0
 12 13  1  0
 13 15  1  0
 14 19  2  0
 15 16  2  0
 15 14  1  0
 16 17  1  0
 17 18  2  0
 19 18  1  0
 20 13  1  0
 21 13  1  0
  1 22  1  6
  2 23  1  0
  2 24  1  0
  3 25  1  0
  3 26  1  0
  4 27  1  0
  4 28  1  0
  5 29  1  0
  5 30  1  0
  6 31  1  1
  7 32  1  0
 10 33  1  0
 10 34  1  0
 12 35  1  0
 12 36  1  0
 14 37  1  0
 16 38  1  0
 18 39  1  0
 20 40  1  0
 20 41  1  0
 20 42  1  0
 21 43  1  0
 21 44  1  0
 21 45  1  0
M  ISO  8  22  13  23  13  24  13  25  13  26  13  27  13  28  13  29  13
M  ISO  8  30  13  31  13  35   8  36   8  37  14  38  14  39  14  40   8
M  ISO  5  41   8  42   8  43   8  44   8  45   8
M  END
>  <minimizedAffinity>  (1) 
-6.15822363

>  <minimizedRMSD>  (1) 
0.702580035

$$$$
