
     RDKit          3D

 51 53  0  0  1  0  0  0  0  0999 V2000
   42.6860   34.4320   40.1290 C   0  0  2  0  0  0  0  0  0  0  0  0
   42.2000   35.3790   39.0720 C   0  0  0  0  0  0  0  0  0  0  0  0
   40.7290   35.1870   38.7470 C   0  0  0  0  0  0  0  0  0  0  0  0
   39.7790   35.3360   39.8660 C   0  0  0  0  0  0  0  0  0  0  0  0
   40.6340   35.2860   41.1380 C   0  0  0  0  0  0  0  0  0  0  0  0
   41.4900   34.0720   40.9520 C   0  0  1  0  0  0  0  0  0  0  0  0
   40.7990   32.8710   40.6350 N   0  0  0  0  0  0  0  0  0  0  0  0
   39.6020   32.4240   41.0570 C   0  0  0  0  0  0  0  0  0  0  0  0
   38.9840   31.2670   40.7180 C   0  0  0  0  0  0  0  0  0  0  0  0
   37.6590   30.9340   41.2820 C   0  0  0  0  0  0  0  0  0  0  0  0
   39.6680   30.4390   39.8250 C   0  0  0  0  0  0  0  0  0  0  0  0
   39.1340   29.3670   39.4880 O   0  0  0  0  0  0  0  0  0  0  0  0
   40.8750   30.8880   39.3990 N   0  0  0  0  0  0  0  0  0  0  0  0
   41.4370   32.0510   39.7730 C   0  0  0  0  0  0  0  0  0  0  0  0
   42.5590   32.1960   39.2140 O   0  0  0  0  0  0  0  0  0  0  0  0
   43.6960   35.0660   41.0450 C   0  0  0  0  0  0  0  0  0  0  0  0
   44.7060   34.2070   41.6850 C   0  0  0  0  0  0  0  0  0  0  0  0
   45.3700   33.3700   43.9170 C   0  0  0  0  0  0  0  0  0  0  0  0
   44.8110   34.4040   43.1330 C   0  0  0  0  0  0  0  0  0  0  0  0
   44.3960   35.5170   43.8120 C   0  0  0  0  0  0  0  0  0  0  0  0
   44.5210   35.6030   45.1540 N   0  0  0  0  0  0  0  0  0  0  0  0
   45.0620   34.5870   45.8680 C   0  0  0  0  0  0  0  0  0  0  0  0
   45.4830   33.4770   45.2500 N   0  0  0  0  0  0  0  0  0  0  0  0
   44.4950   32.7500   41.3780 C   0  0  0  0  0  0  0  0  0  0  0  0
   46.0800   34.5120   41.0650 C   0  0  0  0  0  0  0  0  0  0  0  0
   43.1664   33.5686   39.6456 H   0  0  0  0  0  0  0  0  0  0  0  0
   42.3509   36.4095   39.4260 H   0  0  0  0  0  0  0  0  0  0  0  0
   42.7728   35.1768   38.1549 H   0  0  0  0  0  0  0  0  0  0  0  0
   40.4580   35.9262   37.9788 H   0  0  0  0  0  0  0  0  0  0  0  0
   40.6377   34.1384   38.4275 H   0  0  0  0  0  0  0  0  0  0  0  0
   39.2500   36.2979   39.7958 H   0  0  0  0  0  0  0  0  0  0  0  0
   39.0121   34.5475   39.8583 H   0  0  0  0  0  0  0  0  0  0  0  0
   41.2531   36.1907   41.2287 H   0  0  0  0  0  0  0  0  0  0  0  0
   40.0271   35.2396   42.0543 H   0  0  0  0  0  0  0  0  0  0  0  0
   41.8801   33.7599   41.9320 H   0  0  0  0  0  0  0  0  0  0  0  0
   39.0615   33.0747   41.7601 H   0  0  0  0  0  0  0  0  0  0  0  0
   37.7141   30.9478   42.3805 H   0  0  0  0  0  0  0  0  0  0  0  0
   36.9195   31.6742   40.9426 H   0  0  0  0  0  0  0  0  0  0  0  0
   37.3573   29.9321   40.9426 H   0  0  0  0  0  0  0  0  0  0  0  0
   41.3996   30.2945   38.7406 H   0  0  0  0  0  0  0  0  0  0  0  0
   44.2385   35.8205   40.4564 H   0  0  0  0  0  0  0  0  0  0  0  0
   43.0950   35.4439   41.8852 H   0  0  0  0  0  0  0  0  0  0  0  0
   45.7219   32.4530   43.4217 H   0  0  0  0  0  0  0  0  0  0  0  0
   43.9530   36.3560   43.2554 H   0  0  0  0  0  0  0  0  0  0  0  0
   45.1557   34.6746   46.9605 H   0  0  0  0  0  0  0  0  0  0  0  0
   44.4132   32.1852   42.3184 H   0  0  0  0  0  0  0  0  0  0  0  0
   43.5699   32.6282   40.7955 H   0  0  0  0  0  0  0  0  0  0  0  0
   45.3476   32.3708   40.7955 H   0  0  0  0  0  0  0  0  0  0  0  0
   46.8157   34.6753   41.8663 H   0  0  0  0  0  0  0  0  0  0  0  0
   46.3981   33.6626   40.4426 H   0  0  0  0  0  0  0  0  0  0  0  0
   46.0089   35.4162   40.4426 H   0  0  0  0  0  0  0  0  0  0  0  0
  1  6  1  0
  1 16  1  0
  2  1  1  0
  3  2  1  0
  3  4  1  0
  4  5  1  0
  6  5  1  0
  7  6  1  0
  7  8  1  0
  9  8  2  0
  9 10  1  0
 11  9  1  0
 12 11  2  0
 13 14  1  0
 13 11  1  0
 14  7  1  0
 15 14  2  0
 16 17  1  0
 17 19  1  0
 18 23  2  0
 19 20  2  0
 19 18  1  0
 20 21  1  0
 21 22  2  0
 23 22  1  0
 24 17  1  0
 25 17  1  0
  1 26  1  6
  2 27  1  0
  2 28  1  0
  3 29  1  0
  3 30  1  0
  4 31  1  0
  4 32  1  0
  5 33  1  0
  5 34  1  0
  6 35  1  1
  8 36  1  0
 10 37  1  0
 10 38  1  0
 10 39  1  0
 13 40  1  0
 16 41  1  0
 16 42  1  0
 18 43  1  0
 20 44  1  0
 22 45  1  0
 24 46  1  0
 24 47  1  0
 24 48  1  0
 25 49  1  0
 25 50  1  0
 25 51  1  0
M  ISO  8  26  13  27  13  28  13  29  13  30  13  31  13  32  13  33  13
M  ISO  8  34  13  35  13  36  14  37   8  38   8  39   8  40   9  41   8
M  ISO  8  42   8  43  14  44  14  45  14  46   8  47   8  48   8  49   8
M  ISO  2  50   8  51   8
M  END
>  <minimizedAffinity>  (1) 
-6.13351965

>  <minimizedRMSD>  (1) 
0.916115403

$$$$
