
     RDKit          3D

 45 47  0  0  1  0  0  0  0  0999 V2000
   42.6620   34.4860   40.3320 C   0  0  2  0  0  0  0  0  0  0  0  0
   42.2290   35.2100   39.0950 C   0  0  0  0  0  0  0  0  0  0  0  0
   40.7290   35.2770   38.9290 C   0  0  0  0  0  0  0  0  0  0  0  0
   39.9450   35.8580   40.0410 C   0  0  0  0  0  0  0  0  0  0  0  0
   40.9190   35.9800   41.2130 C   0  0  0  0  0  0  0  0  0  0  0  0
   41.5350   34.6110   41.3030 C   0  0  1  0  0  0  0  0  0  0  0  0
   40.6200   33.4830   41.4040 C   0  0  0  0  0  0  0  0  0  0  0  0
   39.2960   33.2570   41.0810 C   0  0  0  0  0  0  0  0  0  0  0  0
   38.9180   31.9990   41.4040 N   0  0  0  0  0  0  0  0  0  0  0  0
   39.9850   31.3850   41.9420 C   0  0  0  0  0  0  0  0  0  0  0  0
   40.9770   32.2700   41.9350 N   0  0  0  0  0  0  0  0  0  0  0  0
   43.8750   35.1140   40.9650 C   0  0  0  0  0  0  0  0  0  0  0  0
   44.8150   34.2540   41.6810 C   0  0  0  0  0  0  0  0  0  0  0  0
   45.3940   33.4080   43.9210 C   0  0  0  0  0  0  0  0  0  0  0  0
   44.8580   34.4450   43.1240 C   0  0  0  0  0  0  0  0  0  0  0  0
   44.4160   35.5560   43.7840 C   0  0  0  0  0  0  0  0  0  0  0  0
   44.5060   35.6240   45.1390 N   0  0  0  0  0  0  0  0  0  0  0  0
   45.0200   34.6190   45.8650 C   0  0  0  0  0  0  0  0  0  0  0  0
   45.4580   33.5270   45.2570 N   0  0  0  0  0  0  0  0  0  0  0  0
   44.6100   32.7950   41.3600 C   0  0  0  0  0  0  0  0  0  0  0  0
   46.2410   34.4850   41.1230 C   0  0  0  0  0  0  0  0  0  0  0  0
   42.9137   33.4468   40.0736 H   0  0  0  0  0  0  0  0  0  0  0  0
   42.6206   36.2370   39.1378 H   0  0  0  0  0  0  0  0  0  0  0  0
   42.6244   34.6477   38.2363 H   0  0  0  0  0  0  0  0  0  0  0  0
   40.5232   35.8782   38.0311 H   0  0  0  0  0  0  0  0  0  0  0  0
   40.4053   34.2271   38.8759 H   0  0  0  0  0  0  0  0  0  0  0  0
   39.5565   36.8481   39.7603 H   0  0  0  0  0  0  0  0  0  0  0  0
   39.0774   35.2321   40.2970 H   0  0  0  0  0  0  0  0  0  0  0  0
   41.6849   36.7430   41.0097 H   0  0  0  0  0  0  0  0  0  0  0  0
   40.4280   36.2906   42.1470 H   0  0  0  0  0  0  0  0  0  0  0  0
   41.9783   34.5299   42.3065 H   0  0  0  0  0  0  0  0  0  0  0  0
   38.6337   34.0046   40.6200 H   0  0  0  0  0  0  0  0  0  0  0  0
   40.0292   30.3513   42.3155 H   0  0  0  0  0  0  0  0  0  0  0  0
   41.9207   32.0649   42.2931 H   0  0  0  0  0  0  0  0  0  0  0  0
   44.4383   35.6123   40.1623 H   0  0  0  0  0  0  0  0  0  0  0  0
   43.4612   35.7681   41.7466 H   0  0  0  0  0  0  0  0  0  0  0  0
   45.7639   32.4905   43.4400 H   0  0  0  0  0  0  0  0  0  0  0  0
   43.9868   36.3965   43.2189 H   0  0  0  0  0  0  0  0  0  0  0  0
   45.0772   34.7019   46.9604 H   0  0  0  0  0  0  0  0  0  0  0  0
   44.5294   32.2216   42.2953 H   0  0  0  0  0  0  0  0  0  0  0  0
   43.6861   32.6745   40.7753 H   0  0  0  0  0  0  0  0  0  0  0  0
   45.4649   32.4246   40.7753 H   0  0  0  0  0  0  0  0  0  0  0  0
   46.9475   34.5994   41.9583 H   0  0  0  0  0  0  0  0  0  0  0  0
   46.5378   33.6232   40.5072 H   0  0  0  0  0  0  0  0  0  0  0  0
   46.2506   35.3964   40.5072 H   0  0  0  0  0  0  0  0  0  0  0  0
  1 12  1  0
  1  6  1  0
  2  1  1  0
  3  2  1  0
  3  4  1  0
  4  5  1  0
  5  6  1  0
  6  7  1  0
  7 11  1  0
  8  9  1  0
  8  7  2  0
  9 10  2  0
 11 10  1  0
 12 13  1  0
 13 15  1  0
 14 19  2  0
 15 16  2  0
 15 14  1  0
 16 17  1  0
 17 18  2  0
 19 18  1  0
 20 13  1  0
 21 13  1  0
  1 22  1  6
  2 23  1  0
  2 24  1  0
  3 25  1  0
  3 26  1  0
  4 27  1  0
  4 28  1  0
  5 29  1  0
  5 30  1  0
  6 31  1  1
  8 32  1  0
 10 33  1  0
 11 34  1  0
 12 35  1  0
 12 36  1  0
 14 37  1  0
 16 38  1  0
 18 39  1  0
 20 40  1  0
 20 41  1  0
 20 42  1  0
 21 43  1  0
 21 44  1  0
 21 45  1  0
M  ISO  8  22  13  23  13  24  13  25  13  26  13  27  13  28  13  29  13
M  ISO  8  30  13  31  13  32  14  33  14  34   9  35   8  36   8  37  14
M  ISO  8  38  14  39  14  40   8  41   8  42   8  43   8  44   8  45   8
M  END
>  <minimizedAffinity>  (1) 
-6.05963612

>  <minimizedRMSD>  (1) 
0.366129249

$$$$
