
     RDKit          3D

 47 49  0  0  1  0  0  0  0  0999 V2000
   42.7430   34.4480   40.1610 C   0  0  2  0  0  0  0  0  0  0  0  0
   42.3160   35.3280   39.0220 C   0  0  0  0  0  0  0  0  0  0  0  0
   40.8180   35.2820   38.7820 C   0  0  0  0  0  0  0  0  0  0  0  0
   39.9630   35.7000   39.9070 C   0  0  0  0  0  0  0  0  0  0  0  0
   40.8460   35.6600   41.1510 C   0  0  0  0  0  0  0  0  0  0  0  0
   41.5680   34.3330   41.0740 C   0  0  1  0  0  0  0  0  0  0  0  0
   40.6760   33.2070   40.9630 C   0  0  0  0  0  0  0  0  0  0  0  0
   39.3970   32.9420   41.4180 C   0  0  0  0  0  0  0  0  0  0  0  0
   38.6930   31.7970   41.2330 C   0  0  0  0  0  0  0  0  0  0  0  0
   39.2650   30.7620   40.5240 C   0  0  0  0  0  0  0  0  0  0  0  0
   40.5400   31.0100   40.0630 C   0  0  0  0  0  0  0  0  0  0  0  0
   41.1920   32.1420   40.2660 N   0  0  0  0  0  0  0  0  0  0  0  0
   43.8590   35.0670   40.9610 C   0  0  0  0  0  0  0  0  0  0  0  0
   44.8200   34.1940   41.6410 C   0  0  0  0  0  0  0  0  0  0  0  0
   45.4160   33.3610   43.8990 C   0  0  0  0  0  0  0  0  0  0  0  0
   44.8760   34.3930   43.0910 C   0  0  0  0  0  0  0  0  0  0  0  0
   44.4340   35.5070   43.7520 C   0  0  0  0  0  0  0  0  0  0  0  0
   44.5130   35.6020   45.0950 N   0  0  0  0  0  0  0  0  0  0  0  0
   45.0380   34.5880   45.8310 C   0  0  0  0  0  0  0  0  0  0  0  0
   45.4840   33.4810   45.2340 N   0  0  0  0  0  0  0  0  0  0  0  0
   44.5870   32.7380   41.3310 C   0  0  0  0  0  0  0  0  0  0  0  0
   46.2250   34.4500   41.0720 C   0  0  0  0  0  0  0  0  0  0  0  0
   43.0894   33.4846   39.7587 H   0  0  0  0  0  0  0  0  0  0  0  0
   42.6052   36.3646   39.2495 H   0  0  0  0  0  0  0  0  0  0  0  0
   42.8118   34.9604   38.1115 H   0  0  0  0  0  0  0  0  0  0  0  0
   40.5950   35.9400   37.9292 H   0  0  0  0  0  0  0  0  0  0  0  0
   40.5808   34.2214   38.6119 H   0  0  0  0  0  0  0  0  0  0  0  0
   39.5850   36.7195   39.7403 H   0  0  0  0  0  0  0  0  0  0  0  0
   39.0900   35.0394   40.0139 H   0  0  0  0  0  0  0  0  0  0  0  0
   41.5648   36.4926   41.1422 H   0  0  0  0  0  0  0  0  0  0  0  0
   40.2610   35.7597   42.0772 H   0  0  0  0  0  0  0  0  0  0  0  0
   42.0341   34.0725   42.0357 H   0  0  0  0  0  0  0  0  0  0  0  0
   38.9000   33.7409   41.9879 H   0  0  0  0  0  0  0  0  0  0  0  0
   37.6777   31.6956   41.6439 H   0  0  0  0  0  0  0  0  0  0  0  0
   38.7436   29.8110   40.3403 H   0  0  0  0  0  0  0  0  0  0  0  0
   41.0458   30.2179   39.4914 H   0  0  0  0  0  0  0  0  0  0  0  0
   44.4340   35.7030   40.2720 H   0  0  0  0  0  0  0  0  0  0  0  0
   43.3388   35.5763   41.7856 H   0  0  0  0  0  0  0  0  0  0  0  0
   45.7872   32.4422   43.4216 H   0  0  0  0  0  0  0  0  0  0  0  0
   44.0060   36.3411   43.1766 H   0  0  0  0  0  0  0  0  0  0  0  0
   45.0958   34.6800   46.9256 H   0  0  0  0  0  0  0  0  0  0  0  0
   44.4966   32.1730   42.2705 H   0  0  0  0  0  0  0  0  0  0  0  0
   43.6603   32.6310   40.7481 H   0  0  0  0  0  0  0  0  0  0  0  0
   45.4340   32.3471   40.7481 H   0  0  0  0  0  0  0  0  0  0  0  0
   46.9377   34.5799   41.8997 H   0  0  0  0  0  0  0  0  0  0  0  0
   46.5323   33.5931   40.4546 H   0  0  0  0  0  0  0  0  0  0  0  0
   46.2103   35.3603   40.4546 H   0  0  0  0  0  0  0  0  0  0  0  0
  1 13  1  0
  1  6  1  0
  2  1  1  0
  3  2  1  0
  3  4  1  0
  4  5  1  0
  6  5  1  0
  7  6  1  0
  7  8  2  0
  9  8  1  0
 10  9  2  0
 11 12  2  0
 11 10  1  0
 12  7  1  0
 13 14  1  0
 14 16  1  0
 15 20  2  0
 16 17  2  0
 16 15  1  0
 17 18  1  0
 18 19  2  0
 20 19  1  0
 21 14  1  0
 22 14  1  0
  1 23  1  6
  2 24  1  0
  2 25  1  0
  3 26  1  0
  3 27  1  0
  4 28  1  0
  4 29  1  0
  5 30  1  0
  5 31  1  0
  6 32  1  1
  8 33  1  0
  9 34  1  0
 10 35  1  0
 11 36  1  0
 13 37  1  0
 13 38  1  0
 15 39  1  0
 17 40  1  0
 19 41  1  0
 21 42  1  0
 21 43  1  0
 21 44  1  0
 22 45  1  0
 22 46  1  0
 22 47  1  0
M  ISO  8  23  13  24  13  25  13  26  13  27  13  28  13  29  13  30  13
M  ISO  8  31  13  32  13  33  14  34  14  35  14  36  14  37   8  38   8
M  ISO  8  39  14  40  14  41  14  42   8  43   8  44   8  45   8  46   8
M  ISO  1  47   8
M  END
>  <minimizedAffinity>  (1) 
-5.95139742

>  <minimizedRMSD>  (1) 
0.443508416

$$$$
