
     RDKit          3D

 46 48  0  0  1  0  0  0  0  0999 V2000
   42.7320   34.4710   40.1770 C   0  0  2  0  0  0  0  0  0  0  0  0
   42.2680   35.3570   39.0660 C   0  0  0  0  0  0  0  0  0  0  0  0
   40.7670   35.3390   38.8640 C   0  0  0  0  0  0  0  0  0  0  0  0
   39.9210   35.6790   40.0250 C   0  0  0  0  0  0  0  0  0  0  0  0
   40.8500   35.6520   41.2370 C   0  0  0  0  0  0  0  0  0  0  0  0
   41.5860   34.3270   41.1100 C   0  0  1  0  0  0  0  0  0  0  0  0
   40.6890   33.2020   40.9830 C   0  0  0  0  0  0  0  0  0  0  0  0
   39.4220   32.9360   41.4620 C   0  0  0  0  0  0  0  0  0  0  0  0
   38.7190   31.7840   41.2480 C   0  0  0  0  0  0  0  0  0  0  0  0
   39.2650   30.7800   40.5080 N   0  0  0  0  0  0  0  0  0  0  0  0
   40.5010   31.0250   40.0340 C   0  0  0  0  0  0  0  0  0  0  0  0
   41.1890   32.1580   40.2450 N   0  0  0  0  0  0  0  0  0  0  0  0
   43.8620   35.0910   40.9600 C   0  0  0  0  0  0  0  0  0  0  0  0
   44.8230   34.2100   41.6370 C   0  0  0  0  0  0  0  0  0  0  0  0
   45.4120   33.3770   43.8890 C   0  0  0  0  0  0  0  0  0  0  0  0
   44.8730   34.4050   43.0860 C   0  0  0  0  0  0  0  0  0  0  0  0
   44.4300   35.5150   43.7500 C   0  0  0  0  0  0  0  0  0  0  0  0
   44.5090   35.6030   45.0950 N   0  0  0  0  0  0  0  0  0  0  0  0
   45.0320   34.5930   45.8280 C   0  0  0  0  0  0  0  0  0  0  0  0
   45.4770   33.4910   45.2230 N   0  0  0  0  0  0  0  0  0  0  0  0
   44.5810   32.7590   41.3220 C   0  0  0  0  0  0  0  0  0  0  0  0
   46.2300   34.4620   41.0670 C   0  0  0  0  0  0  0  0  0  0  0  0
   43.0817   33.5185   39.7523 H   0  0  0  0  0  0  0  0  0  0  0  0
   42.5764   36.3885   39.2916 H   0  0  0  0  0  0  0  0  0  0  0  0
   42.7232   34.9781   38.1391 H   0  0  0  0  0  0  0  0  0  0  0  0
   40.5332   36.0568   38.0639 H   0  0  0  0  0  0  0  0  0  0  0  0
   40.5262   34.2897   38.6383 H   0  0  0  0  0  0  0  0  0  0  0  0
   39.4830   36.6803   39.9000 H   0  0  0  0  0  0  0  0  0  0  0  0
   39.0855   34.9725   40.1387 H   0  0  0  0  0  0  0  0  0  0  0  0
   41.5557   36.4953   41.2071 H   0  0  0  0  0  0  0  0  0  0  0  0
   40.3058   35.7434   42.1885 H   0  0  0  0  0  0  0  0  0  0  0  0
   42.0813   34.0456   42.0510 H   0  0  0  0  0  0  0  0  0  0  0  0
   38.9377   33.7169   42.0667 H   0  0  0  0  0  0  0  0  0  0  0  0
   37.7114   31.6677   41.6738 H   0  0  0  0  0  0  0  0  0  0  0  0
   40.9814   30.2406   39.4307 H   0  0  0  0  0  0  0  0  0  0  0  0
   44.4351   35.7164   40.2597 H   0  0  0  0  0  0  0  0  0  0  0  0
   43.3568   35.6156   41.7844 H   0  0  0  0  0  0  0  0  0  0  0  0
   45.7874   32.4612   43.4091 H   0  0  0  0  0  0  0  0  0  0  0  0
   44.0015   36.3514   43.1782 H   0  0  0  0  0  0  0  0  0  0  0  0
   45.0901   34.6809   46.9229 H   0  0  0  0  0  0  0  0  0  0  0  0
   44.4863   32.1912   42.2593 H   0  0  0  0  0  0  0  0  0  0  0  0
   43.6540   32.6602   40.7382 H   0  0  0  0  0  0  0  0  0  0  0  0
   45.4258   32.3647   40.7382 H   0  0  0  0  0  0  0  0  0  0  0  0
   46.9434   34.5898   41.8945 H   0  0  0  0  0  0  0  0  0  0  0  0
   46.5345   33.6041   40.4495 H   0  0  0  0  0  0  0  0  0  0  0  0
   46.2178   35.3723   40.4495 H   0  0  0  0  0  0  0  0  0  0  0  0
  1 13  1  0
  1  6  1  0
  2  1  1  0
  3  2  1  0
  3  4  1  0
  4  5  1  0
  6  5  1  0
  7  6  1  0
  7  8  2  0
  9  8  1  0
 10  9  2  0
 11 12  2  0
 11 10  1  0
 12  7  1  0
 13 14  1  0
 14 16  1  0
 15 20  2  0
 16 17  2  0
 16 15  1  0
 17 18  1  0
 18 19  2  0
 20 19  1  0
 21 14  1  0
 22 14  1  0
  1 23  1  6
  2 24  1  0
  2 25  1  0
  3 26  1  0
  3 27  1  0
  4 28  1  0
  4 29  1  0
  5 30  1  0
  5 31  1  0
  6 32  1  1
  8 33  1  0
  9 34  1  0
 11 35  1  0
 13 36  1  0
 13 37  1  0
 15 38  1  0
 17 39  1  0
 19 40  1  0
 21 41  1  0
 21 42  1  0
 21 43  1  0
 22 44  1  0
 22 45  1  0
 22 46  1  0
M  ISO  8  23  13  24  13  25  13  26  13  27  13  28  13  29  13  30  13
M  ISO  8  31  13  32  13  33  14  34  14  35  14  36   8  37   8  38  14
M  ISO  8  39  14  40  14  41   8  42   8  43   8  44   8  45   8  46   8
M  END
>  <minimizedAffinity>  (1) 
-5.92899179

>  <minimizedRMSD>  (1) 
0.729922712

$$$$
