
     RDKit          3D

 43 45  0  0  1  0  0  0  0  0999 V2000
   42.6850   34.4440   40.1460 C   0  0  2  0  0  0  0  0  0  0  0  0
   42.1300   35.2710   39.0300 C   0  0  0  0  0  0  0  0  0  0  0  0
   40.6110   35.2570   38.9870 C   0  0  0  0  0  0  0  0  0  0  0  0
   39.9250   35.7620   40.1810 C   0  0  0  0  0  0  0  0  0  0  0  0
   40.9490   35.7310   41.3190 C   0  0  0  0  0  0  0  0  0  0  0  0
   41.6190   34.4140   41.2290 C   0  0  1  0  0  0  0  0  0  0  0  0
   40.7860   33.2200   41.2750 C   0  0  0  0  0  0  0  0  0  0  0  0
   39.6930   32.8540   41.9810 N   0  0  0  0  0  0  0  0  0  0  0  0
   39.3120   31.6830   41.6590 O   0  0  0  0  0  0  0  0  0  0  0  0
   40.0730   31.1570   40.7410 C   0  0  0  0  0  0  0  0  0  0  0  0
   40.9720   32.1170   40.5200 N   0  0  0  0  0  0  0  0  0  0  0  0
   43.9060   35.0560   40.7770 C   0  0  0  0  0  0  0  0  0  0  0  0
   44.8380   34.1920   41.5040 C   0  0  0  0  0  0  0  0  0  0  0  0
   45.3730   33.4170   43.7940 C   0  0  0  0  0  0  0  0  0  0  0  0
   44.8770   34.4330   42.9450 C   0  0  0  0  0  0  0  0  0  0  0  0
   44.4580   35.5830   43.5590 C   0  0  0  0  0  0  0  0  0  0  0  0
   44.5210   35.7220   44.9010 N   0  0  0  0  0  0  0  0  0  0  0  0
   45.0060   34.7160   45.6790 C   0  0  0  0  0  0  0  0  0  0  0  0
   45.4230   33.5870   45.1230 N   0  0  0  0  0  0  0  0  0  0  0  0
   44.5930   32.7310   41.2360 C   0  0  0  0  0  0  0  0  0  0  0  0
   46.2610   34.4070   40.9440 C   0  0  0  0  0  0  0  0  0  0  0  0
   42.9585   33.4584   39.7414 H   0  0  0  0  0  0  0  0  0  0  0  0
   42.4685   36.3095   39.1599 H   0  0  0  0  0  0  0  0  0  0  0  0
   42.4925   34.8393   38.0854 H   0  0  0  0  0  0  0  0  0  0  0  0
   40.2937   35.8723   38.1321 H   0  0  0  0  0  0  0  0  0  0  0  0
   40.3283   34.1967   38.9112 H   0  0  0  0  0  0  0  0  0  0  0  0
   39.5766   36.7915   40.0117 H   0  0  0  0  0  0  0  0  0  0  0  0
   39.0446   35.1483   40.4224 H   0  0  0  0  0  0  0  0  0  0  0  0
   41.6819   36.5419   41.1959 H   0  0  0  0  0  0  0  0  0  0  0  0
   40.4678   35.8723   42.2980 H   0  0  0  0  0  0  0  0  0  0  0  0
   42.1231   34.2741   42.1966 H   0  0  0  0  0  0  0  0  0  0  0  0
   39.9936   30.1677   40.2666 H   0  0  0  0  0  0  0  0  0  0  0  0
   44.4771   35.5401   39.9710 H   0  0  0  0  0  0  0  0  0  0  0  0
   43.4974   35.7172   41.5554 H   0  0  0  0  0  0  0  0  0  0  0  0
   45.7239   32.4707   43.3566 H   0  0  0  0  0  0  0  0  0  0  0  0
   44.0631   36.4083   42.9484 H   0  0  0  0  0  0  0  0  0  0  0  0
   45.0521   34.8399   46.7710 H   0  0  0  0  0  0  0  0  0  0  0  0
   44.5028   32.1931   42.1913 H   0  0  0  0  0  0  0  0  0  0  0  0
   43.6628   32.6147   40.6605 H   0  0  0  0  0  0  0  0  0  0  0  0
   45.4344   32.3177   40.6605 H   0  0  0  0  0  0  0  0  0  0  0  0
   46.9707   34.5142   41.7775 H   0  0  0  0  0  0  0  0  0  0  0  0
   46.5471   33.5419   40.3278 H   0  0  0  0  0  0  0  0  0  0  0  0
   46.2788   35.3180   40.3278 H   0  0  0  0  0  0  0  0  0  0  0  0
  1 12  1  0
  1  6  1  0
  2  1  1  0
  3  2  1  0
  3  4  1  0
  4  5  1  0
  6  7  1  0
  6  5  1  0
  7  8  2  0
  9  8  1  0
 10  9  1  0
 11 10  2  0
 11  7  1  0
 12 13  1  0
 13 15  1  0
 14 19  2  0
 15 16  2  0
 15 14  1  0
 16 17  1  0
 17 18  2  0
 19 18  1  0
 20 13  1  0
 21 13  1  0
  1 22  1  6
  2 23  1  0
  2 24  1  0
  3 25  1  0
  3 26  1  0
  4 27  1  0
  4 28  1  0
  5 29  1  0
  5 30  1  0
  6 31  1  1
 10 32  1  0
 12 33  1  0
 12 34  1  0
 14 35  1  0
 16 36  1  0
 18 37  1  0
 20 38  1  0
 20 39  1  0
 20 40  1  0
 21 41  1  0
 21 42  1  0
 21 43  1  0
M  ISO  8  22  13  23  13  24  13  25  13  26  13  27  13  28  13  29  13
M  ISO  8  30  13  31  13  32  14  33   8  34   8  35  14  36  14  37  14
M  ISO  6  38   8  39   8  40   8  41   8  42   8  43   8
M  END
>  <minimizedAffinity>  (1) 
-5.81922483

>  <minimizedRMSD>  (1) 
0.613410592

$$$$
