
     RDKit          3D

 47 48  0  0  1  0  0  0  0  0999 V2000
   43.9570   35.0710   40.8930 C   0  0  0  0  0  0  0  0  0  0  0  0
   42.7940   34.4220   40.1940 C   0  0  2  0  0  0  0  0  0  0  0  0
   42.2450   35.3110   39.1190 C   0  0  0  0  0  0  0  0  0  0  0  0
   40.7550   35.3280   39.0130 C   0  0  0  0  0  0  0  0  0  0  0  0
   40.0200   35.7160   40.2230 C   0  0  0  0  0  0  0  0  0  0  0  0
   40.9170   35.4540   41.3800 C   0  0  0  0  0  0  0  0  0  0  0  0
   41.6920   34.2220   41.1890 C   0  0  1  0  0  0  0  0  0  0  0  0
   41.0420   32.8990   41.2780 C   0  0  0  0  0  0  0  0  0  0  0  0
   41.0600   31.9800   40.1250 C   0  0  0  0  0  0  0  0  0  0  0  0
   39.5760   32.9900   41.7500 C   0  0  0  0  0  0  0  0  0  0  0  0
   44.9160   34.2280   41.6030 C   0  0  0  0  0  0  0  0  0  0  0  0
   45.4410   33.3850   43.8680 C   0  0  0  0  0  0  0  0  0  0  0  0
   44.9310   34.4140   43.0530 C   0  0  0  0  0  0  0  0  0  0  0  0
   44.4780   35.5330   43.7000 C   0  0  0  0  0  0  0  0  0  0  0  0
   44.5260   35.6240   45.0480 N   0  0  0  0  0  0  0  0  0  0  0  0
   45.0290   34.6030   45.7950 C   0  0  0  0  0  0  0  0  0  0  0  0
   45.4810   33.4960   45.2050 N   0  0  0  0  0  0  0  0  0  0  0  0
   44.7430   32.7710   41.2730 C   0  0  0  0  0  0  0  0  0  0  0  0
   46.3340   34.5270   41.0610 C   0  0  0  0  0  0  0  0  0  0  0  0
   43.5395   35.7743   41.6285 H   0  0  0  0  0  0  0  0  0  0  0  0
   44.5463   35.5092   40.0740 H   0  0  0  0  0  0  0  0  0  0  0  0
   43.1432   33.4751   39.7564 H   0  0  0  0  0  0  0  0  0  0  0  0
   42.5845   36.3380   39.3192 H   0  0  0  0  0  0  0  0  0  0  0  0
   42.6162   34.9059   38.1660 H   0  0  0  0  0  0  0  0  0  0  0  0
   40.4841   36.0353   38.2153 H   0  0  0  0  0  0  0  0  0  0  0  0
   40.4637   34.2859   38.8152 H   0  0  0  0  0  0  0  0  0  0  0  0
   39.7601   36.7840   40.1809 H   0  0  0  0  0  0  0  0  0  0  0  0
   39.0848   35.1442   40.3142 H   0  0  0  0  0  0  0  0  0  0  0  0
   41.6113   36.2996   41.4932 H   0  0  0  0  0  0  0  0  0  0  0  0
   40.2955   35.3359   42.2799 H   0  0  0  0  0  0  0  0  0  0  0  0
   42.1716   34.0635   42.1662 H   0  0  0  0  0  0  0  0  0  0  0  0
   41.7237   32.4449   42.0123 H   0  0  0  0  0  0  0  0  0  0  0  0
   41.0804   30.9407   40.4848 H   0  0  0  0  0  0  0  0  0  0  0  0
   40.1586   32.1393   39.5150 H   0  0  0  0  0  0  0  0  0  0  0  0
   41.9545   32.1745   39.5150 H   0  0  0  0  0  0  0  0  0  0  0  0
   39.5443   32.9920   42.8495 H   0  0  0  0  0  0  0  0  0  0  0  0
   39.1249   33.9179   41.3685 H   0  0  0  0  0  0  0  0  0  0  0  0
   39.0136   32.1250   41.3685 H   0  0  0  0  0  0  0  0  0  0  0  0
   45.8168   32.4652   43.3960 H   0  0  0  0  0  0  0  0  0  0  0  0
   44.0693   36.3697   43.1144 H   0  0  0  0  0  0  0  0  0  0  0  0
   45.0627   34.6918   46.8909 H   0  0  0  0  0  0  0  0  0  0  0  0
   44.6740   32.1898   42.2044 H   0  0  0  0  0  0  0  0  0  0  0  0
   43.8224   32.6347   40.6866 H   0  0  0  0  0  0  0  0  0  0  0  0
   45.6061   32.4229   40.6866 H   0  0  0  0  0  0  0  0  0  0  0  0
   47.0255   34.6728   41.9039 H   0  0  0  0  0  0  0  0  0  0  0  0
   46.6776   33.6816   40.4469 H   0  0  0  0  0  0  0  0  0  0  0  0
   46.3070   35.4392   40.4469 H   0  0  0  0  0  0  0  0  0  0  0  0
  1 11  1  0
  2  1  1  0
  2  7  1  0
  3  2  1  0
  4  3  1  0
  4  5  1  0
  5  6  1  0
  7  8  1  0
  7  6  1  0
  8 10  1  0
  9  8  1  0
 11 13  1  0
 12 17  2  0
 13 14  2  0
 13 12  1  0
 14 15  1  0
 15 16  2  0
 17 16  1  0
 18 11  1  0
 19 11  1  0
  1 20  1  0
  1 21  1  0
  2 22  1  6
  3 23  1  0
  3 24  1  0
  4 25  1  0
  4 26  1  0
  5 27  1  0
  5 28  1  0
  6 29  1  0
  6 30  1  0
  7 31  1  1
  8 32  1  0
  9 33  1  0
  9 34  1  0
  9 35  1  0
 10 36  1  0
 10 37  1  0
 10 38  1  0
 12 39  1  0
 14 40  1  0
 16 41  1  0
 18 42  1  0
 18 43  1  0
 18 44  1  0
 19 45  1  0
 19 46  1  0
 19 47  1  0
M  ISO  8  20   8  21   8  22  13  23  13  24  13  25  13  26  13  27  13
M  ISO  8  28  13  29  13  30  13  31  13  32   8  33   8  34   8  35   8
M  ISO  8  36   8  37   8  38   8  39  14  40  14  41  14  42   8  43   8
M  ISO  4  44   8  45   8  46   8  47   8
M  END
>  <minimizedAffinity>  (1) 
-5.37808371

>  <minimizedRMSD>  (1) 
0.294919133

$$$$
