
     RDKit          3D

 39 40  0  0  1  0  0  0  0  0999 V2000
   43.9070   35.0640   40.9080 C   0  0  0  0  0  0  0  0  0  0  0  0
   42.6980   34.4600   40.2740 C   0  0  2  0  0  0  0  0  0  0  0  0
   42.1660   35.2030   39.0960 C   0  0  0  0  0  0  0  0  0  0  0  0
   40.6300   35.1330   39.0400 C   0  0  0  0  0  0  0  0  0  0  0  0
   39.9510   35.8300   40.1720 C   0  0  0  0  0  0  0  0  0  0  0  0
   40.9820   35.8950   41.3050 C   0  0  0  0  0  0  0  0  0  0  0  0
   41.5880   34.5170   41.3210 C   0  0  1  0  0  0  0  0  0  0  0  0
   40.6440   33.5230   41.1120 O   0  0  0  0  0  0  0  0  0  0  0  0
   44.8610   34.1990   41.6080 C   0  0  0  0  0  0  0  0  0  0  0  0
   45.4160   33.3870   43.8770 C   0  0  0  0  0  0  0  0  0  0  0  0
   44.9000   34.4070   43.0560 C   0  0  0  0  0  0  0  0  0  0  0  0
   44.4590   35.5310   43.6970 C   0  0  0  0  0  0  0  0  0  0  0  0
   44.5210   35.6440   45.0400 N   0  0  0  0  0  0  0  0  0  0  0  0
   45.0300   34.6280   45.7960 C   0  0  0  0  0  0  0  0  0  0  0  0
   45.4720   33.5100   45.2110 N   0  0  0  0  0  0  0  0  0  0  0  0
   44.6340   32.7410   41.3050 C   0  0  0  0  0  0  0  0  0  0  0  0
   46.2810   34.4440   41.0500 C   0  0  0  0  0  0  0  0  0  0  0  0
   43.5494   35.8041   41.6391 H   0  0  0  0  0  0  0  0  0  0  0  0
   44.4836   35.4475   40.0534 H   0  0  0  0  0  0  0  0  0  0  0  0
   42.9904   33.4562   39.9321 H   0  0  0  0  0  0  0  0  0  0  0  0
   42.4746   36.2564   39.1672 H   0  0  0  0  0  0  0  0  0  0  0  0
   42.5688   34.7412   38.1825 H   0  0  0  0  0  0  0  0  0  0  0  0
   40.2964   35.5946   38.0989 H   0  0  0  0  0  0  0  0  0  0  0  0
   40.3561   34.0699   39.1093 H   0  0  0  0  0  0  0  0  0  0  0  0
   39.6490   36.8440   39.8710 H   0  0  0  0  0  0  0  0  0  0  0  0
   39.0401   35.2988   40.4851 H   0  0  0  0  0  0  0  0  0  0  0  0
   41.7472   36.6568   41.0949 H   0  0  0  0  0  0  0  0  0  0  0  0
   40.5348   36.1735   42.2706 H   0  0  0  0  0  0  0  0  0  0  0  0
   42.0082   34.3270   42.3197 H   0  0  0  0  0  0  0  0  0  0  0  0
   40.3225   33.1844   41.9850 H   0  0  0  0  0  0  0  0  0  0  0  0
   45.7843   32.4614   43.4105 H   0  0  0  0  0  0  0  0  0  0  0  0
   44.0449   36.3608   43.1054 H   0  0  0  0  0  0  0  0  0  0  0  0
   45.0767   34.7293   46.8903 H   0  0  0  0  0  0  0  0  0  0  0  0
   44.5467   32.1800   42.2471 H   0  0  0  0  0  0  0  0  0  0  0  0
   43.7073   32.6273   40.7233 H   0  0  0  0  0  0  0  0  0  0  0  0
   45.4822   32.3510   40.7233 H   0  0  0  0  0  0  0  0  0  0  0  0
   46.9870   34.5658   41.8847 H   0  0  0  0  0  0  0  0  0  0  0  0
   46.5861   33.5852   40.4340 H   0  0  0  0  0  0  0  0  0  0  0  0
   46.2807   35.3554   40.4340 H   0  0  0  0  0  0  0  0  0  0  0  0
  1  9  1  0
  2  1  1  0
  2  7  1  0
  3  2  1  0
  4  3  1  0
  4  5  1  0
  5  6  1  0
  6  7  1  0
  8  7  1  0
  9 11  1  0
 10 15  2  0
 11 12  2  0
 11 10  1  0
 12 13  1  0
 13 14  2  0
 15 14  1  0
 16  9  1  0
 17  9  1  0
  1 18  1  0
  1 19  1  0
  2 20  1  6
  3 21  1  0
  3 22  1  0
  4 23  1  0
  4 24  1  0
  5 25  1  0
  5 26  1  0
  6 27  1  0
  6 28  1  0
  7 29  1  1
  8 30  1  0
 10 31  1  0
 12 32  1  0
 14 33  1  0
 16 34  1  0
 16 35  1  0
 16 36  1  0
 17 37  1  0
 17 38  1  0
 17 39  1  0
M  ISO  8  18   8  19   8  20  13  21  13  22  13  23  13  24  13  25  13
M  ISO  8  26  13  27  13  28  13  29  13  30   3  31  14  32  14  33  14
M  ISO  6  34   8  35   8  36   8  37   8  38   8  39   8
M  END
>  <minimizedAffinity>  (1) 
-5.15735531

>  <minimizedRMSD>  (1) 
0.246262267

$$$$
