
     RDKit          3D

 48 50  0  0  1  0  0  0  0  0999 V2000
   45.1000   34.1380   41.8320 C   0  0  1  0  0  0  0  0  0  0  0  0
   45.4710   33.4150   44.1650 C   0  0  0  0  0  0  0  0  0  0  0  0
   45.0090   34.3870   43.2630 C   0  0  0  0  0  0  0  0  0  0  0  0
   44.5030   35.5070   43.8370 C   0  0  0  0  0  0  0  0  0  0  0  0
   44.4590   35.6500   45.1790 N   0  0  0  0  0  0  0  0  0  0  0  0
   44.9090   34.6980   46.0050 C   0  0  0  0  0  0  0  0  0  0  0  0
   45.4180   33.5740   45.4890 N   0  0  0  0  0  0  0  0  0  0  0  0
   44.9090   32.6740   41.5600 C   0  0  0  0  0  0  0  0  0  0  0  0
   44.2310   34.9430   40.9740 C   0  0  0  0  0  0  0  0  0  0  0  0
   43.0000   34.3060   40.3900 C   0  0  2  0  0  0  0  0  0  0  0  0
   42.5380   35.0420   39.1570 C   0  0  0  0  0  0  0  0  0  0  0  0
   41.0130   35.0220   39.0340 C   0  0  0  0  0  0  0  0  0  0  0  0
   40.3170   35.7510   40.1140 C   0  0  0  0  0  0  0  0  0  0  0  0
   41.3080   35.8510   41.2800 C   0  0  0  0  0  0  0  0  0  0  0  0
   41.8830   34.4710   41.3890 C   0  0  1  0  0  0  0  0  0  0  0  0
   40.6640   33.1610   41.2440 S   0  0  0  0  0  0  0  0  0  0  0  0
   46.5750   34.3260   41.4230 C   0  0  0  0  0  0  0  0  0  0  0  0
   46.8430   34.0170   40.0190 C   0  0  0  0  0  0  0  0  0  0  0  0
   47.9560   34.4890   39.3330 C   0  0  0  0  0  0  0  0  0  0  0  0
   48.2660   34.2510   38.0240 C   0  0  0  0  0  0  0  0  0  0  0  0
   47.4140   33.4700   37.2770 C   0  0  0  0  0  0  0  0  0  0  0  0
   46.3050   32.9910   37.9370 C   0  0  0  0  0  0  0  0  0  0  0  0
   46.0650   33.2650   39.2230 N   0  0  0  0  0  0  0  0  0  0  0  0
   45.8947   32.4828   43.7632 H   0  0  0  0  0  0  0  0  0  0  0  0
   44.1207   36.3152   43.1962 H   0  0  0  0  0  0  0  0  0  0  0  0
   44.8608   34.8383   47.0950 H   0  0  0  0  0  0  0  0  0  0  0  0
   44.8380   32.1301   42.5135 H   0  0  0  0  0  0  0  0  0  0  0  0
   43.9839   32.5258   40.9836 H   0  0  0  0  0  0  0  0  0  0  0  0
   45.7651   32.2934   40.9836 H   0  0  0  0  0  0  0  0  0  0  0  0
   43.8974   35.8055   41.5696 H   0  0  0  0  0  0  0  0  0  0  0  0
   44.8562   35.1679   40.0973 H   0  0  0  0  0  0  0  0  0  0  0  0
   43.2347   33.2584   40.1504 H   0  0  0  0  0  0  0  0  0  0  0  0
   42.8788   36.0863   39.2147 H   0  0  0  0  0  0  0  0  0  0  0  0
   42.9632   34.5410   38.2749 H   0  0  0  0  0  0  0  0  0  0  0  0
   40.7368   35.4800   38.0728 H   0  0  0  0  0  0  0  0  0  0  0  0
   40.7001   33.9698   39.1051 H   0  0  0  0  0  0  0  0  0  0  0  0
   40.0309   36.7563   39.7710 H   0  0  0  0  0  0  0  0  0  0  0  0
   39.3969   35.2299   40.4172 H   0  0  0  0  0  0  0  0  0  0  0  0
   42.0961   36.5864   41.0609 H   0  0  0  0  0  0  0  0  0  0  0  0
   40.8305   36.1848   42.2130 H   0  0  0  0  0  0  0  0  0  0  0  0
   42.2847   34.3692   42.4080 H   0  0  0  0  0  0  0  0  0  0  0  0
   40.2829   32.7514   42.4945 H   0  0  0  0  0  0  0  0  0  0  0  0
   46.8549   35.3738   41.6069 H   0  0  0  0  0  0  0  0  0  0  0  0
   47.1664   33.6200   42.0246 H   0  0  0  0  0  0  0  0  0  0  0  0
   48.6577   35.1173   39.9013 H   0  0  0  0  0  0  0  0  0  0  0  0
   49.1772   34.6746   37.5766 H   0  0  0  0  0  0  0  0  0  0  0  0
   47.6072   33.2426   36.2182 H   0  0  0  0  0  0  0  0  0  0  0  0
   45.5912   32.3605   37.3866 H   0  0  0  0  0  0  0  0  0  0  0  0
  1  9  1  6
  1  3  1  0
  2  7  2  0
  3  4  2  0
  3  2  1  0
  4  5  1  0
  5  6  2  0
  7  6  1  0
  8  1  1  0
 10  9  1  0
 10 15  1  0
 11 10  1  0
 12 11  1  0
 12 13  1  0
 13 14  1  0
 14 15  1  0
 16 15  1  0
 17  1  1  0
 18 17  1  0
 19 18  2  0
 20 19  1  0
 21 22  1  0
 21 20  2  0
 22 23  2  0
 23 18  1  0
  2 24  1  0
  4 25  1  0
  6 26  1  0
  8 27  1  0
  8 28  1  0
  8 29  1  0
  9 30  1  0
  9 31  1  0
 10 32  1  6
 11 33  1  0
 11 34  1  0
 12 35  1  0
 12 36  1  0
 13 37  1  0
 13 38  1  0
 14 39  1  0
 14 40  1  0
 15 41  1  1
 16 42  1  0
 17 43  1  0
 17 44  1  0
 19 45  1  0
 20 46  1  0
 21 47  1  0
 22 48  1  0
M  ISO  8  24  14  25  14  26  14  27   8  28   8  29   8  30   8  31   8
M  ISO  8  32  13  33  13  34  13  35  13  36  13  37  13  38  13  39  13
M  ISO  8  40  13  41  13  42  11  43   8  44   8  45  14  46  14  47  14
M  ISO  1  48  14
M  END
>  <minimizedAffinity>  (1) 
-5.82148266

>  <minimizedRMSD>  (1) 
0.460003495

$$$$
