
     RDKit          3D

 53 55  0  0  1  0  0  0  0  0999 V2000
   44.5420   33.6710   41.4460 C   0  0  1  0  0  0  0  0  0  0  0  0
   45.2390   33.2640   43.7940 C   0  0  0  0  0  0  0  0  0  0  0  0
   44.6960   34.1460   42.8310 C   0  0  0  0  0  0  0  0  0  0  0  0
   44.3680   35.3880   43.3090 C   0  0  0  0  0  0  0  0  0  0  0  0
   44.5600   35.7090   44.6010 N   0  0  0  0  0  0  0  0  0  0  0  0
   45.0760   34.8410   45.4770 C   0  0  0  0  0  0  0  0  0  0  0  0
   45.4140   33.6210   45.0690 N   0  0  0  0  0  0  0  0  0  0  0  0
   43.9910   32.2890   41.4800 C   0  0  0  0  0  0  0  0  0  0  0  0
   43.7870   34.5820   40.5870 C   0  0  0  0  0  0  0  0  0  0  0  0
   42.3970   34.1610   40.1590 C   0  0  2  0  0  0  0  0  0  0  0  0
   41.9150   34.9720   38.9860 C   0  0  0  0  0  0  0  0  0  0  0  0
   40.3950   35.1550   39.0440 C   0  0  0  0  0  0  0  0  0  0  0  0
   39.9490   35.9690   40.1920 C   0  0  0  0  0  0  0  0  0  0  0  0
   41.0710   35.8990   41.2440 C   0  0  0  0  0  0  0  0  0  0  0  0
   41.4480   34.4600   41.2760 C   0  0  1  0  0  0  0  0  0  0  0  0
   40.0330   33.3520   41.2870 S   0  0  0  0  0  0  0  0  0  0  0  0
   45.9560   33.5010   40.8890 C   0  0  0  0  0  0  0  0  0  0  0  0
   46.2180   33.7670   39.5470 N   0  0  0  0  0  0  0  0  0  0  0  0
   47.7020   33.7610   39.4570 C   0  0  0  0  0  0  0  0  0  0  0  0
   48.2210   34.4460   38.2500 C   0  0  0  0  0  0  0  0  0  0  0  0
   47.3670   34.1550   37.0870 N   0  0  0  0  0  0  0  0  0  0  0  0
   46.8390   32.8250   37.3660 C   0  0  0  0  0  0  0  0  0  0  0  0
   45.7860   32.8920   38.5050 C   0  0  0  0  0  0  0  0  0  0  0  0
   45.5271   32.2492   43.4822 H   0  0  0  0  0  0  0  0  0  0  0  0
   43.9404   36.1351   42.6242 H   0  0  0  0  0  0  0  0  0  0  0  0
   45.2200   35.1336   46.5276 H   0  0  0  0  0  0  0  0  0  0  0  0
   43.8640   31.9705   42.5252 H   0  0  0  0  0  0  0  0  0  0  0  0
   43.0166   32.2701   40.9700 H   0  0  0  0  0  0  0  0  0  0  0  0
   44.6851   31.6049   40.9700 H   0  0  0  0  0  0  0  0  0  0  0  0
   43.6893   35.5357   41.1263 H   0  0  0  0  0  0  0  0  0  0  0  0
   44.3642   34.6221   39.6515 H   0  0  0  0  0  0  0  0  0  0  0  0
   42.4354   33.0935   39.8964 H   0  0  0  0  0  0  0  0  0  0  0  0
   42.1811   34.4524   38.0537 H   0  0  0  0  0  0  0  0  0  0  0  0
   42.3926   35.9623   39.0198 H   0  0  0  0  0  0  0  0  0  0  0  0
   40.0670   35.6487   38.1173 H   0  0  0  0  0  0  0  0  0  0  0  0
   39.9504   34.1556   39.1605 H   0  0  0  0  0  0  0  0  0  0  0  0
   39.7874   37.0109   39.8784 H   0  0  0  0  0  0  0  0  0  0  0  0
   38.9992   35.5926   40.5997 H   0  0  0  0  0  0  0  0  0  0  0  0
   41.9274   36.5206   40.9437 H   0  0  0  0  0  0  0  0  0  0  0  0
   40.7520   36.2742   42.2276 H   0  0  0  0  0  0  0  0  0  0  0  0
   41.9578   34.2709   42.2322 H   0  0  0  0  0  0  0  0  0  0  0  0
   39.6797   33.0753   42.5814 H   0  0  0  0  0  0  0  0  0  0  0  0
   46.6091   34.1633   41.4762 H   0  0  0  0  0  0  0  0  0  0  0  0
   46.1272   32.4172   40.9673 H   0  0  0  0  0  0  0  0  0  0  0  0
   48.1073   34.2662   40.3461 H   0  0  0  0  0  0  0  0  0  0  0  0
   48.0194   32.7096   39.3955 H   0  0  0  0  0  0  0  0  0  0  0  0
   48.2344   35.5316   38.4271 H   0  0  0  0  0  0  0  0  0  0  0  0
   49.2390   34.0836   38.0444 H   0  0  0  0  0  0  0  0  0  0  0  0
   47.9190   34.1555   36.2174 H   0  0  0  0  0  0  0  0  0  0  0  0
   46.3659   32.4243   36.4574 H   0  0  0  0  0  0  0  0  0  0  0  0
   47.6653   32.1704   37.6803 H   0  0  0  0  0  0  0  0  0  0  0  0
   44.8349   33.2623   38.0949 H   0  0  0  0  0  0  0  0  0  0  0  0
   45.6567   31.8832   38.9241 H   0  0  0  0  0  0  0  0  0  0  0  0
  1  9  1  6
  1  8  1  0
  1  3  1  0
  2  7  2  0
  3  4  2  0
  3  2  1  0
  4  5  1  0
  5  6  2  0
  7  6  1  0
 10  9  1  0
 10 15  1  0
 11 12  1  0
 11 10  1  0
 12 13  1  0
 13 14  1  0
 14 15  1  0
 15 16  1  0
 17  1  1  0
 18 17  1  0
 19 18  1  0
 20 19  1  0
 21 22  1  0
 21 20  1  0
 22 23  1  0
 23 18  1  0
  2 24  1  0
  4 25  1  0
  6 26  1  0
  8 27  1  0
  8 28  1  0
  8 29  1  0
  9 30  1  0
  9 31  1  0
 10 32  1  6
 11 33  1  0
 11 34  1  0
 12 35  1  0
 12 36  1  0
 13 37  1  0
 13 38  1  0
 14 39  1  0
 14 40  1  0
 15 41  1  1
 16 42  1  0
 17 43  1  0
 17 44  1  0
 19 45  1  0
 19 46  1  0
 20 47  1  0
 20 48  1  0
 21 49  1  0
 22 50  1  0
 22 51  1  0
 23 52  1  0
 23 53  1  0
M  ISO  8  24  14  25  14  26  14  27   8  28   8  29   8  30   8  31   8
M  ISO  8  32  13  33  13  34  13  35  13  36  13  37  13  38  13  39  13
M  ISO  8  40  13  41  13  42  11  43   8  44   8  45  13  46  13  47  13
M  ISO  6  48  13  49   5  50  13  51  13  52  13  53  13
M  END
>  <minimizedAffinity>  (1) 
-5.79114771

>  <minimizedRMSD>  (1) 
0.894245565

$$$$
