
     RDKit          3D

 47 49  0  0  1  0  0  0  0  0999 V2000
   45.0220   34.0420   41.6340 C   0  0  1  0  0  0  0  0  0  0  0  0
   45.4100   33.4140   43.9930 C   0  0  0  0  0  0  0  0  0  0  0  0
   44.9660   34.3600   43.0560 C   0  0  0  0  0  0  0  0  0  0  0  0
   44.5090   35.5210   43.5860 C   0  0  0  0  0  0  0  0  0  0  0  0
   44.4910   35.7330   44.9240 N   0  0  0  0  0  0  0  0  0  0  0  0
   44.9250   34.8030   45.7840 C   0  0  0  0  0  0  0  0  0  0  0  0
   45.3890   33.6330   45.3100 N   0  0  0  0  0  0  0  0  0  0  0  0
   44.7230   32.5780   41.4400 C   0  0  0  0  0  0  0  0  0  0  0  0
   44.1850   34.8610   40.7550 C   0  0  0  0  0  0  0  0  0  0  0  0
   42.8970   34.2920   40.2320 C   0  0  2  0  0  0  0  0  0  0  0  0
   42.3890   35.0870   39.0570 C   0  0  0  0  0  0  0  0  0  0  0  0
   40.8620   35.1040   39.0190 C   0  0  0  0  0  0  0  0  0  0  0  0
   40.2580   35.8320   40.1570 C   0  0  0  0  0  0  0  0  0  0  0  0
   41.3070   35.8440   41.2760 C   0  0  0  0  0  0  0  0  0  0  0  0
   41.8510   34.4500   41.2940 C   0  0  1  0  0  0  0  0  0  0  0  0
   40.5810   33.1910   41.1870 S   0  0  0  0  0  0  0  0  0  0  0  0
   46.4930   34.1380   41.2020 C   0  0  0  0  0  0  0  0  0  0  0  0
   46.7720   33.9020   39.8070 C   0  0  0  0  0  0  0  0  0  0  0  0
   47.9260   34.3820   39.2150 C   0  0  0  0  0  0  0  0  0  0  0  0
   48.2600   34.2020   37.8880 C   0  0  0  0  0  0  0  0  0  0  0  0
   47.4190   33.5080   37.0640 N   0  0  0  0  0  0  0  0  0  0  0  0
   46.2780   33.0330   37.6450 C   0  0  0  0  0  0  0  0  0  0  0  0
   45.9990   33.2340   38.9430 N   0  0  0  0  0  0  0  0  0  0  0  0
   45.7920   32.4499   43.6263 H   0  0  0  0  0  0  0  0  0  0  0  0
   44.1437   36.3106   42.9129 H   0  0  0  0  0  0  0  0  0  0  0  0
   44.9023   34.9939   46.8671 H   0  0  0  0  0  0  0  0  0  0  0  0
   44.6235   32.0909   42.4213 H   0  0  0  0  0  0  0  0  0  0  0  0
   43.7836   32.4669   40.8786 H   0  0  0  0  0  0  0  0  0  0  0  0
   45.5436   32.1074   40.8786 H   0  0  0  0  0  0  0  0  0  0  0  0
   43.9301   35.7741   41.3129 H   0  0  0  0  0  0  0  0  0  0  0  0
   44.8003   34.9894   39.8523 H   0  0  0  0  0  0  0  0  0  0  0  0
   43.0805   33.2459   39.9457 H   0  0  0  0  0  0  0  0  0  0  0  0
   42.7573   36.1204   39.1371 H   0  0  0  0  0  0  0  0  0  0  0  0
   42.7548   34.6149   38.1333 H   0  0  0  0  0  0  0  0  0  0  0  0
   40.5410   35.5878   38.0847 H   0  0  0  0  0  0  0  0  0  0  0  0
   40.5221   34.0597   39.0819 H   0  0  0  0  0  0  0  0  0  0  0  0
   40.0085   36.8612   39.8597 H   0  0  0  0  0  0  0  0  0  0  0  0
   39.3285   35.3469   40.4898 H   0  0  0  0  0  0  0  0  0  0  0  0
   42.1036   36.5695   41.0545 H   0  0  0  0  0  0  0  0  0  0  0  0
   40.8807   36.1394   42.2461 H   0  0  0  0  0  0  0  0  0  0  0  0
   42.3223   34.2948   42.2757 H   0  0  0  0  0  0  0  0  0  0  0  0
   40.2025   32.8158   42.4491 H   0  0  0  0  0  0  0  0  0  0  0  0
   46.8476   35.1501   41.4469 H   0  0  0  0  0  0  0  0  0  0  0  0
   47.0077   33.3296   41.7420 H   0  0  0  0  0  0  0  0  0  0  0  0
   48.6273   34.9472   39.8464 H   0  0  0  0  0  0  0  0  0  0  0  0
   49.2003   34.6159   37.4948 H   0  0  0  0  0  0  0  0  0  0  0  0
   45.5637   32.4669   37.0291 H   0  0  0  0  0  0  0  0  0  0  0  0
  1  9  1  6
  1  3  1  0
  2  7  2  0
  3  4  2  0
  3  2  1  0
  4  5  1  0
  5  6  2  0
  7  6  1  0
  8  1  1  0
 10  9  1  0
 10 15  1  0
 11 10  1  0
 12 11  1  0
 12 13  1  0
 13 14  1  0
 14 15  1  0
 16 15  1  0
 17  1  1  0
 18 17  1  0
 19 18  2  0
 20 19  1  0
 21 22  1  0
 21 20  2  0
 22 23  2  0
 23 18  1  0
  2 24  1  0
  4 25  1  0
  6 26  1  0
  8 27  1  0
  8 28  1  0
  8 29  1  0
  9 30  1  0
  9 31  1  0
 10 32  1  6
 11 33  1  0
 11 34  1  0
 12 35  1  0
 12 36  1  0
 13 37  1  0
 13 38  1  0
 14 39  1  0
 14 40  1  0
 15 41  1  1
 16 42  1  0
 17 43  1  0
 17 44  1  0
 19 45  1  0
 20 46  1  0
 22 47  1  0
M  ISO  8  24  14  25  14  26  14  27   8  28   8  29   8  30   8  31   8
M  ISO  8  32  13  33  13  34  13  35  13  36  13  37  13  38  13  39  13
M  ISO  8  40  13  41  13  42  11  43   8  44   8  45  14  46  14  47  14
M  END
>  <minimizedAffinity>  (1) 
-5.78637409

>  <minimizedRMSD>  (1) 
0.426773995

$$$$
