
     RDKit          3D

 47 49  0  0  1  0  0  0  0  0999 V2000
   44.9430   34.0070   41.6030 C   0  0  1  0  0  0  0  0  0  0  0  0
   45.3940   33.3830   43.9650 C   0  0  0  0  0  0  0  0  0  0  0  0
   44.9270   34.3250   43.0330 C   0  0  0  0  0  0  0  0  0  0  0  0
   44.4900   35.4920   43.5670 C   0  0  0  0  0  0  0  0  0  0  0  0
   44.5050   35.7190   44.8960 N   0  0  0  0  0  0  0  0  0  0  0  0
   44.9620   34.7850   45.7530 C   0  0  0  0  0  0  0  0  0  0  0  0
   45.4030   33.6230   45.2780 N   0  0  0  0  0  0  0  0  0  0  0  0
   44.6230   32.5380   41.4360 C   0  0  0  0  0  0  0  0  0  0  0  0
   44.1250   34.8430   40.7540 C   0  0  0  0  0  0  0  0  0  0  0  0
   42.8250   34.3010   40.2150 C   0  0  2  0  0  0  0  0  0  0  0  0
   42.3190   35.1200   39.0580 C   0  0  0  0  0  0  0  0  0  0  0  0
   40.7900   35.1450   39.0290 C   0  0  0  0  0  0  0  0  0  0  0  0
   40.1850   35.8400   40.1980 C   0  0  0  0  0  0  0  0  0  0  0  0
   41.2550   35.8410   41.3020 C   0  0  0  0  0  0  0  0  0  0  0  0
   41.7770   34.4320   41.2970 C   0  0  1  0  0  0  0  0  0  0  0  0
   40.5050   33.1780   41.1490 S   0  0  0  0  0  0  0  0  0  0  0  0
   46.4080   34.0640   41.1420 C   0  0  0  0  0  0  0  0  0  0  0  0
   46.5970   33.7620   39.7230 C   0  0  0  0  0  0  0  0  0  0  0  0
   47.8220   34.3340   39.3500 C   0  0  0  0  0  0  0  0  0  0  0  0
   48.3230   34.2380   38.0450 C   0  0  0  0  0  0  0  0  0  0  0  0
   47.6070   33.5700   37.0980 N   0  0  0  0  0  0  0  0  0  0  0  0
   46.4400   33.0460   37.5290 C   0  0  0  0  0  0  0  0  0  0  0  0
   45.9200   33.1100   38.7620 N   0  0  0  0  0  0  0  0  0  0  0  0
   45.7651   32.4140   43.5999 H   0  0  0  0  0  0  0  0  0  0  0  0
   44.1118   36.2772   42.8959 H   0  0  0  0  0  0  0  0  0  0  0  0
   44.9704   34.9814   46.8353 H   0  0  0  0  0  0  0  0  0  0  0  0
   44.5211   32.0701   42.4263 H   0  0  0  0  0  0  0  0  0  0  0  0
   43.6801   32.4290   40.8801 H   0  0  0  0  0  0  0  0  0  0  0  0
   45.4352   32.0467   40.8801 H   0  0  0  0  0  0  0  0  0  0  0  0
   43.8806   35.7460   41.3327 H   0  0  0  0  0  0  0  0  0  0  0  0
   44.7419   34.9822   39.8539 H   0  0  0  0  0  0  0  0  0  0  0  0
   43.0004   33.2630   39.8960 H   0  0  0  0  0  0  0  0  0  0  0  0
   42.6935   36.1497   39.1556 H   0  0  0  0  0  0  0  0  0  0  0  0
   42.6791   34.6649   38.1235 H   0  0  0  0  0  0  0  0  0  0  0  0
   40.4676   35.6606   38.1124 H   0  0  0  0  0  0  0  0  0  0  0  0
   40.4488   34.0998   39.0620 H   0  0  0  0  0  0  0  0  0  0  0  0
   39.9143   36.8718   39.9292 H   0  0  0  0  0  0  0  0  0  0  0  0
   39.2670   35.3343   40.5320 H   0  0  0  0  0  0  0  0  0  0  0  0
   42.0572   36.5569   41.0695 H   0  0  0  0  0  0  0  0  0  0  0  0
   40.8553   36.1429   42.2813 H   0  0  0  0  0  0  0  0  0  0  0  0
   42.2283   34.2443   42.2825 H   0  0  0  0  0  0  0  0  0  0  0  0
   40.1050   32.7836   42.3985 H   0  0  0  0  0  0  0  0  0  0  0  0
   46.7921   35.0767   41.3344 H   0  0  0  0  0  0  0  0  0  0  0  0
   46.9499   33.2913   41.7070 H   0  0  0  0  0  0  0  0  0  0  0  0
   48.4086   34.8757   40.1066 H   0  0  0  0  0  0  0  0  0  0  0  0
   49.2879   34.6989   37.7870 H   0  0  0  0  0  0  0  0  0  0  0  0
   45.8460   32.5024   36.7795 H   0  0  0  0  0  0  0  0  0  0  0  0
  1  9  1  6
  1  3  1  0
  2  7  2  0
  3  4  2  0
  3  2  1  0
  4  5  1  0
  5  6  2  0
  7  6  1  0
  8  1  1  0
 10  9  1  0
 10 15  1  0
 11 10  1  0
 12 11  1  0
 12 13  1  0
 13 14  1  0
 15 14  1  0
 16 15  1  0
 17  1  1  0
 18 17  1  0
 19 18  2  0
 20 19  1  0
 21 22  1  0
 21 20  2  0
 22 23  2  0
 23 18  1  0
  2 24  1  0
  4 25  1  0
  6 26  1  0
  8 27  1  0
  8 28  1  0
  8 29  1  0
  9 30  1  0
  9 31  1  0
 10 32  1  6
 11 33  1  0
 11 34  1  0
 12 35  1  0
 12 36  1  0
 13 37  1  0
 13 38  1  0
 14 39  1  0
 14 40  1  0
 15 41  1  1
 16 42  1  0
 17 43  1  0
 17 44  1  0
 19 45  1  0
 20 46  1  0
 22 47  1  0
M  ISO  8  24  14  25  14  26  14  27   8  28   8  29   8  30   8  31   8
M  ISO  8  32  13  33  13  34  13  35  13  36  13  37  13  38  13  39  13
M  ISO  8  40  13  41  13  42  11  43   8  44   8  45  14  46  14  47  14
M  END
>  <minimizedAffinity>  (1) 
-5.77755308

>  <minimizedRMSD>  (1) 
0.395867884

$$$$
