
     RDKit          3D

 46 48  0  0  1  0  0  0  0  0999 V2000
   44.9660   34.0830   41.5960 C   0  0  1  0  0  0  0  0  0  0  0  0
   45.3930   33.4210   43.9530 C   0  0  0  0  0  0  0  0  0  0  0  0
   44.9310   34.3940   43.0300 C   0  0  0  0  0  0  0  0  0  0  0  0
   44.4940   35.5540   43.5960 C   0  0  0  0  0  0  0  0  0  0  0  0
   44.5090   35.7340   44.9300 N   0  0  0  0  0  0  0  0  0  0  0  0
   44.9540   34.7890   45.7650 C   0  0  0  0  0  0  0  0  0  0  0  0
   45.3940   33.6340   45.2700 N   0  0  0  0  0  0  0  0  0  0  0  0
   44.7000   32.6270   41.4160 C   0  0  0  0  0  0  0  0  0  0  0  0
   44.1060   34.9310   40.7760 C   0  0  0  0  0  0  0  0  0  0  0  0
   42.8360   34.3320   40.2320 C   0  0  2  0  0  0  0  0  0  0  0  0
   42.3160   35.1230   39.0600 C   0  0  0  0  0  0  0  0  0  0  0  0
   40.7870   35.1090   39.0230 C   0  0  0  0  0  0  0  0  0  0  0  0
   40.1610   35.8080   40.1850 C   0  0  0  0  0  0  0  0  0  0  0  0
   41.2170   35.8380   41.2990 C   0  0  0  0  0  0  0  0  0  0  0  0
   41.7820   34.4520   41.3030 C   0  0  1  0  0  0  0  0  0  0  0  0
   40.5430   33.1680   41.1680 S   0  0  0  0  0  0  0  0  0  0  0  0
   46.4300   34.2310   41.1510 C   0  0  0  0  0  0  0  0  0  0  0  0
   46.7270   33.8690   39.7870 C   0  0  0  0  0  0  0  0  0  0  0  0
   46.3250   33.1270   38.7000 C   0  0  0  0  0  0  0  0  0  0  0  0
   47.1760   33.3140   37.6480 N   0  0  0  0  0  0  0  0  0  0  0  0
   48.1140   34.1740   38.0750 C   0  0  0  0  0  0  0  0  0  0  0  0
   47.8560   34.5090   39.3420 N   0  0  0  0  0  0  0  0  0  0  0  0
   45.7629   32.4585   43.5700 H   0  0  0  0  0  0  0  0  0  0  0  0
   44.1207   36.3611   42.9485 H   0  0  0  0  0  0  0  0  0  0  0  0
   44.9565   34.9643   46.8509 H   0  0  0  0  0  0  0  0  0  0  0  0
   44.6121   32.1458   42.4012 H   0  0  0  0  0  0  0  0  0  0  0  0
   43.7623   32.4919   40.8570 H   0  0  0  0  0  0  0  0  0  0  0  0
   45.5294   32.1691   40.8570 H   0  0  0  0  0  0  0  0  0  0  0  0
   43.8221   35.7992   41.3889 H   0  0  0  0  0  0  0  0  0  0  0  0
   44.7094   35.1540   39.8837 H   0  0  0  0  0  0  0  0  0  0  0  0
   43.0438   33.2954   39.9282 H   0  0  0  0  0  0  0  0  0  0  0  0
   42.6641   36.1630   39.1453 H   0  0  0  0  0  0  0  0  0  0  0  0
   42.6927   34.6648   38.1337 H   0  0  0  0  0  0  0  0  0  0  0  0
   40.4557   35.6039   38.0982 H   0  0  0  0  0  0  0  0  0  0  0  0
   40.4699   34.0566   39.0668 H   0  0  0  0  0  0  0  0  0  0  0  0
   39.8769   36.8327   39.9035 H   0  0  0  0  0  0  0  0  0  0  0  0
   39.2494   35.2891   40.5162 H   0  0  0  0  0  0  0  0  0  0  0  0
   41.9995   36.5781   41.0756 H   0  0  0  0  0  0  0  0  0  0  0  0
   40.7950   36.1250   42.2735 H   0  0  0  0  0  0  0  0  0  0  0  0
   42.2449   34.2911   42.2878 H   0  0  0  0  0  0  0  0  0  0  0  0
   40.1591   32.7702   42.4215 H   0  0  0  0  0  0  0  0  0  0  0  0
   46.7160   35.2844   41.2872 H   0  0  0  0  0  0  0  0  0  0  0  0
   46.9963   33.5204   41.7710 H   0  0  0  0  0  0  0  0  0  0  0  0
   45.4404   32.4735   38.6809 H   0  0  0  0  0  0  0  0  0  0  0  0
   48.9600   34.5438   37.4770 H   0  0  0  0  0  0  0  0  0  0  0  0
   48.4247   35.1568   39.9057 H   0  0  0  0  0  0  0  0  0  0  0  0
  1  9  1  6
  1  3  1  0
  2  7  2  0
  3  4  2  0
  3  2  1  0
  4  5  1  0
  5  6  2  0
  7  6  1  0
  8  1  1  0
 10  9  1  0
 10 15  1  0
 11 10  1  0
 12 11  1  0
 12 13  1  0
 13 14  1  0
 14 15  1  0
 16 15  1  0
 17  1  1  0
 18 17  1  0
 19 18  2  0
 20 21  2  0
 20 19  1  0
 21 22  1  0
 22 18  1  0
  2 23  1  0
  4 24  1  0
  6 25  1  0
  8 26  1  0
  8 27  1  0
  8 28  1  0
  9 29  1  0
  9 30  1  0
 10 31  1  6
 11 32  1  0
 11 33  1  0
 12 34  1  0
 12 35  1  0
 13 36  1  0
 13 37  1  0
 14 38  1  0
 14 39  1  0
 15 40  1  1
 16 41  1  0
 17 42  1  0
 17 43  1  0
 19 44  1  0
 21 45  1  0
 22 46  1  0
M  ISO  8  23  14  24  14  25  14  26   8  27   8  28   8  29   8  30   8
M  ISO  8  31  13  32  13  33  13  34  13  35  13  36  13  37  13  38  13
M  ISO  8  39  13  40  13  41  11  42   8  43   8  44  14  45  14  46   9
M  END
>  <minimizedAffinity>  (1) 
-5.67834282

>  <minimizedRMSD>  (1) 
0.348241717

$$$$
