
     RDKit          3D

 51 53  0  0  1  0  0  0  0  0999 V2000
   44.6120   33.7710   41.7530 C   0  0  1  0  0  0  0  0  0  0  0  0
   45.2700   33.2810   44.0840 C   0  0  0  0  0  0  0  0  0  0  0  0
   44.7030   34.1730   43.1380 C   0  0  0  0  0  0  0  0  0  0  0  0
   44.3010   35.3750   43.6120 C   0  0  0  0  0  0  0  0  0  0  0  0
   44.4510   35.6700   44.9360 N   0  0  0  0  0  0  0  0  0  0  0  0
   44.9940   34.7980   45.8050 C   0  0  0  0  0  0  0  0  0  0  0  0
   45.4030   33.6050   45.3750 N   0  0  0  0  0  0  0  0  0  0  0  0
   43.9940   32.3740   41.6860 C   0  0  0  0  0  0  0  0  0  0  0  0
   43.9020   34.6690   40.8430 C   0  0  0  0  0  0  0  0  0  0  0  0
   42.5510   34.2750   40.3150 C   0  0  2  0  0  0  0  0  0  0  0  0
   42.1350   35.1400   39.1580 C   0  0  0  0  0  0  0  0  0  0  0  0
   40.6310   35.3400   39.1090 C   0  0  0  0  0  0  0  0  0  0  0  0
   40.1110   36.1050   40.2740 C   0  0  0  0  0  0  0  0  0  0  0  0
   41.1390   35.9560   41.4030 C   0  0  0  0  0  0  0  0  0  0  0  0
   41.5150   34.5080   41.3840 C   0  0  1  0  0  0  0  0  0  0  0  0
   40.1150   33.4170   41.2320 S   0  0  0  0  0  0  0  0  0  0  0  0
   46.0090   33.4810   41.2200 C   0  0  0  0  0  0  0  0  0  0  0  0
   46.8160   34.5860   40.8430 N   0  0  0  0  0  0  0  0  0  0  0  0
   47.8160   34.1840   39.8500 C   0  0  0  0  0  0  0  0  0  0  0  0
   49.0470   33.9700   40.6850 C   0  0  0  0  0  0  0  0  0  0  0  0
   49.0240   35.2700   41.4940 C   0  0  0  0  0  0  0  0  0  0  0  0
   47.5430   35.2250   41.9230 C   0  0  0  0  0  0  0  0  0  0  0  0
   45.6111   32.2916   43.7453 H   0  0  0  0  0  0  0  0  0  0  0  0
   43.8537   36.1137   42.9307 H   0  0  0  0  0  0  0  0  0  0  0  0
   45.0998   35.0688   46.8659 H   0  0  0  0  0  0  0  0  0  0  0  0
   43.8274   31.9974   42.7060 H   0  0  0  0  0  0  0  0  0  0  0  0
   43.0336   32.4231   41.1519 H   0  0  0  0  0  0  0  0  0  0  0  0
   44.6764   31.6964   41.1519 H   0  0  0  0  0  0  0  0  0  0  0  0
   43.7716   35.6237   41.3735 H   0  0  0  0  0  0  0  0  0  0  0  0
   44.5364   34.6788   39.9444 H   0  0  0  0  0  0  0  0  0  0  0  0
   42.6205   33.2216   40.0059 H   0  0  0  0  0  0  0  0  0  0  0  0
   42.6208   36.1220   39.2562 H   0  0  0  0  0  0  0  0  0  0  0  0
   42.4410   34.6356   38.2296 H   0  0  0  0  0  0  0  0  0  0  0  0
   40.3795   35.8877   38.1888 H   0  0  0  0  0  0  0  0  0  0  0  0
   40.1644   34.3442   39.1329 H   0  0  0  0  0  0  0  0  0  0  0  0
   39.9936   37.1657   40.0075 H   0  0  0  0  0  0  0  0  0  0  0  0
   39.1271   35.7246   40.5860 H   0  0  0  0  0  0  0  0  0  0  0  0
   42.0189   36.5880   41.2126 H   0  0  0  0  0  0  0  0  0  0  0  0
   40.7360   36.2691   42.3775 H   0  0  0  0  0  0  0  0  0  0  0  0
   41.9521   34.2570   42.3617 H   0  0  0  0  0  0  0  0  0  0  0  0
   39.6692   33.0696   42.4800 H   0  0  0  0  0  0  0  0  0  0  0  0
   46.5512   32.9307   42.0031 H   0  0  0  0  0  0  0  0  0  0  0  0
   45.8392   32.9296   40.2834 H   0  0  0  0  0  0  0  0  0  0  0  0
   47.9756   34.9773   39.1049 H   0  0  0  0  0  0  0  0  0  0  0  0
   47.5225   33.2958   39.2713 H   0  0  0  0  0  0  0  0  0  0  0  0
   48.9582   33.0828   41.3292 H   0  0  0  0  0  0  0  0  0  0  0  0
   49.9723   33.7831   40.1204 H   0  0  0  0  0  0  0  0  0  0  0  0
   49.7088   35.2383   42.3543 H   0  0  0  0  0  0  0  0  0  0  0  0
   49.3466   36.1771   40.9620 H   0  0  0  0  0  0  0  0  0  0  0  0
   47.1637   36.2449   42.0841 H   0  0  0  0  0  0  0  0  0  0  0  0
   47.4204   34.6706   42.8651 H   0  0  0  0  0  0  0  0  0  0  0  0
  1  9  1  6
  1  3  1  0
  2  7  2  0
  3  4  2  0
  3  2  1  0
  4  5  1  0
  5  6  2  0
  7  6  1  0
  8  1  1  0
 10  9  1  0
 10 15  1  0
 11 10  1  0
 12 11  1  0
 12 13  1  0
 13 14  1  0
 15 14  1  0
 16 15  1  0
 17  1  1  0
 18 17  1  0
 18 22  1  0
 19 20  1  0
 19 18  1  0
 20 21  1  0
 21 22  1  0
  2 23  1  0
  4 24  1  0
  6 25  1  0
  8 26  1  0
  8 27  1  0
  8 28  1  0
  9 29  1  0
  9 30  1  0
 10 31  1  6
 11 32  1  0
 11 33  1  0
 12 34  1  0
 12 35  1  0
 13 36  1  0
 13 37  1  0
 14 38  1  0
 14 39  1  0
 15 40  1  1
 16 41  1  0
 17 42  1  0
 17 43  1  0
 19 44  1  0
 19 45  1  0
 20 46  1  0
 20 47  1  0
 21 48  1  0
 21 49  1  0
 22 50  1  0
 22 51  1  0
M  ISO  8  23  14  24  14  25  14  26   8  27   8  28   8  29   8  30   8
M  ISO  8  31  13  32  13  33  13  34  13  35  13  36  13  37  13  38  13
M  ISO  8  39  13  40  13  41  11  42   8  43   8  44  13  45  13  46  13
M  ISO  5  47  13  48  13  49  13  50  13  51  13
M  END
>  <minimizedAffinity>  (1) 
-5.59664631

>  <minimizedRMSD>  (1) 
0.816456258

$$$$
