
     RDKit          3D

 40 41  0  0  1  0  0  0  0  0999 V2000
   46.5120   35.0640   42.9350 C   0  0  0  0  0  0  0  0  0  0  0  0
   46.5630   34.9970   41.5020 N   0  0  0  0  0  0  0  0  0  0  0  0
   45.5350   34.1750   41.0330 C   0  0  0  0  0  0  0  0  0  0  0  0
   45.9770   33.0390   40.1740 C   0  0  0  0  0  0  0  0  0  0  0  0
   47.2870   32.4360   40.4620 C   0  0  0  0  0  0  0  0  0  0  0  0
   48.1790   33.2720   41.3260 C   0  0  0  0  0  0  0  0  0  0  0  0
   47.8910   34.7110   41.0730 C   0  0  2  0  0  0  0  0  0  0  0  0
   48.9320   35.5320   41.7530 C   0  0  0  0  0  0  0  0  0  0  0  0
   49.9970   34.7320   42.4270 C   0  0  0  0  0  0  0  0  0  0  0  0
   45.1950   34.5930   43.5220 C   0  0  1  0  0  0  0  0  0  0  0  0
   45.4870   33.8580   45.9520 C   0  0  0  0  0  0  0  0  0  0  0  0
   45.4850   33.5930   44.5590 C   0  0  0  0  0  0  0  0  0  0  0  0
   45.7930   32.2980   44.1520 C   0  0  0  0  0  0  0  0  0  0  0  0
   46.0800   31.3550   45.0810 N   0  0  0  0  0  0  0  0  0  0  0  0
   46.0750   31.6370   46.4040 C   0  0  0  0  0  0  0  0  0  0  0  0
   45.7750   32.9080   46.8450 N   0  0  0  0  0  0  0  0  0  0  0  0
   44.5150   35.7980   44.1400 C   0  0  0  0  0  0  0  0  0  0  0  0
   46.6740   36.1085   43.2396 H   0  0  0  0  0  0  0  0  0  0  0  0
   47.2928   34.3893   43.3159 H   0  0  0  0  0  0  0  0  0  0  0  0
   45.0071   33.7588   41.9037 H   0  0  0  0  0  0  0  0  0  0  0  0
   44.8994   34.8102   40.3986 H   0  0  0  0  0  0  0  0  0  0  0  0
   46.0032   33.4023   39.1361 H   0  0  0  0  0  0  0  0  0  0  0  0
   45.2508   32.2378   40.3757 H   0  0  0  0  0  0  0  0  0  0  0  0
   47.1186   31.4752   40.9704 H   0  0  0  0  0  0  0  0  0  0  0  0
   47.8005   32.3271   39.4953 H   0  0  0  0  0  0  0  0  0  0  0  0
   47.9908   33.0390   42.3844 H   0  0  0  0  0  0  0  0  0  0  0  0
   49.2317   33.0571   41.0901 H   0  0  0  0  0  0  0  0  0  0  0  0
   47.9374   34.9587   40.0023 H   0  0  0  0  0  0  0  0  0  0  0  0
   49.4090   36.1770   41.0004 H   0  0  0  0  0  0  0  0  0  0  0  0
   48.4196   36.1040   42.5405 H   0  0  0  0  0  0  0  0  0  0  0  0
   49.8842   34.8167   43.5179 H   0  0  0  0  0  0  0  0  0  0  0  0
   49.9064   33.6768   42.1299 H   0  0  0  0  0  0  0  0  0  0  0  0
   50.9852   35.1130   42.1299 H   0  0  0  0  0  0  0  0  0  0  0  0
   44.5448   34.1448   42.7562 H   0  0  0  0  0  0  0  0  0  0  0  0
   45.2453   34.8712   46.3057 H   0  0  0  0  0  0  0  0  0  0  0  0
   45.8033   32.0420   43.0823 H   0  0  0  0  0  0  0  0  0  0  0  0
   46.3118   30.8473   47.1322 H   0  0  0  0  0  0  0  0  0  0  0  0
   44.5583   35.7212   45.2365 H   0  0  0  0  0  0  0  0  0  0  0  0
   45.0287   36.7151   43.8161 H   0  0  0  0  0  0  0  0  0  0  0  0
   43.4643   35.8323   43.8161 H   0  0  0  0  0  0  0  0  0  0  0  0
  1 10  1  0
  2  1  1  0
  3  2  1  0
  4  5  1  0
  4  3  1  0
  5  6  1  0
  7  6  1  0
  7  2  1  0
  7  8  1  0
  8  9  1  0
 10 17  1  0
 10 12  1  0
 11 16  2  0
 12 11  1  0
 13 12  2  0
 13 14  1  0
 14 15  2  0
 15 16  1  0
  1 18  1  0
  1 19  1  0
  3 20  1  0
  3 21  1  0
  4 22  1  0
  4 23  1  0
  5 24  1  0
  5 25  1  0
  6 26  1  0
  6 27  1  0
  7 28  1  6
  8 29  1  0
  8 30  1  0
  9 31  1  0
  9 32  1  0
  9 33  1  0
 10 34  1  6
 11 35  1  0
 13 36  1  0
 15 37  1  0
 17 38  1  0
 17 39  1  0
 17 40  1  0
M  ISO  8  18   8  19   8  20  13  21  13  22  13  23  13  24  13  25  13
M  ISO  8  26  13  27  13  28  13  29   8  30   8  31   8  32   8  33   8
M  ISO  7  34   8  35  14  36  14  37  14  38   8  39   8  40   8
M  END
>  <minimizedAffinity>  (1) 
-4.54464006

>  <minimizedRMSD>  (1) 
2.39449263

$$$$
