
     RDKit          3D

 45 47  0  0  1  0  0  0  0  0999 V2000
   45.0760   34.5220   41.9750 C   0  0  1  0  0  0  0  0  0  0  0  0
   45.5490   33.3650   44.1000 C   0  0  0  0  0  0  0  0  0  0  0  0
   45.0590   34.4840   43.4140 C   0  0  0  0  0  0  0  0  0  0  0  0
   44.5840   35.4820   44.1970 C   0  0  0  0  0  0  0  0  0  0  0  0
   44.5820   35.4060   45.5470 N   0  0  0  0  0  0  0  0  0  0  0  0
   45.0690   34.2990   46.1650 C   0  0  0  0  0  0  0  0  0  0  0  0
   45.5530   33.2750   45.4310 N   0  0  0  0  0  0  0  0  0  0  0  0
   45.1910   33.1190   41.4200 C   0  0  0  0  0  0  0  0  0  0  0  0
   44.0200   35.2560   41.3030 C   0  0  0  0  0  0  0  0  0  0  0  0
   42.9140   34.4890   40.6090 C   0  0  2  0  0  0  0  0  0  0  0  0
   42.5150   35.1380   39.3070 C   0  0  0  0  0  0  0  0  0  0  0  0
   41.0230   34.9450   39.0310 C   0  0  0  0  0  0  0  0  0  0  0  0
   40.1470   35.6340   40.0020 C   0  0  0  0  0  0  0  0  0  0  0  0
   40.9900   35.8620   41.2630 C   0  0  0  0  0  0  0  0  0  0  0  0
   41.6860   34.5520   41.4780 C   0  0  1  0  0  0  0  0  0  0  0  0
   40.6280   33.1170   41.2580 S   0  0  0  0  0  0  0  0  0  0  0  0
   46.4460   35.0980   41.5200 C   0  0  0  0  0  0  0  0  0  0  0  0
   47.3560   34.0650   41.0230 C   0  0  0  0  0  0  0  0  0  0  0  0
   47.5000   33.9060   39.5420 C   0  0  0  0  0  0  0  0  0  0  0  0
   48.6760   32.5490   39.3660 S   0  0  0  0  0  0  0  0  0  0  0  0
   48.8110   32.3840   41.2540 C   0  0  0  0  0  0  0  0  0  0  0  0
   48.1210   33.1780   41.6440 N   0  0  0  0  0  0  0  0  0  0  0  0
   45.9482   32.5232   43.5151 H   0  0  0  0  0  0  0  0  0  0  0  0
   44.1851   36.3878   43.7169 H   0  0  0  0  0  0  0  0  0  0  0  0
   45.0690   34.2370   47.2633 H   0  0  0  0  0  0  0  0  0  0  0  0
   45.2499   32.3999   42.2503 H   0  0  0  0  0  0  0  0  0  0  0  0
   44.3082   32.8952   40.8031 H   0  0  0  0  0  0  0  0  0  0  0  0
   46.0985   33.0420   40.8031 H   0  0  0  0  0  0  0  0  0  0  0  0
   43.5419   35.8959   42.0592 H   0  0  0  0  0  0  0  0  0  0  0  0
   44.5399   35.7680   40.4799 H   0  0  0  0  0  0  0  0  0  0  0  0
   43.2792   33.4671   40.4290 H   0  0  0  0  0  0  0  0  0  0  0  0
   42.7344   36.2146   39.3600 H   0  0  0  0  0  0  0  0  0  0  0  0
   43.0851   34.6673   38.4925 H   0  0  0  0  0  0  0  0  0  0  0  0
   40.8021   35.3344   38.0262 H   0  0  0  0  0  0  0  0  0  0  0  0
   40.8159   33.8682   39.1176 H   0  0  0  0  0  0  0  0  0  0  0  0
   39.8084   36.5969   39.5919 H   0  0  0  0  0  0  0  0  0  0  0  0
   39.2515   35.0353   40.2248 H   0  0  0  0  0  0  0  0  0  0  0  0
   41.7190   36.6704   41.1047 H   0  0  0  0  0  0  0  0  0  0  0  0
   40.3824   36.1648   42.1285 H   0  0  0  0  0  0  0  0  0  0  0  0
   41.9843   34.5102   42.5359 H   0  0  0  0  0  0  0  0  0  0  0  0
   40.2652   32.6249   42.4840 H   0  0  0  0  0  0  0  0  0  0  0  0
   46.2712   35.8290   40.7169 H   0  0  0  0  0  0  0  0  0  0  0  0
   46.9188   35.5631   42.3975 H   0  0  0  0  0  0  0  0  0  0  0  0
   47.0046   34.4819   38.7465 H   0  0  0  0  0  0  0  0  0  0  0  0
   49.4232   31.6749   41.8305 H   0  0  0  0  0  0  0  0  0  0  0  0
  1  9  1  6
  1  3  1  0
  2  7  2  0
  3  2  1  0
  3  4  2  0
  4  5  1  0
  5  6  2  0
  7  6  1  0
  8  1  1  0
 10  9  1  0
 10 15  1  0
 11 10  1  0
 12 11  1  0
 12 13  1  0
 13 14  1  0
 14 15  1  0
 16 15  1  0
 17  1  1  0
 18 17  1  0
 18 22  1  0
 19 18  2  0
 20 19  1  0
 20 21  1  0
 21 22  2  0
  2 23  1  0
  4 24  1  0
  6 25  1  0
  8 26  1  0
  8 27  1  0
  8 28  1  0
  9 29  1  0
  9 30  1  0
 10 31  1  6
 11 32  1  0
 11 33  1  0
 12 34  1  0
 12 35  1  0
 13 36  1  0
 13 37  1  0
 14 38  1  0
 14 39  1  0
 15 40  1  1
 16 41  1  0
 17 42  1  0
 17 43  1  0
 19 44  1  0
 21 45  1  0
M  ISO  8  23  14  24  14  25  14  26   8  27   8  28   8  29   8  30   8
M  ISO  8  31  13  32  13  33  13  34  13  35  13  36  13  37  13  38  13
M  ISO  7  39  13  40  13  41  11  42   8  43   8  44  14  45  14
M  END
>  <minimizedAffinity>  (1) 
-5.37557173

>  <minimizedRMSD>  (1) 
1.07212853

$$$$
