
     RDKit          3D

 40 41  0  0  1  0  0  0  0  0999 V2000
   44.0230   34.7890   40.8450 C   0  0  0  0  0  0  0  0  0  0  0  0
   42.7070   34.3220   40.2710 C   0  0  2  0  0  0  0  0  0  0  0  0
   42.2630   35.2090   39.1360 C   0  0  0  0  0  0  0  0  0  0  0  0
   40.7390   35.3120   39.0800 C   0  0  0  0  0  0  0  0  0  0  0  0
   40.1450   35.9950   40.2650 C   0  0  0  0  0  0  0  0  0  0  0  0
   41.1880   35.8970   41.3860 C   0  0  0  0  0  0  0  0  0  0  0  0
   41.6480   34.4720   41.3290 C   0  0  1  0  0  0  0  0  0  0  0  0
   40.3170   33.2840   41.1180 S   0  0  0  0  0  0  0  0  0  0  0  0
   44.7790   33.8820   41.6800 C   0  0  1  0  0  0  0  0  0  0  0  0
   45.4020   33.2340   43.9820 C   0  0  0  0  0  0  0  0  0  0  0  0
   44.8620   34.1750   43.0910 C   0  0  0  0  0  0  0  0  0  0  0  0
   44.4460   35.3310   43.6600 C   0  0  0  0  0  0  0  0  0  0  0  0
   44.5430   35.5600   44.9880 N   0  0  0  0  0  0  0  0  0  0  0  0
   45.0730   34.6160   45.8080 C   0  0  0  0  0  0  0  0  0  0  0  0
   45.4980   33.4600   45.2930 N   0  0  0  0  0  0  0  0  0  0  0  0
   44.3240   32.4450   41.4890 C   0  0  0  0  0  0  0  0  0  0  0  0
   46.2340   33.7710   41.1390 C   0  0  0  0  0  0  0  0  0  0  0  0
   47.2600   35.1100   41.8420 S   0  0  0  0  0  0  0  0  0  0  0  0
   44.6678   35.0609   39.9963 H   0  0  0  0  0  0  0  0  0  0  0  0
   43.7418   35.6060   41.5257 H   0  0  0  0  0  0  0  0  0  0  0  0
   42.8388   33.2853   39.9275 H   0  0  0  0  0  0  0  0  0  0  0  0
   42.6857   36.2143   39.2795 H   0  0  0  0  0  0  0  0  0  0  0  0
   42.6179   34.7708   38.1915 H   0  0  0  0  0  0  0  0  0  0  0  0
   40.4611   35.8761   38.1775 H   0  0  0  0  0  0  0  0  0  0  0  0
   40.3455   34.2848   39.0677 H   0  0  0  0  0  0  0  0  0  0  0  0
   39.9348   37.0492   40.0314 H   0  0  0  0  0  0  0  0  0  0  0  0
   39.1944   35.5273   40.5612 H   0  0  0  0  0  0  0  0  0  0  0  0
   42.0256   36.5860   41.2022 H   0  0  0  0  0  0  0  0  0  0  0  0
   40.7794   36.1711   42.3698 H   0  0  0  0  0  0  0  0  0  0  0  0
   42.0800   34.2334   42.3121 H   0  0  0  0  0  0  0  0  0  0  0  0
   39.8655   32.8810   42.3471 H   0  0  0  0  0  0  0  0  0  0  0  0
   45.7598   32.2732   43.5835 H   0  0  0  0  0  0  0  0  0  0  0  0
   44.0133   36.1122   43.0177 H   0  0  0  0  0  0  0  0  0  0  0  0
   45.1516   34.8027   46.8892 H   0  0  0  0  0  0  0  0  0  0  0  0
   44.1748   31.9739   42.4718 H   0  0  0  0  0  0  0  0  0  0  0  0
   43.3776   32.4315   40.9285 H   0  0  0  0  0  0  0  0  0  0  0  0
   45.0901   31.8892   40.9285 H   0  0  0  0  0  0  0  0  0  0  0  0
   46.6572   32.7973   41.4267 H   0  0  0  0  0  0  0  0  0  0  0  0
   46.2216   33.8605   40.0427 H   0  0  0  0  0  0  0  0  0  0  0  0
   47.2142   35.0502   43.2099 H   0  0  0  0  0  0  0  0  0  0  0  0
  2  1  1  0
  2  7  1  0
  3  2  1  0
  4  3  1  0
  4  5  1  0
  5  6  1  0
  7  6  1  0
  8  7  1  0
  9  1  1  6
  9 11  1  0
 10 15  2  0
 11 12  2  0
 11 10  1  0
 12 13  1  0
 13 14  2  0
 15 14  1  0
 16  9  1  0
 17  9  1  0
 17 18  1  0
  1 19  1  0
  1 20  1  0
  2 21  1  6
  3 22  1  0
  3 23  1  0
  4 24  1  0
  4 25  1  0
  5 26  1  0
  5 27  1  0
  6 28  1  0
  6 29  1  0
  7 30  1  1
  8 31  1  0
 10 32  1  0
 12 33  1  0
 14 34  1  0
 16 35  1  0
 16 36  1  0
 16 37  1  0
 17 38  1  0
 17 39  1  0
 18 40  1  0
M  ISO  8  19   8  20   8  21  13  22  13  23  13  24  13  25  13  26  13
M  ISO  8  27  13  28  13  29  13  30  13  31  11  32  14  33  14  34  14
M  ISO  6  35   8  36   8  37   8  38   8  39   8  40  11
M  END
>  <minimizedAffinity>  (1) 
-4.84818316

>  <minimizedRMSD>  (1) 
0.425299615

$$$$
