
     RDKit          3D

 40 41  0  0  1  0  0  0  0  0999 V2000
   43.9520   34.8490   40.7330 C   0  0  0  0  0  0  0  0  0  0  0  0
   42.6370   34.3270   40.2040 C   0  0  2  0  0  0  0  0  0  0  0  0
   42.1350   35.1620   39.0550 C   0  0  0  0  0  0  0  0  0  0  0  0
   40.6090   35.2270   39.0390 C   0  0  0  0  0  0  0  0  0  0  0  0
   40.0240   35.9160   40.2130 C   0  0  0  0  0  0  0  0  0  0  0  0
   41.0930   35.8810   41.3110 C   0  0  0  0  0  0  0  0  0  0  0  0
   41.6020   34.4780   41.2880 C   0  0  1  0  0  0  0  0  0  0  0  0
   40.2980   33.2610   41.1640 S   0  0  0  0  0  0  0  0  0  0  0  0
   44.7680   33.9850   41.5610 C   0  0  1  0  0  0  0  0  0  0  0  0
   45.3590   33.3260   43.8650 C   0  0  0  0  0  0  0  0  0  0  0  0
   44.8420   34.2770   42.9700 C   0  0  0  0  0  0  0  0  0  0  0  0
   44.4380   35.4390   43.5350 C   0  0  0  0  0  0  0  0  0  0  0  0
   44.5240   35.6690   44.8650 N   0  0  0  0  0  0  0  0  0  0  0  0
   45.0310   34.7160   45.6880 C   0  0  0  0  0  0  0  0  0  0  0  0
   45.4480   33.5420   45.1790 N   0  0  0  0  0  0  0  0  0  0  0  0
   44.3940   32.5260   41.3600 C   0  0  0  0  0  0  0  0  0  0  0  0
   46.2180   33.9690   40.9990 C   0  0  0  0  0  0  0  0  0  0  0  0
   46.9170   35.0710   41.4920 O   0  0  0  0  0  0  0  0  0  0  0  0
   44.5615   35.1299   39.8614 H   0  0  0  0  0  0  0  0  0  0  0  0
   43.6589   35.6643   41.4108 H   0  0  0  0  0  0  0  0  0  0  0  0
   42.7929   33.2861   39.8843 H   0  0  0  0  0  0  0  0  0  0  0  0
   42.5358   36.1818   39.1517 H   0  0  0  0  0  0  0  0  0  0  0  0
   42.4718   34.6979   38.1163 H   0  0  0  0  0  0  0  0  0  0  0  0
   40.2949   35.7629   38.1312 H   0  0  0  0  0  0  0  0  0  0  0  0
   40.2454   34.1891   39.0646 H   0  0  0  0  0  0  0  0  0  0  0  0
   39.7740   36.9565   39.9582 H   0  0  0  0  0  0  0  0  0  0  0  0
   39.0966   35.4249   40.5429 H   0  0  0  0  0  0  0  0  0  0  0  0
   41.9022   36.5924   41.0894 H   0  0  0  0  0  0  0  0  0  0  0  0
   40.6930   36.1661   42.2952 H   0  0  0  0  0  0  0  0  0  0  0  0
   42.0822   34.2787   42.2574 H   0  0  0  0  0  0  0  0  0  0  0  0
   39.8995   32.8891   42.4209 H   0  0  0  0  0  0  0  0  0  0  0  0
   45.7055   32.3614   43.4656 H   0  0  0  0  0  0  0  0  0  0  0  0
   44.0240   36.2261   42.8877 H   0  0  0  0  0  0  0  0  0  0  0  0
   45.1009   34.9031   46.7697 H   0  0  0  0  0  0  0  0  0  0  0  0
   44.2697   32.0411   42.3395 H   0  0  0  0  0  0  0  0  0  0  0  0
   43.4508   32.4634   40.7975 H   0  0  0  0  0  0  0  0  0  0  0  0
   45.1908   32.0174   40.7975 H   0  0  0  0  0  0  0  0  0  0  0  0
   46.1866   34.0155   39.9004 H   0  0  0  0  0  0  0  0  0  0  0  0
   46.7233   33.0431   41.3110 H   0  0  0  0  0  0  0  0  0  0  0  0
   46.9057   35.0531   42.4818 H   0  0  0  0  0  0  0  0  0  0  0  0
  2  1  1  0
  2  7  1  0
  3  2  1  0
  4  3  1  0
  4  5  1  0
  5  6  1  0
  7  6  1  0
  8  7  1  0
  9  1  1  6
  9 11  1  0
 10 15  2  0
 11 12  2  0
 11 10  1  0
 12 13  1  0
 13 14  2  0
 15 14  1  0
 16  9  1  0
 17 18  1  0
 17  9  1  0
  1 19  1  0
  1 20  1  0
  2 21  1  6
  3 22  1  0
  3 23  1  0
  4 24  1  0
  4 25  1  0
  5 26  1  0
  5 27  1  0
  6 28  1  0
  6 29  1  0
  7 30  1  1
  8 31  1  0
 10 32  1  0
 12 33  1  0
 14 34  1  0
 16 35  1  0
 16 36  1  0
 16 37  1  0
 17 38  1  0
 17 39  1  0
 18 40  1  0
M  ISO  8  19   8  20   8  21  13  22  13  23  13  24  13  25  13  26  13
M  ISO  8  27  13  28  13  29  13  30  13  31  11  32  14  33  14  34  14
M  ISO  6  35   8  36   8  37   8  38   8  39   8  40   3
M  END
>  <minimizedAffinity>  (1) 
-4.99555349

>  <minimizedRMSD>  (1) 
0.299342006

$$$$
