
     RDKit          3D

 51 54  0  0  1  0  0  0  0  0999 V2000
   44.4210   33.5250   41.4840 C   0  0  1  0  0  0  0  0  0  0  0  0
   45.2520   33.0900   43.7630 C   0  0  0  0  0  0  0  0  0  0  0  0
   44.6840   33.9490   42.8240 C   0  0  0  0  0  0  0  0  0  0  0  0
   44.4140   35.1800   43.2890 C   0  0  0  0  0  0  0  0  0  0  0  0
   44.6610   35.5760   44.5560 N   0  0  0  0  0  0  0  0  0  0  0  0
   45.2170   34.6900   45.4290 C   0  0  0  0  0  0  0  0  0  0  0  0
   45.5110   33.4400   45.0180 N   0  0  0  0  0  0  0  0  0  0  0  0
   43.6870   32.1820   41.5020 C   0  0  0  0  0  0  0  0  0  0  0  0
   43.7720   34.4240   40.5570 C   0  0  0  0  0  0  0  0  0  0  0  0
   42.3350   34.1440   40.1400 C   0  0  2  0  0  0  0  0  0  0  0  0
   41.9170   35.1240   39.0590 C   0  0  0  0  0  0  0  0  0  0  0  0
   40.4270   35.4290   39.1540 C   0  0  0  0  0  0  0  0  0  0  0  0
   40.0330   36.1270   40.3870 C   0  0  0  0  0  0  0  0  0  0  0  0
   41.1600   35.8820   41.4050 C   0  0  0  0  0  0  0  0  0  0  0  0
   41.4330   34.4240   41.3020 C   0  0  1  0  0  0  0  0  0  0  0  0
   39.9350   33.4360   41.2280 S   0  0  0  0  0  0  0  0  0  0  0  0
   45.7660   33.0450   40.8650 C   0  0  0  0  0  0  0  0  0  0  0  0
   46.5770   34.1670   40.6430 O   0  0  0  0  0  0  0  0  0  0  0  0
   50.7930   32.2730   40.8620 N   0  0  0  0  0  0  0  0  0  0  0  0
   50.0200   31.6550   39.9240 C   0  0  0  0  0  0  0  0  0  0  0  0
   48.7920   32.2310   39.8830 N   0  0  0  0  0  0  0  0  0  0  0  0
   48.7850   33.2260   40.8050 C   0  0  0  0  0  0  0  0  0  0  0  0
   47.8410   34.1570   41.2270 C   0  0  0  0  0  0  0  0  0  0  0  0
   48.2090   35.0290   42.2090 N   0  0  0  0  0  0  0  0  0  0  0  0
   49.4490   34.9890   42.7550 C   0  0  0  0  0  0  0  0  0  0  0  0
   50.3950   34.0900   42.3640 N   0  0  0  0  0  0  0  0  0  0  0  0
   50.0350   33.2280   41.3940 C   0  0  0  0  0  0  0  0  0  0  0  0
   45.4995   32.0657   43.4475 H   0  0  0  0  0  0  0  0  0  0  0  0
   43.9654   35.9080   42.5971 H   0  0  0  0  0  0  0  0  0  0  0  0
   45.4253   34.9934   46.4656 H   0  0  0  0  0  0  0  0  0  0  0  0
   43.5170   31.8710   42.5433 H   0  0  0  0  0  0  0  0  0  0  0  0
   42.7201   32.2857   40.9878 H   0  0  0  0  0  0  0  0  0  0  0  0
   44.2964   31.4242   40.9878 H   0  0  0  0  0  0  0  0  0  0  0  0
   43.7856   35.4240   41.0150 H   0  0  0  0  0  0  0  0  0  0  0  0
   44.3451   34.3015   39.6261 H   0  0  0  0  0  0  0  0  0  0  0  0
   42.2671   33.1021   39.7939 H   0  0  0  0  0  0  0  0  0  0  0  0
   42.1339   34.6877   38.0728 H   0  0  0  0  0  0  0  0  0  0  0  0
   42.4785   36.0601   39.1946 H   0  0  0  0  0  0  0  0  0  0  0  0
   40.1483   36.0591   38.2965 H   0  0  0  0  0  0  0  0  0  0  0  0
   39.9053   34.4606   39.1579 H   0  0  0  0  0  0  0  0  0  0  0  0
   39.9215   37.2044   40.1950 H   0  0  0  0  0  0  0  0  0  0  0  0
   39.0683   35.7563   40.7638 H   0  0  0  0  0  0  0  0  0  0  0  0
   42.0550   36.4660   41.1444 H   0  0  0  0  0  0  0  0  0  0  0  0
   40.8813   36.1878   42.4242 H   0  0  0  0  0  0  0  0  0  0  0  0
   41.9466   34.1229   42.2270 H   0  0  0  0  0  0  0  0  0  0  0  0
   39.5097   33.1555   42.4997 H   0  0  0  0  0  0  0  0  0  0  0  0
   46.2686   32.3548   41.5585 H   0  0  0  0  0  0  0  0  0  0  0  0
   45.5793   32.5203   39.9164 H   0  0  0  0  0  0  0  0  0  0  0  0
   51.7670   32.0462   41.1088 H   0  0  0  0  0  0  0  0  0  0  0  0
   50.3440   30.8138   39.2936 H   0  0  0  0  0  0  0  0  0  0  0  0
   49.7015   35.7112   43.5453 H   0  0  0  0  0  0  0  0  0  0  0  0
  1  9  1  6
  1  8  1  0
  1  3  1  0
  2  7  2  0
  3  4  2  0
  3  2  1  0
  4  5  1  0
  5  6  2  0
  7  6  1  0
 10  9  1  0
 10 15  1  0
 11 12  1  0
 11 10  1  0
 12 13  1  0
 13 14  1  0
 15 14  1  0
 16 15  1  0
 17  1  1  0
 18 17  1  0
 18 23  1  0
 19 27  1  0
 20 19  1  0
 21 20  2  0
 21 22  1  0
 22 23  1  0
 22 27  2  0
 23 24  2  0
 24 25  1  0
 26 25  2  0
 27 26  1  0
  2 28  1  0
  4 29  1  0
  6 30  1  0
  8 31  1  0
  8 32  1  0
  8 33  1  0
  9 34  1  0
  9 35  1  0
 10 36  1  6
 11 37  1  0
 11 38  1  0
 12 39  1  0
 12 40  1  0
 13 41  1  0
 13 42  1  0
 14 43  1  0
 14 44  1  0
 15 45  1  1
 16 46  1  0
 17 47  1  0
 17 48  1  0
 19 49  1  0
 20 50  1  0
 25 51  1  0
M  ISO  8  28  14  29  14  30  14  31   8  32   8  33   8  34   8  35   8
M  ISO  8  36  13  37  13  38  13  39  13  40  13  41  13  42  13  43  13
M  ISO  8  44  13  45  13  46  11  47   8  48   8  49   9  50  14  51  14
M  END
>  <minimizedAffinity>  (1) 
-6.1744976

>  <minimizedRMSD>  (1) 
1.94731963

$$$$
