
     RDKit          3D

 53 55  0  0  1  0  0  0  0  0999 V2000
   44.6240   33.7480   41.5850 C   0  0  1  0  0  0  0  0  0  0  0  0
   45.2200   33.3680   43.9480 C   0  0  0  0  0  0  0  0  0  0  0  0
   44.7290   34.1940   42.9380 C   0  0  0  0  0  0  0  0  0  0  0  0
   44.3710   35.4210   43.3500 C   0  0  0  0  0  0  0  0  0  0  0  0
   44.4660   35.8440   44.6300 N   0  0  0  0  0  0  0  0  0  0  0  0
   44.9540   34.9890   45.5730 C   0  0  0  0  0  0  0  0  0  0  0  0
   45.3300   33.7450   45.2180 N   0  0  0  0  0  0  0  0  0  0  0  0
   44.0740   32.3180   41.5550 C   0  0  0  0  0  0  0  0  0  0  0  0
   43.9430   34.5570   40.6060 C   0  0  0  0  0  0  0  0  0  0  0  0
   42.5530   34.1380   40.1430 C   0  0  2  0  0  0  0  0  0  0  0  0
   42.1060   35.0330   39.0010 C   0  0  0  0  0  0  0  0  0  0  0  0
   40.6010   35.2140   39.0140 C   0  0  0  0  0  0  0  0  0  0  0  0
   40.0880   35.9330   40.1980 C   0  0  0  0  0  0  0  0  0  0  0  0
   41.1870   35.8260   41.2710 C   0  0  0  0  0  0  0  0  0  0  0  0
   41.5790   34.3940   41.2530 C   0  0  1  0  0  0  0  0  0  0  0  0
   40.1730   33.2740   41.1610 S   0  0  0  0  0  0  0  0  0  0  0  0
   46.0660   33.4450   41.0730 C   0  0  0  0  0  0  0  0  0  0  0  0
   46.6930   34.6650   40.7610 O   0  0  0  0  0  0  0  0  0  0  0  0
   48.0360   34.4680   40.9820 C   0  0  0  0  0  0  0  0  0  0  0  0
   48.7430   35.6630   41.5860 C   0  0  0  0  0  0  0  0  0  0  0  0
   49.8500   35.1060   42.4470 C   0  0  0  0  0  0  0  0  0  0  0  0
   49.8090   33.6170   42.2220 C   0  0  0  0  0  0  0  0  0  0  0  0
   48.3290   33.3740   41.9850 C   0  0  0  0  0  0  0  0  0  0  0  0
   45.5336   32.3484   43.6793 H   0  0  0  0  0  0  0  0  0  0  0  0
   43.9769   36.1236   42.6010 H   0  0  0  0  0  0  0  0  0  0  0  0
   45.0405   35.3138   46.6204 H   0  0  0  0  0  0  0  0  0  0  0  0
   43.9351   31.9569   42.5847 H   0  0  0  0  0  0  0  0  0  0  0  0
   43.1078   32.3077   41.0294 H   0  0  0  0  0  0  0  0  0  0  0  0
   44.7843   31.6629   41.0294 H   0  0  0  0  0  0  0  0  0  0  0  0
   43.8510   35.5678   41.0300 H   0  0  0  0  0  0  0  0  0  0  0  0
   44.5638   34.4591   39.7032 H   0  0  0  0  0  0  0  0  0  0  0  0
   42.5858   33.0798   39.8443 H   0  0  0  0  0  0  0  0  0  0  0  0
   42.4057   34.5759   38.0464 H   0  0  0  0  0  0  0  0  0  0  0  0
   42.5799   36.0185   39.1201 H   0  0  0  0  0  0  0  0  0  0  0  0
   40.3138   35.7799   38.1155 H   0  0  0  0  0  0  0  0  0  0  0  0
   40.1615   34.2060   39.0413 H   0  0  0  0  0  0  0  0  0  0  0  0
   39.8968   36.9877   39.9511 H   0  0  0  0  0  0  0  0  0  0  0  0
   39.1390   35.5024   40.5500 H   0  0  0  0  0  0  0  0  0  0  0  0
   42.0435   36.4677   41.0169 H   0  0  0  0  0  0  0  0  0  0  0  0
   40.8403   36.1544   42.2619 H   0  0  0  0  0  0  0  0  0  0  0  0
   42.0672   34.1823   42.2158 H   0  0  0  0  0  0  0  0  0  0  0  0
   39.7646   32.9487   42.4276 H   0  0  0  0  0  0  0  0  0  0  0  0
   46.6363   32.9241   41.8562 H   0  0  0  0  0  0  0  0  0  0  0  0
   46.0226   32.8037   40.1803 H   0  0  0  0  0  0  0  0  0  0  0  0
   48.3915   34.2325   39.9680 H   0  0  0  0  0  0  0  0  0  0  0  0
   49.1608   36.3001   40.7925 H   0  0  0  0  0  0  0  0  0  0  0  0
   48.0508   36.2831   42.1745 H   0  0  0  0  0  0  0  0  0  0  0  0
   50.8229   35.5167   42.1390 H   0  0  0  0  0  0  0  0  0  0  0  0
   49.7189   35.3669   43.5075 H   0  0  0  0  0  0  0  0  0  0  0  0
   50.4068   33.3288   41.3448 H   0  0  0  0  0  0  0  0  0  0  0  0
   50.2269   33.0311   43.0539 H   0  0  0  0  0  0  0  0  0  0  0  0
   47.7427   33.4990   42.9073 H   0  0  0  0  0  0  0  0  0  0  0  0
   48.0763   32.3581   41.6471 H   0  0  0  0  0  0  0  0  0  0  0  0
  1  9  1  6
  1  3  1  0
  2  7  2  0
  3  4  2  0
  3  2  1  0
  4  5  1  0
  5  6  2  0
  7  6  1  0
  8  1  1  0
 10  9  1  0
 10 15  1  0
 11 12  1  0
 11 10  1  0
 12 13  1  0
 13 14  1  0
 15 14  1  0
 16 15  1  0
 17  1  1  0
 18 19  1  0
 18 17  1  0
 19 20  1  0
 19 23  1  0
 20 21  1  0
 22 21  1  0
 23 22  1  0
  2 24  1  0
  4 25  1  0
  6 26  1  0
  8 27  1  0
  8 28  1  0
  8 29  1  0
  9 30  1  0
  9 31  1  0
 10 32  1  6
 11 33  1  0
 11 34  1  0
 12 35  1  0
 12 36  1  0
 13 37  1  0
 13 38  1  0
 14 39  1  0
 14 40  1  0
 15 41  1  1
 16 42  1  0
 17 43  1  0
 17 44  1  0
 19 45  1  0
 20 46  1  0
 20 47  1  0
 21 48  1  0
 21 49  1  0
 22 50  1  0
 22 51  1  0
 23 52  1  0
 23 53  1  0
M  ISO  8  24  14  25  14  26  14  27   8  28   8  29   8  30   8  31   8
M  ISO  8  32  13  33  13  34  13  35  13  36  13  37  13  38  13  39  13
M  ISO  8  40  13  41  13  42  11  43   8  44   8  45  13  46  13  47  13
M  ISO  6  48  13  49  13  50  13  51  13  52  13  53  13
M  END
>  <minimizedAffinity>  (1) 
-6.16035318

>  <minimizedRMSD>  (1) 
0.550810456

$$$$
