
     RDKit          3D

 47 49  0  0  1  0  0  0  0  0999 V2000
   44.5310   33.7330   41.5900 C   0  0  1  0  0  0  0  0  0  0  0  0
   45.1550   33.3610   43.9490 C   0  0  0  0  0  0  0  0  0  0  0  0
   44.6630   34.1880   42.9400 C   0  0  0  0  0  0  0  0  0  0  0  0
   44.3290   35.4220   43.3500 C   0  0  0  0  0  0  0  0  0  0  0  0
   44.4480   35.8520   44.6250 N   0  0  0  0  0  0  0  0  0  0  0  0
   44.9370   34.9930   45.5670 C   0  0  0  0  0  0  0  0  0  0  0  0
   45.2910   33.7400   45.2180 N   0  0  0  0  0  0  0  0  0  0  0  0
   43.9630   32.3090   41.5830 C   0  0  0  0  0  0  0  0  0  0  0  0
   43.8400   34.5410   40.6210 C   0  0  0  0  0  0  0  0  0  0  0  0
   42.4390   34.1380   40.1940 C   0  0  2  0  0  0  0  0  0  0  0  0
   42.0010   34.9950   39.0200 C   0  0  0  0  0  0  0  0  0  0  0  0
   40.4810   35.2060   39.0460 C   0  0  0  0  0  0  0  0  0  0  0  0
   40.0090   35.9770   40.2100 C   0  0  0  0  0  0  0  0  0  0  0  0
   41.1220   35.8960   41.2710 C   0  0  0  0  0  0  0  0  0  0  0  0
   41.4830   34.4550   41.2990 C   0  0  1  0  0  0  0  0  0  0  0  0
   40.0520   33.3650   41.2670 S   0  0  0  0  0  0  0  0  0  0  0  0
   45.9640   33.4160   41.0620 C   0  0  0  0  0  0  0  0  0  0  0  0
   46.6940   34.6160   41.0000 O   0  0  0  0  0  0  0  0  0  0  0  0
   49.5340   34.5910   43.1540 N   0  0  0  0  0  0  0  0  0  0  0  0
   48.3410   34.1100   42.8500 N   0  0  0  0  0  0  0  0  0  0  0  0
   47.8590   34.7140   41.7500 C   0  0  0  0  0  0  0  0  0  0  0  0
   48.8320   35.6180   41.3740 C   0  0  0  0  0  0  0  0  0  0  0  0
   49.8980   35.5510   42.2530 C   0  0  0  0  0  0  0  0  0  0  0  0
   45.4480   32.3352   43.6808 H   0  0  0  0  0  0  0  0  0  0  0  0
   43.9345   36.1257   42.6022 H   0  0  0  0  0  0  0  0  0  0  0  0
   45.0421   35.3235   46.6109 H   0  0  0  0  0  0  0  0  0  0  0  0
   43.8254   31.9640   42.6184 H   0  0  0  0  0  0  0  0  0  0  0  0
   42.9938   32.3034   41.0628 H   0  0  0  0  0  0  0  0  0  0  0  0
   44.6623   31.6379   41.0628 H   0  0  0  0  0  0  0  0  0  0  0  0
   43.7708   35.5565   41.0380 H   0  0  0  0  0  0  0  0  0  0  0  0
   44.4390   34.4268   39.7055 H   0  0  0  0  0  0  0  0  0  0  0  0
   42.4448   33.0676   39.9404 H   0  0  0  0  0  0  0  0  0  0  0  0
   42.2809   34.4938   38.0817 H   0  0  0  0  0  0  0  0  0  0  0  0
   42.4973   35.9742   39.0896 H   0  0  0  0  0  0  0  0  0  0  0  0
   40.1895   35.7440   38.1319 H   0  0  0  0  0  0  0  0  0  0  0  0
   40.0196   34.2097   39.1122 H   0  0  0  0  0  0  0  0  0  0  0  0
   39.8317   37.0245   39.9250 H   0  0  0  0  0  0  0  0  0  0  0  0
   39.0619   35.5726   40.5965 H   0  0  0  0  0  0  0  0  0  0  0  0
   41.9864   36.5107   40.9795 H   0  0  0  0  0  0  0  0  0  0  0  0
   40.8006   36.2725   42.2533 H   0  0  0  0  0  0  0  0  0  0  0  0
   41.9786   34.2662   42.2627 H   0  0  0  0  0  0  0  0  0  0  0  0
   39.6705   33.0744   42.5503 H   0  0  0  0  0  0  0  0  0  0  0  0
   46.4636   32.7130   41.7448 H   0  0  0  0  0  0  0  0  0  0  0  0
   45.9043   32.9600   40.0628 H   0  0  0  0  0  0  0  0  0  0  0  0
   50.1063   34.2861   43.9543 H   0  0  0  0  0  0  0  0  0  0  0  0
   48.7691   36.2906   40.5059 H   0  0  0  0  0  0  0  0  0  0  0  0
   50.8281   36.1379   42.2313 H   0  0  0  0  0  0  0  0  0  0  0  0
  1  9  1  6
  1  3  1  0
  2  7  2  0
  3  4  2  0
  3  2  1  0
  4  5  1  0
  5  6  2  0
  7  6  1  0
  8  1  1  0
 10  9  1  0
 10 15  1  0
 11 12  1  0
 11 10  1  0
 12 13  1  0
 13 14  1  0
 14 15  1  0
 16 15  1  0
 17  1  1  0
 18 17  1  0
 18 21  1  0
 20 19  1  0
 21 20  2  0
 22 21  1  0
 22 23  2  0
 23 19  1  0
  2 24  1  0
  4 25  1  0
  6 26  1  0
  8 27  1  0
  8 28  1  0
  8 29  1  0
  9 30  1  0
  9 31  1  0
 10 32  1  6
 11 33  1  0
 11 34  1  0
 12 35  1  0
 12 36  1  0
 13 37  1  0
 13 38  1  0
 14 39  1  0
 14 40  1  0
 15 41  1  1
 16 42  1  0
 17 43  1  0
 17 44  1  0
 19 45  1  0
 22 46  1  0
 23 47  1  0
M  ISO  8  24  14  25  14  26  14  27   8  28   8  29   8  30   8  31   8
M  ISO  8  32  13  33  13  34  13  35  13  36  13  37  13  38  13  39  13
M  ISO  8  40  13  41  13  42  11  43   8  44   8  45   9  46  14  47  14
M  END
>  <minimizedAffinity>  (1) 
-6.15067482

>  <minimizedRMSD>  (1) 
0.940039814

$$$$
