
     RDKit          3D

 47 49  0  0  1  0  0  0  0  0999 V2000
   44.7480   34.2290   41.5000 C   0  0  1  0  0  0  0  0  0  0  0  0
   45.2540   33.4110   43.7700 C   0  0  0  0  0  0  0  0  0  0  0  0
   44.8370   34.4280   42.9130 C   0  0  0  0  0  0  0  0  0  0  0  0
   44.5320   35.5810   43.5310 C   0  0  0  0  0  0  0  0  0  0  0  0
   44.6160   35.7630   44.8680 N   0  0  0  0  0  0  0  0  0  0  0  0
   45.0300   34.7310   45.6520 C   0  0  0  0  0  0  0  0  0  0  0  0
   45.3510   33.5430   45.0890 N   0  0  0  0  0  0  0  0  0  0  0  0
   44.5360   32.7380   41.2050 C   0  0  0  0  0  0  0  0  0  0  0  0
   43.8110   35.0110   40.7240 C   0  0  0  0  0  0  0  0  0  0  0  0
   42.5030   34.3770   40.2820 C   0  0  2  0  0  0  0  0  0  0  0  0
   41.9420   35.1410   39.0940 C   0  0  0  0  0  0  0  0  0  0  0  0
   40.4140   35.1090   39.1030 C   0  0  0  0  0  0  0  0  0  0  0  0
   39.8040   35.8140   40.2490 C   0  0  0  0  0  0  0  0  0  0  0  0
   40.8930   35.9090   41.3200 C   0  0  0  0  0  0  0  0  0  0  0  0
   41.4890   34.5530   41.3780 C   0  0  1  0  0  0  0  0  0  0  0  0
   40.2600   33.2500   41.3430 S   0  0  0  0  0  0  0  0  0  0  0  0
   46.1730   34.3860   40.9050 C   0  0  0  0  0  0  0  0  0  0  0  0
   47.0320   34.7870   41.9450 O   0  0  0  0  0  0  0  0  0  0  0  0
   48.2700   34.2890   42.0670 C   0  0  0  0  0  0  0  0  0  0  0  0
   49.4220   34.9830   42.5010 C   0  0  0  0  0  0  0  0  0  0  0  0
   50.5950   34.3140   42.5620 C   0  0  0  0  0  0  0  0  0  0  0  0
   50.6970   32.9380   42.2020 C   0  0  0  0  0  0  0  0  0  0  0  0
   48.9160   32.5520   41.7200 S   0  0  0  0  0  0  0  0  0  0  0  0
   45.5191   32.4394   43.3276 H   0  0  0  0  0  0  0  0  0  0  0  0
   44.1943   36.4262   42.9133 H   0  0  0  0  0  0  0  0  0  0  0  0
   45.1037   34.8621   46.7417 H   0  0  0  0  0  0  0  0  0  0  0  0
   44.4573   32.1844   42.1523 H   0  0  0  0  0  0  0  0  0  0  0  0
   43.6102   32.6069   40.6256 H   0  0  0  0  0  0  0  0  0  0  0  0
   45.3886   32.3540   40.6256 H   0  0  0  0  0  0  0  0  0  0  0  0
   43.5524   35.8938   41.3271 H   0  0  0  0  0  0  0  0  0  0  0  0
   44.3440   35.1959   39.7797 H   0  0  0  0  0  0  0  0  0  0  0  0
   42.6891   33.3204   40.0393 H   0  0  0  0  0  0  0  0  0  0  0  0
   42.3072   34.6810   38.1639 H   0  0  0  0  0  0  0  0  0  0  0  0
   42.2739   36.1878   39.1584 H   0  0  0  0  0  0  0  0  0  0  0  0
   40.0529   35.5787   38.1762 H   0  0  0  0  0  0  0  0  0  0  0  0
   40.1187   34.0526   39.1860 H   0  0  0  0  0  0  0  0  0  0  0  0
   39.4767   36.8200   39.9476 H   0  0  0  0  0  0  0  0  0  0  0  0
   38.9187   35.2794   40.6236 H   0  0  0  0  0  0  0  0  0  0  0  0
   41.6514   36.6534   41.0360 H   0  0  0  0  0  0  0  0  0  0  0  0
   40.4906   36.2268   42.2932 H   0  0  0  0  0  0  0  0  0  0  0  0
   41.9988   34.4662   42.3488 H   0  0  0  0  0  0  0  0  0  0  0  0
   39.9294   32.8995   42.6255 H   0  0  0  0  0  0  0  0  0  0  0  0
   46.5124   33.4261   40.4886 H   0  0  0  0  0  0  0  0  0  0  0  0
   46.1720   35.1334   40.0979 H   0  0  0  0  0  0  0  0  0  0  0  0
   49.3654   36.0447   42.7831 H   0  0  0  0  0  0  0  0  0  0  0  0
   51.4967   34.8463   42.8990 H   0  0  0  0  0  0  0  0  0  0  0  0
   51.5779   32.2792   42.2048 H   0  0  0  0  0  0  0  0  0  0  0  0
  1  9  1  6
  1  3  1  0
  2  7  2  0
  3  4  2  0
  3  2  1  0
  4  5  1  0
  5  6  2  0
  7  6  1  0
  8  1  1  0
 10  9  1  0
 10 15  1  0
 11 12  1  0
 11 10  1  0
 12 13  1  0
 13 14  1  0
 14 15  1  0
 16 15  1  0
 17  1  1  0
 17 18  1  0
 18 19  1  0
 19 20  2  0
 20 21  1  0
 22 21  2  0
 23 19  1  0
 23 22  1  0
  2 24  1  0
  4 25  1  0
  6 26  1  0
  8 27  1  0
  8 28  1  0
  8 29  1  0
  9 30  1  0
  9 31  1  0
 10 32  1  6
 11 33  1  0
 11 34  1  0
 12 35  1  0
 12 36  1  0
 13 37  1  0
 13 38  1  0
 14 39  1  0
 14 40  1  0
 15 41  1  1
 16 42  1  0
 17 43  1  0
 17 44  1  0
 20 45  1  0
 21 46  1  0
 22 47  1  0
M  ISO  8  24  14  25  14  26  14  27   8  28   8  29   8  30   8  31   8
M  ISO  8  32  13  33  13  34  13  35  13  36  13  37  13  38  13  39  13
M  ISO  8  40  13  41  13  42  11  43   8  44   8  45  14  46  14  47  14
M  END
>  <minimizedAffinity>  (1) 
-5.98178959

>  <minimizedRMSD>  (1) 
1.21652722

$$$$
