
     RDKit          3D

 45 47  0  0  1  0  0  0  0  0999 V2000
   44.5940   33.7980   41.5670 C   0  0  1  0  0  0  0  0  0  0  0  0
   45.2920   33.2440   43.8620 C   0  0  0  0  0  0  0  0  0  0  0  0
   44.7490   34.1410   42.9440 C   0  0  0  0  0  0  0  0  0  0  0  0
   44.3930   35.3260   43.4650 C   0  0  0  0  0  0  0  0  0  0  0  0
   44.5380   35.6460   44.7700 N   0  0  0  0  0  0  0  0  0  0  0  0
   45.0750   34.7300   45.6190 C   0  0  0  0  0  0  0  0  0  0  0  0
   45.4490   33.5290   45.1520 N   0  0  0  0  0  0  0  0  0  0  0  0
   44.0770   32.3620   41.4440 C   0  0  0  0  0  0  0  0  0  0  0  0
   43.8440   34.6620   40.6840 C   0  0  0  0  0  0  0  0  0  0  0  0
   42.4510   34.2390   40.2400 C   0  0  2  0  0  0  0  0  0  0  0  0
   41.9860   35.1300   39.1020 C   0  0  0  0  0  0  0  0  0  0  0  0
   40.4640   35.2940   39.1360 C   0  0  0  0  0  0  0  0  0  0  0  0
   39.9760   36.0170   40.3270 C   0  0  0  0  0  0  0  0  0  0  0  0
   41.0880   35.9170   41.3860 C   0  0  0  0  0  0  0  0  0  0  0  0
   41.4910   34.4880   41.3620 C   0  0  1  0  0  0  0  0  0  0  0  0
   40.0890   33.3700   41.2870 S   0  0  0  0  0  0  0  0  0  0  0  0
   46.0160   33.5790   40.9690 C   0  0  0  0  0  0  0  0  0  0  0  0
   46.7170   34.7820   41.0220 O   0  0  0  0  0  0  0  0  0  0  0  0
   47.9790   34.7810   41.6000 C   0  0  0  0  0  0  0  0  0  0  0  0
   48.8340   35.8310   41.5520 N   0  0  0  0  0  0  0  0  0  0  0  0
   49.9260   35.5300   42.1790 O   0  0  0  0  0  0  0  0  0  0  0  0
   49.8210   34.3100   42.6410 C   0  0  0  0  0  0  0  0  0  0  0  0
   48.6170   33.8230   42.2930 N   0  0  0  0  0  0  0  0  0  0  0  0
   45.6058   32.2528   43.5028 H   0  0  0  0  0  0  0  0  0  0  0  0
   43.9586   36.0793   42.7914 H   0  0  0  0  0  0  0  0  0  0  0  0
   45.2024   34.9724   46.6844 H   0  0  0  0  0  0  0  0  0  0  0  0
   43.9250   31.9397   42.4483 H   0  0  0  0  0  0  0  0  0  0  0  0
   43.1223   32.3616   40.8977 H   0  0  0  0  0  0  0  0  0  0  0  0
   44.8124   31.7531   40.8977 H   0  0  0  0  0  0  0  0  0  0  0  0
   43.7385   35.6305   41.1948 H   0  0  0  0  0  0  0  0  0  0  0  0
   44.4291   34.6564   39.7525 H   0  0  0  0  0  0  0  0  0  0  0  0
   42.4839   33.1809   39.9409 H   0  0  0  0  0  0  0  0  0  0  0  0
   42.2798   34.6763   38.1439 H   0  0  0  0  0  0  0  0  0  0  0  0
   42.4528   36.1200   39.2121 H   0  0  0  0  0  0  0  0  0  0  0  0
   40.1537   35.8506   38.2394 H   0  0  0  0  0  0  0  0  0  0  0  0
   40.0304   34.2836   39.1707 H   0  0  0  0  0  0  0  0  0  0  0  0
   39.7817   37.0708   40.0785 H   0  0  0  0  0  0  0  0  0  0  0  0
   39.0349   35.5840   40.6968 H   0  0  0  0  0  0  0  0  0  0  0  0
   41.9365   36.5655   41.1223 H   0  0  0  0  0  0  0  0  0  0  0  0
   40.7505   36.2415   42.3814 H   0  0  0  0  0  0  0  0  0  0  0  0
   41.9971   34.2750   42.3151 H   0  0  0  0  0  0  0  0  0  0  0  0
   39.6901   33.0519   42.5584 H   0  0  0  0  0  0  0  0  0  0  0  0
   45.9301   33.2472   39.9238 H   0  0  0  0  0  0  0  0  0  0  0  0
   46.5497   32.8104   41.5473 H   0  0  0  0  0  0  0  0  0  0  0  0
   50.5889   33.7731   43.2173 H   0  0  0  0  0  0  0  0  0  0  0  0
  1  9  1  6
  1  3  1  0
  2  7  2  0
  3  4  2  0
  3  2  1  0
  4  5  1  0
  5  6  2  0
  7  6  1  0
  8  1  1  0
 10  9  1  0
 10 15  1  0
 11 12  1  0
 11 10  1  0
 12 13  1  0
 13 14  1  0
 15 14  1  0
 16 15  1  0
 17 18  1  0
 17  1  1  0
 18 19  1  0
 19 23  1  0
 20 19  2  0
 20 21  1  0
 21 22  1  0
 23 22  2  0
  2 24  1  0
  4 25  1  0
  6 26  1  0
  8 27  1  0
  8 28  1  0
  8 29  1  0
  9 30  1  0
  9 31  1  0
 10 32  1  6
 11 33  1  0
 11 34  1  0
 12 35  1  0
 12 36  1  0
 13 37  1  0
 13 38  1  0
 14 39  1  0
 14 40  1  0
 15 41  1  1
 16 42  1  0
 17 43  1  0
 17 44  1  0
 22 45  1  0
M  ISO  8  24  14  25  14  26  14  27   8  28   8  29   8  30   8  31   8
M  ISO  8  32  13  33  13  34  13  35  13  36  13  37  13  38  13  39  13
M  ISO  6  40  13  41  13  42  11  43   8  44   8  45  14
M  END
>  <minimizedAffinity>  (1) 
-5.78594065

>  <minimizedRMSD>  (1) 
0.924447477

$$$$
