
     RDKit          3D

 46 48  0  0  1  0  0  0  0  0999 V2000
   44.4540   33.6220   41.4910 C   0  0  1  0  0  0  0  0  0  0  0  0
   45.2150   33.2560   43.8030 C   0  0  0  0  0  0  0  0  0  0  0  0
   44.6500   34.0800   42.8300 C   0  0  0  0  0  0  0  0  0  0  0  0
   44.3180   35.3060   43.2650 C   0  0  0  0  0  0  0  0  0  0  0  0
   44.5050   35.7310   44.5340 N   0  0  0  0  0  0  0  0  0  0  0  0
   45.0590   34.8840   45.4400 C   0  0  0  0  0  0  0  0  0  0  0  0
   45.4160   33.6340   45.0640 N   0  0  0  0  0  0  0  0  0  0  0  0
   43.8520   32.2140   41.5040 C   0  0  0  0  0  0  0  0  0  0  0  0
   43.7320   34.4490   40.5470 C   0  0  0  0  0  0  0  0  0  0  0  0
   42.3100   34.0670   40.1660 C   0  0  2  0  0  0  0  0  0  0  0  0
   41.8540   34.9090   38.9890 C   0  0  0  0  0  0  0  0  0  0  0  0
   40.3480   35.1510   39.0500 C   0  0  0  0  0  0  0  0  0  0  0  0
   39.9210   35.9580   40.2090 C   0  0  0  0  0  0  0  0  0  0  0  0
   41.0620   35.8750   41.2410 C   0  0  0  0  0  0  0  0  0  0  0  0
   41.3920   34.4280   41.2930 C   0  0  1  0  0  0  0  0  0  0  0  0
   39.9420   33.3650   41.3190 S   0  0  0  0  0  0  0  0  0  0  0  0
   45.8480   33.2810   40.8970 C   0  0  0  0  0  0  0  0  0  0  0  0
   46.5570   34.4540   40.6990 O   0  0  0  0  0  0  0  0  0  0  0  0
   47.8280   34.5710   41.3000 C   0  0  0  0  0  0  0  0  0  0  0  0
   48.3600   33.3680   41.5930 C   0  0  0  0  0  0  0  0  0  0  0  0
   49.9560   33.7780   42.3380 S   0  0  0  0  0  0  0  0  0  0  0  0
   49.6060   35.6550   42.1100 C   0  0  0  0  0  0  0  0  0  0  0  0
   48.5320   35.6340   41.6000 N   0  0  0  0  0  0  0  0  0  0  0  0
   45.5111   32.2371   43.5127 H   0  0  0  0  0  0  0  0  0  0  0  0
   43.8672   36.0058   42.5460 H   0  0  0  0  0  0  0  0  0  0  0  0
   45.2172   35.2136   46.4775 H   0  0  0  0  0  0  0  0  0  0  0  0
   43.7113   31.8850   42.5442 H   0  0  0  0  0  0  0  0  0  0  0  0
   42.8803   32.2259   40.9886 H   0  0  0  0  0  0  0  0  0  0  0  0
   44.5320   31.5197   40.9886 H   0  0  0  0  0  0  0  0  0  0  0  0
   43.6900   35.4623   40.9731 H   0  0  0  0  0  0  0  0  0  0  0  0
   44.2958   34.3316   39.6098 H   0  0  0  0  0  0  0  0  0  0  0  0
   42.2879   32.9922   39.9327 H   0  0  0  0  0  0  0  0  0  0  0  0
   42.0978   34.3841   38.0536 H   0  0  0  0  0  0  0  0  0  0  0  0
   42.3700   35.8797   39.0276 H   0  0  0  0  0  0  0  0  0  0  0  0
   40.0434   35.6745   38.1318 H   0  0  0  0  0  0  0  0  0  0  0  0
   39.8691   34.1659   39.1516 H   0  0  0  0  0  0  0  0  0  0  0  0
   39.7576   37.0027   39.9057 H   0  0  0  0  0  0  0  0  0  0  0  0
   38.9756   35.5838   40.6288 H   0  0  0  0  0  0  0  0  0  0  0  0
   41.9313   36.4631   40.9115 H   0  0  0  0  0  0  0  0  0  0  0  0
   40.7763   36.2805   42.2228 H   0  0  0  0  0  0  0  0  0  0  0  0
   41.9063   34.2521   42.2493 H   0  0  0  0  0  0  0  0  0  0  0  0
   39.5888   33.1061   42.6171 H   0  0  0  0  0  0  0  0  0  0  0  0
   46.3971   32.6325   41.5955 H   0  0  0  0  0  0  0  0  0  0  0  0
   45.7233   32.7576   39.9375 H   0  0  0  0  0  0  0  0  0  0  0  0
   47.9261   32.3721   41.4199 H   0  0  0  0  0  0  0  0  0  0  0  0
   50.2324   36.5181   42.3795 H   0  0  0  0  0  0  0  0  0  0  0  0
  1  9  1  6
  1  8  1  0
  1  3  1  0
  2  7  2  0
  3  4  2  0
  3  2  1  0
  4  5  1  0
  5  6  2  0
  7  6  1  0
 10  9  1  0
 10 15  1  0
 11 12  1  0
 11 10  1  0
 12 13  1  0
 13 14  1  0
 14 15  1  0
 15 16  1  0
 17  1  1  0
 18 17  1  0
 18 19  1  0
 19 20  2  0
 19 23  1  0
 20 21  1  0
 22 21  1  0
 23 22  2  0
  2 24  1  0
  4 25  1  0
  6 26  1  0
  8 27  1  0
  8 28  1  0
  8 29  1  0
  9 30  1  0
  9 31  1  0
 10 32  1  6
 11 33  1  0
 11 34  1  0
 12 35  1  0
 12 36  1  0
 13 37  1  0
 13 38  1  0
 14 39  1  0
 14 40  1  0
 15 41  1  1
 16 42  1  0
 17 43  1  0
 17 44  1  0
 20 45  1  0
 22 46  1  0
M  ISO  8  24  14  25  14  26  14  27   8  28   8  29   8  30   8  31   8
M  ISO  8  32  13  33  13  34  13  35  13  36  13  37  13  38  13  39  13
M  ISO  7  40  13  41  13  42  11  43   8  44   8  45  14  46  14
M  END
>  <minimizedAffinity>  (1) 
-5.61715937

>  <minimizedRMSD>  (1) 
0.839346826

$$$$
