
     RDKit          3D

 46 47  0  0  1  0  0  0  0  0999 V2000
   43.9550   34.9910   40.9310 C   0  0  0  0  0  0  0  0  0  0  0  0
   42.6760   34.3920   40.3680 C   0  0  2  0  0  0  0  0  0  0  0  0
   42.2030   35.2040   39.1770 C   0  0  0  0  0  0  0  0  0  0  0  0
   40.6840   35.1940   39.0760 C   0  0  0  0  0  0  0  0  0  0  0  0
   39.9990   35.8450   40.2080 C   0  0  0  0  0  0  0  0  0  0  0  0
   41.0110   35.8870   41.3620 C   0  0  0  0  0  0  0  0  0  0  0  0
   41.5920   34.5200   41.3950 C   0  0  1  0  0  0  0  0  0  0  0  0
   40.3600   33.2260   41.2090 S   0  0  0  0  0  0  0  0  0  0  0  0
   44.8360   34.1600   41.7230 C   0  0  1  0  0  0  0  0  0  0  0  0
   45.4210   33.3470   43.9740 C   0  0  0  0  0  0  0  0  0  0  0  0
   44.8950   34.3330   43.1400 C   0  0  0  0  0  0  0  0  0  0  0  0
   44.4560   35.4280   43.7820 C   0  0  0  0  0  0  0  0  0  0  0  0
   44.5100   35.5850   45.1230 N   0  0  0  0  0  0  0  0  0  0  0  0
   45.0360   34.5860   45.8850 C   0  0  0  0  0  0  0  0  0  0  0  0
   45.4900   33.4680   45.2940 N   0  0  0  0  0  0  0  0  0  0  0  0
   44.5870   32.6860   41.3920 C   0  0  0  0  0  0  0  0  0  0  0  0
   46.2820   34.2890   41.1630 C   0  0  0  0  0  0  0  0  0  0  0  0
   46.9440   35.3010   41.8790 O   0  0  0  0  0  0  0  0  0  0  0  0
   48.2930   34.9480   41.9400 C   0  0  0  0  0  0  0  0  0  0  0  0
   49.1690   36.0680   41.4750 C   0  0  0  0  0  0  0  0  0  0  0  0
   44.5418   35.3571   40.0757 H   0  0  0  0  0  0  0  0  0  0  0  0
   43.5969   35.7469   41.6454 H   0  0  0  0  0  0  0  0  0  0  0  0
   42.8757   33.3468   40.0894 H   0  0  0  0  0  0  0  0  0  0  0  0
   42.5488   36.2421   39.2897 H   0  0  0  0  0  0  0  0  0  0  0  0
   42.6172   34.7560   38.2617 H   0  0  0  0  0  0  0  0  0  0  0  0
   40.3962   35.7166   38.1518 H   0  0  0  0  0  0  0  0  0  0  0  0
   40.3735   34.1387   39.0830 H   0  0  0  0  0  0  0  0  0  0  0  0
   39.6942   36.8653   39.9322 H   0  0  0  0  0  0  0  0  0  0  0  0
   39.0909   35.2942   40.4943 H   0  0  0  0  0  0  0  0  0  0  0  0
   41.7918   36.6371   41.1677 H   0  0  0  0  0  0  0  0  0  0  0  0
   40.5448   36.1673   42.3181 H   0  0  0  0  0  0  0  0  0  0  0  0
   42.0280   34.3790   42.3950 H   0  0  0  0  0  0  0  0  0  0  0  0
   39.9546   32.8002   42.4464 H   0  0  0  0  0  0  0  0  0  0  0  0
   45.7981   32.4215   43.5144 H   0  0  0  0  0  0  0  0  0  0  0  0
   44.0278   36.2441   43.1815 H   0  0  0  0  0  0  0  0  0  0  0  0
   45.0888   34.6939   46.9784 H   0  0  0  0  0  0  0  0  0  0  0  0
   44.4900   32.1119   42.3253 H   0  0  0  0  0  0  0  0  0  0  0  0
   43.6604   32.5931   40.8064 H   0  0  0  0  0  0  0  0  0  0  0  0
   45.4316   32.2939   40.8064 H   0  0  0  0  0  0  0  0  0  0  0  0
   46.8156   33.3352   41.2877 H   0  0  0  0  0  0  0  0  0  0  0  0
   46.2527   34.5395   40.0923 H   0  0  0  0  0  0  0  0  0  0  0  0
   48.5516   34.6987   42.9797 H   0  0  0  0  0  0  0  0  0  0  0  0
   48.4559   34.0828   41.2805 H   0  0  0  0  0  0  0  0  0  0  0  0
   49.5823   36.5964   42.3467 H   0  0  0  0  0  0  0  0  0  0  0  0
   49.9919   35.6622   40.8682 H   0  0  0  0  0  0  0  0  0  0  0  0
   48.5770   36.7689   40.8682 H   0  0  0  0  0  0  0  0  0  0  0  0
  2  1  1  0
  2  7  1  0
  3  2  1  0
  4  3  1  0
  4  5  1  0
  5  6  1  0
  6  7  1  0
  8  7  1  0
  9  1  1  6
  9 11  1  0
 10 15  2  0
 11 12  2  0
 11 10  1  0
 12 13  1  0
 13 14  2  0
 15 14  1  0
 16  9  1  0
 17  9  1  0
 17 18  1  0
 18 19  1  0
 20 19  1  0
  1 21  1  0
  1 22  1  0
  2 23  1  6
  3 24  1  0
  3 25  1  0
  4 26  1  0
  4 27  1  0
  5 28  1  0
  5 29  1  0
  6 30  1  0
  6 31  1  0
  7 32  1  1
  8 33  1  0
 10 34  1  0
 12 35  1  0
 14 36  1  0
 16 37  1  0
 16 38  1  0
 16 39  1  0
 17 40  1  0
 17 41  1  0
 19 42  1  0
 19 43  1  0
 20 44  1  0
 20 45  1  0
 20 46  1  0
M  ISO  8  21   8  22   8  23  13  24  13  25  13  26  13  27  13  28  13
M  ISO  8  29  13  30  13  31  13  32  13  33  11  34  14  35  14  36  14
M  ISO  8  37   8  38   8  39   8  40   8  41   8  42   8  43   8  44   8
M  ISO  2  45   8  46   8
M  END
>  <minimizedAffinity>  (1) 
-5.43976212

>  <minimizedRMSD>  (1) 
0.499336034

$$$$
