
     RDKit          3D

 43 44  0  0  1  0  0  0  0  0999 V2000
   43.9440   34.8000   40.6850 C   0  0  0  0  0  0  0  0  0  0  0  0
   42.5970   34.2950   40.1890 C   0  0  2  0  0  0  0  0  0  0  0  0
   42.1160   35.1700   39.0450 C   0  0  0  0  0  0  0  0  0  0  0  0
   40.5890   35.2430   39.0260 C   0  0  0  0  0  0  0  0  0  0  0  0
   40.0120   35.9090   40.2120 C   0  0  0  0  0  0  0  0  0  0  0  0
   41.0980   35.8800   41.3000 C   0  0  0  0  0  0  0  0  0  0  0  0
   41.5840   34.4760   41.2760 C   0  0  1  0  0  0  0  0  0  0  0  0
   40.2580   33.2660   41.1490 S   0  0  0  0  0  0  0  0  0  0  0  0
   44.7370   33.9520   41.5360 C   0  0  1  0  0  0  0  0  0  0  0  0
   45.3550   33.3010   43.8360 C   0  0  0  0  0  0  0  0  0  0  0  0
   44.8360   34.2310   42.9350 C   0  0  0  0  0  0  0  0  0  0  0  0
   44.4450   35.3870   43.4960 C   0  0  0  0  0  0  0  0  0  0  0  0
   44.5340   35.6500   44.8190 N   0  0  0  0  0  0  0  0  0  0  0  0
   45.0500   34.7000   45.6490 C   0  0  0  0  0  0  0  0  0  0  0  0
   45.4620   33.5180   45.1440 N   0  0  0  0  0  0  0  0  0  0  0  0
   44.3330   32.4860   41.3340 C   0  0  0  0  0  0  0  0  0  0  0  0
   46.1850   33.8740   40.9670 C   0  0  0  0  0  0  0  0  0  0  0  0
   46.8890   35.0180   41.3800 O   0  0  0  0  0  0  0  0  0  0  0  0
   48.2000   34.8370   40.8920 C   0  0  0  0  0  0  0  0  0  0  0  0
   44.5519   35.0232   39.7958 H   0  0  0  0  0  0  0  0  0  0  0  0
   43.6848   35.6526   41.3299 H   0  0  0  0  0  0  0  0  0  0  0  0
   42.7076   33.2440   39.8839 H   0  0  0  0  0  0  0  0  0  0  0  0
   42.5245   36.1837   39.1693 H   0  0  0  0  0  0  0  0  0  0  0  0
   42.4611   34.7333   38.0962 H   0  0  0  0  0  0  0  0  0  0  0  0
   40.2790   35.8000   38.1296 H   0  0  0  0  0  0  0  0  0  0  0  0
   40.2174   34.2077   39.0258 H   0  0  0  0  0  0  0  0  0  0  0  0
   39.7429   36.9480   39.9711 H   0  0  0  0  0  0  0  0  0  0  0  0
   39.0973   35.3993   40.5490 H   0  0  0  0  0  0  0  0  0  0  0  0
   41.9115   36.5807   41.0609 H   0  0  0  0  0  0  0  0  0  0  0  0
   40.7200   36.1832   42.2875 H   0  0  0  0  0  0  0  0  0  0  0  0
   42.0655   34.2875   42.2469 H   0  0  0  0  0  0  0  0  0  0  0  0
   39.8542   32.8975   42.4052 H   0  0  0  0  0  0  0  0  0  0  0  0
   45.6955   32.3321   43.4420 H   0  0  0  0  0  0  0  0  0  0  0  0
   44.0278   36.1655   42.8404 H   0  0  0  0  0  0  0  0  0  0  0  0
   45.1305   34.8962   46.7284 H   0  0  0  0  0  0  0  0  0  0  0  0
   44.2002   32.0039   42.3138 H   0  0  0  0  0  0  0  0  0  0  0  0
   43.3887   32.4400   40.7717 H   0  0  0  0  0  0  0  0  0  0  0  0
   45.1204   31.9628   40.7717 H   0  0  0  0  0  0  0  0  0  0  0  0
   46.1503   33.8363   39.8682 H   0  0  0  0  0  0  0  0  0  0  0  0
   46.6872   32.9683   41.3378 H   0  0  0  0  0  0  0  0  0  0  0  0
   48.8962   34.7409   41.7382 H   0  0  0  0  0  0  0  0  0  0  0  0
   48.2402   33.9248   40.2786 H   0  0  0  0  0  0  0  0  0  0  0  0
   48.4859   35.7042   40.2786 H   0  0  0  0  0  0  0  0  0  0  0  0
  2  1  1  0
  2  7  1  0
  3  2  1  0
  4  3  1  0
  4  5  1  0
  5  6  1  0
  7  6  1  0
  8  7  1  0
  9  1  1  6
  9 11  1  0
 10 15  2  0
 11 12  2  0
 11 10  1  0
 12 13  1  0
 13 14  2  0
 15 14  1  0
 16  9  1  0
 17 18  1  0
 17  9  1  0
 19 18  1  0
  1 20  1  0
  1 21  1  0
  2 22  1  6
  3 23  1  0
  3 24  1  0
  4 25  1  0
  4 26  1  0
  5 27  1  0
  5 28  1  0
  6 29  1  0
  6 30  1  0
  7 31  1  1
  8 32  1  0
 10 33  1  0
 12 34  1  0
 14 35  1  0
 16 36  1  0
 16 37  1  0
 16 38  1  0
 17 39  1  0
 17 40  1  0
 19 41  1  0
 19 42  1  0
 19 43  1  0
M  ISO  8  20   8  21   8  22  13  23  13  24  13  25  13  26  13  27  13
M  ISO  8  28  13  29  13  30  13  31  13  32  11  33  14  34  14  35  14
M  ISO  8  36   8  37   8  38   8  39   8  40   8  41   8  42   8  43   8
M  END
>  <minimizedAffinity>  (1) 
-5.03647041

>  <minimizedRMSD>  (1) 
0.0652456805

$$$$
