
     RDKit          3D

 27 28  0  0  0  0  0  0  0  0999 V2000
   44.2470   35.8160   43.7420 C   0  0  0  0  0  0  0  0  0  0  0  0
   44.2990   34.8130   42.7540 C   0  0  0  0  0  0  0  0  0  0  0  0
   44.8710   33.5910   43.0760 C   0  0  0  0  0  0  0  0  0  0  0  0
   45.3510   33.4210   44.3250 N   0  0  0  0  0  0  0  0  0  0  0  0
   45.2970   34.3810   45.2530 C   0  0  0  0  0  0  0  0  0  0  0  0
   44.7510   35.5760   44.9810 N   0  0  0  0  0  0  0  0  0  0  0  0
   43.7520   35.2060   41.5610 O   0  0  0  0  0  0  0  0  0  0  0  0
   42.7410   34.6040   40.8260 C   0  0  0  0  0  0  0  0  0  0  0  0
   41.4380   34.8190   41.5420 C   0  0  0  0  0  0  0  0  0  0  0  0
   40.7280   36.0820   41.0860 C   0  0  0  0  0  0  0  0  0  0  0  0
   40.2540   35.9110   39.6530 C   0  0  0  0  0  0  0  0  0  0  0  0
   41.1730   34.9130   38.9890 C   0  0  0  0  0  0  0  0  0  0  0  0
   42.6130   35.1070   39.4170 C   0  0  0  0  0  0  0  0  0  0  0  0
   43.7985   36.7934   43.5105 H   0  0  0  0  0  0  0  0  0  0  0  0
   44.9315   32.7824   42.3327 H   0  0  0  0  0  0  0  0  0  0  0  0
   45.7066   34.1885   46.2556 H   0  0  0  0  0  0  0  0  0  0  0  0
   43.0026   33.5385   40.7465 H   0  0  0  0  0  0  0  0  0  0  0  0
   40.7829   33.9565   41.3498 H   0  0  0  0  0  0  0  0  0  0  0  0
   41.6585   34.9268   42.6143 H   0  0  0  0  0  0  0  0  0  0  0  0
   39.8623   36.2710   41.7378 H   0  0  0  0  0  0  0  0  0  0  0  0
   41.4235   36.9324   41.1417 H   0  0  0  0  0  0  0  0  0  0  0  0
   39.2201   35.5357   39.6413 H   0  0  0  0  0  0  0  0  0  0  0  0
   40.2750   36.8728   39.1197 H   0  0  0  0  0  0  0  0  0  0  0  0
   41.1055   35.0370   37.8981 H   0  0  0  0  0  0  0  0  0  0  0  0
   40.8584   33.9031   39.2910 H   0  0  0  0  0  0  0  0  0  0  0  0
   43.2811   34.5380   38.7537 H   0  0  0  0  0  0  0  0  0  0  0  0
   42.8927   36.1693   39.3598 H   0  0  0  0  0  0  0  0  0  0  0  0
  1  6  2  0
  2  3  2  0
  2  1  1  0
  3  4  1  0
  4  5  2  0
  6  5  1  0
  7  2  1  0
  8  9  1  0
  8  7  1  0
 10  9  1  0
 11 10  1  0
 12 13  1  0
 12 11  1  0
 13  8  1  0
  1 14  1  0
  3 15  1  0
  5 16  1  0
  8 17  1  0
  9 18  1  0
  9 19  1  0
 10 20  1  0
 10 21  1  0
 11 22  1  0
 11 23  1  0
 12 24  1  0
 12 25  1  0
 13 26  1  0
 13 27  1  0
M  ISO  8  14  14  15  14  16  14  17  13  18  13  19  13  20  13  21  13
M  ISO  6  22  13  23  13  24  13  25  13  26  13  27  13
M  END
>  <minimizedAffinity>  (1) 
-4.13763332

>  <minimizedRMSD>  (1) 
2.84542418

$$$$
