
     RDKit          3D

 18 19  0  0  0  0  0  0  0  0999 V2000
   44.4250   35.8230   44.4760 C   0  0  0  0  0  0  0  0  0  0  0  0
   44.6400   35.1350   43.2810 C   0  0  0  0  0  0  0  0  0  0  0  0
   45.2030   33.8680   43.3050 C   0  0  0  0  0  0  0  0  0  0  0  0
   45.5200   33.3580   44.5130 N   0  0  0  0  0  0  0  0  0  0  0  0
   45.3130   34.0190   45.6620 C   0  0  0  0  0  0  0  0  0  0  0  0
   44.7640   35.2570   45.6620 N   0  0  0  0  0  0  0  0  0  0  0  0
   44.2380   35.8510   42.1620 O   0  0  0  0  0  0  0  0  0  0  0  0
   43.0060   35.4670   41.6320 C   0  0  0  0  0  0  0  0  0  0  0  0
   42.8330   34.9530   40.3770 C   0  0  0  0  0  0  0  0  0  0  0  0
   41.5010   34.7120   40.2470 N   0  0  0  0  0  0  0  0  0  0  0  0
   40.8960   35.0730   41.3970 C   0  0  0  0  0  0  0  0  0  0  0  0
   41.8200   35.5490   42.2770 N   0  0  0  0  0  0  0  0  0  0  0  0
   43.9789   36.8283   44.4566 H   0  0  0  0  0  0  0  0  0  0  0  0
   45.3834   33.3029   42.3786 H   0  0  0  0  0  0  0  0  0  0  0  0
   45.5928   33.5493   46.6165 H   0  0  0  0  0  0  0  0  0  0  0  0
   43.6140   34.7710   39.6240 H   0  0  0  0  0  0  0  0  0  0  0  0
   39.8168   34.9946   41.5948 H   0  0  0  0  0  0  0  0  0  0  0  0
   41.6514   35.8976   43.2314 H   0  0  0  0  0  0  0  0  0  0  0  0
  1  6  2  0
  2  3  2  0
  2  1  1  0
  3  4  1  0
  4  5  2  0
  5  6  1  0
  7  2  1  0
  8  7  1  0
  8 12  1  0
  9  8  2  0
 10  9  1  0
 10 11  2  0
 11 12  1  0
  1 13  1  0
  3 14  1  0
  5 15  1  0
  9 16  1  0
 11 17  1  0
 12 18  1  0
M  ISO  6  13  14  14  14  15  14  16  14  17  14  18   9
M  END
>  <minimizedAffinity>  (1) 
-4.09679317

>  <minimizedRMSD>  (1) 
1.48412275

$$$$
