
     RDKit          3D

 26 27  0  0  0  0  0  0  0  0999 V2000
   44.4230   35.7740   42.5600 C   0  0  0  0  0  0  0  0  0  0  0  0
   44.0970   35.0560   41.4070 C   0  0  0  0  0  0  0  0  0  0  0  0
   45.1220   34.3120   40.7980 C   0  0  0  0  0  0  0  0  0  0  0  0
   46.3570   34.3220   41.3420 N   0  0  0  0  0  0  0  0  0  0  0  0
   46.6420   35.0200   42.4490 C   0  0  0  0  0  0  0  0  0  0  0  0
   45.6790   35.7520   43.0690 N   0  0  0  0  0  0  0  0  0  0  0  0
   42.7950   35.1650   41.0030 O   0  0  0  0  0  0  0  0  0  0  0  0
   39.4180   34.2770   40.6950 N   0  0  0  0  0  0  0  0  0  0  0  0
   40.4780   33.4840   41.3060 C   0  0  0  0  0  0  0  0  0  0  0  0
   41.5090   33.2550   40.2450 C   0  0  0  0  0  0  0  0  0  0  0  0
   42.1790   34.5760   39.9090 C   0  0  0  0  0  0  0  0  0  0  0  0
   41.0850   35.4790   39.3790 C   0  0  0  0  0  0  0  0  0  0  0  0
   39.8960   35.5720   40.3140 C   0  0  0  0  0  0  0  0  0  0  0  0
   43.6464   36.3680   43.0640 H   0  0  0  0  0  0  0  0  0  0  0  0
   44.9199   33.7280   39.8880 H   0  0  0  0  0  0  0  0  0  0  0  0
   47.6624   35.0007   42.8593 H   0  0  0  0  0  0  0  0  0  0  0  0
   39.0713   33.7869   39.8580 H   0  0  0  0  0  0  0  0  0  0  0  0
   40.9199   34.0298   42.1527 H   0  0  0  0  0  0  0  0  0  0  0  0
   40.0874   32.5305   41.6909 H   0  0  0  0  0  0  0  0  0  0  0  0
   42.2627   32.5426   40.6116 H   0  0  0  0  0  0  0  0  0  0  0  0
   41.0290   32.8436   39.3448 H   0  0  0  0  0  0  0  0  0  0  0  0
   42.9799   34.4076   39.1741 H   0  0  0  0  0  0  0  0  0  0  0  0
   41.5000   36.4877   39.2368 H   0  0  0  0  0  0  0  0  0  0  0  0
   40.7288   35.0471   38.4321 H   0  0  0  0  0  0  0  0  0  0  0  0
   40.1962   36.1213   41.2185 H   0  0  0  0  0  0  0  0  0  0  0  0
   39.0850   36.0946   39.7857 H   0  0  0  0  0  0  0  0  0  0  0  0
  1  6  2  0
  2  1  1  0
  3  4  1  0
  3  2  2  0
  4  5  2  0
  5  6  1  0
  7  2  1  0
  8  9  1  0
 10  9  1  0
 11 10  1  0
 11  7  1  0
 12 11  1  0
 12 13  1  0
 13  8  1  0
  1 14  1  0
  3 15  1  0
  5 16  1  0
  8 17  1  0
  9 18  1  0
  9 19  1  0
 10 20  1  0
 10 21  1  0
 11 22  1  0
 12 23  1  0
 12 24  1  0
 13 25  1  0
 13 26  1  0
M  ISO  8  14  14  15  14  16  14  17   5  18  13  19  13  20  13  21  13
M  ISO  5  22  13  23  13  24  13  25  13  26  13
M  END
>  <minimizedAffinity>  (1) 
-3.75870109

>  <minimizedRMSD>  (1) 
3.61377668

$$$$
