
     RDKit          3D

 18 19  0  0  0  0  0  0  0  0999 V2000
   46.0080   34.6400   41.8410 C   0  0  0  0  0  0  0  0  0  0  0  0
   44.9030   33.7810   41.9600 C   0  0  0  0  0  0  0  0  0  0  0  0
   44.7910   32.9770   43.0870 C   0  0  0  0  0  0  0  0  0  0  0  0
   45.7660   33.0610   44.0290 N   0  0  0  0  0  0  0  0  0  0  0  0
   46.8110   33.8840   43.9030 C   0  0  0  0  0  0  0  0  0  0  0  0
   46.9380   34.6680   42.8220 N   0  0  0  0  0  0  0  0  0  0  0  0
   44.0260   33.8390   40.9040 O   0  0  0  0  0  0  0  0  0  0  0  0
   42.7520   34.3740   41.1600 C   0  0  0  0  0  0  0  0  0  0  0  0
   41.5360   33.7310   41.1220 C   0  0  0  0  0  0  0  0  0  0  0  0
   40.6220   34.7150   41.4510 C   0  0  0  0  0  0  0  0  0  0  0  0
   41.2460   35.8830   41.6750 N   0  0  0  0  0  0  0  0  0  0  0  0
   42.5600   35.6690   41.4950 N   0  0  0  0  0  0  0  0  0  0  0  0
   46.1159   35.2850   40.9565 H   0  0  0  0  0  0  0  0  0  0  0  0
   43.9387   32.2931   43.2129 H   0  0  0  0  0  0  0  0  0  0  0  0
   47.5749   33.9190   44.6937 H   0  0  0  0  0  0  0  0  0  0  0  0
   41.3367   32.6757   40.8843 H   0  0  0  0  0  0  0  0  0  0  0  0
   39.5348   34.5624   41.5197 H   0  0  0  0  0  0  0  0  0  0  0  0
   40.8011   36.7746   41.9356 H   0  0  0  0  0  0  0  0  0  0  0  0
  1  2  2  0
  1  6  1  0
  2  3  1  0
  3  4  2  0
  5  4  1  0
  6  5  2  0
  7  8  1  0
  7  2  1  0
  8 12  2  0
  9  8  1  0
  9 10  2  0
 10 11  1  0
 12 11  1  0
  1 13  1  0
  3 14  1  0
  5 15  1  0
  9 16  1  0
 10 17  1  0
 11 18  1  0
M  ISO  6  13  14  14  14  15  14  16  14  17  14  18   9
M  END
>  <minimizedAffinity>  (1) 
-3.19732523

>  <minimizedRMSD>  (1) 
4.76472855

$$$$
