
     RDKit          3D

 18 19  0  0  0  0  0  0  0  0999 V2000
   45.0720   33.4950   47.1570 C   0  0  0  0  0  0  0  0  0  0  0  0
   45.7290   33.5940   45.9120 C   0  0  0  0  0  0  0  0  0  0  0  0
   46.7630   32.7060   45.6380 C   0  0  0  0  0  0  0  0  0  0  0  0
   47.0960   31.7790   46.5870 N   0  0  0  0  0  0  0  0  0  0  0  0
   46.4520   31.7110   47.7610 C   0  0  0  0  0  0  0  0  0  0  0  0
   45.4460   32.5590   48.0510 N   0  0  0  0  0  0  0  0  0  0  0  0
   45.2740   34.5760   45.0750 O   0  0  0  0  0  0  0  0  0  0  0  0
   45.3960   34.3870   43.7130 C   0  0  0  0  0  0  0  0  0  0  0  0
   44.5650   33.7100   42.8470 C   0  0  0  0  0  0  0  0  0  0  0  0
   44.9260   33.6750   41.5230 C   0  0  0  0  0  0  0  0  0  0  0  0
   46.0500   34.2910   41.1380 C   0  0  0  0  0  0  0  0  0  0  0  0
   46.7340   34.9960   42.6160 S   0  0  0  0  0  0  0  0  0  0  0  0
   44.2505   34.1854   47.3987 H   0  0  0  0  0  0  0  0  0  0  0  0
   47.3012   32.7480   44.6796 H   0  0  0  0  0  0  0  0  0  0  0  0
   46.7495   30.9512   48.4987 H   0  0  0  0  0  0  0  0  0  0  0  0
   43.6483   33.2169   43.2027 H   0  0  0  0  0  0  0  0  0  0  0  0
   44.2998   33.1477   40.7883 H   0  0  0  0  0  0  0  0  0  0  0  0
   46.4629   34.3483   40.1200 H   0  0  0  0  0  0  0  0  0  0  0  0
  1  6  2  0
  2  1  1  0
  3  2  2  0
  3  4  1  0
  4  5  2  0
  5  6  1  0
  7  2  1  0
  8  7  1  0
  9  8  2  0
 10  9  1  0
 11 10  2  0
 11 12  1  0
 12  8  1  0
  1 13  1  0
  3 14  1  0
  5 15  1  0
  9 16  1  0
 10 17  1  0
 11 18  1  0
M  ISO  6  13  14  14  14  15  14  16  14  17  14  18  14
M  END
>  <minimizedAffinity>  (1) 
-3.10971594

>  <minimizedRMSD>  (1) 
4.43375826

$$$$
