
     RDKit          3D

 30 31  0  0  0  0  0  0  0  0999 V2000
   46.4660   34.5280   41.4140 C   0  0  0  0  0  0  0  0  0  0  0  0
   47.7020   35.3230   41.8230 C   0  0  0  0  0  0  0  0  0  0  0  0
   48.9360   34.5810   41.4330 C   0  0  0  0  0  0  0  0  0  0  0  0
   49.9860   34.7490   42.5130 C   0  0  0  0  0  0  0  0  0  0  0  0
   50.7820   33.4470   42.3930 C   0  0  0  0  0  0  0  0  0  0  0  0
   49.6520   32.4500   42.2790 C   0  0  0  0  0  0  0  0  0  0  0  0
   48.7260   33.1090   41.2800 C   0  0  0  0  0  0  0  0  0  0  0  0
   45.3800   34.8250   42.2570 O   0  0  0  0  0  0  0  0  0  0  0  0
   44.6590   35.5730   44.3380 C   0  0  0  0  0  0  0  0  0  0  0  0
   45.2990   34.5750   43.5930 C   0  0  0  0  0  0  0  0  0  0  0  0
   45.7820   33.4460   44.2650 C   0  0  0  0  0  0  0  0  0  0  0  0
   45.6070   33.3750   45.6050 N   0  0  0  0  0  0  0  0  0  0  0  0
   44.9920   34.3430   46.2990 C   0  0  0  0  0  0  0  0  0  0  0  0
   44.5200   35.4310   45.6810 N   0  0  0  0  0  0  0  0  0  0  0  0
   46.1990   34.7840   40.3781 H   0  0  0  0  0  0  0  0  0  0  0  0
   46.6935   33.4550   41.4966 H   0  0  0  0  0  0  0  0  0  0  0  0
   47.6899   36.3007   41.3190 H   0  0  0  0  0  0  0  0  0  0  0  0
   47.6955   35.4663   42.9136 H   0  0  0  0  0  0  0  0  0  0  0  0
   49.2419   35.0000   40.4630 H   0  0  0  0  0  0  0  0  0  0  0  0
   50.6221   35.6251   42.3184 H   0  0  0  0  0  0  0  0  0  0  0  0
   49.5661   34.9198   43.5152 H   0  0  0  0  0  0  0  0  0  0  0  0
   51.4214   33.4418   41.4979 H   0  0  0  0  0  0  0  0  0  0  0  0
   51.4822   33.2572   43.2199 H   0  0  0  0  0  0  0  0  0  0  0  0
   50.0142   31.4811   41.9048 H   0  0  0  0  0  0  0  0  0  0  0  0
   49.1681   32.2269   43.2413 H   0  0  0  0  0  0  0  0  0  0  0  0
   47.6800   32.8474   41.4979 H   0  0  0  0  0  0  0  0  0  0  0  0
   48.9381   32.7761   40.2533 H   0  0  0  0  0  0  0  0  0  0  0  0
   44.2694   36.4708   43.8358 H   0  0  0  0  0  0  0  0  0  0  0  0
   46.2903   32.6380   43.7184 H   0  0  0  0  0  0  0  0  0  0  0  0
   44.8744   34.2414   47.3880 H   0  0  0  0  0  0  0  0  0  0  0  0
  1  2  1  0
  1  8  1  0
  3  2  1  0
  3  4  1  0
  5  4  1  0
  6  5  1  0
  7  3  1  0
  7  6  1  0
  8 10  1  0
  9 14  2  0
 10 11  2  0
 10  9  1  0
 11 12  1  0
 12 13  2  0
 14 13  1  0
  1 15  1  0
  1 16  1  0
  2 17  1  0
  2 18  1  0
  3 19  1  0
  4 20  1  0
  4 21  1  0
  5 22  1  0
  5 23  1  0
  6 24  1  0
  6 25  1  0
  7 26  1  0
  7 27  1  0
  9 28  1  0
 11 29  1  0
 13 30  1  0
M  ISO  8  15   8  16   8  17   8  18   8  19  13  20  13  21  13  22  13
M  ISO  8  23  13  24  13  25  13  26  13  27  13  28  14  29  14  30  14
M  END
>  <minimizedAffinity>  (1) 
-4.17833567

>  <minimizedRMSD>  (1) 
1.49010623

$$$$
