
     RDKit          3D

 23 24  0  0  0  0  0  0  0  0999 V2000
   45.9700   34.1320   45.0120 C   0  0  0  0  0  0  0  0  0  0  0  0
   44.9070   35.1220   44.5410 C   0  0  0  0  0  0  0  0  0  0  0  0
   44.8220   34.9330   43.0850 N   0  0  0  0  0  0  0  0  0  0  0  0
   43.7900   35.3540   42.3100 C   0  0  0  0  0  0  0  0  0  0  0  0
   44.0620   35.0100   41.0610 N   0  0  0  0  0  0  0  0  0  0  0  0
   45.2620   34.3740   41.0340 C   0  0  0  0  0  0  0  0  0  0  0  0
   45.7070   34.3440   42.3110 N   0  0  0  0  0  0  0  0  0  0  0  0
   45.4240   33.1030   45.7590 O   0  0  0  0  0  0  0  0  0  0  0  0
   45.3640   32.5190   48.0270 C   0  0  0  0  0  0  0  0  0  0  0  0
   45.9990   32.4250   46.7880 C   0  0  0  0  0  0  0  0  0  0  0  0
   47.1640   31.6470   46.7090 C   0  0  0  0  0  0  0  0  0  0  0  0
   47.6000   31.0410   47.8210 N   0  0  0  0  0  0  0  0  0  0  0  0
   46.9760   31.1410   49.0130 C   0  0  0  0  0  0  0  0  0  0  0  0
   45.8660   31.8810   49.0940 N   0  0  0  0  0  0  0  0  0  0  0  0
   46.7058   34.6678   45.6297 H   0  0  0  0  0  0  0  0  0  0  0  0
   46.4435   33.6921   44.1219 H   0  0  0  0  0  0  0  0  0  0  0  0
   43.9390   34.9033   45.0155 H   0  0  0  0  0  0  0  0  0  0  0  0
   45.1637   36.1581   44.8067 H   0  0  0  0  0  0  0  0  0  0  0  0
   42.8910   35.8846   42.6569 H   0  0  0  0  0  0  0  0  0  0  0  0
   45.7710   33.9645   40.1490 H   0  0  0  0  0  0  0  0  0  0  0  0
   44.4477   33.1191   48.1287 H   0  0  0  0  0  0  0  0  0  0  0  0
   47.7056   31.5375   45.7578 H   0  0  0  0  0  0  0  0  0  0  0  0
   47.3725   30.6244   49.8995 H   0  0  0  0  0  0  0  0  0  0  0  0
  1  8  1  0
  2  1  1  0
  3  2  1  0
  4  3  1  0
  5  4  2  0
  6  5  1  0
  6  7  2  0
  7  3  1  0
  8 10  1  0
  9 14  2  0
 10  9  1  0
 11 10  2  0
 11 12  1  0
 12 13  2  0
 13 14  1  0
  1 15  1  0
  1 16  1  0
  2 17  1  0
  2 18  1  0
  4 19  1  0
  6 20  1  0
  9 21  1  0
 11 22  1  0
 13 23  1  0
M  ISO  8  15   8  16   8  17   8  18   8  19  14  20  14  21  14  22  14
M  ISO  1  23  14
M  END
>  <minimizedAffinity>  (1) 
-3.51230288

>  <minimizedRMSD>  (1) 
5.79483128

$$$$
