
     RDKit          3D

 24 24  0  0  0  0  0  0  0  0999 V2000
   46.2830   35.1260   41.8390 O   0  0  0  0  0  0  0  0  0  0  0  0
   44.9880   36.0620   43.5400 C   0  0  0  0  0  0  0  0  0  0  0  0
   45.8170   35.0230   43.1040 C   0  0  0  0  0  0  0  0  0  0  0  0
   46.0670   33.9990   44.0210 C   0  0  0  0  0  0  0  0  0  0  0  0
   45.5170   34.0550   45.2460 N   0  0  0  0  0  0  0  0  0  0  0  0
   44.7290   35.0640   45.6280 C   0  0  0  0  0  0  0  0  0  0  0  0
   44.4630   36.0600   44.7910 N   0  0  0  0  0  0  0  0  0  0  0  0
   46.7760   34.0970   41.0500 C   0  0  0  0  0  0  0  0  0  0  0  0
   48.0430   34.4860   40.3040 C   0  0  0  0  0  0  0  0  0  0  0  0
   49.0160   35.6530   41.2910 S   0  0  0  0  0  0  0  0  0  0  0  0
   49.7310   34.9020   42.7470 C   0  0  0  0  0  0  0  0  0  0  0  0
   50.4630   33.6400   42.2750 C   0  0  0  0  0  0  0  0  0  0  0  0
   44.7582   36.8937   42.8578 H   0  0  0  0  0  0  0  0  0  0  0  0
   46.7104   33.1516   43.7419 H   0  0  0  0  0  0  0  0  0  0  0  0
   44.2987   35.0697   46.6403 H   0  0  0  0  0  0  0  0  0  0  0  0
   46.9981   33.2341   41.6951 H   0  0  0  0  0  0  0  0  0  0  0  0
   46.0087   33.8564   40.2995 H   0  0  0  0  0  0  0  0  0  0  0  0
   48.6429   33.5843   40.1116 H   0  0  0  0  0  0  0  0  0  0  0  0
   47.7672   34.9633   39.3521 H   0  0  0  0  0  0  0  0  0  0  0  0
   50.4394   35.5960   43.2229 H   0  0  0  0  0  0  0  0  0  0  0  0
   48.9559   34.6570   43.4881 H   0  0  0  0  0  0  0  0  0  0  0  0
   50.7982   33.0621   43.1489 H   0  0  0  0  0  0  0  0  0  0  0  0
   49.7810   33.0257   41.6688 H   0  0  0  0  0  0  0  0  0  0  0  0
   51.3349   33.9269   41.6688 H   0  0  0  0  0  0  0  0  0  0  0  0
  1  3  1  0
  2  7  2  0
  3  2  1  0
  3  4  2  0
  4  5  1  0
  5  6  2  0
  7  6  1  0
  8  1  1  0
  9  8  1  0
  9 10  1  0
 10 11  1  0
 12 11  1  0
  2 13  1  0
  4 14  1  0
  6 15  1  0
  8 16  1  0
  8 17  1  0
  9 18  1  0
  9 19  1  0
 11 20  1  0
 11 21  1  0
 12 22  1  0
 12 23  1  0
 12 24  1  0
M  ISO  8  13  14  14  14  15  14  16   8  17   8  18   8  19   8  20   8
M  ISO  4  21   8  22   8  23   8  24   8
M  END
>  <minimizedAffinity>  (1) 
-3.65970063

>  <minimizedRMSD>  (1) 
1.10680032

$$$$
