
     RDKit          3D

 21 21  0  0  0  0  0  0  0  0999 V2000
   46.3010   35.0950   41.7940 O   0  0  0  0  0  0  0  0  0  0  0  0
   45.0030   36.0790   43.4790 C   0  0  0  0  0  0  0  0  0  0  0  0
   45.8260   35.0160   43.0710 C   0  0  0  0  0  0  0  0  0  0  0  0
   46.0750   33.9930   44.0030 C   0  0  0  0  0  0  0  0  0  0  0  0
   45.5240   34.0750   45.2240 N   0  0  0  0  0  0  0  0  0  0  0  0
   44.7410   35.1050   45.5810 C   0  0  0  0  0  0  0  0  0  0  0  0
   44.4810   36.0990   44.7200 N   0  0  0  0  0  0  0  0  0  0  0  0
   47.3430   34.3680   41.2540 C   0  0  0  0  0  0  0  0  0  0  0  0
   48.6260   35.1540   41.0910 C   0  0  0  0  0  0  0  0  0  0  0  0
   49.7070   34.9160   42.5200 S   0  0  0  0  0  0  0  0  0  0  0  0
   50.6850   33.3800   42.2960 C   0  0  0  0  0  0  0  0  0  0  0  0
   44.7837   36.8999   42.7804 H   0  0  0  0  0  0  0  0  0  0  0  0
   46.7125   33.1375   43.7351 H   0  0  0  0  0  0  0  0  0  0  0  0
   44.3077   35.1338   46.5916 H   0  0  0  0  0  0  0  0  0  0  0  0
   47.5444   33.5110   41.9135 H   0  0  0  0  0  0  0  0  0  0  0  0
   47.0276   34.0632   40.2452 H   0  0  0  0  0  0  0  0  0  0  0  0
   49.1461   34.8123   40.1839 H   0  0  0  0  0  0  0  0  0  0  0  0
   48.3781   36.2226   41.0091 H   0  0  0  0  0  0  0  0  0  0  0  0
   50.9485   32.9662   43.2806 H   0  0  0  0  0  0  0  0  0  0  0  0
   50.0888   32.6440   41.7366 H   0  0  0  0  0  0  0  0  0  0  0  0
   51.6041   33.6088   41.7366 H   0  0  0  0  0  0  0  0  0  0  0  0
  1  3  1  0
  2  7  2  0
  3  2  1  0
  3  4  2  0
  4  5  1  0
  5  6  2  0
  7  6  1  0
  8  1  1  0
  9  8  1  0
  9 10  1  0
 11 10  1  0
  2 12  1  0
  4 13  1  0
  6 14  1  0
  8 15  1  0
  8 16  1  0
  9 17  1  0
  9 18  1  0
 11 19  1  0
 11 20  1  0
 11 21  1  0
M  ISO  8  12  14  13  14  14  14  15   8  16   8  17   8  18   8  19   8
M  ISO  2  20   8  21   8
M  END
>  <minimizedAffinity>  (1) 
-3.53394437

>  <minimizedRMSD>  (1) 
0.282172322

$$$$
