
     RDKit          3D

 28 29  0  0  0  0  0  0  0  0999 V2000
   47.3870   34.5290   41.1230 C   0  0  0  0  0  0  0  0  0  0  0  0
   48.6330   35.3710   41.2270 C   0  0  0  0  0  0  0  0  0  0  0  0
   49.7380   34.7310   42.5100 S   0  0  0  0  0  0  0  0  0  0  0  0
   50.0500   32.9990   42.3190 C   0  0  0  0  0  0  0  0  0  0  0  0
   51.1180   32.4080   41.6560 C   0  0  0  0  0  0  0  0  0  0  0  0
   51.2010   31.0360   41.6040 C   0  0  0  0  0  0  0  0  0  0  0  0
   50.2380   30.2500   42.2010 C   0  0  0  0  0  0  0  0  0  0  0  0
   49.1760   30.8650   42.8600 C   0  0  0  0  0  0  0  0  0  0  0  0
   49.1430   32.2060   42.8810 N   0  0  0  0  0  0  0  0  0  0  0  0
   46.2780   35.1330   41.7060 O   0  0  0  0  0  0  0  0  0  0  0  0
   45.0100   36.0710   43.4180 C   0  0  0  0  0  0  0  0  0  0  0  0
   45.8410   35.0200   42.9670 C   0  0  0  0  0  0  0  0  0  0  0  0
   46.1200   34.0000   43.8500 C   0  0  0  0  0  0  0  0  0  0  0  0
   45.6050   34.0200   45.1020 N   0  0  0  0  0  0  0  0  0  0  0  0
   44.8110   35.0320   45.5200 C   0  0  0  0  0  0  0  0  0  0  0  0
   44.5280   36.0300   44.6820 N   0  0  0  0  0  0  0  0  0  0  0  0
   44.2470   35.1200   46.7870 O   0  0  0  0  0  0  0  0  0  0  0  0
   47.1713   34.3504   40.0592 H   0  0  0  0  0  0  0  0  0  0  0  0
   47.5756   33.5902   41.6644 H   0  0  0  0  0  0  0  0  0  0  0  0
   49.1579   35.3588   40.2604 H   0  0  0  0  0  0  0  0  0  0  0  0
   48.3426   36.3981   41.4929 H   0  0  0  0  0  0  0  0  0  0  0  0
   51.8888   33.0303   41.1779 H   0  0  0  0  0  0  0  0  0  0  0  0
   52.0441   30.5610   41.0809 H   0  0  0  0  0  0  0  0  0  0  0  0
   50.3075   29.1531   42.1574 H   0  0  0  0  0  0  0  0  0  0  0  0
   48.3896   30.2702   43.3476 H   0  0  0  0  0  0  0  0  0  0  0  0
   44.7589   36.9094   42.7517 H   0  0  0  0  0  0  0  0  0  0  0  0
   46.7642   33.1654   43.5364 H   0  0  0  0  0  0  0  0  0  0  0  0
   43.6746   35.8930   47.0214 H   0  0  0  0  0  0  0  0  0  0  0  0
  1  2  1  0
  1 10  1  0
  2  3  1  0
  4  3  1  0
  4  9  1  0
  5  4  2  0
  6  5  1  0
  6  7  2  0
  7  8  1  0
  8  9  2  0
 10 12  1  0
 11 16  2  0
 12 11  1  0
 12 13  2  0
 13 14  1  0
 14 15  2  0
 15 17  1  0
 16 15  1  0
  1 18  1  0
  1 19  1  0
  2 20  1  0
  2 21  1  0
  5 22  1  0
  6 23  1  0
  7 24  1  0
  8 25  1  0
 11 26  1  0
 13 27  1  0
 17 28  1  0
M  ISO  8  18   8  19   8  20   8  21   8  22  14  23  14  24  14  25  14
M  ISO  3  26  14  27  14  28   3
M  END
>  <minimizedAffinity>  (1) 
-4.88137722

>  <minimizedRMSD>  (1) 
0.0417679325

$$$$
