
     RDKit          3D

 34 36  0  0  0  0  0  0  0  0999 V2000
   47.2660   34.4390   41.5670 C   0  0  0  0  0  0  0  0  0  0  0  0
   48.5570   35.1990   41.3440 C   0  0  0  0  0  0  0  0  0  0  0  0
   49.8610   34.5760   42.4260 S   0  0  0  0  0  0  0  0  0  0  0  0
   50.2710   32.8880   42.0820 C   0  0  0  0  0  0  0  0  0  0  0  0
   51.3200   32.4280   41.3000 C   0  0  0  0  0  0  0  0  0  0  0  0
   51.4900   31.0700   41.1380 C   0  0  0  0  0  0  0  0  0  0  0  0
   50.6330   30.1640   41.7420 C   0  0  0  0  0  0  0  0  0  0  0  0
   49.5880   30.6600   42.5220 C   0  0  0  0  0  0  0  0  0  0  0  0
   49.4670   31.9940   42.6470 N   0  0  0  0  0  0  0  0  0  0  0  0
   46.5980   34.8590   42.7110 O   0  0  0  0  0  0  0  0  0  0  0  0
   45.4490   34.7030   44.7270 C   0  0  0  0  0  0  0  0  0  0  0  0
   46.4400   34.1980   43.8630 C   0  0  0  0  0  0  0  0  0  0  0  0
   47.1360   33.0880   44.2900 C   0  0  0  0  0  0  0  0  0  0  0  0
   46.8660   32.5250   45.4840 N   0  0  0  0  0  0  0  0  0  0  0  0
   45.9070   33.0280   46.3000 C   0  0  0  0  0  0  0  0  0  0  0  0
   45.2150   34.1030   45.9150 N   0  0  0  0  0  0  0  0  0  0  0  0
   45.7450   32.2970   47.5540 C   0  0  0  0  0  0  0  0  0  0  0  0
   44.7450   31.8980   48.3810 C   0  0  0  0  0  0  0  0  0  0  0  0
   45.3610   31.2230   49.4180 C   0  0  0  0  0  0  0  0  0  0  0  0
   46.7190   31.2420   49.1750 C   0  0  0  0  0  0  0  0  0  0  0  0
   46.9070   31.8910   48.0530 O   0  0  0  0  0  0  0  0  0  0  0  0
   47.4983   33.3684   41.6659 H   0  0  0  0  0  0  0  0  0  0  0  0
   46.6099   34.6296   40.7049 H   0  0  0  0  0  0  0  0  0  0  0  0
   48.8697   35.0795   40.2962 H   0  0  0  0  0  0  0  0  0  0  0  0
   48.3856   36.2612   41.5730 H   0  0  0  0  0  0  0  0  0  0  0  0
   52.0070   33.1375   40.8156 H   0  0  0  0  0  0  0  0  0  0  0  0
   52.3200   30.6990   40.5188 H   0  0  0  0  0  0  0  0  0  0  0  0
   50.7731   29.0810   41.6098 H   0  0  0  0  0  0  0  0  0  0  0  0
   48.8826   29.9792   43.0209 H   0  0  0  0  0  0  0  0  0  0  0  0
   44.8643   35.5876   44.4342 H   0  0  0  0  0  0  0  0  0  0  0  0
   47.9199   32.6572   43.6497 H   0  0  0  0  0  0  0  0  0  0  0  0
   43.6670   32.0753   48.2523 H   0  0  0  0  0  0  0  0  0  0  0  0
   44.8604   30.7563   50.2791 H   0  0  0  0  0  0  0  0  0  0  0  0
   47.5000   30.7945   49.8072 H   0  0  0  0  0  0  0  0  0  0  0  0
  1 10  1  0
  2  1  1  0
  2  3  1  0
  4  3  1  0
  4  9  1  0
  5  4  2  0
  6  5  1  0
  6  7  2  0
  7  8  1  0
  8  9  2  0
 10 12  1  0
 11 16  2  0
 12 13  2  0
 12 11  1  0
 13 14  1  0
 14 15  2  0
 15 17  1  0
 16 15  1  0
 17 21  1  0
 17 18  2  0
 18 19  1  0
 20 19  2  0
 21 20  1  0
  1 22  1  0
  1 23  1  0
  2 24  1  0
  2 25  1  0
  5 26  1  0
  6 27  1  0
  7 28  1  0
  8 29  1  0
 11 30  1  0
 13 31  1  0
 18 32  1  0
 19 33  1  0
 20 34  1  0
M  ISO  8  22   8  23   8  24   8  25   8  26  14  27  14  28  14  29  14
M  ISO  5  30  14  31  14  32  14  33  14  34  14
M  END
>  <minimizedAffinity>  (1) 
-4.77739382

>  <minimizedRMSD>  (1) 
1.98200941

$$$$
