
     RDKit          3D

 36 37  0  0  0  0  0  0  0  0999 V2000
   45.4500   34.4430   42.9150 C   0  0  0  0  0  0  0  0  0  0  0  0
   46.1610   34.4530   41.5940 C   0  0  0  0  0  0  0  0  0  0  0  0
   47.8000   35.2140   41.7410 S   0  0  0  0  0  0  0  0  0  0  0  0
   49.0970   34.0110   41.6430 C   0  0  0  0  0  0  0  0  0  0  0  0
   50.2380   33.9320   42.4330 C   0  0  0  0  0  0  0  0  0  0  0  0
   51.1470   32.9270   42.2170 C   0  0  0  0  0  0  0  0  0  0  0  0
   50.9420   31.9890   41.2230 C   0  0  0  0  0  0  0  0  0  0  0  0
   49.7900   32.0860   40.4430 C   0  0  0  0  0  0  0  0  0  0  0  0
   48.9330   33.0920   40.6980 N   0  0  0  0  0  0  0  0  0  0  0  0
   46.3190   34.3310   43.9980 O   0  0  0  0  0  0  0  0  0  0  0  0
   45.5270   33.7390   46.1000 C   0  0  0  0  0  0  0  0  0  0  0  0
   46.3160   33.4190   44.9760 C   0  0  0  0  0  0  0  0  0  0  0  0
   46.9970   32.2220   44.9940 C   0  0  0  0  0  0  0  0  0  0  0  0
   46.8970   31.3960   46.0600 N   0  0  0  0  0  0  0  0  0  0  0  0
   46.1370   31.7140   47.1300 C   0  0  0  0  0  0  0  0  0  0  0  0
   45.4750   32.8570   47.1380 N   0  0  0  0  0  0  0  0  0  0  0  0
   46.0470   30.7860   48.2880 C   0  0  0  0  0  0  0  0  0  0  0  0
   45.3500   31.4530   49.4590 C   0  0  0  0  0  0  0  0  0  0  0  0
   45.1910   29.5640   47.9320 C   0  0  0  0  0  0  0  0  0  0  0  0
   44.7551   33.5905   42.9330 H   0  0  0  0  0  0  0  0  0  0  0  0
   44.9227   35.4034   43.0131 H   0  0  0  0  0  0  0  0  0  0  0  0
   45.5633   35.0244   40.8686 H   0  0  0  0  0  0  0  0  0  0  0  0
   46.2873   33.4135   41.2572 H   0  0  0  0  0  0  0  0  0  0  0  0
   50.4115   34.6721   43.2281 H   0  0  0  0  0  0  0  0  0  0  0  0
   52.0498   32.8672   42.8426 H   0  0  0  0  0  0  0  0  0  0  0  0
   51.6713   31.1837   41.0509 H   0  0  0  0  0  0  0  0  0  0  0  0
   49.5874   31.3604   39.6415 H   0  0  0  0  0  0  0  0  0  0  0  0
   44.9638   34.6831   46.1385 H   0  0  0  0  0  0  0  0  0  0  0  0
   47.6251   31.9366   44.1373 H   0  0  0  0  0  0  0  0  0  0  0  0
   47.0771   30.4984   48.5455 H   0  0  0  0  0  0  0  0  0  0  0  0
   45.7599   31.0608   50.4014 H   0  0  0  0  0  0  0  0  0  0  0  0
   45.5134   32.5398   49.4123 H   0  0  0  0  0  0  0  0  0  0  0  0
   44.2714   31.2420   49.4123 H   0  0  0  0  0  0  0  0  0  0  0  0
   44.8483   29.0747   48.8557 H   0  0  0  0  0  0  0  0  0  0  0  0
   44.3198   29.8858   47.3425 H   0  0  0  0  0  0  0  0  0  0  0  0
   45.7910   28.8552   47.3425 H   0  0  0  0  0  0  0  0  0  0  0  0
  1 10  1  0
  2  3  1  0
  2  1  1  0
  4  3  1  0
  4  5  2  0
  6  5  1  0
  7  6  2  0
  8  9  2  0
  8  7  1  0
  9  4  1  0
 10 12  1  0
 11 16  2  0
 12 13  2  0
 12 11  1  0
 13 14  1  0
 14 15  2  0
 15 16  1  0
 15 17  1  0
 17 18  1  0
 19 17  1  0
  1 20  1  0
  1 21  1  0
  2 22  1  0
  2 23  1  0
  5 24  1  0
  6 25  1  0
  7 26  1  0
  8 27  1  0
 11 28  1  0
 13 29  1  0
 17 30  1  0
 18 31  1  0
 18 32  1  0
 18 33  1  0
 19 34  1  0
 19 35  1  0
 19 36  1  0
M  ISO  8  20   8  21   8  22   8  23   8  24  14  25  14  26  14  27  14
M  ISO  8  28  14  29  14  30   8  31   8  32   8  33   8  34   8  35   8
M  ISO  1  36   8
M  END
>  <minimizedAffinity>  (1) 
-4.61564207

>  <minimizedRMSD>  (1) 
3.15305138

$$$$
