
     RDKit          3D

 40 42  0  0  0  0  0  0  0  0999 V2000
   46.9660   34.4370   41.8420 C   0  0  0  0  0  0  0  0  0  0  0  0
   48.1850   35.3270   41.8090 C   0  0  0  0  0  0  0  0  0  0  0  0
   49.6730   34.4120   42.2740 S   0  0  0  0  0  0  0  0  0  0  0  0
   49.6430   32.7420   41.6870 C   0  0  0  0  0  0  0  0  0  0  0  0
   49.5890   32.3160   40.3640 C   0  0  0  0  0  0  0  0  0  0  0  0
   49.5720   30.9600   40.0890 C   0  0  0  0  0  0  0  0  0  0  0  0
   49.6080   30.0450   41.1100 C   0  0  0  0  0  0  0  0  0  0  0  0
   49.6620   30.4890   42.4310 C   0  0  0  0  0  0  0  0  0  0  0  0
   49.6770   31.8180   42.6420 N   0  0  0  0  0  0  0  0  0  0  0  0
   46.1250   34.6830   42.9170 O   0  0  0  0  0  0  0  0  0  0  0  0
   45.1760   34.6150   45.0500 C   0  0  0  0  0  0  0  0  0  0  0  0
   46.1270   34.1100   44.1270 C   0  0  0  0  0  0  0  0  0  0  0  0
   46.9490   33.0930   44.5540 C   0  0  0  0  0  0  0  0  0  0  0  0
   46.8390   32.6070   45.8130 N   0  0  0  0  0  0  0  0  0  0  0  0
   45.9230   33.1050   46.6790 C   0  0  0  0  0  0  0  0  0  0  0  0
   45.1050   34.0950   46.2980 N   0  0  0  0  0  0  0  0  0  0  0  0
   45.7340   32.6330   48.0740 C   0  0  0  0  0  0  0  0  0  0  0  0
   44.6980   31.5750   48.2210 C   0  0  0  0  0  0  0  0  0  0  0  0
   45.4020   30.4850   49.0110 C   0  0  0  0  0  0  0  0  0  0  0  0
   46.8080   30.5690   48.4790 C   0  0  0  0  0  0  0  0  0  0  0  0
   47.0620   32.0510   48.5060 C   0  0  0  0  0  0  0  0  0  0  0  0
   47.3013   33.3907   41.8957 H   0  0  0  0  0  0  0  0  0  0  0  0
   46.3900   34.6468   40.9287 H   0  0  0  0  0  0  0  0  0  0  0  0
   48.3115   35.7250   40.7914 H   0  0  0  0  0  0  0  0  0  0  0  0
   48.0392   36.1454   42.5294 H   0  0  0  0  0  0  0  0  0  0  0  0
   49.5601   33.0495   39.5448 H   0  0  0  0  0  0  0  0  0  0  0  0
   49.5294   30.6140   39.0457 H   0  0  0  0  0  0  0  0  0  0  0  0
   49.5944   28.9676   40.8884 H   0  0  0  0  0  0  0  0  0  0  0  0
   49.6913   29.7785   43.2702 H   0  0  0  0  0  0  0  0  0  0  0  0
   44.4972   35.4278   44.7524 H   0  0  0  0  0  0  0  0  0  0  0  0
   47.6998   32.6723   43.8689 H   0  0  0  0  0  0  0  0  0  0  0  0
   45.3957   33.4849   48.6821 H   0  0  0  0  0  0  0  0  0  0  0  0
   43.8247   31.9556   48.7710 H   0  0  0  0  0  0  0  0  0  0  0  0
   44.3140   31.2186   47.2538 H   0  0  0  0  0  0  0  0  0  0  0  0
   45.3707   30.6909   50.0911 H   0  0  0  0  0  0  0  0  0  0  0  0
   44.9446   29.4909   48.8987 H   0  0  0  0  0  0  0  0  0  0  0  0
   46.8731   30.1705   47.4558 H   0  0  0  0  0  0  0  0  0  0  0  0
   47.5375   29.9825   49.0567 H   0  0  0  0  0  0  0  0  0  0  0  0
   47.8620   32.3277   47.8035 H   0  0  0  0  0  0  0  0  0  0  0  0
   47.3953   32.4154   49.4889 H   0  0  0  0  0  0  0  0  0  0  0  0
  1 10  1  0
  2  1  1  0
  2  3  1  0
  4  3  1  0
  4  9  1  0
  5  4  2  0
  6  5  1  0
  6  7  2  0
  7  8  1  0
  8  9  2  0
 10 12  1  0
 11 16  2  0
 12 13  2  0
 12 11  1  0
 13 14  1  0
 14 15  2  0
 15 17  1  0
 16 15  1  0
 17 18  1  0
 17 21  1  0
 18 19  1  0
 20 21  1  0
 20 19  1  0
  1 22  1  0
  1 23  1  0
  2 24  1  0
  2 25  1  0
  5 26  1  0
  6 27  1  0
  7 28  1  0
  8 29  1  0
 11 30  1  0
 13 31  1  0
 17 32  1  0
 18 33  1  0
 18 34  1  0
 19 35  1  0
 19 36  1  0
 20 37  1  0
 20 38  1  0
 21 39  1  0
 21 40  1  0
M  ISO  8  22   8  23   8  24   8  25   8  26  14  27  14  28  14  29  14
M  ISO  8  30  14  31  14  32  13  33  13  34  13  35  13  36  13  37  13
M  ISO  3  38  13  39  13  40  13
M  END
>  <minimizedAffinity>  (1) 
-4.54986954

>  <minimizedRMSD>  (1) 
2.21493649

$$$$
