
     RDKit          3D

 34 36  0  0  0  0  0  0  0  0999 V2000
   45.3600   34.6280   42.6520 C   0  0  0  0  0  0  0  0  0  0  0  0
   46.1860   34.4310   41.4140 C   0  0  0  0  0  0  0  0  0  0  0  0
   47.8140   35.2030   41.5870 S   0  0  0  0  0  0  0  0  0  0  0  0
   49.1180   34.0040   41.5880 C   0  0  0  0  0  0  0  0  0  0  0  0
   50.2230   33.9710   42.4270 C   0  0  0  0  0  0  0  0  0  0  0  0
   51.1460   32.9520   42.2800 C   0  0  0  0  0  0  0  0  0  0  0  0
   50.9800   31.9780   41.3170 C   0  0  0  0  0  0  0  0  0  0  0  0
   49.8600   32.0370   40.4890 C   0  0  0  0  0  0  0  0  0  0  0  0
   48.9920   33.0480   40.6720 N   0  0  0  0  0  0  0  0  0  0  0  0
   46.1190   34.6320   43.8150 O   0  0  0  0  0  0  0  0  0  0  0  0
   45.4450   33.8880   45.9090 C   0  0  0  0  0  0  0  0  0  0  0  0
   46.2210   33.6800   44.7500 C   0  0  0  0  0  0  0  0  0  0  0  0
   46.9930   32.5410   44.6930 C   0  0  0  0  0  0  0  0  0  0  0  0
   46.9950   31.6630   45.7210 N   0  0  0  0  0  0  0  0  0  0  0  0
   46.2450   31.8750   46.8270 C   0  0  0  0  0  0  0  0  0  0  0  0
   45.4930   32.9630   46.9080 N   0  0  0  0  0  0  0  0  0  0  0  0
   46.2660   30.8920   47.9420 C   0  0  0  0  0  0  0  0  0  0  0  0
   47.2130   31.0980   49.1070 C   0  0  0  0  0  0  0  0  0  0  0  0
   45.7440   31.3010   49.2930 C   0  0  0  0  0  0  0  0  0  0  0  0
   44.6244   33.8127   42.7162 H   0  0  0  0  0  0  0  0  0  0  0  0
   44.8755   35.6123   42.5715 H   0  0  0  0  0  0  0  0  0  0  0  0
   45.6634   34.8826   40.5579 H   0  0  0  0  0  0  0  0  0  0  0  0
   46.3263   33.3515   41.2558 H   0  0  0  0  0  0  0  0  0  0  0  0
   50.3624   34.7438   43.1973 H   0  0  0  0  0  0  0  0  0  0  0  0
   52.0251   32.9174   42.9402 H   0  0  0  0  0  0  0  0  0  0  0  0
   51.7177   31.1699   41.2046 H   0  0  0  0  0  0  0  0  0  0  0  0
   49.6912   31.2795   39.7094 H   0  0  0  0  0  0  0  0  0  0  0  0
   44.8115   34.7822   46.0048 H   0  0  0  0  0  0  0  0  0  0  0  0
   47.6120   32.3443   43.8052 H   0  0  0  0  0  0  0  0  0  0  0  0
   46.0633   30.0712   47.2383 H   0  0  0  0  0  0  0  0  0  0  0  0
   47.7118   30.2337   49.5698 H   0  0  0  0  0  0  0  0  0  0  0  0
   48.1109   31.7092   49.2809 H   0  0  0  0  0  0  0  0  0  0  0  0
   45.3455   32.3153   49.4425 H   0  0  0  0  0  0  0  0  0  0  0  0
   44.9889   30.8994   49.9847 H   0  0  0  0  0  0  0  0  0  0  0  0
  1 10  1  0
  2  3  1  0
  2  1  1  0
  3  4  1  0
  4  5  2  0
  6  5  1  0
  7  6  2  0
  8  9  2  0
  8  7  1  0
  9  4  1  0
 10 12  1  0
 11 16  2  0
 12 11  1  0
 13 12  2  0
 13 14  1  0
 14 15  2  0
 15 16  1  0
 15 17  1  0
 17 18  1  0
 17 19  1  0
 18 19  1  0
  1 20  1  0
  1 21  1  0
  2 22  1  0
  2 23  1  0
  5 24  1  0
  6 25  1  0
  7 26  1  0
  8 27  1  0
 11 28  1  0
 13 29  1  0
 17 30  1  0
 18 31  1  0
 18 32  1  0
 19 33  1  0
 19 34  1  0
M  ISO  8  20   8  21   8  22   8  23   8  24  14  25  14  26  14  27  14
M  ISO  7  28  14  29  14  30  13  31  13  32  13  33  13  34  13
M  END
>  <minimizedAffinity>  (1) 
-4.54231358

>  <minimizedRMSD>  (1) 
3.21200085

$$$$
