
     RDKit          3D

 34 36  0  0  0  0  0  0  0  0999 V2000
   47.8000   34.5100   40.5810 C   0  0  0  0  0  0  0  0  0  0  0  0
   48.7380   35.5210   41.1800 C   0  0  0  0  0  0  0  0  0  0  0  0
   49.6530   34.8100   42.5660 S   0  0  0  0  0  0  0  0  0  0  0  0
   49.9810   33.0840   42.3420 C   0  0  0  0  0  0  0  0  0  0  0  0
   51.0690   32.5080   41.6940 C   0  0  0  0  0  0  0  0  0  0  0  0
   51.1610   31.1420   41.6160 C   0  0  0  0  0  0  0  0  0  0  0  0
   50.1900   30.3380   42.1720 C   0  0  0  0  0  0  0  0  0  0  0  0
   49.1070   30.9320   42.8180 C   0  0  0  0  0  0  0  0  0  0  0  0
   49.0650   32.2770   42.8670 N   0  0  0  0  0  0  0  0  0  0  0  0
   46.6340   34.3400   41.3090 O   0  0  0  0  0  0  0  0  0  0  0  0
   44.4930   35.2550   41.4820 C   0  0  0  0  0  0  0  0  0  0  0  0
   45.3690   34.3230   40.8730 C   0  0  0  0  0  0  0  0  0  0  0  0
   44.8460   33.4980   39.9040 C   0  0  0  0  0  0  0  0  0  0  0  0
   43.5410   33.5860   39.5560 N   0  0  0  0  0  0  0  0  0  0  0  0
   42.7150   34.4820   40.1490 C   0  0  0  0  0  0  0  0  0  0  0  0
   43.1940   35.3000   41.0970 N   0  0  0  0  0  0  0  0  0  0  0  0
   41.3680   34.4630   39.6830 N   0  0  0  0  0  0  0  0  0  0  0  0
   41.2010   34.7860   38.3730 C   0  0  0  0  0  0  0  0  0  0  0  0
   39.8290   34.7110   38.1050 C   0  0  0  0  0  0  0  0  0  0  0  0
   39.2150   34.3480   39.2540 N   0  0  0  0  0  0  0  0  0  0  0  0
   40.1480   34.1960   40.2120 C   0  0  0  0  0  0  0  0  0  0  0  0
   47.5323   34.8412   39.5668 H   0  0  0  0  0  0  0  0  0  0  0  0
   48.3244   33.5430   40.5787 H   0  0  0  0  0  0  0  0  0  0  0  0
   49.4505   35.8518   40.4100 H   0  0  0  0  0  0  0  0  0  0  0  0
   48.1477   36.3728   41.5487 H   0  0  0  0  0  0  0  0  0  0  0  0
   51.8488   33.1429   41.2480 H   0  0  0  0  0  0  0  0  0  0  0  0
   52.0195   30.6831   41.1039 H   0  0  0  0  0  0  0  0  0  0  0  0
   50.2683   29.2427   42.1070 H   0  0  0  0  0  0  0  0  0  0  0  0
   48.3127   30.3220   43.2729 H   0  0  0  0  0  0  0  0  0  0  0  0
   44.8640   35.9369   42.2613 H   0  0  0  0  0  0  0  0  0  0  0  0
   45.4941   32.7605   39.4079 H   0  0  0  0  0  0  0  0  0  0  0  0
   41.9935   35.0552   37.6592 H   0  0  0  0  0  0  0  0  0  0  0  0
   39.3411   34.9103   37.1395 H   0  0  0  0  0  0  0  0  0  0  0  0
   39.9529   33.9030   41.2542 H   0  0  0  0  0  0  0  0  0  0  0  0
  1  2  1  0
  1 10  1  0
  2  3  1  0
  4  3  1  0
  4  9  1  0
  5  4  2  0
  6  5  1  0
  6  7  2  0
  7  8  1  0
  8  9  2  0
 12 10  1  0
 12 11  2  0
 13 12  1  0
 14 13  2  0
 14 15  1  0
 15 16  2  0
 16 11  1  0
 17 15  1  0
 17 21  1  0
 18 17  1  0
 19 18  2  0
 19 20  1  0
 20 21  2  0
  1 22  1  0
  1 23  1  0
  2 24  1  0
  2 25  1  0
  5 26  1  0
  6 27  1  0
  7 28  1  0
  8 29  1  0
 11 30  1  0
 13 31  1  0
 18 32  1  0
 19 33  1  0
 21 34  1  0
M  ISO  8  22   8  23   8  24   8  25   8  26  14  27  14  28  14  29  14
M  ISO  5  30  14  31  14  32  14  33  14  34  14
M  END
>  <minimizedAffinity>  (1) 
-4.52205992

>  <minimizedRMSD>  (1) 
5.25600481

$$$$
