
     RDKit          3D

 22 23  0  0  0  0  0  0  0  0999 V2000
   47.1360   32.6410   44.5920 C   0  0  0  0  0  0  0  0  0  0  0  0
   47.3890   31.3380   44.8550 N   0  0  0  0  0  0  0  0  0  0  0  0
   46.7280   30.9760   45.9110 O   0  0  0  0  0  0  0  0  0  0  0  0
   46.0300   31.9940   46.3770 C   0  0  0  0  0  0  0  0  0  0  0  0
   46.2760   33.0420   45.5630 N   0  0  0  0  0  0  0  0  0  0  0  0
   45.1920   31.9430   47.5270 N   0  0  0  0  0  0  0  0  0  0  0  0
   45.6370   31.3090   48.7190 C   0  0  0  0  0  0  0  0  0  0  0  0
   46.3470   30.2380   48.6330 N   0  0  0  0  0  0  0  0  0  0  0  0
   45.2960   31.8560   49.9870 N   0  0  0  0  0  0  0  0  0  0  0  0
   46.6120   29.8110   47.7330 H   0  0  0  0  0  0  0  0  0  0  0  0
   47.1320   35.3180   42.0860 C   0  0  0  0  0  0  0  0  0  0  0  0
   48.4450   35.2810   41.5920 C   0  0  0  0  0  0  0  0  0  0  0  0
   49.3380   34.3270   42.1270 C   0  0  0  0  0  0  0  0  0  0  0  0
   48.8720   33.4970   43.0920 N   0  0  0  0  0  0  0  0  0  0  0  0
   47.5950   33.5590   43.5490 C   0  0  0  0  0  0  0  0  0  0  0  0
   46.7490   34.4610   43.0440 N   0  0  0  0  0  0  0  0  0  0  0  0
   44.2549   32.3693   47.4949 H   0  0  0  0  0  0  0  0  0  0  0  0
   45.6189   31.3959   50.8501 H   0  0  0  0  0  0  0  0  0  0  0  0
   44.7261   32.7122   50.0421 H   0  0  0  0  0  0  0  0  0  0  0  0
   46.4157   36.0512   41.6868 H   0  0  0  0  0  0  0  0  0  0  0  0
   48.7708   35.9787   40.8065 H   0  0  0  0  0  0  0  0  0  0  0  0
   50.3771   34.2596   41.7725 H   0  0  0  0  0  0  0  0  0  0  0  0
  1  2  2  0
  1  5  1  0
  2  3  1  0
  3  4  1  0
  4  6  1  0
  5  4  2  0
  6  7  1  0
  7  9  1  0
  8  7  2  0
 10  8  1  0
 11 16  2  0
 12 11  1  0
 12 13  2  0
 13 14  1  0
 14 15  2  0
 15  1  1  0
 16 15  1  0
  6 17  1  0
  9 18  1  0
  9 19  1  0
 11 20  1  0
 12 21  1  0
 13 22  1  0
M  ISO  3  20  14  21  14  22  14
M  END
>  <minimizedAffinity>  (1) 
-5.05624866

>  <minimizedRMSD>  (1) 
2.75154757

$$$$
