
     RDKit          3D

 22 24  0  0  0  0  0  0  0  0999 V2000
   44.0180   35.2680   41.5780 C   0  0  0  0  0  0  0  0  0  0  0  0
   44.4460   35.8470   42.7270 N   0  0  0  0  0  0  0  0  0  0  0  0
   45.6950   35.5430   42.9180 O   0  0  0  0  0  0  0  0  0  0  0  0
   46.1310   34.7810   41.9410 C   0  0  0  0  0  0  0  0  0  0  0  0
   45.0870   34.6040   41.0990 N   0  0  0  0  0  0  0  0  0  0  0  0
   47.4310   34.2270   41.7630 N   0  0  0  0  0  0  0  0  0  0  0  0
   47.9280   33.1220   41.2130 C   0  0  0  0  0  0  0  0  0  0  0  0
   49.3060   33.1630   41.3600 C   0  0  0  0  0  0  0  0  0  0  0  0
   49.6240   34.3100   42.0060 N   0  0  0  0  0  0  0  0  0  0  0  0
   48.4610   34.9560   42.2490 C   0  0  0  0  0  0  0  0  0  0  0  0
   41.5340   35.1080   38.9040 C   0  0  0  0  0  0  0  0  0  0  0  0
   40.3120   35.3030   39.5630 C   0  0  0  0  0  0  0  0  0  0  0  0
   40.3590   35.4900   40.9400 C   0  0  0  0  0  0  0  0  0  0  0  0
   41.5580   35.4780   41.5820 N   0  0  0  0  0  0  0  0  0  0  0  0
   42.7200   35.2850   40.9060 C   0  0  0  0  0  0  0  0  0  0  0  0
   42.7160   35.1000   39.5680 N   0  0  0  0  0  0  0  0  0  0  0  0
   47.3500   32.3208   40.7292 H   0  0  0  0  0  0  0  0  0  0  0  0
   50.0163   32.3982   41.0129 H   0  0  0  0  0  0  0  0  0  0  0  0
   48.3674   35.9243   42.7624 H   0  0  0  0  0  0  0  0  0  0  0  0
   41.5337   34.9568   37.8144 H   0  0  0  0  0  0  0  0  0  0  0  0
   39.3583   35.3078   39.0149 H   0  0  0  0  0  0  0  0  0  0  0  0
   39.4301   35.6470   41.5079 H   0  0  0  0  0  0  0  0  0  0  0  0
  1  2  2  0
  2  3  1  0
  4  3  1  0
  5  1  1  0
  5  4  2  0
  6  4  1  0
  6 10  1  0
  7  8  2  0
  7  6  1  0
  8  9  1  0
  9 10  2  0
 11 12  2  0
 11 16  1  0
 12 13  1  0
 13 14  2  0
 15  1  1  0
 15 14  1  0
 16 15  2  0
  7 17  1  0
  8 18  1  0
 10 19  1  0
 11 20  1  0
 12 21  1  0
 13 22  1  0
M  ISO  6  17  14  18  14  19  14  20  14  21  14  22  14
M  END
>  <minimizedAffinity>  (1) 
-4.80604696

>  <minimizedRMSD>  (1) 
7.79685736

$$$$
