
     RDKit          3D

 22 24  0  0  0  0  0  0  0  0999 V2000
   45.9310   33.4070   43.8600 C   0  0  0  0  0  0  0  0  0  0  0  0
   47.1880   32.9050   43.8260 N   0  0  0  0  0  0  0  0  0  0  0  0
   47.4920   32.4310   45.0060 O   0  0  0  0  0  0  0  0  0  0  0  0
   46.4910   32.5960   45.8270 C   0  0  0  0  0  0  0  0  0  0  0  0
   45.5010   33.2120   45.1140 N   0  0  0  0  0  0  0  0  0  0  0  0
   43.6560   35.7520   42.2170 C   0  0  0  0  0  0  0  0  0  0  0  0
   43.5920   35.2850   40.8940 C   0  0  0  0  0  0  0  0  0  0  0  0
   44.3420   34.1530   40.5800 C   0  0  0  0  0  0  0  0  0  0  0  0
   45.0860   33.5640   41.5440 N   0  0  0  0  0  0  0  0  0  0  0  0
   45.1230   34.0470   42.8120 C   0  0  0  0  0  0  0  0  0  0  0  0
   44.4120   35.1420   43.1610 N   0  0  0  0  0  0  0  0  0  0  0  0
   46.4040   32.2120   47.2440 C   0  0  0  0  0  0  0  0  0  0  0  0
   47.2090   31.3590   47.9680 C   0  0  0  0  0  0  0  0  0  0  0  0
   46.6960   31.3450   49.2600 C   0  0  0  0  0  0  0  0  0  0  0  0
   45.6140   32.1710   49.2960 N   0  0  0  0  0  0  0  0  0  0  0  0
   45.4680   32.6710   48.0800 N   0  0  0  0  0  0  0  0  0  0  0  0
   43.0731   36.6423   42.4957 H   0  0  0  0  0  0  0  0  0  0  0  0
   42.9755   35.7917   40.1369 H   0  0  0  0  0  0  0  0  0  0  0  0
   44.3291   33.7430   39.5593 H   0  0  0  0  0  0  0  0  0  0  0  0
   48.0820   30.8014   47.5979 H   0  0  0  0  0  0  0  0  0  0  0  0
   47.0950   30.7669   50.1065 H   0  0  0  0  0  0  0  0  0  0  0  0
   45.0215   32.3690   50.1149 H   0  0  0  0  0  0  0  0  0  0  0  0
  1  5  1  0
  2  1  2  0
  2  3  1  0
  3  4  1  0
  4 12  1  0
  5  4  2  0
  6 11  2  0
  7  6  1  0
  8  7  2  0
  8  9  1  0
  9 10  2  0
 10 11  1  0
 10  1  1  0
 12 13  1  0
 12 16  2  0
 13 14  2  0
 14 15  1  0
 16 15  1  0
  6 17  1  0
  7 18  1  0
  8 19  1  0
 13 20  1  0
 14 21  1  0
 15 22  1  0
M  ISO  6  17  14  18  14  19  14  20  14  21  14  22   9
M  END
>  <minimizedAffinity>  (1) 
-4.19023943

>  <minimizedRMSD>  (1) 
2.98555255

$$$$
