
     RDKit          3D

 29 32  0  0  0  0  0  0  0  0999 V2000
   47.4160   34.3620   42.4250 C   0  0  0  0  0  0  0  0  0  0  0  0
   48.4540   35.0410   41.8950 N   0  0  0  0  0  0  0  0  0  0  0  0
   49.0800   34.2640   41.0510 O   0  0  0  0  0  0  0  0  0  0  0  0
   48.5080   33.0940   40.9930 C   0  0  0  0  0  0  0  0  0  0  0  0
   47.4660   33.1570   41.8530 N   0  0  0  0  0  0  0  0  0  0  0  0
   48.8890   31.9780   40.1960 N   0  0  0  0  0  0  0  0  0  0  0  0
   49.9770   31.8450   39.4460 C   0  0  0  0  0  0  0  0  0  0  0  0
   49.9330   30.6150   38.8600 N   0  0  0  0  0  0  0  0  0  0  0  0
   48.8240   29.9920   39.2460 C   0  0  0  0  0  0  0  0  0  0  0  0
   48.1990   28.7610   39.0230 C   0  0  0  0  0  0  0  0  0  0  0  0
   48.7870   27.9540   38.2520 O   0  0  0  0  0  0  0  0  0  0  0  0
   47.0180   28.4330   39.6020 N   0  0  0  0  0  0  0  0  0  0  0  0
   46.4090   29.2990   40.4170 C   0  0  0  0  0  0  0  0  0  0  0  0
   45.1690   28.9890   41.0410 N   0  0  0  0  0  0  0  0  0  0  0  0
   47.0000   30.4880   40.6390 N   0  0  0  0  0  0  0  0  0  0  0  0
   48.1720   30.8450   40.0810 C   0  0  0  0  0  0  0  0  0  0  0  0
   45.3300   34.3060   45.4240 C   0  0  0  0  0  0  0  0  0  0  0  0
   44.5040   35.4300   45.2870 C   0  0  0  0  0  0  0  0  0  0  0  0
   44.6760   36.2070   44.1460 C   0  0  0  0  0  0  0  0  0  0  0  0
   45.6170   35.8450   43.2420 N   0  0  0  0  0  0  0  0  0  0  0  0
   46.4000   34.7490   43.4070 C   0  0  0  0  0  0  0  0  0  0  0  0
   46.2470   33.9960   44.4940 N   0  0  0  0  0  0  0  0  0  0  0  0
   50.7724   32.5943   39.3201 H   0  0  0  0  0  0  0  0  0  0  0  0
   46.5898   27.5154   39.4135 H   0  0  0  0  0  0  0  0  0  0  0  0
   44.7208   29.6750   41.6651 H   0  0  0  0  0  0  0  0  0  0  0  0
   44.7192   28.0785   40.8688 H   0  0  0  0  0  0  0  0  0  0  0  0
   45.2247   33.6649   46.3116 H   0  0  0  0  0  0  0  0  0  0  0  0
   43.7526   35.6865   46.0484 H   0  0  0  0  0  0  0  0  0  0  0  0
   44.0573   37.1014   43.9807 H   0  0  0  0  0  0  0  0  0  0  0  0
  1 21  1  0
  2  1  2  0
  3  2  1  0
  4  3  1  0
  4  5  2  0
  5  1  1  0
  6  4  1  0
  7  6  1  0
  8  9  1  0
  8  7  2  0
  9 16  2  0
 10  9  1  0
 10 12  1  0
 11 10  2  0
 12 13  1  0
 13 15  2  0
 13 14  1  0
 16  6  1  0
 16 15  1  0
 18 17  2  0
 19 18  1  0
 20 21  1  0
 20 19  2  0
 21 22  2  0
 22 17  1  0
  7 23  1  0
 12 24  1  0
 14 25  1  0
 14 26  1  0
 17 27  1  0
 18 28  1  0
 19 29  1  0
M  ISO  5  23  14  24   9  27  14  28  14  29  14
M  END
>  <minimizedAffinity>  (1) 
-4.00237703

>  <minimizedRMSD>  (1) 
9.48990536

$$$$
