
     RDKit          3D

 17 18  0  0  0  0  0  0  0  0999 V2000
   44.4770   35.9710   44.4810 C   0  0  0  0  0  0  0  0  0  0  0  0
   45.1100   36.0150   43.2120 C   0  0  0  0  0  0  0  0  0  0  0  0
   46.0970   35.0500   42.9450 C   0  0  0  0  0  0  0  0  0  0  0  0
   46.3940   34.1370   43.9030 N   0  0  0  0  0  0  0  0  0  0  0  0
   45.7660   34.1290   45.1010 C   0  0  0  0  0  0  0  0  0  0  0  0
   44.8130   35.0380   45.3920 N   0  0  0  0  0  0  0  0  0  0  0  0
   46.0830   33.1420   46.1390 C   0  0  0  0  0  0  0  0  0  0  0  0
   47.0810   32.2460   46.2420 N   0  0  0  0  0  0  0  0  0  0  0  0
   46.9480   31.5750   47.3600 O   0  0  0  0  0  0  0  0  0  0  0  0
   45.8930   31.9940   48.0090 C   0  0  0  0  0  0  0  0  0  0  0  0
   45.3420   32.9750   47.2570 N   0  0  0  0  0  0  0  0  0  0  0  0
   45.4140   31.4940   49.2940 C   0  0  0  0  0  0  0  0  0  0  0  0
   45.0040   30.3210   49.3770 O   0  0  0  0  0  0  0  0  0  0  0  0
   43.6998   36.7104   44.7244 H   0  0  0  0  0  0  0  0  0  0  0  0
   44.8387   36.7756   42.4651 H   0  0  0  0  0  0  0  0  0  0  0  0
   46.6188   35.0357   41.9768 H   0  0  0  0  0  0  0  0  0  0  0  0
   45.4152   32.1464   50.1797 H   0  0  0  0  0  0  0  0  0  0  0  0
  1  6  2  0
  2  1  1  0
  3  2  2  0
  3  4  1  0
  4  5  2  0
  5  6  1  0
  5  7  1  0
  7  8  2  0
  7 11  1  0
  8  9  1  0
  9 10  1  0
 10 12  1  0
 11 10  2  0
 12 13  2  0
  1 14  1  0
  2 15  1  0
  3 16  1  0
 12 17  1  0
M  ISO  4  14  14  15  14  16  14  17   6
M  END
>  <minimizedAffinity>  (1) 
-4.42368984

>  <minimizedRMSD>  (1) 
0.535103261

$$$$
