
     RDKit          3D

 24 26  0  0  0  0  0  0  0  0999 V2000
   46.6010   32.9670   45.3150 C   0  0  0  0  0  0  0  0  0  0  0  0
   47.1280   31.7930   44.9560 N   0  0  0  0  0  0  0  0  0  0  0  0
   47.4660   31.1220   46.0310 O   0  0  0  0  0  0  0  0  0  0  0  0
   47.1800   31.8130   47.0920 C   0  0  0  0  0  0  0  0  0  0  0  0
   46.6400   32.9660   46.6610 N   0  0  0  0  0  0  0  0  0  0  0  0
   44.5220   35.8200   44.3970 C   0  0  0  0  0  0  0  0  0  0  0  0
   45.0000   36.1670   43.1150 C   0  0  0  0  0  0  0  0  0  0  0  0
   46.0500   35.4080   42.5670 C   0  0  0  0  0  0  0  0  0  0  0  0
   46.5570   34.3840   43.2790 N   0  0  0  0  0  0  0  0  0  0  0  0
   46.0660   34.0820   44.5150 C   0  0  0  0  0  0  0  0  0  0  0  0
   45.0570   34.7930   45.0710 N   0  0  0  0  0  0  0  0  0  0  0  0
   47.4130   31.3900   48.4700 C   0  0  0  0  0  0  0  0  0  0  0  0
   48.5010   31.6790   49.0290 O   0  0  0  0  0  0  0  0  0  0  0  0
   46.3960   30.6210   49.2480 C   0  0  0  0  0  0  0  0  0  0  0  0
   45.1190   31.4200   49.5800 C   0  0  0  0  0  0  0  0  0  0  0  0
   45.1020   30.2570   48.6700 C   0  0  0  0  0  0  0  0  0  0  0  0
   43.7020   36.3986   44.8473 H   0  0  0  0  0  0  0  0  0  0  0  0
   44.5627   37.0092   42.5588 H   0  0  0  0  0  0  0  0  0  0  0  0
   46.4510   35.6477   41.5711 H   0  0  0  0  0  0  0  0  0  0  0  0
   47.1662   30.0354   49.7713 H   0  0  0  0  0  0  0  0  0  0  0  0
   44.6641   31.3505   50.5791 H   0  0  0  0  0  0  0  0  0  0  0  0
   44.8089   32.4737   49.5208 H   0  0  0  0  0  0  0  0  0  0  0  0
   44.9265   30.4138   47.5955 H   0  0  0  0  0  0  0  0  0  0  0  0
   44.5194   29.3243   48.6428 H   0  0  0  0  0  0  0  0  0  0  0  0
  1  5  1  0
  2  1  2  0
  2  3  1  0
  3  4  1  0
  4 12  1  0
  5  4  2  0
  6 11  2  0
  7  6  1  0
  8  7  2  0
  8  9  1  0
  9 10  2  0
 10 11  1  0
 10  1  1  0
 12 13  2  0
 12 14  1  0
 14 15  1  0
 16 14  1  0
 16 15  1  0
  6 17  1  0
  7 18  1  0
  8 19  1  0
 14 20  1  0
 15 21  1  0
 15 22  1  0
 16 23  1  0
 16 24  1  0
M  ISO  8  17  14  18  14  19  14  20  13  21  13  22  13  23  13  24  13
M  END
>  <minimizedAffinity>  (1) 
-4.90288734

>  <minimizedRMSD>  (1) 
1.86804557

$$$$
