
     RDKit          3D

 19 20  0  0  0  0  0  0  0  0999 V2000
   46.0510   33.0530   45.8690 C   0  0  0  0  0  0  0  0  0  0  0  0
   47.0370   32.1240   45.8530 N   0  0  0  0  0  0  0  0  0  0  0  0
   46.9250   31.3540   46.9010 O   0  0  0  0  0  0  0  0  0  0  0  0
   45.8980   31.7350   47.6180 C   0  0  0  0  0  0  0  0  0  0  0  0
   45.3420   32.7980   46.9820 N   0  0  0  0  0  0  0  0  0  0  0  0
   44.5140   36.0400   44.4860 C   0  0  0  0  0  0  0  0  0  0  0  0
   45.1340   36.1810   43.2090 C   0  0  0  0  0  0  0  0  0  0  0  0
   46.0850   35.2250   42.8480 C   0  0  0  0  0  0  0  0  0  0  0  0
   46.3620   34.2320   43.7160 N   0  0  0  0  0  0  0  0  0  0  0  0
   45.7510   34.1260   44.9290 C   0  0  0  0  0  0  0  0  0  0  0  0
   44.8220   35.0240   45.3310 N   0  0  0  0  0  0  0  0  0  0  0  0
   45.4390   31.1310   48.8630 C   0  0  0  0  0  0  0  0  0  0  0  0
   45.0540   29.9570   48.8650 O   0  0  0  0  0  0  0  0  0  0  0  0
   45.4680   31.9640   50.0290 N   0  0  0  0  0  0  0  0  0  0  0  0
   43.7611   36.7796   44.7960 H   0  0  0  0  0  0  0  0  0  0  0  0
   44.8730   37.0104   42.5353 H   0  0  0  0  0  0  0  0  0  0  0  0
   46.5972   35.2810   41.8761 H   0  0  0  0  0  0  0  0  0  0  0  0
   45.1553   31.5906   50.9366 H   0  0  0  0  0  0  0  0  0  0  0  0
   45.8015   32.9360   49.9593 H   0  0  0  0  0  0  0  0  0  0  0  0
  1  5  1  0
  2  1  2  0
  2  3  1  0
  3  4  1  0
  4 12  1  0
  5  4  2  0
  6 11  2  0
  7  6  1  0
  8  7  2  0
  8  9  1  0
  9 10  2  0
 10 11  1  0
 10  1  1  0
 12 13  2  0
 12 14  1  0
  6 15  1  0
  7 16  1  0
  8 17  1  0
 14 18  1  0
 14 19  1  0
M  ISO  3  15  14  16  14  17  14
M  END
>  <minimizedAffinity>  (1) 
-4.89132929

>  <minimizedRMSD>  (1) 
0.380360901

$$$$
