
     RDKit          3D

 22 24  0  0  0  0  0  0  0  0999 V2000
   43.6060   34.2160   40.1630 C   0  0  0  0  0  0  0  0  0  0  0  0
   44.6220   33.5290   39.5900 N   0  0  0  0  0  0  0  0  0  0  0  0
   45.6910   33.6450   40.3450 O   0  0  0  0  0  0  0  0  0  0  0  0
   45.4190   34.3870   41.3990 C   0  0  0  0  0  0  0  0  0  0  0  0
   44.1150   34.7550   41.3040 N   0  0  0  0  0  0  0  0  0  0  0  0
   40.0680   35.0870   40.3290 C   0  0  0  0  0  0  0  0  0  0  0  0
   39.5940   34.8090   39.0230 C   0  0  0  0  0  0  0  0  0  0  0  0
   40.5220   34.3190   38.0960 C   0  0  0  0  0  0  0  0  0  0  0  0
   41.7990   34.1430   38.5020 N   0  0  0  0  0  0  0  0  0  0  0  0
   42.2200   34.4160   39.7490 C   0  0  0  0  0  0  0  0  0  0  0  0
   41.3570   34.8860   40.6610 N   0  0  0  0  0  0  0  0  0  0  0  0
   46.3720   34.7160   42.4400 C   0  0  0  0  0  0  0  0  0  0  0  0
   47.3730   35.4230   42.1660 O   0  0  0  0  0  0  0  0  0  0  0  0
   46.2140   34.2560   43.8030 C   0  0  0  0  0  0  0  0  0  0  0  0
   47.0220   33.4140   44.4580 N   0  0  0  0  0  0  0  0  0  0  0  0
   46.5900   33.2110   45.6660 O   0  0  0  0  0  0  0  0  0  0  0  0
   45.4780   33.9270   45.8160 C   0  0  0  0  0  0  0  0  0  0  0  0
   45.2290   34.5860   44.6620 N   0  0  0  0  0  0  0  0  0  0  0  0
   39.3698   35.4742   41.0856 H   0  0  0  0  0  0  0  0  0  0  0  0
   38.5412   34.9713   38.7488 H   0  0  0  0  0  0  0  0  0  0  0  0
   40.2197   34.0836   37.0649 H   0  0  0  0  0  0  0  0  0  0  0  0
   44.8638   33.9746   46.7273 H   0  0  0  0  0  0  0  0  0  0  0  0
  1  5  1  0
  2  1  2  0
  2  3  1  0
  3  4  1  0
  4 12  1  0
  5  4  2  0
  6 11  2  0
  7  6  1  0
  8  9  1  0
  8  7  2  0
  9 10  2  0
 10  1  1  0
 10 11  1  0
 12 14  1  0
 13 12  2  0
 14 15  2  0
 14 18  1  0
 15 16  1  0
 16 17  1  0
 18 17  2  0
  6 19  1  0
  7 20  1  0
  8 21  1  0
 17 22  1  0
M  ISO  4  19  14  20  14  21  14  22  14
M  END
>  <minimizedAffinity>  (1) 
-4.72291327

>  <minimizedRMSD>  (1) 
7.00878716

$$$$
