
     RDKit          3D

 39 41  0  0  0  0  0  0  0  0999 V2000
   43.5310   33.8300   41.7860 C   0  0  0  0  0  0  0  0  0  0  0  0
   43.7860   32.6180   42.2950 N   0  0  0  0  0  0  0  0  0  0  0  0
   45.0090   32.5860   42.7600 O   0  0  0  0  0  0  0  0  0  0  0  0
   45.5770   33.7490   42.5740 C   0  0  0  0  0  0  0  0  0  0  0  0
   44.6620   34.5380   41.9640 N   0  0  0  0  0  0  0  0  0  0  0  0
   46.9320   34.0750   42.9660 C   0  0  0  0  0  0  0  0  0  0  0  0
   47.4960   33.5510   43.9120 O   0  0  0  0  0  0  0  0  0  0  0  0
   47.5050   35.0530   42.1350 N   0  0  0  0  0  0  0  0  0  0  0  0
   48.8970   35.1970   42.3730 C   0  0  0  0  0  0  0  0  0  0  0  0
   49.7950   34.6790   43.0870 N   0  0  0  0  0  0  0  0  0  0  0  0
   49.7170   36.1660   41.6990 N   0  0  0  0  0  0  0  0  0  0  0  0
   49.6980   33.7740   43.5540 H   0  0  0  0  0  0  0  0  0  0  0  0
   40.7360   36.1020   41.1810 C   0  0  0  0  0  0  0  0  0  0  0  0
   40.0910   35.5330   40.0780 C   0  0  0  0  0  0  0  0  0  0  0  0
   40.6250   34.3500   39.5330 C   0  0  0  0  0  0  0  0  0  0  0  0
   41.7240   33.8270   40.0980 N   0  0  0  0  0  0  0  0  0  0  0  0
   42.3270   34.3830   41.1500 C   0  0  0  0  0  0  0  0  0  0  0  0
   41.8290   35.5150   41.6820 N   0  0  0  0  0  0  0  0  0  0  0  0
   40.1090   33.6320   38.4200 N   0  0  0  0  0  0  0  0  0  0  0  0
   39.1410   34.1770   37.4670 C   0  0  0  0  0  0  0  0  0  0  0  0
   37.8750   33.3570   37.5130 C   0  0  0  0  0  0  0  0  0  0  0  0
   38.2450   31.9930   36.9430 C   0  0  0  0  0  0  0  0  0  0  0  0
   39.2280   31.3810   37.9310 C   0  0  0  0  0  0  0  0  0  0  0  0
   40.4560   32.2710   38.0590 C   0  0  0  0  0  0  0  0  0  0  0  0
   46.9788   35.5990   41.4379 H   0  0  0  0  0  0  0  0  0  0  0  0
   50.7231   36.2262   41.9114 H   0  0  0  0  0  0  0  0  0  0  0  0
   49.2986   36.8002   41.0036 H   0  0  0  0  0  0  0  0  0  0  0  0
   40.3472   37.0261   41.6336 H   0  0  0  0  0  0  0  0  0  0  0  0
   39.1911   35.9972   39.6482 H   0  0  0  0  0  0  0  0  0  0  0  0
   39.5648   34.1410   36.4525 H   0  0  0  0  0  0  0  0  0  0  0  0
   38.9126   35.2200   37.7316 H   0  0  0  0  0  0  0  0  0  0  0  0
   37.5211   33.2561   38.5496 H   0  0  0  0  0  0  0  0  0  0  0  0
   37.0644   33.8300   36.9393 H   0  0  0  0  0  0  0  0  0  0  0  0
   37.3496   31.3604   36.8524 H   0  0  0  0  0  0  0  0  0  0  0  0
   38.6839   32.0806   35.9382 H   0  0  0  0  0  0  0  0  0  0  0  0
   38.7441   31.2837   38.9140 H   0  0  0  0  0  0  0  0  0  0  0  0
   39.5359   30.3893   37.5681 H   0  0  0  0  0  0  0  0  0  0  0  0
   41.1156   31.8555   38.8351 H   0  0  0  0  0  0  0  0  0  0  0  0
   40.9579   32.2979   37.0805 H   0  0  0  0  0  0  0  0  0  0  0  0
  1  5  1  0
  1  2  2  0
  2  3  1  0
  4  3  1  0
  4  6  1  0
  5  4  2  0
  6  7  2  0
  8  9  1  0
  8  6  1  0
  9 10  2  0
 10 12  1  0
 11  9  1  0
 13 18  2  0
 14 13  1  0
 15 14  2  0
 15 16  1  0
 16 17  2  0
 17 18  1  0
 17  1  1  0
 19 15  1  0
 20 21  1  0
 20 19  1  0
 22 21  1  0
 22 23  1  0
 23 24  1  0
 24 19  1  0
  8 25  1  0
 11 26  1  0
 11 27  1  0
 13 28  1  0
 14 29  1  0
 20 30  1  0
 20 31  1  0
 21 32  1  0
 21 33  1  0
 22 34  1  0
 22 35  1  0
 23 36  1  0
 23 37  1  0
 24 38  1  0
 24 39  1  0
M  ISO  8  28  14  29  14  30  13  31  13  32  13  33  13  34  13  35  13
M  ISO  4  36  13  37  13  38  13  39  13
M  END
>  <minimizedAffinity>  (1) 
-6.33382845

>  <minimizedRMSD>  (1) 
0.826408625

$$$$
