
     RDKit          3D

 36 37  0  0  0  0  0  0  0  0999 V2000
   43.3200   33.7990   41.7510 C   0  0  0  0  0  0  0  0  0  0  0  0
   43.6340   32.5890   42.2170 N   0  0  0  0  0  0  0  0  0  0  0  0
   44.8610   32.5920   42.6710 O   0  0  0  0  0  0  0  0  0  0  0  0
   45.3760   33.7850   42.5170 C   0  0  0  0  0  0  0  0  0  0  0  0
   44.4180   34.5430   41.9440 N   0  0  0  0  0  0  0  0  0  0  0  0
   46.7180   34.1650   42.9060 C   0  0  0  0  0  0  0  0  0  0  0  0
   47.2560   33.7480   43.9160 O   0  0  0  0  0  0  0  0  0  0  0  0
   47.3060   35.0530   41.9900 N   0  0  0  0  0  0  0  0  0  0  0  0
   48.6970   35.2250   42.2370 C   0  0  0  0  0  0  0  0  0  0  0  0
   49.5750   34.7990   43.0360 N   0  0  0  0  0  0  0  0  0  0  0  0
   49.5340   36.0920   41.4570 N   0  0  0  0  0  0  0  0  0  0  0  0
   49.4640   33.9890   43.6280 H   0  0  0  0  0  0  0  0  0  0  0  0
   40.6170   36.1390   40.9750 C   0  0  0  0  0  0  0  0  0  0  0  0
   39.8350   35.4260   40.0590 C   0  0  0  0  0  0  0  0  0  0  0  0
   40.2410   34.1250   39.7080 C   0  0  0  0  0  0  0  0  0  0  0  0
   41.3520   33.6070   40.2530 N   0  0  0  0  0  0  0  0  0  0  0  0
   42.0850   34.3300   41.1380 C   0  0  0  0  0  0  0  0  0  0  0  0
   41.7270   35.5800   41.4970 N   0  0  0  0  0  0  0  0  0  0  0  0
   39.4800   33.2960   38.7510 C   0  0  0  0  0  0  0  0  0  0  0  0
   38.4210   32.4820   39.4670 C   0  0  0  0  0  0  0  0  0  0  0  0
   40.4270   32.3230   38.0350 C   0  0  0  0  0  0  0  0  0  0  0  0
   38.8150   34.1050   37.6590 C   0  0  0  0  0  0  0  0  0  0  0  0
   46.7923   35.5230   41.2310 H   0  0  0  0  0  0  0  0  0  0  0  0
   50.5358   36.1785   41.6803 H   0  0  0  0  0  0  0  0  0  0  0  0
   49.1328   36.6276   40.6740 H   0  0  0  0  0  0  0  0  0  0  0  0
   40.3251   37.1578   41.2696 H   0  0  0  0  0  0  0  0  0  0  0  0
   38.9273   35.8706   39.6250 H   0  0  0  0  0  0  0  0  0  0  0  0
   38.5533   32.5837   40.5543 H   0  0  0  0  0  0  0  0  0  0  0  0
   37.4232   32.8478   39.1832 H   0  0  0  0  0  0  0  0  0  0  0  0
   38.5179   31.4237   39.1832 H   0  0  0  0  0  0  0  0  0  0  0  0
   40.9906   31.7439   38.7813 H   0  0  0  0  0  0  0  0  0  0  0  0
   39.8409   31.6375   37.4053 H   0  0  0  0  0  0  0  0  0  0  0  0
   41.1281   32.8903   37.4053 H   0  0  0  0  0  0  0  0  0  0  0  0
   38.1785   34.8793   38.1122 H   0  0  0  0  0  0  0  0  0  0  0  0
   39.5853   34.5823   37.0354 H   0  0  0  0  0  0  0  0  0  0  0  0
   38.1977   33.4416   37.0354 H   0  0  0  0  0  0  0  0  0  0  0  0
  1  5  1  0
  1  2  2  0
  2  3  1  0
  4  3  1  0
  4  6  1  0
  5  4  2  0
  6  7  2  0
  8  9  1  0
  8  6  1  0
  9 10  2  0
 10 12  1  0
 11  9  1  0
 13 18  2  0
 14 13  1  0
 15 14  2  0
 15 16  1  0
 16 17  2  0
 17 18  1  0
 17  1  1  0
 19 20  1  0
 19 15  1  0
 21 19  1  0
 22 19  1  0
  8 23  1  0
 11 24  1  0
 11 25  1  0
 13 26  1  0
 14 27  1  0
 20 28  1  0
 20 29  1  0
 20 30  1  0
 21 31  1  0
 21 32  1  0
 21 33  1  0
 22 34  1  0
 22 35  1  0
 22 36  1  0
M  ISO  8  26  14  27  14  28   8  29   8  30   8  31   8  32   8  33   8
M  ISO  3  34   8  35   8  36   8
M  END
>  <minimizedAffinity>  (1) 
-6.08446693

>  <minimizedRMSD>  (1) 
0.172149405

$$$$
