
     RDKit          3D

 37 39  0  0  0  0  0  0  0  0999 V2000
   43.2710   33.8460   41.7080 C   0  0  0  0  0  0  0  0  0  0  0  0
   43.6130   32.5980   42.0440 N   0  0  0  0  0  0  0  0  0  0  0  0
   44.8410   32.5920   42.4900 O   0  0  0  0  0  0  0  0  0  0  0  0
   45.3310   33.8050   42.4630 C   0  0  0  0  0  0  0  0  0  0  0  0
   44.3540   34.6070   41.9730 N   0  0  0  0  0  0  0  0  0  0  0  0
   46.6670   34.1660   42.8870 C   0  0  0  0  0  0  0  0  0  0  0  0
   47.1670   33.7500   43.9170 O   0  0  0  0  0  0  0  0  0  0  0  0
   47.2980   35.0370   41.9850 N   0  0  0  0  0  0  0  0  0  0  0  0
   48.6860   35.1700   42.2600 C   0  0  0  0  0  0  0  0  0  0  0  0
   49.5430   34.7030   43.0520 N   0  0  0  0  0  0  0  0  0  0  0  0
   49.5510   36.0530   41.5240 N   0  0  0  0  0  0  0  0  0  0  0  0
   49.3870   33.9280   43.6750 H   0  0  0  0  0  0  0  0  0  0  0  0
   40.6550   36.2980   40.9720 C   0  0  0  0  0  0  0  0  0  0  0  0
   39.7470   35.5680   40.1970 C   0  0  0  0  0  0  0  0  0  0  0  0
   40.0350   34.2180   39.9240 C   0  0  0  0  0  0  0  0  0  0  0  0
   41.1620   33.6800   40.4130 N   0  0  0  0  0  0  0  0  0  0  0  0
   42.0230   34.4120   41.1590 C   0  0  0  0  0  0  0  0  0  0  0  0
   41.7710   35.7050   41.4350 N   0  0  0  0  0  0  0  0  0  0  0  0
   39.1170   33.4690   39.1380 N   0  0  0  0  0  0  0  0  0  0  0  0
   38.7850   33.9040   37.7980 C   0  0  0  0  0  0  0  0  0  0  0  0
   38.1140   32.6930   37.1350 C   0  0  0  0  0  0  0  0  0  0  0  0
   38.9460   31.6120   37.4220 O   0  0  0  0  0  0  0  0  0  0  0  0
   38.7560   31.1470   38.7130 C   0  0  0  0  0  0  0  0  0  0  0  0
   38.5140   32.2680   39.6830 C   0  0  0  0  0  0  0  0  0  0  0  0
   46.8133   35.5216   41.2161 H   0  0  0  0  0  0  0  0  0  0  0  0
   50.5510   36.1122   41.7636 H   0  0  0  0  0  0  0  0  0  0  0  0
   49.1703   36.6260   40.7574 H   0  0  0  0  0  0  0  0  0  0  0  0
   40.4569   37.3552   41.2025 H   0  0  0  0  0  0  0  0  0  0  0  0
   38.8306   36.0380   39.8107 H   0  0  0  0  0  0  0  0  0  0  0  0
   38.0929   34.7584   37.8304 H   0  0  0  0  0  0  0  0  0  0  0  0
   39.6741   34.2362   37.2420 H   0  0  0  0  0  0  0  0  0  0  0  0
   38.0364   32.8421   36.0479 H   0  0  0  0  0  0  0  0  0  0  0  0
   37.0910   32.5348   37.5071 H   0  0  0  0  0  0  0  0  0  0  0  0
   37.8863   30.4735   38.7239 H   0  0  0  0  0  0  0  0  0  0  0  0
   39.6703   30.6198   39.0231 H   0  0  0  0  0  0  0  0  0  0  0  0
   38.9722   32.0274   40.6536 H   0  0  0  0  0  0  0  0  0  0  0  0
   37.4346   32.4167   39.8342 H   0  0  0  0  0  0  0  0  0  0  0  0
  1  5  1  0
  1  2  2  0
  2  3  1  0
  4  3  1  0
  4  6  1  0
  5  4  2  0
  6  7  2  0
  8  9  1  0
  8  6  1  0
  9 10  2  0
 10 12  1  0
 11  9  1  0
 13 18  2  0
 14 13  1  0
 15 14  2  0
 15 16  1  0
 16 17  2  0
 17 18  1  0
 17  1  1  0
 19 24  1  0
 19 15  1  0
 20 19  1  0
 21 22  1  0
 21 20  1  0
 22 23  1  0
 23 24  1  0
  8 25  1  0
 11 26  1  0
 11 27  1  0
 13 28  1  0
 14 29  1  0
 20 30  1  0
 20 31  1  0
 21 32  1  0
 21 33  1  0
 23 34  1  0
 23 35  1  0
 24 36  1  0
 24 37  1  0
M  ISO  8  28  14  29  14  30  13  31  13  32  13  33  13  34  13  35  13
M  ISO  2  36  13  37  13
M  END
>  <minimizedAffinity>  (1) 
-5.94361973

>  <minimizedRMSD>  (1) 
0.665116727

$$$$
