
     RDKit          3D

 30 32  0  0  0  0  0  0  0  0999 V2000
   43.3220   33.8070   41.7120 C   0  0  0  0  0  0  0  0  0  0  0  0
   43.6220   32.5840   42.1940 N   0  0  0  0  0  0  0  0  0  0  0  0
   44.8450   32.5840   42.6530 O   0  0  0  0  0  0  0  0  0  0  0  0
   45.3680   33.7730   42.4890 C   0  0  0  0  0  0  0  0  0  0  0  0
   44.4240   34.5400   41.9030 N   0  0  0  0  0  0  0  0  0  0  0  0
   46.7160   34.1390   42.8850 C   0  0  0  0  0  0  0  0  0  0  0  0
   47.2610   33.7020   43.8850 O   0  0  0  0  0  0  0  0  0  0  0  0
   47.3020   35.0450   41.9860 N   0  0  0  0  0  0  0  0  0  0  0  0
   48.6910   35.2140   42.2360 C   0  0  0  0  0  0  0  0  0  0  0  0
   49.5660   34.7830   43.0360 N   0  0  0  0  0  0  0  0  0  0  0  0
   49.5340   36.0860   41.4670 N   0  0  0  0  0  0  0  0  0  0  0  0
   49.4690   33.9040   43.5520 H   0  0  0  0  0  0  0  0  0  0  0  0
   40.6140   36.1440   40.9820 C   0  0  0  0  0  0  0  0  0  0  0  0
   39.8290   35.4400   40.0610 C   0  0  0  0  0  0  0  0  0  0  0  0
   40.2250   34.1460   39.6770 C   0  0  0  0  0  0  0  0  0  0  0  0
   41.3590   33.6270   40.2190 N   0  0  0  0  0  0  0  0  0  0  0  0
   42.0890   34.3190   41.0950 C   0  0  0  0  0  0  0  0  0  0  0  0
   41.7150   35.5570   41.4650 N   0  0  0  0  0  0  0  0  0  0  0  0
   39.5520   33.3100   38.7680 N   0  0  0  0  0  0  0  0  0  0  0  0
   38.6860   33.9350   37.9250 C   0  0  0  0  0  0  0  0  0  0  0  0
   38.1310   32.9790   37.1240 N   0  0  0  0  0  0  0  0  0  0  0  0
   38.6650   31.7820   37.4880 C   0  0  0  0  0  0  0  0  0  0  0  0
   39.5270   32.0060   38.4890 N   0  0  0  0  0  0  0  0  0  0  0  0
   46.7874   35.5286   41.2361 H   0  0  0  0  0  0  0  0  0  0  0  0
   50.5351   36.1676   41.6952 H   0  0  0  0  0  0  0  0  0  0  0  0
   49.1375   36.6298   40.6872 H   0  0  0  0  0  0  0  0  0  0  0  0
   40.3316   37.1579   41.3017 H   0  0  0  0  0  0  0  0  0  0  0  0
   38.9168   35.8917   39.6441 H   0  0  0  0  0  0  0  0  0  0  0  0
   38.4721   35.0136   37.8945 H   0  0  0  0  0  0  0  0  0  0  0  0
   38.4309   30.8048   37.0405 H   0  0  0  0  0  0  0  0  0  0  0  0
  1  5  1  0
  1  2  2  0
  2  3  1  0
  4  3  1  0
  4  6  1  0
  5  4  2  0
  6  7  2  0
  8  9  1  0
  8  6  1  0
  9 10  2  0
 10 12  1  0
 11  9  1  0
 13 18  2  0
 14 13  1  0
 15 14  2  0
 15 16  1  0
 16 17  2  0
 17 18  1  0
 17  1  1  0
 19 15  1  0
 20 19  1  0
 21 22  1  0
 21 20  2  0
 22 23  2  0
 23 19  1  0
  8 24  1  0
 11 25  1  0
 11 26  1  0
 13 27  1  0
 14 28  1  0
 20 29  1  0
 22 30  1  0
M  ISO  4  27  14  28  14  29  14  30  14
M  END
>  <minimizedAffinity>  (1) 
-5.89609289

>  <minimizedRMSD>  (1) 
0.410063565

$$$$
