
     RDKit          3D

 31 33  0  0  0  0  0  0  0  0999 V2000
   43.3070   33.8110   41.7170 C   0  0  0  0  0  0  0  0  0  0  0  0
   43.6230   32.5900   42.1590 N   0  0  0  0  0  0  0  0  0  0  0  0
   44.8460   32.5980   42.6220 O   0  0  0  0  0  0  0  0  0  0  0  0
   45.3570   33.7970   42.5000 C   0  0  0  0  0  0  0  0  0  0  0  0
   44.4040   34.5670   41.9340 N   0  0  0  0  0  0  0  0  0  0  0  0
   46.6950   34.1720   42.9090 C   0  0  0  0  0  0  0  0  0  0  0  0
   47.2140   33.7560   43.9290 O   0  0  0  0  0  0  0  0  0  0  0  0
   47.3060   35.0550   42.0040 N   0  0  0  0  0  0  0  0  0  0  0  0
   48.6990   35.1970   42.2600 C   0  0  0  0  0  0  0  0  0  0  0  0
   49.5660   34.7370   43.0430 N   0  0  0  0  0  0  0  0  0  0  0  0
   49.5480   36.0760   41.5050 N   0  0  0  0  0  0  0  0  0  0  0  0
   49.4320   33.9230   43.6310 H   0  0  0  0  0  0  0  0  0  0  0  0
   40.5910   36.1620   40.9930 C   0  0  0  0  0  0  0  0  0  0  0  0
   39.8250   35.4550   40.0600 C   0  0  0  0  0  0  0  0  0  0  0  0
   40.2310   34.1650   39.6700 C   0  0  0  0  0  0  0  0  0  0  0  0
   41.3470   33.6440   40.2060 N   0  0  0  0  0  0  0  0  0  0  0  0
   42.0750   34.3440   41.1070 C   0  0  0  0  0  0  0  0  0  0  0  0
   41.6950   35.5750   41.4850 N   0  0  0  0  0  0  0  0  0  0  0  0
   39.5140   33.3730   38.7290 N   0  0  0  0  0  0  0  0  0  0  0  0
   38.6600   33.9930   37.8770 C   0  0  0  0  0  0  0  0  0  0  0  0
   38.1230   32.9660   37.0970 C   0  0  0  0  0  0  0  0  0  0  0  0
   38.6490   31.7870   37.4840 N   0  0  0  0  0  0  0  0  0  0  0  0
   39.5080   32.0430   38.4930 C   0  0  0  0  0  0  0  0  0  0  0  0
   46.8062   35.5414   41.2460 H   0  0  0  0  0  0  0  0  0  0  0  0
   50.5508   36.1425   41.7303 H   0  0  0  0  0  0  0  0  0  0  0  0
   49.1539   36.6397   40.7383 H   0  0  0  0  0  0  0  0  0  0  0  0
   40.2973   37.1719   41.3153 H   0  0  0  0  0  0  0  0  0  0  0  0
   38.9144   35.9028   39.6354 H   0  0  0  0  0  0  0  0  0  0  0  0
   38.4387   35.0687   37.8140 H   0  0  0  0  0  0  0  0  0  0  0  0
   37.3853   33.0989   36.2919 H   0  0  0  0  0  0  0  0  0  0  0  0
   40.1042   31.2931   39.0335 H   0  0  0  0  0  0  0  0  0  0  0  0
  1  5  1  0
  1  2  2  0
  2  3  1  0
  4  3  1  0
  4  6  1  0
  5  4  2  0
  6  7  2  0
  8  9  1  0
  8  6  1  0
  9 10  2  0
 10 12  1  0
 11  9  1  0
 13 18  2  0
 14 13  1  0
 15 14  2  0
 15 16  1  0
 16 17  2  0
 17 18  1  0
 17  1  1  0
 19 15  1  0
 20 19  1  0
 21 22  1  0
 21 20  2  0
 22 23  2  0
 23 19  1  0
  8 24  1  0
 11 25  1  0
 11 26  1  0
 13 27  1  0
 14 28  1  0
 20 29  1  0
 21 30  1  0
 23 31  1  0
M  ISO  5  27  14  28  14  29  14  30  14  31  14
M  END
>  <minimizedAffinity>  (1) 
-5.88233566

>  <minimizedRMSD>  (1) 
0.44992137

$$$$
