
     RDKit          3D

 27 28  0  0  0  0  0  0  0  0999 V2000
   43.3740   33.8460   41.6880 C   0  0  0  0  0  0  0  0  0  0  0  0
   43.6200   32.6460   42.2650 N   0  0  0  0  0  0  0  0  0  0  0  0
   44.8340   32.6380   42.7480 O   0  0  0  0  0  0  0  0  0  0  0  0
   45.4050   33.7890   42.5110 C   0  0  0  0  0  0  0  0  0  0  0  0
   44.5000   34.5450   41.8510 N   0  0  0  0  0  0  0  0  0  0  0  0
   46.7550   34.1440   42.9000 C   0  0  0  0  0  0  0  0  0  0  0  0
   47.3040   33.6730   43.8810 O   0  0  0  0  0  0  0  0  0  0  0  0
   47.3360   35.0780   42.0270 N   0  0  0  0  0  0  0  0  0  0  0  0
   48.7230   35.2320   42.2560 C   0  0  0  0  0  0  0  0  0  0  0  0
   49.6080   34.7750   43.0410 N   0  0  0  0  0  0  0  0  0  0  0  0
   49.5710   36.1070   41.4980 N   0  0  0  0  0  0  0  0  0  0  0  0
   49.5100   33.8940   43.5520 H   0  0  0  0  0  0  0  0  0  0  0  0
   40.5640   36.0580   40.9940 C   0  0  0  0  0  0  0  0  0  0  0  0
   39.9400   35.4380   39.8810 C   0  0  0  0  0  0  0  0  0  0  0  0
   40.5000   34.2510   39.3730 C   0  0  0  0  0  0  0  0  0  0  0  0
   41.5990   33.7570   39.9630 N   0  0  0  0  0  0  0  0  0  0  0  0
   42.1750   34.3540   41.0130 C   0  0  0  0  0  0  0  0  0  0  0  0
   41.6540   35.4920   41.5140 N   0  0  0  0  0  0  0  0  0  0  0  0
   39.9140   33.5580   38.2310 C   0  0  0  0  0  0  0  0  0  0  0  0
   40.2920   32.4060   37.8970 O   0  0  0  0  0  0  0  0  0  0  0  0
   38.9120   34.1850   37.4880 O   0  0  0  0  0  0  0  0  0  0  0  0
   46.8125   35.5915   41.3036 H   0  0  0  0  0  0  0  0  0  0  0  0
   50.5750   36.1703   41.7192 H   0  0  0  0  0  0  0  0  0  0  0  0
   49.1757   36.6718   40.7327 H   0  0  0  0  0  0  0  0  0  0  0  0
   40.1570   36.9871   41.4197 H   0  0  0  0  0  0  0  0  0  0  0  0
   39.0391   35.8750   39.4255 H   0  0  0  0  0  0  0  0  0  0  0  0
   38.5086   33.7222   36.7114 H   0  0  0  0  0  0  0  0  0  0  0  0
  1  5  1  0
  1  2  2  0
  2  3  1  0
  4  3  1  0
  4  6  1  0
  5  4  2  0
  6  7  2  0
  8  9  1  0
  8  6  1  0
  9 10  2  0
 10 12  1  0
 11  9  1  0
 13 18  2  0
 14 13  1  0
 15 14  2  0
 15 16  1  0
 16 17  2  0
 17 18  1  0
 17  1  1  0
 19 15  1  0
 20 19  2  0
 21 19  1  0
  8 22  1  0
 11 23  1  0
 11 24  1  0
 13 25  1  0
 14 26  1  0
 21 27  1  0
M  ISO  3  25  14  26  14  27   3
M  END
>  <minimizedAffinity>  (1) 
-5.50434351

>  <minimizedRMSD>  (1) 
0.423123419

$$$$
