
     RDKit          3D

 26 27  0  0  0  0  0  0  0  0999 V2000
   43.3020   33.7840   41.7270 C   0  0  0  0  0  0  0  0  0  0  0  0
   43.6160   32.5820   42.2190 N   0  0  0  0  0  0  0  0  0  0  0  0
   44.8410   32.6000   42.6770 O   0  0  0  0  0  0  0  0  0  0  0  0
   45.3580   33.7890   42.5040 C   0  0  0  0  0  0  0  0  0  0  0  0
   44.4030   34.5390   41.9090 N   0  0  0  0  0  0  0  0  0  0  0  0
   46.6980   34.1700   42.8930 C   0  0  0  0  0  0  0  0  0  0  0  0
   47.2370   33.7600   43.9060 O   0  0  0  0  0  0  0  0  0  0  0  0
   47.2870   35.0540   41.9760 N   0  0  0  0  0  0  0  0  0  0  0  0
   48.6770   35.2300   42.2220 C   0  0  0  0  0  0  0  0  0  0  0  0
   49.5510   34.8140   43.0380 N   0  0  0  0  0  0  0  0  0  0  0  0
   49.5190   36.0810   41.4310 N   0  0  0  0  0  0  0  0  0  0  0  0
   49.4470   33.9660   43.5840 H   0  0  0  0  0  0  0  0  0  0  0  0
   40.5690   36.0980   40.9640 C   0  0  0  0  0  0  0  0  0  0  0  0
   39.8310   35.3840   40.0140 C   0  0  0  0  0  0  0  0  0  0  0  0
   40.2620   34.1010   39.6260 C   0  0  0  0  0  0  0  0  0  0  0  0
   41.3770   33.5930   40.1810 N   0  0  0  0  0  0  0  0  0  0  0  0
   42.0760   34.3030   41.0990 C   0  0  0  0  0  0  0  0  0  0  0  0
   41.6760   35.5300   41.4800 N   0  0  0  0  0  0  0  0  0  0  0  0
   39.5700   33.3110   38.6670 N   0  0  0  0  0  0  0  0  0  0  0  0
   46.7735   35.5204   41.2146 H   0  0  0  0  0  0  0  0  0  0  0  0
   50.5200   36.1690   41.6571 H   0  0  0  0  0  0  0  0  0  0  0  0
   49.1224   36.6039   40.6371 H   0  0  0  0  0  0  0  0  0  0  0  0
   40.2520   37.1019   41.2828 H   0  0  0  0  0  0  0  0  0  0  0  0
   38.9223   35.8209   39.5742 H   0  0  0  0  0  0  0  0  0  0  0  0
   39.9253   32.3774   38.4160 H   0  0  0  0  0  0  0  0  0  0  0  0
   38.7135   33.6725   38.2235 H   0  0  0  0  0  0  0  0  0  0  0  0
  1  5  1  0
  1  2  2  0
  2  3  1  0
  4  3  1  0
  4  6  1  0
  5  4  2  0
  6  7  2  0
  8  9  1  0
  8  6  1  0
  9 10  2  0
 10 12  1  0
 11  9  1  0
 13 18  2  0
 14 13  1  0
 15 14  2  0
 15 16  1  0
 16 17  2  0
 17 18  1  0
 17  1  1  0
 19 15  1  0
  8 20  1  0
 11 21  1  0
 11 22  1  0
 13 23  1  0
 14 24  1  0
 19 25  1  0
 19 26  1  0
M  ISO  2  23  14  24  14
M  END
>  <minimizedAffinity>  (1) 
-5.22416258

>  <minimizedRMSD>  (1) 
0.0560386367

$$$$
