
     RDKit          3D

 25 26  0  0  0  0  0  0  0  0999 V2000
   43.3150   33.8000   41.7270 C   0  0  0  0  0  0  0  0  0  0  0  0
   43.6160   32.5850   42.2380 N   0  0  0  0  0  0  0  0  0  0  0  0
   44.8330   32.6000   42.6990 O   0  0  0  0  0  0  0  0  0  0  0  0
   45.3580   33.7840   42.5160 C   0  0  0  0  0  0  0  0  0  0  0  0
   44.4190   34.5420   41.9090 N   0  0  0  0  0  0  0  0  0  0  0  0
   46.7060   34.1650   42.9090 C   0  0  0  0  0  0  0  0  0  0  0  0
   47.2490   33.7260   43.9070 O   0  0  0  0  0  0  0  0  0  0  0  0
   47.2790   35.0790   42.0110 N   0  0  0  0  0  0  0  0  0  0  0  0
   48.6740   35.2360   42.2370 C   0  0  0  0  0  0  0  0  0  0  0  0
   49.5510   34.8170   43.0420 N   0  0  0  0  0  0  0  0  0  0  0  0
   49.5160   36.0700   41.4250 N   0  0  0  0  0  0  0  0  0  0  0  0
   49.4560   33.9670   43.5900 H   0  0  0  0  0  0  0  0  0  0  0  0
   40.5830   36.0880   40.9690 C   0  0  0  0  0  0  0  0  0  0  0  0
   39.8270   35.3820   40.0220 C   0  0  0  0  0  0  0  0  0  0  0  0
   40.2580   34.0850   39.6270 C   0  0  0  0  0  0  0  0  0  0  0  0
   41.3800   33.6140   40.1960 N   0  0  0  0  0  0  0  0  0  0  0  0
   42.0870   34.3010   41.0950 C   0  0  0  0  0  0  0  0  0  0  0  0
   41.6880   35.5310   41.4780 N   0  0  0  0  0  0  0  0  0  0  0  0
   39.5270   33.3650   38.6910 O   0  0  0  0  0  0  0  0  0  0  0  0
   46.7530   35.5755   41.2777 H   0  0  0  0  0  0  0  0  0  0  0  0
   50.5215   36.1465   41.6350 H   0  0  0  0  0  0  0  0  0  0  0  0
   49.1142   36.5915   40.6328 H   0  0  0  0  0  0  0  0  0  0  0  0
   40.2699   37.0922   41.2909 H   0  0  0  0  0  0  0  0  0  0  0  0
   38.9160   35.8237   39.5918 H   0  0  0  0  0  0  0  0  0  0  0  0
   39.8272   32.4625   38.4163 H   0  0  0  0  0  0  0  0  0  0  0  0
  1  5  1  0
  1  2  2  0
  2  3  1  0
  4  3  1  0
  4  6  1  0
  5  4  2  0
  6  7  2  0
  8  9  1  0
  8  6  1  0
  9 10  2  0
 10 12  1  0
 11  9  1  0
 13 18  2  0
 14 13  1  0
 15 14  2  0
 15 16  1  0
 16 17  2  0
 17 18  1  0
 17  1  1  0
 19 15  1  0
  8 20  1  0
 11 21  1  0
 11 22  1  0
 13 23  1  0
 14 24  1  0
 19 25  1  0
M  ISO  3  23  14  24  14  25   3
M  END
>  <minimizedAffinity>  (1) 
-5.21736526

>  <minimizedRMSD>  (1) 
0.0625469014

$$$$
