
     RDKit          3D

 37 39  0  0  0  0  0  0  0  0999 V2000
   43.5870   33.9020   41.7540 C   0  0  0  0  0  0  0  0  0  0  0  0
   43.8430   32.7250   42.3310 N   0  0  0  0  0  0  0  0  0  0  0  0
   45.0590   32.7080   42.8090 O   0  0  0  0  0  0  0  0  0  0  0  0
   45.6360   33.8570   42.5660 C   0  0  0  0  0  0  0  0  0  0  0  0
   44.7190   34.6190   41.9010 N   0  0  0  0  0  0  0  0  0  0  0  0
   46.9840   34.2140   42.9430 C   0  0  0  0  0  0  0  0  0  0  0  0
   47.5690   33.6770   43.8660 O   0  0  0  0  0  0  0  0  0  0  0  0
   47.5200   35.2300   42.1350 N   0  0  0  0  0  0  0  0  0  0  0  0
   48.9200   35.3820   42.3390 C   0  0  0  0  0  0  0  0  0  0  0  0
   49.8300   34.8830   43.0600 N   0  0  0  0  0  0  0  0  0  0  0  0
   49.7220   36.3240   41.6100 N   0  0  0  0  0  0  0  0  0  0  0  0
   49.7610   33.9720   43.5040 H   0  0  0  0  0  0  0  0  0  0  0  0
   40.6640   35.9960   41.1270 C   0  0  0  0  0  0  0  0  0  0  0  0
   40.1680   35.4820   39.9140 C   0  0  0  0  0  0  0  0  0  0  0  0
   40.8430   34.4070   39.3060 C   0  0  0  0  0  0  0  0  0  0  0  0
   41.9340   33.9110   39.9080 N   0  0  0  0  0  0  0  0  0  0  0  0
   42.3850   34.4290   41.0750 C   0  0  0  0  0  0  0  0  0  0  0  0
   41.7620   35.4590   41.6830 N   0  0  0  0  0  0  0  0  0  0  0  0
   40.3710   33.8290   38.0300 C   0  0  0  0  0  0  0  0  0  0  0  0
   38.9700   34.2560   37.6910 C   0  0  0  0  0  0  0  0  0  0  0  0
   38.0710   33.1690   38.2200 C   0  0  0  0  0  0  0  0  0  0  0  0
   38.8950   31.9240   38.2170 C   0  0  0  0  0  0  0  0  0  0  0  0
   40.3160   32.3540   37.9610 C   0  0  0  0  0  0  0  0  0  0  0  0
   46.9673   35.7959   41.4754 H   0  0  0  0  0  0  0  0  0  0  0  0
   50.7325   36.3935   41.7970 H   0  0  0  0  0  0  0  0  0  0  0  0
   49.2868   36.9302   40.9001 H   0  0  0  0  0  0  0  0  0  0  0  0
   40.1527   36.8366   41.6189 H   0  0  0  0  0  0  0  0  0  0  0  0
   39.2688   35.9129   39.4495 H   0  0  0  0  0  0  0  0  0  0  0  0
   41.1347   34.2088   37.3354 H   0  0  0  0  0  0  0  0  0  0  0  0
   38.7348   35.2163   38.1733 H   0  0  0  0  0  0  0  0  0  0  0  0
   38.8405   34.3975   36.6079 H   0  0  0  0  0  0  0  0  0  0  0  0
   37.7412   33.4079   39.2419 H   0  0  0  0  0  0  0  0  0  0  0  0
   37.1654   33.0572   37.6057 H   0  0  0  0  0  0  0  0  0  0  0  0
   38.8207   31.4165   39.1901 H   0  0  0  0  0  0  0  0  0  0  0  0
   38.5477   31.2182   37.4481 H   0  0  0  0  0  0  0  0  0  0  0  0
   40.6336   32.0157   36.9637 H   0  0  0  0  0  0  0  0  0  0  0  0
   40.9879   31.9129   38.7121 H   0  0  0  0  0  0  0  0  0  0  0  0
  1  5  1  0
  1  2  2  0
  2  3  1  0
  4  3  1  0
  4  6  1  0
  5  4  2  0
  6  7  2  0
  8  9  1  0
  8  6  1  0
  9 10  2  0
 10 12  1  0
 11  9  1  0
 13 18  2  0
 14 13  1  0
 15 16  1  0
 15 14  2  0
 16 17  2  0
 17 18  1  0
 17  1  1  0
 19 15  1  0
 20 19  1  0
 20 21  1  0
 22 21  1  0
 23 19  1  0
 23 22  1  0
  8 24  1  0
 11 25  1  0
 11 26  1  0
 13 27  1  0
 14 28  1  0
 19 29  1  0
 20 30  1  0
 20 31  1  0
 21 32  1  0
 21 33  1  0
 22 34  1  0
 22 35  1  0
 23 36  1  0
 23 37  1  0
M  ISO  8  27  14  28  14  29  13  30  13  31  13  32  13  33  13  34  13
M  ISO  3  35  13  36  13  37  13
M  END
>  <minimizedAffinity>  (1) 
-6.49173546

>  <minimizedRMSD>  (1) 
0.974544764

$$$$
