
     RDKit          3D

 50 52  0  0  1  0  0  0  0  0999 V2000
   46.1880   34.9100   41.7550 C   0  0  0  0  0  0  0  0  0  0  0  0
   46.8030   34.3370   40.6470 N   0  0  0  0  0  0  0  0  0  0  0  0
   46.1540   33.2520   40.1770 C   0  0  0  0  0  0  0  0  0  0  0  0
   46.9840   31.9850   40.1250 C   0  0  0  0  0  0  0  0  0  0  0  0
   48.1490   31.8800   41.0200 C   0  0  0  0  0  0  0  0  0  0  0  0
   48.5380   33.1670   41.6780 C   0  0  0  0  0  0  0  0  0  0  0  0
   48.2070   34.2850   40.7530 C   0  0  2  0  0  0  0  0  0  0  0  0
   48.8290   35.5200   41.2880 C   0  0  0  0  0  0  0  0  0  0  0  0
   49.7690   35.3070   42.4330 C   0  0  0  0  0  0  0  0  0  0  0  0
   45.0240   34.2640   42.2990 C   0  0  1  0  0  0  0  0  0  0  0  0
   44.9200   34.8000   44.7850 C   0  0  0  0  0  0  0  0  0  0  0  0
   45.2370   33.9230   43.7100 C   0  0  0  0  0  0  0  0  0  0  0  0
   45.7740   32.6660   44.0240 C   0  0  0  0  0  0  0  0  0  0  0  0
   45.9700   32.3380   45.3110 N   0  0  0  0  0  0  0  0  0  0  0  0
   45.6570   33.1980   46.3140 C   0  0  0  0  0  0  0  0  0  0  0  0
   45.1270   34.4410   46.0450 N   0  0  0  0  0  0  0  0  0  0  0  0
   43.8070   35.1280   42.1340 C   0  0  0  0  0  0  0  0  0  0  0  0
   42.9140   34.7260   41.0240 C   0  0  0  0  0  0  0  0  0  0  0  0
   42.3680   33.4650   41.3040 C   0  0  0  0  0  0  0  0  0  0  0  0
   41.4760   32.8440   40.4240 C   0  0  0  0  0  0  0  0  0  0  0  0
   41.1050   33.4570   39.2490 C   0  0  0  0  0  0  0  0  0  0  0  0
   41.6500   34.6960   38.9900 C   0  0  0  0  0  0  0  0  0  0  0  0
   42.5290   35.3230   39.8450 C   0  0  0  0  0  0  0  0  0  0  0  0
   45.8913   35.9305   41.4713 H   0  0  0  0  0  0  0  0  0  0  0  0
   46.9402   34.8314   42.5538 H   0  0  0  0  0  0  0  0  0  0  0  0
   45.2858   33.0654   40.8261 H   0  0  0  0  0  0  0  0  0  0  0  0
   45.8787   33.4834   39.1375 H   0  0  0  0  0  0  0  0  0  0  0  0
   46.3136   31.1458   40.3621 H   0  0  0  0  0  0  0  0  0  0  0  0
   47.4159   31.9829   39.1133 H   0  0  0  0  0  0  0  0  0  0  0  0
   47.9142   31.1480   41.8068 H   0  0  0  0  0  0  0  0  0  0  0  0
   49.0009   31.5761   40.3940 H   0  0  0  0  0  0  0  0  0  0  0  0
   47.9815   33.2862   42.6193 H   0  0  0  0  0  0  0  0  0  0  0  0
   49.6150   33.1672   41.9018 H   0  0  0  0  0  0  0  0  0  0  0  0
   48.6045   34.1519   39.7360 H   0  0  0  0  0  0  0  0  0  0  0  0
   49.3877   36.0022   40.4723 H   0  0  0  0  0  0  0  0  0  0  0  0
   48.0053   36.1373   41.6758 H   0  0  0  0  0  0  0  0  0  0  0  0
   49.2255   35.4302   43.3814 H   0  0  0  0  0  0  0  0  0  0  0  0
   50.1877   34.2912   42.3796 H   0  0  0  0  0  0  0  0  0  0  0  0
   50.5847   36.0431   42.3796 H   0  0  0  0  0  0  0  0  0  0  0  0
   44.8543   33.3311   41.7413 H   0  0  0  0  0  0  0  0  0  0  0  0
   44.4965   35.7916   44.5675 H   0  0  0  0  0  0  0  0  0  0  0  0
   46.0319   31.9563   43.2241 H   0  0  0  0  0  0  0  0  0  0  0  0
   45.8293   32.8975   47.3580 H   0  0  0  0  0  0  0  0  0  0  0  0
   43.2299   35.0908   43.0697 H   0  0  0  0  0  0  0  0  0  0  0  0
   44.1708   36.1376   41.8925 H   0  0  0  0  0  0  0  0  0  0  0  0
   42.6476   32.9530   42.2366 H   0  0  0  0  0  0  0  0  0  0  0  0
   41.0662   31.8542   40.6738 H   0  0  0  0  0  0  0  0  0  0  0  0
   40.4048   32.9794   38.5479 H   0  0  0  0  0  0  0  0  0  0  0  0
   41.3701   35.2078   38.0574 H   0  0  0  0  0  0  0  0  0  0  0  0
   42.9285   36.3136   39.5823 H   0  0  0  0  0  0  0  0  0  0  0  0
  1 10  1  0
  2  7  1  0
  2  1  1  0
  3  2  1  0
  4  3  1  0
  4  5  1  0
  5  6  1  0
  7  8  1  0
  7  6  1  0
  8  9  1  0
 10 12  1  0
 11 16  2  0
 12 13  2  0
 12 11  1  0
 13 14  1  0
 14 15  2  0
 16 15  1  0
 17 10  1  0
 18 19  2  0
 18 17  1  0
 20 19  1  0
 21 20  2  0
 22 21  1  0
 22 23  2  0
 23 18  1  0
  1 24  1  0
  1 25  1  0
  3 26  1  0
  3 27  1  0
  4 28  1  0
  4 29  1  0
  5 30  1  0
  5 31  1  0
  6 32  1  0
  6 33  1  0
  7 34  1  6
  8 35  1  0
  8 36  1  0
  9 37  1  0
  9 38  1  0
  9 39  1  0
 10 40  1  6
 11 41  1  0
 13 42  1  0
 15 43  1  0
 17 44  1  0
 17 45  1  0
 19 46  1  0
 20 47  1  0
 21 48  1  0
 22 49  1  0
 23 50  1  0
M  ISO  8  24   8  25   8  26  13  27  13  28  13  29  13  30  13  31  13
M  ISO  8  32  13  33  13  34  13  35   8  36   8  37   8  38   8  39   8
M  ISO  8  40   8  41  14  42  14  43  14  44   8  45   8  46  14  47  14
M  ISO  3  48  14  49  14  50  14
M  END
>  <minimizedAffinity>  (1) 
-5.19024229

>  <minimizedRMSD>  (1) 
2.63012815

$$$$
