
     RDKit          3D

 53 56  0  0  1  0  0  0  0  0999 V2000
   40.7410   35.9660   41.0030 C   0  0  0  0  0  0  0  0  0  0  0  0
   40.2250   35.3630   39.8490 C   0  0  0  0  0  0  0  0  0  0  0  0
   40.8600   34.2260   39.3220 C   0  0  0  0  0  0  0  0  0  0  0  0
   41.9490   33.7500   39.9450 N   0  0  0  0  0  0  0  0  0  0  0  0
   42.4230   34.3650   41.0660 C   0  0  0  0  0  0  0  0  0  0  0  0
   41.8320   35.4570   41.5930 N   0  0  0  0  0  0  0  0  0  0  0  0
   40.3210   33.5810   38.1240 C   0  0  2  0  0  0  0  0  0  0  0  0
   39.0580   34.1200   37.6110 C   0  0  0  0  0  0  0  0  0  0  0  0
   37.9540   33.3000   38.2570 C   0  0  0  0  0  0  0  0  0  0  0  0
   38.5650   31.9490   38.4900 C   0  0  0  0  0  0  0  0  0  0  0  0
   40.0290   32.1120   38.2730 C   0  0  1  0  0  0  0  0  0  0  0  0
   40.6640   31.2770   37.2310 C   0  0  0  0  0  0  0  0  0  0  0  0
   42.1500   31.0620   37.5320 C   0  0  0  0  0  0  0  0  0  0  0  0
   42.8440   30.7190   36.2670 C   0  0  0  0  0  0  0  0  0  0  0  0
   41.9990   29.8510   35.4150 C   0  0  0  0  0  0  0  0  0  0  0  0
   40.9230   29.0680   36.1040 C   0  0  0  0  0  0  0  0  0  0  0  0
   40.0070   29.9520   36.9270 C   0  0  0  0  0  0  0  0  0  0  0  0
   43.6200   33.8610   41.7790 C   0  0  0  0  0  0  0  0  0  0  0  0
   43.8600   32.7100   42.4270 N   0  0  0  0  0  0  0  0  0  0  0  0
   45.0760   32.7090   42.9060 O   0  0  0  0  0  0  0  0  0  0  0  0
   45.6700   33.8460   42.5890 C   0  0  0  0  0  0  0  0  0  0  0  0
   44.7580   34.5640   41.8860 N   0  0  0  0  0  0  0  0  0  0  0  0
   47.0170   34.1890   42.9510 C   0  0  0  0  0  0  0  0  0  0  0  0
   47.6280   33.6700   43.8510 O   0  0  0  0  0  0  0  0  0  0  0  0
   47.5300   35.1930   42.1350 N   0  0  0  0  0  0  0  0  0  0  0  0
   48.9340   35.4090   42.3170 C   0  0  0  0  0  0  0  0  0  0  0  0
   49.8430   34.9320   43.0480 N   0  0  0  0  0  0  0  0  0  0  0  0
   49.7100   36.3570   41.5890 N   0  0  0  0  0  0  0  0  0  0  0  0
   49.8140   33.9620   43.3830 H   0  0  0  0  0  0  0  0  0  0  0  0
   40.2516   36.8563   41.4248 H   0  0  0  0  0  0  0  0  0  0  0  0
   39.3306   35.7760   39.3597 H   0  0  0  0  0  0  0  0  0  0  0  0
   41.1545   33.7842   37.4356 H   0  0  0  0  0  0  0  0  0  0  0  0
   38.9562   35.1802   37.8858 H   0  0  0  0  0  0  0  0  0  0  0  0
   39.0126   34.0595   36.5136 H   0  0  0  0  0  0  0  0  0  0  0  0
   37.6415   33.7532   39.2093 H   0  0  0  0  0  0  0  0  0  0  0  0
   37.0545   33.2453   37.6262 H   0  0  0  0  0  0  0  0  0  0  0  0
   38.3671   31.6133   39.5186 H   0  0  0  0  0  0  0  0  0  0  0  0
   38.1407   31.1948   37.8110 H   0  0  0  0  0  0  0  0  0  0  0  0
   40.5186   31.7013   39.1684 H   0  0  0  0  0  0  0  0  0  0  0  0
   40.5256   31.8701   36.3150 H   0  0  0  0  0  0  0  0  0  0  0  0
   42.5800   31.9830   37.9527 H   0  0  0  0  0  0  0  0  0  0  0  0
   42.2718   30.2469   38.2605 H   0  0  0  0  0  0  0  0  0  0  0  0
   43.0736   31.6455   35.7203 H   0  0  0  0  0  0  0  0  0  0  0  0
   43.7687   30.1758   36.5114 H   0  0  0  0  0  0  0  0  0  0  0  0
   42.6622   29.1326   34.9109 H   0  0  0  0  0  0  0  0  0  0  0  0
   41.4673   30.5392   34.7415 H   0  0  0  0  0  0  0  0  0  0  0  0
   40.3227   28.5467   35.3438 H   0  0  0  0  0  0  0  0  0  0  0  0
   41.4092   28.3570   36.7882 H   0  0  0  0  0  0  0  0  0  0  0  0
   39.0790   30.1313   36.3643 H   0  0  0  0  0  0  0  0  0  0  0  0
   39.7889   29.4426   37.8772 H   0  0  0  0  0  0  0  0  0  0  0  0
   46.9569   35.7275   41.4667 H   0  0  0  0  0  0  0  0  0  0  0  0
   50.7178   36.4524   41.7793 H   0  0  0  0  0  0  0  0  0  0  0  0
   49.2631   36.9468   40.8725 H   0  0  0  0  0  0  0  0  0  0  0  0
  1  6  2  0
  2  1  1  0
  3  2  2  0
  3  4  1  0
  4  5  2  0
  5  6  1  0
  5 18  1  0
  7 11  1  0
  7  3  1  0
  8  7  1  0
  8  9  1  0
  9 10  1  0
 11 10  1  0
 12 13  1  0
 12 11  1  0
 14 13  1  0
 15 16  1  0
 15 14  1  0
 16 17  1  0
 17 12  1  0
 18 22  1  0
 18 19  2  0
 19 20  1  0
 21 20  1  0
 21 23  1  0
 22 21  2  0
 23 24  2  0
 25 26  1  0
 25 23  1  0
 26 27  2  0
 27 29  1  0
 28 26  1  0
  1 30  1  0
  2 31  1  0
  7 32  1  6
  8 33  1  0
  8 34  1  0
  9 35  1  0
  9 36  1  0
 10 37  1  0
 10 38  1  0
 11 39  1  1
 12 40  1  0
 13 41  1  0
 13 42  1  0
 14 43  1  0
 14 44  1  0
 15 45  1  0
 15 46  1  0
 16 47  1  0
 16 48  1  0
 17 49  1  0
 17 50  1  0
 25 51  1  0
 28 52  1  0
 28 53  1  0
M  ISO  8  30  14  31  14  32  13  33  13  34  13  35  13  36  13  37  13
M  ISO  8  38  13  39  13  40  13  41  13  42  13  43  13  44  13  45  13
M  ISO  5  46  13  47  13  48  13  49  13  50  13
M  END
>  <minimizedAffinity>  (1) 
-6.8857708

>  <minimizedRMSD>  (1) 
0.815950513

$$$$
