
     RDKit          3D

 46 49  0  0  1  0  0  0  0  0999 V2000
   40.8210   35.9340   41.0080 C   0  0  0  0  0  0  0  0  0  0  0  0
   40.2610   35.2920   39.8930 C   0  0  0  0  0  0  0  0  0  0  0  0
   40.8610   34.1220   39.4060 C   0  0  0  0  0  0  0  0  0  0  0  0
   41.9520   33.6430   40.0140 N   0  0  0  0  0  0  0  0  0  0  0  0
   42.4690   34.2940   41.0970 C   0  0  0  0  0  0  0  0  0  0  0  0
   41.9170   35.4230   41.5920 N   0  0  0  0  0  0  0  0  0  0  0  0
   40.2830   33.4370   38.2510 C   0  0  2  0  0  0  0  0  0  0  0  0
   39.1010   34.0600   37.6430 C   0  0  0  0  0  0  0  0  0  0  0  0
   37.8960   33.4380   38.3270 C   0  0  0  0  0  0  0  0  0  0  0  0
   38.3440   32.0450   38.6690 C   0  0  0  0  0  0  0  0  0  0  0  0
   39.8300   32.0290   38.5090 C   0  0  1  0  0  0  0  0  0  0  0  0
   40.2890   31.0870   37.4590 C   0  0  0  0  0  0  0  0  0  0  0  0
   39.3510   30.3190   36.7810 C   0  0  0  0  0  0  0  0  0  0  0  0
   39.8580   29.4690   35.8210 C   0  0  0  0  0  0  0  0  0  0  0  0
   41.2110   29.3980   35.5640 C   0  0  0  0  0  0  0  0  0  0  0  0
   42.1230   30.1890   36.2700 C   0  0  0  0  0  0  0  0  0  0  0  0
   41.6070   31.0080   37.1970 N   0  0  0  0  0  0  0  0  0  0  0  0
   43.6710   33.7980   41.8010 C   0  0  0  0  0  0  0  0  0  0  0  0
   43.9200   32.6510   42.4520 N   0  0  0  0  0  0  0  0  0  0  0  0
   45.1400   32.6500   42.9240 O   0  0  0  0  0  0  0  0  0  0  0  0
   45.7290   33.7860   42.6000 C   0  0  0  0  0  0  0  0  0  0  0  0
   44.8080   34.5020   41.8980 N   0  0  0  0  0  0  0  0  0  0  0  0
   47.0790   34.1430   42.9480 C   0  0  0  0  0  0  0  0  0  0  0  0
   47.7070   33.6070   43.8270 O   0  0  0  0  0  0  0  0  0  0  0  0
   47.5640   35.1740   42.1510 N   0  0  0  0  0  0  0  0  0  0  0  0
   48.9650   35.4030   42.3180 C   0  0  0  0  0  0  0  0  0  0  0  0
   49.8910   34.9300   43.0290 N   0  0  0  0  0  0  0  0  0  0  0  0
   49.7160   36.3730   41.5890 N   0  0  0  0  0  0  0  0  0  0  0  0
   49.8830   33.9600   43.3600 H   0  0  0  0  0  0  0  0  0  0  0  0
   40.3635   36.8533   41.4026 H   0  0  0  0  0  0  0  0  0  0  0  0
   39.3629   35.7013   39.4073 H   0  0  0  0  0  0  0  0  0  0  0  0
   41.1536   33.4919   37.5809 H   0  0  0  0  0  0  0  0  0  0  0  0
   39.1149   35.1473   37.8092 H   0  0  0  0  0  0  0  0  0  0  0  0
   39.0749   33.8946   36.5558 H   0  0  0  0  0  0  0  0  0  0  0  0
   37.6321   33.9972   39.2367 H   0  0  0  0  0  0  0  0  0  0  0  0
   36.9989   33.4475   37.6905 H   0  0  0  0  0  0  0  0  0  0  0  0
   38.0703   31.8011   39.7061 H   0  0  0  0  0  0  0  0  0  0  0  0
   37.8644   31.3002   38.0168 H   0  0  0  0  0  0  0  0  0  0  0  0
   40.2892   31.6532   39.4352 H   0  0  0  0  0  0  0  0  0  0  0  0
   38.2742   30.3846   36.9959 H   0  0  0  0  0  0  0  0  0  0  0  0
   39.1677   28.8332   35.2472 H   0  0  0  0  0  0  0  0  0  0  0  0
   41.5791   28.7076   34.7907 H   0  0  0  0  0  0  0  0  0  0  0  0
   43.2046   30.1416   36.0752 H   0  0  0  0  0  0  0  0  0  0  0  0
   46.9735   35.7177   41.5056 H   0  0  0  0  0  0  0  0  0  0  0  0
   50.7252   36.4810   41.7643 H   0  0  0  0  0  0  0  0  0  0  0  0
   49.2489   36.9651   40.8875 H   0  0  0  0  0  0  0  0  0  0  0  0
  1  6  2  0
  2  1  1  0
  3  2  2  0
  3  4  1  0
  4  5  2  0
  5  6  1  0
  5 18  1  0
  7 11  1  0
  7  3  1  0
  8  7  1  0
  8  9  1  0
  9 10  1  0
 11 10  1  0
 12 11  1  0
 13 12  2  0
 14 13  1  0
 15 14  2  0
 15 16  1  0
 16 17  2  0
 17 12  1  0
 18 22  1  0
 18 19  2  0
 19 20  1  0
 21 20  1  0
 21 23  1  0
 22 21  2  0
 23 24  2  0
 25 26  1  0
 25 23  1  0
 26 27  2  0
 27 29  1  0
 28 26  1  0
  1 30  1  0
  2 31  1  0
  7 32  1  6
  8 33  1  0
  8 34  1  0
  9 35  1  0
  9 36  1  0
 10 37  1  0
 10 38  1  0
 11 39  1  1
 13 40  1  0
 14 41  1  0
 15 42  1  0
 16 43  1  0
 25 44  1  0
 28 45  1  0
 28 46  1  0
M  ISO  8  30  14  31  14  32  13  33  13  34  13  35  13  36  13  37  13
M  ISO  6  38  13  39  13  40  14  41  14  42  14  43  14
M  END
>  <minimizedAffinity>  (1) 
-6.841712

>  <minimizedRMSD>  (1) 
0.976392567

$$$$
