
     RDKit          3D

 45 48  0  0  1  0  0  0  0  0999 V2000
   40.1650   36.1940   40.8250 C   0  0  0  0  0  0  0  0  0  0  0  0
   39.8160   35.2840   39.8210 C   0  0  0  0  0  0  0  0  0  0  0  0
   40.7540   34.3190   39.4360 C   0  0  0  0  0  0  0  0  0  0  0  0
   41.9400   34.3060   40.0380 N   0  0  0  0  0  0  0  0  0  0  0  0
   42.2520   35.1940   41.0040 C   0  0  0  0  0  0  0  0  0  0  0  0
   41.3660   36.1390   41.3990 N   0  0  0  0  0  0  0  0  0  0  0  0
   40.4240   33.3400   38.3950 C   0  0  2  0  0  0  0  0  0  0  0  0
   39.3910   33.7580   37.4260 C   0  0  0  0  0  0  0  0  0  0  0  0
   38.0680   33.2620   37.9890 C   0  0  0  0  0  0  0  0  0  0  0  0
   38.4420   32.0110   38.7170 C   0  0  0  0  0  0  0  0  0  0  0  0
   39.9330   32.0130   38.8480 C   0  0  2  0  0  0  0  0  0  0  0  0
   40.3560   31.5670   40.1840 C   0  0  0  0  0  0  0  0  0  0  0  0
   39.7570   31.7350   41.4150 C   0  0  0  0  0  0  0  0  0  0  0  0
   40.3760   31.2470   42.5470 C   0  0  0  0  0  0  0  0  0  0  0  0
   41.5550   30.6030   42.4960 N   0  0  0  0  0  0  0  0  0  0  0  0
   42.1230   30.4480   41.2870 C   0  0  0  0  0  0  0  0  0  0  0  0
   41.5510   30.9110   40.1650 N   0  0  0  0  0  0  0  0  0  0  0  0
   43.5590   35.1950   41.6860 C   0  0  0  0  0  0  0  0  0  0  0  0
   43.9280   35.5890   42.9170 N   0  0  0  0  0  0  0  0  0  0  0  0
   45.2090   35.4010   43.0870 O   0  0  0  0  0  0  0  0  0  0  0  0
   45.7220   34.8840   41.9880 C   0  0  0  0  0  0  0  0  0  0  0  0
   44.6900   34.7520   41.1050 N   0  0  0  0  0  0  0  0  0  0  0  0
   47.1090   34.5450   41.8170 C   0  0  0  0  0  0  0  0  0  0  0  0
   47.9510   34.7000   42.6660 O   0  0  0  0  0  0  0  0  0  0  0  0
   47.3600   34.0200   40.5520 N   0  0  0  0  0  0  0  0  0  0  0  0
   48.6810   33.4920   40.4140 C   0  0  0  0  0  0  0  0  0  0  0  0
   49.6970   33.3630   41.1450 N   0  0  0  0  0  0  0  0  0  0  0  0
   49.1920   32.9070   39.2180 N   0  0  0  0  0  0  0  0  0  0  0  0
   49.6380   33.2940   42.1630 H   0  0  0  0  0  0  0  0  0  0  0  0
   39.4426   36.9603   41.1426 H   0  0  0  0  0  0  0  0  0  0  0  0
   38.8255   35.3261   39.3444 H   0  0  0  0  0  0  0  0  0  0  0  0
   41.4267   33.2685   37.9484 H   0  0  0  0  0  0  0  0  0  0  0  0
   39.5827   33.3042   36.4425 H   0  0  0  0  0  0  0  0  0  0  0  0
   39.3868   34.8489   37.2848 H   0  0  0  0  0  0  0  0  0  0  0  0
   37.6322   34.0014   38.6771 H   0  0  0  0  0  0  0  0  0  0  0  0
   37.3092   33.0928   37.2108 H   0  0  0  0  0  0  0  0  0  0  0  0
   37.9749   31.9989   39.7128 H   0  0  0  0  0  0  0  0  0  0  0  0
   38.0960   31.1202   38.1722 H   0  0  0  0  0  0  0  0  0  0  0  0
   40.4114   31.2682   38.1950 H   0  0  0  0  0  0  0  0  0  0  0  0
   38.7910   32.2553   41.4936 H   0  0  0  0  0  0  0  0  0  0  0  0
   39.8892   31.3894   43.5231 H   0  0  0  0  0  0  0  0  0  0  0  0
   43.0879   29.9246   41.2155 H   0  0  0  0  0  0  0  0  0  0  0  0
   46.6642   34.0129   39.7926 H   0  0  0  0  0  0  0  0  0  0  0  0
   50.1565   32.5465   39.1923 H   0  0  0  0  0  0  0  0  0  0  0  0
   48.5966   32.8450   38.3798 H   0  0  0  0  0  0  0  0  0  0  0  0
  1  6  2  0
  2  1  1  0
  3  2  2  0
  3  4  1  0
  4  5  2  0
  5  6  1  0
  5 18  1  0
  7 11  1  0
  7  3  1  0
  8  9  1  0
  8  7  1  0
  9 10  1  0
 10 11  1  0
 11 12  1  0
 12 13  2  0
 13 14  1  0
 15 14  2  0
 16 15  1  0
 17 12  1  0
 17 16  2  0
 18 19  2  0
 19 20  1  0
 21 20  1  0
 22 18  1  0
 22 21  2  0
 23 21  1  0
 23 24  2  0
 25 23  1  0
 26 25  1  0
 26 27  2  0
 27 29  1  0
 28 26  1  0
  1 30  1  0
  2 31  1  0
  7 32  1  6
  8 33  1  0
  8 34  1  0
  9 35  1  0
  9 36  1  0
 10 37  1  0
 10 38  1  0
 11 39  1  6
 13 40  1  0
 14 41  1  0
 16 42  1  0
 25 43  1  0
 28 44  1  0
 28 45  1  0
M  ISO  8  30  14  31  14  32  13  33  13  34  13  35  13  36  13  37  13
M  ISO  5  38  13  39  13  40  14  41  14  42  14
M  END
>  <minimizedAffinity>  (1) 
-6.78233147

>  <minimizedRMSD>  (1) 
1.90505886

$$$$
