
     RDKit          3D

 50 53  0  0  1  0  0  0  0  0999 V2000
   40.6290   35.8920   41.2230 C   0  0  0  0  0  0  0  0  0  0  0  0
   40.1700   35.4330   39.9830 C   0  0  0  0  0  0  0  0  0  0  0  0
   40.8780   34.4200   39.3280 C   0  0  0  0  0  0  0  0  0  0  0  0
   41.9650   33.9380   39.9250 N   0  0  0  0  0  0  0  0  0  0  0  0
   42.3980   34.3850   41.1170 C   0  0  0  0  0  0  0  0  0  0  0  0
   41.7320   35.3610   41.7670 N   0  0  0  0  0  0  0  0  0  0  0  0
   40.4180   33.9120   38.0320 C   0  0  2  0  0  0  0  0  0  0  0  0
   39.0910   34.3810   37.5950 C   0  0  0  0  0  0  0  0  0  0  0  0
   38.0910   33.3560   38.0980 C   0  0  0  0  0  0  0  0  0  0  0  0
   38.8530   32.0570   38.1300 C   0  0  0  0  0  0  0  0  0  0  0  0
   40.2900   32.4300   37.9120 C   0  0  2  0  0  0  0  0  0  0  0  0
   41.2560   31.6780   38.6260 N   0  0  0  0  0  0  0  0  0  0  0  0
   40.8580   30.3170   38.9080 C   0  0  0  0  0  0  0  0  0  0  0  0
   40.4710   29.5230   37.6910 C   0  0  0  0  0  0  0  0  0  0  0  0
   41.2330   29.8690   36.5800 O   0  0  0  0  0  0  0  0  0  0  0  0
   42.4800   30.2120   37.0500 C   0  0  0  0  0  0  0  0  0  0  0  0
   42.4700   31.5460   37.8020 C   0  0  0  0  0  0  0  0  0  0  0  0
   43.6090   33.8460   41.7780 C   0  0  0  0  0  0  0  0  0  0  0  0
   43.8790   32.6750   42.3390 N   0  0  0  0  0  0  0  0  0  0  0  0
   45.1040   32.6630   42.7980 O   0  0  0  0  0  0  0  0  0  0  0  0
   45.6720   33.8270   42.5510 C   0  0  0  0  0  0  0  0  0  0  0  0
   44.7370   34.5700   41.9120 N   0  0  0  0  0  0  0  0  0  0  0  0
   47.0240   34.1690   42.9180 C   0  0  0  0  0  0  0  0  0  0  0  0
   47.6300   33.6510   43.8240 O   0  0  0  0  0  0  0  0  0  0  0  0
   47.5400   35.1700   42.1000 N   0  0  0  0  0  0  0  0  0  0  0  0
   48.9380   35.3970   42.3040 C   0  0  0  0  0  0  0  0  0  0  0  0
   49.8430   34.9270   43.0410 N   0  0  0  0  0  0  0  0  0  0  0  0
   49.7100   36.3590   41.5890 N   0  0  0  0  0  0  0  0  0  0  0  0
   49.8190   33.9620   43.3880 H   0  0  0  0  0  0  0  0  0  0  0  0
   40.0841   36.6886   41.7507 H   0  0  0  0  0  0  0  0  0  0  0  0
   39.2647   35.8631   39.5297 H   0  0  0  0  0  0  0  0  0  0  0  0
   41.2363   34.3115   37.4149 H   0  0  0  0  0  0  0  0  0  0  0  0
   38.8745   35.3688   38.0278 H   0  0  0  0  0  0  0  0  0  0  0  0
   39.0431   34.4833   36.5008 H   0  0  0  0  0  0  0  0  0  0  0  0
   37.7368   33.6221   39.1048 H   0  0  0  0  0  0  0  0  0  0  0  0
   37.1988   33.2978   37.4573 H   0  0  0  0  0  0  0  0  0  0  0  0
   38.7279   31.5617   39.1042 H   0  0  0  0  0  0  0  0  0  0  0  0
   38.4932   31.3537   37.3645 H   0  0  0  0  0  0  0  0  0  0  0  0
   40.5571   32.1298   36.8880 H   0  0  0  0  0  0  0  0  0  0  0  0
   41.6992   29.8065   39.3998 H   0  0  0  0  0  0  0  0  0  0  0  0
   39.9632   30.3750   39.5452 H   0  0  0  0  0  0  0  0  0  0  0  0
   40.6174   28.4536   37.9031 H   0  0  0  0  0  0  0  0  0  0  0  0
   39.4176   29.7424   37.4626 H   0  0  0  0  0  0  0  0  0  0  0  0
   42.8301   29.4236   37.7325 H   0  0  0  0  0  0  0  0  0  0  0  0
   43.1490   30.3188   36.1834 H   0  0  0  0  0  0  0  0  0  0  0  0
   43.3546   31.5983   38.4537 H   0  0  0  0  0  0  0  0  0  0  0  0
   42.4849   32.3635   37.0661 H   0  0  0  0  0  0  0  0  0  0  0  0
   46.9735   35.6938   41.4176 H   0  0  0  0  0  0  0  0  0  0  0  0
   50.7143   36.4662   41.7908 H   0  0  0  0  0  0  0  0  0  0  0  0
   49.2634   36.9467   40.8707 H   0  0  0  0  0  0  0  0  0  0  0  0
  1  6  2  0
  2  1  1  0
  3  4  1  0
  3  2  2  0
  4  5  2  0
  5  6  1  0
  5 18  1  0
  7  3  1  0
  8  7  1  0
  8  9  1  0
  9 10  1  0
 11  7  1  0
 11 10  1  0
 11 12  1  0
 12 13  1  0
 14 13  1  0
 15 16  1  0
 15 14  1  0
 16 17  1  0
 17 12  1  0
 18 22  1  0
 18 19  2  0
 19 20  1  0
 21 20  1  0
 21 23  1  0
 22 21  2  0
 23 24  2  0
 25 26  1  0
 25 23  1  0
 26 27  2  0
 27 29  1  0
 28 26  1  0
  1 30  1  0
  2 31  1  0
  7 32  1  6
  8 33  1  0
  8 34  1  0
  9 35  1  0
  9 36  1  0
 10 37  1  0
 10 38  1  0
 11 39  1  6
 13 40  1  0
 13 41  1  0
 14 42  1  0
 14 43  1  0
 16 44  1  0
 16 45  1  0
 17 46  1  0
 17 47  1  0
 25 48  1  0
 28 49  1  0
 28 50  1  0
M  ISO  8  30  14  31  14  32  13  33  13  34  13  35  13  36  13  37  13
M  ISO  8  38  13  39  13  40  13  41  13  42  13  43  13  44  13  45  13
M  ISO  2  46  13  47  13
M  END
>  <minimizedAffinity>  (1) 
-6.72892189

>  <minimizedRMSD>  (1) 
0.299850196

$$$$
