
     RDKit          3D

 43 46  0  0  1  0  0  0  0  0999 V2000
   40.6890   35.7400   41.2600 C   0  0  0  0  0  0  0  0  0  0  0  0
   40.2100   35.2150   40.0340 C   0  0  0  0  0  0  0  0  0  0  0  0
   40.9320   34.1930   39.4200 C   0  0  0  0  0  0  0  0  0  0  0  0
   42.0500   33.7370   40.0000 N   0  0  0  0  0  0  0  0  0  0  0  0
   42.4850   34.2550   41.1700 C   0  0  0  0  0  0  0  0  0  0  0  0
   41.8140   35.2480   41.8010 N   0  0  0  0  0  0  0  0  0  0  0  0
   40.4700   33.6200   38.1550 C   0  0  2  0  0  0  0  0  0  0  0  0
   39.5460   34.4520   37.3680 C   0  0  0  0  0  0  0  0  0  0  0  0
   38.1530   34.0310   37.8030 C   0  0  0  0  0  0  0  0  0  0  0  0
   38.2900   32.5780   38.1720 C   0  0  0  0  0  0  0  0  0  0  0  0
   39.7620   32.3060   38.2480 C   0  0  2  0  0  0  0  0  0  0  0  0
   40.1130   31.5290   39.4210 N   0  0  0  0  0  0  0  0  0  0  0  0
   41.0930   30.6350   39.6470 C   0  0  0  0  0  0  0  0  0  0  0  0
   40.9850   30.1950   40.9110 N   0  0  0  0  0  0  0  0  0  0  0  0
   39.9430   30.8050   41.4860 C   0  0  0  0  0  0  0  0  0  0  0  0
   39.4150   31.6200   40.5640 N   0  0  0  0  0  0  0  0  0  0  0  0
   43.6990   33.7760   41.8450 C   0  0  0  0  0  0  0  0  0  0  0  0
   43.9740   32.6190   42.4770 N   0  0  0  0  0  0  0  0  0  0  0  0
   45.1950   32.6310   42.9320 O   0  0  0  0  0  0  0  0  0  0  0  0
   45.7640   33.7810   42.6190 C   0  0  0  0  0  0  0  0  0  0  0  0
   44.8230   34.4970   41.9390 N   0  0  0  0  0  0  0  0  0  0  0  0
   47.1160   34.1430   42.9630 C   0  0  0  0  0  0  0  0  0  0  0  0
   47.7640   33.5980   43.8230 O   0  0  0  0  0  0  0  0  0  0  0  0
   47.5800   35.1950   42.1780 N   0  0  0  0  0  0  0  0  0  0  0  0
   48.9820   35.4260   42.3200 C   0  0  0  0  0  0  0  0  0  0  0  0
   49.9230   34.9490   43.0130 N   0  0  0  0  0  0  0  0  0  0  0  0
   49.7200   36.3980   41.5790 N   0  0  0  0  0  0  0  0  0  0  0  0
   49.9280   33.9690   43.3170 H   0  0  0  0  0  0  0  0  0  0  0  0
   40.1405   36.5480   41.7663 H   0  0  0  0  0  0  0  0  0  0  0  0
   39.2887   35.6054   39.5770 H   0  0  0  0  0  0  0  0  0  0  0  0
   41.4506   33.5223   37.6661 H   0  0  0  0  0  0  0  0  0  0  0  0
   39.6848   34.2691   36.2922 H   0  0  0  0  0  0  0  0  0  0  0  0
   39.7194   35.5254   37.5348 H   0  0  0  0  0  0  0  0  0  0  0  0
   37.8224   34.6218   38.6700 H   0  0  0  0  0  0  0  0  0  0  0  0
   37.4045   34.1907   37.0129 H   0  0  0  0  0  0  0  0  0  0  0  0
   37.8152   32.3848   39.1453 H   0  0  0  0  0  0  0  0  0  0  0  0
   37.7985   31.9275   37.4335 H   0  0  0  0  0  0  0  0  0  0  0  0
   40.0838   31.6731   37.4078 H   0  0  0  0  0  0  0  0  0  0  0  0
   41.8543   30.3181   38.9190 H   0  0  0  0  0  0  0  0  0  0  0  0
   39.5880   30.6643   42.5176 H   0  0  0  0  0  0  0  0  0  0  0  0
   46.9736   35.7503   41.5577 H   0  0  0  0  0  0  0  0  0  0  0  0
   50.7320   36.5067   41.7372 H   0  0  0  0  0  0  0  0  0  0  0  0
   49.2404   36.9905   40.8863 H   0  0  0  0  0  0  0  0  0  0  0  0
  1  6  2  0
  2  1  1  0
  3  4  1  0
  3  2  2  0
  4  5  2  0
  5  6  1  0
  5 17  1  0
  7 11  1  0
  7  3  1  0
  8  9  1  0
  8  7  1  0
  9 10  1  0
 10 11  1  0
 11 12  1  0
 12 13  1  0
 12 16  1  0
 13 14  2  0
 14 15  1  0
 16 15  2  0
 17 21  1  0
 17 18  2  0
 18 19  1  0
 20 19  1  0
 20 22  1  0
 21 20  2  0
 22 23  2  0
 24 25  1  0
 24 22  1  0
 25 26  2  0
 26 28  1  0
 27 25  1  0
  1 29  1  0
  2 30  1  0
  7 31  1  6
  8 32  1  0
  8 33  1  0
  9 34  1  0
  9 35  1  0
 10 36  1  0
 10 37  1  0
 11 38  1  6
 13 39  1  0
 15 40  1  0
 24 41  1  0
 27 42  1  0
 27 43  1  0
M  ISO  8  29  14  30  14  31  13  32  13  33  13  34  13  35  13  36  13
M  ISO  4  37  13  38  13  39  14  40  14
M  END
>  <minimizedAffinity>  (1) 
-6.54642868

>  <minimizedRMSD>  (1) 
0.90620333

$$$$
