
     RDKit          3D

 47 49  0  0  1  0  0  0  0  0999 V2000
   47.6770   33.3760   43.8350 C   0  0  0  0  0  0  0  0  0  0  0  0
   48.0950   32.8090   42.6420 N   0  0  0  0  0  0  0  0  0  0  0  0
   48.6390   31.5540   42.7540 C   0  0  0  0  0  0  0  0  0  0  0  0
   50.0920   31.3870   42.3830 C   0  0  0  0  0  0  0  0  0  0  0  0
   50.8970   32.5910   42.1780 C   0  0  0  0  0  0  0  0  0  0  0  0
   50.1610   33.8770   42.3480 C   0  0  0  0  0  0  0  0  0  0  0  0
   48.7850   33.6870   41.7940 C   0  0  2  0  0  0  0  0  0  0  0  0
   48.1570   35.0300   41.7070 C   0  0  0  0  0  0  0  0  0  0  0  0
   49.1000   36.1690   41.5250 C   0  0  0  0  0  0  0  0  0  0  0  0
   46.3460   32.9560   44.3090 C   0  0  1  0  0  0  0  0  0  0  0  0
   46.8160   32.8670   46.8130 C   0  0  0  0  0  0  0  0  0  0  0  0
   46.4830   32.2410   45.5780 C   0  0  0  0  0  0  0  0  0  0  0  0
   46.2730   30.8580   45.5770 C   0  0  0  0  0  0  0  0  0  0  0  0
   46.3940   30.1750   46.7350 N   0  0  0  0  0  0  0  0  0  0  0  0
   46.7130   30.8000   47.8930 C   0  0  0  0  0  0  0  0  0  0  0  0
   46.9270   32.1610   47.9320 N   0  0  0  0  0  0  0  0  0  0  0  0
   45.4550   34.1580   44.4650 C   0  0  0  0  0  0  0  0  0  0  0  0
   44.7370   34.4350   43.2130 N   0  0  0  0  0  0  0  0  0  0  0  0
   44.2190   33.5720   42.3310 N   0  0  0  0  0  0  0  0  0  0  0  0
   43.6460   34.2060   41.3220 C   0  0  0  0  0  0  0  0  0  0  0  0
   43.7790   35.5460   41.5230 C   0  0  0  0  0  0  0  0  0  0  0  0
   44.4660   35.6610   42.7150 C   0  0  0  0  0  0  0  0  0  0  0  0
   47.6600   34.4679   43.7029 H   0  0  0  0  0  0  0  0  0  0  0  0
   48.3903   33.0308   44.5979 H   0  0  0  0  0  0  0  0  0  0  0  0
   48.5288   31.2399   43.8024 H   0  0  0  0  0  0  0  0  0  0  0  0
   48.0913   30.9455   42.0193 H   0  0  0  0  0  0  0  0  0  0  0  0
   50.5695   30.8088   43.1878 H   0  0  0  0  0  0  0  0  0  0  0  0
   50.0667   30.9052   41.3945 H   0  0  0  0  0  0  0  0  0  0  0  0
   51.3010   32.5615   41.1553 H   0  0  0  0  0  0  0  0  0  0  0  0
   51.6753   32.5768   42.9552 H   0  0  0  0  0  0  0  0  0  0  0  0
   50.1030   34.1378   43.4151 H   0  0  0  0  0  0  0  0  0  0  0  0
   50.6802   34.6917   41.8220 H   0  0  0  0  0  0  0  0  0  0  0  0
   48.7793   33.2423   40.7879 H   0  0  0  0  0  0  0  0  0  0  0  0
   47.4632   35.0249   40.8534 H   0  0  0  0  0  0  0  0  0  0  0  0
   47.6659   35.1969   42.6770 H   0  0  0  0  0  0  0  0  0  0  0  0
   49.4129   36.5469   42.5095 H   0  0  0  0  0  0  0  0  0  0  0  0
   49.9835   35.8278   40.9655 H   0  0  0  0  0  0  0  0  0  0  0  0
   48.5999   36.9733   40.9655 H   0  0  0  0  0  0  0  0  0  0  0  0
   45.8872   32.2805   43.5720 H   0  0  0  0  0  0  0  0  0  0  0  0
   46.9841   33.9537   46.8404 H   0  0  0  0  0  0  0  0  0  0  0  0
   46.0128   30.3342   44.6453 H   0  0  0  0  0  0  0  0  0  0  0  0
   46.8029   30.2117   48.8181 H   0  0  0  0  0  0  0  0  0  0  0  0
   44.7253   33.9658   45.2654 H   0  0  0  0  0  0  0  0  0  0  0  0
   46.0763   35.0298   44.7181 H   0  0  0  0  0  0  0  0  0  0  0  0
   43.1462   33.7310   40.4649 H   0  0  0  0  0  0  0  0  0  0  0  0
   43.4179   36.3595   40.8767 H   0  0  0  0  0  0  0  0  0  0  0  0
   44.7509   36.6116   43.1896 H   0  0  0  0  0  0  0  0  0  0  0  0
  1 10  1  0
  2  3  1  0
  2  1  1  0
  4  3  1  0
  5  6  1  0
  5  4  1  0
  7  6  1  0
  7  2  1  0
  8  7  1  0
  9  8  1  0
 10 17  1  0
 10 12  1  0
 11 16  2  0
 12 11  1  0
 13 12  2  0
 13 14  1  0
 14 15  2  0
 15 16  1  0
 18 17  1  0
 19 18  1  0
 20 21  1  0
 20 19  2  0
 21 22  2  0
 22 18  1  0
  1 23  1  0
  1 24  1  0
  3 25  1  0
  3 26  1  0
  4 27  1  0
  4 28  1  0
  5 29  1  0
  5 30  1  0
  6 31  1  0
  6 32  1  0
  7 33  1  6
  8 34  1  0
  8 35  1  0
  9 36  1  0
  9 37  1  0
  9 38  1  0
 10 39  1  6
 11 40  1  0
 13 41  1  0
 15 42  1  0
 17 43  1  0
 17 44  1  0
 20 45  1  0
 21 46  1  0
 22 47  1  0
M  ISO  8  23   8  24   8  25  13  26  13  27  13  28  13  29  13  30  13
M  ISO  8  31  13  32  13  33  13  34   8  35   8  36   8  37   8  38   8
M  ISO  8  39   8  40  14  41  14  42  14  43   8  44   8  45  14  46  14
M  ISO  1  47  14
M  END
>  <minimizedAffinity>  (1) 
-5.10213804

>  <minimizedRMSD>  (1) 
2.71324182

$$$$
