
     RDKit          3D

 40 42  0  0  1  0  0  0  0  0999 V2000
   40.7730   35.9540   40.9550 C   0  0  0  0  0  0  0  0  0  0  0  0
   40.2260   35.2980   39.8440 C   0  0  0  0  0  0  0  0  0  0  0  0
   40.8290   34.1240   39.3760 C   0  0  0  0  0  0  0  0  0  0  0  0
   41.9160   33.6570   40.0040 N   0  0  0  0  0  0  0  0  0  0  0  0
   42.4210   34.3230   41.0830 C   0  0  0  0  0  0  0  0  0  0  0  0
   41.8620   35.4540   41.5550 N   0  0  0  0  0  0  0  0  0  0  0  0
   40.2630   33.4220   38.2260 C   0  0  2  0  0  0  0  0  0  0  0  0
   39.0340   33.9810   37.6560 C   0  0  0  0  0  0  0  0  0  0  0  0
   37.8840   33.2790   38.3590 C   0  0  0  0  0  0  0  0  0  0  0  0
   38.4190   31.9130   38.6830 C   0  0  0  0  0  0  0  0  0  0  0  0
   39.8970   31.9880   38.4630 C   0  0  1  0  0  0  0  0  0  0  0  0
   40.3620   31.0880   37.3380 C   0  0  0  0  0  0  0  0  0  0  0  0
   43.6230   33.8320   41.8000 C   0  0  0  0  0  0  0  0  0  0  0  0
   43.8800   32.6840   42.4390 N   0  0  0  0  0  0  0  0  0  0  0  0
   45.0950   32.7030   42.9220 O   0  0  0  0  0  0  0  0  0  0  0  0
   45.6670   33.8530   42.6160 C   0  0  0  0  0  0  0  0  0  0  0  0
   44.7480   34.5610   41.9140 N   0  0  0  0  0  0  0  0  0  0  0  0
   47.0090   34.2150   42.9900 C   0  0  0  0  0  0  0  0  0  0  0  0
   47.6050   33.7070   43.9140 O   0  0  0  0  0  0  0  0  0  0  0  0
   47.5320   35.2070   42.1670 N   0  0  0  0  0  0  0  0  0  0  0  0
   48.9200   35.3930   42.3360 C   0  0  0  0  0  0  0  0  0  0  0  0
   49.8560   34.9290   43.0490 N   0  0  0  0  0  0  0  0  0  0  0  0
   49.7160   36.3400   41.5960 N   0  0  0  0  0  0  0  0  0  0  0  0
   49.7590   34.1180   43.6230 H   0  0  0  0  0  0  0  0  0  0  0  0
   40.3097   36.8770   41.3336 H   0  0  0  0  0  0  0  0  0  0  0  0
   39.3324   35.7010   39.3449 H   0  0  0  0  0  0  0  0  0  0  0  0
   41.1173   33.5386   37.5429 H   0  0  0  0  0  0  0  0  0  0  0  0
   38.9877   35.0649   37.8380 H   0  0  0  0  0  0  0  0  0  0  0  0
   38.9914   33.8290   36.5674 H   0  0  0  0  0  0  0  0  0  0  0  0
   37.6046   33.8152   39.2779 H   0  0  0  0  0  0  0  0  0  0  0  0
   36.9773   33.2366   37.7377 H   0  0  0  0  0  0  0  0  0  0  0  0
   38.2007   31.6551   39.7298 H   0  0  0  0  0  0  0  0  0  0  0  0
   37.9561   31.1385   38.0538 H   0  0  0  0  0  0  0  0  0  0  0  0
   40.4157   31.6171   39.3593 H   0  0  0  0  0  0  0  0  0  0  0  0
   40.8284   30.1853   37.7595 H   0  0  0  0  0  0  0  0  0  0  0  0
   39.4998   30.8001   36.7185 H   0  0  0  0  0  0  0  0  0  0  0  0
   41.0957   31.6246   36.7185 H   0  0  0  0  0  0  0  0  0  0  0  0
   46.9636   35.7505   41.5018 H   0  0  0  0  0  0  0  0  0  0  0  0
   50.7269   36.4164   41.7779 H   0  0  0  0  0  0  0  0  0  0  0  0
   49.2738   36.9403   40.8853 H   0  0  0  0  0  0  0  0  0  0  0  0
  1  6  2  0
  2  1  1  0
  3  2  2  0
  3  4  1  0
  4  5  2  0
  5  6  1  0
  5 13  1  0
  7 11  1  0
  7  3  1  0
  8  7  1  0
  8  9  1  0
  9 10  1  0
 11 10  1  0
 12 11  1  0
 13 17  1  0
 13 14  2  0
 14 15  1  0
 16 15  1  0
 16 18  1  0
 17 16  2  0
 18 19  2  0
 20 21  1  0
 20 18  1  0
 21 22  2  0
 22 24  1  0
 23 21  1  0
  1 25  1  0
  2 26  1  0
  7 27  1  6
  8 28  1  0
  8 29  1  0
  9 30  1  0
  9 31  1  0
 10 32  1  0
 10 33  1  0
 11 34  1  1
 12 35  1  0
 12 36  1  0
 12 37  1  0
 20 38  1  0
 23 39  1  0
 23 40  1  0
M  ISO  8  25  14  26  14  27  13  28  13  29  13  30  13  31  13  32  13
M  ISO  5  33  13  34  13  35   8  36   8  37   8
M  END
>  <minimizedAffinity>  (1) 
-6.39404345

>  <minimizedRMSD>  (1) 
0.361769736

$$$$
