
     RDKit          3D

 43 45  0  0  1  0  0  0  0  0999 V2000
   40.8160   35.9530   40.9970 C   0  0  0  0  0  0  0  0  0  0  0  0
   40.2350   35.2930   39.8870 C   0  0  0  0  0  0  0  0  0  0  0  0
   40.8350   34.1160   39.4160 C   0  0  0  0  0  0  0  0  0  0  0  0
   41.9310   33.6490   40.0200 N   0  0  0  0  0  0  0  0  0  0  0  0
   42.4620   34.3090   41.0850 C   0  0  0  0  0  0  0  0  0  0  0  0
   41.9180   35.4460   41.5710 N   0  0  0  0  0  0  0  0  0  0  0  0
   40.2540   33.4100   38.2760 C   0  0  2  0  0  0  0  0  0  0  0  0
   39.0410   33.9990   37.6900 C   0  0  0  0  0  0  0  0  0  0  0  0
   37.8770   33.3360   38.4090 C   0  0  0  0  0  0  0  0  0  0  0  0
   38.3800   31.9590   38.7540 C   0  0  0  0  0  0  0  0  0  0  0  0
   39.8610   31.9870   38.5320 C   0  0  1  0  0  0  0  0  0  0  0  0
   40.2220   31.1220   37.3440 C   0  0  0  0  0  0  0  0  0  0  0  0
   39.1040   30.1750   36.9640 C   0  0  0  0  0  0  0  0  0  0  0  0
   43.6620   33.8230   41.7850 C   0  0  0  0  0  0  0  0  0  0  0  0
   43.9090   32.6730   42.4410 N   0  0  0  0  0  0  0  0  0  0  0  0
   45.1260   32.6760   42.9130 O   0  0  0  0  0  0  0  0  0  0  0  0
   45.7140   33.8110   42.5890 C   0  0  0  0  0  0  0  0  0  0  0  0
   44.7950   34.5300   41.8820 N   0  0  0  0  0  0  0  0  0  0  0  0
   47.0670   34.1580   42.9440 C   0  0  0  0  0  0  0  0  0  0  0  0
   47.6890   33.6330   43.8350 O   0  0  0  0  0  0  0  0  0  0  0  0
   47.5650   35.1730   42.1330 N   0  0  0  0  0  0  0  0  0  0  0  0
   48.9610   35.4000   42.3120 C   0  0  0  0  0  0  0  0  0  0  0  0
   49.8860   34.9230   43.0290 N   0  0  0  0  0  0  0  0  0  0  0  0
   49.7200   36.3750   41.5950 N   0  0  0  0  0  0  0  0  0  0  0  0
   49.8690   33.9530   43.3600 H   0  0  0  0  0  0  0  0  0  0  0  0
   40.3658   36.8777   41.3872 H   0  0  0  0  0  0  0  0  0  0  0  0
   39.3320   35.6950   39.4043 H   0  0  0  0  0  0  0  0  0  0  0  0
   41.1102   33.4920   37.5903 H   0  0  0  0  0  0  0  0  0  0  0  0
   39.0244   35.0866   37.8538 H   0  0  0  0  0  0  0  0  0  0  0  0
   38.9938   33.8371   36.6030 H   0  0  0  0  0  0  0  0  0  0  0  0
   37.6148   33.8935   39.3203 H   0  0  0  0  0  0  0  0  0  0  0  0
   36.9672   33.3058   37.7915 H   0  0  0  0  0  0  0  0  0  0  0  0
   38.1564   31.7237   39.8050 H   0  0  0  0  0  0  0  0  0  0  0  0
   37.8965   31.1890   38.1349 H   0  0  0  0  0  0  0  0  0  0  0  0
   40.3925   31.5955   39.4119 H   0  0  0  0  0  0  0  0  0  0  0  0
   40.4413   31.7736   36.4853 H   0  0  0  0  0  0  0  0  0  0  0  0
   41.0973   30.5163   37.6215 H   0  0  0  0  0  0  0  0  0  0  0  0
   38.6345   29.7773   37.8758 H   0  0  0  0  0  0  0  0  0  0  0  0
   38.3520   30.7151   36.3700 H   0  0  0  0  0  0  0  0  0  0  0  0
   39.5130   29.3444   36.3700 H   0  0  0  0  0  0  0  0  0  0  0  0
   46.9840   35.7063   41.4705 H   0  0  0  0  0  0  0  0  0  0  0  0
   50.7278   36.4809   41.7797 H   0  0  0  0  0  0  0  0  0  0  0  0
   49.2595   36.9721   40.8934 H   0  0  0  0  0  0  0  0  0  0  0  0
  1  6  2  0
  2  1  1  0
  3  2  2  0
  3  4  1  0
  4  5  2  0
  5  6  1  0
  5 14  1  0
  7 11  1  0
  7  3  1  0
  8  7  1  0
  8  9  1  0
  9 10  1  0
 11 10  1  0
 12 11  1  0
 13 12  1  0
 14 18  1  0
 14 15  2  0
 15 16  1  0
 17 16  1  0
 17 19  1  0
 18 17  2  0
 19 20  2  0
 21 22  1  0
 21 19  1  0
 22 23  2  0
 23 25  1  0
 24 22  1  0
  1 26  1  0
  2 27  1  0
  7 28  1  6
  8 29  1  0
  8 30  1  0
  9 31  1  0
  9 32  1  0
 10 33  1  0
 10 34  1  0
 11 35  1  1
 12 36  1  0
 12 37  1  0
 13 38  1  0
 13 39  1  0
 13 40  1  0
 21 41  1  0
 24 42  1  0
 24 43  1  0
M  ISO  8  26  14  27  14  28  13  29  13  30  13  31  13  32  13  33  13
M  ISO  7  34  13  35  13  36   8  37   8  38   8  39   8  40   8
M  END
>  <minimizedAffinity>  (1) 
-6.26554537

>  <minimizedRMSD>  (1) 
0.601889372

$$$$
