
     RDKit          3D

 47 49  0  0  1  0  0  0  0  0999 V2000
   48.2080   32.7180   42.2980 N   0  0  0  0  0  0  0  0  0  0  0  0
   48.7820   31.5090   42.5130 C   0  0  0  0  0  0  0  0  0  0  0  0
   50.2760   31.4350   42.2570 C   0  0  0  0  0  0  0  0  0  0  0  0
   51.0430   32.6900   42.3000 C   0  0  0  0  0  0  0  0  0  0  0  0
   50.2030   33.9240   42.3340 C   0  0  0  0  0  0  0  0  0  0  0  0
   48.9450   33.6710   41.5740 C   0  0  2  0  0  0  0  0  0  0  0  0
   47.5670   33.2470   43.4170 C   0  0  0  0  0  0  0  0  0  0  0  0
   46.3400   32.5970   43.8450 C   0  0  1  0  0  0  0  0  0  0  0  0
   46.7610   32.9390   46.3360 C   0  0  0  0  0  0  0  0  0  0  0  0
   46.4730   32.1100   45.2200 C   0  0  0  0  0  0  0  0  0  0  0  0
   46.2980   30.7360   45.4510 C   0  0  0  0  0  0  0  0  0  0  0  0
   46.4080   30.2610   46.7050 N   0  0  0  0  0  0  0  0  0  0  0  0
   46.6840   31.0840   47.7500 C   0  0  0  0  0  0  0  0  0  0  0  0
   46.8630   32.4410   47.5630 N   0  0  0  0  0  0  0  0  0  0  0  0
   45.1810   33.5500   43.7200 C   0  0  0  0  0  0  0  0  0  0  0  0
   45.6330   34.9950   43.7430 C   0  0  0  0  0  0  0  0  0  0  0  0
   44.6340   35.9340   44.4950 C   0  0  0  0  0  0  0  0  0  0  0  0
   44.9290   36.0720   43.0530 C   0  0  0  0  0  0  0  0  0  0  0  0
   48.2610   34.9770   41.4040 C   0  0  0  0  0  0  0  0  0  0  0  0
   49.1440   36.1760   41.5620 C   0  0  0  0  0  0  0  0  0  0  0  0
   48.6049   31.2327   43.5629 H   0  0  0  0  0  0  0  0  0  0  0  0
   48.3192   30.8240   41.7873 H   0  0  0  0  0  0  0  0  0  0  0  0
   50.4162   30.9991   41.2568 H   0  0  0  0  0  0  0  0  0  0  0  0
   50.6711   30.8404   43.0939 H   0  0  0  0  0  0  0  0  0  0  0  0
   51.6732   32.6776   43.2015 H   0  0  0  0  0  0  0  0  0  0  0  0
   51.6278   32.7332   41.3693 H   0  0  0  0  0  0  0  0  0  0  0  0
   49.9603   34.1773   43.3766 H   0  0  0  0  0  0  0  0  0  0  0  0
   50.7518   34.7620   41.8794 H   0  0  0  0  0  0  0  0  0  0  0  0
   49.1020   33.2594   40.5660 H   0  0  0  0  0  0  0  0  0  0  0  0
   48.2759   33.2029   44.2569 H   0  0  0  0  0  0  0  0  0  0  0  0
   47.2630   34.2611   43.1184 H   0  0  0  0  0  0  0  0  0  0  0  0
   46.1482   31.7306   43.1949 H   0  0  0  0  0  0  0  0  0  0  0  0
   46.9029   34.0187   46.1808 H   0  0  0  0  0  0  0  0  0  0  0  0
   46.0735   30.0558   44.6162 H   0  0  0  0  0  0  0  0  0  0  0  0
   46.7664   30.6625   48.7627 H   0  0  0  0  0  0  0  0  0  0  0  0
   44.4892   33.3804   44.5582 H   0  0  0  0  0  0  0  0  0  0  0  0
   44.6880   33.3624   42.7547 H   0  0  0  0  0  0  0  0  0  0  0  0
   46.6948   34.7079   43.7481 H   0  0  0  0  0  0  0  0  0  0  0  0
   43.6574   35.5547   44.8303 H   0  0  0  0  0  0  0  0  0  0  0  0
   44.6719   36.5879   45.3787 H   0  0  0  0  0  0  0  0  0  0  0  0
   45.4962   36.9465   42.7015 H   0  0  0  0  0  0  0  0  0  0  0  0
   44.2940   36.1007   42.1553 H   0  0  0  0  0  0  0  0  0  0  0  0
   47.4583   35.0425   42.1533 H   0  0  0  0  0  0  0  0  0  0  0  0
   47.8921   34.9997   40.3680 H   0  0  0  0  0  0  0  0  0  0  0  0
   49.2953   36.3815   42.6320 H   0  0  0  0  0  0  0  0  0  0  0  0
   50.1159   35.9811   41.0850 H   0  0  0  0  0  0  0  0  0  0  0  0
   48.6695   37.0462   41.0850 H   0  0  0  0  0  0  0  0  0  0  0  0
  1  2  1  0
  1  7  1  0
  3  4  1  0
  3  2  1  0
  4  5  1  0
  6  1  1  0
  6  5  1  0
  7  8  1  0
  8 10  1  0
  9 14  2  0
 10 11  2  0
 10  9  1  0
 11 12  1  0
 12 13  2  0
 14 13  1  0
 15 16  1  0
 15  8  1  0
 16 17  1  0
 18 16  1  0
 18 17  1  0
 19 20  1  0
 19  6  1  0
  2 21  1  0
  2 22  1  0
  3 23  1  0
  3 24  1  0
  4 25  1  0
  4 26  1  0
  5 27  1  0
  5 28  1  0
  6 29  1  6
  7 30  1  0
  7 31  1  0
  8 32  1  6
  9 33  1  0
 11 34  1  0
 13 35  1  0
 15 36  1  0
 15 37  1  0
 16 38  1  0
 17 39  1  0
 17 40  1  0
 18 41  1  0
 18 42  1  0
 19 43  1  0
 19 44  1  0
 20 45  1  0
 20 46  1  0
 20 47  1  0
M  ISO  8  21  13  22  13  23  13  24  13  25  13  26  13  27  13  28  13
M  ISO  8  29  13  30   8  31   8  32   8  33  14  34  14  35  14  36   8
M  ISO  8  37   8  38  13  39  13  40  13  41  13  42  13  43   8  44   8
M  ISO  3  45   8  46   8  47   8
M  END
>  <minimizedAffinity>  (1) 
-5.02117825

>  <minimizedRMSD>  (1) 
2.6107893

$$$$
