
     RDKit          3D

 17 18  0  0  0  0  0  0  0  0999 V2000
   45.5030   34.0780   44.6750 C   0  0  0  0  0  0  0  0  0  0  0  0
   46.4650   33.3520   43.9360 C   0  0  0  0  0  0  0  0  0  0  0  0
   47.2530   32.4270   44.6280 C   0  0  0  0  0  0  0  0  0  0  0  0
   47.0570   32.2730   45.9630 N   0  0  0  0  0  0  0  0  0  0  0  0
   46.1240   32.9890   46.6340 C   0  0  0  0  0  0  0  0  0  0  0  0
   45.3600   33.8800   45.9890 N   0  0  0  0  0  0  0  0  0  0  0  0
   44.6670   35.0640   43.9260 C   0  0  0  0  0  0  0  0  0  0  0  0
   44.8260   36.5260   44.2310 C   0  0  0  0  0  0  0  0  0  0  0  0
   45.2900   35.9940   42.9500 C   0  0  0  0  0  0  0  0  0  0  0  0
   46.5893   33.5093   42.8544 H   0  0  0  0  0  0  0  0  0  0  0  0
   48.0166   31.8357   44.1014 H   0  0  0  0  0  0  0  0  0  0  0  0
   45.9927   32.8379   47.7156 H   0  0  0  0  0  0  0  0  0  0  0  0
   43.8360   34.3442   43.8898 H   0  0  0  0  0  0  0  0  0  0  0  0
   43.9418   37.1794   44.2670 H   0  0  0  0  0  0  0  0  0  0  0  0
   45.2871   37.1044   45.0452 H   0  0  0  0  0  0  0  0  0  0  0  0
   46.3685   35.9281   42.7441 H   0  0  0  0  0  0  0  0  0  0  0  0
   45.0992   36.2464   41.8965 H   0  0  0  0  0  0  0  0  0  0  0  0
  1  6  2  0
  2  3  2  0
  2  1  1  0
  3  4  1  0
  4  5  2  0
  6  5  1  0
  7  8  1  0
  7  1  1  0
  9  7  1  0
  9  8  1  0
  2 10  1  0
  3 11  1  0
  5 12  1  0
  7 13  1  0
  8 14  1  0
  8 15  1  0
  9 16  1  0
  9 17  1  0
M  ISO  8  10  14  11  14  12  14  13  13  14  13  15  13  16  13  17  13
M  END
>  <minimizedAffinity>  (1) 
-2.99665332

>  <minimizedRMSD>  (1) 
2.27284837

$$$$
