
     RDKit          3D

 31 34  0  0  1  0  0  0  0  0999 V2000
   45.7390   35.0340   43.5420 C   0  0  1  0  0  0  0  0  0  0  0  0
   45.0300   36.2960   43.1050 C   0  0  0  0  0  0  0  0  0  0  0  0
   44.4190   34.9860   42.9160 C   0  0  1  0  0  0  0  0  0  0  0  0
   44.1120   34.5760   41.5470 C   0  0  0  0  0  0  0  0  0  0  0  0
   45.0060   33.8480   40.8390 N   0  0  0  0  0  0  0  0  0  0  0  0
   44.7900   33.4310   39.5820 C   0  0  0  0  0  0  0  0  0  0  0  0
   43.6340   33.7290   38.9450 N   0  0  0  0  0  0  0  0  0  0  0  0
   42.6650   34.4520   39.5560 C   0  0  0  0  0  0  0  0  0  0  0  0
   41.4700   34.7870   38.9520 C   0  0  0  0  0  0  0  0  0  0  0  0
   40.5240   35.5380   39.6440 C   0  0  0  0  0  0  0  0  0  0  0  0
   40.7660   35.9630   40.9510 C   0  0  0  0  0  0  0  0  0  0  0  0
   41.9810   35.5960   41.5000 C   0  0  0  0  0  0  0  0  0  0  0  0
   42.9560   34.8420   40.8350 C   0  0  0  0  0  0  0  0  0  0  0  0
   46.9940   34.6700   42.8460 C   0  0  0  0  0  0  0  0  0  0  0  0
   47.5420   33.4330   43.2110 C   0  0  0  0  0  0  0  0  0  0  0  0
   48.7130   32.9880   42.6160 C   0  0  0  0  0  0  0  0  0  0  0  0
   49.2770   33.8130   41.6810 N   0  0  0  0  0  0  0  0  0  0  0  0
   48.7410   34.9970   41.3390 C   0  0  0  0  0  0  0  0  0  0  0  0
   47.6130   35.4080   41.9230 N   0  0  0  0  0  0  0  0  0  0  0  0
   46.1474   34.6009   44.4670 H   0  0  0  0  0  0  0  0  0  0  0  0
   44.6261   36.9914   43.8555 H   0  0  0  0  0  0  0  0  0  0  0  0
   45.2756   37.1479   42.4538 H   0  0  0  0  0  0  0  0  0  0  0  0
   43.5082   34.4529   43.2261 H   0  0  0  0  0  0  0  0  0  0  0  0
   45.5605   32.8409   39.0642 H   0  0  0  0  0  0  0  0  0  0  0  0
   41.2648   34.4600   37.9220 H   0  0  0  0  0  0  0  0  0  0  0  0
   39.5742   35.7996   39.1547 H   0  0  0  0  0  0  0  0  0  0  0  0
   40.0308   36.5572   41.5135 H   0  0  0  0  0  0  0  0  0  0  0  0
   42.1964   35.9183   42.5294 H   0  0  0  0  0  0  0  0  0  0  0  0
   47.0425   32.8139   43.9707 H   0  0  0  0  0  0  0  0  0  0  0  0
   49.1654   32.0213   42.8820 H   0  0  0  0  0  0  0  0  0  0  0  0
   49.2302   35.6255   40.5803 H   0  0  0  0  0  0  0  0  0  0  0  0
  2  1  1  0
  3  2  1  0
  3  1  1  0
  4  3  1  0
  5  4  2  0
  6  5  1  0
  7  8  1  0
  7  6  2  0
  8 13  2  0
  9  8  1  0
  9 10  2  0
 10 11  1  0
 11 12  2  0
 13 12  1  0
 13  4  1  0
 14 15  2  0
 14  1  1  0
 16 15  1  0
 17 16  2  0
 18 17  1  0
 18 19  2  0
 19 14  1  0
  1 20  1  1
  2 21  1  0
  2 22  1  0
  3 23  1  1
  6 24  1  0
  9 25  1  0
 10 26  1  0
 11 27  1  0
 12 28  1  0
 15 29  1  0
 16 30  1  0
 18 31  1  0
M  ISO  8  20  13  21  13  22  13  23  13  24  14  25  14  26  14  27  14
M  ISO  4  28  14  29  14  30  14  31  14
M  END
>  <minimizedAffinity>  (1) 
-5.58274746

>  <minimizedRMSD>  (1) 
5.5245223

$$$$
