
     RDKit          3D

 33 36  0  0  1  0  0  0  0  0999 V2000
   44.6470   34.4490   44.0240 C   0  0  1  0  0  0  0  0  0  0  0  0
   45.0420   35.9110   44.0000 C   0  0  0  0  0  0  0  0  0  0  0  0
   44.9960   35.1170   42.7800 C   0  0  1  0  0  0  0  0  0  0  0  0
   46.2200   34.9990   42.0040 C   0  0  0  0  0  0  0  0  0  0  0  0
   47.4250   35.5540   42.3800 C   0  0  0  0  0  0  0  0  0  0  0  0
   48.6100   35.4690   41.6810 C   0  0  0  0  0  0  0  0  0  0  0  0
   48.6190   34.7690   40.4940 C   0  0  0  0  0  0  0  0  0  0  0  0
   47.4720   34.1700   40.0190 C   0  0  0  0  0  0  0  0  0  0  0  0
   47.4090   33.4580   38.8410 C   0  0  0  0  0  0  0  0  0  0  0  0
   46.2570   32.8660   38.3750 C   0  0  0  0  0  0  0  0  0  0  0  0
   45.1200   32.9850   39.1060 C   0  0  0  0  0  0  0  0  0  0  0  0
   45.1830   33.6980   40.2840 C   0  0  0  0  0  0  0  0  0  0  0  0
   46.3370   34.3110   40.7880 C   0  0  0  0  0  0  0  0  0  0  0  0
   45.5300   33.5010   44.7440 C   0  0  0  0  0  0  0  0  0  0  0  0
   45.9310   32.3650   43.9890 C   0  0  0  0  0  0  0  0  0  0  0  0
   46.7690   31.4400   44.5810 C   0  0  0  0  0  0  0  0  0  0  0  0
   47.1770   31.6560   45.8700 N   0  0  0  0  0  0  0  0  0  0  0  0
   46.7740   32.7430   46.5490 C   0  0  0  0  0  0  0  0  0  0  0  0
   45.9560   33.6580   45.9900 N   0  0  0  0  0  0  0  0  0  0  0  0
   43.7870   33.8334   44.3262 H   0  0  0  0  0  0  0  0  0  0  0  0
   44.2884   36.6914   44.1817 H   0  0  0  0  0  0  0  0  0  0  0  0
   45.7970   36.5297   44.5072 H   0  0  0  0  0  0  0  0  0  0  0  0
   44.4686   35.1130   41.8147 H   0  0  0  0  0  0  0  0  0  0  0  0
   47.4422   36.1166   43.3251 H   0  0  0  0  0  0  0  0  0  0  0  0
   49.5247   35.9475   42.0608 H   0  0  0  0  0  0  0  0  0  0  0  0
   49.5529   34.6873   39.9185 H   0  0  0  0  0  0  0  0  0  0  0  0
   48.3263   33.3575   38.2423 H   0  0  0  0  0  0  0  0  0  0  0  0
   46.2581   32.3069   37.4277 H   0  0  0  0  0  0  0  0  0  0  0  0
   44.1782   32.5271   38.7693 H   0  0  0  0  0  0  0  0  0  0  0  0
   44.2581   33.7926   40.8719 H   0  0  0  0  0  0  0  0  0  0  0  0
   45.5814   32.2256   42.9554 H   0  0  0  0  0  0  0  0  0  0  0  0
   47.1014   30.5488   44.0285 H   0  0  0  0  0  0  0  0  0  0  0  0
   47.1187   32.8898   47.5832 H   0  0  0  0  0  0  0  0  0  0  0  0
  1 14  1  0
  2  1  1  0
  3  2  1  0
  3  1  1  0
  4  5  2  0
  4  3  1  0
  6  5  1  0
  7  6  2  0
  8  7  1  0
  8 13  2  0
  9  8  1  0
 10  9  2  0
 10 11  1  0
 11 12  2  0
 12 13  1  0
 13  4  1  0
 14 19  2  0
 15 16  2  0
 15 14  1  0
 16 17  1  0
 17 18  2  0
 19 18  1  0
  1 20  1  6
  2 21  1  0
  2 22  1  0
  3 23  1  6
  5 24  1  0
  6 25  1  0
  7 26  1  0
  9 27  1  0
 10 28  1  0
 11 29  1  0
 12 30  1  0
 15 31  1  0
 16 32  1  0
 18 33  1  0
M  ISO  8  20  13  21  13  22  13  23  13  24  14  25  14  26  14  27  14
M  ISO  6  28  14  29  14  30  14  31  14  32  14  33  14
M  END
>  <minimizedAffinity>  (1) 
-5.2790308

>  <minimizedRMSD>  (1) 
2.00483346

$$$$
