
     RDKit          3D

 27 29  0  0  1  0  0  0  0  0999 V2000
   45.0410   33.2530   41.7820 C   0  0  1  0  0  0  0  0  0  0  0  0
   45.3330   34.0430   40.5320 C   0  0  0  0  0  0  0  0  0  0  0  0
   46.3210   33.1230   41.0690 C   0  0  1  0  0  0  0  0  0  0  0  0
   44.9720   33.9700   43.0970 C   0  0  0  0  0  0  0  0  0  0  0  0
   45.4460   33.2870   44.2550 C   0  0  0  0  0  0  0  0  0  0  0  0
   45.3830   33.9760   45.4560 C   0  0  0  0  0  0  0  0  0  0  0  0
   44.8870   35.2300   45.4650 N   0  0  0  0  0  0  0  0  0  0  0  0
   44.4470   35.8450   44.3470 C   0  0  0  0  0  0  0  0  0  0  0  0
   44.4920   35.2110   43.1680 N   0  0  0  0  0  0  0  0  0  0  0  0
   47.5780   33.7730   41.5520 C   0  0  0  0  0  0  0  0  0  0  0  0
   48.5450   33.1730   42.3390 C   0  0  0  0  0  0  0  0  0  0  0  0
   49.6710   33.8700   42.7260 C   0  0  0  0  0  0  0  0  0  0  0  0
   49.8890   35.1790   42.3560 C   0  0  0  0  0  0  0  0  0  0  0  0
   48.9660   35.8220   41.5780 C   0  0  0  0  0  0  0  0  0  0  0  0
   47.8530   35.1020   41.2080 C   0  0  0  0  0  0  0  0  0  0  0  0
   44.2613   32.5529   42.1167 H   0  0  0  0  0  0  0  0  0  0  0  0
   45.5003   35.1285   40.5925 H   0  0  0  0  0  0  0  0  0  0  0  0
   44.8375   34.1753   39.5589 H   0  0  0  0  0  0  0  0  0  0  0  0
   46.8685   32.2308   40.7309 H   0  0  0  0  0  0  0  0  0  0  0  0
   45.8426   32.2626   44.1982 H   0  0  0  0  0  0  0  0  0  0  0  0
   45.7323   33.5070   46.3877 H   0  0  0  0  0  0  0  0  0  0  0  0
   44.0505   36.8694   44.4043 H   0  0  0  0  0  0  0  0  0  0  0  0
   48.4146   32.1289   42.6596 H   0  0  0  0  0  0  0  0  0  0  0  0
   50.4205   33.3631   43.3515 H   0  0  0  0  0  0  0  0  0  0  0  0
   50.7988   35.7032   42.6839 H   0  0  0  0  0  0  0  0  0  0  0  0
   49.1068   36.8664   41.2626 H   0  0  0  0  0  0  0  0  0  0  0  0
   47.1098   35.6192   40.5834 H   0  0  0  0  0  0  0  0  0  0  0  0
  1  4  1  0
  2  3  1  0
  2  1  1  0
  3 10  1  0
  3  1  1  0
  4  9  1  0
  4  5  2  0
  5  6  1  0
  6  7  2  0
  8  7  1  0
  9  8  2  0
 10 11  2  0
 11 12  1  0
 13 12  2  0
 14 13  1  0
 15 10  1  0
 15 14  2  0
  1 16  1  6
  2 17  1  0
  2 18  1  0
  3 19  1  6
  5 20  1  0
  6 21  1  0
  8 22  1  0
 11 23  1  0
 12 24  1  0
 13 25  1  0
 14 26  1  0
 15 27  1  0
M  ISO  8  16  13  17  13  18  13  19  13  20  14  21  14  22  14  23  14
M  ISO  4  24  14  25  14  26  14  27  14
M  END
>  <minimizedAffinity>  (1) 
-5.00638914

>  <minimizedRMSD>  (1) 
2.76388931

$$$$
