
     RDKit          3D

 30 32  0  0  1  0  0  0  0  0999 V2000
   44.4220   34.7150   44.3520 C   0  0  1  0  0  0  0  0  0  0  0  0
   44.8810   36.1500   44.3270 C   0  0  0  0  0  0  0  0  0  0  0  0
   44.6740   35.4210   43.0950 C   0  0  1  0  0  0  0  0  0  0  0  0
   45.6600   35.0660   42.1320 N   0  0  0  0  0  0  0  0  0  0  0  0
   46.9710   35.3500   42.2840 C   0  0  0  0  0  0  0  0  0  0  0  0
   47.9490   35.0270   41.3860 C   0  0  0  0  0  0  0  0  0  0  0  0
   49.3810   35.3970   41.6630 C   0  0  0  0  0  0  0  0  0  0  0  0
   47.6280   34.3590   40.2200 C   0  0  0  0  0  0  0  0  0  0  0  0
   48.5640   34.0940   39.4470 O   0  0  0  0  0  0  0  0  0  0  0  0
   46.3260   34.0640   40.0470 N   0  0  0  0  0  0  0  0  0  0  0  0
   45.4170   34.4150   40.9780 C   0  0  0  0  0  0  0  0  0  0  0  0
   44.2370   34.0800   40.6930 O   0  0  0  0  0  0  0  0  0  0  0  0
   45.3300   33.6680   44.8640 C   0  0  0  0  0  0  0  0  0  0  0  0
   45.5020   32.5120   44.0590 C   0  0  0  0  0  0  0  0  0  0  0  0
   46.3500   31.5220   44.5290 C   0  0  0  0  0  0  0  0  0  0  0  0
   46.9620   31.7070   45.7170 N   0  0  0  0  0  0  0  0  0  0  0  0
   46.7830   32.8110   46.4620 C   0  0  0  0  0  0  0  0  0  0  0  0
   45.9660   33.7870   46.0300 N   0  0  0  0  0  0  0  0  0  0  0  0
   43.5727   34.1500   44.7636 H   0  0  0  0  0  0  0  0  0  0  0  0
   44.1893   36.9556   44.6143 H   0  0  0  0  0  0  0  0  0  0  0  0
   45.7157   36.7114   44.7721 H   0  0  0  0  0  0  0  0  0  0  0  0
   44.0898   35.6215   42.1848 H   0  0  0  0  0  0  0  0  0  0  0  0
   47.2744   35.8807   43.1985 H   0  0  0  0  0  0  0  0  0  0  0  0
   49.5451   35.4394   42.7499 H   0  0  0  0  0  0  0  0  0  0  0  0
   50.0470   34.6415   41.2208 H   0  0  0  0  0  0  0  0  0  0  0  0
   49.5977   36.3806   41.2208 H   0  0  0  0  0  0  0  0  0  0  0  0
   46.0225   33.5668   39.1975 H   0  0  0  0  0  0  0  0  0  0  0  0
   44.9807   32.4056   43.0962 H   0  0  0  0  0  0  0  0  0  0  0  0
   46.5205   30.6049   43.9460 H   0  0  0  0  0  0  0  0  0  0  0  0
   47.3047   32.9159   47.4247 H   0  0  0  0  0  0  0  0  0  0  0  0
  1 13  1  0
  2  1  1  0
  3  2  1  0
  3  1  1  0
  4  5  1  0
  4  3  1  0
  6  7  1  0
  6  5  2  0
  8  6  1  0
  9  8  2  0
 10  8  1  0
 10 11  1  0
 11  4  1  0
 12 11  2  0
 13 18  2  0
 14 15  2  0
 14 13  1  0
 15 16  1  0
 16 17  2  0
 18 17  1  0
  1 19  1  6
  2 20  1  0
  2 21  1  0
  3 22  1  6
  5 23  1  0
  7 24  1  0
  7 25  1  0
  7 26  1  0
 10 27  1  0
 14 28  1  0
 15 29  1  0
 17 30  1  0
M  ISO  8  19  13  20  13  21  13  22  13  23  14  24   8  25   8  26   8
M  ISO  4  27   9  28  14  29  14  30  14
M  END
>  <minimizedAffinity>  (1) 
-4.73032618

>  <minimizedRMSD>  (1) 
1.77806377

$$$$
