
     RDKit          3D

 27 29  0  0  1  0  0  0  0  0999 V2000
   44.6790   34.7200   43.5920 C   0  0  1  0  0  0  0  0  0  0  0  0
   45.2550   36.0250   43.0950 C   0  0  0  0  0  0  0  0  0  0  0  0
   45.0740   34.8940   42.1870 C   0  0  2  0  0  0  0  0  0  0  0  0
   45.4850   33.8850   44.5140 C   0  0  0  0  0  0  0  0  0  0  0  0
   46.4250   32.9860   43.9420 C   0  0  0  0  0  0  0  0  0  0  0  0
   47.2010   32.1920   44.7920 C   0  0  0  0  0  0  0  0  0  0  0  0
   47.0220   32.3180   46.1240 N   0  0  0  0  0  0  0  0  0  0  0  0
   46.1060   33.1960   46.6300 C   0  0  0  0  0  0  0  0  0  0  0  0
   45.3510   33.9680   45.8300 N   0  0  0  0  0  0  0  0  0  0  0  0
   44.0940   34.8470   41.1440 N   0  0  0  0  0  0  0  0  0  0  0  0
   42.8840   35.4590   41.2170 C   0  0  0  0  0  0  0  0  0  0  0  0
   41.9370   35.4170   40.2150 C   0  0  0  0  0  0  0  0  0  0  0  0
   42.1980   34.7170   39.0490 C   0  0  0  0  0  0  0  0  0  0  0  0
   41.3180   34.7040   38.1730 O   0  0  0  0  0  0  0  0  0  0  0  0
   43.4030   34.1120   38.9870 N   0  0  0  0  0  0  0  0  0  0  0  0
   44.2940   34.1820   39.9900 C   0  0  0  0  0  0  0  0  0  0  0  0
   45.3600   33.5690   39.7780 O   0  0  0  0  0  0  0  0  0  0  0  0
   43.7596   34.3974   44.1025 H   0  0  0  0  0  0  0  0  0  0  0  0
   44.6126   36.9134   43.0052 H   0  0  0  0  0  0  0  0  0  0  0  0
   46.0990   36.6682   43.3847 H   0  0  0  0  0  0  0  0  0  0  0  0
   45.7547   34.3829   41.4903 H   0  0  0  0  0  0  0  0  0  0  0  0
   46.5401   32.9159   42.8503 H   0  0  0  0  0  0  0  0  0  0  0  0
   47.9379   31.4834   44.3860 H   0  0  0  0  0  0  0  0  0  0  0  0
   45.9832   33.2731   47.7204 H   0  0  0  0  0  0  0  0  0  0  0  0
   42.6445   36.0225   42.1308 H   0  0  0  0  0  0  0  0  0  0  0  0
   40.9767   35.9383   40.3418 H   0  0  0  0  0  0  0  0  0  0  0  0
   43.6480   33.5779   38.1410 H   0  0  0  0  0  0  0  0  0  0  0  0
  1  4  1  0
  2  1  1  0
  3  2  1  0
  3  1  1  0
  4  9  1  0
  5  4  2  0
  5  6  1  0
  6  7  2  0
  7  8  1  0
  9  8  2  0
 10 11  1  0
 10  3  1  0
 12 11  2  0
 13 12  1  0
 14 13  2  0
 15 13  1  0
 15 16  1  0
 16 10  1  0
 17 16  2  0
  1 18  1  6
  2 19  1  0
  2 20  1  0
  3 21  1  6
  5 22  1  0
  6 23  1  0
  8 24  1  0
 11 25  1  0
 12 26  1  0
 15 27  1  0
M  ISO  8  18  13  19  13  20  13  21  13  22  14  23  14  24  14  25  14
M  ISO  2  26  14  27   9
M  END
>  <minimizedAffinity>  (1) 
-4.5207386

>  <minimizedRMSD>  (1) 
1.46107221

$$$$
