
     RDKit          3D

 28 31  0  0  1  0  0  0  0  0999 V2000
   40.1730   34.8510   39.2440 C   0  0  1  0  0  0  0  0  0  0  0  0
   40.8820   35.9790   39.9520 C   0  0  0  0  0  0  0  0  0  0  0  0
   41.5100   35.2570   38.8300 C   0  0  1  0  0  0  0  0  0  0  0  0
   42.7090   34.5370   39.2010 N   0  0  0  0  0  0  0  0  0  0  0  0
   43.2990   33.5130   38.5390 C   0  0  0  0  0  0  0  0  0  0  0  0
   44.4120   33.1140   39.2250 N   0  0  0  0  0  0  0  0  0  0  0  0
   44.5300   33.8860   40.3240 C   0  0  0  0  0  0  0  0  0  0  0  0
   45.4670   33.9070   41.3500 C   0  0  0  0  0  0  0  0  0  0  0  0
   45.3340   34.8000   42.3340 N   0  0  0  0  0  0  0  0  0  0  0  0
   44.2980   35.6730   42.3280 C   0  0  0  0  0  0  0  0  0  0  0  0
   43.3820   35.6550   41.3280 N   0  0  0  0  0  0  0  0  0  0  0  0
   43.4760   34.7670   40.3080 C   0  0  0  0  0  0  0  0  0  0  0  0
   39.9330   33.5720   39.9610 C   0  0  0  0  0  0  0  0  0  0  0  0
   40.0000   33.5490   41.3820 C   0  0  0  0  0  0  0  0  0  0  0  0
   39.7580   32.3400   42.0120 C   0  0  0  0  0  0  0  0  0  0  0  0
   39.4750   31.2540   41.2650 N   0  0  0  0  0  0  0  0  0  0  0  0
   39.4180   31.3020   39.9180 C   0  0  0  0  0  0  0  0  0  0  0  0
   39.6500   32.4690   39.2770 N   0  0  0  0  0  0  0  0  0  0  0  0
   39.2137   34.7216   38.7215 H   0  0  0  0  0  0  0  0  0  0  0  0
   40.5407   37.0166   39.8217 H   0  0  0  0  0  0  0  0  0  0  0  0
   41.1555   36.2060   40.9930 H   0  0  0  0  0  0  0  0  0  0  0  0
   41.9063   35.4777   37.8279 H   0  0  0  0  0  0  0  0  0  0  0  0
   42.9392   33.0720   37.5977 H   0  0  0  0  0  0  0  0  0  0  0  0
   46.3074   33.1972   41.3516 H   0  0  0  0  0  0  0  0  0  0  0  0
   44.1987   36.4046   43.1434 H   0  0  0  0  0  0  0  0  0  0  0  0
   40.2349   34.4564   41.9577 H   0  0  0  0  0  0  0  0  0  0  0  0
   39.7962   32.2665   43.1089 H   0  0  0  0  0  0  0  0  0  0  0  0
   39.1834   30.3940   39.3431 H   0  0  0  0  0  0  0  0  0  0  0  0
  1  2  1  0
  1 13  1  0
  3  4  1  0
  3  1  1  0
  3  2  1  0
  4 12  1  0
  5  4  1  0
  5  6  2  0
  6  7  1  0
  7  8  2  0
  8  9  1  0
 10  9  2  0
 11 10  1  0
 12  7  1  0
 12 11  2  0
 13 14  2  0
 14 15  1  0
 16 15  2  0
 17 16  1  0
 18 17  2  0
 18 13  1  0
  1 19  1  6
  2 20  1  0
  2 21  1  0
  3 22  1  6
  5 23  1  0
  8 24  1  0
 10 25  1  0
 14 26  1  0
 15 27  1  0
 17 28  1  0
M  ISO  8  19  13  20  13  21  13  22  13  23  14  24  14  25  14  26  14
M  ISO  2  27  14  28  14
M  END
>  <minimizedAffinity>  (1) 
-4.51165628

>  <minimizedRMSD>  (1) 
6.6149478

$$$$
