
     RDKit          3D

 30 32  0  0  1  0  0  0  0  0999 V2000
   44.5820   35.0210   43.6040 C   0  0  1  0  0  0  0  0  0  0  0  0
   45.1770   36.3390   43.1410 C   0  0  0  0  0  0  0  0  0  0  0  0
   44.8800   35.2580   42.1870 C   0  0  2  0  0  0  0  0  0  0  0  0
   45.4280   34.1170   44.4310 C   0  0  0  0  0  0  0  0  0  0  0  0
   46.3920   33.3010   43.7760 C   0  0  0  0  0  0  0  0  0  0  0  0
   47.1890   32.4580   44.5350 C   0  0  0  0  0  0  0  0  0  0  0  0
   47.0070   32.4540   45.8710 N   0  0  0  0  0  0  0  0  0  0  0  0
   46.0740   33.2470   46.4730 C   0  0  0  0  0  0  0  0  0  0  0  0
   45.2920   34.0730   45.7450 N   0  0  0  0  0  0  0  0  0  0  0  0
   43.8260   35.3960   41.1460 C   0  0  0  0  0  0  0  0  0  0  0  0
   43.7450   34.2920   40.1450 C   0  0  0  0  0  0  0  0  0  0  0  0
   42.3610   34.5610   39.5400 C   0  0  0  0  0  0  0  0  0  0  0  0
   41.5290   34.8420   40.7730 C   0  0  0  0  0  0  0  0  0  0  0  0
   42.4650   35.4110   41.8190 C   0  0  0  0  0  0  0  0  0  0  0  0
   43.6868   34.6959   44.1544 H   0  0  0  0  0  0  0  0  0  0  0  0
   44.5670   37.2543   43.1477 H   0  0  0  0  0  0  0  0  0  0  0  0
   46.0645   36.9344   43.4015 H   0  0  0  0  0  0  0  0  0  0  0  0
   45.4648   34.7096   41.4338 H   0  0  0  0  0  0  0  0  0  0  0  0
   46.5034   33.3385   42.6823 H   0  0  0  0  0  0  0  0  0  0  0  0
   47.9451   31.8135   44.0628 H   0  0  0  0  0  0  0  0  0  0  0  0
   45.9572   33.2130   47.5663 H   0  0  0  0  0  0  0  0  0  0  0  0
   44.0982   36.3203   40.6154 H   0  0  0  0  0  0  0  0  0  0  0  0
   44.5404   34.3704   39.3892 H   0  0  0  0  0  0  0  0  0  0  0  0
   43.8725   33.2834   40.5650 H   0  0  0  0  0  0  0  0  0  0  0  0
   42.3816   35.4293   38.8651 H   0  0  0  0  0  0  0  0  0  0  0  0
   41.9772   33.7341   38.9245 H   0  0  0  0  0  0  0  0  0  0  0  0
   40.7386   35.5698   40.5375 H   0  0  0  0  0  0  0  0  0  0  0  0
   41.0450   33.9239   41.1374 H   0  0  0  0  0  0  0  0  0  0  0  0
   42.4691   34.7831   42.7222 H   0  0  0  0  0  0  0  0  0  0  0  0
   42.1680   36.4177   42.1482 H   0  0  0  0  0  0  0  0  0  0  0  0
  1  4  1  0
  2  1  1  0
  3  2  1  0
  3  1  1  0
  4  9  1  0
  5  4  2  0
  5  6  1  0
  6  7  2  0
  7  8  1  0
  9  8  2  0
 10 14  1  0
 10  3  1  0
 11 10  1  0
 12 11  1  0
 12 13  1  0
 13 14  1  0
  1 15  1  6
  2 16  1  0
  2 17  1  0
  3 18  1  6
  5 19  1  0
  6 20  1  0
  8 21  1  0
 10 22  1  0
 11 23  1  0
 11 24  1  0
 12 25  1  0
 12 26  1  0
 13 27  1  0
 13 28  1  0
 14 29  1  0
 14 30  1  0
M  ISO  8  15  13  16  13  17  13  18  13  19  14  20  14  21  14  22  13
M  ISO  8  23  13  24  13  25  13  26  13  27  13  28  13  29  13  30  13
M  END
>  <minimizedAffinity>  (1) 
-4.26193428

>  <minimizedRMSD>  (1) 
1.14035344

$$$$
