
     RDKit          3D

 25 27  0  0  1  0  0  0  0  0999 V2000
   45.0490   34.1400   42.8010 C   0  0  1  0  0  0  0  0  0  0  0  0
   45.5130   35.5650   42.6260 C   0  0  0  0  0  0  0  0  0  0  0  0
   46.0150   34.5170   41.7560 C   0  0  1  0  0  0  0  0  0  0  0  0
   45.4460   33.4050   44.0240 C   0  0  0  0  0  0  0  0  0  0  0  0
   45.5680   31.9920   43.8990 C   0  0  0  0  0  0  0  0  0  0  0  0
   45.9540   31.2520   45.0300 C   0  0  0  0  0  0  0  0  0  0  0  0
   46.1910   31.9360   46.1870 N   0  0  0  0  0  0  0  0  0  0  0  0
   46.0590   33.2920   46.2520 C   0  0  0  0  0  0  0  0  0  0  0  0
   45.6930   33.9990   45.1820 N   0  0  0  0  0  0  0  0  0  0  0  0
   47.4740   34.2350   41.8790 C   0  0  0  0  0  0  0  0  0  0  0  0
   48.3830   35.1540   42.3580 C   0  0  0  0  0  0  0  0  0  0  0  0
   49.7370   34.9520   42.5000 C   0  0  0  0  0  0  0  0  0  0  0  0
   50.2250   33.7350   42.1350 N   0  0  0  0  0  0  0  0  0  0  0  0
   49.3490   32.8080   41.6580 C   0  0  0  0  0  0  0  0  0  0  0  0
   48.0320   33.0390   41.5330 N   0  0  0  0  0  0  0  0  0  0  0  0
   44.0941   33.5940   42.8010 H   0  0  0  0  0  0  0  0  0  0  0  0
   44.8224   36.3249   42.2316 H   0  0  0  0  0  0  0  0  0  0  0  0
   45.9706   36.3223   43.2795 H   0  0  0  0  0  0  0  0  0  0  0  0
   46.0332   34.3025   40.6773 H   0  0  0  0  0  0  0  0  0  0  0  0
   45.3651   31.4916   42.9407 H   0  0  0  0  0  0  0  0  0  0  0  0
   46.0615   30.1582   44.9841 H   0  0  0  0  0  0  0  0  0  0  0  0
   46.2575   33.8105   47.2016 H   0  0  0  0  0  0  0  0  0  0  0  0
   47.9905   36.1382   42.6536 H   0  0  0  0  0  0  0  0  0  0  0  0
   50.3965   35.7404   42.8917 H   0  0  0  0  0  0  0  0  0  0  0  0
   49.7386   31.8231   41.3609 H   0  0  0  0  0  0  0  0  0  0  0  0
  1  4  1  0
  2  1  1  0
  3 10  1  0
  3  2  1  0
  3  1  1  0
  4  9  1  0
  5  4  2  0
  5  6  1  0
  6  7  2  0
  7  8  1  0
  9  8  2  0
 10 11  2  0
 11 12  1  0
 13 12  2  0
 14 13  1  0
 15 14  2  0
 15 10  1  0
  1 16  1  6
  2 17  1  0
  2 18  1  0
  3 19  1  6
  5 20  1  0
  6 21  1  0
  8 22  1  0
 11 23  1  0
 12 24  1  0
 14 25  1  0
M  ISO  8  16  13  17  13  18  13  19  13  20  14  21  14  22  14  23  14
M  ISO  2  24  14  25  14
M  END
>  <minimizedAffinity>  (1) 
-4.06608868

>  <minimizedRMSD>  (1) 
1.92942369

$$$$
