
     RDKit          3D

 22 24  0  0  1  0  0  0  0  0999 V2000
   41.0330   35.7040   39.3940 C   0  0  1  0  0  0  0  0  0  0  0  0
   40.3640   34.9000   38.3070 C   0  0  0  0  0  0  0  0  0  0  0  0
   39.7590   35.0030   39.6250 C   0  0  1  0  0  0  0  0  0  0  0  0
   42.3040   35.1750   39.9680 C   0  0  0  0  0  0  0  0  0  0  0  0
   42.7030   35.6670   41.2220 C   0  0  0  0  0  0  0  0  0  0  0  0
   43.8820   35.1810   41.7930 C   0  0  0  0  0  0  0  0  0  0  0  0
   44.5810   34.2500   41.0960 N   0  0  0  0  0  0  0  0  0  0  0  0
   44.1600   33.7970   39.8790 C   0  0  0  0  0  0  0  0  0  0  0  0
   43.0410   34.2540   39.3270 N   0  0  0  0  0  0  0  0  0  0  0  0
   39.7070   33.7310   40.4170 C   0  0  0  0  0  0  0  0  0  0  0  0
   39.7030   33.5140   41.7650 N   0  0  0  0  0  0  0  0  0  0  0  0
   39.6500   32.2490   42.0060 O   0  0  0  0  0  0  0  0  0  0  0  0
   39.6180   31.5760   40.8830 C   0  0  0  0  0  0  0  0  0  0  0  0
   39.6520   32.4730   39.8840 N   0  0  0  0  0  0  0  0  0  0  0  0
   41.3796   36.7391   39.5298 H   0  0  0  0  0  0  0  0  0  0  0  0
   39.9039   35.4102   37.4479 H   0  0  0  0  0  0  0  0  0  0  0  0
   40.6674   34.0714   37.6503 H   0  0  0  0  0  0  0  0  0  0  0  0
   38.7981   35.3445   40.0375 H   0  0  0  0  0  0  0  0  0  0  0  0
   42.0977   36.4218   41.7453 H   0  0  0  0  0  0  0  0  0  0  0  0
   44.2310   35.5402   42.7724 H   0  0  0  0  0  0  0  0  0  0  0  0
   44.7567   33.0415   39.3468 H   0  0  0  0  0  0  0  0  0  0  0  0
   39.5719   30.4820   40.7778 H   0  0  0  0  0  0  0  0  0  0  0  0
  1  3  1  0
  1  4  1  0
  2  1  1  0
  2  3  1  0
  3 10  1  0
  4  5  2  0
  5  6  1  0
  7  6  2  0
  8  7  1  0
  9  8  2  0
  9  4  1  0
 10 11  2  0
 11 12  1  0
 13 12  1  0
 14 10  1  0
 14 13  2  0
  1 15  1  6
  2 16  1  0
  2 17  1  0
  3 18  1  6
  5 19  1  0
  6 20  1  0
  8 21  1  0
 13 22  1  0
M  ISO  8  15  13  16  13  17  13  18  13  19  14  20  14  21  14  22  14
M  END
>  <minimizedAffinity>  (1) 
-4.02300453

>  <minimizedRMSD>  (1) 
7.50765419

$$$$
