
     RDKit          3D

 41 42  0  0  1  0  0  0  0  0999 V2000
   46.5550   34.9690   41.6000 N   0  0  0  0  0  0  0  0  0  0  0  0
   45.5280   34.2890   41.0600 C   0  0  0  0  0  0  0  0  0  0  0  0
   45.9340   33.1330   40.1680 C   0  0  0  0  0  0  0  0  0  0  0  0
   47.2560   32.5200   40.3940 C   0  0  0  0  0  0  0  0  0  0  0  0
   48.1600   33.3060   41.2800 C   0  0  0  0  0  0  0  0  0  0  0  0
   47.8530   34.7610   41.1030 C   0  0  2  0  0  0  0  0  0  0  0  0
   46.4950   35.0170   42.9930 C   0  0  0  0  0  0  0  0  0  0  0  0
   45.2830   34.6030   43.6570 C   0  0  1  0  0  0  0  0  0  0  0  0
   45.5150   33.8010   46.0420 C   0  0  0  0  0  0  0  0  0  0  0  0
   45.5490   33.5600   44.6480 C   0  0  0  0  0  0  0  0  0  0  0  0
   45.8450   32.2750   44.2230 C   0  0  0  0  0  0  0  0  0  0  0  0
   46.0900   31.3090   45.1260 N   0  0  0  0  0  0  0  0  0  0  0  0
   46.0510   31.5710   46.4570 C   0  0  0  0  0  0  0  0  0  0  0  0
   45.7570   32.8450   46.9280 N   0  0  0  0  0  0  0  0  0  0  0  0
   44.5780   35.7960   44.2420 C   0  0  0  0  0  0  0  0  0  0  0  0
   44.8410   37.0090   43.6780 O   0  0  0  0  0  0  0  0  0  0  0  0
   48.9140   35.5340   41.7960 C   0  0  0  0  0  0  0  0  0  0  0  0
   49.9920   34.6940   42.4210 C   0  0  0  0  0  0  0  0  0  0  0  0
   44.9125   33.8898   41.8796 H   0  0  0  0  0  0  0  0  0  0  0  0
   44.9863   35.0006   40.4196 H   0  0  0  0  0  0  0  0  0  0  0  0
   45.9146   33.4972   39.1302 H   0  0  0  0  0  0  0  0  0  0  0  0
   45.2150   32.3350   40.4053 H   0  0  0  0  0  0  0  0  0  0  0  0
   47.1023   31.5312   40.8508 H   0  0  0  0  0  0  0  0  0  0  0  0
   47.7485   32.4692   39.4117 H   0  0  0  0  0  0  0  0  0  0  0  0
   47.9950   33.0170   42.3285 H   0  0  0  0  0  0  0  0  0  0  0  0
   49.2098   33.1081   41.0177 H   0  0  0  0  0  0  0  0  0  0  0  0
   47.8573   35.0988   40.0561 H   0  0  0  0  0  0  0  0  0  0  0  0
   47.3049   34.3766   43.3725 H   0  0  0  0  0  0  0  0  0  0  0  0
   46.5673   36.0903   43.2226 H   0  0  0  0  0  0  0  0  0  0  0  0
   44.6061   34.1536   42.9155 H   0  0  0  0  0  0  0  0  0  0  0  0
   45.2803   34.8136   46.4018 H   0  0  0  0  0  0  0  0  0  0  0  0
   45.8796   32.0451   43.1479 H   0  0  0  0  0  0  0  0  0  0  0  0
   46.2553   30.7624   47.1742 H   0  0  0  0  0  0  0  0  0  0  0  0
   43.4961   35.6174   44.1552 H   0  0  0  0  0  0  0  0  0  0  0  0
   44.9545   35.8729   45.2727 H   0  0  0  0  0  0  0  0  0  0  0  0
   44.9865   37.6800   44.3912 H   0  0  0  0  0  0  0  0  0  0  0  0
   49.3841   36.2055   41.0625 H   0  0  0  0  0  0  0  0  0  0  0  0
   48.4210   36.0720   42.6191 H   0  0  0  0  0  0  0  0  0  0  0  0
   49.9148   34.7542   43.5166 H   0  0  0  0  0  0  0  0  0  0  0  0
   49.8731   33.6480   42.1019 H   0  0  0  0  0  0  0  0  0  0  0  0
   50.9772   35.0649   42.1019 H   0  0  0  0  0  0  0  0  0  0  0  0
  1  7  1  0
  2  1  1  0
  3  4  1  0
  3  2  1  0
  4  5  1  0
  6  5  1  0
  6  1  1  0
  6 17  1  0
  7  8  1  0
  8 15  1  0
  8 10  1  0
  9 14  2  0
 10  9  1  0
 11 10  2  0
 11 12  1  0
 12 13  2  0
 13 14  1  0
 16 15  1  0
 17 18  1  0
  2 19  1  0
  2 20  1  0
  3 21  1  0
  3 22  1  0
  4 23  1  0
  4 24  1  0
  5 25  1  0
  5 26  1  0
  6 27  1  6
  7 28  1  0
  7 29  1  0
  8 30  1  6
  9 31  1  0
 11 32  1  0
 13 33  1  0
 15 34  1  0
 15 35  1  0
 16 36  1  0
 17 37  1  0
 17 38  1  0
 18 39  1  0
 18 40  1  0
 18 41  1  0
M  ISO  8  19  13  20  13  21  13  22  13  23  13  24  13  25  13  26  13
M  ISO  8  27  13  28   8  29   8  30   8  31  14  32  14  33  14  34   8
M  ISO  7  35   8  36   3  37   8  38   8  39   8  40   8  41   8
M  END
>  <minimizedAffinity>  (1) 
-4.89399958

>  <minimizedRMSD>  (1) 
0.362503886

$$$$
