
     RDKit          3D

 24 26  0  0  1  0  0  0  0  0999 V2000
   45.8620   35.1370   43.4120 C   0  0  1  0  0  0  0  0  0  0  0  0
   45.1860   36.4860   43.3020 C   0  0  0  0  0  0  0  0  0  0  0  0
   44.3970   35.2630   43.3980 C   0  0  1  0  0  0  0  0  0  0  0  0
   46.5990   34.6250   42.2260 C   0  0  0  0  0  0  0  0  0  0  0  0
   47.7500   35.3290   41.8190 C   0  0  0  0  0  0  0  0  0  0  0  0
   48.4810   34.8710   40.7190 C   0  0  0  0  0  0  0  0  0  0  0  0
   48.0300   33.7460   40.0870 N   0  0  0  0  0  0  0  0  0  0  0  0
   46.9090   33.0950   40.5180 C   0  0  0  0  0  0  0  0  0  0  0  0
   46.2170   33.5380   41.5680 N   0  0  0  0  0  0  0  0  0  0  0  0
   43.6150   34.8650   42.1870 C   0  0  0  0  0  0  0  0  0  0  0  0
   43.3240   35.7120   41.1200 C   0  0  0  0  0  0  0  0  0  0  0  0
   42.6070   35.0730   40.1690 N   0  0  0  0  0  0  0  0  0  0  0  0
   42.4440   33.8170   40.6360 C   0  0  0  0  0  0  0  0  0  0  0  0
   43.0390   33.6800   41.8350 N   0  0  0  0  0  0  0  0  0  0  0  0
   46.5860   34.6533   44.0842 H   0  0  0  0  0  0  0  0  0  0  0  0
   45.2228   37.0463   42.3561 H   0  0  0  0  0  0  0  0  0  0  0  0
   45.2330   37.4322   43.8611 H   0  0  0  0  0  0  0  0  0  0  0  0
   43.6111   34.8859   44.0690 H   0  0  0  0  0  0  0  0  0  0  0  0
   48.0702   36.2305   42.3619 H   0  0  0  0  0  0  0  0  0  0  0  0
   49.3845   35.3958   40.3752 H   0  0  0  0  0  0  0  0  0  0  0  0
   46.5718   32.1907   39.9902 H   0  0  0  0  0  0  0  0  0  0  0  0
   43.6372   36.7647   41.0593 H   0  0  0  0  0  0  0  0  0  0  0  0
   41.9010   33.0178   40.1102 H   0  0  0  0  0  0  0  0  0  0  0  0
   43.0566   32.8174   42.3975 H   0  0  0  0  0  0  0  0  0  0  0  0
  2  3  1  0
  2  1  1  0
  3  1  1  0
  4  1  1  0
  5  4  2  0
  6  5  1  0
  7  8  1  0
  7  6  2  0
  8  9  2  0
  9  4  1  0
 10  3  1  0
 11 10  2  0
 12 13  2  0
 12 11  1  0
 13 14  1  0
 14 10  1  0
  1 15  1  1
  2 16  1  0
  2 17  1  0
  3 18  1  1
  5 19  1  0
  6 20  1  0
  8 21  1  0
 11 22  1  0
 13 23  1  0
 14 24  1  0
M  ISO  8  15  13  16  13  17  13  18  13  19  14  20  14  21  14  22  14
M  ISO  2  23  14  24   9
M  END
>  <minimizedAffinity>  (1) 
-4.01222324

>  <minimizedRMSD>  (1) 
4.61502695

$$$$
