
     RDKit          3D

 23 25  0  0  1  0  0  0  0  0999 V2000
   39.8150   35.0630   39.6700 C   0  0  1  0  0  0  0  0  0  0  0  0
   40.1020   36.2490   40.5600 C   0  0  0  0  0  0  0  0  0  0  0  0
   41.0730   35.8210   39.5690 C   0  0  1  0  0  0  0  0  0  0  0  0
   39.7430   33.7180   40.2850 C   0  0  0  0  0  0  0  0  0  0  0  0
   39.5880   32.6380   39.3990 C   0  0  0  0  0  0  0  0  0  0  0  0
   39.5260   31.3390   39.9020 C   0  0  0  0  0  0  0  0  0  0  0  0
   39.6190   31.1780   41.2440 N   0  0  0  0  0  0  0  0  0  0  0  0
   39.7680   32.2520   42.0740 C   0  0  0  0  0  0  0  0  0  0  0  0
   39.8280   33.5050   41.5920 N   0  0  0  0  0  0  0  0  0  0  0  0
   42.3330   35.1440   40.0440 C   0  0  0  0  0  0  0  0  0  0  0  0
   42.8920   35.4390   41.3700 C   0  0  0  0  0  0  0  0  0  0  0  0
   44.3480   34.3880   41.4150 S   0  0  0  0  0  0  0  0  0  0  0  0
   44.0080   33.7090   39.6750 C   0  0  0  0  0  0  0  0  0  0  0  0
   42.9880   34.2660   39.3050 N   0  0  0  0  0  0  0  0  0  0  0  0
   39.0445   34.7599   38.9458 H   0  0  0  0  0  0  0  0  0  0  0  0
   39.5495   37.1898   40.4199 H   0  0  0  0  0  0  0  0  0  0  0  0
   40.1203   36.4235   41.6459 H   0  0  0  0  0  0  0  0  0  0  0  0
   41.6001   36.3343   38.7512 H   0  0  0  0  0  0  0  0  0  0  0  0
   39.5161   32.8163   38.3159 H   0  0  0  0  0  0  0  0  0  0  0  0
   39.4057   30.4747   39.2323 H   0  0  0  0  0  0  0  0  0  0  0  0
   39.8404   32.0882   43.1593 H   0  0  0  0  0  0  0  0  0  0  0  0
   42.5148   36.1283   42.1398 H   0  0  0  0  0  0  0  0  0  0  0  0
   44.6041   32.9704   39.1189 H   0  0  0  0  0  0  0  0  0  0  0  0
  1  4  1  0
  1  2  1  0
  3  1  1  0
  3 10  1  0
  3  2  1  0
  4  9  2  0
  5  6  2  0
  5  4  1  0
  6  7  1  0
  7  8  2  0
  9  8  1  0
 10 11  2  0
 11 12  1  0
 13 12  1  0
 14 13  2  0
 14 10  1  0
  1 15  1  6
  2 16  1  0
  2 17  1  0
  3 18  1  6
  5 19  1  0
  6 20  1  0
  8 21  1  0
 11 22  1  0
 13 23  1  0
M  ISO  8  15  13  16  13  17  13  18  13  19  14  20  14  21  14  22  14
M  ISO  1  23  14
M  END
>  <minimizedAffinity>  (1) 
-4.00722504

>  <minimizedRMSD>  (1) 
6.86984539

$$$$
