
     RDKit          3D

 20 21  0  0  1  0  0  0  0  0999 V2000
   48.0130   35.6070   42.1030 C   0  0  1  0  0  0  0  0  0  0  0  0
   49.4590   35.2100   41.9360 C   0  0  0  0  0  0  0  0  0  0  0  0
   48.5660   35.3060   40.7830 C   0  0  1  0  0  0  0  0  0  0  0  0
   47.0990   34.6980   42.8280 C   0  0  0  0  0  0  0  0  0  0  0  0
   45.7170   34.8190   42.5360 C   0  0  0  0  0  0  0  0  0  0  0  0
   44.8020   33.9950   43.1710 C   0  0  0  0  0  0  0  0  0  0  0  0
   45.2960   33.0890   44.0640 N   0  0  0  0  0  0  0  0  0  0  0  0
   46.6340   32.9990   44.3220 C   0  0  0  0  0  0  0  0  0  0  0  0
   47.5110   33.7960   43.7080 N   0  0  0  0  0  0  0  0  0  0  0  0
   48.3360   34.0530   40.0610 C   0  0  0  0  0  0  0  0  0  0  0  0
   47.2790   33.8760   39.3960 O   0  0  0  0  0  0  0  0  0  0  0  0
   49.2580   33.0130   40.0720 O   0  0  0  0  0  0  0  0  0  0  0  0
   47.4490   36.4575   42.5136 H   0  0  0  0  0  0  0  0  0  0  0  0
   50.2567   35.9534   42.0809 H   0  0  0  0  0  0  0  0  0  0  0  0
   50.1123   34.4326   42.3589 H   0  0  0  0  0  0  0  0  0  0  0  0
   48.5063   35.8691   39.8399 H   0  0  0  0  0  0  0  0  0  0  0  0
   45.3716   35.5661   41.8062 H   0  0  0  0  0  0  0  0  0  0  0  0
   43.7241   34.0679   42.9643 H   0  0  0  0  0  0  0  0  0  0  0  0
   46.9953   32.2565   45.0487 H   0  0  0  0  0  0  0  0  0  0  0  0
   49.0698   32.1793   39.5723 H   0  0  0  0  0  0  0  0  0  0  0  0
  1  4  1  0
  2  1  1  0
  3  2  1  0
  3  1  1  0
  4  9  1  0
  5  4  2  0
  5  6  1  0
  6  7  2  0
  7  8  1  0
  9  8  2  0
 10 12  1  0
 10  3  1  0
 11 10  2  0
  1 13  1  6
  2 14  1  0
  2 15  1  0
  3 16  1  6
  5 17  1  0
  6 18  1  0
  8 19  1  0
 12 20  1  0
M  ISO  8  13  13  14  13  15  13  16  13  17  14  18  14  19  14  20   3
M  END
>  <minimizedAffinity>  (1) 
-3.82400918

>  <minimizedRMSD>  (1) 
3.6205585

$$$$
