
     RDKit          3D

 18 19  0  0  1  0  0  0  0  0999 V2000
   45.2980   33.6840   44.2950 C   0  0  0  0  0  0  0  0  0  0  0  0
   45.4180   32.3400   43.8480 C   0  0  0  0  0  0  0  0  0  0  0  0
   45.9950   31.3890   44.6750 C   0  0  0  0  0  0  0  0  0  0  0  0
   46.4210   31.8000   45.8860 N   0  0  0  0  0  0  0  0  0  0  0  0
   46.2980   33.0790   46.2920 C   0  0  0  0  0  0  0  0  0  0  0  0
   45.7400   34.0160   45.5000 N   0  0  0  0  0  0  0  0  0  0  0  0
   44.6890   34.6480   43.3520 C   0  0  1  0  0  0  0  0  0  0  0  0
   45.0650   36.1050   43.4640 C   0  0  0  0  0  0  0  0  0  0  0  0
   45.4600   35.3100   42.2930 C   0  0  1  0  0  0  0  0  0  0  0  0
   47.2280   34.8980   42.2320 S   0  0  0  0  0  0  0  0  0  0  0  0
   45.0543   32.0557   42.8495 H   0  0  0  0  0  0  0  0  0  0  0  0
   46.1009   30.3416   44.3561 H   0  0  0  0  0  0  0  0  0  0  0  0
   46.6605   33.3643   47.2906 H   0  0  0  0  0  0  0  0  0  0  0  0
   43.7647   34.0517   43.3598 H   0  0  0  0  0  0  0  0  0  0  0  0
   44.2939   36.8837   43.3688 H   0  0  0  0  0  0  0  0  0  0  0  0
   45.5924   36.7233   44.2053 H   0  0  0  0  0  0  0  0  0  0  0  0
   45.3287   35.4102   41.2055 H   0  0  0  0  0  0  0  0  0  0  0  0
   47.7147   34.7846   43.5076 H   0  0  0  0  0  0  0  0  0  0  0  0
  1  6  1  0
  2  1  2  0
  2  3  1  0
  3  4  2  0
  4  5  1  0
  6  5  2  0
  7  8  1  0
  7  1  1  0
  9  7  1  0
  9  8  1  0
 10  9  1  0
  2 11  1  0
  3 12  1  0
  5 13  1  0
  7 14  1  6
  8 15  1  0
  8 16  1  0
  9 17  1  6
 10 18  1  0
M  ISO  8  11  14  12  14  13  14  14  13  15  13  16  13  17  13  18  11
M  END
>  <minimizedAffinity>  (1) 
-2.93446922

>  <minimizedRMSD>  (1) 
0.992848396

$$$$
