
     RDKit          3D

 56 58  0  0  1  0  0  0  0  0999 V2000
   48.1350   32.5180   43.7500 C   0  0  0  0  0  0  0  0  0  0  0  0
   48.4340   32.3920   42.3950 N   0  0  0  0  0  0  0  0  0  0  0  0
   48.8780   31.1590   42.0740 C   0  0  0  0  0  0  0  0  0  0  0  0
   50.2240   31.1520   41.3850 C   0  0  0  0  0  0  0  0  0  0  0  0
   51.1570   32.2600   41.6640 C   0  0  0  0  0  0  0  0  0  0  0  0
   50.5150   33.4440   42.2930 C   0  0  0  0  0  0  0  0  0  0  0  0
   49.0870   33.5200   41.8580 C   0  0  2  0  0  0  0  0  0  0  0  0
   48.5450   34.8250   42.3020 C   0  0  0  0  0  0  0  0  0  0  0  0
   49.0560   36.0090   41.5380 C   0  0  0  0  0  0  0  0  0  0  0  0
   46.7870   32.2940   44.1850 C   0  0  1  0  0  0  0  0  0  0  0  0
   47.8510   30.5770   45.7580 C   0  0  0  0  0  0  0  0  0  0  0  0
   46.7250   31.1180   45.0790 C   0  0  0  0  0  0  0  0  0  0  0  0
   45.4960   30.4970   45.2910 C   0  0  0  0  0  0  0  0  0  0  0  0
   45.4270   29.4340   46.1090 N   0  0  0  0  0  0  0  0  0  0  0  0
   46.5100   28.9420   46.7370 C   0  0  0  0  0  0  0  0  0  0  0  0
   47.7440   29.5260   46.5580 N   0  0  0  0  0  0  0  0  0  0  0  0
   46.2630   33.5190   44.8860 C   0  0  0  0  0  0  0  0  0  0  0  0
   45.0540   34.0970   44.2030 C   0  0  0  0  0  0  0  0  0  0  0  0
   44.9530   35.5920   44.2610 C   0  0  0  0  0  0  0  0  0  0  0  0
   44.9960   36.2020   42.8700 C   0  0  0  0  0  0  0  0  0  0  0  0
   43.9330   35.6450   41.9680 C   0  0  0  0  0  0  0  0  0  0  0  0
   43.8230   34.1560   42.0780 C   0  0  0  0  0  0  0  0  0  0  0  0
   45.0770   33.6320   42.7420 C   0  0  0  0  0  0  0  0  0  0  0  0
   48.4040   33.5426   44.0462 H   0  0  0  0  0  0  0  0  0  0  0  0
   48.7053   31.7057   44.2243 H   0  0  0  0  0  0  0  0  0  0  0  0
   48.9593   30.5687   42.9986 H   0  0  0  0  0  0  0  0  0  0  0  0
   48.1537   30.7340   41.3635 H   0  0  0  0  0  0  0  0  0  0  0  0
   50.0354   31.1498   40.3013 H   0  0  0  0  0  0  0  0  0  0  0  0
   50.7306   30.2621   41.7868 H   0  0  0  0  0  0  0  0  0  0  0  0
   51.9410   31.8904   42.3413 H   0  0  0  0  0  0  0  0  0  0  0  0
   51.5581   32.5914   40.6948 H   0  0  0  0  0  0  0  0  0  0  0  0
   50.5612   33.3489   43.3879 H   0  0  0  0  0  0  0  0  0  0  0  0
   51.0438   34.3578   41.9842 H   0  0  0  0  0  0  0  0  0  0  0  0
   48.9454   33.4863   40.7677 H   0  0  0  0  0  0  0  0  0  0  0  0
   47.4505   34.7953   42.1958 H   0  0  0  0  0  0  0  0  0  0  0  0
   48.8758   34.9607   43.3423 H   0  0  0  0  0  0  0  0  0  0  0  0
   49.3905   36.7840   42.2434 H   0  0  0  0  0  0  0  0  0  0  0  0
   49.9009   35.7001   40.9050 H   0  0  0  0  0  0  0  0  0  0  0  0
   48.2516   36.4119   40.9050 H   0  0  0  0  0  0  0  0  0  0  0  0
   46.1566   32.0940   43.3060 H   0  0  0  0  0  0  0  0  0  0  0  0
   48.8371   31.0432   45.6155 H   0  0  0  0  0  0  0  0  0  0  0  0
   44.5905   30.8738   44.7930 H   0  0  0  0  0  0  0  0  0  0  0  0
   46.4092   28.0681   47.3974 H   0  0  0  0  0  0  0  0  0  0  0  0
   45.9904   33.2470   45.9164 H   0  0  0  0  0  0  0  0  0  0  0  0
   47.0557   34.2814   44.8668 H   0  0  0  0  0  0  0  0  0  0  0  0
   44.1688   33.7325   44.7449 H   0  0  0  0  0  0  0  0  0  0  0  0
   44.0045   35.8687   44.7446 H   0  0  0  0  0  0  0  0  0  0  0  0
   45.8089   35.9761   44.8354 H   0  0  0  0  0  0  0  0  0  0  0  0
   44.8521   37.2891   42.9563 H   0  0  0  0  0  0  0  0  0  0  0  0
   45.9731   35.9588   42.4271 H   0  0  0  0  0  0  0  0  0  0  0  0
   44.1778   35.9065   40.9280 H   0  0  0  0  0  0  0  0  0  0  0  0
   42.9692   36.0788   42.2729 H   0  0  0  0  0  0  0  0  0  0  0  0
   42.9438   33.8923   42.6842 H   0  0  0  0  0  0  0  0  0  0  0  0
   43.7104   33.7106   41.0785 H   0  0  0  0  0  0  0  0  0  0  0  0
   45.0941   32.5330   42.6979 H   0  0  0  0  0  0  0  0  0  0  0  0
   45.9737   34.0102   42.2293 H   0  0  0  0  0  0  0  0  0  0  0  0
  1 10  1  0
  2  1  1  0
  3  2  1  0
  4  5  1  0
  4  3  1  0
  5  6  1  0
  7  6  1  0
  7  8  1  0
  7  2  1  0
  9  8  1  0
 10 17  1  0
 10 12  1  0
 11 16  2  0
 12 13  2  0
 12 11  1  0
 13 14  1  0
 14 15  2  0
 16 15  1  0
 18 19  1  0
 18 17  1  0
 20 19  1  0
 21 22  1  0
 21 20  1  0
 22 23  1  0
 23 18  1  0
  1 24  1  0
  1 25  1  0
  3 26  1  0
  3 27  1  0
  4 28  1  0
  4 29  1  0
  5 30  1  0
  5 31  1  0
  6 32  1  0
  6 33  1  0
  7 34  1  6
  8 35  1  0
  8 36  1  0
  9 37  1  0
  9 38  1  0
  9 39  1  0
 10 40  1  6
 11 41  1  0
 13 42  1  0
 15 43  1  0
 17 44  1  0
 17 45  1  0
 18 46  1  0
 19 47  1  0
 19 48  1  0
 20 49  1  0
 20 50  1  0
 21 51  1  0
 21 52  1  0
 22 53  1  0
 22 54  1  0
 23 55  1  0
 23 56  1  0
M  ISO  8  24   8  25   8  26  13  27  13  28  13  29  13  30  13  31  13
M  ISO  8  32  13  33  13  34  13  35   8  36   8  37   8  38   8  39   8
M  ISO  8  40   8  41  14  42  14  43  14  44   8  45   8  46  13  47  13
M  ISO  8  48  13  49  13  50  13  51  13  52  13  53  13  54  13  55  13
M  ISO  1  56  13
M  END
>  <minimizedAffinity>  (1) 
-4.78268385

>  <minimizedRMSD>  (1) 
3.15572453

$$$$
