
     RDKit          3D

 34 36  0  0  1  0  0  0  0  0999 V2000
   44.7250   34.7410   43.2820 C   0  0  1  0  0  0  0  0  0  0  0  0
   45.6050   35.8140   42.7350 C   0  0  0  0  0  0  0  0  0  0  0  0
   45.1210   34.7600   41.8510 C   0  0  1  0  0  0  0  0  0  0  0  0
   45.2900   33.7160   44.2050 C   0  0  0  0  0  0  0  0  0  0  0  0
   45.2740   32.3730   43.7810 C   0  0  0  0  0  0  0  0  0  0  0  0
   45.7810   31.4130   44.6240 C   0  0  0  0  0  0  0  0  0  0  0  0
   46.2740   31.7870   45.8200 N   0  0  0  0  0  0  0  0  0  0  0  0
   46.2800   33.0750   46.2080 C   0  0  0  0  0  0  0  0  0  0  0  0
   45.7910   34.0370   45.4030 N   0  0  0  0  0  0  0  0  0  0  0  0
   46.3180   33.5220   41.3300 S   0  0  0  0  0  0  0  0  0  0  0  0
   48.0050   34.1860   41.3710 C   0  0  0  0  0  0  0  0  0  0  0  0
   48.9020   33.2480   40.6300 C   0  0  0  0  0  0  0  0  0  0  0  0
   49.8800   32.5500   41.5540 C   0  0  0  0  0  0  0  0  0  0  0  0
   50.7400   33.5800   42.2550 C   0  0  0  0  0  0  0  0  0  0  0  0
   49.9470   34.7740   42.6930 C   0  0  0  0  0  0  0  0  0  0  0  0
   48.4970   34.3440   42.8060 C   0  0  0  0  0  0  0  0  0  0  0  0
   43.7721   34.7067   43.8304 H   0  0  0  0  0  0  0  0  0  0  0  0
   45.2198   36.8389   42.6292 H   0  0  0  0  0  0  0  0  0  0  0  0
   46.5966   36.2119   42.9966 H   0  0  0  0  0  0  0  0  0  0  0  0
   44.5759   34.7437   40.8957 H   0  0  0  0  0  0  0  0  0  0  0  0
   44.8650   32.0986   42.7974 H   0  0  0  0  0  0  0  0  0  0  0  0
   45.7840   30.3542   44.3259 H   0  0  0  0  0  0  0  0  0  0  0  0
   46.6886   33.3450   47.1930 H   0  0  0  0  0  0  0  0  0  0  0  0
   48.0134   35.1798   40.8994 H   0  0  0  0  0  0  0  0  0  0  0  0
   48.2848   32.4890   40.1271 H   0  0  0  0  0  0  0  0  0  0  0  0
   49.4814   33.8351   39.9022 H   0  0  0  0  0  0  0  0  0  0  0  0
   49.3238   31.9668   42.3027 H   0  0  0  0  0  0  0  0  0  0  0  0
   50.5218   31.8775   40.9659 H   0  0  0  0  0  0  0  0  0  0  0  0
   51.1992   33.1153   43.1400 H   0  0  0  0  0  0  0  0  0  0  0  0
   51.5041   33.9242   41.5425 H   0  0  0  0  0  0  0  0  0  0  0  0
   50.3104   35.1284   43.6689 H   0  0  0  0  0  0  0  0  0  0  0  0
   50.0516   35.5948   41.9681 H   0  0  0  0  0  0  0  0  0  0  0  0
   47.9087   35.1105   43.3318 H   0  0  0  0  0  0  0  0  0  0  0  0
   48.3919   33.4104   43.3782 H   0  0  0  0  0  0  0  0  0  0  0  0
  1  4  1  0
  2  1  1  0
  3  2  1  0
  3  1  1  0
  4  9  1  0
  5  4  2  0
  5  6  1  0
  6  7  2  0
  7  8  1  0
  9  8  2  0
 10 11  1  0
 10  3  1  0
 11 16  1  0
 12 11  1  0
 12 13  1  0
 13 14  1  0
 14 15  1  0
 15 16  1  0
  1 17  1  6
  2 18  1  0
  2 19  1  0
  3 20  1  6
  5 21  1  0
  6 22  1  0
  8 23  1  0
 11 24  1  0
 12 25  1  0
 12 26  1  0
 13 27  1  0
 13 28  1  0
 14 29  1  0
 14 30  1  0
 15 31  1  0
 15 32  1  0
 16 33  1  0
 16 34  1  0
M  ISO  8  17  13  18  13  19  13  20  13  21  14  22  14  23  14  24  13
M  ISO  8  25  13  26  13  27  13  28  13  29  13  30  13  31  13  32  13
M  ISO  2  33  13  34  13
M  END
>  <minimizedAffinity>  (1) 
-4.30713701

>  <minimizedRMSD>  (1) 
2.03252721

$$$$
