
     RDKit          3D

 55 57  0  0  1  0  0  0  0  0999 V2000
   48.2290   31.9560   42.7040 C   0  0  0  0  0  0  0  0  0  0  0  0
   48.7520   32.3120   41.4630 N   0  0  0  0  0  0  0  0  0  0  0  0
   49.0810   31.2410   40.7080 C   0  0  0  0  0  0  0  0  0  0  0  0
   50.5130   31.2130   40.2370 C   0  0  0  0  0  0  0  0  0  0  0  0
   51.5170   31.9360   41.0440 C   0  0  0  0  0  0  0  0  0  0  0  0
   50.9420   32.8820   42.0490 C   0  0  0  0  0  0  0  0  0  0  0  0
   49.6440   33.3990   41.5200 C   0  0  2  0  0  0  0  0  0  0  0  0
   49.2040   34.5140   42.3990 C   0  0  0  0  0  0  0  0  0  0  0  0
   49.0930   35.8390   41.7210 C   0  0  0  0  0  0  0  0  0  0  0  0
   46.7950   31.9470   42.8740 C   0  0  1  0  0  0  0  0  0  0  0  0
   46.5670   29.4360   43.2960 C   0  0  0  0  0  0  0  0  0  0  0  0
   46.2590   30.6170   42.5640 C   0  0  0  0  0  0  0  0  0  0  0  0
   45.3660   30.4890   41.4970 C   0  0  0  0  0  0  0  0  0  0  0  0
   44.8390   29.2850   41.2000 N   0  0  0  0  0  0  0  0  0  0  0  0
   45.1550   28.1820   41.9200 C   0  0  0  0  0  0  0  0  0  0  0  0
   46.0360   28.2650   42.9860 N   0  0  0  0  0  0  0  0  0  0  0  0
   46.4500   32.3470   44.2850 C   0  0  0  0  0  0  0  0  0  0  0  0
   45.3750   33.3210   44.3870 N   0  0  0  0  0  0  0  0  0  0  0  0
   45.3960   34.0290   43.1060 C   0  0  0  0  0  0  0  0  0  0  0  0
   45.6840   35.4810   43.1930 C   0  0  0  0  0  0  0  0  0  0  0  0
   44.6950   36.2190   44.0880 C   0  0  0  0  0  0  0  0  0  0  0  0
   44.5460   35.3560   45.3210 C   0  0  0  0  0  0  0  0  0  0  0  0
   45.6660   34.3380   45.3790 C   0  0  0  0  0  0  0  0  0  0  0  0
   48.6384   32.6610   43.4425 H   0  0  0  0  0  0  0  0  0  0  0  0
   48.5195   30.9019   42.8246 H   0  0  0  0  0  0  0  0  0  0  0  0
   48.8992   30.3342   41.3035 H   0  0  0  0  0  0  0  0  0  0  0  0
   48.4591   31.2988   39.8025 H   0  0  0  0  0  0  0  0  0  0  0  0
   50.8238   30.1587   40.1940 H   0  0  0  0  0  0  0  0  0  0  0  0
   50.4983   31.7427   39.2731 H   0  0  0  0  0  0  0  0  0  0  0  0
   52.1257   31.1933   41.5806 H   0  0  0  0  0  0  0  0  0  0  0  0
   52.1028   32.5459   40.3405 H   0  0  0  0  0  0  0  0  0  0  0  0
   50.7726   32.3560   43.0001 H   0  0  0  0  0  0  0  0  0  0  0  0
   51.6377   33.7157   42.2251 H   0  0  0  0  0  0  0  0  0  0  0  0
   49.7126   33.8129   40.5031 H   0  0  0  0  0  0  0  0  0  0  0  0
   48.2169   34.2563   42.8104 H   0  0  0  0  0  0  0  0  0  0  0  0
   49.9802   34.6250   43.1705 H   0  0  0  0  0  0  0  0  0  0  0  0
   49.0264   36.6340   42.4783 H   0  0  0  0  0  0  0  0  0  0  0  0
   49.9804   36.0048   41.0925 H   0  0  0  0  0  0  0  0  0  0  0  0
   48.1904   35.8548   41.0925 H   0  0  0  0  0  0  0  0  0  0  0  0
   46.3405   32.6707   42.1814 H   0  0  0  0  0  0  0  0  0  0  0  0
   47.2660   29.4988   44.1430 H   0  0  0  0  0  0  0  0  0  0  0  0
   45.0932   31.3713   40.8994 H   0  0  0  0  0  0  0  0  0  0  0  0
   44.7083   27.2121   41.6560 H   0  0  0  0  0  0  0  0  0  0  0  0
   46.1489   31.4432   44.8350 H   0  0  0  0  0  0  0  0  0  0  0  0
   47.3476   32.8248   44.7045 H   0  0  0  0  0  0  0  0  0  0  0  0
   44.4110   33.9050   42.6322 H   0  0  0  0  0  0  0  0  0  0  0  0
   46.2204   33.5880   42.5264 H   0  0  0  0  0  0  0  0  0  0  0  0
   46.6970   35.6161   43.5999 H   0  0  0  0  0  0  0  0  0  0  0  0
   45.5962   35.9008   42.1800 H   0  0  0  0  0  0  0  0  0  0  0  0
   45.0865   37.2110   44.3578 H   0  0  0  0  0  0  0  0  0  0  0  0
   43.7308   36.3818   43.5842 H   0  0  0  0  0  0  0  0  0  0  0  0
   44.5849   35.9920   46.2177 H   0  0  0  0  0  0  0  0  0  0  0  0
   43.5812   34.8294   45.2788 H   0  0  0  0  0  0  0  0  0  0  0  0
   45.7118   33.8851   46.3804 H   0  0  0  0  0  0  0  0  0  0  0  0
   46.6365   34.8142   45.1759 H   0  0  0  0  0  0  0  0  0  0  0  0
  1 10  1  0
  2  7  1  0
  2  1  1  0
  3  2  1  0
  4  3  1  0
  4  5  1  0
  5  6  1  0
  7  6  1  0
  7  8  1  0
  9  8  1  0
 10 17  1  0
 12 10  1  0
 12 11  2  0
 13 12  1  0
 14 13  2  0
 14 15  1  0
 15 16  2  0
 16 11  1  0
 17 18  1  0
 18 23  1  0
 19 20  1  0
 19 18  1  0
 20 21  1  0
 21 22  1  0
 22 23  1  0
  1 24  1  0
  1 25  1  0
  3 26  1  0
  3 27  1  0
  4 28  1  0
  4 29  1  0
  5 30  1  0
  5 31  1  0
  6 32  1  0
  6 33  1  0
  7 34  1  6
  8 35  1  0
  8 36  1  0
  9 37  1  0
  9 38  1  0
  9 39  1  0
 10 40  1  6
 11 41  1  0
 13 42  1  0
 15 43  1  0
 17 44  1  0
 17 45  1  0
 19 46  1  0
 19 47  1  0
 20 48  1  0
 20 49  1  0
 21 50  1  0
 21 51  1  0
 22 52  1  0
 22 53  1  0
 23 54  1  0
 23 55  1  0
M  ISO  8  24   8  25   8  26  13  27  13  28  13  29  13  30  13  31  13
M  ISO  8  32  13  33  13  34  13  35   8  36   8  37   8  38   8  39   8
M  ISO  8  40   8  41  14  42  14  43  14  44   8  45   8  46  13  47  13
M  ISO  8  48  13  49  13  50  13  51  13  52  13  53  13  54  13  55  13
M  END
>  <minimizedAffinity>  (1) 
-4.23787308

>  <minimizedRMSD>  (1) 
3.95827651

$$$$
