
     RDKit          3D

 53 55  0  0  1  0  0  0  0  0999 V2000
   48.0710   32.2030   43.2760 C   0  0  0  0  0  0  0  0  0  0  0  0
   48.7660   33.3610   42.9450 N   0  0  0  0  0  0  0  0  0  0  0  0
   48.0020   34.4710   43.0170 C   0  0  0  0  0  0  0  0  0  0  0  0
   47.9020   35.2780   41.7420 C   0  0  0  0  0  0  0  0  0  0  0  0
   48.1600   34.5860   40.4680 C   0  0  0  0  0  0  0  0  0  0  0  0
   48.7630   33.2330   40.6140 C   0  0  0  0  0  0  0  0  0  0  0  0
   49.6200   33.2070   41.8320 C   0  0  2  0  0  0  0  0  0  0  0  0
   50.3990   31.9520   41.8180 C   0  0  0  0  0  0  0  0  0  0  0  0
   51.0720   31.6470   40.5240 C   0  0  0  0  0  0  0  0  0  0  0  0
   46.8620   32.3340   44.0830 C   0  0  1  0  0  0  0  0  0  0  0  0
   45.5670   30.4340   42.9790 C   0  0  0  0  0  0  0  0  0  0  0  0
   45.7140   31.7980   43.3360 C   0  0  0  0  0  0  0  0  0  0  0  0
   44.7070   32.6670   42.9660 C   0  0  0  0  0  0  0  0  0  0  0  0
   43.6380   32.2040   42.2880 N   0  0  0  0  0  0  0  0  0  0  0  0
   43.5210   30.8920   41.9570 C   0  0  0  0  0  0  0  0  0  0  0  0
   44.5050   29.9880   42.3090 N   0  0  0  0  0  0  0  0  0  0  0  0
   47.0930   31.5490   45.3650 C   0  0  0  0  0  0  0  0  0  0  0  0
   45.9000   31.6880   46.1950 N   0  0  0  0  0  0  0  0  0  0  0  0
   46.1890   32.6510   47.2490 C   0  0  0  0  0  0  0  0  0  0  0  0
   47.4850   32.3330   47.8990 C   0  0  0  0  0  0  0  0  0  0  0  0
   47.5990   30.9950   48.2620 O   0  0  0  0  0  0  0  0  0  0  0  0
   46.3640   30.3480   48.2240 C   0  0  0  0  0  0  0  0  0  0  0  0
   45.6530   30.4340   46.9110 C   0  0  0  0  0  0  0  0  0  0  0  0
   48.7644   31.5528   43.8296 H   0  0  0  0  0  0  0  0  0  0  0  0
   47.7151   31.8122   42.3113 H   0  0  0  0  0  0  0  0  0  0  0  0
   46.9854   34.1643   43.3043 H   0  0  0  0  0  0  0  0  0  0  0  0
   48.4922   35.1271   43.7513 H   0  0  0  0  0  0  0  0  0  0  0  0
   46.8822   35.6872   41.6921 H   0  0  0  0  0  0  0  0  0  0  0  0
   48.7090   36.0212   41.8213 H   0  0  0  0  0  0  0  0  0  0  0  0
   48.8463   35.2060   39.8726 H   0  0  0  0  0  0  0  0  0  0  0  0
   47.1822   34.4433   39.9848 H   0  0  0  0  0  0  0  0  0  0  0  0
   47.9643   32.4828   40.7102 H   0  0  0  0  0  0  0  0  0  0  0  0
   49.3732   33.0030   39.7281 H   0  0  0  0  0  0  0  0  0  0  0  0
   50.3568   34.0226   41.8755 H   0  0  0  0  0  0  0  0  0  0  0  0
   51.1720   32.0207   42.5976 H   0  0  0  0  0  0  0  0  0  0  0  0
   49.6784   31.1391   41.9906 H   0  0  0  0  0  0  0  0  0  0  0  0
   52.0579   31.2002   40.7198 H   0  0  0  0  0  0  0  0  0  0  0  0
   50.4567   30.9398   39.9485 H   0  0  0  0  0  0  0  0  0  0  0  0
   51.1982   32.5759   39.9485 H   0  0  0  0  0  0  0  0  0  0  0  0
   46.6454   33.3863   44.3193 H   0  0  0  0  0  0  0  0  0  0  0  0
   46.3547   29.7211   43.2641 H   0  0  0  0  0  0  0  0  0  0  0  0
   44.7769   33.7341   43.2238 H   0  0  0  0  0  0  0  0  0  0  0  0
   42.6353   30.5461   41.4040 H   0  0  0  0  0  0  0  0  0  0  0  0
   47.2628   30.4882   45.1287 H   0  0  0  0  0  0  0  0  0  0  0  0
   47.9770   31.9321   45.8959 H   0  0  0  0  0  0  0  0  0  0  0  0
   46.2396   33.6601   46.8141 H   0  0  0  0  0  0  0  0  0  0  0  0
   45.3902   32.6044   48.0038 H   0  0  0  0  0  0  0  0  0  0  0  0
   48.2972   32.5761   47.1982 H   0  0  0  0  0  0  0  0  0  0  0  0
   47.5448   32.9296   48.8212 H   0  0  0  0  0  0  0  0  0  0  0  0
   46.5268   29.2852   48.4564 H   0  0  0  0  0  0  0  0  0  0  0  0
   45.7233   30.8586   48.9580 H   0  0  0  0  0  0  0  0  0  0  0  0
   44.5720   30.3442   47.0936 H   0  0  0  0  0  0  0  0  0  0  0  0
   46.0380   29.6193   46.2800 H   0  0  0  0  0  0  0  0  0  0  0  0
  1 10  1  0
  2  3  1  0
  2  1  1  0
  4  3  1  0
  5  6  1  0
  5  4  1  0
  6  7  1  0
  7  2  1  0
  8  7  1  0
  9  8  1  0
 10 17  1  0
 11 12  2  0
 12 10  1  0
 13 12  1  0
 14 13  2  0
 15 14  1  0
 15 16  2  0
 16 11  1  0
 17 18  1  0
 18 23  1  0
 18 19  1  0
 19 20  1  0
 20 21  1  0
 22 21  1  0
 23 22  1  0
  1 24  1  0
  1 25  1  0
  3 26  1  0
  3 27  1  0
  4 28  1  0
  4 29  1  0
  5 30  1  0
  5 31  1  0
  6 32  1  0
  6 33  1  0
  7 34  1  6
  8 35  1  0
  8 36  1  0
  9 37  1  0
  9 38  1  0
  9 39  1  0
 10 40  1  1
 11 41  1  0
 13 42  1  0
 15 43  1  0
 17 44  1  0
 17 45  1  0
 19 46  1  0
 19 47  1  0
 20 48  1  0
 20 49  1  0
 22 50  1  0
 22 51  1  0
 23 52  1  0
 23 53  1  0
M  ISO  8  24   8  25   8  26  13  27  13  28  13  29  13  30  13  31  13
M  ISO  8  32  13  33  13  34  13  35   8  36   8  37   8  38   8  39   8
M  ISO  8  40   8  41  14  42  14  43  14  44   8  45   8  46  13  47  13
M  ISO  6  48  13  49  13  50  13  51  13  52  13  53  13
M  END
>  <minimizedAffinity>  (1) 
-4.2024374

>  <minimizedRMSD>  (1) 
5.04172039

$$$$
