
     RDKit          3D

 29 30  0  0  1  0  0  0  0  0999 V2000
   44.8120   34.5010   43.1410 C   0  0  1  0  0  0  0  0  0  0  0  0
   45.1490   35.9520   43.1480 C   0  0  0  0  0  0  0  0  0  0  0  0
   45.7770   35.0740   42.1690 C   0  0  1  0  0  0  0  0  0  0  0  0
   45.2810   33.6230   44.2520 C   0  0  0  0  0  0  0  0  0  0  0  0
   45.5250   32.2760   43.9230 C   0  0  0  0  0  0  0  0  0  0  0  0
   45.9510   31.4120   44.9130 C   0  0  0  0  0  0  0  0  0  0  0  0
   46.1130   31.9180   46.1590 N   0  0  0  0  0  0  0  0  0  0  0  0
   45.8700   33.2190   46.4420 C   0  0  0  0  0  0  0  0  0  0  0  0
   45.4560   34.0750   45.4990 N   0  0  0  0  0  0  0  0  0  0  0  0
   47.5150   34.6990   42.4430 S   0  0  0  0  0  0  0  0  0  0  0  0
   48.2700   33.7950   41.0950 C   0  0  1  0  0  0  0  0  0  0  0  0
   47.8640   32.3280   41.0490 C   0  0  0  0  0  0  0  0  0  0  0  0
   48.0260   34.4210   39.7470 C   0  0  0  0  0  0  0  0  0  0  0  0
   48.7580   33.7350   38.6930 N   0  0  0  0  0  0  0  0  0  0  0  0
   43.8909   33.9042   43.0676 H   0  0  0  0  0  0  0  0  0  0  0  0
   44.4014   36.6904   42.8228 H   0  0  0  0  0  0  0  0  0  0  0  0
   45.5194   36.6579   43.9060 H   0  0  0  0  0  0  0  0  0  0  0  0
   45.8621   35.0680   41.0723 H   0  0  0  0  0  0  0  0  0  0  0  0
   45.3787   31.9172   42.8935 H   0  0  0  0  0  0  0  0  0  0  0  0
   46.1513   30.3521   44.6975 H   0  0  0  0  0  0  0  0  0  0  0  0
   46.0159   33.5816   47.4702 H   0  0  0  0  0  0  0  0  0  0  0  0
   49.3468   33.8491   41.3130 H   0  0  0  0  0  0  0  0  0  0  0  0
   47.7579   31.9446   42.0745 H   0  0  0  0  0  0  0  0  0  0  0  0
   46.9048   32.2294   40.5196 H   0  0  0  0  0  0  0  0  0  0  0  0
   48.6360   31.7503   40.5196 H   0  0  0  0  0  0  0  0  0  0  0  0
   46.9503   34.3743   39.5220 H   0  0  0  0  0  0  0  0  0  0  0  0
   48.3767   35.4629   39.7850 H   0  0  0  0  0  0  0  0  0  0  0  0
   49.4440   33.0921   39.1138 H   0  0  0  0  0  0  0  0  0  0  0  0
   48.0990   33.2000   38.1096 H   0  0  0  0  0  0  0  0  0  0  0  0
  1  2  1  0
  1  4  1  0
  3 10  1  0
  3  1  1  0
  3  2  1  0
  4  9  1  0
  5  4  2  0
  5  6  1  0
  6  7  2  0
  7  8  1  0
  9  8  2  0
 11 10  1  0
 12 11  1  0
 13 11  1  0
 14 13  1  0
  1 15  1  6
  2 16  1  0
  2 17  1  0
  3 18  1  6
  5 19  1  0
  6 20  1  0
  8 21  1  0
 11 22  1  1
 12 23  1  0
 12 24  1  0
 12 25  1  0
 13 26  1  0
 13 27  1  0
 14 28  1  0
 14 29  1  0
M  ISO  8  15  13  16  13  17  13  18  13  19  14  20  14  21  14  22   8
M  ISO  7  23   8  24   8  25   8  26   8  27   8  28   5  29   5
M  END
>  <minimizedAffinity>  (1) 
-3.50469446

>  <minimizedRMSD>  (1) 
1.48945713

$$$$
