
     RDKit          3D

 43 46  0  0  1  0  0  0  0  0999 V2000
   48.4060   34.2470   41.3850 C   0  0  1  0  0  0  0  0  0  0  0  0
   48.6490   32.8160   41.8210 C   0  0  0  0  0  0  0  0  0  0  0  0
   48.1340   34.2780   39.9070 C   0  0  0  0  0  0  0  0  0  0  0  0
   48.9550   33.3320   39.1800 N   0  0  0  0  0  0  0  0  0  0  0  0
   48.6920   33.1430   37.7930 C   0  0  0  0  0  0  0  0  0  0  0  0
   47.7100   33.7330   37.0230 C   0  0  0  0  0  0  0  0  0  0  0  0
   47.7420   33.3310   35.7480 N   0  0  0  0  0  0  0  0  0  0  0  0
   48.7720   32.4480   35.6570 C   0  0  0  0  0  0  0  0  0  0  0  0
   49.2520   31.7330   34.5740 C   0  0  0  0  0  0  0  0  0  0  0  0
   50.3280   30.9100   34.8130 C   0  0  0  0  0  0  0  0  0  0  0  0
   50.9460   30.7570   36.0350 C   0  0  0  0  0  0  0  0  0  0  0  0
   50.4520   31.4770   37.0920 C   0  0  0  0  0  0  0  0  0  0  0  0
   49.3720   32.3140   36.8940 C   0  0  0  0  0  0  0  0  0  0  0  0
   47.1540   35.0940   42.3610 S   0  0  0  0  0  0  0  0  0  0  0  0
   44.6410   33.8960   42.6880 C   0  0  1  0  0  0  0  0  0  0  0  0
   44.3810   35.3360   42.5370 C   0  0  0  0  0  0  0  0  0  0  0  0
   45.4930   34.7690   41.8110 C   0  0  1  0  0  0  0  0  0  0  0  0
   45.2110   33.3480   43.9660 C   0  0  0  0  0  0  0  0  0  0  0  0
   45.6370   32.0200   43.9080 C   0  0  0  0  0  0  0  0  0  0  0  0
   46.1520   31.4510   45.0620 C   0  0  0  0  0  0  0  0  0  0  0  0
   46.2110   32.2190   46.1810 N   0  0  0  0  0  0  0  0  0  0  0  0
   45.7850   33.5120   46.1930 C   0  0  0  0  0  0  0  0  0  0  0  0
   45.2840   34.0850   45.0960 N   0  0  0  0  0  0  0  0  0  0  0  0
   49.3210   34.8254   41.5806 H   0  0  0  0  0  0  0  0  0  0  0  0
   48.6578   32.7639   42.9197 H   0  0  0  0  0  0  0  0  0  0  0  0
   47.8473   32.1724   41.4299 H   0  0  0  0  0  0  0  0  0  0  0  0
   49.6182   32.4731   41.4299 H   0  0  0  0  0  0  0  0  0  0  0  0
   47.0753   34.0328   39.7364 H   0  0  0  0  0  0  0  0  0  0  0  0
   48.3753   35.2866   39.5402 H   0  0  0  0  0  0  0  0  0  0  0  0
   49.7074   32.8109   39.6524 H   0  0  0  0  0  0  0  0  0  0  0  0
   46.9799   34.4559   37.4158 H   0  0  0  0  0  0  0  0  0  0  0  0
   47.1136   33.6298   34.9886 H   0  0  0  0  0  0  0  0  0  0  0  0
   48.7977   31.8181   33.5758 H   0  0  0  0  0  0  0  0  0  0  0  0
   50.7245   30.3311   33.9658 H   0  0  0  0  0  0  0  0  0  0  0  0
   51.8052   30.0812   36.1581 H   0  0  0  0  0  0  0  0  0  0  0  0
   50.9114   31.3887   38.0876 H   0  0  0  0  0  0  0  0  0  0  0  0
   44.0494   32.9772   42.5619 H   0  0  0  0  0  0  0  0  0  0  0  0
   43.4887   35.6735   41.9893 H   0  0  0  0  0  0  0  0  0  0  0  0
   44.2744   36.1729   43.2429 H   0  0  0  0  0  0  0  0  0  0  0  0
   45.7988   34.7734   40.7544 H   0  0  0  0  0  0  0  0  0  0  0  0
   45.5661   31.4425   42.9745 H   0  0  0  0  0  0  0  0  0  0  0  0
   46.5026   30.4084   45.0716 H   0  0  0  0  0  0  0  0  0  0  0  0
   45.8548   34.0951   47.1231 H   0  0  0  0  0  0  0  0  0  0  0  0
  1  2  1  0
  1 14  1  0
  3  1  1  0
  4  3  1  0
  5  4  1  0
  6  5  2  0
  7  6  1  0
  8  7  1  0
  8 13  2  0
  9 10  2  0
  9  8  1  0
 10 11  1  0
 11 12  2  0
 13 12  1  0
 13  5  1  0
 15 18  1  0
 16 15  1  0
 17 14  1  0
 17 16  1  0
 17 15  1  0
 18 23  1  0
 19 18  2  0
 19 20  1  0
 20 21  2  0
 21 22  1  0
 23 22  2  0
  1 24  1  6
  2 25  1  0
  2 26  1  0
  2 27  1  0
  3 28  1  0
  3 29  1  0
  4 30  1  0
  6 31  1  0
  7 32  1  0
  9 33  1  0
 10 34  1  0
 11 35  1  0
 12 36  1  0
 15 37  1  6
 16 38  1  0
 16 39  1  0
 17 40  1  6
 19 41  1  0
 20 42  1  0
 22 43  1  0
M  ISO  8  24   8  25   8  26   8  27   8  28   8  29   8  31  14  32   9
M  ISO  8  33  14  34  14  35  14  36  14  37  13  38  13  39  13  40  13
M  ISO  3  41  14  42  14  43  14
M  END
>  <minimizedAffinity>  (1) 
-4.69189262

>  <minimizedRMSD>  (1) 
1.56654429

$$$$
