
     RDKit          3D

 36 38  0  0  1  0  0  0  0  0999 V2000
   44.1880   34.3760   42.1530 S   0  0  0  0  0  0  0  0  0  0  0  0
   42.3050   35.2110   40.2560 C   0  0  1  0  0  0  0  0  0  0  0  0
   41.6960   35.4710   41.5700 C   0  0  0  0  0  0  0  0  0  0  0  0
   43.1290   35.6160   41.4430 C   0  0  1  0  0  0  0  0  0  0  0  0
   42.4120   33.8180   39.7110 C   0  0  0  0  0  0  0  0  0  0  0  0
   43.3020   33.6680   38.6430 C   0  0  0  0  0  0  0  0  0  0  0  0
   43.4320   32.4020   38.0830 C   0  0  0  0  0  0  0  0  0  0  0  0
   42.6840   31.3960   38.6130 N   0  0  0  0  0  0  0  0  0  0  0  0
   41.8350   31.5990   39.6520 C   0  0  0  0  0  0  0  0  0  0  0  0
   41.6850   32.7980   40.2140 N   0  0  0  0  0  0  0  0  0  0  0  0
   45.2930   35.0120   43.4180 C   0  0  1  0  0  0  0  0  0  0  0  0
   44.5740   35.7710   44.5150 C   0  0  0  0  0  0  0  0  0  0  0  0
   46.1630   33.9600   44.0320 C   0  0  0  0  0  0  0  0  0  0  0  0
   47.5580   34.1240   43.6440 N   0  0  0  0  0  0  0  0  0  0  0  0
   47.9500   34.4780   42.3160 C   0  0  0  0  0  0  0  0  0  0  0  0
   48.6970   35.5750   41.8730 C   0  0  0  0  0  0  0  0  0  0  0  0
   48.8390   35.5200   40.5020 C   0  0  0  0  0  0  0  0  0  0  0  0
   48.1610   34.3700   40.1580 C   0  0  0  0  0  0  0  0  0  0  0  0
   47.6680   33.8050   41.2230 O   0  0  0  0  0  0  0  0  0  0  0  0
   42.1451   35.5844   39.2337 H   0  0  0  0  0  0  0  0  0  0  0  0
   41.0688   36.3633   41.7126 H   0  0  0  0  0  0  0  0  0  0  0  0
   41.0403   34.8938   42.2386 H   0  0  0  0  0  0  0  0  0  0  0  0
   43.8420   36.4216   41.6724 H   0  0  0  0  0  0  0  0  0  0  0  0
   43.8793   34.5220   38.2591 H   0  0  0  0  0  0  0  0  0  0  0  0
   44.1157   32.2198   37.2408 H   0  0  0  0  0  0  0  0  0  0  0  0
   41.2542   30.7498   40.0413 H   0  0  0  0  0  0  0  0  0  0  0  0
   45.9378   35.7171   42.8730 H   0  0  0  0  0  0  0  0  0  0  0  0
   44.9163   35.4096   45.4959 H   0  0  0  0  0  0  0  0  0  0  0  0
   44.7939   36.8448   44.4227 H   0  0  0  0  0  0  0  0  0  0  0  0
   43.4898   35.6095   44.4227 H   0  0  0  0  0  0  0  0  0  0  0  0
   46.0867   34.0282   45.1272 H   0  0  0  0  0  0  0  0  0  0  0  0
   45.8197   32.9779   43.6747 H   0  0  0  0  0  0  0  0  0  0  0  0
   48.2898   33.9792   44.3542 H   0  0  0  0  0  0  0  0  0  0  0  0
   49.1091   36.3629   42.5206 H   0  0  0  0  0  0  0  0  0  0  0  0
   49.3664   36.2244   39.8419 H   0  0  0  0  0  0  0  0  0  0  0  0
   48.0522   33.9855   39.1332 H   0  0  0  0  0  0  0  0  0  0  0  0
  1 11  1  0
  2  4  1  0
  2  3  1  0
  4  3  1  0
  4  1  1  0
  5 10  1  0
  5  2  1  0
  6  5  2  0
  7  8  2  0
  7  6  1  0
  8  9  1  0
  9 10  2  0
 11 13  1  0
 11 12  1  0
 14 13  1  0
 15 14  1  0
 16 15  2  0
 17 16  1  0
 18 17  2  0
 18 19  1  0
 19 15  1  0
  2 20  1  6
  3 21  1  0
  3 22  1  0
  4 23  1  6
  6 24  1  0
  7 25  1  0
  9 26  1  0
 11 27  1  6
 12 28  1  0
 12 29  1  0
 12 30  1  0
 13 31  1  0
 13 32  1  0
 14 33  1  0
 16 34  1  0
 17 35  1  0
 18 36  1  0
M  ISO  8  20  13  21  13  22  13  23  13  24  14  25  14  26  14  27   8
M  ISO  8  28   8  29   8  30   8  31   8  32   8  34  14  35  14  36  14
M  END
>  <minimizedAffinity>  (1) 
-4.48114204

>  <minimizedRMSD>  (1) 
5.33412218

$$$$
