
     RDKit          3D

 35 37  0  0  1  0  0  0  0  0999 V2000
   47.6720   34.7540   42.7440 S   0  0  0  0  0  0  0  0  0  0  0  0
   44.9480   34.4410   43.3450 C   0  0  1  0  0  0  0  0  0  0  0  0
   45.2230   35.8810   43.4640 C   0  0  0  0  0  0  0  0  0  0  0  0
   45.9510   35.1320   42.4660 C   0  0  1  0  0  0  0  0  0  0  0  0
   45.4250   33.4800   44.3990 C   0  0  0  0  0  0  0  0  0  0  0  0
   45.5500   32.1500   43.9900 C   0  0  0  0  0  0  0  0  0  0  0  0
   45.9620   31.2200   44.9220 C   0  0  0  0  0  0  0  0  0  0  0  0
   46.2230   31.6470   46.1890 N   0  0  0  0  0  0  0  0  0  0  0  0
   46.0870   32.9550   46.5450 C   0  0  0  0  0  0  0  0  0  0  0  0
   45.6900   33.8770   45.6620 N   0  0  0  0  0  0  0  0  0  0  0  0
   48.5610   34.3510   41.2310 C   0  0  1  0  0  0  0  0  0  0  0  0
   49.3520   33.0630   41.3210 C   0  0  0  0  0  0  0  0  0  0  0  0
   47.6940   34.3540   40.0170 C   0  0  0  0  0  0  0  0  0  0  0  0
   48.4420   34.4380   38.7880 N   0  0  0  0  0  0  0  0  0  0  0  0
   47.9900   33.7000   37.6660 C   0  0  0  0  0  0  0  0  0  0  0  0
   48.9720   33.2430   36.7150 C   0  0  0  0  0  0  0  0  0  0  0  0
   47.9350   32.3300   35.4240 S   0  0  0  0  0  0  0  0  0  0  0  0
   46.3940   32.7460   36.4210 C   0  0  0  0  0  0  0  0  0  0  0  0
   46.7700   33.3480   37.3330 N   0  0  0  0  0  0  0  0  0  0  0  0
   44.0481   33.8266   43.1941 H   0  0  0  0  0  0  0  0  0  0  0  0
   44.4603   36.6086   43.1495 H   0  0  0  0  0  0  0  0  0  0  0  0
   45.5188   36.5380   44.2952 H   0  0  0  0  0  0  0  0  0  0  0  0
   46.1074   35.2480   41.3834 H   0  0  0  0  0  0  0  0  0  0  0  0
   45.3264   31.8529   42.9548 H   0  0  0  0  0  0  0  0  0  0  0  0
   46.0768   30.1606   44.6490 H   0  0  0  0  0  0  0  0  0  0  0  0
   46.3081   33.2584   47.5790 H   0  0  0  0  0  0  0  0  0  0  0  0
   49.2859   35.1707   41.1182 H   0  0  0  0  0  0  0  0  0  0  0  0
   49.5113   32.8036   42.3781 H   0  0  0  0  0  0  0  0  0  0  0  0
   48.7943   32.2548   40.8252 H   0  0  0  0  0  0  0  0  0  0  0  0
   50.3250   33.1949   40.8252 H   0  0  0  0  0  0  0  0  0  0  0  0
   47.1048   33.4252   40.0054 H   0  0  0  0  0  0  0  0  0  0  0  0
   47.0543   35.2471   40.0732 H   0  0  0  0  0  0  0  0  0  0  0  0
   49.2878   35.0225   38.7265 H   0  0  0  0  0  0  0  0  0  0  0  0
   50.0620   33.3899   36.7353 H   0  0  0  0  0  0  0  0  0  0  0  0
   45.3546   32.4736   36.1854 H   0  0  0  0  0  0  0  0  0  0  0  0
  2  3  1  0
  2  5  1  0
  4  1  1  0
  4  2  1  0
  4  3  1  0
  5 10  1  0
  6  5  2  0
  6  7  1  0
  7  8  2  0
  8  9  1  0
 10  9  2  0
 11 12  1  0
 11  1  1  0
 13 11  1  0
 14 13  1  0
 15 14  1  0
 16 15  2  0
 17 18  1  0
 17 16  1  0
 18 19  2  0
 19 15  1  0
  2 20  1  6
  3 21  1  0
  3 22  1  0
  4 23  1  6
  6 24  1  0
  7 25  1  0
  9 26  1  0
 11 27  1  6
 12 28  1  0
 12 29  1  0
 12 30  1  0
 13 31  1  0
 13 32  1  0
 14 33  1  0
 16 34  1  0
 18 35  1  0
M  ISO  8  20  13  21  13  22  13  23  13  24  14  25  14  26  14  27   8
M  ISO  7  28   8  29   8  30   8  31   8  32   8  34  14  35  14
M  END
>  <minimizedAffinity>  (1) 
-4.19937229

>  <minimizedRMSD>  (1) 
1.26179016

$$$$
