
     RDKit          3D

 39 41  0  0  1  0  0  0  0  0999 V2000
   47.9300   35.1460   41.2890 C   0  0  1  0  0  0  0  0  0  0  0  0
   49.1970   35.9800   41.3630 C   0  0  0  0  0  0  0  0  0  0  0  0
   48.1330   34.0080   40.3370 C   0  0  0  0  0  0  0  0  0  0  0  0
   49.4520   33.4300   40.4850 N   0  0  0  0  0  0  0  0  0  0  0  0
   49.7300   32.3180   41.3220 C   0  0  0  0  0  0  0  0  0  0  0  0
   50.9790   32.1140   41.8940 C   0  0  0  0  0  0  0  0  0  0  0  0
   51.2580   31.0340   42.7090 C   0  0  0  0  0  0  0  0  0  0  0  0
   50.2620   30.1150   42.9710 C   0  0  0  0  0  0  0  0  0  0  0  0
   48.9950   30.2790   42.4180 C   0  0  0  0  0  0  0  0  0  0  0  0
   48.7630   31.3740   41.6100 C   0  0  0  0  0  0  0  0  0  0  0  0
   47.3090   34.6420   42.8970 S   0  0  0  0  0  0  0  0  0  0  0  0
   44.8850   33.9120   44.0920 C   0  0  1  0  0  0  0  0  0  0  0  0
   44.9600   35.3780   44.2040 C   0  0  0  0  0  0  0  0  0  0  0  0
   45.5350   34.7540   43.0340 C   0  0  1  0  0  0  0  0  0  0  0  0
   45.7220   33.0320   44.9700 C   0  0  0  0  0  0  0  0  0  0  0  0
   45.9250   31.7340   44.4950 C   0  0  0  0  0  0  0  0  0  0  0  0
   46.6770   30.8640   45.2710 C   0  0  0  0  0  0  0  0  0  0  0  0
   47.1680   31.3350   46.4490 N   0  0  0  0  0  0  0  0  0  0  0  0
   46.9480   32.6000   46.8740 C   0  0  0  0  0  0  0  0  0  0  0  0
   46.2280   33.4580   46.1460 N   0  0  0  0  0  0  0  0  0  0  0  0
   47.1243   35.7804   40.8909 H   0  0  0  0  0  0  0  0  0  0  0  0
   49.4607   36.1536   42.4167 H   0  0  0  0  0  0  0  0  0  0  0  0
   50.0178   35.4451   40.8629 H   0  0  0  0  0  0  0  0  0  0  0  0
   49.0302   36.9455   40.8629 H   0  0  0  0  0  0  0  0  0  0  0  0
   48.0164   34.3766   39.3072 H   0  0  0  0  0  0  0  0  0  0  0  0
   47.3859   33.2316   40.5582 H   0  0  0  0  0  0  0  0  0  0  0  0
   50.2299   33.8479   39.9548 H   0  0  0  0  0  0  0  0  0  0  0  0
   51.7783   32.8417   41.6899 H   0  0  0  0  0  0  0  0  0  0  0  0
   52.2607   30.9081   43.1434 H   0  0  0  0  0  0  0  0  0  0  0  0
   50.4700   29.2505   43.6186 H   0  0  0  0  0  0  0  0  0  0  0  0
   48.1954   29.5513   42.6206 H   0  0  0  0  0  0  0  0  0  0  0  0
   47.7608   31.5010   41.1748 H   0  0  0  0  0  0  0  0  0  0  0  0
   44.0799   33.1632   44.1254 H   0  0  0  0  0  0  0  0  0  0  0  0
   44.0441   35.9793   44.1061 H   0  0  0  0  0  0  0  0  0  0  0  0
   45.3415   36.0698   44.9694 H   0  0  0  0  0  0  0  0  0  0  0  0
   45.4115   34.8989   41.9506 H   0  0  0  0  0  0  0  0  0  0  0  0
   45.5006   31.4110   43.5330 H   0  0  0  0  0  0  0  0  0  0  0  0
   46.8692   29.8310   44.9456 H   0  0  0  0  0  0  0  0  0  0  0  0
   47.3692   32.9280   47.8358 H   0  0  0  0  0  0  0  0  0  0  0  0
  1  2  1  0
  1 11  1  0
  3  4  1  0
  3  1  1  0
  4  5  1  0
  5 10  1  0
  5  6  2  0
  6  7  1  0
  7  8  2  0
  9  8  1  0
 10  9  2  0
 11 14  1  0
 12 13  1  0
 12 15  1  0
 14 12  1  0
 14 13  1  0
 15 20  1  0
 16 15  2  0
 16 17  1  0
 17 18  2  0
 18 19  1  0
 20 19  2  0
  1 21  1  6
  2 22  1  0
  2 23  1  0
  2 24  1  0
  3 25  1  0
  3 26  1  0
  4 27  1  0
  6 28  1  0
  7 29  1  0
  8 30  1  0
  9 31  1  0
 10 32  1  0
 12 33  1  6
 13 34  1  0
 13 35  1  0
 14 36  1  6
 16 37  1  0
 17 38  1  0
 19 39  1  0
M  ISO  8  21   8  22   8  23   8  24   8  25   8  26   8  28  14  29  14
M  ISO  8  30  14  31  14  32  14  33  13  34  13  35  13  36  13  37  14
M  ISO  2  38  14  39  14
M  END
>  <minimizedAffinity>  (1) 
-4.16835213

>  <minimizedRMSD>  (1) 
4.25192547

$$$$
