
     RDKit          3D

 41 43  0  0  1  0  0  0  0  0999 V2000
   47.2850   34.9880   42.1440 S   0  0  0  0  0  0  0  0  0  0  0  0
   44.7420   33.8600   42.4210 C   0  0  1  0  0  0  0  0  0  0  0  0
   44.5170   35.2770   42.0860 C   0  0  0  0  0  0  0  0  0  0  0  0
   45.6640   34.6140   41.5090 C   0  0  1  0  0  0  0  0  0  0  0  0
   45.1990   33.4430   43.7800 C   0  0  0  0  0  0  0  0  0  0  0  0
   45.6660   32.1290   43.8760 C   0  0  0  0  0  0  0  0  0  0  0  0
   46.0950   31.6750   45.1190 C   0  0  0  0  0  0  0  0  0  0  0  0
   46.0310   32.5450   46.1690 N   0  0  0  0  0  0  0  0  0  0  0  0
   45.5670   33.8160   46.0150 C   0  0  0  0  0  0  0  0  0  0  0  0
   45.1490   34.2790   44.8380 N   0  0  0  0  0  0  0  0  0  0  0  0
   48.5830   33.9390   41.5040 C   0  0  1  0  0  0  0  0  0  0  0  0
   49.0710   32.8920   42.5130 C   0  0  0  0  0  0  0  0  0  0  0  0
   48.2120   33.2040   40.2390 C   0  0  0  0  0  0  0  0  0  0  0  0
   48.8930   31.9500   40.0860 N   0  0  0  0  0  0  0  0  0  0  0  0
   51.1200   31.8700   39.1790 N   0  0  0  0  0  0  0  0  0  0  0  0
   51.6520   31.7060   37.8230 C   0  0  0  0  0  0  0  0  0  0  0  0
   50.6800   30.7740   37.1310 C   0  0  0  0  0  0  0  0  0  0  0  0
   49.4900   30.7060   38.0550 C   0  0  0  0  0  0  0  0  0  0  0  0
   49.6860   31.9610   38.9060 C   0  0  1  0  0  0  0  0  0  0  0  0
   44.1446   32.9382   42.3628 H   0  0  0  0  0  0  0  0  0  0  0  0
   43.6692   35.5569   41.4434 H   0  0  0  0  0  0  0  0  0  0  0  0
   44.3790   36.1927   42.6797 H   0  0  0  0  0  0  0  0  0  0  0  0
   46.0389   34.4889   40.4824 H   0  0  0  0  0  0  0  0  0  0  0  0
   45.6935   31.4726   42.9937 H   0  0  0  0  0  0  0  0  0  0  0  0
   46.4727   30.6504   45.2512 H   0  0  0  0  0  0  0  0  0  0  0  0
   45.5364   34.4815   46.8903 H   0  0  0  0  0  0  0  0  0  0  0  0
   49.3878   34.6562   41.2851 H   0  0  0  0  0  0  0  0  0  0  0  0
   48.8994   33.2601   43.5353 H   0  0  0  0  0  0  0  0  0  0  0  0
   48.5177   31.9531   42.3637 H   0  0  0  0  0  0  0  0  0  0  0  0
   50.1458   32.7119   42.3637 H   0  0  0  0  0  0  0  0  0  0  0  0
   47.1288   33.0129   40.2521 H   0  0  0  0  0  0  0  0  0  0  0  0
   48.5125   33.8411   39.3941 H   0  0  0  0  0  0  0  0  0  0  0  0
   49.5006   31.7913   40.9024 H   0  0  0  0  0  0  0  0  0  0  0  0
   51.3413   31.0582   39.7731 H   0  0  0  0  0  0  0  0  0  0  0  0
   51.6942   32.6752   37.3044 H   0  0  0  0  0  0  0  0  0  0  0  0
   52.6767   31.3060   37.8267 H   0  0  0  0  0  0  0  0  0  0  0  0
   50.3871   31.1775   36.1505 H   0  0  0  0  0  0  0  0  0  0  0  0
   51.1173   29.7824   36.9423 H   0  0  0  0  0  0  0  0  0  0  0  0
   48.5444   30.7453   37.4944 H   0  0  0  0  0  0  0  0  0  0  0  0
   49.4306   29.7756   38.6387 H   0  0  0  0  0  0  0  0  0  0  0  0
   49.3760   32.8987   38.4217 H   0  0  0  0  0  0  0  0  0  0  0  0
  2  5  1  0
  3  2  1  0
  4  3  1  0
  4  1  1  0
  4  2  1  0
  5  6  2  0
  5 10  1  0
  6  7  1  0
  7  8  2  0
  9  8  1  0
 10  9  2  0
 11  1  1  0
 11 12  1  0
 13 11  1  0
 14 13  1  0
 16 15  1  0
 17 16  1  0
 17 18  1  0
 18 19  1  0
 19 15  1  0
 19 14  1  0
  2 20  1  6
  3 21  1  0
  3 22  1  0
  4 23  1  6
  6 24  1  0
  7 25  1  0
  9 26  1  0
 11 27  1  6
 12 28  1  0
 12 29  1  0
 12 30  1  0
 13 31  1  0
 13 32  1  0
 14 33  1  0
 15 34  1  0
 16 35  1  0
 16 36  1  0
 17 37  1  0
 17 38  1  0
 18 39  1  0
 18 40  1  0
 19 41  1  6
M  ISO  8  20  13  21  13  22  13  23  13  24  14  25  14  26  14  27   8
M  ISO  8  28   8  29   8  30   8  31   8  32   8  33   5  34   5  35  13
M  ISO  6  36  13  37  13  38  13  39  13  40  13  41  13
M  END
>  <minimizedAffinity>  (1) 
-3.70917606

>  <minimizedRMSD>  (1) 
1.80467415

$$$$
