
     RDKit          3D

 37 39  0  0  1  0  0  0  0  0999 V2000
   48.2900   33.9350   41.3160 C   0  0  1  0  0  0  0  0  0  0  0  0
   48.3920   32.4470   41.5640 C   0  0  0  0  0  0  0  0  0  0  0  0
   47.5830   34.1810   40.0120 C   0  0  0  0  0  0  0  0  0  0  0  0
   48.4960   34.5840   38.9550 N   0  0  0  0  0  0  0  0  0  0  0  0
   48.0890   33.8260   37.7950 C   0  0  0  0  0  0  0  0  0  0  0  0
   48.9360   33.4930   36.7650 C   0  0  0  0  0  0  0  0  0  0  0  0
   48.3580   32.7480   35.7350 C   0  0  0  0  0  0  0  0  0  0  0  0
   47.0630   32.3860   35.7590 N   0  0  0  0  0  0  0  0  0  0  0  0
   46.2540   32.7340   36.7980 C   0  0  0  0  0  0  0  0  0  0  0  0
   46.7720   33.4610   37.8270 N   0  0  0  0  0  0  0  0  0  0  0  0
   47.5670   34.8480   42.6840 S   0  0  0  0  0  0  0  0  0  0  0  0
   44.8620   34.5250   43.3540 C   0  0  1  0  0  0  0  0  0  0  0  0
   45.1470   35.9620   43.4930 C   0  0  0  0  0  0  0  0  0  0  0  0
   45.8410   35.2280   42.4590 C   0  0  1  0  0  0  0  0  0  0  0  0
   45.3640   33.5450   44.3780 C   0  0  0  0  0  0  0  0  0  0  0  0
   45.4730   32.2210   43.9290 C   0  0  0  0  0  0  0  0  0  0  0  0
   45.9130   31.2710   44.8390 C   0  0  0  0  0  0  0  0  0  0  0  0
   46.2140   31.6720   46.1080 N   0  0  0  0  0  0  0  0  0  0  0  0
   46.0880   32.9710   46.4870 C   0  0  0  0  0  0  0  0  0  0  0  0
   45.6680   33.9140   45.6410 N   0  0  0  0  0  0  0  0  0  0  0  0
   49.3132   34.3319   41.2420 H   0  0  0  0  0  0  0  0  0  0  0  0
   48.4051   32.2559   42.6472 H   0  0  0  0  0  0  0  0  0  0  0  0
   47.5265   31.9399   41.1126 H   0  0  0  0  0  0  0  0  0  0  0  0
   49.3186   32.0627   41.1126 H   0  0  0  0  0  0  0  0  0  0  0  0
   47.0743   33.2551   39.7056 H   0  0  0  0  0  0  0  0  0  0  0  0
   46.8668   35.0012   40.1679 H   0  0  0  0  0  0  0  0  0  0  0  0
   49.2671   35.2638   39.0195 H   0  0  0  0  0  0  0  0  0  0  0  0
   49.9944   33.7922   36.7529 H   0  0  0  0  0  0  0  0  0  0  0  0
   48.9802   32.4484   34.8788 H   0  0  0  0  0  0  0  0  0  0  0  0
   45.1963   32.4320   36.8061 H   0  0  0  0  0  0  0  0  0  0  0  0
   43.9563   33.9161   43.2164 H   0  0  0  0  0  0  0  0  0  0  0  0
   44.3788   36.6988   43.2156 H   0  0  0  0  0  0  0  0  0  0  0  0
   45.4706   36.6018   44.3272 H   0  0  0  0  0  0  0  0  0  0  0  0
   45.9644   35.3592   41.3738 H   0  0  0  0  0  0  0  0  0  0  0  0
   45.2192   31.9462   42.8945 H   0  0  0  0  0  0  0  0  0  0  0  0
   46.0171   30.2165   44.5438 H   0  0  0  0  0  0  0  0  0  0  0  0
   46.3392   33.2532   47.5201 H   0  0  0  0  0  0  0  0  0  0  0  0
  1  2  1  0
  1 11  1  0
  3  1  1  0
  4  3  1  0
  5 10  1  0
  5  4  1  0
  6  5  2  0
  7  8  2  0
  7  6  1  0
  8  9  1  0
  9 10  2  0
 12 13  1  0
 12 15  1  0
 14 11  1  0
 14 12  1  0
 14 13  1  0
 15 20  1  0
 16 15  2  0
 16 17  1  0
 17 18  2  0
 18 19  1  0
 20 19  2  0
  1 21  1  6
  2 22  1  0
  2 23  1  0
  2 24  1  0
  3 25  1  0
  3 26  1  0
  4 27  1  0
  6 28  1  0
  7 29  1  0
  9 30  1  0
 12 31  1  6
 13 32  1  0
 13 33  1  0
 14 34  1  6
 16 35  1  0
 17 36  1  0
 19 37  1  0
M  ISO  8  21   8  22   8  23   8  24   8  25   8  26   8  28  14  29  14
M  ISO  8  30  14  31  13  32  13  33  13  34  13  35  14  36  14  37  14
M  END
>  <minimizedAffinity>  (1) 
-4.32321453

>  <minimizedRMSD>  (1) 
1.45421386

$$$$
