
     RDKit          3D

 49 52  0  0  1  0  0  0  0  0999 V2000
   47.6970   34.7430   42.6850 S   0  0  0  0  0  0  0  0  0  0  0  0
   44.9400   34.4120   43.0830 C   0  0  1  0  0  0  0  0  0  0  0  0
   45.2410   35.7620   43.5290 C   0  0  0  0  0  0  0  0  0  0  0  0
   46.0230   35.2490   42.4300 C   0  0  1  0  0  0  0  0  0  0  0  0
   45.3360   33.2030   43.8960 C   0  0  0  0  0  0  0  0  0  0  0  0
   45.3710   32.0030   43.2000 C   0  0  0  0  0  0  0  0  0  0  0  0
   45.7050   30.8700   43.9180 C   0  0  0  0  0  0  0  0  0  0  0  0
   45.9770   31.0010   45.2580 N   0  0  0  0  0  0  0  0  0  0  0  0
   45.9300   32.1940   45.8920 C   0  0  0  0  0  0  0  0  0  0  0  0
   45.6100   33.3060   45.2240 N   0  0  0  0  0  0  0  0  0  0  0  0
   46.2310   32.2080   47.2860 N   0  0  0  0  0  0  0  0  0  0  0  0
   47.5650   32.0840   47.8520 C   0  0  0  0  0  0  0  0  0  0  0  0
   47.3140   31.1010   48.9760 C   0  0  0  0  0  0  0  0  0  0  0  0
   45.8560   31.2790   49.3420 C   0  0  0  0  0  0  0  0  0  0  0  0
   45.3160   32.3420   48.4080 C   0  0  0  0  0  0  0  0  0  0  0  0
   48.4690   33.9990   41.2390 C   0  0  1  0  0  0  0  0  0  0  0  0
   48.6960   32.5040   41.3670 C   0  0  0  0  0  0  0  0  0  0  0  0
   47.6940   34.2970   39.9740 C   0  0  0  0  0  0  0  0  0  0  0  0
   48.5340   34.5950   38.8710 N   0  0  0  0  0  0  0  0  0  0  0  0
   48.1070   33.8310   37.7360 C   0  0  0  0  0  0  0  0  0  0  0  0
   48.9080   33.4700   36.6940 C   0  0  0  0  0  0  0  0  0  0  0  0
   48.2820   32.7160   35.7060 C   0  0  0  0  0  0  0  0  0  0  0  0
   46.9820   32.3750   35.7860 N   0  0  0  0  0  0  0  0  0  0  0  0
   46.2120   32.7540   36.8450 C   0  0  0  0  0  0  0  0  0  0  0  0
   46.7900   33.4960   37.8370 N   0  0  0  0  0  0  0  0  0  0  0  0
   44.0274   33.8876   42.7632 H   0  0  0  0  0  0  0  0  0  0  0  0
   44.5139   36.5669   43.3464 H   0  0  0  0  0  0  0  0  0  0  0  0
   45.4989   36.1989   44.5050 H   0  0  0  0  0  0  0  0  0  0  0  0
   46.2566   35.6142   41.4190 H   0  0  0  0  0  0  0  0  0  0  0  0
   45.1431   31.9555   42.1249 H   0  0  0  0  0  0  0  0  0  0  0  0
   45.7519   29.8864   43.4277 H   0  0  0  0  0  0  0  0  0  0  0  0
   48.2794   31.6836   47.1176 H   0  0  0  0  0  0  0  0  0  0  0  0
   48.0101   33.0367   48.1748 H   0  0  0  0  0  0  0  0  0  0  0  0
   47.5037   30.0717   48.6376 H   0  0  0  0  0  0  0  0  0  0  0  0
   47.9779   31.2805   49.8345 H   0  0  0  0  0  0  0  0  0  0  0  0
   45.3093   30.3347   49.2027 H   0  0  0  0  0  0  0  0  0  0  0  0
   45.7388   31.5723   50.3957 H   0  0  0  0  0  0  0  0  0  0  0  0
   45.3722   33.3437   48.8589 H   0  0  0  0  0  0  0  0  0  0  0  0
   44.2541   32.2225   48.1469 H   0  0  0  0  0  0  0  0  0  0  0  0
   49.4614   34.4691   41.1743 H   0  0  0  0  0  0  0  0  0  0  0  0
   48.7377   32.2293   42.4313 H   0  0  0  0  0  0  0  0  0  0  0  0
   47.8694   31.9647   40.8812 H   0  0  0  0  0  0  0  0  0  0  0  0
   49.6454   32.2344   40.8812 H   0  0  0  0  0  0  0  0  0  0  0  0
   47.0818   33.4186   39.7220 H   0  0  0  0  0  0  0  0  0  0  0  0
   47.0744   35.1851   40.1672 H   0  0  0  0  0  0  0  0  0  0  0  0
   49.3246   35.2550   38.8835 H   0  0  0  0  0  0  0  0  0  0  0  0
   49.9694   33.7533   36.6382 H   0  0  0  0  0  0  0  0  0  0  0  0
   48.8667   32.3888   34.8336 H   0  0  0  0  0  0  0  0  0  0  0  0
   45.1508   32.4696   36.9000 H   0  0  0  0  0  0  0  0  0  0  0  0
  2  3  1  0
  2  5  1  0
  4  1  1  0
  4  2  1  0
  4  3  1  0
  5 10  1  0
  6  5  2  0
  6  7  1  0
  7  8  2  0
  8  9  1  0
  9 11  1  0
 10  9  2  0
 11 12  1  0
 11 15  1  0
 12 13  1  0
 13 14  1  0
 15 14  1  0
 16 17  1  0
 16  1  1  0
 18 16  1  0
 19 18  1  0
 20 25  1  0
 20 19  1  0
 21 20  2  0
 22 23  2  0
 22 21  1  0
 23 24  1  0
 24 25  2  0
  2 26  1  6
  3 27  1  0
  3 28  1  0
  4 29  1  6
  6 30  1  0
  7 31  1  0
 12 32  1  0
 12 33  1  0
 13 34  1  0
 13 35  1  0
 14 36  1  0
 14 37  1  0
 15 38  1  0
 15 39  1  0
 16 40  1  6
 17 41  1  0
 17 42  1  0
 17 43  1  0
 18 44  1  0
 18 45  1  0
 19 46  1  0
 21 47  1  0
 22 48  1  0
 24 49  1  0
M  ISO  8  26  13  27  13  28  13  29  13  30  14  31  14  32  13  33  13
M  ISO  8  34  13  35  13  36  13  37  13  38  13  39  13  40   8  41   8
M  ISO  7  42   8  43   8  44   8  45   8  47  14  48  14  49  14
M  END
>  <minimizedAffinity>  (1) 
-5.46810818

>  <minimizedRMSD>  (1) 
0.806308806

$$$$
