
     RDKit          3D

 44 47  0  0  1  0  0  0  0  0999 V2000
   47.7040   34.7690   42.6260 S   0  0  0  0  0  0  0  0  0  0  0  0
   44.9300   34.4670   42.9200 C   0  0  1  0  0  0  0  0  0  0  0  0
   45.2450   35.7710   43.4840 C   0  0  0  0  0  0  0  0  0  0  0  0
   46.0480   35.3290   42.3680 C   0  0  1  0  0  0  0  0  0  0  0  0
   45.2780   33.1880   43.6450 C   0  0  0  0  0  0  0  0  0  0  0  0
   45.2170   32.0330   42.8740 C   0  0  0  0  0  0  0  0  0  0  0  0
   45.5020   30.8400   43.5030 C   0  0  0  0  0  0  0  0  0  0  0  0
   45.8230   30.8580   44.8260 N   0  0  0  0  0  0  0  0  0  0  0  0
   45.8730   32.0160   45.5490 C   0  0  0  0  0  0  0  0  0  0  0  0
   45.6000   33.1960   44.9650 N   0  0  0  0  0  0  0  0  0  0  0  0
   46.2210   31.9040   46.9290 N   0  0  0  0  0  0  0  0  0  0  0  0
   47.3420   31.4050   47.4840 C   0  0  0  0  0  0  0  0  0  0  0  0
   47.1980   31.5210   48.8610 C   0  0  0  0  0  0  0  0  0  0  0  0
   45.9940   32.0890   49.1630 N   0  0  0  0  0  0  0  0  0  0  0  0
   45.4300   32.3060   47.9440 C   0  0  0  0  0  0  0  0  0  0  0  0
   48.4510   33.9910   41.1860 C   0  0  1  0  0  0  0  0  0  0  0  0
   48.6510   32.4930   41.3360 C   0  0  0  0  0  0  0  0  0  0  0  0
   47.6710   34.2810   39.9220 C   0  0  0  0  0  0  0  0  0  0  0  0
   48.5180   34.5790   38.8200 N   0  0  0  0  0  0  0  0  0  0  0  0
   48.0910   33.8140   37.6840 C   0  0  0  0  0  0  0  0  0  0  0  0
   48.8960   33.4420   36.6500 C   0  0  0  0  0  0  0  0  0  0  0  0
   48.2680   32.6880   35.6660 C   0  0  0  0  0  0  0  0  0  0  0  0
   46.9740   32.3550   35.7350 N   0  0  0  0  0  0  0  0  0  0  0  0
   46.1980   32.7440   36.7850 C   0  0  0  0  0  0  0  0  0  0  0  0
   46.7700   33.4880   37.7770 N   0  0  0  0  0  0  0  0  0  0  0  0
   44.0174   33.9907   42.5322 H   0  0  0  0  0  0  0  0  0  0  0  0
   44.5403   36.6045   43.3474 H   0  0  0  0  0  0  0  0  0  0  0  0
   45.4829   36.1221   44.4989 H   0  0  0  0  0  0  0  0  0  0  0  0
   46.3180   35.7680   41.3962 H   0  0  0  0  0  0  0  0  0  0  0  0
   44.9524   32.0695   41.8069 H   0  0  0  0  0  0  0  0  0  0  0  0
   45.4707   29.8916   42.9467 H   0  0  0  0  0  0  0  0  0  0  0  0
   48.2068   30.9855   46.9491 H   0  0  0  0  0  0  0  0  0  0  0  0
   47.9463   31.2012   49.6011 H   0  0  0  0  0  0  0  0  0  0  0  0
   44.4379   32.7595   47.8022 H   0  0  0  0  0  0  0  0  0  0  0  0
   49.4502   34.4441   41.1061 H   0  0  0  0  0  0  0  0  0  0  0  0
   48.6857   32.2329   42.4042 H   0  0  0  0  0  0  0  0  0  0  0  0
   47.8158   31.9617   40.8562 H   0  0  0  0  0  0  0  0  0  0  0  0
   49.5963   32.1994   40.8562 H   0  0  0  0  0  0  0  0  0  0  0  0
   47.0627   33.3993   39.6719 H   0  0  0  0  0  0  0  0  0  0  0  0
   47.0421   35.1636   40.1105 H   0  0  0  0  0  0  0  0  0  0  0  0
   49.3099   35.2374   38.8347 H   0  0  0  0  0  0  0  0  0  0  0  0
   49.9598   33.7169   36.5980 H   0  0  0  0  0  0  0  0  0  0  0  0
   48.8561   32.3528   34.7989 H   0  0  0  0  0  0  0  0  0  0  0  0
   45.1350   32.4652   36.8326 H   0  0  0  0  0  0  0  0  0  0  0  0
  2  3  1  0
  2  5  1  0
  4  1  1  0
  4  2  1  0
  4  3  1  0
  5 10  2  0
  6  7  2  0
  6  5  1  0
  7  8  1  0
  8  9  2  0
  9 11  1  0
 10  9  1  0
 11 12  1  0
 11 15  1  0
 12 13  2  0
 13 14  1  0
 15 14  2  0
 16 17  1  0
 16  1  1  0
 18 16  1  0
 19 18  1  0
 20 25  1  0
 20 19  1  0
 21 20  2  0
 22 23  2  0
 22 21  1  0
 23 24  1  0
 24 25  2  0
  2 26  1  6
  3 27  1  0
  3 28  1  0
  4 29  1  6
  6 30  1  0
  7 31  1  0
 12 32  1  0
 13 33  1  0
 15 34  1  0
 16 35  1  6
 17 36  1  0
 17 37  1  0
 17 38  1  0
 18 39  1  0
 18 40  1  0
 19 41  1  0
 21 42  1  0
 22 43  1  0
 24 44  1  0
M  ISO  8  26  13  27  13  28  13  29  13  30  14  31  14  32  14  33  14
M  ISO  8  34  14  35   8  36   8  37   8  38   8  39   8  40   8  42  14
M  ISO  2  43  14  44  14
M  END
>  <minimizedAffinity>  (1) 
-5.15298748

>  <minimizedRMSD>  (1) 
1.07036483

$$$$
