
     RDKit          3D

 43 46  0  0  1  0  0  0  0  0999 V2000
   47.6770   34.7540   42.7150 S   0  0  0  0  0  0  0  0  0  0  0  0
   44.8950   34.4820   42.9800 C   0  0  1  0  0  0  0  0  0  0  0  0
   45.2290   35.7590   43.5920 C   0  0  0  0  0  0  0  0  0  0  0  0
   46.0310   35.3450   42.4650 C   0  0  1  0  0  0  0  0  0  0  0  0
   45.2220   33.1750   43.6700 C   0  0  0  0  0  0  0  0  0  0  0  0
   45.0860   32.0480   42.8590 C   0  0  0  0  0  0  0  0  0  0  0  0
   45.3540   30.8170   43.4560 C   0  0  0  0  0  0  0  0  0  0  0  0
   45.7290   30.7840   44.7740 N   0  0  0  0  0  0  0  0  0  0  0  0
   45.8390   31.9340   45.5000 C   0  0  0  0  0  0  0  0  0  0  0  0
   45.5950   33.1320   44.9780 N   0  0  0  0  0  0  0  0  0  0  0  0
   46.2280   31.9160   46.8700 N   0  0  0  0  0  0  0  0  0  0  0  0
   47.4070   31.6890   47.4870 C   0  0  0  0  0  0  0  0  0  0  0  0
   47.2240   31.7940   48.8310 N   0  0  0  0  0  0  0  0  0  0  0  0
   45.9260   32.0870   49.0390 C   0  0  0  0  0  0  0  0  0  0  0  0
   45.3260   32.1580   47.8150 N   0  0  0  0  0  0  0  0  0  0  0  0
   48.3840   33.9090   41.2960 C   0  0  1  0  0  0  0  0  0  0  0  0
   48.5040   32.4120   41.4690 C   0  0  0  0  0  0  0  0  0  0  0  0
   47.6250   34.2250   40.0240 C   0  0  0  0  0  0  0  0  0  0  0  0
   48.4830   34.5750   38.9480 N   0  0  0  0  0  0  0  0  0  0  0  0
   48.1040   33.8240   37.7850 C   0  0  0  0  0  0  0  0  0  0  0  0
   48.9490   33.4950   36.7690 C   0  0  0  0  0  0  0  0  0  0  0  0
   48.3720   32.7520   35.7500 C   0  0  0  0  0  0  0  0  0  0  0  0
   47.0760   32.3900   35.7730 N   0  0  0  0  0  0  0  0  0  0  0  0
   46.2610   32.7390   36.8100 C   0  0  0  0  0  0  0  0  0  0  0  0
   46.7890   33.4700   37.8330 N   0  0  0  0  0  0  0  0  0  0  0  0
   43.9785   34.0345   42.5680 H   0  0  0  0  0  0  0  0  0  0  0  0
   44.5391   36.6087   43.4823 H   0  0  0  0  0  0  0  0  0  0  0  0
   45.4672   36.0688   44.6202 H   0  0  0  0  0  0  0  0  0  0  0  0
   46.3132   35.8120   41.5098 H   0  0  0  0  0  0  0  0  0  0  0  0
   44.7833   32.1265   41.8044 H   0  0  0  0  0  0  0  0  0  0  0  0
   45.2658   29.8855   42.8776 H   0  0  0  0  0  0  0  0  0  0  0  0
   48.3585   31.4574   46.9859 H   0  0  0  0  0  0  0  0  0  0  0  0
   45.4399   32.2405   50.0138 H   0  0  0  0  0  0  0  0  0  0  0  0
   49.4089   34.3003   41.2150 H   0  0  0  0  0  0  0  0  0  0  0  0
   48.5236   32.1672   42.5412 H   0  0  0  0  0  0  0  0  0  0  0  0
   47.6426   31.9180   40.9958 H   0  0  0  0  0  0  0  0  0  0  0  0
   49.4331   32.0615   40.9958 H   0  0  0  0  0  0  0  0  0  0  0  0
   47.0396   33.3400   39.7341 H   0  0  0  0  0  0  0  0  0  0  0  0
   46.9779   35.0906   40.2288 H   0  0  0  0  0  0  0  0  0  0  0  0
   49.2530   35.2576   38.9946 H   0  0  0  0  0  0  0  0  0  0  0  0
   50.0072   33.7953   36.7575 H   0  0  0  0  0  0  0  0  0  0  0  0
   48.9940   32.4486   34.8950 H   0  0  0  0  0  0  0  0  0  0  0  0
   45.2031   32.4379   36.8207 H   0  0  0  0  0  0  0  0  0  0  0  0
  2  3  1  0
  2  5  1  0
  4  1  1  0
  4  2  1  0
  4  3  1  0
  5 10  2  0
  6  7  2  0
  6  5  1  0
  7  8  1  0
  8  9  2  0
  9 11  1  0
 10  9  1  0
 11 12  1  0
 11 15  1  0
 12 13  2  0
 13 14  1  0
 15 14  2  0
 16 17  1  0
 16  1  1  0
 18 16  1  0
 19 18  1  0
 20 25  1  0
 20 19  1  0
 21 20  2  0
 22 23  2  0
 22 21  1  0
 23 24  1  0
 24 25  2  0
  2 26  1  6
  3 27  1  0
  3 28  1  0
  4 29  1  6
  6 30  1  0
  7 31  1  0
 12 32  1  0
 14 33  1  0
 16 34  1  6
 17 35  1  0
 17 36  1  0
 17 37  1  0
 18 38  1  0
 18 39  1  0
 19 40  1  0
 21 41  1  0
 22 42  1  0
 24 43  1  0
M  ISO  8  26  13  27  13  28  13  29  13  30  14  31  14  32  14  33  14
M  ISO  8  34   8  35   8  36   8  37   8  38   8  39   8  41  14  42  14
M  ISO  1  43  14
M  END
>  <minimizedAffinity>  (1) 
-5.14804459

>  <minimizedRMSD>  (1) 
1.12911737

$$$$
