
     RDKit          3D

 50 53  0  0  1  0  0  0  0  0999 V2000
   47.7530   34.7340   42.7160 S   0  0  0  0  0  0  0  0  0  0  0  0
   44.9690   34.3970   42.8730 C   0  0  1  0  0  0  0  0  0  0  0  0
   45.2630   35.6400   43.5710 C   0  0  0  0  0  0  0  0  0  0  0  0
   46.1030   35.3070   42.4460 C   0  0  1  0  0  0  0  0  0  0  0  0
   45.3020   33.0560   43.4910 C   0  0  0  0  0  0  0  0  0  0  0  0
   45.3310   31.9940   42.5940 C   0  0  0  0  0  0  0  0  0  0  0  0
   45.6060   30.7400   43.1250 C   0  0  0  0  0  0  0  0  0  0  0  0
   45.8300   30.6200   44.4680 N   0  0  0  0  0  0  0  0  0  0  0  0
   45.7880   31.7060   45.2970 C   0  0  0  0  0  0  0  0  0  0  0  0
   45.5270   32.9270   44.8300 N   0  0  0  0  0  0  0  0  0  0  0  0
   46.0370   31.4440   46.6720 N   0  0  0  0  0  0  0  0  0  0  0  0
   46.9050   30.3530   47.0470 C   0  0  0  0  0  0  0  0  0  0  0  0
   47.9560   30.8580   48.0380 C   0  0  0  0  0  0  0  0  0  0  0  0
   47.5220   31.9080   48.8060 O   0  0  0  0  0  0  0  0  0  0  0  0
   46.1660   31.9660   49.0260 C   0  0  0  0  0  0  0  0  0  0  0  0
   45.4440   32.2450   47.7260 C   0  0  0  0  0  0  0  0  0  0  0  0
   48.5280   34.0130   41.2620 C   0  0  1  0  0  0  0  0  0  0  0  0
   48.8200   32.5340   41.3940 C   0  0  0  0  0  0  0  0  0  0  0  0
   47.7180   34.2720   40.0100 C   0  0  0  0  0  0  0  0  0  0  0  0
   48.5310   34.6030   38.8930 N   0  0  0  0  0  0  0  0  0  0  0  0
   48.0990   33.8390   37.7580 C   0  0  0  0  0  0  0  0  0  0  0  0
   48.9070   33.4920   36.7180 C   0  0  0  0  0  0  0  0  0  0  0  0
   48.2740   32.7300   35.7260 C   0  0  0  0  0  0  0  0  0  0  0  0
   46.9740   32.3800   35.8130 N   0  0  0  0  0  0  0  0  0  0  0  0
   46.2070   32.7540   36.8760 C   0  0  0  0  0  0  0  0  0  0  0  0
   46.7870   33.4980   37.8650 N   0  0  0  0  0  0  0  0  0  0  0  0
   44.0721   33.9613   42.4085 H   0  0  0  0  0  0  0  0  0  0  0  0
   44.5620   36.4840   43.4922 H   0  0  0  0  0  0  0  0  0  0  0  0
   45.4661   35.8908   44.6226 H   0  0  0  0  0  0  0  0  0  0  0  0
   46.4033   35.8321   41.5273 H   0  0  0  0  0  0  0  0  0  0  0  0
   45.1458   32.1392   41.5195 H   0  0  0  0  0  0  0  0  0  0  0  0
   45.6430   29.8549   42.4729 H   0  0  0  0  0  0  0  0  0  0  0  0
   46.3104   29.5557   47.5170 H   0  0  0  0  0  0  0  0  0  0  0  0
   47.4050   29.9563   46.1511 H   0  0  0  0  0  0  0  0  0  0  0  0
   48.2322   30.0287   48.7058 H   0  0  0  0  0  0  0  0  0  0  0  0
   48.8108   31.2197   47.4477 H   0  0  0  0  0  0  0  0  0  0  0  0
   45.8216   31.0048   49.4353 H   0  0  0  0  0  0  0  0  0  0  0  0
   45.9496   32.7738   49.7406 H   0  0  0  0  0  0  0  0  0  0  0  0
   45.5372   33.3118   47.4746 H   0  0  0  0  0  0  0  0  0  0  0  0
   44.3793   31.9892   47.8312 H   0  0  0  0  0  0  0  0  0  0  0  0
   49.4993   34.5222   41.1760 H   0  0  0  0  0  0  0  0  0  0  0  0
   48.8732   32.2644   42.4591 H   0  0  0  0  0  0  0  0  0  0  0  0
   48.0184   31.9573   40.9094 H   0  0  0  0  0  0  0  0  0  0  0  0
   49.7806   32.3052   40.9094 H   0  0  0  0  0  0  0  0  0  0  0  0
   47.1409   33.3668   39.7700 H   0  0  0  0  0  0  0  0  0  0  0  0
   47.0603   35.1308   40.2100 H   0  0  0  0  0  0  0  0  0  0  0  0
   49.3056   35.2819   38.8973 H   0  0  0  0  0  0  0  0  0  0  0  0
   49.9658   33.7846   36.6612 H   0  0  0  0  0  0  0  0  0  0  0  0
   48.8553   32.4075   34.8496 H   0  0  0  0  0  0  0  0  0  0  0  0
   45.1476   32.4642   36.9363 H   0  0  0  0  0  0  0  0  0  0  0  0
  2  5  1  0
  2  3  1  0
  4  1  1  0
  4  2  1  0
  4  3  1  0
  5 10  2  0
  6  7  2  0
  6  5  1  0
  7  8  1  0
  8  9  2  0
  9 11  1  0
 10  9  1  0
 11 12  1  0
 11 16  1  0
 12 13  1  0
 13 14  1  0
 14 15  1  0
 16 15  1  0
 17 18  1  0
 17  1  1  0
 19 17  1  0
 20 19  1  0
 21 26  1  0
 21 20  1  0
 22 21  2  0
 23 24  2  0
 23 22  1  0
 24 25  1  0
 25 26  2  0
  2 27  1  6
  3 28  1  0
  3 29  1  0
  4 30  1  6
  6 31  1  0
  7 32  1  0
 12 33  1  0
 12 34  1  0
 13 35  1  0
 13 36  1  0
 15 37  1  0
 15 38  1  0
 16 39  1  0
 16 40  1  0
 17 41  1  6
 18 42  1  0
 18 43  1  0
 18 44  1  0
 19 45  1  0
 19 46  1  0
 20 47  1  0
 22 48  1  0
 23 49  1  0
 25 50  1  0
M  ISO  8  27  13  28  13  29  13  30  13  31  14  32  14  33  13  34  13
M  ISO  8  35  13  36  13  37  13  38  13  39  13  40  13  41   8  42   8
M  ISO  7  43   8  44   8  45   8  46   8  48  14  49  14  50  14
M  END
>  <minimizedAffinity>  (1) 
-5.12165594

>  <minimizedRMSD>  (1) 
1.47148705

$$$$
