
     RDKit          3D

 44 47  0  0  1  0  0  0  0  0999 V2000
   44.8840   34.3640   43.1560 C   0  0  1  0  0  0  0  0  0  0  0  0
   45.2520   35.6500   43.7300 C   0  0  0  0  0  0  0  0  0  0  0  0
   45.9810   35.2230   42.5600 C   0  0  1  0  0  0  0  0  0  0  0  0
   45.2520   33.0680   43.8360 C   0  0  0  0  0  0  0  0  0  0  0  0
   45.0830   31.9290   43.0580 C   0  0  0  0  0  0  0  0  0  0  0  0
   45.3820   30.7150   43.6570 C   0  0  0  0  0  0  0  0  0  0  0  0
   45.8170   30.7020   44.9540 N   0  0  0  0  0  0  0  0  0  0  0  0
   45.9640   31.8540   45.6710 C   0  0  0  0  0  0  0  0  0  0  0  0
   45.6860   33.0410   45.1270 N   0  0  0  0  0  0  0  0  0  0  0  0
   46.4350   31.7050   47.0460 C   0  0  0  0  0  0  0  0  0  0  0  0
   47.5410   31.1710   47.6710 C   0  0  0  0  0  0  0  0  0  0  0  0
   47.3230   31.3820   49.0360 C   0  0  0  0  0  0  0  0  0  0  0  0
   46.1460   32.0100   49.1940 N   0  0  0  0  0  0  0  0  0  0  0  0
   45.6080   32.2080   48.0080 N   0  0  0  0  0  0  0  0  0  0  0  0
   47.6390   34.6320   42.7190 S   0  0  0  0  0  0  0  0  0  0  0  0
   48.2800   33.8260   41.2470 C   0  0  1  0  0  0  0  0  0  0  0  0
   48.3980   32.3200   41.3780 C   0  0  0  0  0  0  0  0  0  0  0  0
   47.4700   34.1740   40.0170 C   0  0  0  0  0  0  0  0  0  0  0  0
   48.2730   34.6710   38.9570 N   0  0  0  0  0  0  0  0  0  0  0  0
   48.0220   33.8910   37.7770 C   0  0  0  0  0  0  0  0  0  0  0  0
   48.9590   33.5830   36.8360 C   0  0  0  0  0  0  0  0  0  0  0  0
   48.4990   32.8040   35.7820 C   0  0  0  0  0  0  0  0  0  0  0  0
   47.2180   32.3910   35.7100 N   0  0  0  0  0  0  0  0  0  0  0  0
   46.3100   32.7210   36.6720 C   0  0  0  0  0  0  0  0  0  0  0  0
   46.7270   33.4870   37.7240 N   0  0  0  0  0  0  0  0  0  0  0  0
   43.9448   33.9088   42.8085 H   0  0  0  0  0  0  0  0  0  0  0  0
   44.5538   36.4966   43.6538 H   0  0  0  0  0  0  0  0  0  0  0  0
   45.5541   35.9738   44.7369 H   0  0  0  0  0  0  0  0  0  0  0  0
   46.2005   35.6797   41.5837 H   0  0  0  0  0  0  0  0  0  0  0  0
   44.7294   31.9878   42.0180 H   0  0  0  0  0  0  0  0  0  0  0  0
   45.2710   29.7748   43.0969 H   0  0  0  0  0  0  0  0  0  0  0  0
   48.4072   30.6845   47.1987 H   0  0  0  0  0  0  0  0  0  0  0  0
   48.0033   31.0830   49.8470 H   0  0  0  0  0  0  0  0  0  0  0  0
   45.7322   32.2906   50.0945 H   0  0  0  0  0  0  0  0  0  0  0  0
   49.3003   34.2202   41.1305 H   0  0  0  0  0  0  0  0  0  0  0  0
   48.4195   32.0452   42.4429 H   0  0  0  0  0  0  0  0  0  0  0  0
   47.5346   31.8410   40.8931 H   0  0  0  0  0  0  0  0  0  0  0  0
   49.3254   31.9813   40.8931 H   0  0  0  0  0  0  0  0  0  0  0  0
   46.9496   33.2691   39.6703 H   0  0  0  0  0  0  0  0  0  0  0  0
   46.7614   34.9670   40.2982 H   0  0  0  0  0  0  0  0  0  0  0  0
   48.9290   35.4623   39.0232 H   0  0  0  0  0  0  0  0  0  0  0  0
   50.0018   33.9259   36.9062 H   0  0  0  0  0  0  0  0  0  0  0  0
   49.1994   32.5162   34.9841 H   0  0  0  0  0  0  0  0  0  0  0  0
   45.2668   32.3789   36.6030 H   0  0  0  0  0  0  0  0  0  0  0  0
  1  2  1  0
  1  4  1  0
  3 15  1  0
  3  1  1  0
  3  2  1  0
  4  9  2  0
  5  6  2  0
  5  4  1  0
  6  7  1  0
  7  8  2  0
  8 10  1  0
  9  8  1  0
 10 11  1  0
 10 14  2  0
 11 12  2  0
 12 13  1  0
 14 13  1  0
 16 17  1  0
 16 15  1  0
 18 16  1  0
 19 18  1  0
 20 19  1  0
 21 20  2  0
 22 21  1  0
 23 22  2  0
 23 24  1  0
 24 25  2  0
 25 20  1  0
  1 26  1  6
  2 27  1  0
  2 28  1  0
  3 29  1  6
  5 30  1  0
  6 31  1  0
 11 32  1  0
 12 33  1  0
 13 34  1  0
 16 35  1  6
 17 36  1  0
 17 37  1  0
 17 38  1  0
 18 39  1  0
 18 40  1  0
 19 41  1  0
 21 42  1  0
 22 43  1  0
 24 44  1  0
M  ISO  8  26  13  27  13  28  13  29  13  30  14  31  14  32  14  33  14
M  ISO  8  34   9  35   8  36   8  37   8  38   8  39   8  40   8  42  14
M  ISO  2  43  14  44  14
M  END
>  <minimizedAffinity>  (1) 
-5.10905886

>  <minimizedRMSD>  (1) 
1.12600815

$$$$
