
     RDKit          3D

 44 47  0  0  1  0  0  0  0  0999 V2000
   47.8010   34.7400   42.6620 S   0  0  0  0  0  0  0  0  0  0  0  0
   45.0470   34.2750   42.9250 C   0  0  1  0  0  0  0  0  0  0  0  0
   45.2770   35.5930   43.4960 C   0  0  0  0  0  0  0  0  0  0  0  0
   46.1180   35.2040   42.3890 C   0  0  1  0  0  0  0  0  0  0  0  0
   45.4630   33.0180   43.6530 C   0  0  0  0  0  0  0  0  0  0  0  0
   45.7040   31.9210   42.8330 C   0  0  0  0  0  0  0  0  0  0  0  0
   46.0630   30.7390   43.4600 C   0  0  0  0  0  0  0  0  0  0  0  0
   46.1610   30.7090   44.8280 N   0  0  0  0  0  0  0  0  0  0  0  0
   45.9110   31.8270   45.5780 C   0  0  0  0  0  0  0  0  0  0  0  0
   45.5630   32.9830   45.0110 N   0  0  0  0  0  0  0  0  0  0  0  0
   46.0170   31.7910   47.0330 C   0  0  0  0  0  0  0  0  0  0  0  0
   45.2410   32.2280   48.0940 C   0  0  0  0  0  0  0  0  0  0  0  0
   45.9590   31.8560   49.2320 C   0  0  0  0  0  0  0  0  0  0  0  0
   47.1240   31.2170   48.7960 C   0  0  0  0  0  0  0  0  0  0  0  0
   47.1150   31.2020   47.4680 O   0  0  0  0  0  0  0  0  0  0  0  0
   48.6390   34.1090   41.2020 C   0  0  1  0  0  0  0  0  0  0  0  0
   49.1060   32.6740   41.3370 C   0  0  0  0  0  0  0  0  0  0  0  0
   47.7900   34.2620   39.9580 C   0  0  0  0  0  0  0  0  0  0  0  0
   48.5540   34.6190   38.8150 N   0  0  0  0  0  0  0  0  0  0  0  0
   48.1120   33.8420   37.6960 C   0  0  0  0  0  0  0  0  0  0  0  0
   48.9140   33.4600   36.6630 C   0  0  0  0  0  0  0  0  0  0  0  0
   48.2630   32.6890   35.6860 C   0  0  0  0  0  0  0  0  0  0  0  0
   46.9640   32.3640   35.7760 N   0  0  0  0  0  0  0  0  0  0  0  0
   46.2030   32.7710   36.8290 C   0  0  0  0  0  0  0  0  0  0  0  0
   46.7900   33.5240   37.8050 N   0  0  0  0  0  0  0  0  0  0  0  0
   44.1696   33.7462   42.5243 H   0  0  0  0  0  0  0  0  0  0  0  0
   44.5255   36.3835   43.3532 H   0  0  0  0  0  0  0  0  0  0  0  0
   45.4815   35.9541   44.5147 H   0  0  0  0  0  0  0  0  0  0  0  0
   46.3732   35.6634   41.4226 H   0  0  0  0  0  0  0  0  0  0  0  0
   45.6139   31.9886   41.7388 H   0  0  0  0  0  0  0  0  0  0  0  0
   46.2671   29.8348   42.8677 H   0  0  0  0  0  0  0  0  0  0  0  0
   44.2745   32.7514   48.0497 H   0  0  0  0  0  0  0  0  0  0  0  0
   45.6635   32.0326   50.2767 H   0  0  0  0  0  0  0  0  0  0  0  0
   47.9111   30.7993   49.4410 H   0  0  0  0  0  0  0  0  0  0  0  0
   49.5412   34.7304   41.1022 H   0  0  0  0  0  0  0  0  0  0  0  0
   49.1904   32.4146   42.4026 H   0  0  0  0  0  0  0  0  0  0  0  0
   48.3793   32.0048   40.8532 H   0  0  0  0  0  0  0  0  0  0  0  0
   50.0874   32.5607   40.8532 H   0  0  0  0  0  0  0  0  0  0  0  0
   47.2827   33.3066   39.7582 H   0  0  0  0  0  0  0  0  0  0  0  0
   47.0703   35.0729   40.1438 H   0  0  0  0  0  0  0  0  0  0  0  0
   49.3051   35.3234   38.7942 H   0  0  0  0  0  0  0  0  0  0  0  0
   49.9781   33.7316   36.5997 H   0  0  0  0  0  0  0  0  0  0  0  0
   48.8383   32.3391   34.8162 H   0  0  0  0  0  0  0  0  0  0  0  0
   45.1390   32.4992   36.8920 H   0  0  0  0  0  0  0  0  0  0  0  0
  2  3  1  0
  2  5  1  0
  4  1  1  0
  4  2  1  0
  4  3  1  0
  5 10  2  0
  6  7  2  0
  6  5  1  0
  7  8  1  0
  8  9  2  0
  9 11  1  0
 10  9  1  0
 11 15  1  0
 11 12  2  0
 12 13  1  0
 14 13  2  0
 15 14  1  0
 16 17  1  0
 16  1  1  0
 18 16  1  0
 19 18  1  0
 20 25  1  0
 20 19  1  0
 21 20  2  0
 22 23  2  0
 22 21  1  0
 23 24  1  0
 24 25  2  0
  2 26  1  6
  3 27  1  0
  3 28  1  0
  4 29  1  6
  6 30  1  0
  7 31  1  0
 12 32  1  0
 13 33  1  0
 14 34  1  0
 16 35  1  6
 17 36  1  0
 17 37  1  0
 17 38  1  0
 18 39  1  0
 18 40  1  0
 19 41  1  0
 21 42  1  0
 22 43  1  0
 24 44  1  0
M  ISO  8  26  13  27  13  28  13  29  13  30  14  31  14  32  14  33  14
M  ISO  8  34  14  35   8  36   8  37   8  38   8  39   8  40   8  42  14
M  ISO  2  43  14  44  14
M  END
>  <minimizedAffinity>  (1) 
-5.00734949

>  <minimizedRMSD>  (1) 
1.18516994

$$$$
