
     RDKit          3D

 38 40  0  0  1  0  0  0  0  0999 V2000
   48.3220   33.8500   41.1990 C   0  0  1  0  0  0  0  0  0  0  0  0
   48.3570   32.3460   41.3630 C   0  0  0  0  0  0  0  0  0  0  0  0
   47.5890   34.2180   39.9280 C   0  0  0  0  0  0  0  0  0  0  0  0
   48.4660   34.5200   38.8530 N   0  0  0  0  0  0  0  0  0  0  0  0
   48.0680   33.7770   37.6980 C   0  0  0  0  0  0  0  0  0  0  0  0
   48.9030   33.4340   36.6750 C   0  0  0  0  0  0  0  0  0  0  0  0
   48.2830   32.6930   35.6600 C   0  0  0  0  0  0  0  0  0  0  0  0
   46.9860   32.3540   35.6950 N   0  0  0  0  0  0  0  0  0  0  0  0
   46.1880   32.7210   36.7420 C   0  0  0  0  0  0  0  0  0  0  0  0
   46.7480   33.4480   37.7620 N   0  0  0  0  0  0  0  0  0  0  0  0
   47.6580   34.7250   42.6260 S   0  0  0  0  0  0  0  0  0  0  0  0
   44.9460   34.3110   43.2260 C   0  0  1  0  0  0  0  0  0  0  0  0
   45.2340   35.6870   43.6120 C   0  0  0  0  0  0  0  0  0  0  0  0
   45.9520   35.1630   42.4740 C   0  0  1  0  0  0  0  0  0  0  0  0
   45.4480   33.1530   44.0610 C   0  0  0  0  0  0  0  0  0  0  0  0
   45.3060   31.9040   43.4600 C   0  0  0  0  0  0  0  0  0  0  0  0
   45.7270   30.8020   44.1920 C   0  0  0  0  0  0  0  0  0  0  0  0
   46.2510   30.9960   45.4450 N   0  0  0  0  0  0  0  0  0  0  0  0
   46.3630   32.2530   45.9770 C   0  0  0  0  0  0  0  0  0  0  0  0
   45.9710   33.3340   45.3050 N   0  0  0  0  0  0  0  0  0  0  0  0
   47.0600   32.3780   47.6190 S   0  0  0  0  0  0  0  0  0  0  0  0
   49.3675   34.1833   41.1227 H   0  0  0  0  0  0  0  0  0  0  0  0
   48.3629   32.0940   42.4337 H   0  0  0  0  0  0  0  0  0  0  0  0
   47.4689   31.9045   40.8872 H   0  0  0  0  0  0  0  0  0  0  0  0
   49.2647   31.9463   40.8872 H   0  0  0  0  0  0  0  0  0  0  0  0
   46.9506   33.3720   39.6333 H   0  0  0  0  0  0  0  0  0  0  0  0
   46.9987   35.1224   40.1370 H   0  0  0  0  0  0  0  0  0  0  0  0
   49.2628   35.1712   38.8980 H   0  0  0  0  0  0  0  0  0  0  0  0
   49.9665   33.7138   36.6493 H   0  0  0  0  0  0  0  0  0  0  0  0
   48.8865   32.3756   34.7969 H   0  0  0  0  0  0  0  0  0  0  0  0
   45.1245   32.4409   36.7663 H   0  0  0  0  0  0  0  0  0  0  0  0
   44.0350   33.7455   42.9806 H   0  0  0  0  0  0  0  0  0  0  0  0
   44.4698   36.4633   43.4592 H   0  0  0  0  0  0  0  0  0  0  0  0
   45.5462   36.1620   44.5538 H   0  0  0  0  0  0  0  0  0  0  0  0
   46.0996   35.5007   41.4376 H   0  0  0  0  0  0  0  0  0  0  0  0
   44.8798   31.7960   42.4517 H   0  0  0  0  0  0  0  0  0  0  0  0
   45.6417   29.7883   43.7735 H   0  0  0  0  0  0  0  0  0  0  0  0
   46.0706   32.2006   48.5498 H   0  0  0  0  0  0  0  0  0  0  0  0
  1  2  1  0
  1 11  1  0
  3  1  1  0
  4  3  1  0
  5 10  1  0
  5  4  1  0
  6  5  2  0
  7  8  2  0
  7  6  1  0
  8  9  1  0
  9 10  2  0
 12 13  1  0
 12 15  1  0
 14 11  1  0
 14 12  1  0
 14 13  1  0
 15 20  1  0
 16 15  2  0
 16 17  1  0
 17 18  2  0
 18 19  1  0
 19 21  1  0
 20 19  2  0
  1 22  1  6
  2 23  1  0
  2 24  1  0
  2 25  1  0
  3 26  1  0
  3 27  1  0
  4 28  1  0
  6 29  1  0
  7 30  1  0
  9 31  1  0
 12 32  1  6
 13 33  1  0
 13 34  1  0
 14 35  1  6
 16 36  1  0
 17 37  1  0
 21 38  1  0
M  ISO  8  22   8  23   8  24   8  25   8  26   8  27   8  29  14  30  14
M  ISO  8  31  14  32  13  33  13  34  13  35  13  36  14  37  14  38  11
M  END
>  <minimizedAffinity>  (1) 
-4.37333107

>  <minimizedRMSD>  (1) 
0.5098508

$$$$
