
     RDKit          3D

 24 25  0  0  0  0  0  0  0  0999 V2000
   44.5650   35.7220   44.7950 C   0  0  0  0  0  0  0  0  0  0  0  0
   45.2490   35.6020   43.5640 C   0  0  0  0  0  0  0  0  0  0  0  0
   46.1710   34.5370   43.4430 C   0  0  0  0  0  0  0  0  0  0  0  0
   46.3430   33.7030   44.4990 N   0  0  0  0  0  0  0  0  0  0  0  0
   45.6640   33.8580   45.6610 C   0  0  0  0  0  0  0  0  0  0  0  0
   44.7850   34.8580   45.8040 N   0  0  0  0  0  0  0  0  0  0  0  0
   45.9380   32.9130   46.6940 N   0  0  0  0  0  0  0  0  0  0  0  0
   47.0960   32.0800   46.6060 C   0  0  0  0  0  0  0  0  0  0  0  0
   47.5900   31.5310   47.9070 C   0  0  0  0  0  0  0  0  0  0  0  0
   46.7920   31.9000   49.0520 N   0  0  0  0  0  0  0  0  0  0  0  0
   45.3900   31.6460   48.6810 C   0  0  0  0  0  0  0  0  0  0  0  0
   45.0140   32.8340   47.8090 C   0  0  0  0  0  0  0  0  0  0  0  0
   43.8389   36.5370   44.9314 H   0  0  0  0  0  0  0  0  0  0  0  0
   45.0720   36.3056   42.7372 H   0  0  0  0  0  0  0  0  0  0  0  0
   46.7372   34.3878   42.5118 H   0  0  0  0  0  0  0  0  0  0  0  0
   46.8549   31.2314   45.9489 H   0  0  0  0  0  0  0  0  0  0  0  0
   47.9027   32.7210   46.2208 H   0  0  0  0  0  0  0  0  0  0  0  0
   47.6014   30.4334   47.8350 H   0  0  0  0  0  0  0  0  0  0  0  0
   48.5895   31.9607   48.0696 H   0  0  0  0  0  0  0  0  0  0  0  0
   47.0538   31.3283   49.8678 H   0  0  0  0  0  0  0  0  0  0  0  0
   45.2996   30.7050   48.1185 H   0  0  0  0  0  0  0  0  0  0  0  0
   44.7341   31.5426   49.5580 H   0  0  0  0  0  0  0  0  0  0  0  0
   45.0712   33.7590   48.4015 H   0  0  0  0  0  0  0  0  0  0  0  0
   43.9879   32.7088   47.4329 H   0  0  0  0  0  0  0  0  0  0  0  0
  1  6  2  0
  2  1  1  0
  3  2  2  0
  3  4  1  0
  4  5  2  0
  5  6  1  0
  5  7  1  0
  7 12  1  0
  8  7  1  0
  8  9  1  0
  9 10  1  0
 11 10  1  0
 12 11  1  0
  1 13  1  0
  2 14  1  0
  3 15  1  0
  8 16  1  0
  8 17  1  0
  9 18  1  0
  9 19  1  0
 10 20  1  0
 11 21  1  0
 11 22  1  0
 12 23  1  0
 12 24  1  0
M  ISO  8  13  14  14  14  15  14  16  13  17  13  18  13  19  13  20   5
M  ISO  4  21  13  22  13  23  13  24  13
M  END
>  <minimizedAffinity>  (1) 
-4.58019447

>  <minimizedRMSD>  (1) 
0.500865877

$$$$
