
     RDKit          3D

 25 26  0  0  1  0  0  0  0  0999 V2000
   44.6110   35.6720   44.8180 C   0  0  0  0  0  0  0  0  0  0  0  0
   45.2760   35.6560   43.5650 C   0  0  0  0  0  0  0  0  0  0  0  0
   46.1990   34.5990   43.3340 C   0  0  0  0  0  0  0  0  0  0  0  0
   46.3860   33.6800   44.3140 N   0  0  0  0  0  0  0  0  0  0  0  0
   45.7300   33.7330   45.4950 C   0  0  0  0  0  0  0  0  0  0  0  0
   44.8550   34.7210   45.7350 N   0  0  0  0  0  0  0  0  0  0  0  0
   46.0180   32.7090   46.4330 N   0  0  0  0  0  0  0  0  0  0  0  0
   47.1750   31.8810   46.2460 C   0  0  0  0  0  0  0  0  0  0  0  0
   47.6450   31.1530   47.4540 C   0  0  0  0  0  0  0  0  0  0  0  0
   46.9650   31.5280   48.6650 N   0  0  0  0  0  0  0  0  0  0  0  0
   45.5350   31.3340   48.3690 C   0  0  0  0  0  0  0  0  0  0  0  0
   45.1170   32.5410   47.5590 C   0  0  1  0  0  0  0  0  0  0  0  0
   45.0030   33.6650   48.3530 O   0  0  0  0  0  0  0  0  0  0  0  0
   43.8885   36.4709   45.0409 H   0  0  0  0  0  0  0  0  0  0  0  0
   45.0859   36.4280   42.8048 H   0  0  0  0  0  0  0  0  0  0  0  0
   46.7481   34.5284   42.3835 H   0  0  0  0  0  0  0  0  0  0  0  0
   46.9366   31.1357   45.4729 H   0  0  0  0  0  0  0  0  0  0  0  0
   47.9920   32.5632   45.9685 H   0  0  0  0  0  0  0  0  0  0  0  0
   47.4914   30.0761   47.2904 H   0  0  0  0  0  0  0  0  0  0  0  0
   48.7049   31.4140   47.5904 H   0  0  0  0  0  0  0  0  0  0  0  0
   47.2586   30.9258   49.4474 H   0  0  0  0  0  0  0  0  0  0  0  0
   45.3853   30.4119   47.7883 H   0  0  0  0  0  0  0  0  0  0  0  0
   44.9397   31.2365   49.2888 H   0  0  0  0  0  0  0  0  0  0  0  0
   44.1109   32.3783   47.1452 H   0  0  0  0  0  0  0  0  0  0  0  0
   45.0299   33.3997   49.3064 H   0  0  0  0  0  0  0  0  0  0  0  0
  1  6  2  0
  2  1  1  0
  3  2  2  0
  3  4  1  0
  4  5  2  0
  5  6  1  0
  5  7  1  0
  7 12  1  0
  8  7  1  0
  8  9  1  0
  9 10  1  0
 11 10  1  0
 12 13  1  0
 12 11  1  0
  1 14  1  0
  2 15  1  0
  3 16  1  0
  8 17  1  0
  8 18  1  0
  9 19  1  0
  9 20  1  0
 10 21  1  0
 11 22  1  0
 11 23  1  0
 12 24  1  6
 13 25  1  0
M  ISO  8  14  14  15  14  16  14  17  13  18  13  19  13  20  13  21   5
M  ISO  4  22  13  23  13  24  13  25   3
M  END
>  <minimizedAffinity>  (1) 
-4.81611109

>  <minimizedRMSD>  (1) 
0.35258773

$$$$
