
     RDKit          3D

 23 24  0  0  0  0  0  0  0  0999 V2000
   46.5180   34.8300   41.8580 C   0  0  0  0  0  0  0  0  0  0  0  0
   45.9500   34.8060   43.2140 C   0  0  0  0  0  0  0  0  0  0  0  0
   45.0980   35.9030   43.4730 C   0  0  0  0  0  0  0  0  0  0  0  0
   44.5000   35.9790   44.7410 C   0  0  0  0  0  0  0  0  0  0  0  0
   44.7630   35.0100   45.6410 N   0  0  0  0  0  0  0  0  0  0  0  0
   45.5910   33.9600   45.3600 C   0  0  0  0  0  0  0  0  0  0  0  0
   46.1610   33.8930   44.1490 N   0  0  0  0  0  0  0  0  0  0  0  0
   47.9240   35.3570   41.8390 C   0  0  0  0  0  0  0  0  0  0  0  0
   48.9770   34.4170   41.8710 C   0  0  0  0  0  0  0  0  0  0  0  0
   50.2160   34.2490   42.5020 C   0  0  0  0  0  0  0  0  0  0  0  0
   50.9950   33.1560   42.2770 C   0  0  0  0  0  0  0  0  0  0  0  0
   50.4710   32.1730   41.3470 C   0  0  0  0  0  0  0  0  0  0  0  0
   48.8300   32.9100   40.8350 S   0  0  0  0  0  0  0  0  0  0  0  0
   46.5185   33.8059   41.4564 H   0  0  0  0  0  0  0  0  0  0  0  0
   45.8984   35.5012   41.2452 H   0  0  0  0  0  0  0  0  0  0  0  0
   44.9098   36.6706   42.7079 H   0  0  0  0  0  0  0  0  0  0  0  0
   43.8297   36.8132   44.9954 H   0  0  0  0  0  0  0  0  0  0  0  0
   45.7862   33.1836   46.1143 H   0  0  0  0  0  0  0  0  0  0  0  0
   48.0404   35.9498   40.9197 H   0  0  0  0  0  0  0  0  0  0  0  0
   48.0235   35.9186   42.7796 H   0  0  0  0  0  0  0  0  0  0  0  0
   50.5696   35.0227   43.1994 H   0  0  0  0  0  0  0  0  0  0  0  0
   51.9682   33.0249   42.7728 H   0  0  0  0  0  0  0  0  0  0  0  0
   50.9273   31.2261   41.0226 H   0  0  0  0  0  0  0  0  0  0  0  0
  1  2  1  0
  2  3  2  0
  2  7  1  0
  3  4  1  0
  4  5  2  0
  6  5  1  0
  7  6  2  0
  8  1  1  0
  8  9  1  0
  9 10  2  0
 11 10  1  0
 12 11  2  0
 13 12  1  0
 13  9  1  0
  1 14  1  0
  1 15  1  0
  3 16  1  0
  4 17  1  0
  6 18  1  0
  8 19  1  0
  8 20  1  0
 10 21  1  0
 11 22  1  0
 12 23  1  0
M  ISO  8  14   8  15   8  16  14  17  14  18  14  19   8  20   8  21  14
M  ISO  2  22  14  23  14
M  END
>  <minimizedAffinity>  (1) 
-4.52289057

>  <minimizedRMSD>  (1) 
3.57789755

$$$$
