
     RDKit          3D

 21 22  0  0  0  0  0  0  0  0999 V2000
   46.8250   34.7580   41.7240 C   0  0  0  0  0  0  0  0  0  0  0  0
   46.1770   34.7630   43.0410 C   0  0  0  0  0  0  0  0  0  0  0  0
   45.3010   35.8520   43.1980 C   0  0  0  0  0  0  0  0  0  0  0  0
   44.5970   36.0060   44.4000 C   0  0  0  0  0  0  0  0  0  0  0  0
   44.8100   35.0760   45.3570 N   0  0  0  0  0  0  0  0  0  0  0  0
   45.6600   34.0290   45.1920 C   0  0  0  0  0  0  0  0  0  0  0  0
   46.3280   33.8960   44.0280 N   0  0  0  0  0  0  0  0  0  0  0  0
   48.1770   35.4280   41.7550 C   0  0  0  0  0  0  0  0  0  0  0  0
   49.2860   34.4730   41.9240 C   0  0  0  0  0  0  0  0  0  0  0  0
   50.4610   34.4600   42.5560 N   0  0  0  0  0  0  0  0  0  0  0  0
   51.0790   33.3270   42.3760 O   0  0  0  0  0  0  0  0  0  0  0  0
   50.3210   32.5840   41.6270 C   0  0  0  0  0  0  0  0  0  0  0  0
   49.1930   33.2530   41.3190 N   0  0  0  0  0  0  0  0  0  0  0  0
   46.1809   35.2915   41.0095 H   0  0  0  0  0  0  0  0  0  0  0  0
   46.9725   33.7104   41.4226 H   0  0  0  0  0  0  0  0  0  0  0  0
   45.1692   36.5783   42.3825 H   0  0  0  0  0  0  0  0  0  0  0  0
   43.9032   36.8450   44.5571 H   0  0  0  0  0  0  0  0  0  0  0  0
   45.8020   33.2966   46.0003 H   0  0  0  0  0  0  0  0  0  0  0  0
   48.3218   35.9703   40.8090 H   0  0  0  0  0  0  0  0  0  0  0  0
   48.1899   36.1058   42.6213 H   0  0  0  0  0  0  0  0  0  0  0  0
   50.5634   31.5638   41.2948 H   0  0  0  0  0  0  0  0  0  0  0  0
  1  8  1  0
  1  2  1  0
  2  3  2  0
  2  7  1  0
  3  4  1  0
  4  5  2  0
  6  5  1  0
  7  6  2  0
  8  9  1  0
  9 10  2  0
 11 10  1  0
 12 11  1  0
 13 12  2  0
 13  9  1  0
  1 14  1  0
  1 15  1  0
  3 16  1  0
  4 17  1  0
  6 18  1  0
  8 19  1  0
  8 20  1  0
 12 21  1  0
M  ISO  8  14   8  15   8  16  14  17  14  18  14  19   8  20   8  21  14
M  END
>  <minimizedAffinity>  (1) 
-4.37680531

>  <minimizedRMSD>  (1) 
1.54606605

$$$$
