
     RDKit          3D

 22 23  0  0  0  0  0  0  0  0999 V2000
   46.9380   34.7970   41.9450 C   0  0  0  0  0  0  0  0  0  0  0  0
   46.1150   35.0040   43.1420 C   0  0  0  0  0  0  0  0  0  0  0  0
   46.2840   33.9710   44.1120 C   0  0  0  0  0  0  0  0  0  0  0  0
   45.5590   34.0260   45.2980 C   0  0  0  0  0  0  0  0  0  0  0  0
   44.7160   35.0730   45.4750 N   0  0  0  0  0  0  0  0  0  0  0  0
   44.5790   36.0420   44.5280 C   0  0  0  0  0  0  0  0  0  0  0  0
   45.2580   36.0130   43.3900 N   0  0  0  0  0  0  0  0  0  0  0  0
   46.3300   33.7150   41.0560 C   0  0  0  0  0  0  0  0  0  0  0  0
   46.8950   33.7440   39.7220 N   0  0  0  0  0  0  0  0  0  0  0  0
   48.0620   34.3520   39.4410 C   0  0  0  0  0  0  0  0  0  0  0  0
   48.3170   34.2080   38.1390 N   0  0  0  0  0  0  0  0  0  0  0  0
   47.3000   33.5040   37.6000 C   0  0  0  0  0  0  0  0  0  0  0  0
   46.4300   33.2250   38.5970 N   0  0  0  0  0  0  0  0  0  0  0  0
   46.9970   35.7387   41.3795 H   0  0  0  0  0  0  0  0  0  0  0  0
   47.9432   34.4768   42.2565 H   0  0  0  0  0  0  0  0  0  0  0  0
   46.9800   33.1402   43.9239 H   0  0  0  0  0  0  0  0  0  0  0  0
   45.6661   33.2462   46.0664 H   0  0  0  0  0  0  0  0  0  0  0  0
   43.8837   36.8741   44.7131 H   0  0  0  0  0  0  0  0  0  0  0  0
   46.5264   32.7307   41.5060 H   0  0  0  0  0  0  0  0  0  0  0  0
   45.2487   33.9008   40.9768 H   0  0  0  0  0  0  0  0  0  0  0  0
   48.7002   34.8803   40.1646 H   0  0  0  0  0  0  0  0  0  0  0  0
   47.1975   33.2111   36.5447 H   0  0  0  0  0  0  0  0  0  0  0  0
  1  2  1  0
  2  7  1  0
  2  3  2  0
  3  4  1  0
  4  5  2  0
  6  5  1  0
  7  6  2  0
  8  1  1  0
  9  8  1  0
 10  9  1  0
 11 10  2  0
 12 11  1  0
 12 13  2  0
 13  9  1  0
  1 14  1  0
  1 15  1  0
  3 16  1  0
  4 17  1  0
  6 18  1  0
  8 19  1  0
  8 20  1  0
 10 21  1  0
 12 22  1  0
M  ISO  8  14   8  15   8  16  14  17  14  18  14  19   8  20   8  21  14
M  ISO  1  22  14
M  END
>  <minimizedAffinity>  (1) 
-3.91297197

>  <minimizedRMSD>  (1) 
4.31262207

$$$$
