
     RDKit          3D

 17 17  0  0  0  0  0  0  0  0999 V2000
   47.0590   34.6170   42.6870 C   0  0  0  0  0  0  0  0  0  0  0  0
   45.8960   35.4060   42.7900 C   0  0  0  0  0  0  0  0  0  0  0  0
   45.0520   35.2060   43.9020 C   0  0  0  0  0  0  0  0  0  0  0  0
   45.3970   34.2700   44.8130 N   0  0  0  0  0  0  0  0  0  0  0  0
   46.5450   33.5290   44.6620 C   0  0  0  0  0  0  0  0  0  0  0  0
   47.3410   33.7180   43.6110 N   0  0  0  0  0  0  0  0  0  0  0  0
   47.8130   34.9560   41.4710 C   0  0  0  0  0  0  0  0  0  0  0  0
   49.0170   35.8280   41.7920 C   0  0  0  0  0  0  0  0  0  0  0  0
   49.8340   35.1030   42.6860 O   0  0  0  0  0  0  0  0  0  0  0  0
   45.6531   36.1573   42.0241 H   0  0  0  0  0  0  0  0  0  0  0  0
   44.1335   35.7987   44.0248 H   0  0  0  0  0  0  0  0  0  0  0  0
   46.8087   32.7729   45.4162 H   0  0  0  0  0  0  0  0  0  0  0  0
   47.1520   35.4986   40.7792 H   0  0  0  0  0  0  0  0  0  0  0  0
   48.1727   34.0223   41.0141 H   0  0  0  0  0  0  0  0  0  0  0  0
   49.5746   36.0536   40.8710 H   0  0  0  0  0  0  0  0  0  0  0  0
   48.6992   36.7809   42.2403 H   0  0  0  0  0  0  0  0  0  0  0  0
   49.5828   35.3259   43.6173 H   0  0  0  0  0  0  0  0  0  0  0  0
  1  2  2  0
  1  6  1  0
  2  3  1  0
  3  4  2  0
  5  4  1  0
  6  5  2  0
  7  8  1  0
  7  1  1  0
  8  9  1  0
  2 10  1  0
  3 11  1  0
  5 12  1  0
  7 13  1  0
  7 14  1  0
  8 15  1  0
  8 16  1  0
  9 17  1  0
M  ISO  8  10  14  11  14  12  14  13   8  14   8  15   8  16   8  17   3
M  END
>  <minimizedAffinity>  (1) 
-3.26885939

>  <minimizedRMSD>  (1) 
0.122196257

$$$$
