
     RDKit          3D

 26 27  0  0  0  0  0  0  0  0999 V2000
   47.3830   35.0390   41.6070 C   0  0  0  0  0  0  0  0  0  0  0  0
   47.9540   33.8390   41.0990 N   0  0  0  0  0  0  0  0  0  0  0  0
   47.4940   32.9120   40.2350 C   0  0  0  0  0  0  0  0  0  0  0  0
   48.3680   31.8860   40.0030 C   0  0  0  0  0  0  0  0  0  0  0  0
   49.4350   32.2000   40.7720 N   0  0  0  0  0  0  0  0  0  0  0  0
   49.1730   33.3450   41.4050 C   0  0  0  0  0  0  0  0  0  0  0  0
   50.1990   33.8680   42.2900 C   0  0  0  0  0  0  0  0  0  0  0  0
   51.3580   33.4300   42.5140 O   0  0  0  0  0  0  0  0  0  0  0  0
   50.0960   34.9930   43.0930 O   0  0  0  0  0  0  0  0  0  0  0  0
   45.8840   34.8990   41.8460 C   0  0  0  0  0  0  0  0  0  0  0  0
   45.5660   34.7870   43.2620 C   0  0  0  0  0  0  0  0  0  0  0  0
   44.8270   35.8770   43.7280 C   0  0  0  0  0  0  0  0  0  0  0  0
   44.4220   35.9610   45.0640 C   0  0  0  0  0  0  0  0  0  0  0  0
   44.7730   34.9490   45.8720 N   0  0  0  0  0  0  0  0  0  0  0  0
   45.5030   33.8830   45.3840 C   0  0  0  0  0  0  0  0  0  0  0  0
   45.8820   33.8260   44.0960 N   0  0  0  0  0  0  0  0  0  0  0  0
   47.5534   35.8485   40.8820 H   0  0  0  0  0  0  0  0  0  0  0  0
   47.8624   35.2628   42.5714 H   0  0  0  0  0  0  0  0  0  0  0  0
   46.5042   32.9752   39.7592 H   0  0  0  0  0  0  0  0  0  0  0  0
   48.2347   31.0131   39.3470 H   0  0  0  0  0  0  0  0  0  0  0  0
   50.8582   35.2659   43.6628 H   0  0  0  0  0  0  0  0  0  0  0  0
   45.3749   35.7839   41.4365 H   0  0  0  0  0  0  0  0  0  0  0  0
   45.5448   33.9789   41.3477 H   0  0  0  0  0  0  0  0  0  0  0  0
   44.5585   36.6845   43.0310 H   0  0  0  0  0  0  0  0  0  0  0  0
   43.8417   36.8184   45.4357 H   0  0  0  0  0  0  0  0  0  0  0  0
   45.7799   33.0637   46.0637 H   0  0  0  0  0  0  0  0  0  0  0  0
  1 10  1  0
  2  6  1  0
  2  1  1  0
  3  2  1  0
  4  3  2  0
  4  5  1  0
  5  6  2  0
  6  7  1  0
  7  8  2  0
  7  9  1  0
 10 11  1  0
 11 12  2  0
 11 16  1  0
 12 13  1  0
 13 14  2  0
 15 14  1  0
 16 15  2  0
  1 17  1  0
  1 18  1  0
  3 19  1  0
  4 20  1  0
  9 21  1  0
 10 22  1  0
 10 23  1  0
 12 24  1  0
 13 25  1  0
 15 26  1  0
M  ISO  8  17   8  18   8  19  14  20  14  21   3  22   8  23   8  24  14
M  ISO  2  25  14  26  14
M  END
>  <minimizedAffinity>  (1) 
-4.59287262

>  <minimizedRMSD>  (1) 
1.5163542

$$$$
