
     RDKit          3D

 46 50  0  0  0  0  0  0  0  0999 V2000
   46.1290   34.9990   41.8370 C   0  0  0  0  0  0  0  0  0  0  0  0
   45.7350   34.8820   43.2330 C   0  0  0  0  0  0  0  0  0  0  0  0
   44.9340   35.9120   43.6970 C   0  0  0  0  0  0  0  0  0  0  0  0
   44.4740   35.9050   44.9930 C   0  0  0  0  0  0  0  0  0  0  0  0
   44.8320   34.8710   45.7800 N   0  0  0  0  0  0  0  0  0  0  0  0
   45.6200   33.8560   45.3270 C   0  0  0  0  0  0  0  0  0  0  0  0
   46.0500   33.9110   44.0340 N   0  0  0  0  0  0  0  0  0  0  0  0
   45.8810   32.8470   46.3360 C   0  0  0  0  0  0  0  0  0  0  0  0
   45.3290   32.9620   47.5920 C   0  0  0  0  0  0  0  0  0  0  0  0
   45.5300   32.0450   48.6000 C   0  0  0  0  0  0  0  0  0  0  0  0
   46.3150   30.9360   48.4060 C   0  0  0  0  0  0  0  0  0  0  0  0
   46.8890   30.7740   47.1700 C   0  0  0  0  0  0  0  0  0  0  0  0
   47.6810   29.6680   46.9520 C   0  0  0  0  0  0  0  0  0  0  0  0
   48.2880   29.4460   45.7340 C   0  0  0  0  0  0  0  0  0  0  0  0
   48.0590   30.3980   44.7350 C   0  0  0  0  0  0  0  0  0  0  0  0
   47.2660   31.4780   45.0010 C   0  0  0  0  0  0  0  0  0  0  0  0
   46.6530   31.7210   46.2040 C   0  0  0  0  0  0  0  0  0  0  0  0
   47.6290   34.9730   41.6510 C   0  0  0  0  0  0  0  0  0  0  0  0
   48.0250   34.0910   40.6070 N   0  0  0  0  0  0  0  0  0  0  0  0
   47.6500   34.0260   39.3240 C   0  0  0  0  0  0  0  0  0  0  0  0
   48.2860   33.0040   38.6280 C   0  0  0  0  0  0  0  0  0  0  0  0
   49.0910   32.4270   39.5730 N   0  0  0  0  0  0  0  0  0  0  0  0
   48.9110   33.0940   40.7250 C   0  0  0  0  0  0  0  0  0  0  0  0
   49.6890   32.6430   41.9320 C   0  0  0  0  0  0  0  0  0  0  0  0
   51.1520   32.2660   41.7370 C   0  0  0  0  0  0  0  0  0  0  0  0
   50.7790   33.5180   42.4580 C   0  0  0  0  0  0  0  0  0  0  0  0
   45.6901   34.1609   41.2758 H   0  0  0  0  0  0  0  0  0  0  0  0
   45.7649   35.9695   41.4688 H   0  0  0  0  0  0  0  0  0  0  0  0
   44.6642   36.7403   43.0253 H   0  0  0  0  0  0  0  0  0  0  0  0
   43.8357   36.7156   45.3743 H   0  0  0  0  0  0  0  0  0  0  0  0
   44.6924   33.8341   47.8021 H   0  0  0  0  0  0  0  0  0  0  0  0
   45.0527   32.2044   49.5782 H   0  0  0  0  0  0  0  0  0  0  0  0
   46.4780   30.2044   49.2111 H   0  0  0  0  0  0  0  0  0  0  0  0
   47.8325   28.9459   47.7678 H   0  0  0  0  0  0  0  0  0  0  0  0
   48.9209   28.5640   45.5567 H   0  0  0  0  0  0  0  0  0  0  0  0
   48.5148   30.2777   43.7411 H   0  0  0  0  0  0  0  0  0  0  0  0
   47.1074   32.2059   44.1916 H   0  0  0  0  0  0  0  0  0  0  0  0
   47.9735   35.9887   41.4067 H   0  0  0  0  0  0  0  0  0  0  0  0
   48.0796   34.6124   42.5874 H   0  0  0  0  0  0  0  0  0  0  0  0
   46.9170   34.7082   38.8687 H   0  0  0  0  0  0  0  0  0  0  0  0
   48.1699   32.7255   37.5702 H   0  0  0  0  0  0  0  0  0  0  0  0
   48.8020   32.1607   42.3687 H   0  0  0  0  0  0  0  0  0  0  0  0
   51.5817   31.4179   42.2902 H   0  0  0  0  0  0  0  0  0  0  0  0
   51.7876   32.0214   40.8732 H   0  0  0  0  0  0  0  0  0  0  0  0
   50.9689   34.4951   41.9899 H   0  0  0  0  0  0  0  0  0  0  0  0
   51.0196   33.9383   43.4456 H   0  0  0  0  0  0  0  0  0  0  0  0
  1  2  1  0
  2  3  2  0
  2  7  1  0
  3  4  1  0
  4  5  2  0
  6  5  1  0
  6  8  1  0
  7  6  2  0
  8  9  2  0
  9 10  1  0
 11 10  2  0
 12 11  1  0
 13 12  2  0
 14 13  1  0
 15 16  1  0
 15 14  2  0
 16 17  2  0
 17  8  1  0
 17 12  1  0
 18  1  1  0
 19 23  1  0
 19 18  1  0
 20 19  1  0
 21 20  2  0
 21 22  1  0
 22 23  2  0
 23 24  1  0
 24 26  1  0
 25 24  1  0
 25 26  1  0
  1 27  1  0
  1 28  1  0
  3 29  1  0
  4 30  1  0
  9 31  1  0
 10 32  1  0
 11 33  1  0
 13 34  1  0
 14 35  1  0
 15 36  1  0
 16 37  1  0
 18 38  1  0
 18 39  1  0
 20 40  1  0
 21 41  1  0
 24 42  1  0
 25 43  1  0
 25 44  1  0
 26 45  1  0
 26 46  1  0
M  ISO  8  27   8  28   8  29  14  30  14  31  14  32  14  33  14  34  14
M  ISO  8  35  14  36  14  37  14  38   8  39   8  40  14  41  14  42  13
M  ISO  4  43  13  44  13  45  13  46  13
M  END
>  <minimizedAffinity>  (1) 
-6.45756865

>  <minimizedRMSD>  (1) 
0.317412496

$$$$
