
     RDKit          3D

 41 45  0  0  0  0  0  0  0  0999 V2000
   46.1770   35.1900   41.7420 C   0  0  0  0  0  0  0  0  0  0  0  0
   45.8750   34.8380   43.1200 C   0  0  0  0  0  0  0  0  0  0  0  0
   45.0220   35.7130   43.7730 C   0  0  0  0  0  0  0  0  0  0  0  0
   44.6400   35.5150   45.0800 C   0  0  0  0  0  0  0  0  0  0  0  0
   45.1230   34.4380   45.7050 N   0  0  0  0  0  0  0  0  0  0  0  0
   45.9690   33.5710   45.0570 C   0  0  0  0  0  0  0  0  0  0  0  0
   46.3310   33.7960   43.7560 N   0  0  0  0  0  0  0  0  0  0  0  0
   46.5350   32.3970   45.6430 N   0  0  0  0  0  0  0  0  0  0  0  0
   47.3830   31.4870   45.1070 C   0  0  0  0  0  0  0  0  0  0  0  0
   47.6390   30.5430   46.0570 N   0  0  0  0  0  0  0  0  0  0  0  0
   46.9410   30.9000   47.1470 C   0  0  0  0  0  0  0  0  0  0  0  0
   46.8700   30.2600   48.3780 C   0  0  0  0  0  0  0  0  0  0  0  0
   46.0970   30.7840   49.3730 N   0  0  0  0  0  0  0  0  0  0  0  0
   45.4150   31.9290   49.1160 C   0  0  0  0  0  0  0  0  0  0  0  0
   45.4850   32.5460   47.9220 N   0  0  0  0  0  0  0  0  0  0  0  0
   46.2260   32.0710   46.9250 C   0  0  0  0  0  0  0  0  0  0  0  0
   47.6640   35.1950   41.4640 C   0  0  0  0  0  0  0  0  0  0  0  0
   48.0400   34.1880   40.5250 N   0  0  0  0  0  0  0  0  0  0  0  0
   47.6820   33.9970   39.2490 C   0  0  0  0  0  0  0  0  0  0  0  0
   48.2850   32.8920   38.6880 C   0  0  0  0  0  0  0  0  0  0  0  0
   49.0410   32.4000   39.6870 N   0  0  0  0  0  0  0  0  0  0  0  0
   48.8880   33.1800   40.7780 C   0  0  0  0  0  0  0  0  0  0  0  0
   49.6320   32.8120   42.0290 C   0  0  0  0  0  0  0  0  0  0  0  0
   51.0760   32.3870   41.9340 C   0  0  0  0  0  0  0  0  0  0  0  0
   50.7220   33.7280   42.4850 C   0  0  0  0  0  0  0  0  0  0  0  0
   45.6950   34.4589   41.0763 H   0  0  0  0  0  0  0  0  0  0  0  0
   45.7976   36.2069   41.5633 H   0  0  0  0  0  0  0  0  0  0  0  0
   44.6394   36.5906   43.2314 H   0  0  0  0  0  0  0  0  0  0  0  0
   43.9633   36.2163   45.5901 H   0  0  0  0  0  0  0  0  0  0  0  0
   47.7926   31.5061   44.0863 H   0  0  0  0  0  0  0  0  0  0  0  0
   47.4358   29.3326   48.5503 H   0  0  0  0  0  0  0  0  0  0  0  0
   44.7868   32.3653   49.9066 H   0  0  0  0  0  0  0  0  0  0  0  0
   47.9457   36.1787   41.0604 H   0  0  0  0  0  0  0  0  0  0  0  0
   48.1852   34.9864   42.4099 H   0  0  0  0  0  0  0  0  0  0  0  0
   46.9827   34.6509   38.7074 H   0  0  0  0  0  0  0  0  0  0  0  0
   48.1745   32.5036   37.6648 H   0  0  0  0  0  0  0  0  0  0  0  0
   48.7279   32.3747   42.4778 H   0  0  0  0  0  0  0  0  0  0  0  0
   51.4642   31.6028   42.6006 H   0  0  0  0  0  0  0  0  0  0  0  0
   51.7299   32.0239   41.1275 H   0  0  0  0  0  0  0  0  0  0  0  0
   50.9523   34.6359   41.9082 H   0  0  0  0  0  0  0  0  0  0  0  0
   50.9425   34.2633   43.4203 H   0  0  0  0  0  0  0  0  0  0  0  0
  1  2  1  0
  2  7  1  0
  2  3  2  0
  3  4  1  0
  4  5  2  0
  6  8  1  0
  6  5  1  0
  7  6  2  0
  8 16  1  0
  9  8  1  0
  9 10  2  0
 10 11  1  0
 11 12  2  0
 12 13  1  0
 14 13  2  0
 15 14  1  0
 16 11  1  0
 16 15  2  0
 17  1  1  0
 18 22  1  0
 18 17  1  0
 19 18  1  0
 20 19  2  0
 20 21  1  0
 21 22  2  0
 22 23  1  0
 23 25  1  0
 24 23  1  0
 24 25  1  0
  1 26  1  0
  1 27  1  0
  3 28  1  0
  4 29  1  0
  9 30  1  0
 12 31  1  0
 14 32  1  0
 17 33  1  0
 17 34  1  0
 19 35  1  0
 20 36  1  0
 23 37  1  0
 24 38  1  0
 24 39  1  0
 25 40  1  0
 25 41  1  0
M  ISO  8  26   8  27   8  28  14  29  14  30  14  31  14  32  14  33   8
M  ISO  8  34   8  35  14  36  14  37  13  38  13  39  13  40  13  41  13
M  END
>  <minimizedAffinity>  (1) 
-6.13447762

>  <minimizedRMSD>  (1) 
0.826499939

$$$$
