
     RDKit          3D

 42 45  0  0  0  0  0  0  0  0999 V2000
   46.2860   34.4820   41.7270 C   0  0  0  0  0  0  0  0  0  0  0  0
   47.1870   33.8730   40.7910 N   0  0  0  0  0  0  0  0  0  0  0  0
   47.0280   33.5840   39.4920 C   0  0  0  0  0  0  0  0  0  0  0  0
   48.1460   33.0040   38.9440 C   0  0  0  0  0  0  0  0  0  0  0  0
   49.0220   32.9450   39.9820 N   0  0  0  0  0  0  0  0  0  0  0  0
   48.4340   33.4680   41.0760 C   0  0  0  0  0  0  0  0  0  0  0  0
   49.2020   33.4990   42.3650 C   0  0  0  0  0  0  0  0  0  0  0  0
   50.7110   33.5020   42.3100 C   0  0  0  0  0  0  0  0  0  0  0  0
   49.9690   34.7450   42.6790 C   0  0  0  0  0  0  0  0  0  0  0  0
   45.4290   33.4580   42.4370 C   0  0  0  0  0  0  0  0  0  0  0  0
   45.3360   33.7080   43.8620 C   0  0  0  0  0  0  0  0  0  0  0  0
   44.7760   34.9280   44.2110 C   0  0  0  0  0  0  0  0  0  0  0  0
   44.6090   35.3240   45.5190 C   0  0  0  0  0  0  0  0  0  0  0  0
   45.0170   34.4680   46.4610 N   0  0  0  0  0  0  0  0  0  0  0  0
   45.5760   33.2520   46.1230 C   0  0  0  0  0  0  0  0  0  0  0  0
   45.7200   32.9050   44.8150 N   0  0  0  0  0  0  0  0  0  0  0  0
   45.9940   32.3770   47.1690 N   0  0  0  0  0  0  0  0  0  0  0  0
   44.9560   31.6710   47.8960 C   0  0  0  0  0  0  0  0  0  0  0  0
   45.4240   31.5710   49.3280 C   0  0  0  0  0  0  0  0  0  0  0  0
   46.7260   30.9920   49.4500 N   0  0  0  0  0  0  0  0  0  0  0  0
   47.7630   31.6500   48.7380 C   0  0  0  0  0  0  0  0  0  0  0  0
   47.4000   32.2510   47.4370 C   0  0  0  0  0  0  0  0  0  0  0  0
   45.6303   35.1801   41.1860 H   0  0  0  0  0  0  0  0  0  0  0  0
   46.8867   35.0064   42.4848 H   0  0  0  0  0  0  0  0  0  0  0  0
   46.1059   33.7883   38.9281 H   0  0  0  0  0  0  0  0  0  0  0  0
   48.2971   32.6664   37.9081 H   0  0  0  0  0  0  0  0  0  0  0  0
   48.4487   32.8859   42.8813 H   0  0  0  0  0  0  0  0  0  0  0  0
   51.2909   32.9602   43.0717 H   0  0  0  0  0  0  0  0  0  0  0  0
   51.4637   33.2398   41.5519 H   0  0  0  0  0  0  0  0  0  0  0  0
   49.9428   35.5952   41.9816 H   0  0  0  0  0  0  0  0  0  0  0  0
   50.0000   35.4409   43.5303 H   0  0  0  0  0  0  0  0  0  0  0  0
   44.4170   33.4849   42.0068 H   0  0  0  0  0  0  0  0  0  0  0  0
   45.8994   32.4733   42.2991 H   0  0  0  0  0  0  0  0  0  0  0  0
   44.4517   35.6076   43.4092 H   0  0  0  0  0  0  0  0  0  0  0  0
   44.1623   36.2959   45.7759 H   0  0  0  0  0  0  0  0  0  0  0  0
   44.0096   32.2292   47.8441 H   0  0  0  0  0  0  0  0  0  0  0  0
   44.7786   30.6741   47.4661 H   0  0  0  0  0  0  0  0  0  0  0  0
   45.4478   32.5821   49.7607 H   0  0  0  0  0  0  0  0  0  0  0  0
   44.7200   30.9140   49.8597 H   0  0  0  0  0  0  0  0  0  0  0  0
   46.9003   30.1509   50.0184 H   0  0  0  0  0  0  0  0  0  0  0  0
   48.7871   31.7098   49.1351 H   0  0  0  0  0  0  0  0  0  0  0  0
   48.1619   32.5824   46.7161 H   0  0  0  0  0  0  0  0  0  0  0  0
  1 10  1  0
  2  6  1  0
  2  1  1  0
  3  2  1  0
  4  3  2  0
  4  5  1  0
  5  6  2  0
  6  7  1  0
  7  9  1  0
  8  7  1  0
  8  9  1  0
 10 11  1  0
 11 12  2  0
 11 16  1  0
 12 13  1  0
 13 14  2  0
 15 14  1  0
 15 17  1  0
 16 15  2  0
 17 22  1  0
 17 18  1  0
 18 19  1  0
 19 20  1  0
 21 20  1  0
 22 21  2  0
  1 23  1  0
  1 24  1  0
  3 25  1  0
  4 26  1  0
  7 27  1  0
  8 28  1  0
  8 29  1  0
  9 30  1  0
  9 31  1  0
 10 32  1  0
 10 33  1  0
 12 34  1  0
 13 35  1  0
 18 36  1  0
 18 37  1  0
 19 38  1  0
 19 39  1  0
 20 40  1  0
 21 41  1  0
 22 42  1  0
M  ISO  8  23   8  24   8  25  14  26  14  27  13  28  13  29  13  30  13
M  ISO  8  31  13  32   8  33   8  34  14  35  14  36  13  37  13  38  13
M  ISO  3  39  13  41  13  42  13
M  END
>  <minimizedAffinity>  (1) 
-5.87841415

>  <minimizedRMSD>  (1) 
1.16610301

$$$$
