
     RDKit          3D

 37 40  0  0  0  0  0  0  0  0999 V2000
   46.4410   34.4140   41.0760 C   0  0  0  0  0  0  0  0  0  0  0  0
   47.4270   33.6080   40.4250 N   0  0  0  0  0  0  0  0  0  0  0  0
   47.4320   33.0560   39.2070 C   0  0  0  0  0  0  0  0  0  0  0  0
   48.5920   32.3460   38.9590 C   0  0  0  0  0  0  0  0  0  0  0  0
   49.3120   32.4900   40.1010 N   0  0  0  0  0  0  0  0  0  0  0  0
   48.6030   33.2430   40.9600 C   0  0  0  0  0  0  0  0  0  0  0  0
   49.1900   33.5300   42.2990 C   0  0  0  0  0  0  0  0  0  0  0  0
   50.6820   33.7350   42.4300 C   0  0  0  0  0  0  0  0  0  0  0  0
   49.7460   34.8910   42.5640 C   0  0  0  0  0  0  0  0  0  0  0  0
   45.4380   33.5820   41.8410 C   0  0  0  0  0  0  0  0  0  0  0  0
   45.2770   34.0310   43.2090 C   0  0  0  0  0  0  0  0  0  0  0  0
   44.6470   35.2560   43.3680 C   0  0  0  0  0  0  0  0  0  0  0  0
   44.4170   35.8220   44.6000 C   0  0  0  0  0  0  0  0  0  0  0  0
   44.8300   35.1370   45.6700 N   0  0  0  0  0  0  0  0  0  0  0  0
   45.4590   33.9160   45.5220 C   0  0  0  0  0  0  0  0  0  0  0  0
   45.6600   33.4060   44.2880 N   0  0  0  0  0  0  0  0  0  0  0  0
   45.9340   33.1150   46.5990 N   0  0  0  0  0  0  0  0  0  0  0  0
   45.0880   33.0330   47.6250 N   0  0  0  0  0  0  0  0  0  0  0  0
   45.6120   32.2590   48.5970 C   0  0  0  0  0  0  0  0  0  0  0  0
   46.8540   31.8340   48.1580 C   0  0  0  0  0  0  0  0  0  0  0  0
   47.0450   32.3840   46.8860 C   0  0  0  0  0  0  0  0  0  0  0  0
   45.9066   35.0028   40.3159 H   0  0  0  0  0  0  0  0  0  0  0  0
   46.9586   35.0651   41.7958 H   0  0  0  0  0  0  0  0  0  0  0  0
   46.6078   33.1554   38.4853 H   0  0  0  0  0  0  0  0  0  0  0  0
   48.8674   31.7933   38.0487 H   0  0  0  0  0  0  0  0  0  0  0  0
   48.4510   32.8761   42.7850 H   0  0  0  0  0  0  0  0  0  0  0  0
   51.2154   33.3526   43.3128 H   0  0  0  0  0  0  0  0  0  0  0  0
   51.5583   33.5092   41.8046 H   0  0  0  0  0  0  0  0  0  0  0  0
   49.7095   35.6601   41.7784 H   0  0  0  0  0  0  0  0  0  0  0  0
   49.5731   35.6610   43.3303 H   0  0  0  0  0  0  0  0  0  0  0  0
   44.4651   33.6450   41.3317 H   0  0  0  0  0  0  0  0  0  0  0  0
   45.8119   32.5479   41.8692 H   0  0  0  0  0  0  0  0  0  0  0  0
   44.3169   35.7985   42.4698 H   0  0  0  0  0  0  0  0  0  0  0  0
   43.9151   36.7957   44.7000 H   0  0  0  0  0  0  0  0  0  0  0  0
   45.1403   32.0115   49.5594 H   0  0  0  0  0  0  0  0  0  0  0  0
   47.5563   31.1876   48.7047 H   0  0  0  0  0  0  0  0  0  0  0  0
   47.9258   32.2508   46.2407 H   0  0  0  0  0  0  0  0  0  0  0  0
  1 10  1  0
  2  6  1  0
  2  1  1  0
  3  2  1  0
  4  3  2  0
  4  5  1  0
  5  6  2  0
  6  7  1  0
  7  8  1  0
  7  9  1  0
  8  9  1  0
 10 11  1  0
 11 12  2  0
 11 16  1  0
 12 13  1  0
 13 14  2  0
 15 14  1  0
 15 17  1  0
 16 15  2  0
 17 21  1  0
 17 18  1  0
 18 19  2  0
 20 19  1  0
 21 20  2  0
  1 22  1  0
  1 23  1  0
  3 24  1  0
  4 25  1  0
  7 26  1  0
  8 27  1  0
  8 28  1  0
  9 29  1  0
  9 30  1  0
 10 31  1  0
 10 32  1  0
 12 33  1  0
 13 34  1  0
 19 35  1  0
 20 36  1  0
 21 37  1  0
M  ISO  8  22   8  23   8  24  14  25  14  26  13  27  13  28  13  29  13
M  ISO  8  30  13  31   8  32   8  33  14  34  14  35  14  36  14  37  14
M  END
>  <minimizedAffinity>  (1) 
-5.75632

>  <minimizedRMSD>  (1) 
1.0319351

$$$$
