
     RDKit          3D

 36 39  0  0  0  0  0  0  0  0999 V2000
   46.7440   34.6540   41.1560 C   0  0  0  0  0  0  0  0  0  0  0  0
   47.5820   33.7910   40.3900 N   0  0  0  0  0  0  0  0  0  0  0  0
   47.4940   33.3800   39.1200 C   0  0  0  0  0  0  0  0  0  0  0  0
   48.5260   32.5460   38.7570 C   0  0  0  0  0  0  0  0  0  0  0  0
   49.2750   32.4540   39.8800 N   0  0  0  0  0  0  0  0  0  0  0  0
   48.6990   33.2020   40.8420 C   0  0  0  0  0  0  0  0  0  0  0  0
   49.3500   33.2410   42.2060 C   0  0  0  0  0  0  0  0  0  0  0  0
   50.8540   33.3110   42.2930 C   0  0  0  0  0  0  0  0  0  0  0  0
   50.0260   34.5160   42.6020 C   0  0  0  0  0  0  0  0  0  0  0  0
   45.5600   33.9240   41.7520 C   0  0  0  0  0  0  0  0  0  0  0  0
   45.3570   34.2520   43.1560 C   0  0  0  0  0  0  0  0  0  0  0  0
   44.6870   35.4690   43.3630 C   0  0  0  0  0  0  0  0  0  0  0  0
   44.4140   35.9080   44.6390 C   0  0  0  0  0  0  0  0  0  0  0  0
   44.8020   35.1470   45.6660 N   0  0  0  0  0  0  0  0  0  0  0  0
   45.4560   33.9580   45.4480 C   0  0  0  0  0  0  0  0  0  0  0  0
   45.7310   33.5170   44.1780 N   0  0  0  0  0  0  0  0  0  0  0  0
   45.8790   33.1300   46.5280 N   0  0  0  0  0  0  0  0  0  0  0  0
   46.9350   32.3270   46.7540 C   0  0  0  0  0  0  0  0  0  0  0  0
   46.8350   31.7660   47.9740 N   0  0  0  0  0  0  0  0  0  0  0  0
   45.6900   32.2360   48.5120 C   0  0  0  0  0  0  0  0  0  0  0  0
   45.0970   33.0800   47.6170 N   0  0  0  0  0  0  0  0  0  0  0  0
   46.3722   35.4572   40.5029 H   0  0  0  0  0  0  0  0  0  0  0  0
   47.3438   35.0563   41.9857 H   0  0  0  0  0  0  0  0  0  0  0  0
   46.6831   33.6772   38.4388 H   0  0  0  0  0  0  0  0  0  0  0  0
   48.7011   32.0665   37.7826 H   0  0  0  0  0  0  0  0  0  0  0  0
   48.5833   32.5840   42.6426 H   0  0  0  0  0  0  0  0  0  0  0  0
   51.3838   32.7851   43.1009 H   0  0  0  0  0  0  0  0  0  0  0  0
   51.6851   33.0920   41.6065 H   0  0  0  0  0  0  0  0  0  0  0  0
   50.0267   35.3734   41.9128 H   0  0  0  0  0  0  0  0  0  0  0  0
   49.9456   35.2016   43.4584 H   0  0  0  0  0  0  0  0  0  0  0  0
   44.6554   34.1996   41.1902 H   0  0  0  0  0  0  0  0  0  0  0  0
   45.7620   32.8448   41.6848 H   0  0  0  0  0  0  0  0  0  0  0  0
   44.3781   36.0759   42.4991 H   0  0  0  0  0  0  0  0  0  0  0  0
   43.8902   36.8603   44.8083 H   0  0  0  0  0  0  0  0  0  0  0  0
   47.7589   32.1543   46.0460 H   0  0  0  0  0  0  0  0  0  0  0  0
   45.2986   31.9811   49.5079 H   0  0  0  0  0  0  0  0  0  0  0  0
  1 10  1  0
  2  6  1  0
  2  1  1  0
  3  2  1  0
  4  3  2  0
  4  5  1  0
  5  6  2  0
  6  7  1  0
  7  8  1  0
  7  9  1  0
  8  9  1  0
 10 11  1  0
 11 12  2  0
 11 16  1  0
 12 13  1  0
 13 14  2  0
 15 14  1  0
 15 17  1  0
 16 15  2  0
 17 18  1  0
 17 21  1  0
 18 19  2  0
 19 20  1  0
 21 20  2  0
  1 22  1  0
  1 23  1  0
  3 24  1  0
  4 25  1  0
  7 26  1  0
  8 27  1  0
  8 28  1  0
  9 29  1  0
  9 30  1  0
 10 31  1  0
 10 32  1  0
 12 33  1  0
 13 34  1  0
 18 35  1  0
 20 36  1  0
M  ISO  8  22   8  23   8  24  14  25  14  26  13  27  13  28  13  29  13
M  ISO  7  30  13  31   8  32   8  33  14  34  14  35  14  36  14
M  END
>  <minimizedAffinity>  (1) 
-5.72582769

>  <minimizedRMSD>  (1) 
0.778625429

$$$$
