
     RDKit          3D

 37 40  0  0  0  0  0  0  0  0999 V2000
   46.3890   34.4150   41.1000 C   0  0  0  0  0  0  0  0  0  0  0  0
   47.3720   33.6300   40.4440 N   0  0  0  0  0  0  0  0  0  0  0  0
   47.3920   33.0840   39.2210 C   0  0  0  0  0  0  0  0  0  0  0  0
   48.5580   32.3900   38.9650 C   0  0  0  0  0  0  0  0  0  0  0  0
   49.2730   32.5290   40.0980 N   0  0  0  0  0  0  0  0  0  0  0  0
   48.5530   33.2710   40.9720 C   0  0  0  0  0  0  0  0  0  0  0  0
   49.1490   33.5490   42.3280 C   0  0  0  0  0  0  0  0  0  0  0  0
   50.6410   33.7540   42.4330 C   0  0  0  0  0  0  0  0  0  0  0  0
   49.7170   34.9140   42.5620 C   0  0  0  0  0  0  0  0  0  0  0  0
   45.3970   33.5680   41.8770 C   0  0  0  0  0  0  0  0  0  0  0  0
   45.2300   34.0270   43.2380 C   0  0  0  0  0  0  0  0  0  0  0  0
   44.6750   35.3060   43.3710 C   0  0  0  0  0  0  0  0  0  0  0  0
   44.4520   35.8800   44.6020 C   0  0  0  0  0  0  0  0  0  0  0  0
   44.7890   35.1650   45.6790 N   0  0  0  0  0  0  0  0  0  0  0  0
   45.3330   33.9140   45.5520 C   0  0  0  0  0  0  0  0  0  0  0  0
   45.5420   33.3690   44.3190 N   0  0  0  0  0  0  0  0  0  0  0  0
   45.7040   33.1210   46.6950 N   0  0  0  0  0  0  0  0  0  0  0  0
   46.9600   32.6100   46.5480 C   0  0  0  0  0  0  0  0  0  0  0  0
   47.2370   31.8600   47.6950 C   0  0  0  0  0  0  0  0  0  0  0  0
   46.1280   31.9550   48.4830 N   0  0  0  0  0  0  0  0  0  0  0  0
   45.2080   32.7190   47.8720 C   0  0  0  0  0  0  0  0  0  0  0  0
   45.8409   34.9981   40.3453 H   0  0  0  0  0  0  0  0  0  0  0  0
   46.9058   35.0696   41.8173 H   0  0  0  0  0  0  0  0  0  0  0  0
   46.5681   33.1783   38.4983 H   0  0  0  0  0  0  0  0  0  0  0  0
   48.8379   31.8494   38.0488 H   0  0  0  0  0  0  0  0  0  0  0  0
   48.4187   32.9006   42.8342 H   0  0  0  0  0  0  0  0  0  0  0  0
   51.1866   33.3845   43.3138 H   0  0  0  0  0  0  0  0  0  0  0  0
   51.5062   33.5149   41.7972 H   0  0  0  0  0  0  0  0  0  0  0  0
   49.6723   35.6702   41.7644 H   0  0  0  0  0  0  0  0  0  0  0  0
   49.5604   35.6977   43.3179 H   0  0  0  0  0  0  0  0  0  0  0  0
   44.4226   33.6085   41.3681 H   0  0  0  0  0  0  0  0  0  0  0  0
   45.7888   32.5408   41.9143 H   0  0  0  0  0  0  0  0  0  0  0  0
   44.4092   35.8689   42.4641 H   0  0  0  0  0  0  0  0  0  0  0  0
   44.0147   36.8851   44.6951 H   0  0  0  0  0  0  0  0  0  0  0  0
   47.6295   32.7599   45.6882 H   0  0  0  0  0  0  0  0  0  0  0  0
   48.1612   31.3061   47.9167 H   0  0  0  0  0  0  0  0  0  0  0  0
   44.2146   32.9719   48.2711 H   0  0  0  0  0  0  0  0  0  0  0  0
  1 10  1  0
  2  6  1  0
  2  1  1  0
  3  2  1  0
  4  3  2  0
  4  5  1  0
  5  6  2  0
  6  7  1  0
  7  8  1  0
  7  9  1  0
  8  9  1  0
 10 11  1  0
 11 12  2  0
 11 16  1  0
 12 13  1  0
 13 14  2  0
 15 14  1  0
 15 17  1  0
 16 15  2  0
 17 21  1  0
 18 17  1  0
 18 19  2  0
 19 20  1  0
 21 20  2  0
  1 22  1  0
  1 23  1  0
  3 24  1  0
  4 25  1  0
  7 26  1  0
  8 27  1  0
  8 28  1  0
  9 29  1  0
  9 30  1  0
 10 31  1  0
 10 32  1  0
 12 33  1  0
 13 34  1  0
 18 35  1  0
 19 36  1  0
 21 37  1  0
M  ISO  8  22   8  23   8  24  14  25  14  26  13  27  13  28  13  29  13
M  ISO  8  30  13  31   8  32   8  33  14  34  14  35  14  36  14  37  14
M  END
>  <minimizedAffinity>  (1) 
-5.63876152

>  <minimizedRMSD>  (1) 
1.03140354

$$$$
