
     RDKit          3D

 43 46  0  0  0  0  0  0  0  0999 V2000
   46.1910   35.0910   42.1210 C   0  0  0  0  0  0  0  0  0  0  0  0
   45.9600   34.6790   43.4900 C   0  0  0  0  0  0  0  0  0  0  0  0
   44.9870   35.4250   44.1700 C   0  0  0  0  0  0  0  0  0  0  0  0
   44.6570   35.1470   45.4760 C   0  0  0  0  0  0  0  0  0  0  0  0
   45.2950   34.1410   46.0780 N   0  0  0  0  0  0  0  0  0  0  0  0
   46.2480   33.4120   45.4080 C   0  0  0  0  0  0  0  0  0  0  0  0
   46.5630   33.7030   44.1090 N   0  0  0  0  0  0  0  0  0  0  0  0
   48.1640   30.2460   47.4340 C   0  0  0  0  0  0  0  0  0  0  0  0
   47.7950   31.4080   48.0950 C   0  0  0  0  0  0  0  0  0  0  0  0
   47.1700   32.4550   47.4600 C   0  0  0  0  0  0  0  0  0  0  0  0
   46.9100   32.3240   46.1230 C   0  0  0  0  0  0  0  0  0  0  0  0
   47.2490   31.2080   45.4230 C   0  0  0  0  0  0  0  0  0  0  0  0
   47.8740   30.1750   46.0830 C   0  0  0  0  0  0  0  0  0  0  0  0
   48.9630   28.9190   48.2670 S   0  0  0  0  0  0  0  0  0  0  0  0
   49.5350   29.5380   49.5340 O   0  0  0  0  0  0  0  0  0  0  0  0
   50.0680   28.3900   47.4150 O   0  0  0  0  0  0  0  0  0  0  0  0
   47.6620   35.1090   41.7630 C   0  0  0  0  0  0  0  0  0  0  0  0
   47.9820   34.1840   40.7340 N   0  0  0  0  0  0  0  0  0  0  0  0
   47.5390   34.0810   39.4690 C   0  0  0  0  0  0  0  0  0  0  0  0
   48.1090   33.0370   38.7820 C   0  0  0  0  0  0  0  0  0  0  0  0
   48.9440   32.4770   39.6880 N   0  0  0  0  0  0  0  0  0  0  0  0
   48.8550   33.1740   40.8440 C   0  0  0  0  0  0  0  0  0  0  0  0
   49.6830   32.7200   42.0090 C   0  0  0  0  0  0  0  0  0  0  0  0
   51.1230   32.3260   41.7910 C   0  0  0  0  0  0  0  0  0  0  0  0
   50.7920   33.6150   42.4650 C   0  0  0  0  0  0  0  0  0  0  0  0
   45.6727   34.3908   41.4493 H   0  0  0  0  0  0  0  0  0  0  0  0
   45.8068   36.1157   42.0102 H   0  0  0  0  0  0  0  0  0  0  0  0
   44.4775   36.2489   43.6488 H   0  0  0  0  0  0  0  0  0  0  0  0
   43.8929   35.7341   46.0066 H   0  0  0  0  0  0  0  0  0  0  0  0
   48.0110   31.4954   49.1700 H   0  0  0  0  0  0  0  0  0  0  0  0
   46.8887   33.3665   48.0078 H   0  0  0  0  0  0  0  0  0  0  0  0
   47.0274   31.1327   44.3482 H   0  0  0  0  0  0  0  0  0  0  0  0
   48.1501   29.2698   45.5223 H   0  0  0  0  0  0  0  0  0  0  0  0
   48.1113   27.8812   48.5397 H   0  0  0  0  0  0  0  0  0  0  0  0
   47.9304   36.1205   41.4242 H   0  0  0  0  0  0  0  0  0  0  0  0
   48.2283   34.8200   42.6606 H   0  0  0  0  0  0  0  0  0  0  0  0
   46.7962   34.7628   39.0292 H   0  0  0  0  0  0  0  0  0  0  0  0
   47.9293   32.7289   37.7414 H   0  0  0  0  0  0  0  0  0  0  0  0
   48.8144   32.2340   42.4774 H   0  0  0  0  0  0  0  0  0  0  0  0
   51.5611   31.4991   42.3692 H   0  0  0  0  0  0  0  0  0  0  0  0
   51.7277   32.0358   40.9191 H   0  0  0  0  0  0  0  0  0  0  0  0
   50.9759   34.5676   41.9467 H   0  0  0  0  0  0  0  0  0  0  0  0
   51.0668   34.0803   43.4231 H   0  0  0  0  0  0  0  0  0  0  0  0
  1  2  1  0
  2  7  1  0
  2  3  2  0
  3  4  1  0
  4  5  2  0
  6  5  1  0
  6 11  1  0
  7  6  2  0
  8  9  2  0
  8 14  1  0
 10  9  1  0
 11 10  2  0
 12 13  2  0
 12 11  1  0
 13  8  1  0
 14 15  2  0
 16 14  2  0
 17  1  1  0
 18 22  1  0
 18 17  1  0
 19 18  1  0
 20 19  2  0
 20 21  1  0
 21 22  2  0
 22 23  1  0
 23 25  1  0
 24 23  1  0
 24 25  1  0
  1 26  1  0
  1 27  1  0
  3 28  1  0
  4 29  1  0
  9 30  1  0
 10 31  1  0
 12 32  1  0
 13 33  1  0
 14 34  1  0
 17 35  1  0
 17 36  1  0
 19 37  1  0
 20 38  1  0
 23 39  1  0
 24 40  1  0
 24 41  1  0
 25 42  1  0
 25 43  1  0
M  ISO  8  26   8  27   8  28  14  29  14  30  14  31  14  32  14  33  14
M  ISO  8  34  11  35   8  36   8  37  14  38  14  39  13  40  13  41  13
M  ISO  2  42  13  43  13
M  END
>  <minimizedAffinity>  (1) 
-5.59818888

>  <minimizedRMSD>  (1) 
1.37337279

$$$$
