
     RDKit          3D

 37 40  0  0  0  0  0  0  0  0999 V2000
   47.4770   34.7520   41.4640 C   0  0  0  0  0  0  0  0  0  0  0  0
   48.0150   33.9560   40.4200 N   0  0  0  0  0  0  0  0  0  0  0  0
   47.7280   33.9190   39.1050 C   0  0  0  0  0  0  0  0  0  0  0  0
   48.4890   32.9940   38.4210 C   0  0  0  0  0  0  0  0  0  0  0  0
   49.2780   32.4460   39.3860 N   0  0  0  0  0  0  0  0  0  0  0  0
   48.9780   33.0320   40.5640 C   0  0  0  0  0  0  0  0  0  0  0  0
   49.7140   32.5840   41.7780 C   0  0  0  0  0  0  0  0  0  0  0  0
   51.1980   32.3080   41.6980 C   0  0  0  0  0  0  0  0  0  0  0  0
   50.6960   33.5160   42.4080 C   0  0  0  0  0  0  0  0  0  0  0  0
   45.9910   34.5090   41.6710 C   0  0  0  0  0  0  0  0  0  0  0  0
   45.6050   34.6720   43.0580 C   0  0  0  0  0  0  0  0  0  0  0  0
   44.8620   35.8120   43.3440 C   0  0  0  0  0  0  0  0  0  0  0  0
   44.4130   36.1200   44.6060 C   0  0  0  0  0  0  0  0  0  0  0  0
   44.7270   35.2600   45.5780 N   0  0  0  0  0  0  0  0  0  0  0  0
   45.4590   34.1330   45.3120 C   0  0  0  0  0  0  0  0  0  0  0  0
   45.8830   33.8660   44.0450 N   0  0  0  0  0  0  0  0  0  0  0  0
   45.8270   33.1590   46.3480 C   0  0  0  0  0  0  0  0  0  0  0  0
   46.9030   32.2930   46.2510 C   0  0  0  0  0  0  0  0  0  0  0  0
   46.8390   31.5940   47.4400 C   0  0  0  0  0  0  0  0  0  0  0  0
   45.7760   32.0340   48.1960 C   0  0  0  0  0  0  0  0  0  0  0  0
   45.2020   32.9780   47.4860 O   0  0  0  0  0  0  0  0  0  0  0  0
   47.6302   35.8123   41.2145 H   0  0  0  0  0  0  0  0  0  0  0  0
   47.9945   34.4782   42.3952 H   0  0  0  0  0  0  0  0  0  0  0  0
   46.9693   34.5569   38.6281 H   0  0  0  0  0  0  0  0  0  0  0  0
   48.4643   32.7550   37.3476 H   0  0  0  0  0  0  0  0  0  0  0  0
   48.8368   32.0152   42.1201 H   0  0  0  0  0  0  0  0  0  0  0  0
   51.6350   31.4754   42.2688 H   0  0  0  0  0  0  0  0  0  0  0  0
   51.9139   32.1237   40.8834 H   0  0  0  0  0  0  0  0  0  0  0  0
   50.8599   34.5135   41.9743 H   0  0  0  0  0  0  0  0  0  0  0  0
   50.8299   33.9293   43.4186 H   0  0  0  0  0  0  0  0  0  0  0  0
   45.4247   35.2253   41.0577 H   0  0  0  0  0  0  0  0  0  0  0  0
   45.7706   33.4727   41.3753 H   0  0  0  0  0  0  0  0  0  0  0  0
   44.6220   36.5006   42.5205 H   0  0  0  0  0  0  0  0  0  0  0  0
   43.8252   37.0282   44.8050 H   0  0  0  0  0  0  0  0  0  0  0  0
   47.6284   32.1880   45.4307 H   0  0  0  0  0  0  0  0  0  0  0  0
   47.5376   30.7991   47.7403 H   0  0  0  0  0  0  0  0  0  0  0  0
   45.4709   31.6705   49.1884 H   0  0  0  0  0  0  0  0  0  0  0  0
  1 10  1  0
  2  6  1  0
  2  1  1  0
  3  2  1  0
  4  3  2  0
  4  5  1  0
  5  6  2  0
  6  7  1  0
  7  9  1  0
  8  7  1  0
  8  9  1  0
 10 11  1  0
 11 12  2  0
 11 16  1  0
 12 13  1  0
 13 14  2  0
 15 14  1  0
 15 17  1  0
 16 15  2  0
 17 21  1  0
 18 17  2  0
 18 19  1  0
 19 20  2  0
 21 20  1  0
  1 22  1  0
  1 23  1  0
  3 24  1  0
  4 25  1  0
  7 26  1  0
  8 27  1  0
  8 28  1  0
  9 29  1  0
  9 30  1  0
 10 31  1  0
 10 32  1  0
 12 33  1  0
 13 34  1  0
 18 35  1  0
 19 36  1  0
 20 37  1  0
M  ISO  8  22   8  23   8  24  14  25  14  26  13  27  13  28  13  29  13
M  ISO  8  30  13  31   8  32   8  33  14  34  14  35  14  36  14  37  14
M  END
>  <minimizedAffinity>  (1) 
-5.50008488

>  <minimizedRMSD>  (1) 
0.359939039

$$$$
