
     RDKit          3D

 33 35  0  0  0  0  0  0  0  0999 V2000
   47.6240   34.8410   41.6780 C   0  0  0  0  0  0  0  0  0  0  0  0
   48.0360   34.0260   40.5930 N   0  0  0  0  0  0  0  0  0  0  0  0
   47.6540   33.9990   39.3040 C   0  0  0  0  0  0  0  0  0  0  0  0
   48.3130   33.0490   38.5620 C   0  0  0  0  0  0  0  0  0  0  0  0
   49.1420   32.4680   39.4560 N   0  0  0  0  0  0  0  0  0  0  0  0
   48.9640   33.0610   40.6550 C   0  0  0  0  0  0  0  0  0  0  0  0
   49.7710   32.5630   41.8230 C   0  0  0  0  0  0  0  0  0  0  0  0
   51.2410   32.2830   41.6470 C   0  0  0  0  0  0  0  0  0  0  0  0
   50.7940   33.4950   42.3970 C   0  0  0  0  0  0  0  0  0  0  0  0
   46.1150   34.8840   41.8250 C   0  0  0  0  0  0  0  0  0  0  0  0
   45.7050   34.8350   43.2170 C   0  0  0  0  0  0  0  0  0  0  0  0
   44.9090   35.8920   43.6360 C   0  0  0  0  0  0  0  0  0  0  0  0
   44.4290   36.0030   44.9190 C   0  0  0  0  0  0  0  0  0  0  0  0
   44.7630   35.0340   45.7740 N   0  0  0  0  0  0  0  0  0  0  0  0
   45.5490   33.9840   45.3730 C   0  0  0  0  0  0  0  0  0  0  0  0
   46.0030   33.9140   44.0920 N   0  0  0  0  0  0  0  0  0  0  0  0
   45.8670   32.9570   46.3980 C   0  0  0  0  0  0  0  0  0  0  0  0
   45.6730   31.6810   45.8900 F   0  0  0  0  0  0  0  0  0  0  0  0
   47.1510   33.1450   46.8420 F   0  0  0  0  0  0  0  0  0  0  0  0
   44.9650   33.1280   47.4360 F   0  0  0  0  0  0  0  0  0  0  0  0
   47.9925   35.8640   41.5119 H   0  0  0  0  0  0  0  0  0  0  0  0
   48.0398   34.4090   42.6002 H   0  0  0  0  0  0  0  0  0  0  0  0
   46.8900   34.6706   38.8854 H   0  0  0  0  0  0  0  0  0  0  0  0
   48.1938   32.8167   37.4934 H   0  0  0  0  0  0  0  0  0  0  0  0
   48.9209   31.9817   42.2094 H   0  0  0  0  0  0  0  0  0  0  0  0
   51.7098   31.4453   42.1842 H   0  0  0  0  0  0  0  0  0  0  0  0
   51.9008   32.0998   40.7862 H   0  0  0  0  0  0  0  0  0  0  0  0
   50.9335   34.4941   41.9584 H   0  0  0  0  0  0  0  0  0  0  0  0
   50.9942   33.9045   43.3981 H   0  0  0  0  0  0  0  0  0  0  0  0
   45.7404   35.8160   41.3765 H   0  0  0  0  0  0  0  0  0  0  0  0
   45.6976   34.0030   41.3155 H   0  0  0  0  0  0  0  0  0  0  0  0
   44.6508   36.6758   42.9087 H   0  0  0  0  0  0  0  0  0  0  0  0
   43.7991   36.8506   45.2268 H   0  0  0  0  0  0  0  0  0  0  0  0
  1 10  1  0
  2  6  1  0
  2  1  1  0
  3  2  1  0
  4  3  2  0
  4  5  1  0
  5  6  2  0
  6  7  1  0
  7  9  1  0
  8  7  1  0
  8  9  1  0
 10 11  1  0
 11 12  2  0
 11 16  1  0
 12 13  1  0
 13 14  2  0
 15 14  1  0
 15 17  1  0
 16 15  2  0
 17 19  1  0
 17 20  1  0
 18 17  1  0
  1 21  1  0
  1 22  1  0
  3 23  1  0
  4 24  1  0
  7 25  1  0
  8 26  1  0
  8 27  1  0
  9 28  1  0
  9 29  1  0
 10 30  1  0
 10 31  1  0
 12 32  1  0
 13 33  1  0
M  ISO  8  21   8  22   8  23  14  24  14  25  13  26  13  27  13  28  13
M  ISO  5  29  13  30   8  31   8  32  14  33  14
M  END
>  <minimizedAffinity>  (1) 
-5.35383368

>  <minimizedRMSD>  (1) 
0.138051718

$$$$
