
     RDKit          3D

 42 44  0  0  0  0  0  0  0  0999 V2000
   47.5210   34.7440   42.2110 C   0  0  0  0  0  0  0  0  0  0  0  0
   47.8640   34.0300   41.0290 N   0  0  0  0  0  0  0  0  0  0  0  0
   47.3450   34.0800   39.7880 C   0  0  0  0  0  0  0  0  0  0  0  0
   47.9780   33.2150   38.9170 C   0  0  0  0  0  0  0  0  0  0  0  0
   48.9280   32.6160   39.6840 N   0  0  0  0  0  0  0  0  0  0  0  0
   48.8410   33.1150   40.9340 C   0  0  0  0  0  0  0  0  0  0  0  0
   49.7850   32.5940   41.9680 C   0  0  0  0  0  0  0  0  0  0  0  0
   51.2170   32.2970   41.5840 C   0  0  0  0  0  0  0  0  0  0  0  0
   50.8940   33.4840   42.4260 C   0  0  0  0  0  0  0  0  0  0  0  0
   46.0190   34.7780   42.4450 C   0  0  0  0  0  0  0  0  0  0  0  0
   45.6680   34.5650   43.8370 C   0  0  0  0  0  0  0  0  0  0  0  0
   44.8620   35.5750   44.3830 C   0  0  0  0  0  0  0  0  0  0  0  0
   44.4430   35.5050   45.6920 C   0  0  0  0  0  0  0  0  0  0  0  0
   44.8250   34.4540   46.4220 N   0  0  0  0  0  0  0  0  0  0  0  0
   45.6160   33.4690   45.8770 C   0  0  0  0  0  0  0  0  0  0  0  0
   46.0330   33.5420   44.5720 N   0  0  0  0  0  0  0  0  0  0  0  0
   46.0220   32.3070   46.7330 C   0  0  0  0  0  0  0  0  0  0  0  0
   45.0240   32.1500   47.8700 C   0  0  0  0  0  0  0  0  0  0  0  0
   47.3590   32.5720   47.4030 C   0  0  0  0  0  0  0  0  0  0  0  0
   46.0500   31.0150   45.9710 C   0  0  0  0  0  0  0  0  0  0  0  0
   47.8891   35.7766   42.1206 H   0  0  0  0  0  0  0  0  0  0  0  0
   47.9845   34.2275   43.0645 H   0  0  0  0  0  0  0  0  0  0  0  0
   46.5104   34.7361   39.4999 H   0  0  0  0  0  0  0  0  0  0  0  0
   47.7636   33.0491   37.8509 H   0  0  0  0  0  0  0  0  0  0  0  0
   48.9798   32.0244   42.4550 H   0  0  0  0  0  0  0  0  0  0  0  0
   51.7380   31.4342   42.0247 H   0  0  0  0  0  0  0  0  0  0  0  0
   51.7529   32.1352   40.6371 H   0  0  0  0  0  0  0  0  0  0  0  0
   50.9926   34.4961   42.0065 H   0  0  0  0  0  0  0  0  0  0  0  0
   51.2347   33.8527   43.4048 H   0  0  0  0  0  0  0  0  0  0  0  0
   45.6353   35.7598   42.1308 H   0  0  0  0  0  0  0  0  0  0  0  0
   45.5711   33.9620   41.8589 H   0  0  0  0  0  0  0  0  0  0  0  0
   44.5623   36.4303   43.7595 H   0  0  0  0  0  0  0  0  0  0  0  0
   43.8104   36.2936   46.1254 H   0  0  0  0  0  0  0  0  0  0  0  0
   45.5493   32.2326   48.8330 H   0  0  0  0  0  0  0  0  0  0  0  0
   44.2609   32.9391   47.7997 H   0  0  0  0  0  0  0  0  0  0  0  0
   44.5401   31.1647   47.7997 H   0  0  0  0  0  0  0  0  0  0  0  0
   47.2330   32.5470   48.4955 H   0  0  0  0  0  0  0  0  0  0  0  0
   48.0808   31.7994   47.0994 H   0  0  0  0  0  0  0  0  0  0  0  0
   47.7316   33.5615   47.0994 H   0  0  0  0  0  0  0  0  0  0  0  0
   46.0683   30.1726   46.6781 H   0  0  0  0  0  0  0  0  0  0  0  0
   45.1532   30.9431   45.3381 H   0  0  0  0  0  0  0  0  0  0  0  0
   46.9491   30.9820   45.3381 H   0  0  0  0  0  0  0  0  0  0  0  0
  1 10  1  0
  2  1  1  0
  3  2  1  0
  4  5  1  0
  4  3  2  0
  5  6  2  0
  6  2  1  0
  6  7  1  0
  7  9  1  0
  8  7  1  0
  8  9  1  0
 10 11  1  0
 11 12  2  0
 11 16  1  0
 12 13  1  0
 13 14  2  0
 15 14  1  0
 15 17  1  0
 16 15  2  0
 17 19  1  0
 17 18  1  0
 20 17  1  0
  1 21  1  0
  1 22  1  0
  3 23  1  0
  4 24  1  0
  7 25  1  0
  8 26  1  0
  8 27  1  0
  9 28  1  0
  9 29  1  0
 10 30  1  0
 10 31  1  0
 12 32  1  0
 13 33  1  0
 18 34  1  0
 18 35  1  0
 18 36  1  0
 19 37  1  0
 19 38  1  0
 19 39  1  0
 20 40  1  0
 20 41  1  0
 20 42  1  0
M  ISO  8  21   8  22   8  23  14  24  14  25  13  26  13  27  13  28  13
M  ISO  8  29  13  30   8  31   8  32  14  33  14  34   8  35   8  36   8
M  ISO  6  37   8  38   8  39   8  40   8  41   8  42   8
M  END
>  <minimizedAffinity>  (1) 
-4.88890409

>  <minimizedRMSD>  (1) 
0.658563495

$$$$
