
     RDKit          3D

 45 49  0  0  0  0  0  0  0  0999 V2000
   46.1570   34.8360   41.8190 C   0  0  0  0  0  0  0  0  0  0  0  0
   45.7010   34.8790   43.1900 C   0  0  0  0  0  0  0  0  0  0  0  0
   44.9260   35.9870   43.5380 C   0  0  0  0  0  0  0  0  0  0  0  0
   44.4160   36.1550   44.8130 C   0  0  0  0  0  0  0  0  0  0  0  0
   44.7080   35.1880   45.7080 N   0  0  0  0  0  0  0  0  0  0  0  0
   45.4700   34.1060   45.3550 C   0  0  0  0  0  0  0  0  0  0  0  0
   45.9480   33.9860   44.0930 N   0  0  0  0  0  0  0  0  0  0  0  0
   45.6420   33.2460   46.4090 O   0  0  0  0  0  0  0  0  0  0  0  0
   46.1620   31.9880   46.1260 C   0  0  0  0  0  0  0  0  0  0  0  0
   45.8200   31.1940   45.0920 N   0  0  0  0  0  0  0  0  0  0  0  0
   46.3490   30.0020   44.8690 C   0  0  0  0  0  0  0  0  0  0  0  0
   47.3000   29.4900   45.6930 N   0  0  0  0  0  0  0  0  0  0  0  0
   47.6740   30.2660   46.7530 C   0  0  0  0  0  0  0  0  0  0  0  0
   48.6460   29.6760   47.5480 C   0  0  0  0  0  0  0  0  0  0  0  0
   49.0830   30.4100   48.6570 C   0  0  0  0  0  0  0  0  0  0  0  0
   48.5570   31.6600   48.9280 C   0  0  0  0  0  0  0  0  0  0  0  0
   47.5930   32.2170   48.1200 C   0  0  0  0  0  0  0  0  0  0  0  0
   47.1350   31.5210   47.0120 C   0  0  0  0  0  0  0  0  0  0  0  0
   47.6560   34.7690   41.7040 C   0  0  0  0  0  0  0  0  0  0  0  0
   48.1050   33.9970   40.6060 N   0  0  0  0  0  0  0  0  0  0  0  0
   47.7650   34.0430   39.3150 C   0  0  0  0  0  0  0  0  0  0  0  0
   48.4380   33.1170   38.5510 C   0  0  0  0  0  0  0  0  0  0  0  0
   49.2340   32.4760   39.4570 N   0  0  0  0  0  0  0  0  0  0  0  0
   49.0160   33.0200   40.6720 C   0  0  0  0  0  0  0  0  0  0  0  0
   49.7800   32.4630   41.8360 C   0  0  0  0  0  0  0  0  0  0  0  0
   51.1880   31.9830   41.6250 C   0  0  0  0  0  0  0  0  0  0  0  0
   50.9370   33.2750   42.3510 C   0  0  0  0  0  0  0  0  0  0  0  0
   45.7274   33.9473   41.3336 H   0  0  0  0  0  0  0  0  0  0  0  0
   45.8291   35.7662   41.3319 H   0  0  0  0  0  0  0  0  0  0  0  0
   44.7143   36.7502   42.7746 H   0  0  0  0  0  0  0  0  0  0  0  0
   43.8055   37.0294   45.0827 H   0  0  0  0  0  0  0  0  0  0  0  0
   46.0129   29.4153   44.0013 H   0  0  0  0  0  0  0  0  0  0  0  0
   49.0533   28.6804   47.3182 H   0  0  0  0  0  0  0  0  0  0  0  0
   49.8528   29.9881   49.3198 H   0  0  0  0  0  0  0  0  0  0  0  0
   48.9158   32.2187   49.8050 H   0  0  0  0  0  0  0  0  0  0  0  0
   47.1865   33.2123   48.3525 H   0  0  0  0  0  0  0  0  0  0  0  0
   48.0424   35.7927   41.5908 H   0  0  0  0  0  0  0  0  0  0  0  0
   48.0285   34.2803   42.6164 H   0  0  0  0  0  0  0  0  0  0  0  0
   47.0252   34.7467   38.9057 H   0  0  0  0  0  0  0  0  0  0  0  0
   48.3547   32.9363   37.4691 H   0  0  0  0  0  0  0  0  0  0  0  0
   48.8742   32.0151   42.2707 H   0  0  0  0  0  0  0  0  0  0  0  0
   51.5582   31.1058   42.1758 H   0  0  0  0  0  0  0  0  0  0  0  0
   51.7853   31.6861   40.7503 H   0  0  0  0  0  0  0  0  0  0  0  0
   51.1925   34.2327   41.8740 H   0  0  0  0  0  0  0  0  0  0  0  0
   51.2246   33.6861   43.3299 H   0  0  0  0  0  0  0  0  0  0  0  0
  1  2  1  0
  2  3  2  0
  2  7  1  0
  3  4  1  0
  4  5  2  0
  6  5  1  0
  6  8  1  0
  7  6  2  0
  9  8  1  0
  9 18  1  0
 10  9  2  0
 11 10  1  0
 11 12  2  0
 12 13  1  0
 13 18  2  0
 13 14  1  0
 14 15  2  0
 15 16  1  0
 17 16  2  0
 18 17  1  0
 19  1  1  0
 20 24  1  0
 20 19  1  0
 21 20  1  0
 22 21  2  0
 22 23  1  0
 23 24  2  0
 24 25  1  0
 25 27  1  0
 26 25  1  0
 26 27  1  0
  1 28  1  0
  1 29  1  0
  3 30  1  0
  4 31  1  0
 11 32  1  0
 14 33  1  0
 15 34  1  0
 16 35  1  0
 17 36  1  0
 19 37  1  0
 19 38  1  0
 21 39  1  0
 22 40  1  0
 25 41  1  0
 26 42  1  0
 26 43  1  0
 27 44  1  0
 27 45  1  0
M  ISO  8  28   8  29   8  30  14  31  14  32  14  33  14  34  14  35  14
M  ISO  8  36  14  37   8  38   8  39  14  40  14  41  13  42  13  43  13
M  ISO  2  44  13  45  13
M  END
>  <minimizedAffinity>  (1) 
-6.17085934

>  <minimizedRMSD>  (1) 
0.362018436

$$$$
