
     RDKit          3D

 41 44  0  0  0  0  0  0  0  0999 V2000
   46.0240   34.8360   42.0940 C   0  0  0  0  0  0  0  0  0  0  0  0
   45.9030   34.5320   43.4930 C   0  0  0  0  0  0  0  0  0  0  0  0
   44.8910   35.2200   44.1770 C   0  0  0  0  0  0  0  0  0  0  0  0
   44.6460   35.0400   45.5120 C   0  0  0  0  0  0  0  0  0  0  0  0
   45.4300   34.1590   46.1550 N   0  0  0  0  0  0  0  0  0  0  0  0
   46.4070   33.4950   45.4960 C   0  0  0  0  0  0  0  0  0  0  0  0
   46.6330   33.6930   44.1560 N   0  0  0  0  0  0  0  0  0  0  0  0
   47.1300   32.6230   46.2950 O   0  0  0  0  0  0  0  0  0  0  0  0
   46.3670   31.8060   47.1430 C   0  0  0  0  0  0  0  0  0  0  0  0
   45.7080   30.6810   46.6860 C   0  0  0  0  0  0  0  0  0  0  0  0
   44.9820   29.9360   47.5870 C   0  0  0  0  0  0  0  0  0  0  0  0
   44.9330   30.3280   48.9010 C   0  0  0  0  0  0  0  0  0  0  0  0
   45.5790   31.4420   49.3840 C   0  0  0  0  0  0  0  0  0  0  0  0
   46.3020   32.1840   48.4880 C   0  0  0  0  0  0  0  0  0  0  0  0
   47.4510   35.0750   41.6770 C   0  0  0  0  0  0  0  0  0  0  0  0
   47.9060   34.1580   40.6960 N   0  0  0  0  0  0  0  0  0  0  0  0
   47.5540   34.0030   39.4170 C   0  0  0  0  0  0  0  0  0  0  0  0
   48.2290   33.0030   38.7860 C   0  0  0  0  0  0  0  0  0  0  0  0
   49.0520   32.5180   39.7550 N   0  0  0  0  0  0  0  0  0  0  0  0
   48.8400   33.2270   40.8910 C   0  0  0  0  0  0  0  0  0  0  0  0
   49.6290   32.8500   42.0990 C   0  0  0  0  0  0  0  0  0  0  0  0
   51.0330   32.3400   41.9760 C   0  0  0  0  0  0  0  0  0  0  0  0
   50.7880   33.7400   42.4650 C   0  0  0  0  0  0  0  0  0  0  0  0
   45.6236   33.9917   41.5137 H   0  0  0  0  0  0  0  0  0  0  0  0
   45.4607   35.7613   41.9032 H   0  0  0  0  0  0  0  0  0  0  0  0
   44.2681   35.9339   43.6181 H   0  0  0  0  0  0  0  0  0  0  0  0
   43.8472   35.5893   46.0319 H   0  0  0  0  0  0  0  0  0  0  0  0
   45.7623   30.3878   45.6272 H   0  0  0  0  0  0  0  0  0  0  0  0
   44.4457   29.0342   47.2567 H   0  0  0  0  0  0  0  0  0  0  0  0
   44.3464   29.7195   49.6049 H   0  0  0  0  0  0  0  0  0  0  0  0
   45.5176   31.7251   50.4452 H   0  0  0  0  0  0  0  0  0  0  0  0
   46.8354   33.0837   48.8287 H   0  0  0  0  0  0  0  0  0  0  0  0
   47.5301   36.0930   41.2678 H   0  0  0  0  0  0  0  0  0  0  0  0
   48.0800   34.9390   42.5691 H   0  0  0  0  0  0  0  0  0  0  0  0
   46.7925   34.6231   38.9214 H   0  0  0  0  0  0  0  0  0  0  0  0
   48.1322   32.6676   37.7429 H   0  0  0  0  0  0  0  0  0  0  0  0
   48.7269   32.4643   42.5965 H   0  0  0  0  0  0  0  0  0  0  0  0
   51.4013   31.5717   42.6717 H   0  0  0  0  0  0  0  0  0  0  0  0
   51.6287   31.8936   41.1662 H   0  0  0  0  0  0  0  0  0  0  0  0
   51.0455   34.5989   41.8278 H   0  0  0  0  0  0  0  0  0  0  0  0
   51.0772   34.3160   43.3564 H   0  0  0  0  0  0  0  0  0  0  0  0
  1  2  1  0
  2  7  1  0
  2  3  2  0
  3  4  1  0
  4  5  2  0
  6  5  1  0
  6  8  1  0
  7  6  2  0
  8  9  1  0
  9 14  1  0
 10  9  2  0
 10 11  1  0
 11 12  2  0
 12 13  1  0
 14 13  2  0
 15  1  1  0
 16 20  1  0
 16 15  1  0
 17 16  1  0
 18 17  2  0
 18 19  1  0
 19 20  2  0
 20 21  1  0
 21 23  1  0
 22 21  1  0
 22 23  1  0
  1 24  1  0
  1 25  1  0
  3 26  1  0
  4 27  1  0
 10 28  1  0
 11 29  1  0
 12 30  1  0
 13 31  1  0
 14 32  1  0
 15 33  1  0
 15 34  1  0
 17 35  1  0
 18 36  1  0
 21 37  1  0
 22 38  1  0
 22 39  1  0
 23 40  1  0
 23 41  1  0
M  ISO  8  24   8  25   8  26  14  27  14  28  14  29  14  30  14  31  14
M  ISO  8  32  14  33   8  34   8  35  14  36  14  37  13  38  13  39  13
M  ISO  2  40  13  41  13
M  END
>  <minimizedAffinity>  (1) 
-5.80552053

>  <minimizedRMSD>  (1) 
1.93294907

$$$$
