
     RDKit          3D

 43 46  0  0  1  0  0  0  0  0999 V2000
   47.5300   34.7690   41.4270 C   0  0  0  0  0  0  0  0  0  0  0  0
   48.0710   33.9480   40.3970 N   0  0  0  0  0  0  0  0  0  0  0  0
   47.8230   33.9070   39.0840 C   0  0  0  0  0  0  0  0  0  0  0  0
   48.5640   32.9680   38.4240 C   0  0  0  0  0  0  0  0  0  0  0  0
   49.3040   32.4080   39.4080 N   0  0  0  0  0  0  0  0  0  0  0  0
   48.9980   33.0060   40.5800 C   0  0  0  0  0  0  0  0  0  0  0  0
   49.6960   32.5230   41.8120 C   0  0  0  0  0  0  0  0  0  0  0  0
   51.1170   32.0450   41.7460 C   0  0  0  0  0  0  0  0  0  0  0  0
   50.8060   33.3870   42.3480 C   0  0  0  0  0  0  0  0  0  0  0  0
   46.0480   34.5780   41.6050 C   0  0  0  0  0  0  0  0  0  0  0  0
   45.6240   34.7730   42.9740 C   0  0  0  0  0  0  0  0  0  0  0  0
   44.9930   35.9790   43.2380 C   0  0  0  0  0  0  0  0  0  0  0  0
   44.5230   36.3230   44.4960 C   0  0  0  0  0  0  0  0  0  0  0  0
   44.7200   35.3990   45.4610 N   0  0  0  0  0  0  0  0  0  0  0  0
   45.3380   34.2190   45.1980 C   0  0  0  0  0  0  0  0  0  0  0  0
   45.7790   33.9340   43.9470 N   0  0  0  0  0  0  0  0  0  0  0  0
   45.4350   33.4260   46.3190 O   0  0  0  0  0  0  0  0  0  0  0  0
   46.9560   32.7950   48.0260 N   0  0  0  0  0  0  0  0  0  0  0  0
   46.0340   32.1350   48.9180 C   0  0  0  0  0  0  0  0  0  0  0  0
   45.2520   31.1510   48.1120 C   0  0  0  0  0  0  0  0  0  0  0  0
   45.9180   31.1690   46.7660 C   0  0  0  0  0  0  0  0  0  0  0  0
   46.4750   32.5770   46.6760 C   0  0  1  0  0  0  0  0  0  0  0  0
   47.7210   35.8223   41.1740 H   0  0  0  0  0  0  0  0  0  0  0  0
   48.0173   34.4819   42.3705 H   0  0  0  0  0  0  0  0  0  0  0  0
   47.0951   34.5636   38.5850 H   0  0  0  0  0  0  0  0  0  0  0  0
   48.5598   32.7258   37.3510 H   0  0  0  0  0  0  0  0  0  0  0  0
   48.7669   32.0818   42.2021 H   0  0  0  0  0  0  0  0  0  0  0  0
   51.4489   31.2173   42.3900 H   0  0  0  0  0  0  0  0  0  0  0  0
   51.7802   31.6879   40.9443 H   0  0  0  0  0  0  0  0  0  0  0  0
   51.0918   34.3076   41.8181 H   0  0  0  0  0  0  0  0  0  0  0  0
   51.0164   33.8764   43.3104 H   0  0  0  0  0  0  0  0  0  0  0  0
   45.5200   35.3011   40.9660 H   0  0  0  0  0  0  0  0  0  0  0  0
   45.8092   33.5411   41.3260 H   0  0  0  0  0  0  0  0  0  0  0  0
   44.8595   36.6943   42.4130 H   0  0  0  0  0  0  0  0  0  0  0  0
   44.0238   37.2829   44.6946 H   0  0  0  0  0  0  0  0  0  0  0  0
   46.9854   33.8038   48.2318 H   0  0  0  0  0  0  0  0  0  0  0  0
   46.5886   31.6132   49.7118 H   0  0  0  0  0  0  0  0  0  0  0  0
   45.3629   32.8672   49.3908 H   0  0  0  0  0  0  0  0  0  0  0  0
   45.3055   30.1482   48.5609 H   0  0  0  0  0  0  0  0  0  0  0  0
   44.1829   31.4043   48.0577 H   0  0  0  0  0  0  0  0  0  0  0  0
   46.7235   30.4217   46.7141 H   0  0  0  0  0  0  0  0  0  0  0  0
   45.2331   30.9217   45.9416 H   0  0  0  0  0  0  0  0  0  0  0  0
   47.2687   32.7458   45.9333 H   0  0  0  0  0  0  0  0  0  0  0  0
  1 10  1  0
  2  6  1  0
  2  1  1  0
  3  2  1  0
  4  3  2  0
  4  5  1  0
  5  6  2  0
  6  7  1  0
  7  9  1  0
  8  7  1  0
  8  9  1  0
 10 11  1  0
 11 12  2  0
 11 16  1  0
 12 13  1  0
 13 14  2  0
 15 14  1  0
 15 17  1  0
 16 15  2  0
 18 19  1  0
 20 19  1  0
 21 20  1  0
 22 17  1  0
 22 21  1  0
 22 18  1  0
  1 23  1  0
  1 24  1  0
  3 25  1  0
  4 26  1  0
  7 27  1  0
  8 28  1  0
  8 29  1  0
  9 30  1  0
  9 31  1  0
 10 32  1  0
 10 33  1  0
 12 34  1  0
 13 35  1  0
 18 36  1  0
 19 37  1  0
 19 38  1  0
 20 39  1  0
 20 40  1  0
 21 41  1  0
 21 42  1  0
 22 43  1  6
M  ISO  8  23   8  24   8  25  14  26  14  27  13  28  13  29  13  30  13
M  ISO  8  31  13  32   8  33   8  34  14  35  14  36   5  37  13  38  13
M  ISO  5  39  13  40  13  41  13  42  13  43  13
M  END
>  <minimizedAffinity>  (1) 
-5.72346878

>  <minimizedRMSD>  (1) 
1.18408132

$$$$
