
     RDKit          3D

 38 41  0  0  0  0  0  0  0  0999 V2000
   45.9270   34.4980   41.5950 C   0  0  0  0  0  0  0  0  0  0  0  0
   45.6890   34.5530   43.0190 C   0  0  0  0  0  0  0  0  0  0  0  0
   44.7020   35.4460   43.4320 C   0  0  0  0  0  0  0  0  0  0  0  0
   44.3570   35.6110   44.7590 C   0  0  0  0  0  0  0  0  0  0  0  0
   45.0270   34.8610   45.6570 N   0  0  0  0  0  0  0  0  0  0  0  0
   45.9980   33.9850   45.2370 C   0  0  0  0  0  0  0  0  0  0  0  0
   46.3060   33.8520   43.9160 N   0  0  0  0  0  0  0  0  0  0  0  0
   46.5750   33.3010   46.2840 O   0  0  0  0  0  0  0  0  0  0  0  0
   45.9250   32.2450   46.9440 C   0  0  0  0  0  0  0  0  0  0  0  0
   45.6720   30.8830   46.8200 C   0  0  0  0  0  0  0  0  0  0  0  0
   44.9220   30.5390   47.9310 C   0  0  0  0  0  0  0  0  0  0  0  0
   44.7380   31.6420   48.6770 N   0  0  0  0  0  0  0  0  0  0  0  0
   45.3370   32.6730   48.0910 N   0  0  0  0  0  0  0  0  0  0  0  0
   47.3350   34.8880   41.2310 C   0  0  0  0  0  0  0  0  0  0  0  0
   47.9500   33.9800   40.3310 N   0  0  0  0  0  0  0  0  0  0  0  0
   47.7600   33.7800   39.0240 C   0  0  0  0  0  0  0  0  0  0  0  0
   48.5580   32.8060   38.5070 C   0  0  0  0  0  0  0  0  0  0  0  0
   49.2930   32.3780   39.5820 N   0  0  0  0  0  0  0  0  0  0  0  0
   48.9010   33.1040   40.6610 C   0  0  0  0  0  0  0  0  0  0  0  0
   49.5580   32.7930   41.9660 C   0  0  0  0  0  0  0  0  0  0  0  0
   50.9970   32.3740   42.0230 C   0  0  0  0  0  0  0  0  0  0  0  0
   50.6050   33.7590   42.4530 C   0  0  0  0  0  0  0  0  0  0  0  0
   45.7438   33.4710   41.2460 H   0  0  0  0  0  0  0  0  0  0  0  0
   45.2461   35.2157   41.1140 H   0  0  0  0  0  0  0  0  0  0  0  0
   44.1773   36.0427   42.6713 H   0  0  0  0  0  0  0  0  0  0  0  0
   43.5742   36.3193   45.0681 H   0  0  0  0  0  0  0  0  0  0  0  0
   45.9999   30.2176   46.0077 H   0  0  0  0  0  0  0  0  0  0  0  0
   44.5411   29.5337   48.1641 H   0  0  0  0  0  0  0  0  0  0  0  0
   44.2149   31.6816   49.5634 H   0  0  0  0  0  0  0  0  0  0  0  0
   47.3125   35.8833   40.7631 H   0  0  0  0  0  0  0  0  0  0  0  0
   47.9268   34.8815   42.1582 H   0  0  0  0  0  0  0  0  0  0  0  0
   47.0313   34.3460   38.4252 H   0  0  0  0  0  0  0  0  0  0  0  0
   48.6027   32.4462   37.4685 H   0  0  0  0  0  0  0  0  0  0  0  0
   48.6277   32.3562   42.3581 H   0  0  0  0  0  0  0  0  0  0  0  0
   51.3259   31.6386   42.7720 H   0  0  0  0  0  0  0  0  0  0  0  0
   51.7144   31.9592   41.2996 H   0  0  0  0  0  0  0  0  0  0  0  0
   50.8832   34.6263   41.8363 H   0  0  0  0  0  0  0  0  0  0  0  0
   50.7461   34.3614   43.3625 H   0  0  0  0  0  0  0  0  0  0  0  0
  1  2  1  0
  2  3  2  0
  2  7  1  0
  3  4  1  0
  4  5  2  0
  6  5  1  0
  6  8  1  0
  7  6  2  0
  8  9  1  0
  9 13  2  0
 10  9  1  0
 10 11  2  0
 11 12  1  0
 13 12  1  0
 14  1  1  0
 15 19  1  0
 15 14  1  0
 16 15  1  0
 17 16  2  0
 17 18  1  0
 18 19  2  0
 19 20  1  0
 20 21  1  0
 20 22  1  0
 21 22  1  0
  1 23  1  0
  1 24  1  0
  3 25  1  0
  4 26  1  0
 10 27  1  0
 11 28  1  0
 12 29  1  0
 14 30  1  0
 14 31  1  0
 16 32  1  0
 17 33  1  0
 20 34  1  0
 21 35  1  0
 21 36  1  0
 22 37  1  0
 22 38  1  0
M  ISO  8  23   8  24   8  25  14  26  14  27  14  28  14  29   9  30   8
M  ISO  8  31   8  32  14  33  14  34  13  35  13  36  13  37  13  38  13
M  END
>  <minimizedAffinity>  (1) 
-5.41783237

>  <minimizedRMSD>  (1) 
1.42297053

$$$$
