
     RDKit          3D

 34 36  0  0  0  0  0  0  0  0999 V2000
   47.6300   34.9850   41.8010 C   0  0  0  0  0  0  0  0  0  0  0  0
   48.0180   34.1280   40.7350 N   0  0  0  0  0  0  0  0  0  0  0  0
   47.6220   34.0990   39.4600 C   0  0  0  0  0  0  0  0  0  0  0  0
   48.2360   33.1190   38.7330 C   0  0  0  0  0  0  0  0  0  0  0  0
   49.0540   32.5220   39.6350 N   0  0  0  0  0  0  0  0  0  0  0  0
   48.9110   33.1410   40.8320 C   0  0  0  0  0  0  0  0  0  0  0  0
   49.7100   32.6360   41.9760 C   0  0  0  0  0  0  0  0  0  0  0  0
   51.0960   32.0980   41.7730 C   0  0  0  0  0  0  0  0  0  0  0  0
   50.9040   33.4490   42.4010 C   0  0  0  0  0  0  0  0  0  0  0  0
   46.1460   35.0000   42.0490 C   0  0  0  0  0  0  0  0  0  0  0  0
   45.8120   34.7330   43.4240 C   0  0  0  0  0  0  0  0  0  0  0  0
   44.9520   35.6390   44.0170 C   0  0  0  0  0  0  0  0  0  0  0  0
   44.5260   35.5330   45.3270 C   0  0  0  0  0  0  0  0  0  0  0  0
   44.9920   34.4940   46.0120 N   0  0  0  0  0  0  0  0  0  0  0  0
   45.8440   33.5920   45.4290 C   0  0  0  0  0  0  0  0  0  0  0  0
   46.2420   33.7330   44.1270 N   0  0  0  0  0  0  0  0  0  0  0  0
   46.2490   32.5570   46.2660 O   0  0  0  0  0  0  0  0  0  0  0  0
   45.7500   32.5000   47.5630 C   0  0  0  0  0  0  0  0  0  0  0  0
   46.5460   32.3970   48.5180 O   0  0  0  0  0  0  0  0  0  0  0  0
   44.4530   32.5400   48.0200 O   0  0  0  0  0  0  0  0  0  0  0  0
   47.9532   36.0085   41.5602 H   0  0  0  0  0  0  0  0  0  0  0  0
   48.1070   34.6011   42.7149 H   0  0  0  0  0  0  0  0  0  0  0  0
   46.8788   34.7921   39.0390 H   0  0  0  0  0  0  0  0  0  0  0  0
   48.0995   32.8728   37.6696 H   0  0  0  0  0  0  0  0  0  0  0  0
   48.8047   32.2352   42.4554 H   0  0  0  0  0  0  0  0  0  0  0  0
   51.4527   31.2545   42.3823 H   0  0  0  0  0  0  0  0  0  0  0  0
   51.6622   31.7156   40.9109 H   0  0  0  0  0  0  0  0  0  0  0  0
   51.1769   34.3582   41.8452 H   0  0  0  0  0  0  0  0  0  0  0  0
   51.2281   33.9253   43.3381 H   0  0  0  0  0  0  0  0  0  0  0  0
   45.7533   35.9909   41.7770 H   0  0  0  0  0  0  0  0  0  0  0  0
   45.6976   34.2039   41.4364 H   0  0  0  0  0  0  0  0  0  0  0  0
   44.5891   36.4859   43.4161 H   0  0  0  0  0  0  0  0  0  0  0  0
   43.8406   36.2663   45.7770 H   0  0  0  0  0  0  0  0  0  0  0  0
   44.2685   32.4872   48.9912 H   0  0  0  0  0  0  0  0  0  0  0  0
  1 10  1  0
  2  6  1  0
  2  1  1  0
  3  2  1  0
  4  3  2  0
  4  5  1  0
  5  6  2  0
  6  7  1  0
  7  9  1  0
  8  7  1  0
  8  9  1  0
 10 11  1  0
 11 12  2  0
 11 16  1  0
 12 13  1  0
 13 14  2  0
 15 14  1  0
 15 17  1  0
 16 15  2  0
 17 18  1  0
 18 20  1  0
 18 19  2  0
  1 21  1  0
  1 22  1  0
  3 23  1  0
  4 24  1  0
  7 25  1  0
  8 26  1  0
  8 27  1  0
  9 28  1  0
  9 29  1  0
 10 30  1  0
 10 31  1  0
 12 32  1  0
 13 33  1  0
 20 34  1  0
M  ISO  8  21   8  22   8  23  14  24  14  25  13  26  13  27  13  28  13
M  ISO  6  29  13  30   8  31   8  32  14  33  14  34   3
M  END
>  <minimizedAffinity>  (1) 
-5.31770754

>  <minimizedRMSD>  (1) 
1.14819539

$$$$
