
     RDKit          3D

 37 40  0  0  0  0  0  0  0  0999 V2000
   47.3750   34.8800   41.1950 C   0  0  0  0  0  0  0  0  0  0  0  0
   47.9900   33.9520   40.3130 N   0  0  0  0  0  0  0  0  0  0  0  0
   47.8010   33.7410   39.0080 C   0  0  0  0  0  0  0  0  0  0  0  0
   48.5980   32.7500   38.5070 C   0  0  0  0  0  0  0  0  0  0  0  0
   49.3120   32.3400   39.5880 N   0  0  0  0  0  0  0  0  0  0  0  0
   48.9310   33.0740   40.6630 C   0  0  0  0  0  0  0  0  0  0  0  0
   49.5750   32.7800   41.9710 C   0  0  0  0  0  0  0  0  0  0  0  0
   51.0110   32.3480   42.0420 C   0  0  0  0  0  0  0  0  0  0  0  0
   50.6270   33.7450   42.4530 C   0  0  0  0  0  0  0  0  0  0  0  0
   45.9490   34.5320   41.5260 C   0  0  0  0  0  0  0  0  0  0  0  0
   45.6760   34.6120   42.9420 C   0  0  0  0  0  0  0  0  0  0  0  0
   44.7230   35.5440   43.3240 C   0  0  0  0  0  0  0  0  0  0  0  0
   44.3560   35.7360   44.6320 C   0  0  0  0  0  0  0  0  0  0  0  0
   44.9660   34.9670   45.5590 N   0  0  0  0  0  0  0  0  0  0  0  0
   45.9090   34.0430   45.1880 C   0  0  0  0  0  0  0  0  0  0  0  0
   46.2340   33.8990   43.8640 N   0  0  0  0  0  0  0  0  0  0  0  0
   46.4300   33.3510   46.2430 O   0  0  0  0  0  0  0  0  0  0  0  0
   45.9620   32.1270   46.7020 C   0  0  0  0  0  0  0  0  0  0  0  0
   45.9660   30.7630   46.1440 C   0  0  0  0  0  0  0  0  0  0  0  0
   45.1040   29.8750   47.5450 S   0  0  0  0  0  0  0  0  0  0  0  0
   44.9130   31.4110   48.5530 C   0  0  0  0  0  0  0  0  0  0  0  0
   45.4190   32.3460   47.8980 N   0  0  0  0  0  0  0  0  0  0  0  0
   47.3913   35.8735   40.7231 H   0  0  0  0  0  0  0  0  0  0  0  0
   47.9424   34.8589   42.1371 H   0  0  0  0  0  0  0  0  0  0  0  0
   47.0792   34.3058   38.3997 H   0  0  0  0  0  0  0  0  0  0  0  0
   48.6492   32.3739   37.4746 H   0  0  0  0  0  0  0  0  0  0  0  0
   48.6382   32.3580   42.3638 H   0  0  0  0  0  0  0  0  0  0  0  0
   51.3288   31.6192   42.8022 H   0  0  0  0  0  0  0  0  0  0  0  0
   51.7291   31.9177   41.3285 H   0  0  0  0  0  0  0  0  0  0  0  0
   50.9161   34.6022   41.8272 H   0  0  0  0  0  0  0  0  0  0  0  0
   50.7672   34.3579   43.3556 H   0  0  0  0  0  0  0  0  0  0  0  0
   45.2834   35.2308   40.9981 H   0  0  0  0  0  0  0  0  0  0  0  0
   45.7759   33.4928   41.2098 H   0  0  0  0  0  0  0  0  0  0  0  0
   44.2413   36.1547   42.5462 H   0  0  0  0  0  0  0  0  0  0  0  0
   43.5988   36.4829   44.9128 H   0  0  0  0  0  0  0  0  0  0  0  0
   46.3584   30.3819   45.1897 H   0  0  0  0  0  0  0  0  0  0  0  0
   44.4420   31.4877   49.5441 H   0  0  0  0  0  0  0  0  0  0  0  0
  1 10  1  0
  2  6  1  0
  2  1  1  0
  3  2  1  0
  4  3  2  0
  4  5  1  0
  5  6  2  0
  6  7  1  0
  7  8  1  0
  7  9  1  0
  8  9  1  0
 10 11  1  0
 11 12  2  0
 11 16  1  0
 12 13  1  0
 13 14  2  0
 15 14  1  0
 15 17  1  0
 16 15  2  0
 17 18  1  0
 18 22  1  0
 19 18  2  0
 19 20  1  0
 20 21  1  0
 22 21  2  0
  1 23  1  0
  1 24  1  0
  3 25  1  0
  4 26  1  0
  7 27  1  0
  8 28  1  0
  8 29  1  0
  9 30  1  0
  9 31  1  0
 10 32  1  0
 10 33  1  0
 12 34  1  0
 13 35  1  0
 19 36  1  0
 21 37  1  0
M  ISO  8  23   8  24   8  25  14  26  14  27  13  28  13  29  13  30  13
M  ISO  7  31  13  32   8  33   8  34  14  35  14  36  14  37  14
M  END
>  <minimizedAffinity>  (1) 
-5.3176589

>  <minimizedRMSD>  (1) 
1.0742656

$$$$
