
     RDKit          3D

 35 37  0  0  0  0  0  0  0  0999 V2000
   47.5630   34.9120   41.2610 C   0  0  0  0  0  0  0  0  0  0  0  0
   48.1030   34.0070   40.3080 N   0  0  0  0  0  0  0  0  0  0  0  0
   47.8900   33.8950   38.9940 C   0  0  0  0  0  0  0  0  0  0  0  0
   48.6090   32.8910   38.4180 C   0  0  0  0  0  0  0  0  0  0  0  0
   49.3070   32.3560   39.4600 N   0  0  0  0  0  0  0  0  0  0  0  0
   48.9840   33.0460   40.5850 C   0  0  0  0  0  0  0  0  0  0  0  0
   49.6250   32.6190   41.8570 C   0  0  0  0  0  0  0  0  0  0  0  0
   51.0200   32.0650   41.8680 C   0  0  0  0  0  0  0  0  0  0  0  0
   50.7630   33.4580   42.3740 C   0  0  0  0  0  0  0  0  0  0  0  0
   46.1000   34.6830   41.5300 C   0  0  0  0  0  0  0  0  0  0  0  0
   45.7860   34.7060   42.9380 C   0  0  0  0  0  0  0  0  0  0  0  0
   44.8230   35.6200   43.3240 C   0  0  0  0  0  0  0  0  0  0  0  0
   44.3990   35.7750   44.6330 C   0  0  0  0  0  0  0  0  0  0  0  0
   44.9840   34.9720   45.5290 N   0  0  0  0  0  0  0  0  0  0  0  0
   45.9260   34.0770   45.1540 C   0  0  0  0  0  0  0  0  0  0  0  0
   46.3180   33.9540   43.8490 N   0  0  0  0  0  0  0  0  0  0  0  0
   46.4460   33.3100   46.1980 O   0  0  0  0  0  0  0  0  0  0  0  0
   45.6510   32.6110   47.0820 C   0  0  0  0  0  0  0  0  0  0  0  0
   44.7270   33.3040   47.9170 N   0  0  0  0  0  0  0  0  0  0  0  0
   45.6350   31.3470   47.2580 O   0  0  0  0  0  0  0  0  0  0  0  0
   47.6933   35.9369   40.8834 H   0  0  0  0  0  0  0  0  0  0  0  0
   48.0997   34.7504   42.2075 H   0  0  0  0  0  0  0  0  0  0  0  0
   47.2038   34.5471   38.4338 H   0  0  0  0  0  0  0  0  0  0  0  0
   48.6230   32.5844   37.3617 H   0  0  0  0  0  0  0  0  0  0  0  0
   48.6623   32.2541   42.2444 H   0  0  0  0  0  0  0  0  0  0  0  0
   51.2880   31.2647   42.5734 H   0  0  0  0  0  0  0  0  0  0  0  0
   51.6867   31.6232   41.1128 H   0  0  0  0  0  0  0  0  0  0  0  0
   51.1130   34.3266   41.7969 H   0  0  0  0  0  0  0  0  0  0  0  0
   50.9704   33.9972   43.3101 H   0  0  0  0  0  0  0  0  0  0  0  0
   45.5213   35.4716   41.0268 H   0  0  0  0  0  0  0  0  0  0  0  0
   45.8424   33.6846   41.1468 H   0  0  0  0  0  0  0  0  0  0  0  0
   44.3699   36.2575   42.5505 H   0  0  0  0  0  0  0  0  0  0  0  0
   43.6317   36.5100   44.9175 H   0  0  0  0  0  0  0  0  0  0  0  0
   44.1347   32.7791   48.5762 H   0  0  0  0  0  0  0  0  0  0  0  0
   44.6516   34.3297   47.8613 H   0  0  0  0  0  0  0  0  0  0  0  0
  1 10  1  0
  2  6  1  0
  2  1  1  0
  3  2  1  0
  4  3  2  0
  4  5  1  0
  5  6  2  0
  6  7  1  0
  7  8  1  0
  7  9  1  0
  8  9  1  0
 10 11  1  0
 11 12  2  0
 11 16  1  0
 12 13  1  0
 13 14  2  0
 15 14  1  0
 15 17  1  0
 16 15  2  0
 17 18  1  0
 18 20  2  0
 18 19  1  0
  1 21  1  0
  1 22  1  0
  3 23  1  0
  4 24  1  0
  7 25  1  0
  8 26  1  0
  8 27  1  0
  9 28  1  0
  9 29  1  0
 10 30  1  0
 10 31  1  0
 12 32  1  0
 13 33  1  0
 19 34  1  0
 19 35  1  0
M  ISO  8  21   8  22   8  23  14  24  14  25  13  26  13  27  13  28  13
M  ISO  5  29  13  30   8  31   8  32  14  33  14
M  END
>  <minimizedAffinity>  (1) 
-5.3026638

>  <minimizedRMSD>  (1) 
0.868439972

$$$$
