
     RDKit          3D

 43 45  0  0  0  0  0  0  0  0999 V2000
   46.4970   34.4570   41.1490 C   0  0  0  0  0  0  0  0  0  0  0  0
   47.4540   33.7280   40.3940 N   0  0  0  0  0  0  0  0  0  0  0  0
   47.4400   33.3180   39.1230 C   0  0  0  0  0  0  0  0  0  0  0  0
   48.5650   32.6400   38.7630 C   0  0  0  0  0  0  0  0  0  0  0  0
   49.3150   32.6410   39.9010 N   0  0  0  0  0  0  0  0  0  0  0  0
   48.6260   33.3000   40.8650 C   0  0  0  0  0  0  0  0  0  0  0  0
   49.2620   33.4080   42.2140 C   0  0  0  0  0  0  0  0  0  0  0  0
   50.7550   33.4770   42.3500 C   0  0  0  0  0  0  0  0  0  0  0  0
   49.9260   34.7160   42.5500 C   0  0  0  0  0  0  0  0  0  0  0  0
   45.5680   33.5690   41.9340 C   0  0  0  0  0  0  0  0  0  0  0  0
   45.3100   34.0820   43.2610 C   0  0  0  0  0  0  0  0  0  0  0  0
   44.8160   35.3830   43.3260 C   0  0  0  0  0  0  0  0  0  0  0  0
   44.5190   36.0090   44.5160 C   0  0  0  0  0  0  0  0  0  0  0  0
   44.7310   35.2940   45.6400 N   0  0  0  0  0  0  0  0  0  0  0  0
   45.2190   34.0090   45.5680 C   0  0  0  0  0  0  0  0  0  0  0  0
   45.4980   33.4330   44.3720 N   0  0  0  0  0  0  0  0  0  0  0  0
   45.3600   33.4610   46.8150 O   0  0  0  0  0  0  0  0  0  0  0  0
   45.8780   32.2300   47.1780 C   0  0  0  0  0  0  0  0  0  0  0  0
   45.9420   31.2110   46.0670 C   0  0  0  0  0  0  0  0  0  0  0  0
   45.0800   31.7090   48.3600 C   0  0  0  0  0  0  0  0  0  0  0  0
   47.2970   32.4360   47.6670 C   0  0  0  0  0  0  0  0  0  0  0  0
   45.8976   35.0685   40.4585 H   0  0  0  0  0  0  0  0  0  0  0  0
   47.0494   35.0762   41.8711 H   0  0  0  0  0  0  0  0  0  0  0  0
   46.6030   33.5089   38.4353 H   0  0  0  0  0  0  0  0  0  0  0  0
   48.8100   32.1971   37.7864 H   0  0  0  0  0  0  0  0  0  0  0  0
   48.4908   32.7648   42.6629 H   0  0  0  0  0  0  0  0  0  0  0  0
   51.2512   33.0029   43.2097 H   0  0  0  0  0  0  0  0  0  0  0  0
   51.6071   33.2071   41.7088 H   0  0  0  0  0  0  0  0  0  0  0  0
   49.9567   35.5250   41.8053 H   0  0  0  0  0  0  0  0  0  0  0  0
   49.8189   35.4601   43.3530 H   0  0  0  0  0  0  0  0  0  0  0  0
   44.6133   33.4899   41.3934 H   0  0  0  0  0  0  0  0  0  0  0  0
   46.0515   32.5867   42.0409 H   0  0  0  0  0  0  0  0  0  0  0  0
   44.6565   35.9334   42.3871 H   0  0  0  0  0  0  0  0  0  0  0  0
   44.1296   37.0373   44.5483 H   0  0  0  0  0  0  0  0  0  0  0  0
   46.0054   30.2013   46.4988 H   0  0  0  0  0  0  0  0  0  0  0  0
   45.0372   31.2881   45.4461 H   0  0  0  0  0  0  0  0  0  0  0  0
   46.8300   31.4007   45.4461 H   0  0  0  0  0  0  0  0  0  0  0  0
   45.5633   32.0246   49.2964 H   0  0  0  0  0  0  0  0  0  0  0  0
   44.0583   32.1146   48.3200 H   0  0  0  0  0  0  0  0  0  0  0  0
   45.0403   30.6104   48.3200 H   0  0  0  0  0  0  0  0  0  0  0  0
   47.3092   32.4378   48.7669 H   0  0  0  0  0  0  0  0  0  0  0  0
   47.9351   31.6211   47.2946 H   0  0  0  0  0  0  0  0  0  0  0  0
   47.6770   33.3987   47.2946 H   0  0  0  0  0  0  0  0  0  0  0  0
  1 10  1  0
  2  6  1  0
  2  1  1  0
  3  2  1  0
  4  3  2  0
  4  5  1  0
  5  6  2  0
  6  7  1  0
  7  8  1  0
  7  9  1  0
  8  9  1  0
 10 11  1  0
 11 12  2  0
 11 16  1  0
 12 13  1  0
 13 14  2  0
 15 14  1  0
 15 17  1  0
 16 15  2  0
 17 18  1  0
 18 21  1  0
 18 20  1  0
 19 18  1  0
  1 22  1  0
  1 23  1  0
  3 24  1  0
  4 25  1  0
  7 26  1  0
  8 27  1  0
  8 28  1  0
  9 29  1  0
  9 30  1  0
 10 31  1  0
 10 32  1  0
 12 33  1  0
 13 34  1  0
 19 35  1  0
 19 36  1  0
 19 37  1  0
 20 38  1  0
 20 39  1  0
 20 40  1  0
 21 41  1  0
 21 42  1  0
 21 43  1  0
M  ISO  8  22   8  23   8  24  14  25  14  26  13  27  13  28  13  29  13
M  ISO  8  30  13  31   8  32   8  33  14  34  14  35   8  36   8  37   8
M  ISO  6  38   8  39   8  40   8  41   8  42   8  43   8
M  END
>  <minimizedAffinity>  (1) 
-5.2767272

>  <minimizedRMSD>  (1) 
0.982775569

$$$$
