
     RDKit          3D

 38 41  0  0  0  0  0  0  0  0999 V2000
   46.1730   34.9140   41.8610 C   0  0  0  0  0  0  0  0  0  0  0  0
   45.9000   34.7240   43.2700 C   0  0  0  0  0  0  0  0  0  0  0  0
   44.8700   35.5070   43.8080 C   0  0  0  0  0  0  0  0  0  0  0  0
   44.4960   35.4370   45.1260 C   0  0  0  0  0  0  0  0  0  0  0  0
   45.1720   34.5630   45.9020 N   0  0  0  0  0  0  0  0  0  0  0  0
   46.1780   33.7990   45.3670 C   0  0  0  0  0  0  0  0  0  0  0  0
   46.5270   33.8920   44.0520 N   0  0  0  0  0  0  0  0  0  0  0  0
   46.7550   32.9650   46.3010 O   0  0  0  0  0  0  0  0  0  0  0  0
   44.9980   29.8910   46.4910 N   0  0  0  0  0  0  0  0  0  0  0  0
   45.6470   30.7880   45.7790 N   0  0  0  0  0  0  0  0  0  0  0  0
   46.0390   31.7980   46.6100 C   0  0  0  0  0  0  0  0  0  0  0  0
   45.5750   31.4310   47.8540 C   0  0  0  0  0  0  0  0  0  0  0  0
   44.9110   30.2220   47.8040 C   0  0  0  0  0  0  0  0  0  0  0  0
   47.6470   35.0030   41.5760 C   0  0  0  0  0  0  0  0  0  0  0  0
   48.0750   34.1040   40.5670 N   0  0  0  0  0  0  0  0  0  0  0  0
   47.7510   34.0250   39.2720 C   0  0  0  0  0  0  0  0  0  0  0  0
   48.3930   33.0090   38.6230 C   0  0  0  0  0  0  0  0  0  0  0  0
   49.1530   32.4360   39.5930 N   0  0  0  0  0  0  0  0  0  0  0  0
   48.9450   33.1110   40.7490 C   0  0  0  0  0  0  0  0  0  0  0  0
   49.6690   32.6310   41.9690 C   0  0  0  0  0  0  0  0  0  0  0  0
   51.0440   32.0450   41.8590 C   0  0  0  0  0  0  0  0  0  0  0  0
   50.8660   33.4320   42.4100 C   0  0  0  0  0  0  0  0  0  0  0  0
   45.7544   34.0647   41.3012 H   0  0  0  0  0  0  0  0  0  0  0  0
   45.7109   35.8632   41.5520 H   0  0  0  0  0  0  0  0  0  0  0  0
   44.3392   36.2070   43.1459 H   0  0  0  0  0  0  0  0  0  0  0  0
   43.6859   36.0617   45.5304 H   0  0  0  0  0  0  0  0  0  0  0  0
   44.5984   29.0289   46.0934 H   0  0  0  0  0  0  0  0  0  0  0  0
   45.7155   32.0249   48.7692 H   0  0  0  0  0  0  0  0  0  0  0  0
   44.4315   29.6662   48.6232 H   0  0  0  0  0  0  0  0  0  0  0  0
   47.8794   36.0283   41.2525 H   0  0  0  0  0  0  0  0  0  0  0  0
   48.1763   34.7323   42.5015 H   0  0  0  0  0  0  0  0  0  0  0  0
   47.0415   34.7071   38.7807 H   0  0  0  0  0  0  0  0  0  0  0  0
   48.3135   32.7220   37.5641 H   0  0  0  0  0  0  0  0  0  0  0  0
   48.7311   32.2789   42.4233 H   0  0  0  0  0  0  0  0  0  0  0  0
   51.3461   31.2237   42.5255 H   0  0  0  0  0  0  0  0  0  0  0  0
   51.6369   31.6033   41.0445 H   0  0  0  0  0  0  0  0  0  0  0  0
   51.1919   34.3036   41.8234 H   0  0  0  0  0  0  0  0  0  0  0  0
   51.1612   33.9464   43.3364 H   0  0  0  0  0  0  0  0  0  0  0  0
  1  2  1  0
  2  3  2  0
  2  7  1  0
  3  4  1  0
  4  5  2  0
  6  5  1  0
  6  8  1  0
  7  6  2  0
  8 11  1  0
  9 13  1  0
 10  9  1  0
 10 11  2  0
 11 12  1  0
 13 12  2  0
 14  1  1  0
 15 19  1  0
 15 14  1  0
 16 15  1  0
 17 16  2  0
 17 18  1  0
 18 19  2  0
 19 20  1  0
 20 22  1  0
 21 20  1  0
 21 22  1  0
  1 23  1  0
  1 24  1  0
  3 25  1  0
  4 26  1  0
  9 27  1  0
 12 28  1  0
 13 29  1  0
 14 30  1  0
 14 31  1  0
 16 32  1  0
 17 33  1  0
 20 34  1  0
 21 35  1  0
 21 36  1  0
 22 37  1  0
 22 38  1  0
M  ISO  8  23   8  24   8  25  14  26  14  27   9  28  14  29  14  30   8
M  ISO  8  31   8  32  14  33  14  34  13  35  13  36  13  37  13  38  13
M  END
>  <minimizedAffinity>  (1) 
-5.27066326

>  <minimizedRMSD>  (1) 
1.1822834

$$$$
