
     RDKit          3D

 36 39  0  0  0  0  0  0  0  0999 V2000
   46.4130   34.3810   41.2320 C   0  0  0  0  0  0  0  0  0  0  0  0
   47.3780   33.6810   40.4600 N   0  0  0  0  0  0  0  0  0  0  0  0
   47.3410   33.2650   39.1920 C   0  0  0  0  0  0  0  0  0  0  0  0
   48.4880   32.6260   38.8080 C   0  0  0  0  0  0  0  0  0  0  0  0
   49.2670   32.6620   39.9250 N   0  0  0  0  0  0  0  0  0  0  0  0
   48.5770   33.3020   40.9030 C   0  0  0  0  0  0  0  0  0  0  0  0
   49.2360   33.4360   42.2330 C   0  0  0  0  0  0  0  0  0  0  0  0
   50.7300   33.5260   42.3450 C   0  0  0  0  0  0  0  0  0  0  0  0
   49.8920   34.7580   42.5430 C   0  0  0  0  0  0  0  0  0  0  0  0
   45.5870   33.4760   42.1070 C   0  0  0  0  0  0  0  0  0  0  0  0
   45.2860   34.0720   43.3870 C   0  0  0  0  0  0  0  0  0  0  0  0
   44.8510   35.4050   43.3590 C   0  0  0  0  0  0  0  0  0  0  0  0
   44.5280   36.1010   44.4900 C   0  0  0  0  0  0  0  0  0  0  0  0
   44.6470   35.4470   45.6570 N   0  0  0  0  0  0  0  0  0  0  0  0
   45.0670   34.1610   45.6860 C   0  0  0  0  0  0  0  0  0  0  0  0
   45.3860   33.4810   44.5370 N   0  0  0  0  0  0  0  0  0  0  0  0
   45.1380   33.6270   46.9620 O   0  0  0  0  0  0  0  0  0  0  0  0
   45.9480   32.5370   47.2200 C   0  0  0  0  0  0  0  0  0  0  0  0
   47.2690   32.5390   47.4620 N   0  0  0  0  0  0  0  0  0  0  0  0
   47.7220   31.3520   47.6640 O   0  0  0  0  0  0  0  0  0  0  0  0
   46.6880   30.5410   47.5570 C   0  0  0  0  0  0  0  0  0  0  0  0
   45.5800   31.2630   47.2820 N   0  0  0  0  0  0  0  0  0  0  0  0
   45.7389   34.9168   40.5475 H   0  0  0  0  0  0  0  0  0  0  0  0
   46.9592   35.0686   41.8945 H   0  0  0  0  0  0  0  0  0  0  0  0
   46.4791   33.4197   38.5262 H   0  0  0  0  0  0  0  0  0  0  0  0
   48.7254   32.1865   37.8279 H   0  0  0  0  0  0  0  0  0  0  0  0
   48.4801   32.7884   42.7013 H   0  0  0  0  0  0  0  0  0  0  0  0
   51.2451   33.0684   43.2025 H   0  0  0  0  0  0  0  0  0  0  0  0
   51.5748   33.2583   41.6934 H   0  0  0  0  0  0  0  0  0  0  0  0
   49.9022   35.5580   41.7881 H   0  0  0  0  0  0  0  0  0  0  0  0
   49.7896   35.5110   43.3383 H   0  0  0  0  0  0  0  0  0  0  0  0
   44.6419   33.2519   41.5907 H   0  0  0  0  0  0  0  0  0  0  0  0
   46.1720   32.5629   42.2917 H   0  0  0  0  0  0  0  0  0  0  0  0
   44.7662   35.9115   42.3862 H   0  0  0  0  0  0  0  0  0  0  0  0
   44.1872   37.1460   44.4466 H   0  0  0  0  0  0  0  0  0  0  0  0
   46.7223   29.4477   47.6734 H   0  0  0  0  0  0  0  0  0  0  0  0
  1 10  1  0
  2  6  1  0
  2  1  1  0
  3  2  1  0
  4  3  2  0
  4  5  1  0
  5  6  2  0
  6  7  1  0
  7  8  1  0
  7  9  1  0
  8  9  1  0
 10 11  1  0
 11 16  1  0
 12 11  2  0
 12 13  1  0
 13 14  2  0
 14 15  1  0
 15 17  1  0
 16 15  2  0
 17 18  1  0
 18 22  1  0
 18 19  2  0
 19 20  1  0
 21 20  1  0
 22 21  2  0
  1 23  1  0
  1 24  1  0
  3 25  1  0
  4 26  1  0
  7 27  1  0
  8 28  1  0
  8 29  1  0
  9 30  1  0
  9 31  1  0
 10 32  1  0
 10 33  1  0
 12 34  1  0
 13 35  1  0
 21 36  1  0
M  ISO  8  23   8  24   8  25  14  26  14  27  13  28  13  29  13  30  13
M  ISO  6  31  13  32   8  33   8  34  14  35  14  36  14
M  END
>  <minimizedAffinity>  (1) 
-5.18474483

>  <minimizedRMSD>  (1) 
1.27436578

$$$$
