
     RDKit          3D

 38 41  0  0  0  0  0  0  0  0999 V2000
   47.4340   34.7760   41.5340 C   0  0  0  0  0  0  0  0  0  0  0  0
   47.9930   33.9820   40.4980 N   0  0  0  0  0  0  0  0  0  0  0  0
   47.7260   33.9520   39.1880 C   0  0  0  0  0  0  0  0  0  0  0  0
   48.5010   33.0370   38.5140 C   0  0  0  0  0  0  0  0  0  0  0  0
   49.2730   32.4920   39.4830 N   0  0  0  0  0  0  0  0  0  0  0  0
   48.9530   33.0700   40.6650 C   0  0  0  0  0  0  0  0  0  0  0  0
   49.6720   32.6020   41.8910 C   0  0  0  0  0  0  0  0  0  0  0  0
   51.0920   32.1210   41.7940 C   0  0  0  0  0  0  0  0  0  0  0  0
   50.7990   33.4700   42.3870 C   0  0  0  0  0  0  0  0  0  0  0  0
   45.9660   34.5190   41.7520 C   0  0  0  0  0  0  0  0  0  0  0  0
   45.5820   34.6730   43.1330 C   0  0  0  0  0  0  0  0  0  0  0  0
   44.8750   35.8200   43.4390 C   0  0  0  0  0  0  0  0  0  0  0  0
   44.4300   36.1130   44.7090 C   0  0  0  0  0  0  0  0  0  0  0  0
   44.7130   35.2300   45.6640 N   0  0  0  0  0  0  0  0  0  0  0  0
   45.4140   34.0860   45.3790 C   0  0  0  0  0  0  0  0  0  0  0  0
   45.8320   33.8430   44.0950 N   0  0  0  0  0  0  0  0  0  0  0  0
   45.6350   33.2660   46.4590 O   0  0  0  0  0  0  0  0  0  0  0  0
   46.1520   31.9990   46.2700 C   0  0  0  0  0  0  0  0  0  0  0  0
   45.8980   30.8430   45.5660 C   0  0  0  0  0  0  0  0  0  0  0  0
   46.8730   29.9160   45.8660 C   0  0  0  0  0  0  0  0  0  0  0  0
   47.6770   30.5850   46.7550 C   0  0  0  0  0  0  0  0  0  0  0  0
   47.2380   31.7960   46.9760 O   0  0  0  0  0  0  0  0  0  0  0  0
   47.5684   35.8361   41.2732 H   0  0  0  0  0  0  0  0  0  0  0  0
   47.9543   34.5107   42.4661 H   0  0  0  0  0  0  0  0  0  0  0  0
   46.9707   34.5882   38.7034 H   0  0  0  0  0  0  0  0  0  0  0  0
   48.4948   32.8030   37.4392 H   0  0  0  0  0  0  0  0  0  0  0  0
   48.7519   32.1705   42.3118 H   0  0  0  0  0  0  0  0  0  0  0  0
   51.4396   31.3008   42.4393 H   0  0  0  0  0  0  0  0  0  0  0  0
   51.7336   31.7532   40.9797 H   0  0  0  0  0  0  0  0  0  0  0  0
   51.0725   34.3834   41.8384 H   0  0  0  0  0  0  0  0  0  0  0  0
   51.0357   33.9704   43.3375 H   0  0  0  0  0  0  0  0  0  0  0  0
   45.3883   35.2299   41.1430 H   0  0  0  0  0  0  0  0  0  0  0  0
   45.7598   33.4788   41.4597 H   0  0  0  0  0  0  0  0  0  0  0  0
   44.6573   36.5328   42.6300 H   0  0  0  0  0  0  0  0  0  0  0  0
   43.8672   37.0334   44.9240 H   0  0  0  0  0  0  0  0  0  0  0  0
   45.0551   30.6852   44.8771 H   0  0  0  0  0  0  0  0  0  0  0  0
   46.9806   28.8895   45.4855 H   0  0  0  0  0  0  0  0  0  0  0  0
   48.5761   30.1565   47.2219 H   0  0  0  0  0  0  0  0  0  0  0  0
  1 10  1  0
  2  6  1  0
  2  1  1  0
  3  2  1  0
  4  3  2  0
  4  5  1  0
  5  6  2  0
  6  7  1  0
  7  9  1  0
  8  7  1  0
  8  9  1  0
 10 11  1  0
 11 12  2  0
 11 16  1  0
 12 13  1  0
 13 14  2  0
 15 14  1  0
 15 17  1  0
 16 15  2  0
 18 17  1  0
 18 22  1  0
 19 20  1  0
 19 18  2  0
 20 21  2  0
 21 22  1  0
  1 23  1  0
  1 24  1  0
  3 25  1  0
  4 26  1  0
  7 27  1  0
  8 28  1  0
  8 29  1  0
  9 30  1  0
  9 31  1  0
 10 32  1  0
 10 33  1  0
 12 34  1  0
 13 35  1  0
 19 36  1  0
 20 37  1  0
 21 38  1  0
M  ISO  8  23   8  24   8  25  14  26  14  27  13  28  13  29  13  30  13
M  ISO  8  31  13  32   8  33   8  34  14  35  14  36  14  37  14  38  14
M  END
>  <minimizedAffinity>  (1) 
-5.09116602

>  <minimizedRMSD>  (1) 
0.601339757

$$$$
