
     RDKit          3D

 37 39  0  0  0  0  0  0  0  0999 V2000
   47.4610   34.8080   41.5350 C   0  0  0  0  0  0  0  0  0  0  0  0
   48.0040   34.0060   40.4920 N   0  0  0  0  0  0  0  0  0  0  0  0
   47.7370   33.9740   39.1860 C   0  0  0  0  0  0  0  0  0  0  0  0
   48.4860   33.0560   38.5130 C   0  0  0  0  0  0  0  0  0  0  0  0
   49.2600   32.4930   39.4860 N   0  0  0  0  0  0  0  0  0  0  0  0
   48.9520   33.0790   40.6610 C   0  0  0  0  0  0  0  0  0  0  0  0
   49.6730   32.6010   41.8850 C   0  0  0  0  0  0  0  0  0  0  0  0
   51.0850   32.1060   41.7900 C   0  0  0  0  0  0  0  0  0  0  0  0
   50.8040   33.4580   42.3890 C   0  0  0  0  0  0  0  0  0  0  0  0
   45.9850   34.5900   41.7350 C   0  0  0  0  0  0  0  0  0  0  0  0
   45.5950   34.7130   43.1210 C   0  0  0  0  0  0  0  0  0  0  0  0
   44.9040   35.8780   43.4470 C   0  0  0  0  0  0  0  0  0  0  0  0
   44.4550   36.1500   44.7290 C   0  0  0  0  0  0  0  0  0  0  0  0
   44.7240   35.2140   45.6650 N   0  0  0  0  0  0  0  0  0  0  0  0
   45.4040   34.0730   45.3310 C   0  0  0  0  0  0  0  0  0  0  0  0
   45.8280   33.8470   44.0540 N   0  0  0  0  0  0  0  0  0  0  0  0
   45.5870   33.2340   46.4100 O   0  0  0  0  0  0  0  0  0  0  0  0
   46.8260   32.5470   46.4550 C   0  0  0  0  0  0  0  0  0  0  0  0
   47.3320   32.3650   47.8700 C   0  0  0  0  0  0  0  0  0  0  0  0
   47.6289   35.8665   41.2872 H   0  0  0  0  0  0  0  0  0  0  0  0
   47.9662   34.5206   42.4689 H   0  0  0  0  0  0  0  0  0  0  0  0
   46.9902   34.6210   38.7025 H   0  0  0  0  0  0  0  0  0  0  0  0
   48.4705   32.8233   37.4380 H   0  0  0  0  0  0  0  0  0  0  0  0
   48.7481   32.1752   42.3012 H   0  0  0  0  0  0  0  0  0  0  0  0
   51.4220   31.2794   42.4328 H   0  0  0  0  0  0  0  0  0  0  0  0
   51.7250   31.7347   40.9760 H   0  0  0  0  0  0  0  0  0  0  0  0
   51.0878   34.3711   41.8452 H   0  0  0  0  0  0  0  0  0  0  0  0
   51.0420   33.9530   43.3421 H   0  0  0  0  0  0  0  0  0  0  0  0
   45.4340   35.3371   41.1449 H   0  0  0  0  0  0  0  0  0  0  0  0
   45.7489   33.5664   41.4087 H   0  0  0  0  0  0  0  0  0  0  0  0
   44.7066   36.6130   42.6528 H   0  0  0  0  0  0  0  0  0  0  0  0
   43.9108   37.0749   44.9708 H   0  0  0  0  0  0  0  0  0  0  0  0
   46.6977   31.5560   45.9952 H   0  0  0  0  0  0  0  0  0  0  0  0
   47.5653   33.1512   45.9088 H   0  0  0  0  0  0  0  0  0  0  0  0
   46.5423   32.6490   48.5812 H   0  0  0  0  0  0  0  0  0  0  0  0
   47.6067   31.3117   48.0285 H   0  0  0  0  0  0  0  0  0  0  0  0
   48.2147   33.0020   48.0285 H   0  0  0  0  0  0  0  0  0  0  0  0
  1 10  1  0
  2  6  1  0
  2  1  1  0
  3  2  1  0
  4  3  2  0
  4  5  1  0
  5  6  2  0
  6  7  1  0
  7  9  1  0
  8  7  1  0
  8  9  1  0
 10 11  1  0
 11 12  2  0
 11 16  1  0
 12 13  1  0
 13 14  2  0
 15 14  1  0
 15 17  1  0
 16 15  2  0
 17 18  1  0
 18 19  1  0
  1 20  1  0
  1 21  1  0
  3 22  1  0
  4 23  1  0
  7 24  1  0
  8 25  1  0
  8 26  1  0
  9 27  1  0
  9 28  1  0
 10 29  1  0
 10 30  1  0
 12 31  1  0
 13 32  1  0
 18 33  1  0
 18 34  1  0
 19 35  1  0
 19 36  1  0
 19 37  1  0
M  ISO  8  20   8  21   8  22  14  23  14  24  13  25  13  26  13  27  13
M  ISO  8  28  13  29   8  30   8  31  14  32  14  33   8  34   8  35   8
M  ISO  2  36   8  37   8
M  END
>  <minimizedAffinity>  (1) 
-4.8582778

>  <minimizedRMSD>  (1) 
0.479752809

$$$$
