
     RDKit          3D

 34 36  0  0  0  0  0  0  0  0999 V2000
   47.6280   34.9810   41.7420 C   0  0  0  0  0  0  0  0  0  0  0  0
   48.0200   34.1210   40.6800 N   0  0  0  0  0  0  0  0  0  0  0  0
   47.6410   34.0710   39.4000 C   0  0  0  0  0  0  0  0  0  0  0  0
   48.2690   33.0870   38.7030 C   0  0  0  0  0  0  0  0  0  0  0  0
   49.0830   32.4980   39.6160 N   0  0  0  0  0  0  0  0  0  0  0  0
   48.9140   33.1380   40.7940 C   0  0  0  0  0  0  0  0  0  0  0  0
   49.7000   32.6470   41.9620 C   0  0  0  0  0  0  0  0  0  0  0  0
   51.0890   32.1000   41.7830 C   0  0  0  0  0  0  0  0  0  0  0  0
   50.8910   33.4530   42.4000 C   0  0  0  0  0  0  0  0  0  0  0  0
   46.1370   35.0080   41.9490 C   0  0  0  0  0  0  0  0  0  0  0  0
   45.7780   34.8100   43.3330 C   0  0  0  0  0  0  0  0  0  0  0  0
   44.9190   35.7430   43.8750 C   0  0  0  0  0  0  0  0  0  0  0  0
   44.4690   35.7060   45.1680 C   0  0  0  0  0  0  0  0  0  0  0  0
   44.9040   34.7030   45.9200 N   0  0  0  0  0  0  0  0  0  0  0  0
   45.7600   33.7610   45.4050 C   0  0  0  0  0  0  0  0  0  0  0  0
   46.1790   33.8430   44.1030 N   0  0  0  0  0  0  0  0  0  0  0  0
   46.1480   32.7640   46.2800 O   0  0  0  0  0  0  0  0  0  0  0  0
   45.4870   32.6570   47.5200 C   0  0  0  0  0  0  0  0  0  0  0  0
   47.9698   36.0011   41.5129 H   0  0  0  0  0  0  0  0  0  0  0  0
   48.0843   34.5964   42.6660 H   0  0  0  0  0  0  0  0  0  0  0  0
   46.9001   34.7530   38.9573 H   0  0  0  0  0  0  0  0  0  0  0  0
   48.1457   32.8273   37.6412 H   0  0  0  0  0  0  0  0  0  0  0  0
   48.7840   32.2605   42.4328 H   0  0  0  0  0  0  0  0  0  0  0  0
   51.4325   31.2582   42.4023 H   0  0  0  0  0  0  0  0  0  0  0  0
   51.6676   31.7106   40.9323 H   0  0  0  0  0  0  0  0  0  0  0  0
   51.1770   34.3580   41.8440 H   0  0  0  0  0  0  0  0  0  0  0  0
   51.2025   33.9318   43.3401 H   0  0  0  0  0  0  0  0  0  0  0  0
   45.7504   35.9833   41.6182 H   0  0  0  0  0  0  0  0  0  0  0  0
   45.6985   34.1861   41.3641 H   0  0  0  0  0  0  0  0  0  0  0  0
   44.5750   36.5655   43.2307 H   0  0  0  0  0  0  0  0  0  0  0  0
   43.7820   36.4689   45.5630 H   0  0  0  0  0  0  0  0  0  0  0  0
   46.2158   32.7750   48.3354 H   0  0  0  0  0  0  0  0  0  0  0  0
   44.7211   33.4429   47.5962 H   0  0  0  0  0  0  0  0  0  0  0  0
   45.0081   31.6696   47.5962 H   0  0  0  0  0  0  0  0  0  0  0  0
  1 10  1  0
  2  6  1  0
  2  1  1  0
  3  2  1  0
  4  3  2  0
  4  5  1  0
  5  6  2  0
  6  7  1  0
  7  9  1  0
  8  7  1  0
  8  9  1  0
 10 11  1  0
 11 12  2  0
 11 16  1  0
 12 13  1  0
 13 14  2  0
 15 14  1  0
 15 17  1  0
 16 15  2  0
 17 18  1  0
  1 19  1  0
  1 20  1  0
  3 21  1  0
  4 22  1  0
  7 23  1  0
  8 24  1  0
  8 25  1  0
  9 26  1  0
  9 27  1  0
 10 28  1  0
 10 29  1  0
 12 30  1  0
 13 31  1  0
 18 32  1  0
 18 33  1  0
 18 34  1  0
M  ISO  8  19   8  20   8  21  14  22  14  23  13  24  13  25  13  26  13
M  ISO  8  27  13  28   8  29   8  30  14  31  14  32   8  33   8  34   8
M  END
>  <minimizedAffinity>  (1) 
-4.70889854

>  <minimizedRMSD>  (1) 
0.347490013

$$$$
