
     RDKit          3D

 51 55  0  0  1  0  0  0  0  0999 V2000
   45.9140   34.7470   43.3050 C   0  0  0  0  0  0  0  0  0  0  0  0
   44.9190   35.5900   43.8140 C   0  0  0  0  0  0  0  0  0  0  0  0
   44.4940   35.5430   45.1160 C   0  0  0  0  0  0  0  0  0  0  0  0
   45.0870   34.6310   45.9060 N   0  0  0  0  0  0  0  0  0  0  0  0
   46.0620   33.8020   45.4140 C   0  0  0  0  0  0  0  0  0  0  0  0
   46.4730   33.8680   44.1030 N   0  0  0  0  0  0  0  0  0  0  0  0
   46.2420   34.9200   41.9130 C   0  0  0  0  0  0  0  0  0  0  0  0
   47.7130   34.9200   41.6590 C   0  0  0  0  0  0  0  0  0  0  0  0
   48.1180   34.0490   40.6310 N   0  0  0  0  0  0  0  0  0  0  0  0
   47.7570   34.0350   39.3480 C   0  0  0  0  0  0  0  0  0  0  0  0
   48.3930   33.0190   38.6480 C   0  0  0  0  0  0  0  0  0  0  0  0
   49.1740   32.4020   39.5900 N   0  0  0  0  0  0  0  0  0  0  0  0
   48.9820   33.0520   40.7680 C   0  0  0  0  0  0  0  0  0  0  0  0
   49.7250   32.5130   41.9430 C   0  0  0  0  0  0  0  0  0  0  0  0
   51.0800   31.9170   41.8040 C   0  0  0  0  0  0  0  0  0  0  0  0
   50.9410   33.3110   42.3800 C   0  0  0  0  0  0  0  0  0  0  0  0
   46.5900   32.9110   46.3260 O   0  0  0  0  0  0  0  0  0  0  0  0
   45.7020   32.0670   47.0340 C   0  0  2  0  0  0  0  0  0  0  0  0
   45.6490   32.3330   48.5150 C   0  0  0  0  0  0  0  0  0  0  0  0
   46.2020   31.0570   47.9740 C   0  0  2  0  0  0  0  0  0  0  0  0
   47.5750   30.8170   48.2880 N   0  0  0  0  0  0  0  0  0  0  0  0
   48.4370   31.5850   48.9980 C   0  0  0  0  0  0  0  0  0  0  0  0
   49.7430   31.1920   49.2050 C   0  0  0  0  0  0  0  0  0  0  0  0
   50.5800   32.1310   50.0010 C   0  0  0  0  0  0  0  0  0  0  0  0
   50.2270   29.9940   48.6940 C   0  0  0  0  0  0  0  0  0  0  0  0
   51.4260   29.6770   48.9080 O   0  0  0  0  0  0  0  0  0  0  0  0
   49.3460   29.2520   47.9930 N   0  0  0  0  0  0  0  0  0  0  0  0
   48.0820   29.6470   47.8010 C   0  0  0  0  0  0  0  0  0  0  0  0
   47.3830   28.8480   47.1270 O   0  0  0  0  0  0  0  0  0  0  0  0
   44.4569   36.3241   43.1376 H   0  0  0  0  0  0  0  0  0  0  0  0
   43.7099   36.2153   45.4944 H   0  0  0  0  0  0  0  0  0  0  0  0
   45.7868   34.0985   41.3403 H   0  0  0  0  0  0  0  0  0  0  0  0
   45.8530   35.9006   41.6013 H   0  0  0  0  0  0  0  0  0  0  0  0
   48.0165   35.9415   41.3860 H   0  0  0  0  0  0  0  0  0  0  0  0
   48.1946   34.5665   42.5826 H   0  0  0  0  0  0  0  0  0  0  0  0
   47.0431   34.7414   38.8993 H   0  0  0  0  0  0  0  0  0  0  0  0
   48.2931   32.7670   37.5819 H   0  0  0  0  0  0  0  0  0  0  0  0
   48.7952   32.1406   42.3979 H   0  0  0  0  0  0  0  0  0  0  0  0
   51.3810   31.0828   42.4548 H   0  0  0  0  0  0  0  0  0  0  0  0
   51.6497   31.4775   40.9720 H   0  0  0  0  0  0  0  0  0  0  0  0
   51.2676   34.1855   41.7981 H   0  0  0  0  0  0  0  0  0  0  0  0
   51.2594   33.8139   43.3050 H   0  0  0  0  0  0  0  0  0  0  0  0
   45.0005   32.0032   46.1891 H   0  0  0  0  0  0  0  0  0  0  0  0
   46.3187   33.0788   48.9680 H   0  0  0  0  0  0  0  0  0  0  0  0
   44.8652   32.6063   49.2368 H   0  0  0  0  0  0  0  0  0  0  0  0
   46.0057   29.9756   48.0198 H   0  0  0  0  0  0  0  0  0  0  0  0
   48.0884   32.5403   49.4173 H   0  0  0  0  0  0  0  0  0  0  0  0
   50.4172   31.9483   51.0734 H   0  0  0  0  0  0  0  0  0  0  0  0
   51.6411   31.9717   49.7589 H   0  0  0  0  0  0  0  0  0  0  0  0
   50.3002   33.1669   49.7589 H   0  0  0  0  0  0  0  0  0  0  0  0
   49.6552   28.3544   47.5934 H   0  0  0  0  0  0  0  0  0  0  0  0
  1  2  2  0
  1  6  1  0
  2  3  1  0
  3  4  2  0
  5  4  1  0
  5 17  1  0
  6  5  2  0
  7  1  1  0
  8  7  1  0
  9 13  1  0
  9  8  1  0
 10  9  1  0
 11 10  2  0
 11 12  1  0
 12 13  2  0
 13 14  1  0
 14 16  1  0
 15 14  1  0
 15 16  1  0
 17 18  1  0
 18 20  1  0
 18 19  1  0
 20 21  1  0
 20 19  1  0
 21 22  1  0
 22 23  2  0
 23 24  1  0
 25 26  2  0
 25 23  1  0
 27 25  1  0
 28 27  1  0
 28 21  1  0
 29 28  2  0
  2 30  1  0
  3 31  1  0
  7 32  1  0
  7 33  1  0
  8 34  1  0
  8 35  1  0
 10 36  1  0
 11 37  1  0
 14 38  1  0
 15 39  1  0
 15 40  1  0
 16 41  1  0
 16 42  1  0
 18 43  1  6
 19 44  1  0
 19 45  1  0
 20 46  1  1
 22 47  1  0
 24 48  1  0
 24 49  1  0
 24 50  1  0
 27 51  1  0
M  ISO  8  30  14  31  14  32   8  33   8  34   8  35   8  36  14  37  14
M  ISO  8  38  13  39  13  40  13  41  13  42  13  43  13  44  13  45  13
M  ISO  6  46  13  47  14  48   8  49   8  50   8  51   9
M  END
>  <minimizedAffinity>  (1) 
-6.2656517

>  <minimizedRMSD>  (1) 
2.89977479

$$$$
