
     RDKit          3D

 45 49  0  0  1  0  0  0  0  0999 V2000
   45.6380   34.6500   43.3570 C   0  0  0  0  0  0  0  0  0  0  0  0
   44.8390   35.6980   43.8340 C   0  0  0  0  0  0  0  0  0  0  0  0
   44.4380   35.8010   45.1280 C   0  0  0  0  0  0  0  0  0  0  0  0
   44.8450   34.8320   45.9670 N   0  0  0  0  0  0  0  0  0  0  0  0
   45.6310   33.7950   45.5120 C   0  0  0  0  0  0  0  0  0  0  0  0
   46.0260   33.7080   44.2060 N   0  0  0  0  0  0  0  0  0  0  0  0
   45.9780   34.6770   41.9570 C   0  0  0  0  0  0  0  0  0  0  0  0
   47.4460   34.8340   41.7230 C   0  0  0  0  0  0  0  0  0  0  0  0
   47.9350   34.0310   40.6680 N   0  0  0  0  0  0  0  0  0  0  0  0
   47.5960   34.0030   39.3800 C   0  0  0  0  0  0  0  0  0  0  0  0
   48.3240   33.0770   38.6730 C   0  0  0  0  0  0  0  0  0  0  0  0
   49.1500   32.5160   39.6050 N   0  0  0  0  0  0  0  0  0  0  0  0
   48.8870   33.1160   40.7920 C   0  0  0  0  0  0  0  0  0  0  0  0
   49.6700   32.6170   41.9640 C   0  0  0  0  0  0  0  0  0  0  0  0
   51.0620   32.1130   41.8090 C   0  0  0  0  0  0  0  0  0  0  0  0
   50.8340   33.4830   42.4140 C   0  0  0  0  0  0  0  0  0  0  0  0
   45.9770   32.8700   46.4710 O   0  0  0  0  0  0  0  0  0  0  0  0
   45.2290   32.8230   47.6750 C   0  0  2  0  0  0  0  0  0  0  0  0
   46.0110   32.3200   48.8490 C   0  0  0  0  0  0  0  0  0  0  0  0
   44.9050   31.5030   48.2820 C   0  0  2  0  0  0  0  0  0  0  0  0
   45.1710   30.2490   47.5270 C   0  0  0  0  0  0  0  0  0  0  0  0
   46.3490   29.5230   47.6300 C   0  0  0  0  0  0  0  0  0  0  0  0
   46.2280   28.4640   46.8090 N   0  0  0  0  0  0  0  0  0  0  0  0
   45.0020   28.5320   46.2110 C   0  0  0  0  0  0  0  0  0  0  0  0
   44.3430   29.6420   46.6560 N   0  0  0  0  0  0  0  0  0  0  0  0
   44.5205   36.4764   43.1250 H   0  0  0  0  0  0  0  0  0  0  0  0
   43.8109   36.6364   45.4727 H   0  0  0  0  0  0  0  0  0  0  0  0
   45.6470   33.7346   41.4962 H   0  0  0  0  0  0  0  0  0  0  0  0
   45.4752   35.5471   41.5096 H   0  0  0  0  0  0  0  0  0  0  0  0
   47.6500   35.8878   41.4826 H   0  0  0  0  0  0  0  0  0  0  0  0
   47.9577   34.5106   42.6414 H   0  0  0  0  0  0  0  0  0  0  0  0
   46.8231   34.6465   38.9344 H   0  0  0  0  0  0  0  0  0  0  0  0
   48.2570   32.8411   37.6007 H   0  0  0  0  0  0  0  0  0  0  0  0
   48.7666   32.1834   42.4178 H   0  0  0  0  0  0  0  0  0  0  0  0
   51.4193   31.2872   42.4417 H   0  0  0  0  0  0  0  0  0  0  0  0
   51.6560   31.7287   40.9667 H   0  0  0  0  0  0  0  0  0  0  0  0
   51.1007   34.3886   41.8494 H   0  0  0  0  0  0  0  0  0  0  0  0
   51.1226   33.9864   43.3485 H   0  0  0  0  0  0  0  0  0  0  0  0
   44.6154   33.7003   47.4222 H   0  0  0  0  0  0  0  0  0  0  0  0
   47.0551   31.9994   48.7184 H   0  0  0  0  0  0  0  0  0  0  0  0
   46.2570   32.7124   49.8468 H   0  0  0  0  0  0  0  0  0  0  0  0
   44.0039   31.0342   48.7041 H   0  0  0  0  0  0  0  0  0  0  0  0
   47.2158   29.7666   48.2619 H   0  0  0  0  0  0  0  0  0  0  0  0
   44.6073   27.8063   45.4847 H   0  0  0  0  0  0  0  0  0  0  0  0
   43.4005   29.9529   46.3804 H   0  0  0  0  0  0  0  0  0  0  0  0
  1  2  2  0
  1  6  1  0
  2  3  1  0
  3  4  2  0
  5  4  1  0
  5 17  1  0
  6  5  2  0
  7  1  1  0
  8  7  1  0
  9 13  1  0
  9  8  1  0
 10  9  1  0
 11 10  2  0
 11 12  1  0
 12 13  2  0
 13 14  1  0
 14 16  1  0
 15 14  1  0
 15 16  1  0
 17 18  1  0
 18 20  1  0
 18 19  1  0
 20 19  1  0
 21 22  2  0
 21 20  1  0
 23 22  1  0
 24 25  1  0
 24 23  2  0
 25 21  1  0
  2 26  1  0
  3 27  1  0
  7 28  1  0
  7 29  1  0
  8 30  1  0
  8 31  1  0
 10 32  1  0
 11 33  1  0
 14 34  1  0
 15 35  1  0
 15 36  1  0
 16 37  1  0
 16 38  1  0
 18 39  1  1
 19 40  1  0
 19 41  1  0
 20 42  1  1
 22 43  1  0
 24 44  1  0
 25 45  1  0
M  ISO  8  26  14  27  14  28   8  29   8  30   8  31   8  32  14  33  14
M  ISO  8  34  13  35  13  36  13  37  13  38  13  39  13  40  13  41  13
M  ISO  4  42  13  43  14  44  14  45   9
M  END
>  <minimizedAffinity>  (1) 
-5.96028328

>  <minimizedRMSD>  (1) 
0.296506733

$$$$
