
     RDKit          3D

 46 50  0  0  1  0  0  0  0  0999 V2000
   45.6530   34.6420   43.3990 C   0  0  0  0  0  0  0  0  0  0  0  0
   44.8560   35.6830   43.8750 C   0  0  0  0  0  0  0  0  0  0  0  0
   44.4370   35.7800   45.1800 C   0  0  0  0  0  0  0  0  0  0  0  0
   44.8420   34.7940   46.0040 N   0  0  0  0  0  0  0  0  0  0  0  0
   45.6300   33.7600   45.5380 C   0  0  0  0  0  0  0  0  0  0  0  0
   46.0290   33.6970   44.2290 N   0  0  0  0  0  0  0  0  0  0  0  0
   45.9960   34.6950   42.0000 C   0  0  0  0  0  0  0  0  0  0  0  0
   47.4690   34.8050   41.7720 C   0  0  0  0  0  0  0  0  0  0  0  0
   47.9420   34.0050   40.7040 N   0  0  0  0  0  0  0  0  0  0  0  0
   47.5670   33.9860   39.4230 C   0  0  0  0  0  0  0  0  0  0  0  0
   48.2750   33.0700   38.6920 C   0  0  0  0  0  0  0  0  0  0  0  0
   49.1300   32.5050   39.6020 N   0  0  0  0  0  0  0  0  0  0  0  0
   48.9020   33.0940   40.8070 C   0  0  0  0  0  0  0  0  0  0  0  0
   49.7100   32.6000   41.9470 C   0  0  0  0  0  0  0  0  0  0  0  0
   51.1120   32.1360   41.7780 C   0  0  0  0  0  0  0  0  0  0  0  0
   50.8510   33.4940   42.3980 C   0  0  0  0  0  0  0  0  0  0  0  0
   45.9700   32.8210   46.4850 O   0  0  0  0  0  0  0  0  0  0  0  0
   45.1980   32.7500   47.6750 C   0  0  2  0  0  0  0  0  0  0  0  0
   45.9890   32.3280   48.8880 C   0  0  0  0  0  0  0  0  0  0  0  0
   44.9530   31.4270   48.3040 C   0  0  2  0  0  0  0  0  0  0  0  0
   45.5160   30.1870   47.6880 C   0  0  0  0  0  0  0  0  0  0  0  0
   44.6730   29.4090   46.9150 C   0  0  0  0  0  0  0  0  0  0  0  0
   45.2060   28.2510   46.3430 C   0  0  0  0  0  0  0  0  0  0  0  0
   46.4990   27.9410   46.5640 N   0  0  0  0  0  0  0  0  0  0  0  0
   47.3110   28.7010   47.3150 C   0  0  0  0  0  0  0  0  0  0  0  0
   46.8100   29.8340   47.8810 N   0  0  0  0  0  0  0  0  0  0  0  0
   44.5467   36.4675   43.1686 H   0  0  0  0  0  0  0  0  0  0  0  0
   43.8090   36.6122   45.5307 H   0  0  0  0  0  0  0  0  0  0  0  0
   45.6319   33.7782   41.5132 H   0  0  0  0  0  0  0  0  0  0  0  0
   45.5257   35.5944   41.5760 H   0  0  0  0  0  0  0  0  0  0  0  0
   47.7085   35.8556   41.5511 H   0  0  0  0  0  0  0  0  0  0  0  0
   47.9631   34.4445   42.6863 H   0  0  0  0  0  0  0  0  0  0  0  0
   46.7809   34.6310   39.0036 H   0  0  0  0  0  0  0  0  0  0  0  0
   48.1795   32.8403   37.6205 H   0  0  0  0  0  0  0  0  0  0  0  0
   48.8240   32.1298   42.3985 H   0  0  0  0  0  0  0  0  0  0  0  0
   51.4960   31.3142   42.4003 H   0  0  0  0  0  0  0  0  0  0  0  0
   51.7104   31.7759   40.9281 H   0  0  0  0  0  0  0  0  0  0  0  0
   51.0886   34.4120   41.8405 H   0  0  0  0  0  0  0  0  0  0  0  0
   51.1318   33.9966   43.3353 H   0  0  0  0  0  0  0  0  0  0  0  0
   44.5318   33.5767   47.3874 H   0  0  0  0  0  0  0  0  0  0  0  0
   47.0558   32.0777   48.7915 H   0  0  0  0  0  0  0  0  0  0  0  0
   46.1820   32.7556   49.8829 H   0  0  0  0  0  0  0  0  0  0  0  0
   44.0295   30.9301   48.6359 H   0  0  0  0  0  0  0  0  0  0  0  0
   43.6218   29.6916   46.7565 H   0  0  0  0  0  0  0  0  0  0  0  0
   44.5770   27.5992   45.7189 H   0  0  0  0  0  0  0  0  0  0  0  0
   48.3615   28.4143   47.4705 H   0  0  0  0  0  0  0  0  0  0  0  0
  1  2  2  0
  1  6  1  0
  2  3  1  0
  3  4  2  0
  5  4  1  0
  5 17  1  0
  6  5  2  0
  7  1  1  0
  8  7  1  0
  9 13  1  0
  9  8  1  0
 10  9  1  0
 11 10  2  0
 11 12  1  0
 12 13  2  0
 13 14  1  0
 14 16  1  0
 15 14  1  0
 15 16  1  0
 17 18  1  0
 18 20  1  0
 18 19  1  0
 20 19  1  0
 21 26  1  0
 21 20  1  0
 22 21  2  0
 23 24  2  0
 23 22  1  0
 24 25  1  0
 25 26  2  0
  2 27  1  0
  3 28  1  0
  7 29  1  0
  7 30  1  0
  8 31  1  0
  8 32  1  0
 10 33  1  0
 11 34  1  0
 14 35  1  0
 15 36  1  0
 15 37  1  0
 16 38  1  0
 16 39  1  0
 18 40  1  1
 19 41  1  0
 19 42  1  0
 20 43  1  1
 22 44  1  0
 23 45  1  0
 25 46  1  0
M  ISO  8  27  14  28  14  29   8  30   8  31   8  32   8  33  14  34  14
M  ISO  8  35  13  36  13  37  13  38  13  39  13  40  13  41  13  42  13
M  ISO  4  43  13  44  14  45  14  46  14
M  END
>  <minimizedAffinity>  (1) 
-5.92132139

>  <minimizedRMSD>  (1) 
0.407031655

$$$$
