
     RDKit          3D

 46 50  0  0  1  0  0  0  0  0999 V2000
   45.6440   34.6200   43.4100 C   0  0  0  0  0  0  0  0  0  0  0  0
   44.8690   35.6630   43.8930 C   0  0  0  0  0  0  0  0  0  0  0  0
   44.4500   35.7650   45.2010 C   0  0  0  0  0  0  0  0  0  0  0  0
   44.8420   34.7680   46.0200 N   0  0  0  0  0  0  0  0  0  0  0  0
   45.6130   33.7280   45.5460 C   0  0  0  0  0  0  0  0  0  0  0  0
   46.0060   33.6710   44.2350 N   0  0  0  0  0  0  0  0  0  0  0  0
   45.9890   34.6730   42.0090 C   0  0  0  0  0  0  0  0  0  0  0  0
   47.4620   34.7890   41.7810 C   0  0  0  0  0  0  0  0  0  0  0  0
   47.9390   33.9950   40.7130 N   0  0  0  0  0  0  0  0  0  0  0  0
   47.5730   33.9800   39.4300 C   0  0  0  0  0  0  0  0  0  0  0  0
   48.2830   33.0670   38.7000 C   0  0  0  0  0  0  0  0  0  0  0  0
   49.1300   32.4990   39.6130 N   0  0  0  0  0  0  0  0  0  0  0  0
   48.8960   33.0830   40.8200 C   0  0  0  0  0  0  0  0  0  0  0  0
   49.7030   32.5810   41.9670 C   0  0  0  0  0  0  0  0  0  0  0  0
   51.1030   32.1170   41.7890 C   0  0  0  0  0  0  0  0  0  0  0  0
   50.8530   33.4820   42.3990 C   0  0  0  0  0  0  0  0  0  0  0  0
   45.9410   32.7780   46.4860 O   0  0  0  0  0  0  0  0  0  0  0  0
   45.1830   32.7230   47.6850 C   0  0  2  0  0  0  0  0  0  0  0  0
   45.9900   32.3500   48.9000 C   0  0  0  0  0  0  0  0  0  0  0  0
   44.9700   31.4150   48.3530 C   0  0  2  0  0  0  0  0  0  0  0  0
   45.5310   30.2100   47.6840 C   0  0  0  0  0  0  0  0  0  0  0  0
   44.6900   29.4670   46.8760 C   0  0  0  0  0  0  0  0  0  0  0  0
   45.2340   28.3370   46.2540 C   0  0  0  0  0  0  0  0  0  0  0  0
   46.5110   27.9590   46.4110 N   0  0  0  0  0  0  0  0  0  0  0  0
   47.2920   28.7120   47.2070 C   0  0  0  0  0  0  0  0  0  0  0  0
   46.8280   29.8260   47.8440 N   0  0  0  0  0  0  0  0  0  0  0  0
   44.5713   36.4554   43.1905 H   0  0  0  0  0  0  0  0  0  0  0  0
   43.8351   36.6057   45.5548 H   0  0  0  0  0  0  0  0  0  0  0  0
   45.6291   33.7542   41.5230 H   0  0  0  0  0  0  0  0  0  0  0  0
   45.5156   35.5704   41.5842 H   0  0  0  0  0  0  0  0  0  0  0  0
   47.6972   35.8412   41.5627 H   0  0  0  0  0  0  0  0  0  0  0  0
   47.9567   34.4273   42.6945 H   0  0  0  0  0  0  0  0  0  0  0  0
   46.7903   34.6275   39.0079 H   0  0  0  0  0  0  0  0  0  0  0  0
   48.1939   32.8413   37.6271 H   0  0  0  0  0  0  0  0  0  0  0  0
   48.8222   32.1114   42.4292 H   0  0  0  0  0  0  0  0  0  0  0  0
   51.4928   31.3009   42.4151 H   0  0  0  0  0  0  0  0  0  0  0  0
   51.6916   31.7489   40.9358 H   0  0  0  0  0  0  0  0  0  0  0  0
   51.0860   34.3942   41.8301 H   0  0  0  0  0  0  0  0  0  0  0  0
   51.1450   33.9936   43.3280 H   0  0  0  0  0  0  0  0  0  0  0  0
   44.4986   33.5285   47.3803 H   0  0  0  0  0  0  0  0  0  0  0  0
   47.0606   32.1177   48.8010 H   0  0  0  0  0  0  0  0  0  0  0  0
   46.1826   32.8091   49.8809 H   0  0  0  0  0  0  0  0  0  0  0  0
   44.0811   30.8991   48.7451 H   0  0  0  0  0  0  0  0  0  0  0  0
   43.6379   29.7519   46.7282 H   0  0  0  0  0  0  0  0  0  0  0  0
   44.5836   27.7309   45.6062 H   0  0  0  0  0  0  0  0  0  0  0  0
   48.3426   28.4189   47.3494 H   0  0  0  0  0  0  0  0  0  0  0  0
  1  2  2  0
  1  6  1  0
  2  3  1  0
  3  4  2  0
  5  4  1  0
  5 17  1  0
  6  5  2  0
  7  1  1  0
  8  7  1  0
  9 13  1  0
  9  8  1  0
 10  9  1  0
 11 10  2  0
 11 12  1  0
 12 13  2  0
 13 14  1  0
 14 16  1  0
 15 14  1  0
 15 16  1  0
 17 18  1  0
 18 20  1  0
 18 19  1  0
 20 19  1  0
 21 26  1  0
 21 20  1  0
 22 21  2  0
 23 24  2  0
 23 22  1  0
 24 25  1  0
 25 26  2  0
  2 27  1  0
  3 28  1  0
  7 29  1  0
  7 30  1  0
  8 31  1  0
  8 32  1  0
 10 33  1  0
 11 34  1  0
 14 35  1  0
 15 36  1  0
 15 37  1  0
 16 38  1  0
 16 39  1  0
 18 40  1  1
 19 41  1  0
 19 42  1  0
 20 43  1  1
 22 44  1  0
 23 45  1  0
 25 46  1  0
M  ISO  8  27  14  28  14  29   8  30   8  31   8  32   8  33  14  34  14
M  ISO  8  35  13  36  13  37  13  38  13  39  13  40  13  41  13  42  13
M  ISO  4  43  13  44  14  45  14  46  14
M  END
>  <minimizedAffinity>  (1) 
-5.88925648

>  <minimizedRMSD>  (1) 
0.497029692

$$$$
