
     RDKit          3D

 44 48  0  0  1  0  0  0  0  0999 V2000
   45.6460   34.6530   43.3670 C   0  0  0  0  0  0  0  0  0  0  0  0
   44.8680   35.7060   43.8510 C   0  0  0  0  0  0  0  0  0  0  0  0
   44.4510   35.8050   45.1530 C   0  0  0  0  0  0  0  0  0  0  0  0
   44.8330   34.8140   45.9790 N   0  0  0  0  0  0  0  0  0  0  0  0
   45.6030   33.7690   45.5060 C   0  0  0  0  0  0  0  0  0  0  0  0
   46.0010   33.7030   44.2030 N   0  0  0  0  0  0  0  0  0  0  0  0
   45.9980   34.6960   41.9690 C   0  0  0  0  0  0  0  0  0  0  0  0
   47.4740   34.8080   41.7530 C   0  0  0  0  0  0  0  0  0  0  0  0
   47.9510   34.0110   40.6900 N   0  0  0  0  0  0  0  0  0  0  0  0
   47.5880   33.9940   39.4040 C   0  0  0  0  0  0  0  0  0  0  0  0
   48.2960   33.0780   38.6730 C   0  0  0  0  0  0  0  0  0  0  0  0
   49.1410   32.5080   39.5910 N   0  0  0  0  0  0  0  0  0  0  0  0
   48.9040   33.0950   40.7930 C   0  0  0  0  0  0  0  0  0  0  0  0
   49.7060   32.5930   41.9490 C   0  0  0  0  0  0  0  0  0  0  0  0
   51.1110   32.1390   41.7770 C   0  0  0  0  0  0  0  0  0  0  0  0
   50.8470   33.4960   42.3920 C   0  0  0  0  0  0  0  0  0  0  0  0
   45.9270   32.8150   46.4560 O   0  0  0  0  0  0  0  0  0  0  0  0
   45.1860   32.7970   47.6670 C   0  0  2  0  0  0  0  0  0  0  0  0
   45.9910   32.3600   48.8640 C   0  0  0  0  0  0  0  0  0  0  0  0
   44.9260   31.4900   48.3250 C   0  0  2  0  0  0  0  0  0  0  0  0
   45.3610   30.2420   47.6450 C   0  0  0  0  0  0  0  0  0  0  0  0
   46.7340   29.7500   47.8080 C   0  0  0  0  0  0  0  0  0  0  0  0
   46.7400   28.2240   46.7950 S   0  0  0  0  0  0  0  0  0  0  0  0
   44.9190   28.4930   46.3240 C   0  0  0  0  0  0  0  0  0  0  0  0
   44.6210   29.4690   46.8670 N   0  0  0  0  0  0  0  0  0  0  0  0
   44.5733   36.5000   43.1490 H   0  0  0  0  0  0  0  0  0  0  0  0
   43.8377   36.6483   45.5033 H   0  0  0  0  0  0  0  0  0  0  0  0
   45.6398   33.7746   41.4866 H   0  0  0  0  0  0  0  0  0  0  0  0
   45.5277   35.5899   41.5333 H   0  0  0  0  0  0  0  0  0  0  0  0
   47.7150   35.8589   41.5352 H   0  0  0  0  0  0  0  0  0  0  0  0
   47.9628   34.4486   42.6706 H   0  0  0  0  0  0  0  0  0  0  0  0
   46.8077   34.6433   38.9802 H   0  0  0  0  0  0  0  0  0  0  0  0
   48.2078   32.8520   37.6001 H   0  0  0  0  0  0  0  0  0  0  0  0
   48.8245   32.1179   42.4043 H   0  0  0  0  0  0  0  0  0  0  0  0
   51.5026   31.3221   42.4009 H   0  0  0  0  0  0  0  0  0  0  0  0
   51.7078   31.7798   40.9256 H   0  0  0  0  0  0  0  0  0  0  0  0
   51.0776   34.4130   41.8299 H   0  0  0  0  0  0  0  0  0  0  0  0
   51.1298   34.0036   43.3260 H   0  0  0  0  0  0  0  0  0  0  0  0
   44.5416   33.6431   47.3861 H   0  0  0  0  0  0  0  0  0  0  0  0
   47.0471   32.0767   48.7439 H   0  0  0  0  0  0  0  0  0  0  0  0
   46.2202   32.7924   49.8492 H   0  0  0  0  0  0  0  0  0  0  0  0
   44.0226   31.0121   48.7319 H   0  0  0  0  0  0  0  0  0  0  0  0
   47.5556   30.1888   48.3933 H   0  0  0  0  0  0  0  0  0  0  0  0
   44.2897   27.8618   45.6794 H   0  0  0  0  0  0  0  0  0  0  0  0
  1  2  2  0
  1  6  1  0
  2  3  1  0
  3  4  2  0
  5  4  1  0
  5 17  1  0
  6  5  2  0
  7  1  1  0
  8  7  1  0
  9 13  1  0
  9  8  1  0
 10  9  1  0
 11 10  2  0
 11 12  1  0
 12 13  2  0
 13 14  1  0
 14 16  1  0
 15 14  1  0
 15 16  1  0
 17 18  1  0
 18 20  1  0
 18 19  1  0
 20 19  1  0
 21 22  2  0
 21 20  1  0
 23 22  1  0
 24 23  1  0
 24 25  2  0
 25 21  1  0
  2 26  1  0
  3 27  1  0
  7 28  1  0
  7 29  1  0
  8 30  1  0
  8 31  1  0
 10 32  1  0
 11 33  1  0
 14 34  1  0
 15 35  1  0
 15 36  1  0
 16 37  1  0
 16 38  1  0
 18 39  1  1
 19 40  1  0
 19 41  1  0
 20 42  1  1
 22 43  1  0
 24 44  1  0
M  ISO  8  26  14  27  14  28   8  29   8  30   8  31   8  32  14  33  14
M  ISO  8  34  13  35  13  36  13  37  13  38  13  39  13  40  13  41  13
M  ISO  3  42  13  43  14  44  14
M  END
>  <minimizedAffinity>  (1) 
-5.80330801

>  <minimizedRMSD>  (1) 
0.301429689

$$$$
