
     RDKit          3D

 45 49  0  0  1  0  0  0  0  0999 V2000
   45.2250   33.4600   43.7800 C   0  0  0  0  0  0  0  0  0  0  0  0
   45.2730   34.3170   44.8800 C   0  0  0  0  0  0  0  0  0  0  0  0
   44.7020   35.5670   44.8950 C   0  0  0  0  0  0  0  0  0  0  0  0
   44.0710   35.9420   43.7660 N   0  0  0  0  0  0  0  0  0  0  0  0
   44.0190   35.1000   42.6760 C   0  0  0  0  0  0  0  0  0  0  0  0
   44.6020   33.8590   42.6990 N   0  0  0  0  0  0  0  0  0  0  0  0
   45.8820   32.1860   43.9340 C   0  0  0  0  0  0  0  0  0  0  0  0
   47.3270   32.3240   44.2920 C   0  0  0  0  0  0  0  0  0  0  0  0
   48.2040   32.1690   43.1960 N   0  0  0  0  0  0  0  0  0  0  0  0
   48.6320   31.0560   42.6000 C   0  0  0  0  0  0  0  0  0  0  0  0
   49.4800   31.3230   41.5500 C   0  0  0  0  0  0  0  0  0  0  0  0
   49.5570   32.6910   41.5270 N   0  0  0  0  0  0  0  0  0  0  0  0
   48.7770   33.1640   42.5330 C   0  0  0  0  0  0  0  0  0  0  0  0
   48.7450   34.6470   42.7040 C   0  0  0  0  0  0  0  0  0  0  0  0
   49.1440   35.5710   41.6090 C   0  0  0  0  0  0  0  0  0  0  0  0
   47.6720   35.3780   41.9130 C   0  0  0  0  0  0  0  0  0  0  0  0
   43.3460   35.6040   41.5840 O   0  0  0  0  0  0  0  0  0  0  0  0
   42.4860   34.7350   40.8610 C   0  0  2  0  0  0  0  0  0  0  0  0
   42.8490   34.6000   39.4060 C   0  0  0  0  0  0  0  0  0  0  0  0
   41.6030   35.3090   39.8110 C   0  0  1  0  0  0  0  0  0  0  0  0
   40.2920   34.6600   39.5320 C   0  0  0  0  0  0  0  0  0  0  0  0
   39.3670   34.2340   40.4660 C   0  0  0  0  0  0  0  0  0  0  0  0
   38.3470   33.7150   39.6890 C   0  0  0  0  0  0  0  0  0  0  0  0
   38.6780   33.8380   38.3600 C   0  0  0  0  0  0  0  0  0  0  0  0
   39.8550   34.4110   38.3020 O   0  0  0  0  0  0  0  0  0  0  0  0
   45.7964   33.9734   45.7845 H   0  0  0  0  0  0  0  0  0  0  0  0
   44.7571   36.2222   45.7768 H   0  0  0  0  0  0  0  0  0  0  0  0
   45.3742   31.6216   44.7300 H   0  0  0  0  0  0  0  0  0  0  0  0
   45.8266   31.6635   42.9676 H   0  0  0  0  0  0  0  0  0  0  0  0
   47.4835   33.3241   44.7224 H   0  0  0  0  0  0  0  0  0  0  0  0
   47.5587   31.5179   45.0037 H   0  0  0  0  0  0  0  0  0  0  0  0
   48.3410   30.0420   42.9115 H   0  0  0  0  0  0  0  0  0  0  0  0
   49.9802   30.6049   40.8835 H   0  0  0  0  0  0  0  0  0  0  0  0
   49.0635   34.5636   43.7536 H   0  0  0  0  0  0  0  0  0  0  0  0
   49.5687   35.1664   40.6784 H   0  0  0  0  0  0  0  0  0  0  0  0
   49.8107   36.4431   41.5380 H   0  0  0  0  0  0  0  0  0  0  0  0
   47.0928   36.1870   42.3821 H   0  0  0  0  0  0  0  0  0  0  0  0
   46.7829   35.0828   41.3364 H   0  0  0  0  0  0  0  0  0  0  0  0
   42.3003   34.0679   41.7157 H   0  0  0  0  0  0  0  0  0  0  0  0
   42.7893   33.6192   38.9116 H   0  0  0  0  0  0  0  0  0  0  0  0
   43.7272   34.8530   38.7939 H   0  0  0  0  0  0  0  0  0  0  0  0
   41.1803   36.3067   39.6212 H   0  0  0  0  0  0  0  0  0  0  0  0
   39.4272   34.2933   41.5627 H   0  0  0  0  0  0  0  0  0  0  0  0
   37.4163   33.2729   40.0742 H   0  0  0  0  0  0  0  0  0  0  0  0
   38.0675   33.5151   37.5038 H   0  0  0  0  0  0  0  0  0  0  0  0
  1  7  1  0
  1  2  2  0
  2  3  1  0
  4  3  2  0
  5  6  2  0
  5  4  1  0
  6  1  1  0
  7  8  1  0
  9  8  1  0
 10  9  1  0
 11 10  2  0
 12 11  1  0
 12 13  2  0
 13 14  1  0
 13  9  1  0
 15 16  1  0
 15 14  1  0
 16 14  1  0
 17  5  1  0
 18 17  1  0
 19 20  1  0
 19 18  1  0
 20 18  1  0
 21 20  1  0
 21 22  2  0
 23 22  1  0
 24 23  2  0
 25 24  1  0
 25 21  1  0
  2 26  1  0
  3 27  1  0
  7 28  1  0
  7 29  1  0
  8 30  1  0
  8 31  1  0
 10 32  1  0
 11 33  1  0
 14 34  1  0
 15 35  1  0
 15 36  1  0
 16 37  1  0
 16 38  1  0
 18 39  1  1
 19 40  1  0
 19 41  1  0
 20 42  1  1
 22 43  1  0
 23 44  1  0
 24 45  1  0
M  ISO  8  26  14  27  14  28   8  29   8  30   8  31   8  32  14  33  14
M  ISO  8  34  13  35  13  36  13  37  13  38  13  39  13  40  13  41  13
M  ISO  4  42  13  43  14  44  14  45  14
M  END
>  <minimizedAffinity>  (1) 
-5.78555679

>  <minimizedRMSD>  (1) 
6.67304325

$$$$
