
     RDKit          3D

 44 48  0  0  1  0  0  0  0  0999 V2000
   45.9880   34.6950   41.9770 C   0  0  0  0  0  0  0  0  0  0  0  0
   45.6420   34.6510   43.3790 C   0  0  0  0  0  0  0  0  0  0  0  0
   44.8570   35.6940   43.8540 C   0  0  0  0  0  0  0  0  0  0  0  0
   44.4400   35.7960   45.1630 C   0  0  0  0  0  0  0  0  0  0  0  0
   44.8390   34.8130   45.9890 N   0  0  0  0  0  0  0  0  0  0  0  0
   45.6180   33.7760   45.5230 C   0  0  0  0  0  0  0  0  0  0  0  0
   46.0150   33.7060   44.2130 N   0  0  0  0  0  0  0  0  0  0  0  0
   45.9560   32.8360   46.4700 O   0  0  0  0  0  0  0  0  0  0  0  0
   45.2030   32.7890   47.6720 C   0  0  2  0  0  0  0  0  0  0  0  0
   45.9930   32.3230   48.8650 C   0  0  0  0  0  0  0  0  0  0  0  0
   44.9100   31.4730   48.2900 C   0  0  2  0  0  0  0  0  0  0  0  0
   45.4070   30.2410   47.6950 N   0  0  0  0  0  0  0  0  0  0  0  0
   44.7240   29.3630   46.9340 C   0  0  0  0  0  0  0  0  0  0  0  0
   45.5420   28.3390   46.5700 N   0  0  0  0  0  0  0  0  0  0  0  0
   46.7490   28.5980   47.1190 C   0  0  0  0  0  0  0  0  0  0  0  0
   46.6290   29.7380   47.7810 N   0  0  0  0  0  0  0  0  0  0  0  0
   47.4630   34.8130   41.7580 C   0  0  0  0  0  0  0  0  0  0  0  0
   47.9440   34.0120   40.6960 N   0  0  0  0  0  0  0  0  0  0  0  0
   47.5760   33.9940   39.4080 C   0  0  0  0  0  0  0  0  0  0  0  0
   48.2860   33.0750   38.6830 C   0  0  0  0  0  0  0  0  0  0  0  0
   49.1290   32.5100   39.5970 N   0  0  0  0  0  0  0  0  0  0  0  0
   48.8960   33.0950   40.7950 C   0  0  0  0  0  0  0  0  0  0  0  0
   49.7010   32.6030   41.9420 C   0  0  0  0  0  0  0  0  0  0  0  0
   51.1050   32.1400   41.7750 C   0  0  0  0  0  0  0  0  0  0  0  0
   50.8430   33.4950   42.4020 C   0  0  0  0  0  0  0  0  0  0  0  0
   45.6320   33.7720   41.4960 H   0  0  0  0  0  0  0  0  0  0  0  0
   45.5116   35.5856   41.5414 H   0  0  0  0  0  0  0  0  0  0  0  0
   44.5522   36.4801   43.1475 H   0  0  0  0  0  0  0  0  0  0  0  0
   43.8170   36.6327   45.5120 H   0  0  0  0  0  0  0  0  0  0  0  0
   44.5699   33.6478   47.4045 H   0  0  0  0  0  0  0  0  0  0  0  0
   47.0464   32.0284   48.7485 H   0  0  0  0  0  0  0  0  0  0  0  0
   46.2203   32.7322   49.8604 H   0  0  0  0  0  0  0  0  0  0  0  0
   43.9647   31.0166   48.6189 H   0  0  0  0  0  0  0  0  0  0  0  0
   43.6656   29.4598   46.6503 H   0  0  0  0  0  0  0  0  0  0  0  0
   47.6557   27.9811   47.0326 H   0  0  0  0  0  0  0  0  0  0  0  0
   47.6984   35.8641   41.5349 H   0  0  0  0  0  0  0  0  0  0  0  0
   47.9546   34.4598   42.6765 H   0  0  0  0  0  0  0  0  0  0  0  0
   46.7951   34.6416   38.9829 H   0  0  0  0  0  0  0  0  0  0  0  0
   48.1978   32.8447   37.6110 H   0  0  0  0  0  0  0  0  0  0  0  0
   48.8123   32.1352   42.3907 H   0  0  0  0  0  0  0  0  0  0  0  0
   51.4869   31.3147   42.3939 H   0  0  0  0  0  0  0  0  0  0  0  0
   51.7059   31.7848   40.9249 H   0  0  0  0  0  0  0  0  0  0  0  0
   51.0829   34.4160   41.8504 H   0  0  0  0  0  0  0  0  0  0  0  0
   51.1214   33.9921   43.3429 H   0  0  0  0  0  0  0  0  0  0  0  0
  1  2  1  0
  2  3  2  0
  2  7  1  0
  3  4  1  0
  4  5  2  0
  6  5  1  0
  6  8  1  0
  7  6  2  0
  8  9  1  0
  9 11  1  0
  9 10  1  0
 11 10  1  0
 12 16  1  0
 12 11  1  0
 13 12  1  0
 14 13  2  0
 14 15  1  0
 15 16  2  0
 17  1  1  0
 18 22  1  0
 18 17  1  0
 19 18  1  0
 20 19  2  0
 20 21  1  0
 21 22  2  0
 22 23  1  0
 23 25  1  0
 24 23  1  0
 24 25  1  0
  1 26  1  0
  1 27  1  0
  3 28  1  0
  4 29  1  0
  9 30  1  1
 10 31  1  0
 10 32  1  0
 11 33  1  1
 13 34  1  0
 15 35  1  0
 17 36  1  0
 17 37  1  0
 19 38  1  0
 20 39  1  0
 23 40  1  0
 24 41  1  0
 24 42  1  0
 25 43  1  0
 25 44  1  0
M  ISO  8  26   8  27   8  28  14  29  14  30  13  31  13  32  13  33  13
M  ISO  8  34  14  35  14  36   8  37   8  38  14  39  14  40  13  41  13
M  ISO  3  42  13  43  13  44  13
M  END
>  <minimizedAffinity>  (1) 
-5.71281242

>  <minimizedRMSD>  (1) 
0.18821305

$$$$
