
     RDKit          3D

 45 49  0  0  1  0  0  0  0  0999 V2000
   45.6480   34.6520   43.3610 C   0  0  0  0  0  0  0  0  0  0  0  0
   44.8470   35.7010   43.8330 C   0  0  0  0  0  0  0  0  0  0  0  0
   44.4380   35.8060   45.1280 C   0  0  0  0  0  0  0  0  0  0  0  0
   44.8470   34.8340   45.9660 N   0  0  0  0  0  0  0  0  0  0  0  0
   45.6320   33.7990   45.5190 C   0  0  0  0  0  0  0  0  0  0  0  0
   46.0300   33.7160   44.2080 N   0  0  0  0  0  0  0  0  0  0  0  0
   45.9900   34.6800   41.9660 C   0  0  0  0  0  0  0  0  0  0  0  0
   47.4620   34.8110   41.7340 C   0  0  0  0  0  0  0  0  0  0  0  0
   47.9480   34.0090   40.6730 N   0  0  0  0  0  0  0  0  0  0  0  0
   47.5910   33.9880   39.3910 C   0  0  0  0  0  0  0  0  0  0  0  0
   48.3090   33.0700   38.6690 C   0  0  0  0  0  0  0  0  0  0  0  0
   49.1520   32.5080   39.5910 N   0  0  0  0  0  0  0  0  0  0  0  0
   48.9060   33.0990   40.7920 C   0  0  0  0  0  0  0  0  0  0  0  0
   49.6990   32.6030   41.9440 C   0  0  0  0  0  0  0  0  0  0  0  0
   51.1010   32.1340   41.7810 C   0  0  0  0  0  0  0  0  0  0  0  0
   50.8430   33.4930   42.3990 C   0  0  0  0  0  0  0  0  0  0  0  0
   45.9770   32.8710   46.4760 O   0  0  0  0  0  0  0  0  0  0  0  0
   45.2120   32.8170   47.6720 C   0  0  2  0  0  0  0  0  0  0  0  0
   45.9810   32.3370   48.8720 C   0  0  0  0  0  0  0  0  0  0  0  0
   44.9210   31.4860   48.2710 C   0  0  2  0  0  0  0  0  0  0  0  0
   45.2060   30.3570   47.4290 N   0  0  0  0  0  0  0  0  0  0  0  0
   45.4980   30.2440   46.1490 N   0  0  0  0  0  0  0  0  0  0  0  0
   45.6850   28.9440   45.8210 C   0  0  0  0  0  0  0  0  0  0  0  0
   45.5000   28.1930   46.9540 C   0  0  0  0  0  0  0  0  0  0  0  0
   45.2000   29.0990   47.9590 C   0  0  0  0  0  0  0  0  0  0  0  0
   44.5328   36.4789   43.1215 H   0  0  0  0  0  0  0  0  0  0  0  0
   43.8076   36.6397   45.4710 H   0  0  0  0  0  0  0  0  0  0  0  0
   45.6422   33.7464   41.4998 H   0  0  0  0  0  0  0  0  0  0  0  0
   45.5045   35.5620   41.5230 H   0  0  0  0  0  0  0  0  0  0  0  0
   47.6842   35.8633   41.5029 H   0  0  0  0  0  0  0  0  0  0  0  0
   47.9623   34.4660   42.6509 H   0  0  0  0  0  0  0  0  0  0  0  0
   46.8103   34.6325   38.9606 H   0  0  0  0  0  0  0  0  0  0  0  0
   48.2271   32.8382   37.5968 H   0  0  0  0  0  0  0  0  0  0  0  0
   48.8086   32.1393   42.3936 H   0  0  0  0  0  0  0  0  0  0  0  0
   51.4795   31.3112   42.4053 H   0  0  0  0  0  0  0  0  0  0  0  0
   51.7014   31.7714   40.9336 H   0  0  0  0  0  0  0  0  0  0  0  0
   51.0865   34.4097   41.8419 H   0  0  0  0  0  0  0  0  0  0  0  0
   51.1223   33.9949   43.3371 H   0  0  0  0  0  0  0  0  0  0  0  0
   44.5842   33.6809   47.4085 H   0  0  0  0  0  0  0  0  0  0  0  0
   47.0388   32.0529   48.7708 H   0  0  0  0  0  0  0  0  0  0  0  0
   46.1851   32.7344   49.8772 H   0  0  0  0  0  0  0  0  0  0  0  0
   44.0665   30.9602   48.7218 H   0  0  0  0  0  0  0  0  0  0  0  0
   45.9401   28.5582   44.8229 H   0  0  0  0  0  0  0  0  0  0  0  0
   45.5743   27.0994   47.0458 H   0  0  0  0  0  0  0  0  0  0  0  0
   44.9917   28.8464   49.0091 H   0  0  0  0  0  0  0  0  0  0  0  0
  1  2  2  0
  1  6  1  0
  2  3  1  0
  3  4  2  0
  5  4  1  0
  5 17  1  0
  6  5  2  0
  7  1  1  0
  8  7  1  0
  9 13  1  0
  9  8  1  0
 10  9  1  0
 11 10  2  0
 11 12  1  0
 12 13  2  0
 13 14  1  0
 14 16  1  0
 15 14  1  0
 15 16  1  0
 17 18  1  0
 18 20  1  0
 18 19  1  0
 20 19  1  0
 21 25  1  0
 21 20  1  0
 22 21  1  0
 23 22  2  0
 23 24  1  0
 24 25  2  0
  2 26  1  0
  3 27  1  0
  7 28  1  0
  7 29  1  0
  8 30  1  0
  8 31  1  0
 10 32  1  0
 11 33  1  0
 14 34  1  0
 15 35  1  0
 15 36  1  0
 16 37  1  0
 16 38  1  0
 18 39  1  1
 19 40  1  0
 19 41  1  0
 20 42  1  1
 23 43  1  0
 24 44  1  0
 25 45  1  0
M  ISO  8  26  14  27  14  28   8  29   8  30   8  31   8  32  14  33  14
M  ISO  8  34  13  35  13  36  13  37  13  38  13  39  13  40  13  41  13
M  ISO  4  42  13  43  14  44  14  45  14
M  END
>  <minimizedAffinity>  (1) 
-5.70726919

>  <minimizedRMSD>  (1) 
0.329590321

$$$$
