
     RDKit          3D

 48 52  0  0  1  0  0  0  0  0999 V2000
   45.9220   34.7070   43.5040 C   0  0  0  0  0  0  0  0  0  0  0  0
   44.9540   35.4880   44.1530 C   0  0  0  0  0  0  0  0  0  0  0  0
   44.5810   35.2950   45.4440 C   0  0  0  0  0  0  0  0  0  0  0  0
   45.1960   34.2900   46.1030 N   0  0  0  0  0  0  0  0  0  0  0  0
   46.1460   33.5130   45.4860 C   0  0  0  0  0  0  0  0  0  0  0  0
   46.5040   33.7300   44.1820 N   0  0  0  0  0  0  0  0  0  0  0  0
   46.2040   35.0320   42.1350 C   0  0  0  0  0  0  0  0  0  0  0  0
   47.6660   35.0300   41.8240 C   0  0  0  0  0  0  0  0  0  0  0  0
   48.0240   34.1520   40.7750 N   0  0  0  0  0  0  0  0  0  0  0  0
   47.5970   34.1210   39.5140 C   0  0  0  0  0  0  0  0  0  0  0  0
   48.1960   33.1100   38.7940 C   0  0  0  0  0  0  0  0  0  0  0  0
   49.0290   32.5100   39.6930 N   0  0  0  0  0  0  0  0  0  0  0  0
   48.9040   33.1600   40.8810 C   0  0  0  0  0  0  0  0  0  0  0  0
   49.7140   32.6420   42.0020 C   0  0  0  0  0  0  0  0  0  0  0  0
   51.0850   32.1040   41.7890 C   0  0  0  0  0  0  0  0  0  0  0  0
   50.9200   33.4750   42.4080 C   0  0  0  0  0  0  0  0  0  0  0  0
   46.6880   32.5240   46.2740 O   0  0  0  0  0  0  0  0  0  0  0  0
   45.8220   31.5390   46.8180 C   0  0  2  0  0  0  0  0  0  0  0  0
   46.1650   31.0990   48.2080 C   0  0  0  0  0  0  0  0  0  0  0  0
   46.3570   30.1710   47.0580 C   0  0  1  0  0  0  0  0  0  0  0  0
   45.3800   29.0720   46.8400 C   0  0  0  0  0  0  0  0  0  0  0  0
   45.3670   28.0470   47.7710 C   0  0  0  0  0  0  0  0  0  0  0  0
   44.4620   27.0260   47.5720 C   0  0  0  0  0  0  0  0  0  0  0  0
   43.6180   27.0730   46.4600 C   0  0  0  0  0  0  0  0  0  0  0  0
   43.6420   28.0980   45.5440 C   0  0  0  0  0  0  0  0  0  0  0  0
   44.5490   29.1240   45.7390 C   0  0  0  0  0  0  0  0  0  0  0  0
   44.4723   36.2986   43.5865 H   0  0  0  0  0  0  0  0  0  0  0  0
   43.8186   35.9237   45.9271 H   0  0  0  0  0  0  0  0  0  0  0  0
   45.7072   34.2926   41.4896 H   0  0  0  0  0  0  0  0  0  0  0  0
   45.8304   36.0508   41.9548 H   0  0  0  0  0  0  0  0  0  0  0  0
   47.9615   36.0504   41.5386 H   0  0  0  0  0  0  0  0  0  0  0  0
   48.1858   34.6791   42.7277 H   0  0  0  0  0  0  0  0  0  0  0  0
   46.8554   34.8184   39.0972 H   0  0  0  0  0  0  0  0  0  0  0  0
   48.0388   32.8471   37.7375 H   0  0  0  0  0  0  0  0  0  0  0  0
   48.8185   32.2296   42.4899 H   0  0  0  0  0  0  0  0  0  0  0  0
   51.4458   31.2658   42.4032 H   0  0  0  0  0  0  0  0  0  0  0  0
   51.6338   31.7091   40.9213 H   0  0  0  0  0  0  0  0  0  0  0  0
   51.1879   34.3761   41.8368 H   0  0  0  0  0  0  0  0  0  0  0  0
   51.2604   33.9655   43.3319 H   0  0  0  0  0  0  0  0  0  0  0  0
   44.9341   31.9237   46.2948 H   0  0  0  0  0  0  0  0  0  0  0  0
   47.0383   31.5275   48.7216 H   0  0  0  0  0  0  0  0  0  0  0  0
   45.6261   31.0519   49.1658 H   0  0  0  0  0  0  0  0  0  0  0  0
   47.2121   29.5719   46.7118 H   0  0  0  0  0  0  0  0  0  0  0  0
   46.0501   28.0473   48.6332 H   0  0  0  0  0  0  0  0  0  0  0  0
   44.4054   26.1856   48.2795 H   0  0  0  0  0  0  0  0  0  0  0  0
   42.9012   26.2522   46.3103 H   0  0  0  0  0  0  0  0  0  0  0  0
   42.9598   28.1021   44.6811 H   0  0  0  0  0  0  0  0  0  0  0  0
   44.6069   29.9641   45.0313 H   0  0  0  0  0  0  0  0  0  0  0  0
  1  2  2  0
  1  6  1  0
  2  3  1  0
  3  4  2  0
  5  4  1  0
  5 17  1  0
  6  5  2  0
  7  1  1  0
  8  7  1  0
  9 13  1  0
  9  8  1  0
 10  9  1  0
 11 10  2  0
 11 12  1  0
 12 13  2  0
 13 14  1  0
 14 16  1  0
 15 14  1  0
 15 16  1  0
 17 18  1  0
 18 20  1  0
 18 19  1  0
 20 19  1  0
 21 20  1  0
 21 22  2  0
 23 22  1  0
 24 23  2  0
 25 26  2  0
 25 24  1  0
 26 21  1  0
  2 27  1  0
  3 28  1  0
  7 29  1  0
  7 30  1  0
  8 31  1  0
  8 32  1  0
 10 33  1  0
 11 34  1  0
 14 35  1  0
 15 36  1  0
 15 37  1  0
 16 38  1  0
 16 39  1  0
 18 40  1  1
 19 41  1  0
 19 42  1  0
 20 43  1  6
 22 44  1  0
 23 45  1  0
 24 46  1  0
 25 47  1  0
 26 48  1  0
M  ISO  8  27  14  28  14  29   8  30   8  31   8  32   8  33  14  34  14
M  ISO  8  35  13  36  13  37  13  38  13  39  13  40  13  41  13  42  13
M  ISO  6  43  13  44  14  45  14  46  14  47  14  48  14
M  END
>  <minimizedAffinity>  (1) 
-5.63430691

>  <minimizedRMSD>  (1) 
2.68502402

$$$$
