
     RDKit          3D

 47 50  0  0  1  0  0  0  0  0999 V2000
   46.3310   35.1180   41.8510 C   0  0  0  0  0  0  0  0  0  0  0  0
   46.0960   34.7280   43.2180 C   0  0  0  0  0  0  0  0  0  0  0  0
   45.0700   35.4080   43.8860 C   0  0  0  0  0  0  0  0  0  0  0  0
   44.7180   35.1540   45.1890 C   0  0  0  0  0  0  0  0  0  0  0  0
   45.4240   34.1940   45.8160 N   0  0  0  0  0  0  0  0  0  0  0  0
   46.4360   33.5210   45.1640 C   0  0  0  0  0  0  0  0  0  0  0  0
   46.7570   33.8020   43.8660 N   0  0  0  0  0  0  0  0  0  0  0  0
   47.0710   32.5660   45.9250 O   0  0  0  0  0  0  0  0  0  0  0  0
   46.5960   32.3180   47.2400 C   0  0  2  0  0  0  0  0  0  0  0  0
   47.6930   32.2320   48.2700 C   0  0  0  0  0  0  0  0  0  0  0  0
   46.9200   31.0180   47.8830 C   0  0  1  0  0  0  0  0  0  0  0  0
   46.0110   30.3410   48.8600 C   0  0  0  0  0  0  0  0  0  0  0  0
   45.1130   31.4040   49.5010 C   0  0  0  0  0  0  0  0  0  0  0  0
   45.0360   29.3980   48.1440 C   0  0  0  0  0  0  0  0  0  0  0  0
   47.7860   35.1430   41.5040 C   0  0  0  0  0  0  0  0  0  0  0  0
   48.1540   34.1860   40.5250 N   0  0  0  0  0  0  0  0  0  0  0  0
   47.8070   34.1090   39.2400 C   0  0  0  0  0  0  0  0  0  0  0  0
   48.3780   33.0370   38.6110 C   0  0  0  0  0  0  0  0  0  0  0  0
   49.1170   32.4350   39.5950 N   0  0  0  0  0  0  0  0  0  0  0  0
   48.9580   33.1550   40.7350 C   0  0  0  0  0  0  0  0  0  0  0  0
   49.6590   32.6480   41.9410 C   0  0  0  0  0  0  0  0  0  0  0  0
   51.0160   32.0420   41.8660 C   0  0  0  0  0  0  0  0  0  0  0  0
   50.8670   33.4550   42.3960 C   0  0  0  0  0  0  0  0  0  0  0  0
   45.8225   34.4028   41.1878 H   0  0  0  0  0  0  0  0  0  0  0  0
   45.9394   36.1379   41.7225 H   0  0  0  0  0  0  0  0  0  0  0  0
   44.5174   36.1859   43.3387 H   0  0  0  0  0  0  0  0  0  0  0  0
   43.9072   35.7024   45.6908 H   0  0  0  0  0  0  0  0  0  0  0  0
   45.6568   32.8734   47.1006 H   0  0  0  0  0  0  0  0  0  0  0  0
   48.7449   32.3364   47.9655 H   0  0  0  0  0  0  0  0  0  0  0  0
   47.9181   32.7459   49.2161 H   0  0  0  0  0  0  0  0  0  0  0  0
   47.1678   30.0188   47.4954 H   0  0  0  0  0  0  0  0  0  0  0  0
   46.6407   29.7963   49.5789 H   0  0  0  0  0  0  0  0  0  0  0  0
   45.1781   31.3269   50.5964 H   0  0  0  0  0  0  0  0  0  0  0  0
   45.4442   32.4037   49.1834 H   0  0  0  0  0  0  0  0  0  0  0  0
   44.0720   31.2445   49.1834 H   0  0  0  0  0  0  0  0  0  0  0  0
   44.4549   28.8360   48.8900 H   0  0  0  0  0  0  0  0  0  0  0  0
   44.3525   29.9864   47.5143 H   0  0  0  0  0  0  0  0  0  0  0  0
   45.6013   28.6953   47.5143 H   0  0  0  0  0  0  0  0  0  0  0  0
   48.0350   36.1441   41.1221 H   0  0  0  0  0  0  0  0  0  0  0  0
   48.3400   34.8945   42.4213 H   0  0  0  0  0  0  0  0  0  0  0  0
   47.1376   34.8261   38.7423 H   0  0  0  0  0  0  0  0  0  0  0  0
   48.2692   32.7299   37.5603 H   0  0  0  0  0  0  0  0  0  0  0  0
   48.7127   32.2916   42.3739 H   0  0  0  0  0  0  0  0  0  0  0  0
   51.2900   31.2262   42.5512 H   0  0  0  0  0  0  0  0  0  0  0  0
   51.6106   31.5752   41.0669 H   0  0  0  0  0  0  0  0  0  0  0  0
   51.2183   34.3100   41.7997 H   0  0  0  0  0  0  0  0  0  0  0  0
   51.1574   33.9839   43.3157 H   0  0  0  0  0  0  0  0  0  0  0  0
  1  2  1  0
  2  7  1  0
  2  3  2  0
  3  4  1  0
  4  5  2  0
  6  5  1  0
  6  8  1  0
  7  6  2  0
  8  9  1  0
  9 11  1  0
  9 10  1  0
 11 10  1  0
 11 12  1  0
 12 13  1  0
 14 12  1  0
 15  1  1  0
 16 20  1  0
 16 15  1  0
 17 16  1  0
 18 17  2  0
 18 19  1  0
 19 20  2  0
 20 21  1  0
 21 23  1  0
 22 21  1  0
 22 23  1  0
  1 24  1  0
  1 25  1  0
  3 26  1  0
  4 27  1  0
  9 28  1  1
 10 29  1  0
 10 30  1  0
 11 31  1  6
 12 32  1  0
 13 33  1  0
 13 34  1  0
 13 35  1  0
 14 36  1  0
 14 37  1  0
 14 38  1  0
 15 39  1  0
 15 40  1  0
 17 41  1  0
 18 42  1  0
 21 43  1  0
 22 44  1  0
 22 45  1  0
 23 46  1  0
 23 47  1  0
M  ISO  8  24   8  25   8  26  14  27  14  28  13  29  13  30  13  31  13
M  ISO  8  32   8  33   8  34   8  35   8  36   8  37   8  38   8  39   8
M  ISO  8  40   8  41  14  42  14  43  13  44  13  45  13  46  13  47  13
M  END
>  <minimizedAffinity>  (1) 
-5.51819897

>  <minimizedRMSD>  (1) 
1.23986244

$$$$
