
     RDKit          3D

 33 36  0  0  0  0  0  0  0  0999 V2000
   45.1120   35.0040   43.2610 C   0  0  0  0  0  0  0  0  0  0  0  0
   44.0840   35.9130   43.7770 C   0  0  0  0  0  0  0  0  0  0  0  0
   45.3940   36.4310   43.4940 C   0  0  0  0  0  0  0  0  0  0  0  0
   45.1380   34.2810   41.9810 C   0  0  0  0  0  0  0  0  0  0  0  0
   44.0770   33.4780   41.5120 C   0  0  0  0  0  0  0  0  0  0  0  0
   44.0100   32.7640   40.3450 C   0  0  0  0  0  0  0  0  0  0  0  0
   45.0800   32.8000   39.4900 C   0  0  0  0  0  0  0  0  0  0  0  0
   46.1590   33.5460   39.8450 C   0  0  0  0  0  0  0  0  0  0  0  0
   47.2180   33.5640   38.9650 C   0  0  0  0  0  0  0  0  0  0  0  0
   48.3500   34.2980   39.2490 C   0  0  0  0  0  0  0  0  0  0  0  0
   48.3750   35.0100   40.4500 C   0  0  0  0  0  0  0  0  0  0  0  0
   47.2990   34.9440   41.2630 C   0  0  0  0  0  0  0  0  0  0  0  0
   46.1420   34.2320   41.0370 C   0  0  0  0  0  0  0  0  0  0  0  0
   45.6760   34.0380   44.2640 C   0  0  0  0  0  0  0  0  0  0  0  0
   45.2370   34.1230   45.6190 C   0  0  0  0  0  0  0  0  0  0  0  0
   45.8330   33.2750   46.5500 C   0  0  0  0  0  0  0  0  0  0  0  0
   46.7960   32.4080   46.1410 N   0  0  0  0  0  0  0  0  0  0  0  0
   47.1890   32.3480   44.8570 C   0  0  0  0  0  0  0  0  0  0  0  0
   46.6400   33.1440   43.9450 N   0  0  0  0  0  0  0  0  0  0  0  0
   43.2339   36.1964   43.1390 H   0  0  0  0  0  0  0  0  0  0  0  0
   43.4273   35.9145   44.6595 H   0  0  0  0  0  0  0  0  0  0  0  0
   46.0552   36.7318   44.3200 H   0  0  0  0  0  0  0  0  0  0  0  0
   45.7854   37.2542   42.8782 H   0  0  0  0  0  0  0  0  0  0  0  0
   43.1937   33.4178   42.1647 H   0  0  0  0  0  0  0  0  0  0  0  0
   43.1151   32.1735   40.0992 H   0  0  0  0  0  0  0  0  0  0  0  0
   45.0661   32.2408   38.5429 H   0  0  0  0  0  0  0  0  0  0  0  0
   47.1604   32.9889   38.0291 H   0  0  0  0  0  0  0  0  0  0  0  0
   49.2027   34.3219   38.5545 H   0  0  0  0  0  0  0  0  0  0  0  0
   49.2528   35.6119   40.7279 H   0  0  0  0  0  0  0  0  0  0  0  0
   47.3519   35.5168   42.2006 H   0  0  0  0  0  0  0  0  0  0  0  0
   44.4537   34.8347   45.9187 H   0  0  0  0  0  0  0  0  0  0  0  0
   45.5269   33.3070   47.6061 H   0  0  0  0  0  0  0  0  0  0  0  0
   47.9712   31.6345   44.5586 H   0  0  0  0  0  0  0  0  0  0  0  0
  1  3  1  0
  1  2  1  0
  1 14  1  0
  3  2  1  0
  4  1  1  0
  5  4  2  0
  6  5  1  0
  7  8  1  0
  7  6  2  0
  8 13  2  0
  9 10  2  0
  9  8  1  0
 10 11  1  0
 11 12  2  0
 13 12  1  0
 13  4  1  0
 14 15  2  0
 15 16  1  0
 17 16  2  0
 18 17  1  0
 19 14  1  0
 19 18  2  0
  2 20  1  0
  2 21  1  0
  3 22  1  0
  3 23  1  0
  5 24  1  0
  6 25  1  0
  7 26  1  0
  9 27  1  0
 10 28  1  0
 11 29  1  0
 12 30  1  0
 15 31  1  0
 16 32  1  0
 18 33  1  0
M  ISO  8  20  13  21  13  22  13  23  13  24  14  25  14  26  14  27  14
M  ISO  6  28  14  29  14  30  14  31  14  32  14  33  14
M  END
>  <minimizedAffinity>  (1) 
-5.07552195

>  <minimizedRMSD>  (1) 
4.36810923

$$$$
