
     RDKit          3D

 28 31  0  0  0  0  0  0  0  0999 V2000
   44.9270   34.7180   42.2890 C   0  0  0  0  0  0  0  0  0  0  0  0
   43.8200   35.5500   41.7310 C   0  0  0  0  0  0  0  0  0  0  0  0
   43.7630   34.0900   41.6350 C   0  0  0  0  0  0  0  0  0  0  0  0
   44.9950   34.5630   43.7510 N   0  0  0  0  0  0  0  0  0  0  0  0
   44.5480   35.5250   44.5730 C   0  0  0  0  0  0  0  0  0  0  0  0
   44.7090   35.1730   45.8620 N   0  0  0  0  0  0  0  0  0  0  0  0
   45.2730   33.9540   45.8720 C   0  0  0  0  0  0  0  0  0  0  0  0
   45.6900   33.0490   46.8370 C   0  0  0  0  0  0  0  0  0  0  0  0
   46.2310   31.8800   46.4510 N   0  0  0  0  0  0  0  0  0  0  0  0
   46.3860   31.5520   45.1480 C   0  0  0  0  0  0  0  0  0  0  0  0
   45.9880   32.4150   44.1670 N   0  0  0  0  0  0  0  0  0  0  0  0
   45.4370   33.6060   44.5510 C   0  0  0  0  0  0  0  0  0  0  0  0
   46.2630   34.7430   41.6350 C   0  0  0  0  0  0  0  0  0  0  0  0
   46.4000   34.0140   40.4370 C   0  0  0  0  0  0  0  0  0  0  0  0
   47.6560   34.0160   39.8020 C   0  0  0  0  0  0  0  0  0  0  0  0
   48.6710   34.7270   40.3870 N   0  0  0  0  0  0  0  0  0  0  0  0
   48.4820   35.4070   41.5360 C   0  0  0  0  0  0  0  0  0  0  0  0
   47.2970   35.4160   42.1530 N   0  0  0  0  0  0  0  0  0  0  0  0
   43.1376   36.0841   42.4085 H   0  0  0  0  0  0  0  0  0  0  0  0
   43.7561   36.3807   41.0128 H   0  0  0  0  0  0  0  0  0  0  0  0
   43.0328   33.5302   42.2379 H   0  0  0  0  0  0  0  0  0  0  0  0
   43.6347   33.3755   40.8086 H   0  0  0  0  0  0  0  0  0  0  0  0
   44.1081   36.4757   44.2375 H   0  0  0  0  0  0  0  0  0  0  0  0
   45.5794   33.2849   47.9057 H   0  0  0  0  0  0  0  0  0  0  0  0
   46.8350   30.5851   44.8769 H   0  0  0  0  0  0  0  0  0  0  0  0
   45.5507   33.4599   40.0108 H   0  0  0  0  0  0  0  0  0  0  0  0
   47.8180   33.4637   38.8646 H   0  0  0  0  0  0  0  0  0  0  0  0
   49.3215   35.9663   41.9747 H   0  0  0  0  0  0  0  0  0  0  0  0
  1  4  1  0
  2  1  1  0
  3  2  1  0
  3  1  1  0
  4 12  1  0
  4  5  1  0
  5  6  2  0
  6  7  1  0
  7  8  2  0
  9  8  1  0
 10  9  2  0
 11 12  2  0
 11 10  1  0
 12  7  1  0
 13 18  1  0
 13  1  1  0
 14 13  2  0
 15 16  2  0
 15 14  1  0
 16 17  1  0
 17 18  2  0
  2 19  1  0
  2 20  1  0
  3 21  1  0
  3 22  1  0
  5 23  1  0
  8 24  1  0
 10 25  1  0
 14 26  1  0
 15 27  1  0
 17 28  1  0
M  ISO  8  19  13  20  13  21  13  22  13  23  14  24  14  25  14  26  14
M  ISO  2  27  14  28  14
M  END
>  <minimizedAffinity>  (1) 
-5.064363

>  <minimizedRMSD>  (1) 
4.3310914

$$$$
