
     RDKit          3D

 30 32  0  0  0  0  0  0  0  0999 V2000
   44.7270   35.0120   43.0860 C   0  0  0  0  0  0  0  0  0  0  0  0
   44.2710   35.9030   44.2160 C   0  0  0  0  0  0  0  0  0  0  0  0
   45.3830   36.3080   43.3400 C   0  0  0  0  0  0  0  0  0  0  0  0
   43.9000   34.9480   41.8890 N   0  0  0  0  0  0  0  0  0  0  0  0
   42.5800   35.2150   41.8900 C   0  0  0  0  0  0  0  0  0  0  0  0
   41.8000   35.1460   40.7430 C   0  0  0  0  0  0  0  0  0  0  0  0
   40.3380   35.4590   40.8480 C   0  0  0  0  0  0  0  0  0  0  0  0
   42.3840   34.7900   39.5330 C   0  0  0  0  0  0  0  0  0  0  0  0
   41.5900   34.7590   38.5610 O   0  0  0  0  0  0  0  0  0  0  0  0
   43.6840   34.5350   39.5690 N   0  0  0  0  0  0  0  0  0  0  0  0
   44.4110   34.6100   40.6970 C   0  0  0  0  0  0  0  0  0  0  0  0
   45.6290   34.3370   40.5530 O   0  0  0  0  0  0  0  0  0  0  0  0
   45.3870   33.7280   43.4340 C   0  0  0  0  0  0  0  0  0  0  0  0
   46.7310   33.7990   43.8320 C   0  0  0  0  0  0  0  0  0  0  0  0
   47.4040   32.6070   44.1690 C   0  0  0  0  0  0  0  0  0  0  0  0
   46.6990   31.4380   44.0880 N   0  0  0  0  0  0  0  0  0  0  0  0
   45.3950   31.4260   43.6960 C   0  0  0  0  0  0  0  0  0  0  0  0
   44.7490   32.5530   43.3730 N   0  0  0  0  0  0  0  0  0  0  0  0
   43.3026   36.4211   44.1542 H   0  0  0  0  0  0  0  0  0  0  0  0
   44.1339   35.7822   45.3007 H   0  0  0  0  0  0  0  0  0  0  0  0
   46.4088   36.3317   43.7364 H   0  0  0  0  0  0  0  0  0  0  0  0
   45.5928   37.1962   42.7259 H   0  0  0  0  0  0  0  0  0  0  0  0
   42.1000   35.4994   42.8380 H   0  0  0  0  0  0  0  0  0  0  0  0
   40.0514   35.5204   41.9082 H   0  0  0  0  0  0  0  0  0  0  0  0
   40.1328   36.4214   40.3564 H   0  0  0  0  0  0  0  0  0  0  0  0
   39.7568   34.6649   40.3564 H   0  0  0  0  0  0  0  0  0  0  0  0
   44.1579   34.2677   38.6944 H   0  0  0  0  0  0  0  0  0  0  0  0
   47.2501   34.7676   43.8801 H   0  0  0  0  0  0  0  0  0  0  0  0
   48.4574   32.6168   44.4855 H   0  0  0  0  0  0  0  0  0  0  0  0
   44.8594   30.4667   43.6435 H   0  0  0  0  0  0  0  0  0  0  0  0
  1  3  1  0
  1 13  1  0
  1  2  1  0
  3  2  1  0
  4  5  1  0
  4  1  1  0
  6  7  1  0
  6  5  2  0
  8 10  1  0
  8  6  1  0
  9  8  2  0
 10 11  1  0
 11  4  1  0
 12 11  2  0
 13 14  2  0
 14 15  1  0
 16 15  2  0
 17 16  1  0
 18 13  1  0
 18 17  2  0
  2 19  1  0
  2 20  1  0
  3 21  1  0
  3 22  1  0
  5 23  1  0
  7 24  1  0
  7 25  1  0
  7 26  1  0
 10 27  1  0
 14 28  1  0
 15 29  1  0
 17 30  1  0
M  ISO  8  19  13  20  13  21  13  22  13  23  14  24   8  25   8  26   8
M  ISO  4  27   9  28  14  29  14  30  14
M  END
>  <minimizedAffinity>  (1) 
-4.85405397

>  <minimizedRMSD>  (1) 
2.63835669

$$$$
