
     RDKit          3D

 24 25  0  0  0  0  0  0  0  0999 V2000
   44.8840   34.6450   42.9740 C   0  0  0  0  0  0  0  0  0  0  0  0
   46.2170   34.8920   42.2820 C   0  0  0  0  0  0  0  0  0  0  0  0
   45.4980   35.9760   42.9660 C   0  0  0  0  0  0  0  0  0  0  0  0
   43.7030   34.3670   42.0830 C   0  0  0  0  0  0  0  0  0  0  0  0
   42.9940   35.4670   41.5150 C   0  0  0  0  0  0  0  0  0  0  0  0
   41.9150   35.1660   40.7000 C   0  0  0  0  0  0  0  0  0  0  0  0
   41.6020   33.8710   40.4920 N   0  0  0  0  0  0  0  0  0  0  0  0
   42.2930   32.8580   41.0430 C   0  0  0  0  0  0  0  0  0  0  0  0
   43.3360   33.0950   41.8330 N   0  0  0  0  0  0  0  0  0  0  0  0
   44.9140   33.8680   44.1980 N   0  0  0  0  0  0  0  0  0  0  0  0
   45.0640   34.3460   45.5290 C   0  0  0  0  0  0  0  0  0  0  0  0
   44.2870   35.3670   45.7640 N   0  0  0  0  0  0  0  0  0  0  0  0
   46.0070   33.6660   46.3840 N   0  0  0  0  0  0  0  0  0  0  0  0
   44.3520   35.7580   46.7160 H   0  0  0  0  0  0  0  0  0  0  0  0
   46.2820   34.8772   41.1840 H   0  0  0  0  0  0  0  0  0  0  0  0
   47.2259   34.4579   42.3423 H   0  0  0  0  0  0  0  0  0  0  0  0
   45.9040   36.3924   43.8997 H   0  0  0  0  0  0  0  0  0  0  0  0
   45.1518   36.9742   42.6597 H   0  0  0  0  0  0  0  0  0  0  0  0
   43.2907   36.5071   41.7152 H   0  0  0  0  0  0  0  0  0  0  0  0
   41.3251   35.9677   40.2317 H   0  0  0  0  0  0  0  0  0  0  0  0
   41.9918   31.8201   40.8378 H   0  0  0  0  0  0  0  0  0  0  0  0
   44.8149   32.8484   44.0906 H   0  0  0  0  0  0  0  0  0  0  0  0
   46.1436   33.9828   47.3545 H   0  0  0  0  0  0  0  0  0  0  0  0
   46.5434   32.8639   46.0237 H   0  0  0  0  0  0  0  0  0  0  0  0
  1 10  1  0
  2  3  1  0
  2  1  1  0
  3  1  1  0
  4  1  1  0
  5  4  2  0
  6  5  1  0
  7  6  2  0
  7  8  1  0
  8  9  2  0
  9  4  1  0
 10 11  1  0
 11 12  2  0
 11 13  1  0
 12 14  1  0
  2 15  1  0
  2 16  1  0
  3 17  1  0
  3 18  1  0
  5 19  1  0
  6 20  1  0
  8 21  1  0
 10 22  1  0
 13 23  1  0
 13 24  1  0
M  ISO  7  15  13  16  13  17  13  18  13  19  14  20  14  21  14
M  END
>  <minimizedAffinity>  (1) 
-4.54736662

>  <minimizedRMSD>  (1) 
4.67025995

$$$$
