
     RDKit          3D

 25 27  0  0  0  0  0  0  0  0999 V2000
   45.1740   35.2240   43.0520 C   0  0  0  0  0  0  0  0  0  0  0  0
   45.1450   36.6590   43.4610 C   0  0  0  0  0  0  0  0  0  0  0  0
   44.7080   35.6130   44.3950 C   0  0  0  0  0  0  0  0  0  0  0  0
   44.2160   34.7270   42.0190 C   0  0  0  0  0  0  0  0  0  0  0  0
   43.9270   33.3560   41.9880 C   0  0  0  0  0  0  0  0  0  0  0  0
   43.0390   32.9110   41.0170 C   0  0  0  0  0  0  0  0  0  0  0  0
   42.4940   33.8040   40.1480 N   0  0  0  0  0  0  0  0  0  0  0  0
   42.8000   35.1190   40.2130 C   0  0  0  0  0  0  0  0  0  0  0  0
   43.6620   35.5670   41.1530 N   0  0  0  0  0  0  0  0  0  0  0  0
   46.5520   34.7110   42.8030 C   0  0  0  0  0  0  0  0  0  0  0  0
   46.9380   35.0850   41.5090 C   0  0  0  0  0  0  0  0  0  0  0  0
   48.1910   34.7380   40.9920 C   0  0  0  0  0  0  0  0  0  0  0  0
   49.0180   34.0300   41.7840 N   0  0  0  0  0  0  0  0  0  0  0  0
   48.5960   33.6940   43.0300 C   0  0  0  0  0  0  0  0  0  0  0  0
   47.3870   34.0130   43.5640 N   0  0  0  0  0  0  0  0  0  0  0  0
   46.0859   37.1997   43.6405 H   0  0  0  0  0  0  0  0  0  0  0  0
   44.6967   37.5770   43.0532 H   0  0  0  0  0  0  0  0  0  0  0  0
   43.6428   35.5198   44.6530 H   0  0  0  0  0  0  0  0  0  0  0  0
   44.9852   35.3289   45.4209 H   0  0  0  0  0  0  0  0  0  0  0  0
   44.3857   32.6592   42.7050 H   0  0  0  0  0  0  0  0  0  0  0  0
   42.7785   31.8443   40.9514 H   0  0  0  0  0  0  0  0  0  0  0  0
   42.3475   35.8247   39.5008 H   0  0  0  0  0  0  0  0  0  0  0  0
   46.2406   35.6641   40.8859 H   0  0  0  0  0  0  0  0  0  0  0  0
   48.4896   35.0330   39.9752 H   0  0  0  0  0  0  0  0  0  0  0  0
   49.2892   33.1163   43.6591 H   0  0  0  0  0  0  0  0  0  0  0  0
  1  2  1  0
  1  3  1  0
  2  3  1  0
  4  1  1  0
  5  4  2  0
  6  5  1  0
  7  8  1  0
  7  6  2  0
  8  9  2  0
  9  4  1  0
 10  1  1  0
 10 15  1  0
 11 10  2  0
 12 11  1  0
 12 13  2  0
 13 14  1  0
 14 15  2  0
  2 16  1  0
  2 17  1  0
  3 18  1  0
  3 19  1  0
  5 20  1  0
  6 21  1  0
  8 22  1  0
 11 23  1  0
 12 24  1  0
 14 25  1  0
M  ISO  8  16  13  17  13  18  13  19  13  20  14  21  14  22  14  23  14
M  ISO  2  24  14  25  14
M  END
>  <minimizedAffinity>  (1) 
-4.35688066

>  <minimizedRMSD>  (1) 
5.54317045

$$$$
