
     RDKit          3D

 30 32  0  0  0  0  0  0  0  0999 V2000
   45.1490   35.1390   43.1950 C   0  0  0  0  0  0  0  0  0  0  0  0
   44.7430   35.5260   44.5870 C   0  0  0  0  0  0  0  0  0  0  0  0
   44.9480   36.5670   43.5800 C   0  0  0  0  0  0  0  0  0  0  0  0
   46.5360   34.6190   42.9880 C   0  0  0  0  0  0  0  0  0  0  0  0
   47.3820   35.3840   42.1650 C   0  0  0  0  0  0  0  0  0  0  0  0
   48.6900   34.9330   41.9430 C   0  0  0  0  0  0  0  0  0  0  0  0
   49.0730   33.7670   42.5460 N   0  0  0  0  0  0  0  0  0  0  0  0
   48.2270   33.0700   43.3250 C   0  0  0  0  0  0  0  0  0  0  0  0
   46.9810   33.4780   43.5490 N   0  0  0  0  0  0  0  0  0  0  0  0
   44.1780   34.6550   42.1740 C   0  0  0  0  0  0  0  0  0  0  0  0
   43.5360   35.7310   41.3360 C   0  0  0  0  0  0  0  0  0  0  0  0
   42.9240   34.9160   40.2130 C   0  0  0  0  0  0  0  0  0  0  0  0
   43.8570   33.7790   39.9450 C   0  0  0  0  0  0  0  0  0  0  0  0
   44.7440   33.7250   41.1580 C   0  0  0  0  0  0  0  0  0  0  0  0
   43.7274   35.3012   44.9449 H   0  0  0  0  0  0  0  0  0  0  0  0
   45.1426   35.3316   45.5932 H   0  0  0  0  0  0  0  0  0  0  0  0
   45.8146   37.2400   43.6574 H   0  0  0  0  0  0  0  0  0  0  0  0
   44.3363   37.3931   43.1884 H   0  0  0  0  0  0  0  0  0  0  0  0
   47.0243   36.3170   41.7051 H   0  0  0  0  0  0  0  0  0  0  0  0
   49.3854   35.4980   41.3050 H   0  0  0  0  0  0  0  0  0  0  0  0
   48.5753   32.1360   43.7901 H   0  0  0  0  0  0  0  0  0  0  0  0
   43.4526   34.1592   42.8358 H   0  0  0  0  0  0  0  0  0  0  0  0
   42.7664   36.2757   41.9025 H   0  0  0  0  0  0  0  0  0  0  0  0
   44.2339   36.5101   40.9955 H   0  0  0  0  0  0  0  0  0  0  0  0
   41.9384   34.5334   40.5167 H   0  0  0  0  0  0  0  0  0  0  0  0
   42.7823   35.5306   39.3118 H   0  0  0  0  0  0  0  0  0  0  0  0
   43.2995   32.8378   39.8289 H   0  0  0  0  0  0  0  0  0  0  0  0
   44.4283   33.9173   39.0152 H   0  0  0  0  0  0  0  0  0  0  0  0
   44.7680   32.7011   41.5594 H   0  0  0  0  0  0  0  0  0  0  0  0
   45.7717   34.0180   40.8973 H   0  0  0  0  0  0  0  0  0  0  0  0
  1  3  1  0
  1  2  1  0
  3  2  1  0
  4  1  1  0
  4  9  1  0
  5  4  2  0
  6  5  1  0
  6  7  2  0
  7  8  1  0
  8  9  2  0
 10  1  1  0
 11 10  1  0
 12 11  1  0
 13 12  1  0
 13 14  1  0
 14 10  1  0
  2 15  1  0
  2 16  1  0
  3 17  1  0
  3 18  1  0
  5 19  1  0
  6 20  1  0
  8 21  1  0
 10 22  1  0
 11 23  1  0
 11 24  1  0
 12 25  1  0
 12 26  1  0
 13 27  1  0
 13 28  1  0
 14 29  1  0
 14 30  1  0
M  ISO  8  15  13  16  13  17  13  18  13  19  14  20  14  21  14  22  13
M  ISO  8  23  13  24  13  25  13  26  13  27  13  28  13  29  13  30  13
M  END
>  <minimizedAffinity>  (1) 
-4.24296856

>  <minimizedRMSD>  (1) 
2.63317895

$$$$
