
     RDKit          3D

 31 33  0  0  0  0  0  0  0  0999 V2000
   45.3710   35.0970   42.7920 C   0  0  0  0  0  0  0  0  0  0  0  0
   45.0260   36.3490   43.5780 C   0  0  0  0  0  0  0  0  0  0  0  0
   45.2220   35.0520   44.2530 C   0  0  0  0  0  0  0  0  0  0  0  0
   44.3480   34.5220   41.8930 C   0  0  0  0  0  0  0  0  0  0  0  0
   43.9850   33.1750   42.0490 C   0  0  0  0  0  0  0  0  0  0  0  0
   43.0240   32.6510   41.1600 C   0  0  0  0  0  0  0  0  0  0  0  0
   42.5020   33.4630   40.2110 N   0  0  0  0  0  0  0  0  0  0  0  0
   42.8850   34.7710   40.0980 C   0  0  0  0  0  0  0  0  0  0  0  0
   43.8150   35.2860   40.9530 N   0  0  0  0  0  0  0  0  0  0  0  0
   46.7210   35.0230   42.2500 N   0  0  0  0  0  0  0  0  0  0  0  0
   46.7650   34.4880   40.9340 C   0  0  0  0  0  0  0  0  0  0  0  0
   47.9370   33.5480   40.7700 C   0  0  0  0  0  0  0  0  0  0  0  0
   49.1090   34.2640   41.2330 N   0  0  0  0  0  0  0  0  0  0  0  0
   49.0320   34.3430   42.6830 C   0  0  0  0  0  0  0  0  0  0  0  0
   47.5910   34.2830   43.1590 C   0  0  0  0  0  0  0  0  0  0  0  0
   45.7693   37.1515   43.6947 H   0  0  0  0  0  0  0  0  0  0  0  0
   44.2252   37.1023   43.5425 H   0  0  0  0  0  0  0  0  0  0  0  0
   44.3592   34.5334   44.6963 H   0  0  0  0  0  0  0  0  0  0  0  0
   45.8634   34.7074   45.0776 H   0  0  0  0  0  0  0  0  0  0  0  0
   44.4338   32.5511   42.8359 H   0  0  0  0  0  0  0  0  0  0  0  0
   42.7043   31.6013   41.2363 H   0  0  0  0  0  0  0  0  0  0  0  0
   42.4431   35.4079   39.3176 H   0  0  0  0  0  0  0  0  0  0  0  0
   45.8327   33.9381   40.7380 H   0  0  0  0  0  0  0  0  0  0  0  0
   46.8797   35.3185   40.2219 H   0  0  0  0  0  0  0  0  0  0  0  0
   47.7834   32.6409   41.3730 H   0  0  0  0  0  0  0  0  0  0  0  0
   48.0513   33.2351   39.7217 H   0  0  0  0  0  0  0  0  0  0  0  0
   49.9621   33.7590   40.9536 H   0  0  0  0  0  0  0  0  0  0  0  0
   49.5894   33.5007   43.1186 H   0  0  0  0  0  0  0  0  0  0  0  0
   49.4659   35.3016   43.0038 H   0  0  0  0  0  0  0  0  0  0  0  0
   47.5232   34.7242   44.1643 H   0  0  0  0  0  0  0  0  0  0  0  0
   47.2680   33.2318   43.1836 H   0  0  0  0  0  0  0  0  0  0  0  0
  1  2  1  0
  1  3  1  0
  2  3  1  0
  4  5  2  0
  4  1  1  0
  6  5  1  0
  7  6  2  0
  8  7  1  0
  8  9  2  0
  9  4  1  0
 10  1  1  0
 10 15  1  0
 11 10  1  0
 12 11  1  0
 12 13  1  0
 13 14  1  0
 14 15  1  0
  2 16  1  0
  2 17  1  0
  3 18  1  0
  3 19  1  0
  5 20  1  0
  6 21  1  0
  8 22  1  0
 11 23  1  0
 11 24  1  0
 12 25  1  0
 12 26  1  0
 13 27  1  0
 14 28  1  0
 14 29  1  0
 15 30  1  0
 15 31  1  0
M  ISO  8  16  13  17  13  18  13  19  13  20  14  21  14  22  14  23  13
M  ISO  8  24  13  25  13  26  13  27   5  28  13  29  13  30  13  31  13
M  END
>  <minimizedAffinity>  (1) 
-4.22406483

>  <minimizedRMSD>  (1) 
5.38566303

$$$$
