
     RDKit          3D

 23 25  0  0  0  0  0  0  0  0999 V2000
   45.0770   35.3640   43.1400 C   0  0  0  0  0  0  0  0  0  0  0  0
   44.5660   35.7820   44.4750 C   0  0  0  0  0  0  0  0  0  0  0  0
   45.0480   36.7960   43.5380 C   0  0  0  0  0  0  0  0  0  0  0  0
   46.3860   34.6440   43.0490 C   0  0  0  0  0  0  0  0  0  0  0  0
   47.3290   35.1350   42.1320 C   0  0  0  0  0  0  0  0  0  0  0  0
   48.5590   34.4600   42.0390 C   0  0  0  0  0  0  0  0  0  0  0  0
   48.7690   33.3780   42.8330 N   0  0  0  0  0  0  0  0  0  0  0  0
   47.8240   32.9490   43.6990 C   0  0  0  0  0  0  0  0  0  0  0  0
   46.6480   33.5650   43.8120 N   0  0  0  0  0  0  0  0  0  0  0  0
   44.1280   34.9550   42.0970 N   0  0  0  0  0  0  0  0  0  0  0  0
   43.7030   33.7350   41.7890 C   0  0  0  0  0  0  0  0  0  0  0  0
   42.8320   33.7520   40.7680 N   0  0  0  0  0  0  0  0  0  0  0  0
   42.7230   35.0650   40.4360 C   0  0  0  0  0  0  0  0  0  0  0  0
   43.5180   35.7430   41.2610 N   0  0  0  0  0  0  0  0  0  0  0  0
   43.4916   35.7083   44.6989 H   0  0  0  0  0  0  0  0  0  0  0  0
   44.8031   35.5124   45.5148 H   0  0  0  0  0  0  0  0  0  0  0  0
   45.9893   37.3275   43.7418 H   0  0  0  0  0  0  0  0  0  0  0  0
   44.6222   37.7119   43.1023 H   0  0  0  0  0  0  0  0  0  0  0  0
   47.1135   36.0156   41.5090 H   0  0  0  0  0  0  0  0  0  0  0  0
   49.3350   34.8010   41.3379 H   0  0  0  0  0  0  0  0  0  0  0  0
   48.0310   32.0693   44.3261 H   0  0  0  0  0  0  0  0  0  0  0  0
   44.0260   32.8206   42.3082 H   0  0  0  0  0  0  0  0  0  0  0  0
   42.0965   35.4878   39.6368 H   0  0  0  0  0  0  0  0  0  0  0  0
  1  3  1  0
  1  2  1  0
  3  2  1  0
  4  1  1  0
  4  9  1  0
  5  4  2  0
  6  5  1  0
  6  7  2  0
  7  8  1  0
  8  9  2  0
 10  1  1  0
 11 10  1  0
 12 11  2  0
 13 12  1  0
 13 14  2  0
 14 10  1  0
  2 15  1  0
  2 16  1  0
  3 17  1  0
  3 18  1  0
  5 19  1  0
  6 20  1  0
  8 21  1  0
 11 22  1  0
 13 23  1  0
M  ISO  8  15  13  16  13  17  13  18  13  19  14  20  14  21  14  22  14
M  ISO  1  23  14
M  END
>  <minimizedAffinity>  (1) 
-4.04641342

>  <minimizedRMSD>  (1) 
2.47805738

$$$$
