
     RDKit          3D

 30 32  0  0  0  0  0  0  0  0999 V2000
   45.0010   35.1350   42.9990 C   0  0  0  0  0  0  0  0  0  0  0  0
   44.4390   35.7860   44.2520 C   0  0  0  0  0  0  0  0  0  0  0  0
   45.1770   36.5730   43.2510 C   0  0  0  0  0  0  0  0  0  0  0  0
   46.1210   34.1770   43.1660 C   0  0  0  0  0  0  0  0  0  0  0  0
   47.4090   34.6110   42.7490 C   0  0  0  0  0  0  0  0  0  0  0  0
   48.5050   33.7480   42.8790 C   0  0  0  0  0  0  0  0  0  0  0  0
   48.2680   32.5290   43.4070 N   0  0  0  0  0  0  0  0  0  0  0  0
   47.0250   32.1520   43.7950 C   0  0  0  0  0  0  0  0  0  0  0  0
   45.9760   32.9620   43.6750 N   0  0  0  0  0  0  0  0  0  0  0  0
   44.0540   34.6260   42.0350 N   0  0  0  0  0  0  0  0  0  0  0  0
   42.9160   35.4610   41.8040 C   0  0  0  0  0  0  0  0  0  0  0  0
   41.8520   34.5230   41.2380 C   0  0  0  0  0  0  0  0  0  0  0  0
   42.3200   34.1420   39.8610 C   0  0  0  0  0  0  0  0  0  0  0  0
   43.7570   33.8340   39.7350 C   0  0  0  0  0  0  0  0  0  0  0  0
   44.6770   34.1610   40.8260 C   0  0  0  0  0  0  0  0  0  0  0  0
   43.3530   35.9171   44.3677 H   0  0  0  0  0  0  0  0  0  0  0  0
   44.5287   35.6115   45.3344 H   0  0  0  0  0  0  0  0  0  0  0  0
   46.1757   36.9641   43.4952 H   0  0  0  0  0  0  0  0  0  0  0  0
   44.9514   37.4833   42.6761 H   0  0  0  0  0  0  0  0  0  0  0  0
   47.5442   35.6178   42.3270 H   0  0  0  0  0  0  0  0  0  0  0  0
   49.5146   34.0509   42.5644 H   0  0  0  0  0  0  0  0  0  0  0  0
   46.8794   31.1483   44.2210 H   0  0  0  0  0  0  0  0  0  0  0  0
   42.5713   35.9152   42.7447 H   0  0  0  0  0  0  0  0  0  0  0  0
   43.1429   36.2921   41.1201 H   0  0  0  0  0  0  0  0  0  0  0  0
   41.7574   33.6277   41.8701 H   0  0  0  0  0  0  0  0  0  0  0  0
   40.8652   35.0080   41.2066 H   0  0  0  0  0  0  0  0  0  0  0  0
   41.7550   33.2521   39.5465 H   0  0  0  0  0  0  0  0  0  0  0  0
   42.1472   35.0268   39.2307 H   0  0  0  0  0  0  0  0  0  0  0  0
   44.1382   33.3577   38.8196 H   0  0  0  0  0  0  0  0  0  0  0  0
   45.7677   34.0581   40.7274 H   0  0  0  0  0  0  0  0  0  0  0  0
  1  4  1  0
  1  3  1  0
  1  2  1  0
  3  2  1  0
  4  9  2  0
  5  6  2  0
  5  4  1  0
  6  7  1  0
  7  8  2  0
  9  8  1  0
 10  1  1  0
 11 10  1  0
 12 11  1  0
 13 12  1  0
 14 13  1  0
 14 15  2  0
 15 10  1  0
  2 16  1  0
  2 17  1  0
  3 18  1  0
  3 19  1  0
  5 20  1  0
  6 21  1  0
  8 22  1  0
 11 23  1  0
 11 24  1  0
 12 25  1  0
 12 26  1  0
 13 27  1  0
 13 28  1  0
 14 29  1  0
 15 30  1  0
M  ISO  8  16  13  17  13  18  13  19  13  20  14  21  14  22  14  23  13
M  ISO  7  24  13  25  13  26  13  27  13  28  13  29  13  30  13
M  END
>  <minimizedAffinity>  (1) 
-3.93662596

>  <minimizedRMSD>  (1) 
2.43235064

$$$$
