
     RDKit          3D

 19 20  0  0  0  0  0  0  0  0999 V2000
   44.9210   34.8470   43.6630 C   0  0  0  0  0  0  0  0  0  0  0  0
   44.7180   36.2740   44.1250 C   0  0  0  0  0  0  0  0  0  0  0  0
   45.5940   35.9840   43.0050 C   0  0  0  0  0  0  0  0  0  0  0  0
   45.6400   33.9210   44.5570 C   0  0  0  0  0  0  0  0  0  0  0  0
   46.5880   33.0960   43.9280 C   0  0  0  0  0  0  0  0  0  0  0  0
   47.3100   32.1670   44.6940 C   0  0  0  0  0  0  0  0  0  0  0  0
   47.0450   32.1210   46.0280 N   0  0  0  0  0  0  0  0  0  0  0  0
   46.1170   32.9420   46.6020 C   0  0  0  0  0  0  0  0  0  0  0  0
   45.4220   33.8360   45.8620 N   0  0  0  0  0  0  0  0  0  0  0  0
   43.8150   34.2630   42.8920 N   0  0  0  0  0  0  0  0  0  0  0  0
   43.7543   36.7763   43.9550 H   0  0  0  0  0  0  0  0  0  0  0  0
   44.8254   36.8067   45.0814 H   0  0  0  0  0  0  0  0  0  0  0  0
   46.6808   36.1116   43.1176 H   0  0  0  0  0  0  0  0  0  0  0  0
   45.6504   36.3416   41.9663 H   0  0  0  0  0  0  0  0  0  0  0  0
   46.7628   33.1774   42.8450 H   0  0  0  0  0  0  0  0  0  0  0  0
   48.0584   31.5042   44.2352 H   0  0  0  0  0  0  0  0  0  0  0  0
   45.9315   32.8753   47.6842 H   0  0  0  0  0  0  0  0  0  0  0  0
   43.1059   33.8886   43.5385 H   0  0  0  0  0  0  0  0  0  0  0  0
   43.3892   34.9892   42.2985 H   0  0  0  0  0  0  0  0  0  0  0  0
  1  2  1  0
  1  4  1  0
  3  1  1  0
  3  2  1  0
  4  9  1  0
  5  4  2  0
  5  6  1  0
  6  7  2  0
  7  8  1  0
  9  8  2  0
 10  1  1  0
  2 11  1  0
  2 12  1  0
  3 13  1  0
  3 14  1  0
  5 15  1  0
  6 16  1  0
  8 17  1  0
 10 18  1  0
 10 19  1  0
M  ISO  8  11  13  12  13  13  13  14  13  15  14  16  14  17  14  18   5
M  ISO  1  19   5
M  END
>  <minimizedAffinity>  (1) 
-3.38184381

>  <minimizedRMSD>  (1) 
0.351358831

$$$$
