
     RDKit          3D

 32 35  0  0  0  0  0  0  0  0999 V2000
   44.9690   34.9100   43.5650 C   0  0  0  0  0  0  0  0  0  0  0  0
   44.5460   36.2180   44.2310 C   0  0  0  0  0  0  0  0  0  0  0  0
   45.5870   36.1910   43.1880 C   0  0  0  0  0  0  0  0  0  0  0  0
   45.6910   33.9300   44.4140 C   0  0  0  0  0  0  0  0  0  0  0  0
   46.6480   33.0690   43.7960 C   0  0  0  0  0  0  0  0  0  0  0  0
   47.3480   32.1420   44.5390 C   0  0  0  0  0  0  0  0  0  0  0  0
   47.0810   32.0970   45.8640 N   0  0  0  0  0  0  0  0  0  0  0  0
   46.1660   32.9250   46.4310 C   0  0  0  0  0  0  0  0  0  0  0  0
   45.4810   33.8310   45.7100 N   0  0  0  0  0  0  0  0  0  0  0  0
   43.9270   34.3150   42.8600 O   0  0  0  0  0  0  0  0  0  0  0  0
   43.6790   34.3790   41.5120 C   0  0  0  0  0  0  0  0  0  0  0  0
   44.3830   33.9910   40.3860 C   0  0  0  0  0  0  0  0  0  0  0  0
   43.6940   34.2770   39.2650 N   0  0  0  0  0  0  0  0  0  0  0  0
   42.5280   34.8560   39.6240 C   0  0  0  0  0  0  0  0  0  0  0  0
   41.5090   35.3140   38.8050 C   0  0  0  0  0  0  0  0  0  0  0  0
   40.4080   35.8710   39.4060 C   0  0  0  0  0  0  0  0  0  0  0  0
   40.3620   35.9510   40.7910 C   0  0  0  0  0  0  0  0  0  0  0  0
   41.3760   35.4940   41.5790 C   0  0  0  0  0  0  0  0  0  0  0  0
   42.4980   34.9280   41.0090 C   0  0  0  0  0  0  0  0  0  0  0  0
   43.5592   36.6543   44.0171 H   0  0  0  0  0  0  0  0  0  0  0  0
   44.4795   36.5873   45.2650 H   0  0  0  0  0  0  0  0  0  0  0  0
   46.6340   36.3898   43.4605 H   0  0  0  0  0  0  0  0  0  0  0  0
   45.7245   36.7201   42.2334 H   0  0  0  0  0  0  0  0  0  0  0  0
   46.8290   33.1462   42.7138 H   0  0  0  0  0  0  0  0  0  0  0  0
   48.0875   31.4718   44.0765 H   0  0  0  0  0  0  0  0  0  0  0  0
   45.9793   32.8527   47.5126 H   0  0  0  0  0  0  0  0  0  0  0  0
   45.3734   33.5127   40.4041 H   0  0  0  0  0  0  0  0  0  0  0  0
   44.0028   34.0871   38.3009 H   0  0  0  0  0  0  0  0  0  0  0  0
   41.5798   35.2340   37.7102 H   0  0  0  0  0  0  0  0  0  0  0  0
   39.5729   36.2491   38.7980 H   0  0  0  0  0  0  0  0  0  0  0  0
   39.4777   36.3981   41.2686 H   0  0  0  0  0  0  0  0  0  0  0  0
   41.2996   35.5767   42.6732 H   0  0  0  0  0  0  0  0  0  0  0  0
  1  2  1  0
  1  4  1  0
  3  1  1  0
  3  2  1  0
  4  9  1  0
  5  4  2  0
  5  6  1  0
  6  7  2  0
  7  8  1  0
  9  8  2  0
 10  1  1  0
 11 10  1  0
 12 11  2  0
 13 14  1  0
 13 12  1  0
 14 19  2  0
 15 16  2  0
 15 14  1  0
 16 17  1  0
 17 18  2  0
 19 11  1  0
 19 18  1  0
  2 20  1  0
  2 21  1  0
  3 22  1  0
  3 23  1  0
  5 24  1  0
  6 25  1  0
  8 26  1  0
 12 27  1  0
 13 28  1  0
 15 29  1  0
 16 30  1  0
 17 31  1  0
 18 32  1  0
M  ISO  8  20  13  21  13  22  13  23  13  24  14  25  14  26  14  27  14
M  ISO  5  28   9  29  14  30  14  31  14  32  14
M  END
>  <minimizedAffinity>  (1) 
-5.51599693

>  <minimizedRMSD>  (1) 
2.62012887

$$$$
