
     RDKit          3D

 32 35  0  0  0  0  0  0  0  0999 V2000
   44.9760   34.9020   43.5220 C   0  0  0  0  0  0  0  0  0  0  0  0
   44.6340   36.2530   44.0950 C   0  0  0  0  0  0  0  0  0  0  0  0
   45.6160   36.1110   43.0100 C   0  0  0  0  0  0  0  0  0  0  0  0
   45.6930   33.9220   44.3740 C   0  0  0  0  0  0  0  0  0  0  0  0
   46.6580   33.0730   43.7670 C   0  0  0  0  0  0  0  0  0  0  0  0
   47.3350   32.1510   44.5420 C   0  0  0  0  0  0  0  0  0  0  0  0
   47.0440   32.1000   45.8610 N   0  0  0  0  0  0  0  0  0  0  0  0
   46.1060   32.9350   46.4210 C   0  0  0  0  0  0  0  0  0  0  0  0
   45.4540   33.8230   45.6660 N   0  0  0  0  0  0  0  0  0  0  0  0
   43.8610   34.3080   42.8910 O   0  0  0  0  0  0  0  0  0  0  0  0
   43.7080   34.1630   41.5310 C   0  0  0  0  0  0  0  0  0  0  0  0
   44.5950   33.4660   40.7920 N   0  0  0  0  0  0  0  0  0  0  0  0
   44.4410   33.3260   39.4630 C   0  0  0  0  0  0  0  0  0  0  0  0
   43.3850   33.8840   38.8290 N   0  0  0  0  0  0  0  0  0  0  0  0
   42.4530   34.5980   39.5050 C   0  0  0  0  0  0  0  0  0  0  0  0
   41.3790   35.1660   38.8600 C   0  0  0  0  0  0  0  0  0  0  0  0
   40.4580   35.8840   39.5990 C   0  0  0  0  0  0  0  0  0  0  0  0
   40.5900   36.0460   40.9730 C   0  0  0  0  0  0  0  0  0  0  0  0
   41.6900   35.4570   41.5900 C   0  0  0  0  0  0  0  0  0  0  0  0
   42.6220   34.7350   40.8700 C   0  0  0  0  0  0  0  0  0  0  0  0
   43.6514   36.7058   43.8964 H   0  0  0  0  0  0  0  0  0  0  0  0
   44.6328   36.7025   45.0989 H   0  0  0  0  0  0  0  0  0  0  0  0
   46.6820   36.2908   43.2131 H   0  0  0  0  0  0  0  0  0  0  0  0
   45.7236   36.5568   42.0102 H   0  0  0  0  0  0  0  0  0  0  0  0
   46.8641   33.1494   42.6892 H   0  0  0  0  0  0  0  0  0  0  0  0
   48.0864   31.4802   44.0999 H   0  0  0  0  0  0  0  0  0  0  0  0
   45.8912   32.8712   47.4979 H   0  0  0  0  0  0  0  0  0  0  0  0
   45.1813   32.7520   38.8864 H   0  0  0  0  0  0  0  0  0  0  0  0
   41.2552   35.0505   37.7731 H   0  0  0  0  0  0  0  0  0  0  0  0
   39.5979   36.3392   39.0862 H   0  0  0  0  0  0  0  0  0  0  0  0
   39.8514   36.6194   41.5524 H   0  0  0  0  0  0  0  0  0  0  0  0
   41.8202   35.5691   42.6765 H   0  0  0  0  0  0  0  0  0  0  0  0
  1  2  1  0
  1  4  1  0
  3  1  1  0
  3  2  1  0
  4  9  1  0
  5  4  2  0
  5  6  1  0
  6  7  2  0
  7  8  1  0
  9  8  2  0
 10  1  1  0
 11 10  1  0
 12 11  2  0
 13 12  1  0
 14 13  2  0
 14 15  1  0
 15 20  2  0
 16 15  1  0
 16 17  2  0
 17 18  1  0
 18 19  2  0
 20 11  1  0
 20 19  1  0
  2 21  1  0
  2 22  1  0
  3 23  1  0
  3 24  1  0
  5 25  1  0
  6 26  1  0
  8 27  1  0
 13 28  1  0
 16 29  1  0
 17 30  1  0
 18 31  1  0
 19 32  1  0
M  ISO  8  21  13  22  13  23  13  24  13  25  14  26  14  27  14  28  14
M  ISO  4  29  14  30  14  31  14  32  14
M  END
>  <minimizedAffinity>  (1) 
-5.35287571

>  <minimizedRMSD>  (1) 
1.88897467

$$$$
