
     RDKit          3D

 31 33  0  0  0  0  0  0  0  0999 V2000
   45.1770   35.2070   43.1240 C   0  0  0  0  0  0  0  0  0  0  0  0
   44.8520   35.7630   44.4910 C   0  0  0  0  0  0  0  0  0  0  0  0
   44.9860   36.6480   43.3260 C   0  0  0  0  0  0  0  0  0  0  0  0
   46.5320   34.6270   42.9110 C   0  0  0  0  0  0  0  0  0  0  0  0
   47.4190   35.2730   42.0030 C   0  0  0  0  0  0  0  0  0  0  0  0
   48.6800   34.7490   41.7930 C   0  0  0  0  0  0  0  0  0  0  0  0
   49.0130   33.6210   42.4770 N   0  0  0  0  0  0  0  0  0  0  0  0
   48.1410   33.0260   43.3390 C   0  0  0  0  0  0  0  0  0  0  0  0
   46.9080   33.5340   43.5490 N   0  0  0  0  0  0  0  0  0  0  0  0
   44.1700   34.3720   42.6190 O   0  0  0  0  0  0  0  0  0  0  0  0
   41.6000   35.2670   39.4760 C   0  0  0  0  0  0  0  0  0  0  0  0
   41.2050   35.5370   40.7610 C   0  0  0  0  0  0  0  0  0  0  0  0
   41.9820   35.2780   41.8640 C   0  0  0  0  0  0  0  0  0  0  0  0
   43.2300   34.7150   41.6830 C   0  0  0  0  0  0  0  0  0  0  0  0
   43.6550   34.4300   40.3810 C   0  0  0  0  0  0  0  0  0  0  0  0
   42.8440   34.7040   39.2840 C   0  0  0  0  0  0  0  0  0  0  0  0
   40.5630   35.6190   38.1010 S   0  0  0  0  0  0  0  0  0  0  0  0
   40.1110   34.3240   37.5090 O   0  0  0  0  0  0  0  0  0  0  0  0
   41.3520   36.3730   37.0680 O   0  0  0  0  0  0  0  0  0  0  0  0
   43.8634   35.5852   44.9394 H   0  0  0  0  0  0  0  0  0  0  0  0
   45.3105   35.7066   45.4893 H   0  0  0  0  0  0  0  0  0  0  0  0
   45.8485   37.3270   43.2543 H   0  0  0  0  0  0  0  0  0  0  0  0
   44.3395   37.4077   42.8624 H   0  0  0  0  0  0  0  0  0  0  0  0
   47.1022   36.1830   41.4725 H   0  0  0  0  0  0  0  0  0  0  0  0
   49.3880   35.2257   41.0991 H   0  0  0  0  0  0  0  0  0  0  0  0
   48.4476   32.1148   43.8736 H   0  0  0  0  0  0  0  0  0  0  0  0
   40.2126   35.9851   40.9171 H   0  0  0  0  0  0  0  0  0  0  0  0
   41.6163   35.5150   42.8740 H   0  0  0  0  0  0  0  0  0  0  0  0
   44.6469   33.9818   40.2218 H   0  0  0  0  0  0  0  0  0  0  0  0
   43.1940   34.4723   38.2672 H   0  0  0  0  0  0  0  0  0  0  0  0
   39.4873   36.3676   38.5002 H   0  0  0  0  0  0  0  0  0  0  0  0
  1  3  1  0
  1  2  1  0
  3  2  1  0
  4  1  1  0
  4  9  1  0
  5  4  2  0
  6  5  1  0
  6  7  2  0
  7  8  1  0
  8  9  2  0
 10  1  1  0
 11 12  2  0
 12 13  1  0
 14 13  2  0
 14 10  1  0
 15 14  1  0
 16 11  1  0
 16 15  2  0
 17 11  1  0
 18 17  2  0
 19 17  2  0
  2 20  1  0
  2 21  1  0
  3 22  1  0
  3 23  1  0
  5 24  1  0
  6 25  1  0
  8 26  1  0
 12 27  1  0
 13 28  1  0
 15 29  1  0
 16 30  1  0
 17 31  1  0
M  ISO  8  20  13  21  13  22  13  23  13  24  14  25  14  26  14  27  14
M  ISO  4  28  14  29  14  30  14  31  11
M  END
>  <minimizedAffinity>  (1) 
-4.86906862

>  <minimizedRMSD>  (1) 
2.32994676

$$$$
