
     RDKit          3D

 27 29  0  0  0  0  0  0  0  0999 V2000
   44.9640   34.9840   42.6330 C   0  0  0  0  0  0  0  0  0  0  0  0
   44.9710   35.2180   44.1220 C   0  0  0  0  0  0  0  0  0  0  0  0
   44.8920   36.3360   43.1750 C   0  0  0  0  0  0  0  0  0  0  0  0
   46.1890   34.4520   41.9920 C   0  0  0  0  0  0  0  0  0  0  0  0
   47.3430   35.2840   41.9140 C   0  0  0  0  0  0  0  0  0  0  0  0
   48.5030   34.8180   41.3210 C   0  0  0  0  0  0  0  0  0  0  0  0
   48.4750   33.5540   40.8320 N   0  0  0  0  0  0  0  0  0  0  0  0
   47.3540   32.7860   40.9220 C   0  0  0  0  0  0  0  0  0  0  0  0
   46.2200   33.2240   41.4950 N   0  0  0  0  0  0  0  0  0  0  0  0
   43.8160   34.2900   42.2030 O   0  0  0  0  0  0  0  0  0  0  0  0
   42.8300   34.8060   41.4000 C   0  0  0  0  0  0  0  0  0  0  0  0
   43.1210   34.7200   40.0410 C   0  0  0  0  0  0  0  0  0  0  0  0
   42.2060   35.2070   39.0990 C   0  0  0  0  0  0  0  0  0  0  0  0
   41.0430   35.7530   39.6310 C   0  0  0  0  0  0  0  0  0  0  0  0
   40.7460   35.8430   40.9760 C   0  0  0  0  0  0  0  0  0  0  0  0
   41.6750   35.3530   41.8420 N   0  0  0  0  0  0  0  0  0  0  0  0
   44.0958   34.9442   44.7295 H   0  0  0  0  0  0  0  0  0  0  0  0
   45.6311   34.9415   44.9574 H   0  0  0  0  0  0  0  0  0  0  0  0
   45.7503   37.0145   43.0611 H   0  0  0  0  0  0  0  0  0  0  0  0
   44.1977   37.1786   43.0413 H   0  0  0  0  0  0  0  0  0  0  0  0
   47.3115   36.3028   42.3276 H   0  0  0  0  0  0  0  0  0  0  0  0
   49.4051   35.4435   41.2497 H   0  0  0  0  0  0  0  0  0  0  0  0
   47.3776   31.7666   40.5093 H   0  0  0  0  0  0  0  0  0  0  0  0
   44.0680   34.2703   39.7078 H   0  0  0  0  0  0  0  0  0  0  0  0
   42.3939   35.1609   38.0161 H   0  0  0  0  0  0  0  0  0  0  0  0
   40.2989   36.1452   38.9221 H   0  0  0  0  0  0  0  0  0  0  0  0
   39.8049   36.2887   41.3306 H   0  0  0  0  0  0  0  0  0  0  0  0
  1  3  1  0
  1  2  1  0
  3  2  1  0
  4  1  1  0
  5  4  2  0
  6  5  1  0
  7  8  1  0
  7  6  2  0
  8  9  2  0
  9  4  1  0
 10  1  1  0
 11 16  1  0
 11 10  1  0
 12 11  2  0
 13 14  2  0
 13 12  1  0
 14 15  1  0
 15 16  2  0
  2 17  1  0
  2 18  1  0
  3 19  1  0
  3 20  1  0
  5 21  1  0
  6 22  1  0
  8 23  1  0
 12 24  1  0
 13 25  1  0
 14 26  1  0
 15 27  1  0
M  ISO  8  17  13  18  13  19  13  20  13  21  14  22  14  23  14  24  14
M  ISO  3  25  14  26  14  27  14
M  END
>  <minimizedAffinity>  (1) 
-4.44609833

>  <minimizedRMSD>  (1) 
4.08626795

$$$$
