
     RDKit          3D

 34 36  0  0  0  0  0  0  0  0999 V2000
   46.2670   34.4640   41.9700 C   0  0  0  0  0  0  0  0  0  0  0  0
   47.6280   35.0230   41.6370 C   0  0  0  0  0  0  0  0  0  0  0  0
   47.4070   33.5830   41.7330 C   0  0  0  0  0  0  0  0  0  0  0  0
   45.7110   34.6980   43.3230 C   0  0  0  0  0  0  0  0  0  0  0  0
   45.9600   33.7280   44.3390 C   0  0  0  0  0  0  0  0  0  0  0  0
   45.4450   33.9330   45.6050 C   0  0  0  0  0  0  0  0  0  0  0  0
   44.7210   35.0590   45.8210 N   0  0  0  0  0  0  0  0  0  0  0  0
   44.5070   35.9570   44.8260 C   0  0  0  0  0  0  0  0  0  0  0  0
   44.9920   35.7920   43.5780 N   0  0  0  0  0  0  0  0  0  0  0  0
   45.3240   34.7390   40.9640 O   0  0  0  0  0  0  0  0  0  0  0  0
   44.4320   33.7240   40.7370 C   0  0  0  0  0  0  0  0  0  0  0  0
   43.0130   34.2060   41.0010 C   0  0  0  0  0  0  0  0  0  0  0  0
   42.5910   35.1080   39.8630 C   0  0  0  0  0  0  0  0  0  0  0  0
   42.4500   34.2840   38.6020 C   0  0  0  0  0  0  0  0  0  0  0  0
   43.1820   32.9550   38.7410 C   0  0  0  0  0  0  0  0  0  0  0  0
   44.5570   33.2780   39.2750 C   0  0  0  0  0  0  0  0  0  0  0  0
   48.2150   35.5450   42.4071 H   0  0  0  0  0  0  0  0  0  0  0  0
   48.0302   35.7055   40.8739 H   0  0  0  0  0  0  0  0  0  0  0  0
   47.4376   32.9663   40.8227 H   0  0  0  0  0  0  0  0  0  0  0  0
   47.8802   32.7735   42.3081 H   0  0  0  0  0  0  0  0  0  0  0  0
   46.5539   32.8290   44.1177 H   0  0  0  0  0  0  0  0  0  0  0  0
   45.6170   33.2056   46.4120 H   0  0  0  0  0  0  0  0  0  0  0  0
   43.9135   36.8566   45.0463 H   0  0  0  0  0  0  0  0  0  0  0  0
   44.6514   32.8827   41.4109 H   0  0  0  0  0  0  0  0  0  0  0  0
   42.3336   33.3430   41.0615 H   0  0  0  0  0  0  0  0  0  0  0  0
   42.9739   34.7572   41.9521 H   0  0  0  0  0  0  0  0  0  0  0  0
   41.6267   35.5788   40.1047 H   0  0  0  0  0  0  0  0  0  0  0  0
   43.3490   35.8905   39.7107 H   0  0  0  0  0  0  0  0  0  0  0  0
   42.8754   34.8435   37.7558 H   0  0  0  0  0  0  0  0  0  0  0  0
   41.3825   34.0828   38.4292 H   0  0  0  0  0  0  0  0  0  0  0  0
   42.6467   32.2976   39.4419 H   0  0  0  0  0  0  0  0  0  0  0  0
   43.2426   32.4309   37.7758 H   0  0  0  0  0  0  0  0  0  0  0  0
   45.1953   32.3841   39.2153 H   0  0  0  0  0  0  0  0  0  0  0  0
   45.0081   34.0839   38.6776 H   0  0  0  0  0  0  0  0  0  0  0  0
  1  4  1  0
  2  3  1  0
  2  1  1  0
  3  1  1  0
  4  9  1  0
  4  5  2  0
  5  6  1  0
  6  7  2  0
  8  7  1  0
  9  8  2  0
 10  1  1  0
 11 10  1  0
 11 12  1  0
 13 12  1  0
 14 15  1  0
 14 13  1  0
 15 16  1  0
 16 11  1  0
  2 17  1  0
  2 18  1  0
  3 19  1  0
  3 20  1  0
  5 21  1  0
  6 22  1  0
  8 23  1  0
 11 24  1  0
 12 25  1  0
 12 26  1  0
 13 27  1  0
 13 28  1  0
 14 29  1  0
 14 30  1  0
 15 31  1  0
 15 32  1  0
 16 33  1  0
 16 34  1  0
M  ISO  8  17  13  18  13  19  13  20  13  21  14  22  14  23  14  24  13
M  ISO  8  25  13  26  13  27  13  28  13  29  13  30  13  31  13  32  13
M  ISO  2  33  13  34  13
M  END
>  <minimizedAffinity>  (1) 
-4.43141127

>  <minimizedRMSD>  (1) 
3.51087427

$$$$
