
     RDKit          3D

 13 13  0  0  0  0  0  0  0  0999 V2000
   46.1610   34.9010   43.1790 C   0  0  0  0  0  0  0  0  0  0  0  0
   46.3110   33.9070   44.1600 C   0  0  0  0  0  0  0  0  0  0  0  0
   45.5550   34.0210   45.3370 C   0  0  0  0  0  0  0  0  0  0  0  0
   44.7180   35.0850   45.4680 N   0  0  0  0  0  0  0  0  0  0  0  0
   44.6010   36.0240   44.4980 C   0  0  0  0  0  0  0  0  0  0  0  0
   45.3160   35.9410   43.3560 N   0  0  0  0  0  0  0  0  0  0  0  0
   46.9660   34.7740   41.9320 C   0  0  0  0  0  0  0  0  0  0  0  0
   47.0010   33.0636   44.0101 H   0  0  0  0  0  0  0  0  0  0  0  0
   45.6375   33.2678   46.1344 H   0  0  0  0  0  0  0  0  0  0  0  0
   43.9114   36.8685   44.6437 H   0  0  0  0  0  0  0  0  0  0  0  0
   48.0217   34.6075   42.1924 H   0  0  0  0  0  0  0  0  0  0  0  0
   46.5954   33.9232   41.3414 H   0  0  0  0  0  0  0  0  0  0  0  0
   46.8753   35.6976   41.3414 H   0  0  0  0  0  0  0  0  0  0  0  0
  1  6  2  0
  1  2  1  0
  2  3  2  0
  3  4  1  0
  5  4  2  0
  6  5  1  0
  7  1  1  0
  2  8  1  0
  3  9  1  0
  5 10  1  0
  7 11  1  0
  7 12  1  0
  7 13  1  0
M  ISO  6   8  14   9  14  10  14  11   8  12   8  13   8
M  END
>  <minimizedAffinity>  (1) 
-3.01267219

>  <minimizedRMSD>  (1) 
2.77998447

$$$$
