
     RDKit          3D

 25 27  0  0  0  0  0  0  0  0999 V2000
   45.0830   35.2680   43.1620 C   0  0  0  0  0  0  0  0  0  0  0  0
   44.7000   35.8550   44.5010 C   0  0  0  0  0  0  0  0  0  0  0  0
   44.9580   36.7100   43.3180 C   0  0  0  0  0  0  0  0  0  0  0  0
   46.3990   34.6030   43.0500 C   0  0  0  0  0  0  0  0  0  0  0  0
   47.3900   35.1750   42.1940 C   0  0  0  0  0  0  0  0  0  0  0  0
   48.6260   34.5770   42.0700 C   0  0  0  0  0  0  0  0  0  0  0  0
   48.8550   33.4540   42.7770 N   0  0  0  0  0  0  0  0  0  0  0  0
   47.8950   32.9220   43.5910 C   0  0  0  0  0  0  0  0  0  0  0  0
   46.6870   33.5040   43.7130 N   0  0  0  0  0  0  0  0  0  0  0  0
   44.0610   34.4720   42.5990 O   0  0  0  0  0  0  0  0  0  0  0  0
   43.0970   34.9020   39.1960 N   0  0  0  0  0  0  0  0  0  0  0  0
   43.1460   35.3910   40.4450 N   0  0  0  0  0  0  0  0  0  0  0  0
   43.7460   34.4990   41.2470 C   0  0  0  0  0  0  0  0  0  0  0  0
   44.0950   33.3880   40.4690 C   0  0  0  0  0  0  0  0  0  0  0  0
   43.6730   33.6650   39.1640 C   0  0  0  0  0  0  0  0  0  0  0  0
   43.6769   35.7357   44.8870 H   0  0  0  0  0  0  0  0  0  0  0  0
   45.0875   35.7933   45.5287 H   0  0  0  0  0  0  0  0  0  0  0  0
   45.8584   37.3411   43.2881 H   0  0  0  0  0  0  0  0  0  0  0  0
   44.3843   37.4904   42.7966 H   0  0  0  0  0  0  0  0  0  0  0  0
   47.1662   36.0943   41.6329 H   0  0  0  0  0  0  0  0  0  0  0  0
   49.4000   35.0033   41.4148 H   0  0  0  0  0  0  0  0  0  0  0  0
   48.1126   32.0034   44.1557 H   0  0  0  0  0  0  0  0  0  0  0  0
   42.6870   35.3866   38.3849 H   0  0  0  0  0  0  0  0  0  0  0  0
   44.6020   32.4756   40.8161 H   0  0  0  0  0  0  0  0  0  0  0  0
   43.7837   33.0135   38.2846 H   0  0  0  0  0  0  0  0  0  0  0  0
  1  3  1  0
  1  2  1  0
  3  2  1  0
  4  1  1  0
  4  9  1  0
  5  4  2  0
  6  5  1  0
  6  7  2  0
  7  8  1  0
  8  9  2  0
 10  1  1  0
 11 12  1  0
 12 13  2  0
 13 10  1  0
 14 13  1  0
 15 11  1  0
 15 14  2  0
  2 16  1  0
  2 17  1  0
  3 18  1  0
  3 19  1  0
  5 20  1  0
  6 21  1  0
  8 22  1  0
 11 23  1  0
 14 24  1  0
 15 25  1  0
M  ISO  8  16  13  17  13  18  13  19  13  20  14  21  14  22  14  23   9
M  ISO  2  24  14  25  14
M  END
>  <minimizedAffinity>  (1) 
-4.06607246

>  <minimizedRMSD>  (1) 
2.57367373

$$$$
