
     RDKit          3D

 24 25  0  0  0  0  0  0  0  0999 V2000
   45.5720   34.9970   42.9070 C   0  0  0  0  0  0  0  0  0  0  0  0
   44.1900   35.4300   42.4860 C   0  0  0  0  0  0  0  0  0  0  0  0
   45.0470   36.3020   43.3110 C   0  0  0  0  0  0  0  0  0  0  0  0
   45.7030   33.8870   43.8910 C   0  0  0  0  0  0  0  0  0  0  0  0
   45.7940   34.1620   45.2730 C   0  0  0  0  0  0  0  0  0  0  0  0
   45.9160   33.1130   46.1710 C   0  0  0  0  0  0  0  0  0  0  0  0
   45.9420   31.8570   45.6840 N   0  0  0  0  0  0  0  0  0  0  0  0
   45.8520   31.6140   44.3370 C   0  0  0  0  0  0  0  0  0  0  0  0
   45.7350   32.6230   43.4730 N   0  0  0  0  0  0  0  0  0  0  0  0
   46.4440   34.8250   41.8170 O   0  0  0  0  0  0  0  0  0  0  0  0
   47.7530   35.1620   42.1600 C   0  0  0  0  0  0  0  0  0  0  0  0
   48.5070   35.2610   40.8390 C   0  0  0  0  0  0  0  0  0  0  0  0
   43.9865   35.6873   41.4361 H   0  0  0  0  0  0  0  0  0  0  0  0
   43.1756   35.0141   42.5757 H   0  0  0  0  0  0  0  0  0  0  0  0
   44.7872   36.4826   44.3645 H   0  0  0  0  0  0  0  0  0  0  0  0
   45.4069   37.3370   43.2150 H   0  0  0  0  0  0  0  0  0  0  0  0
   45.7683   35.2007   45.6343 H   0  0  0  0  0  0  0  0  0  0  0  0
   45.9896   33.3010   47.2523 H   0  0  0  0  0  0  0  0  0  0  0  0
   45.8765   30.5785   43.9665 H   0  0  0  0  0  0  0  0  0  0  0  0
   47.7758   36.1262   42.6890 H   0  0  0  0  0  0  0  0  0  0  0  0
   48.2035   34.4171   42.8324 H   0  0  0  0  0  0  0  0  0  0  0  0
   49.5795   35.4018   41.0386 H   0  0  0  0  0  0  0  0  0  0  0  0
   48.3597   34.3358   40.2625 H   0  0  0  0  0  0  0  0  0  0  0  0
   48.1259   36.1168   40.2625 H   0  0  0  0  0  0  0  0  0  0  0  0
  1  3  1  0
  1  4  1  0
  2  1  1  0
  2  3  1  0
  4  5  2  0
  5  6  1  0
  7  6  2  0
  8  7  1  0
  9  4  1  0
  9  8  2  0
 10 11  1  0
 10  1  1  0
 12 11  1  0
  2 13  1  0
  2 14  1  0
  3 15  1  0
  3 16  1  0
  5 17  1  0
  6 18  1  0
  8 19  1  0
 11 20  1  0
 11 21  1  0
 12 22  1  0
 12 23  1  0
 12 24  1  0
M  ISO  8  13  13  14  13  15  13  16  13  17  14  18  14  19  14  20   8
M  ISO  4  21   8  22   8  23   8  24   8
M  END
>  <minimizedAffinity>  (1) 
-3.48353314

>  <minimizedRMSD>  (1) 
3.01530623

$$$$
