
     RDKit          3D

 21 22  0  0  0  0  0  0  0  0999 V2000
   45.3110   34.6920   43.1360 C   0  0  0  0  0  0  0  0  0  0  0  0
   45.5900   36.1780   42.9980 C   0  0  0  0  0  0  0  0  0  0  0  0
   46.3470   35.1680   42.2240 C   0  0  0  0  0  0  0  0  0  0  0  0
   45.6340   34.0480   44.4260 C   0  0  0  0  0  0  0  0  0  0  0  0
   46.6680   33.0600   44.4660 C   0  0  0  0  0  0  0  0  0  0  0  0
   46.9870   32.4460   45.6620 C   0  0  0  0  0  0  0  0  0  0  0  0
   46.2960   32.8110   46.7600 N   0  0  0  0  0  0  0  0  0  0  0  0
   45.3040   33.7630   46.7040 C   0  0  0  0  0  0  0  0  0  0  0  0
   45.0080   34.3480   45.5440 N   0  0  0  0  0  0  0  0  0  0  0  0
   44.0140   34.3500   42.6980 O   0  0  0  0  0  0  0  0  0  0  0  0
   44.0190   33.1240   42.0370 C   0  0  0  0  0  0  0  0  0  0  0  0
   44.8651   36.8341   42.4941 H   0  0  0  0  0  0  0  0  0  0  0  0
   45.8456   36.9988   43.6843 H   0  0  0  0  0  0  0  0  0  0  0  0
   46.1938   35.0883   41.1376 H   0  0  0  0  0  0  0  0  0  0  0  0
   47.4168   34.9449   42.0983 H   0  0  0  0  0  0  0  0  0  0  0  0
   47.2079   32.7897   43.5465 H   0  0  0  0  0  0  0  0  0  0  0  0
   47.7788   31.6844   45.7162 H   0  0  0  0  0  0  0  0  0  0  0  0
   44.7557   34.0409   47.6162 H   0  0  0  0  0  0  0  0  0  0  0  0
   44.0223   32.3091   42.7759 H   0  0  0  0  0  0  0  0  0  0  0  0
   43.1212   33.0437   41.4066 H   0  0  0  0  0  0  0  0  0  0  0  0
   44.9175   33.0510   41.4066 H   0  0  0  0  0  0  0  0  0  0  0  0
  1  4  1  0
  2  1  1  0
  3  2  1  0
  3  1  1  0
  4  5  2  0
  4  9  1  0
  5  6  1  0
  6  7  2  0
  8  7  1  0
  9  8  2  0
 10  1  1  0
 11 10  1  0
  2 12  1  0
  2 13  1  0
  3 14  1  0
  3 15  1  0
  5 16  1  0
  6 17  1  0
  8 18  1  0
 11 19  1  0
 11 20  1  0
 11 21  1  0
M  ISO  8  12  13  13  13  14  13  15  13  16  14  17  14  18  14  19   8
M  ISO  2  20   8  21   8
M  END
>  <minimizedAffinity>  (1) 
-2.8453939

>  <minimizedRMSD>  (1) 
0.434075266

$$$$
