
     RDKit          3D

 28 30  0  0  0  0  0  0  0  0999 V2000
   44.6560   34.4380   41.5260 C   0  0  0  0  0  0  0  0  0  0  0  0
   45.9450   34.2450   40.7320 C   0  0  0  0  0  0  0  0  0  0  0  0
   44.9600   33.1540   40.8640 C   0  0  0  0  0  0  0  0  0  0  0  0
   44.7880   34.5580   43.0040 C   0  0  0  0  0  0  0  0  0  0  0  0
   45.3250   33.4820   43.7480 C   0  0  0  0  0  0  0  0  0  0  0  0
   45.4510   33.5890   45.1280 C   0  0  0  0  0  0  0  0  0  0  0  0
   45.0430   34.7460   45.7040 N   0  0  0  0  0  0  0  0  0  0  0  0
   44.5300   35.7660   44.9610 C   0  0  0  0  0  0  0  0  0  0  0  0
   44.4070   35.6680   43.6350 N   0  0  0  0  0  0  0  0  0  0  0  0
   43.8380   35.4120   40.9840 O   0  0  0  0  0  0  0  0  0  0  0  0
   42.5920   35.3030   40.4300 C   0  0  0  0  0  0  0  0  0  0  0  0
   42.2060   35.2100   39.1070 C   0  0  0  0  0  0  0  0  0  0  0  0
   40.8830   35.1060   38.7560 C   0  0  0  0  0  0  0  0  0  0  0  0
   39.9000   35.0910   39.7090 C   0  0  0  0  0  0  0  0  0  0  0  0
   40.2410   35.1810   41.0240 C   0  0  0  0  0  0  0  0  0  0  0  0
   41.5860   35.2870   41.3880 C   0  0  0  0  0  0  0  0  0  0  0  0
   46.9117   34.1834   41.2533 H   0  0  0  0  0  0  0  0  0  0  0  0
   46.4348   34.7623   39.8939 H   0  0  0  0  0  0  0  0  0  0  0  0
   44.3734   32.8421   39.9873 H   0  0  0  0  0  0  0  0  0  0  0  0
   45.0164   32.1109   41.2087 H   0  0  0  0  0  0  0  0  0  0  0  0
   45.6424   32.5619   43.2355 H   0  0  0  0  0  0  0  0  0  0  0  0
   45.8658   32.7666   45.7293 H   0  0  0  0  0  0  0  0  0  0  0  0
   44.2102   36.6904   45.4642 H   0  0  0  0  0  0  0  0  0  0  0  0
   42.9738   35.2195   38.3193 H   0  0  0  0  0  0  0  0  0  0  0  0
   40.6085   35.0336   37.6933 H   0  0  0  0  0  0  0  0  0  0  0  0
   38.8435   35.0069   39.4146 H   0  0  0  0  0  0  0  0  0  0  0  0
   39.4596   35.1703   41.7981 H   0  0  0  0  0  0  0  0  0  0  0  0
   41.8531   35.3591   42.4526 H   0  0  0  0  0  0  0  0  0  0  0  0
  1  4  1  0
  2  3  1  0
  2  1  1  0
  3  1  1  0
  4  9  1  0
  4  5  2  0
  5  6  1  0
  6  7  2  0
  8  7  1  0
  9  8  2  0
 10  1  1  0
 11 10  1  0
 11 16  1  0
 12 11  2  0
 13 12  1  0
 13 14  2  0
 14 15  1  0
 15 16  2  0
  2 17  1  0
  2 18  1  0
  3 19  1  0
  3 20  1  0
  5 21  1  0
  6 22  1  0
  8 23  1  0
 12 24  1  0
 13 25  1  0
 14 26  1  0
 15 27  1  0
 16 28  1  0
M  ISO  8  17  13  18  13  19  13  20  13  21  14  22  14  23  14  24  14
M  ISO  4  25  14  26  14  27  14  28  14
M  END
>  <minimizedAffinity>  (1) 
-4.95037556

>  <minimizedRMSD>  (1) 
3.37098765

$$$$
