
     RDKit          3D

 30 32  0  0  0  0  0  0  0  0999 V2000
   44.6790   34.4240   41.4970 C   0  0  0  0  0  0  0  0  0  0  0  0
   45.9610   34.2160   40.7080 C   0  0  0  0  0  0  0  0  0  0  0  0
   44.9560   33.1440   40.8290 C   0  0  0  0  0  0  0  0  0  0  0  0
   44.8140   34.5370   42.9650 C   0  0  0  0  0  0  0  0  0  0  0  0
   45.3380   33.4790   43.7220 C   0  0  0  0  0  0  0  0  0  0  0  0
   45.4630   33.5690   45.1020 C   0  0  0  0  0  0  0  0  0  0  0  0
   45.0530   34.7300   45.6790 N   0  0  0  0  0  0  0  0  0  0  0  0
   44.5420   35.7580   44.9250 C   0  0  0  0  0  0  0  0  0  0  0  0
   44.4470   35.6180   43.6170 N   0  0  0  0  0  0  0  0  0  0  0  0
   43.8680   35.4320   40.9690 O   0  0  0  0  0  0  0  0  0  0  0  0
   42.6280   35.3130   40.3830 C   0  0  0  0  0  0  0  0  0  0  0  0
   42.3020   35.0840   39.0510 C   0  0  0  0  0  0  0  0  0  0  0  0
   41.0160   34.9870   38.6310 C   0  0  0  0  0  0  0  0  0  0  0  0
   40.0040   35.1150   39.5300 C   0  0  0  0  0  0  0  0  0  0  0  0
   40.2880   35.3420   40.8540 C   0  0  0  0  0  0  0  0  0  0  0  0
   41.5880   35.4430   41.2880 C   0  0  0  0  0  0  0  0  0  0  0  0
   41.5120   35.6780   42.6960 N   0  0  0  0  0  0  0  0  0  0  0  0
   46.9251   34.1322   41.2309 H   0  0  0  0  0  0  0  0  0  0  0  0
   46.4626   34.7312   39.8756 H   0  0  0  0  0  0  0  0  0  0  0  0
   44.3649   32.8506   39.9489 H   0  0  0  0  0  0  0  0  0  0  0  0
   44.9907   32.0973   41.1654 H   0  0  0  0  0  0  0  0  0  0  0  0
   45.6568   32.5582   43.2116 H   0  0  0  0  0  0  0  0  0  0  0  0
   45.8736   32.7415   45.6992 H   0  0  0  0  0  0  0  0  0  0  0  0
   44.2147   36.6905   45.4081 H   0  0  0  0  0  0  0  0  0  0  0  0
   43.1124   34.9782   38.3147 H   0  0  0  0  0  0  0  0  0  0  0  0
   40.7930   34.8058   37.5692 H   0  0  0  0  0  0  0  0  0  0  0  0
   38.9586   35.0368   39.1968 H   0  0  0  0  0  0  0  0  0  0  0  0
   39.4647   35.4443   41.5763 H   0  0  0  0  0  0  0  0  0  0  0  0
   40.5941   35.7364   43.1596 H   0  0  0  0  0  0  0  0  0  0  0  0
   42.3752   35.7889   43.2469 H   0  0  0  0  0  0  0  0  0  0  0  0
  1  4  1  0
  2  3  1  0
  2  1  1  0
  3  1  1  0
  4  9  1  0
  4  5  2  0
  5  6  1  0
  6  7  2  0
  8  7  1  0
  9  8  2  0
 10  1  1  0
 11 10  1  0
 11 16  1  0
 12 11  2  0
 13 12  1  0
 13 14  2  0
 14 15  1  0
 15 16  2  0
 16 17  1  0
  2 18  1  0
  2 19  1  0
  3 20  1  0
  3 21  1  0
  5 22  1  0
  6 23  1  0
  8 24  1  0
 12 25  1  0
 13 26  1  0
 14 27  1  0
 15 28  1  0
 17 29  1  0
 17 30  1  0
M  ISO  8  18  13  19  13  20  13  21  13  22  14  23  14  24  14  25  14
M  ISO  3  26  14  27  14  28  14
M  END
>  <minimizedAffinity>  (1) 
-5.4861846

>  <minimizedRMSD>  (1) 
0.135902762

$$$$
