
     RDKit          3D

 30 32  0  0  0  0  0  0  0  0999 V2000
   44.0070   34.2750   41.2160 C   0  0  0  0  0  0  0  0  0  0  0  0
   45.1310   33.9520   40.2390 C   0  0  0  0  0  0  0  0  0  0  0  0
   44.1150   32.9440   40.6020 C   0  0  0  0  0  0  0  0  0  0  0  0
   44.4010   34.4680   42.6300 C   0  0  0  0  0  0  0  0  0  0  0  0
   45.0110   33.4330   43.3610 C   0  0  0  0  0  0  0  0  0  0  0  0
   45.3700   33.6070   44.6910 C   0  0  0  0  0  0  0  0  0  0  0  0
   45.1030   34.8180   45.2490 N   0  0  0  0  0  0  0  0  0  0  0  0
   44.5040   35.8200   44.5200 C   0  0  0  0  0  0  0  0  0  0  0  0
   44.1830   35.6040   43.2560 N   0  0  0  0  0  0  0  0  0  0  0  0
   43.1640   35.2970   40.7630 O   0  0  0  0  0  0  0  0  0  0  0  0
   42.0990   35.1910   39.9040 C   0  0  0  0  0  0  0  0  0  0  0  0
   42.0410   35.3380   38.5360 C   0  0  0  0  0  0  0  0  0  0  0  0
   40.8970   35.1890   37.8310 C   0  0  0  0  0  0  0  0  0  0  0  0
   39.7480   34.8840   38.4700 C   0  0  0  0  0  0  0  0  0  0  0  0
   39.7560   34.7310   39.8180 C   0  0  0  0  0  0  0  0  0  0  0  0
   40.9200   34.8840   40.5290 C   0  0  0  0  0  0  0  0  0  0  0  0
   40.5120   34.6510   41.8850 C   0  0  0  0  0  0  0  0  0  0  0  0
   39.8110   33.8850   42.5360 O   0  0  0  0  0  0  0  0  0  0  0  0
   46.1654   33.8501   40.5990 H   0  0  0  0  0  0  0  0  0  0  0  0
   45.5059   34.3872   39.3009 H   0  0  0  0  0  0  0  0  0  0  0  0
   43.3718   32.6280   39.8552 H   0  0  0  0  0  0  0  0  0  0  0  0
   44.1630   31.9201   41.0011 H   0  0  0  0  0  0  0  0  0  0  0  0
   45.2073   32.4683   42.8703 H   0  0  0  0  0  0  0  0  0  0  0  0
   45.8488   32.8016   45.2672 H   0  0  0  0  0  0  0  0  0  0  0  0
   44.2938   36.7940   44.9860 H   0  0  0  0  0  0  0  0  0  0  0  0
   42.9650   35.5873   37.9936 H   0  0  0  0  0  0  0  0  0  0  0  0
   40.9027   35.3162   36.7384 H   0  0  0  0  0  0  0  0  0  0  0  0
   38.8135   34.7606   37.9030 H   0  0  0  0  0  0  0  0  0  0  0  0
   38.8229   34.4825   40.3449 H   0  0  0  0  0  0  0  0  0  0  0  0
   40.9746   35.3950   42.5502 H   0  0  0  0  0  0  0  0  0  0  0  0
  1  4  1  0
  2  3  1  0
  2  1  1  0
  3  1  1  0
  4  9  1  0
  4  5  2  0
  5  6  1  0
  6  7  2  0
  8  7  1  0
  9  8  2  0
 10  1  1  0
 11 16  1  0
 11 10  1  0
 12 11  2  0
 13 14  2  0
 13 12  1  0
 14 15  1  0
 15 16  2  0
 16 17  1  0
 17 18  2  0
  2 19  1  0
  2 20  1  0
  3 21  1  0
  3 22  1  0
  5 23  1  0
  6 24  1  0
  8 25  1  0
 12 26  1  0
 13 27  1  0
 14 28  1  0
 15 29  1  0
 17 30  1  0
M  ISO  8  19  13  20  13  21  13  22  13  23  14  24  14  25  14  26  14
M  ISO  4  27  14  28  14  29  14  30   6
M  END
>  <minimizedAffinity>  (1) 
-5.41580057

>  <minimizedRMSD>  (1) 
0.973286629

$$$$
