
     RDKit          3D

 35 38  0  0  0  0  0  0  0  0999 V2000
   43.1260   35.3500   40.3260 O   0  0  0  0  0  0  0  0  0  0  0  0
   42.1240   35.3420   39.3760 C   0  0  0  0  0  0  0  0  0  0  0  0
   42.1400   35.9520   38.1140 C   0  0  0  0  0  0  0  0  0  0  0  0
   41.1040   35.8630   37.2500 C   0  0  0  0  0  0  0  0  0  0  0  0
   40.0040   35.1570   37.6080 C   0  0  0  0  0  0  0  0  0  0  0  0
   39.9780   34.5640   38.8340 C   0  0  0  0  0  0  0  0  0  0  0  0
   41.0160   34.6420   39.7360 C   0  0  0  0  0  0  0  0  0  0  0  0
   40.4460   33.8990   40.8540 C   0  0  0  0  0  0  0  0  0  0  0  0
   40.3380   32.5270   40.8600 C   0  0  0  0  0  0  0  0  0  0  0  0
   39.8860   32.0310   42.0640 C   0  0  0  0  0  0  0  0  0  0  0  0
   39.7260   33.1530   42.7840 N   0  0  0  0  0  0  0  0  0  0  0  0
   40.0450   34.2070   42.0930 N   0  0  0  0  0  0  0  0  0  0  0  0
   43.9080   34.2700   40.7570 C   0  0  0  0  0  0  0  0  0  0  0  0
   44.9860   33.8670   39.7630 C   0  0  0  0  0  0  0  0  0  0  0  0
   43.9250   32.9280   40.1350 C   0  0  0  0  0  0  0  0  0  0  0  0
   44.3290   34.4180   42.1660 C   0  0  0  0  0  0  0  0  0  0  0  0
   44.8780   33.3490   42.8920 C   0  0  0  0  0  0  0  0  0  0  0  0
   45.2570   33.4860   44.2120 C   0  0  0  0  0  0  0  0  0  0  0  0
   45.0720   34.7120   44.7820 N   0  0  0  0  0  0  0  0  0  0  0  0
   44.5360   35.7450   44.0620 C   0  0  0  0  0  0  0  0  0  0  0  0
   44.1940   35.5510   42.8030 N   0  0  0  0  0  0  0  0  0  0  0  0
   43.0300   36.5253   37.8151 H   0  0  0  0  0  0  0  0  0  0  0  0
   41.1533   36.3575   36.2686 H   0  0  0  0  0  0  0  0  0  0  0  0
   39.1490   35.0647   36.9221 H   0  0  0  0  0  0  0  0  0  0  0  0
   39.0817   33.9933   39.1184 H   0  0  0  0  0  0  0  0  0  0  0  0
   40.5861   31.8934   39.9957 H   0  0  0  0  0  0  0  0  0  0  0  0
   39.7037   30.9870   42.3585 H   0  0  0  0  0  0  0  0  0  0  0  0
   39.3933   33.1757   43.7585 H   0  0  0  0  0  0  0  0  0  0  0  0
   46.0174   33.6982   40.1059 H   0  0  0  0  0  0  0  0  0  0  0  0
   45.3702   34.2775   38.8176 H   0  0  0  0  0  0  0  0  0  0  0  0
   43.1531   32.6601   39.3986 H   0  0  0  0  0  0  0  0  0  0  0  0
   43.9163   31.9017   40.5306 H   0  0  0  0  0  0  0  0  0  0  0  0
   45.0096   32.3763   42.3955 H   0  0  0  0  0  0  0  0  0  0  0  0
   45.6878   32.6467   44.7778 H   0  0  0  0  0  0  0  0  0  0  0  0
   44.3914   36.7300   44.5299 H   0  0  0  0  0  0  0  0  0  0  0  0
  1 13  1  0
  2  7  1  0
  2  1  1  0
  3  2  2  0
  4  5  2  0
  4  3  1  0
  5  6  1  0
  6  7  2  0
  7  8  1  0
  8  9  1  0
  8 12  2  0
  9 10  2  0
 10 11  1  0
 12 11  1  0
 13 16  1  0
 14 15  1  0
 14 13  1  0
 15 13  1  0
 16 21  1  0
 16 17  2  0
 17 18  1  0
 18 19  2  0
 20 19  1  0
 21 20  2  0
  3 22  1  0
  4 23  1  0
  5 24  1  0
  6 25  1  0
  9 26  1  0
 10 27  1  0
 11 28  1  0
 14 29  1  0
 14 30  1  0
 15 31  1  0
 15 32  1  0
 17 33  1  0
 18 34  1  0
 20 35  1  0
M  ISO  8  22  14  23  14  24  14  25  14  26  14  27  14  28   9  29  13
M  ISO  6  30  13  31  13  32  13  33  14  34  14  35  14
M  END
>  <minimizedAffinity>  (1) 
-5.39774799

>  <minimizedRMSD>  (1) 
2.07857656

$$$$
