
     RDKit          3D

 35 38  0  0  0  0  0  0  0  0999 V2000
   43.7660   34.2410   41.3000 C   0  0  0  0  0  0  0  0  0  0  0  0
   44.8070   34.1420   40.1950 C   0  0  0  0  0  0  0  0  0  0  0  0
   44.0040   32.9690   40.5970 C   0  0  0  0  0  0  0  0  0  0  0  0
   44.2750   34.4460   42.6720 C   0  0  0  0  0  0  0  0  0  0  0  0
   44.9390   33.3770   43.3410 C   0  0  0  0  0  0  0  0  0  0  0  0
   45.4000   33.5390   44.6430 C   0  0  0  0  0  0  0  0  0  0  0  0
   45.1890   34.7480   45.2300 N   0  0  0  0  0  0  0  0  0  0  0  0
   44.5420   35.7610   44.5520 C   0  0  0  0  0  0  0  0  0  0  0  0
   44.1140   35.5810   43.3140 N   0  0  0  0  0  0  0  0  0  0  0  0
   42.7260   35.1210   41.0070 O   0  0  0  0  0  0  0  0  0  0  0  0
   41.7870   35.0360   39.9930 C   0  0  0  0  0  0  0  0  0  0  0  0
   41.9010   35.5160   38.6950 C   0  0  0  0  0  0  0  0  0  0  0  0
   40.9070   35.3670   37.7810 C   0  0  0  0  0  0  0  0  0  0  0  0
   39.7840   34.7250   38.1810 C   0  0  0  0  0  0  0  0  0  0  0  0
   39.6330   34.2400   39.4490 C   0  0  0  0  0  0  0  0  0  0  0  0
   40.6120   34.3780   40.3720 C   0  0  0  0  0  0  0  0  0  0  0  0
   40.0710   33.6530   41.5640 C   0  0  0  0  0  0  0  0  0  0  0  0
   39.2400   32.4290   41.4940 C   0  0  0  0  0  0  0  0  0  0  0  0
   40.6480   32.2240   41.7630 C   0  0  0  0  0  0  0  0  0  0  0  0
   45.8787   34.1887   40.4387 H   0  0  0  0  0  0  0  0  0  0  0  0
   45.0031   34.6728   39.2517 H   0  0  0  0  0  0  0  0  0  0  0  0
   43.2383   32.5736   39.9133 H   0  0  0  0  0  0  0  0  0  0  0  0
   44.2510   31.9483   40.9243 H   0  0  0  0  0  0  0  0  0  0  0  0
   45.0878   32.4175   42.8241 H   0  0  0  0  0  0  0  0  0  0  0  0
   45.9132   32.7246   45.1753 H   0  0  0  0  0  0  0  0  0  0  0  0
   44.3804   36.7297   45.0474 H   0  0  0  0  0  0  0  0  0  0  0  0
   42.8252   36.0331   38.3975 H   0  0  0  0  0  0  0  0  0  0  0  0
   41.0105   35.7528   36.7561 H   0  0  0  0  0  0  0  0  0  0  0  0
   38.9647   34.5893   37.4597 H   0  0  0  0  0  0  0  0  0  0  0  0
   38.6990   33.7283   39.7242 H   0  0  0  0  0  0  0  0  0  0  0  0
   39.9416   34.6031   42.1031 H   0  0  0  0  0  0  0  0  0  0  0  0
   38.5056   32.2307   42.2886 H   0  0  0  0  0  0  0  0  0  0  0  0
   38.5521   32.0281   40.7350 H   0  0  0  0  0  0  0  0  0  0  0  0
   41.2982   31.7786   40.9956 H   0  0  0  0  0  0  0  0  0  0  0  0
   41.2304   31.7160   42.5458 H   0  0  0  0  0  0  0  0  0  0  0  0
  1  4  1  0
  2  3  1  0
  2  1  1  0
  3  1  1  0
  4  9  1  0
  4  5  2  0
  5  6  1  0
  6  7  2  0
  8  7  1  0
  9  8  2  0
 10  1  1  0
 11 16  1  0
 11 10  1  0
 12 11  2  0
 13 14  2  0
 13 12  1  0
 14 15  1  0
 15 16  2  0
 16 17  1  0
 17 19  1  0
 18 17  1  0
 18 19  1  0
  2 20  1  0
  2 21  1  0
  3 22  1  0
  3 23  1  0
  5 24  1  0
  6 25  1  0
  8 26  1  0
 12 27  1  0
 13 28  1  0
 14 29  1  0
 15 30  1  0
 17 31  1  0
 18 32  1  0
 18 33  1  0
 19 34  1  0
 19 35  1  0
M  ISO  8  20  13  21  13  22  13  23  13  24  14  25  14  26  14  27  14
M  ISO  8  28  14  29  14  30  14  31  13  32  13  33  13  34  13  35  13
M  END
>  <minimizedAffinity>  (1) 
-5.1510725

>  <minimizedRMSD>  (1) 
1.62727582

$$$$
