
     RDKit          3D

 34 36  0  0  0  0  0  0  0  0999 V2000
   43.8250   34.2180   41.0960 C   0  0  0  0  0  0  0  0  0  0  0  0
   44.8760   33.8060   40.0790 C   0  0  0  0  0  0  0  0  0  0  0  0
   43.8470   32.8620   40.5190 C   0  0  0  0  0  0  0  0  0  0  0  0
   44.2990   34.4350   42.4750 C   0  0  0  0  0  0  0  0  0  0  0  0
   44.9210   33.3830   43.2060 C   0  0  0  0  0  0  0  0  0  0  0  0
   45.3450   33.5720   44.5160 C   0  0  0  0  0  0  0  0  0  0  0  0
   45.1310   34.8120   45.0450 N   0  0  0  0  0  0  0  0  0  0  0  0
   44.5340   35.8060   44.3240 C   0  0  0  0  0  0  0  0  0  0  0  0
   44.1440   35.5870   43.0780 N   0  0  0  0  0  0  0  0  0  0  0  0
   42.9990   35.2590   40.6580 O   0  0  0  0  0  0  0  0  0  0  0  0
   41.9250   35.1770   39.7800 C   0  0  0  0  0  0  0  0  0  0  0  0
   41.9400   35.4840   38.4150 C   0  0  0  0  0  0  0  0  0  0  0  0
   40.8370   35.3580   37.6380 C   0  0  0  0  0  0  0  0  0  0  0  0
   39.7150   34.9230   38.2320 C   0  0  0  0  0  0  0  0  0  0  0  0
   39.6640   34.6210   39.5470 C   0  0  0  0  0  0  0  0  0  0  0  0
   40.7310   34.7280   40.3730 C   0  0  0  0  0  0  0  0  0  0  0  0
   40.2710   34.3360   41.7280 C   0  0  0  0  0  0  0  0  0  0  0  0
   39.8900   32.8770   41.8360 C   0  0  0  0  0  0  0  0  0  0  0  0
   45.9218   33.6678   40.3907 H   0  0  0  0  0  0  0  0  0  0  0  0
   45.2197   34.1927   39.1083 H   0  0  0  0  0  0  0  0  0  0  0  0
   43.0552   32.5560   39.8194 H   0  0  0  0  0  0  0  0  0  0  0  0
   43.8721   31.8494   40.9479 H   0  0  0  0  0  0  0  0  0  0  0  0
   45.0683   32.4044   42.7258 H   0  0  0  0  0  0  0  0  0  0  0  0
   45.8255   32.7684   45.0934 H   0  0  0  0  0  0  0  0  0  0  0  0
   44.3762   36.7941   44.7809 H   0  0  0  0  0  0  0  0  0  0  0  0
   42.8759   35.8385   37.9586 H   0  0  0  0  0  0  0  0  0  0  0  0
   40.8603   35.6020   36.5657 H   0  0  0  0  0  0  0  0  0  0  0  0
   38.8043   34.8084   37.6259 H   0  0  0  0  0  0  0  0  0  0  0  0
   38.7095   34.2712   39.9673 H   0  0  0  0  0  0  0  0  0  0  0  0
   41.0820   34.5381   42.4432 H   0  0  0  0  0  0  0  0  0  0  0  0
   39.3671   34.9238   41.9459 H   0  0  0  0  0  0  0  0  0  0  0  0
   39.8163   32.5948   42.8966 H   0  0  0  0  0  0  0  0  0  0  0  0
   38.9192   32.7142   41.3450 H   0  0  0  0  0  0  0  0  0  0  0  0
   40.6572   32.2604   41.3450 H   0  0  0  0  0  0  0  0  0  0  0  0
  1  4  1  0
  2  3  1  0
  2  1  1  0
  3  1  1  0
  4  9  1  0
  4  5  2  0
  5  6  1  0
  6  7  2  0
  8  7  1  0
  9  8  2  0
 10  1  1  0
 11 16  1  0
 11 10  1  0
 12 11  2  0
 13 14  2  0
 13 12  1  0
 14 15  1  0
 15 16  2  0
 16 17  1  0
 17 18  1  0
  2 19  1  0
  2 20  1  0
  3 21  1  0
  3 22  1  0
  5 23  1  0
  6 24  1  0
  8 25  1  0
 12 26  1  0
 13 27  1  0
 14 28  1  0
 15 29  1  0
 17 30  1  0
 17 31  1  0
 18 32  1  0
 18 33  1  0
 18 34  1  0
M  ISO  8  19  13  20  13  21  13  22  13  23  14  24  14  25  14  26  14
M  ISO  8  27  14  28  14  29  14  30   8  31   8  32   8  33   8  34   8
M  END
>  <minimizedAffinity>  (1) 
-5.07136345

>  <minimizedRMSD>  (1) 
1.24455094

$$$$
