
     RDKit          3D

 37 39  0  0  0  0  0  0  0  0999 V2000
   43.7740   34.2390   41.3350 C   0  0  0  0  0  0  0  0  0  0  0  0
   44.8070   34.2830   40.2210 C   0  0  0  0  0  0  0  0  0  0  0  0
   44.1310   33.0310   40.5760 C   0  0  0  0  0  0  0  0  0  0  0  0
   44.2880   34.4230   42.7040 C   0  0  0  0  0  0  0  0  0  0  0  0
   44.9620   33.3570   43.3790 C   0  0  0  0  0  0  0  0  0  0  0  0
   45.4250   33.5200   44.6780 C   0  0  0  0  0  0  0  0  0  0  0  0
   45.2000   34.7310   45.2570 N   0  0  0  0  0  0  0  0  0  0  0  0
   44.5510   35.7380   44.5850 C   0  0  0  0  0  0  0  0  0  0  0  0
   44.1230   35.5550   43.3500 N   0  0  0  0  0  0  0  0  0  0  0  0
   42.6470   35.0300   41.0930 O   0  0  0  0  0  0  0  0  0  0  0  0
   41.8110   34.9890   39.9860 C   0  0  0  0  0  0  0  0  0  0  0  0
   42.0030   35.6110   38.7530 C   0  0  0  0  0  0  0  0  0  0  0  0
   41.1170   35.4880   37.7360 C   0  0  0  0  0  0  0  0  0  0  0  0
   40.0290   34.7290   37.9640 C   0  0  0  0  0  0  0  0  0  0  0  0
   39.8120   34.1150   39.1500 C   0  0  0  0  0  0  0  0  0  0  0  0
   40.6530   34.2080   40.1820 C   0  0  0  0  0  0  0  0  0  0  0  0
   40.0670   33.3680   41.2630 C   0  0  0  0  0  0  0  0  0  0  0  0
   40.8560   32.0770   41.5840 C   0  0  0  0  0  0  0  0  0  0  0  0
   38.7040   32.8600   41.0290 C   0  0  0  0  0  0  0  0  0  0  0  0
   45.8716   34.4233   40.4595 H   0  0  0  0  0  0  0  0  0  0  0  0
   44.9407   34.8674   39.2987 H   0  0  0  0  0  0  0  0  0  0  0  0
   43.4015   32.5910   39.8801 H   0  0  0  0  0  0  0  0  0  0  0  0
   44.4813   32.0272   40.8583 H   0  0  0  0  0  0  0  0  0  0  0  0
   45.1152   32.3975   42.8633 H   0  0  0  0  0  0  0  0  0  0  0  0
   45.9468   32.7119   45.2116 H   0  0  0  0  0  0  0  0  0  0  0  0
   44.3865   36.7060   45.0808 H   0  0  0  0  0  0  0  0  0  0  0  0
   42.9047   36.2224   38.6010 H   0  0  0  0  0  0  0  0  0  0  0  0
   41.2791   35.9854   36.7684 H   0  0  0  0  0  0  0  0  0  0  0  0
   39.2907   34.6036   37.1582 H   0  0  0  0  0  0  0  0  0  0  0  0
   38.9002   33.5113   39.2691 H   0  0  0  0  0  0  0  0  0  0  0  0
   40.0928   34.1076   42.0768 H   0  0  0  0  0  0  0  0  0  0  0  0
   40.9308   31.9546   42.6746 H   0  0  0  0  0  0  0  0  0  0  0  0
   40.3328   31.2108   41.1528 H   0  0  0  0  0  0  0  0  0  0  0  0
   41.8655   32.1475   41.1528 H   0  0  0  0  0  0  0  0  0  0  0  0
   38.2104   32.6760   41.9947 H   0  0  0  0  0  0  0  0  0  0  0  0
   38.1283   33.6039   40.4588 H   0  0  0  0  0  0  0  0  0  0  0  0
   38.7556   31.9207   40.4588 H   0  0  0  0  0  0  0  0  0  0  0  0
  1  4  1  0
  2  3  1  0
  2  1  1  0
  3  1  1  0
  4  9  1  0
  4  5  2  0
  5  6  1  0
  6  7  2  0
  8  7  1  0
  9  8  2  0
 10  1  1  0
 11 16  1  0
 11 10  1  0
 12 11  2  0
 13 14  2  0
 13 12  1  0
 14 15  1  0
 15 16  2  0
 16 17  1  0
 17 18  1  0
 19 17  1  0
  2 20  1  0
  2 21  1  0
  3 22  1  0
  3 23  1  0
  5 24  1  0
  6 25  1  0
  8 26  1  0
 12 27  1  0
 13 28  1  0
 14 29  1  0
 15 30  1  0
 17 31  1  0
 18 32  1  0
 18 33  1  0
 18 34  1  0
 19 35  1  0
 19 36  1  0
 19 37  1  0
M  ISO  8  20  13  21  13  22  13  23  13  24  14  25  14  26  14  27  14
M  ISO  8  28  14  29  14  30  14  31   8  32   8  33   8  34   8  35   8
M  ISO  2  36   8  37   8
M  END
>  <minimizedAffinity>  (1) 
-5.02006149

>  <minimizedRMSD>  (1) 
1.7287612

$$$$
