
     RDKit          3D

 41 44  0  0  0  0  0  0  0  0999 V2000
   44.2410   34.3610   41.2690 C   0  0  0  0  0  0  0  0  0  0  0  0
   44.5840   35.4030   42.3220 C   0  0  0  0  0  0  0  0  0  0  0  0
   44.4680   33.9840   42.6850 C   0  0  0  0  0  0  0  0  0  0  0  0
   42.8620   34.3870   40.7520 C   0  0  0  0  0  0  0  0  0  0  0  0
   41.8650   33.5040   41.2630 C   0  0  0  0  0  0  0  0  0  0  0  0
   40.5680   33.5450   40.7490 C   0  0  0  0  0  0  0  0  0  0  0  0
   40.3110   34.4500   39.7600 N   0  0  0  0  0  0  0  0  0  0  0  0
   41.2990   35.2850   39.2930 C   0  0  0  0  0  0  0  0  0  0  0  0
   42.5160   35.2150   39.8070 N   0  0  0  0  0  0  0  0  0  0  0  0
   45.1970   34.2500   40.2560 O   0  0  0  0  0  0  0  0  0  0  0  0
   45.9670   33.1290   39.9560 C   0  0  0  0  0  0  0  0  0  0  0  0
   45.6020   31.9910   39.2110 C   0  0  0  0  0  0  0  0  0  0  0  0
   46.4560   30.9790   38.9750 C   0  0  0  0  0  0  0  0  0  0  0  0
   47.6930   31.0940   39.4870 C   0  0  0  0  0  0  0  0  0  0  0  0
   48.1040   32.1540   40.2120 C   0  0  0  0  0  0  0  0  0  0  0  0
   47.2670   33.1930   40.4730 C   0  0  0  0  0  0  0  0  0  0  0  0
   48.0250   34.1390   41.3220 C   0  0  0  0  0  0  0  0  0  0  0  0
   48.4670   35.3970   40.6960 C   0  0  0  0  0  0  0  0  0  0  0  0
   49.4040   35.9860   41.7360 C   0  0  0  0  0  0  0  0  0  0  0  0
   49.7340   34.8470   42.7030 C   0  0  0  0  0  0  0  0  0  0  0  0
   49.4220   33.6400   41.7700 C   0  0  0  0  0  0  0  0  0  0  0  0
   45.5695   35.8915   42.3141 H   0  0  0  0  0  0  0  0  0  0  0  0
   44.1253   36.3391   42.6731 H   0  0  0  0  0  0  0  0  0  0  0  0
   43.6213   33.6472   43.3011 H   0  0  0  0  0  0  0  0  0  0  0  0
   45.1312   33.2659   43.1894 H   0  0  0  0  0  0  0  0  0  0  0  0
   42.1182   32.7912   42.0616 H   0  0  0  0  0  0  0  0  0  0  0  0
   39.7828   32.8735   41.1266 H   0  0  0  0  0  0  0  0  0  0  0  0
   41.0780   36.0087   38.4947 H   0  0  0  0  0  0  0  0  0  0  0  0
   44.5808   31.9274   38.8072 H   0  0  0  0  0  0  0  0  0  0  0  0
   46.1555   30.0975   38.3896 H   0  0  0  0  0  0  0  0  0  0  0  0
   48.4092   30.2792   39.3048 H   0  0  0  0  0  0  0  0  0  0  0  0
   49.1335   32.1785   40.5986 H   0  0  0  0  0  0  0  0  0  0  0  0
   47.2629   34.2575   42.1063 H   0  0  0  0  0  0  0  0  0  0  0  0
   48.9964   35.2037   39.7513 H   0  0  0  0  0  0  0  0  0  0  0  0
   47.6344   36.0666   40.4342 H   0  0  0  0  0  0  0  0  0  0  0  0
   50.3216   36.3576   41.2564 H   0  0  0  0  0  0  0  0  0  0  0  0
   48.9410   36.8358   42.2589 H   0  0  0  0  0  0  0  0  0  0  0  0
   50.7881   34.8644   43.0169 H   0  0  0  0  0  0  0  0  0  0  0  0
   49.1869   34.8621   43.6572 H   0  0  0  0  0  0  0  0  0  0  0  0
   49.3781   32.6839   42.3122 H   0  0  0  0  0  0  0  0  0  0  0  0
   50.1523   33.4153   40.9787 H   0  0  0  0  0  0  0  0  0  0  0  0
  1  2  1  0
  1  3  1  0
  2  3  1  0
  4  5  2  0
  4  1  1  0
  6  5  1  0
  7  6  2  0
  8  7  1  0
  8  9  2  0
  9  4  1  0
 10  1  1  0
 11 10  1  0
 11 16  1  0
 12 11  2  0
 13 12  1  0
 13 14  2  0
 14 15  1  0
 15 16  2  0
 16 17  1  0
 17 21  1  0
 18 17  1  0
 18 19  1  0
 19 20  1  0
 21 20  1  0
  2 22  1  0
  2 23  1  0
  3 24  1  0
  3 25  1  0
  5 26  1  0
  6 27  1  0
  8 28  1  0
 12 29  1  0
 13 30  1  0
 14 31  1  0
 15 32  1  0
 17 33  1  0
 18 34  1  0
 18 35  1  0
 19 36  1  0
 19 37  1  0
 20 38  1  0
 20 39  1  0
 21 40  1  0
 21 41  1  0
M  ISO  8  22  13  23  13  24  13  25  13  26  14  27  14  28  14  29  14
M  ISO  8  30  14  31  14  32  14  33  13  34  13  35  13  36  13  37  13
M  ISO  4  38  13  39  13  40  13  41  13
M  END
>  <minimizedAffinity>  (1) 
-4.91562462

>  <minimizedRMSD>  (1) 
6.10517883

$$$$
