
     RDKit          3D

 54 58  0  0  0  0  0  0  0  0999 V2000
   41.7040   35.1020   39.6190 C   0  0  0  0  0  0  0  0  0  0  0  0
   41.9850   35.8090   38.4220 C   0  0  0  0  0  0  0  0  0  0  0  0
   41.1570   35.8060   37.4010 C   0  0  0  0  0  0  0  0  0  0  0  0
   40.0350   35.0980   37.5740 C   0  0  0  0  0  0  0  0  0  0  0  0
   39.7060   34.4100   38.6840 C   0  0  0  0  0  0  0  0  0  0  0  0
   40.5130   34.3710   39.7540 C   0  0  0  0  0  0  0  0  0  0  0  0
   42.5070   35.0280   40.7560 O   0  0  0  0  0  0  0  0  0  0  0  0
   43.5610   34.1240   40.9730 C   0  0  0  0  0  0  0  0  0  0  0  0
   44.5390   34.0190   39.8300 C   0  0  0  0  0  0  0  0  0  0  0  0
   43.7620   32.8620   40.2590 C   0  0  0  0  0  0  0  0  0  0  0  0
   44.1330   34.3230   42.3170 C   0  0  0  0  0  0  0  0  0  0  0  0
   44.7790   33.2560   43.0050 C   0  0  0  0  0  0  0  0  0  0  0  0
   45.3180   33.4160   44.2650 C   0  0  0  0  0  0  0  0  0  0  0  0
   45.2010   34.6570   44.8210 N   0  0  0  0  0  0  0  0  0  0  0  0
   44.5750   35.6680   44.1400 C   0  0  0  0  0  0  0  0  0  0  0  0
   44.0790   35.4550   42.9380 N   0  0  0  0  0  0  0  0  0  0  0  0
   39.8090   33.4820   40.7130 C   0  0  0  0  0  0  0  0  0  0  0  0
   40.4610   32.1060   40.8830 C   0  0  0  0  0  0  0  0  0  0  0  0
   40.0200   34.0090   42.1020 C   0  0  0  0  0  0  0  0  0  0  0  0
   38.4520   33.0850   40.3340 C   0  0  0  0  0  0  0  0  0  0  0  0
   38.1550   31.6840   40.2630 N   0  0  0  0  0  0  0  0  0  0  0  0
   37.6990   30.9700   41.3380 C   0  0  0  0  0  0  0  0  0  0  0  0
   37.5080   29.6500   41.0460 N   0  0  0  0  0  0  0  0  0  0  0  0
   37.8460   29.5020   39.7540 C   0  0  0  0  0  0  0  0  0  0  0  0
   37.8790   28.4630   38.8400 C   0  0  0  0  0  0  0  0  0  0  0  0
   37.5400   27.3270   39.1970 O   0  0  0  0  0  0  0  0  0  0  0  0
   38.2720   28.6430   37.5490 N   0  0  0  0  0  0  0  0  0  0  0  0
   38.6460   29.8640   37.1270 C   0  0  0  0  0  0  0  0  0  0  0  0
   39.0470   29.9830   35.7580 N   0  0  0  0  0  0  0  0  0  0  0  0
   38.6310   30.9010   37.9800 N   0  0  0  0  0  0  0  0  0  0  0  0
   38.2370   30.7320   39.2810 C   0  0  0  0  0  0  0  0  0  0  0  0
   42.9240   36.3769   38.3457 H   0  0  0  0  0  0  0  0  0  0  0  0
   41.3719   36.3483   36.4684 H   0  0  0  0  0  0  0  0  0  0  0  0
   39.3202   35.0760   36.7382 H   0  0  0  0  0  0  0  0  0  0  0  0
   38.7504   33.8659   38.7136 H   0  0  0  0  0  0  0  0  0  0  0  0
   45.6211   34.0602   40.0233 H   0  0  0  0  0  0  0  0  0  0  0  0
   44.6921   34.5505   38.8792 H   0  0  0  0  0  0  0  0  0  0  0  0
   42.9645   32.4712   39.6099 H   0  0  0  0  0  0  0  0  0  0  0  0
   44.0211   31.8394   40.5708 H   0  0  0  0  0  0  0  0  0  0  0  0
   44.8504   32.2732   42.5162 H   0  0  0  0  0  0  0  0  0  0  0  0
   45.8149   32.5885   44.7926 H   0  0  0  0  0  0  0  0  0  0  0  0
   44.4860   36.6634   44.5996 H   0  0  0  0  0  0  0  0  0  0  0  0
   40.5678   31.8807   41.9544 H   0  0  0  0  0  0  0  0  0  0  0  0
   39.8300   31.3401   40.4083 H   0  0  0  0  0  0  0  0  0  0  0  0
   41.4533   32.1093   40.4083 H   0  0  0  0  0  0  0  0  0  0  0  0
   39.7147   33.2465   42.8338 H   0  0  0  0  0  0  0  0  0  0  0  0
   41.0838   34.2496   42.2452 H   0  0  0  0  0  0  0  0  0  0  0  0
   39.4162   34.9172   42.2452 H   0  0  0  0  0  0  0  0  0  0  0  0
   37.7643   33.5282   41.0693 H   0  0  0  0  0  0  0  0  0  0  0  0
   38.3404   33.4420   39.2995 H   0  0  0  0  0  0  0  0  0  0  0  0
   37.5076   31.4108   42.3275 H   0  0  0  0  0  0  0  0  0  0  0  0
   38.2829   27.8458   36.8969 H   0  0  0  0  0  0  0  0  0  0  0  0
   39.3424   30.8967   35.3855 H   0  0  0  0  0  0  0  0  0  0  0  0
   39.0401   29.1549   35.1455 H   0  0  0  0  0  0  0  0  0  0  0  0
  1  6  1  0
  1  7  1  0
  2  1  2  0
  3  4  2  0
  3  2  1  0
  4  5  1  0
  5  6  2  0
  6 17  1  0
  7  8  1  0
  8 11  1  0
  9 10  1  0
  9  8  1  0
 10  8  1  0
 11 16  1  0
 11 12  2  0
 12 13  1  0
 13 14  2  0
 15 14  1  0
 16 15  2  0
 17 18  1  0
 17 19  1  0
 20 17  1  0
 21 20  1  0
 21 22  1  0
 23 22  2  0
 24 23  1  0
 25 26  2  0
 25 24  1  0
 27 25  1  0
 28 27  1  0
 28 30  2  0
 29 28  1  0
 30 31  1  0
 31 24  2  0
 31 21  1  0
  2 32  1  0
  3 33  1  0
  4 34  1  0
  5 35  1  0
  9 36  1  0
  9 37  1  0
 10 38  1  0
 10 39  1  0
 12 40  1  0
 13 41  1  0
 15 42  1  0
 18 43  1  0
 18 44  1  0
 18 45  1  0
 19 46  1  0
 19 47  1  0
 19 48  1  0
 20 49  1  0
 20 50  1  0
 22 51  1  0
 27 52  1  0
 29 53  1  0
 29 54  1  0
M  ISO  8  32  14  33  14  34  14  35  14  36  13  37  13  38  13  39  13
M  ISO  8  40  14  41  14  42  14  43   8  44   8  45   8  46   8  47   8
M  ISO  5  48   8  49   8  50   8  51  14  52   9
M  END
>  <minimizedAffinity>  (1) 
-6.05862904

>  <minimizedRMSD>  (1) 
2.53461552

$$$$
