
     RDKit          3D

 48 51  0  0  0  0  0  0  0  0999 V2000
   41.7900   35.1770   39.6620 C   0  0  0  0  0  0  0  0  0  0  0  0
   42.0880   35.8310   38.4460 C   0  0  0  0  0  0  0  0  0  0  0  0
   41.2630   35.8270   37.4260 C   0  0  0  0  0  0  0  0  0  0  0  0
   40.1250   35.1690   37.6260 C   0  0  0  0  0  0  0  0  0  0  0  0
   39.7700   34.5320   38.7520 C   0  0  0  0  0  0  0  0  0  0  0  0
   40.5740   34.4930   39.8220 C   0  0  0  0  0  0  0  0  0  0  0  0
   42.5840   35.1060   40.8140 O   0  0  0  0  0  0  0  0  0  0  0  0
   43.6070   34.1810   41.0520 C   0  0  0  0  0  0  0  0  0  0  0  0
   44.6050   34.0410   39.9290 C   0  0  0  0  0  0  0  0  0  0  0  0
   43.7930   32.9110   40.3490 C   0  0  0  0  0  0  0  0  0  0  0  0
   44.1650   34.3810   42.4060 C   0  0  0  0  0  0  0  0  0  0  0  0
   44.8170   33.3150   43.0900 C   0  0  0  0  0  0  0  0  0  0  0  0
   45.3390   33.4800   44.3600 C   0  0  0  0  0  0  0  0  0  0  0  0
   45.1990   34.7100   44.9220 N   0  0  0  0  0  0  0  0  0  0  0  0
   44.5650   35.7220   44.2410 C   0  0  0  0  0  0  0  0  0  0  0  0
   44.0860   35.5080   43.0310 N   0  0  0  0  0  0  0  0  0  0  0  0
   39.8260   33.7030   40.8030 C   0  0  0  0  0  0  0  0  0  0  0  0
   40.4590   32.2540   41.0210 C   0  0  0  0  0  0  0  0  0  0  0  0
   40.0760   34.1990   42.1750 C   0  0  0  0  0  0  0  0  0  0  0  0
   38.5080   33.1460   40.4240 C   0  0  0  0  0  0  0  0  0  0  0  0
   38.2140   31.7280   40.5770 C   0  0  0  0  0  0  0  0  0  0  0  0
   38.2340   30.9730   39.3710 C   0  0  0  0  0  0  0  0  0  0  0  0
   38.0630   29.6360   39.0690 C   0  0  0  0  0  0  0  0  0  0  0  0
   37.8220   28.8670   40.1640 N   0  0  0  0  0  0  0  0  0  0  0  0
   37.7850   29.4870   41.3490 C   0  0  0  0  0  0  0  0  0  0  0  0
   37.9690   30.7680   41.4660 N   0  0  0  0  0  0  0  0  0  0  0  0
   43.0462   36.3628   38.3509 H   0  0  0  0  0  0  0  0  0  0  0  0
   41.4954   36.3305   36.4760 H   0  0  0  0  0  0  0  0  0  0  0  0
   39.4088   35.1447   36.7914 H   0  0  0  0  0  0  0  0  0  0  0  0
   38.7930   34.0286   38.7974 H   0  0  0  0  0  0  0  0  0  0  0  0
   45.6837   34.0560   40.1437 H   0  0  0  0  0  0  0  0  0  0  0  0
   44.7904   34.5608   38.9774 H   0  0  0  0  0  0  0  0  0  0  0  0
   42.9997   32.5355   39.6860 H   0  0  0  0  0  0  0  0  0  0  0  0
   44.0210   31.8847   40.6728 H   0  0  0  0  0  0  0  0  0  0  0  0
   44.9075   32.3364   42.5958 H   0  0  0  0  0  0  0  0  0  0  0  0
   45.8423   32.6572   44.8889 H   0  0  0  0  0  0  0  0  0  0  0  0
   44.4569   36.7128   44.7065 H   0  0  0  0  0  0  0  0  0  0  0  0
   40.5477   32.0509   42.0985 H   0  0  0  0  0  0  0  0  0  0  0  0
   39.8097   31.4967   40.5574 H   0  0  0  0  0  0  0  0  0  0  0  0
   41.4558   32.2158   40.5574 H   0  0  0  0  0  0  0  0  0  0  0  0
   39.7053   33.4634   42.9040 H   0  0  0  0  0  0  0  0  0  0  0  0
   41.1563   34.3468   42.3203 H   0  0  0  0  0  0  0  0  0  0  0  0
   39.5522   35.1553   42.3203 H   0  0  0  0  0  0  0  0  0  0  0  0
   38.3656   33.3803   39.3587 H   0  0  0  0  0  0  0  0  0  0  0  0
   37.8326   33.6104   41.1576 H   0  0  0  0  0  0  0  0  0  0  0  0
   38.4288   31.5911   38.4822 H   0  0  0  0  0  0  0  0  0  0  0  0
   38.1164   29.2342   38.0464 H   0  0  0  0  0  0  0  0  0  0  0  0
   37.5924   28.8926   42.2543 H   0  0  0  0  0  0  0  0  0  0  0  0
  1  6  1  0
  1  7  1  0
  2  1  2  0
  3  4  2  0
  3  2  1  0
  4  5  1  0
  5  6  2  0
  6 17  1  0
  7  8  1  0
  8 11  1  0
  9 10  1  0
  9  8  1  0
 10  8  1  0
 11 16  1  0
 11 12  2  0
 12 13  1  0
 13 14  2  0
 15 14  1  0
 16 15  2  0
 17 18  1  0
 17 19  1  0
 20 21  1  0
 20 17  1  0
 21 26  1  0
 22 21  2  0
 23 22  1  0
 23 24  2  0
 24 25  1  0
 25 26  2  0
  2 27  1  0
  3 28  1  0
  4 29  1  0
  5 30  1  0
  9 31  1  0
  9 32  1  0
 10 33  1  0
 10 34  1  0
 12 35  1  0
 13 36  1  0
 15 37  1  0
 18 38  1  0
 18 39  1  0
 18 40  1  0
 19 41  1  0
 19 42  1  0
 19 43  1  0
 20 44  1  0
 20 45  1  0
 22 46  1  0
 23 47  1  0
 25 48  1  0
M  ISO  8  27  14  28  14  29  14  30  14  31  13  32  13  33  13  34  13
M  ISO  8  35  14  36  14  37  14  38   8  39   8  40   8  41   8  42   8
M  ISO  6  43   8  44   8  45   8  46  14  47  14  48  14
M  END
>  <minimizedAffinity>  (1) 
-5.74443197

>  <minimizedRMSD>  (1) 
1.23749042

$$$$
