
     RDKit          3D

 47 50  0  0  0  0  0  0  0  0999 V2000
   41.7980   35.2260   39.5680 C   0  0  0  0  0  0  0  0  0  0  0  0
   42.0860   35.8600   38.3300 C   0  0  0  0  0  0  0  0  0  0  0  0
   41.2430   35.8410   37.3240 C   0  0  0  0  0  0  0  0  0  0  0  0
   40.0990   35.1900   37.5510 C   0  0  0  0  0  0  0  0  0  0  0  0
   39.7600   34.5730   38.6990 C   0  0  0  0  0  0  0  0  0  0  0  0
   40.5830   34.5550   39.7560 C   0  0  0  0  0  0  0  0  0  0  0  0
   42.6130   35.1680   40.7040 O   0  0  0  0  0  0  0  0  0  0  0  0
   43.6160   34.2030   40.9410 C   0  0  0  0  0  0  0  0  0  0  0  0
   44.6200   34.0330   39.8290 C   0  0  0  0  0  0  0  0  0  0  0  0
   43.7670   32.9230   40.2340 C   0  0  0  0  0  0  0  0  0  0  0  0
   44.1630   34.3750   42.2960 C   0  0  0  0  0  0  0  0  0  0  0  0
   44.7910   33.2910   42.9760 C   0  0  0  0  0  0  0  0  0  0  0  0
   45.3120   33.4200   44.2510 C   0  0  0  0  0  0  0  0  0  0  0  0
   45.1880   34.6550   44.8260 N   0  0  0  0  0  0  0  0  0  0  0  0
   44.5800   35.6770   44.1510 C   0  0  0  0  0  0  0  0  0  0  0  0
   44.1030   35.4940   42.9370 N   0  0  0  0  0  0  0  0  0  0  0  0
   39.8550   33.7490   40.7670 C   0  0  0  0  0  0  0  0  0  0  0  0
   40.4520   32.3310   41.0150 C   0  0  0  0  0  0  0  0  0  0  0  0
   40.1360   34.3270   42.1270 C   0  0  0  0  0  0  0  0  0  0  0  0
   38.4940   33.3470   40.3940 C   0  0  0  0  0  0  0  0  0  0  0  0
   38.2230   31.8890   40.2970 C   0  0  0  0  0  0  0  0  0  0  0  0
   38.3980   30.9050   39.3080 C   0  0  0  0  0  0  0  0  0  0  0  0
   37.9730   29.6890   39.7330 C   0  0  0  0  0  0  0  0  0  0  0  0
   37.5300   29.9480   41.0120 C   0  0  0  0  0  0  0  0  0  0  0  0
   37.6840   31.1980   41.3030 O   0  0  0  0  0  0  0  0  0  0  0  0
   43.0460   36.3836   38.2105 H   0  0  0  0  0  0  0  0  0  0  0  0
   41.4631   36.3269   36.3620 H   0  0  0  0  0  0  0  0  0  0  0  0
   39.3699   35.1548   36.7281 H   0  0  0  0  0  0  0  0  0  0  0  0
   38.7836   34.0716   38.7706 H   0  0  0  0  0  0  0  0  0  0  0  0
   45.6962   34.0129   40.0558 H   0  0  0  0  0  0  0  0  0  0  0  0
   44.8316   34.5504   38.8816 H   0  0  0  0  0  0  0  0  0  0  0  0
   42.9695   32.5756   39.5608 H   0  0  0  0  0  0  0  0  0  0  0  0
   43.9575   31.8884   40.5554 H   0  0  0  0  0  0  0  0  0  0  0  0
   44.8639   32.3175   42.4690 H   0  0  0  0  0  0  0  0  0  0  0  0
   45.7966   32.5804   44.7709 H   0  0  0  0  0  0  0  0  0  0  0  0
   44.4881   36.6641   44.6277 H   0  0  0  0  0  0  0  0  0  0  0  0
   40.5284   32.1495   42.0972 H   0  0  0  0  0  0  0  0  0  0  0  0
   39.7967   31.5728   40.5614 H   0  0  0  0  0  0  0  0  0  0  0  0
   41.4523   32.2698   40.5614 H   0  0  0  0  0  0  0  0  0  0  0  0
   39.7945   33.6246   42.9016 H   0  0  0  0  0  0  0  0  0  0  0  0
   41.2172   34.4968   42.2370 H   0  0  0  0  0  0  0  0  0  0  0  0
   39.6017   35.2822   42.2370 H   0  0  0  0  0  0  0  0  0  0  0  0
   37.8075   33.7626   41.1463 H   0  0  0  0  0  0  0  0  0  0  0  0
   38.3524   33.7320   39.3734 H   0  0  0  0  0  0  0  0  0  0  0  0
   38.8263   31.0974   38.3133 H   0  0  0  0  0  0  0  0  0  0  0  0
   37.9802   28.7321   39.1905 H   0  0  0  0  0  0  0  0  0  0  0  0
   37.1042   29.1950   41.6914 H   0  0  0  0  0  0  0  0  0  0  0  0
  1  6  1  0
  1  7  1  0
  2  1  2  0
  3  4  2  0
  3  2  1  0
  4  5  1  0
  5  6  2  0
  6 17  1  0
  7  8  1  0
  8 11  1  0
  9 10  1  0
  9  8  1  0
 10  8  1  0
 11 16  1  0
 11 12  2  0
 12 13  1  0
 13 14  2  0
 15 14  1  0
 16 15  2  0
 17 18  1  0
 17 19  1  0
 20 17  1  0
 21 20  1  0
 21 25  1  0
 22 23  1  0
 22 21  2  0
 23 24  2  0
 24 25  1  0
  2 26  1  0
  3 27  1  0
  4 28  1  0
  5 29  1  0
  9 30  1  0
  9 31  1  0
 10 32  1  0
 10 33  1  0
 12 34  1  0
 13 35  1  0
 15 36  1  0
 18 37  1  0
 18 38  1  0
 18 39  1  0
 19 40  1  0
 19 41  1  0
 19 42  1  0
 20 43  1  0
 20 44  1  0
 22 45  1  0
 23 46  1  0
 24 47  1  0
M  ISO  8  26  14  27  14  28  14  29  14  30  13  31  13  32  13  33  13
M  ISO  8  34  14  35  14  36  14  37   8  38   8  39   8  40   8  41   8
M  ISO  6  42   8  43   8  44   8  45  14  46  14  47  14
M  END
>  <minimizedAffinity>  (1) 
-5.71342516

>  <minimizedRMSD>  (1) 
1.18695128

$$$$
