
     RDKit          3D

 47 50  0  0  0  0  0  0  0  0999 V2000
   41.7450   35.1360   39.6720 C   0  0  0  0  0  0  0  0  0  0  0  0
   42.0380   35.8020   38.4550 C   0  0  0  0  0  0  0  0  0  0  0  0
   41.2100   35.7870   37.4300 C   0  0  0  0  0  0  0  0  0  0  0  0
   40.0800   35.1010   37.6260 C   0  0  0  0  0  0  0  0  0  0  0  0
   39.7370   34.4490   38.7560 C   0  0  0  0  0  0  0  0  0  0  0  0
   40.5430   34.4280   39.8270 C   0  0  0  0  0  0  0  0  0  0  0  0
   42.5450   35.0740   40.8190 O   0  0  0  0  0  0  0  0  0  0  0  0
   43.5900   34.1600   41.0450 C   0  0  0  0  0  0  0  0  0  0  0  0
   44.5780   34.0210   39.9150 C   0  0  0  0  0  0  0  0  0  0  0  0
   43.7760   32.8820   40.3410 C   0  0  0  0  0  0  0  0  0  0  0  0
   44.1560   34.3600   42.3890 C   0  0  0  0  0  0  0  0  0  0  0  0
   44.8090   33.2920   43.0780 C   0  0  0  0  0  0  0  0  0  0  0  0
   45.3440   33.4540   44.3420 C   0  0  0  0  0  0  0  0  0  0  0  0
   45.2120   34.6860   44.8940 N   0  0  0  0  0  0  0  0  0  0  0  0
   44.5770   35.7120   44.2160 C   0  0  0  0  0  0  0  0  0  0  0  0
   44.0880   35.4910   43.0100 N   0  0  0  0  0  0  0  0  0  0  0  0
   39.8180   33.6000   40.8170 C   0  0  0  0  0  0  0  0  0  0  0  0
   40.4320   32.1890   41.0240 C   0  0  0  0  0  0  0  0  0  0  0  0
   40.0820   34.1370   42.1960 C   0  0  0  0  0  0  0  0  0  0  0  0
   38.4540   33.2150   40.4570 C   0  0  0  0  0  0  0  0  0  0  0  0
   38.2030   31.8020   40.2500 N   0  0  0  0  0  0  0  0  0  0  0  0
   37.6670   31.0330   41.2150 N   0  0  0  0  0  0  0  0  0  0  0  0
   37.5040   29.7740   40.7840 C   0  0  0  0  0  0  0  0  0  0  0  0
   37.9440   29.6870   39.4860 C   0  0  0  0  0  0  0  0  0  0  0  0
   38.3630   30.9430   39.1950 C   0  0  0  0  0  0  0  0  0  0  0  0
   42.9878   36.3492   38.3635 H   0  0  0  0  0  0  0  0  0  0  0  0
   41.4324   36.3010   36.4833 H   0  0  0  0  0  0  0  0  0  0  0  0
   39.3652   35.0648   36.7907 H   0  0  0  0  0  0  0  0  0  0  0  0
   38.7726   33.9218   38.7997 H   0  0  0  0  0  0  0  0  0  0  0  0
   45.6583   34.0427   40.1212 H   0  0  0  0  0  0  0  0  0  0  0  0
   44.7517   34.5407   38.9612 H   0  0  0  0  0  0  0  0  0  0  0  0
   42.9796   32.5010   39.6848 H   0  0  0  0  0  0  0  0  0  0  0  0
   44.0116   31.8571   40.6635 H   0  0  0  0  0  0  0  0  0  0  0  0
   44.8883   32.3107   42.5873 H   0  0  0  0  0  0  0  0  0  0  0  0
   45.8479   32.6311   44.8701 H   0  0  0  0  0  0  0  0  0  0  0  0
   44.4805   36.7051   44.6791 H   0  0  0  0  0  0  0  0  0  0  0  0
   40.5218   31.9826   42.1007 H   0  0  0  0  0  0  0  0  0  0  0  0
   39.7810   31.4340   40.5590 H   0  0  0  0  0  0  0  0  0  0  0  0
   41.4281   32.1508   40.5590 H   0  0  0  0  0  0  0  0  0  0  0  0
   39.7267   33.4142   42.9452 H   0  0  0  0  0  0  0  0  0  0  0  0
   41.1623   34.2986   42.3260 H   0  0  0  0  0  0  0  0  0  0  0  0
   39.5503   35.0911   42.3260 H   0  0  0  0  0  0  0  0  0  0  0  0
   37.7888   33.5557   41.2641 H   0  0  0  0  0  0  0  0  0  0  0  0
   38.2729   33.6842   39.4787 H   0  0  0  0  0  0  0  0  0  0  0  0
   37.0858   28.9453   41.3742 H   0  0  0  0  0  0  0  0  0  0  0  0
   37.9541   28.8020   38.8328 H   0  0  0  0  0  0  0  0  0  0  0  0
   38.7835   31.2387   38.2225 H   0  0  0  0  0  0  0  0  0  0  0  0
  1  6  1  0
  1  7  1  0
  2  1  2  0
  3  4  2  0
  3  2  1  0
  4  5  1  0
  5  6  2  0
  6 17  1  0
  7  8  1  0
  8 11  1  0
  9 10  1  0
  9  8  1  0
 10  8  1  0
 11 16  1  0
 11 12  2  0
 12 13  1  0
 13 14  2  0
 15 14  1  0
 16 15  2  0
 17 18  1  0
 17 19  1  0
 20 17  1  0
 21 20  1  0
 21 22  1  0
 23 22  2  0
 24 23  1  0
 25 24  2  0
 25 21  1  0
  2 26  1  0
  3 27  1  0
  4 28  1  0
  5 29  1  0
  9 30  1  0
  9 31  1  0
 10 32  1  0
 10 33  1  0
 12 34  1  0
 13 35  1  0
 15 36  1  0
 18 37  1  0
 18 38  1  0
 18 39  1  0
 19 40  1  0
 19 41  1  0
 19 42  1  0
 20 43  1  0
 20 44  1  0
 23 45  1  0
 24 46  1  0
 25 47  1  0
M  ISO  8  26  14  27  14  28  14  29  14  30  13  31  13  32  13  33  13
M  ISO  8  34  14  35  14  36  14  37   8  38   8  39   8  40   8  41   8
M  ISO  6  42   8  43   8  44   8  45  14  46  14  47  14
M  END
>  <minimizedAffinity>  (1) 
-5.58943939

>  <minimizedRMSD>  (1) 
1.2759316

$$$$
