
     RDKit          3D

 47 50  0  0  0  0  0  0  0  0999 V2000
   41.5750   34.9480   39.6770 C   0  0  0  0  0  0  0  0  0  0  0  0
   41.7280   35.6250   38.4600 C   0  0  0  0  0  0  0  0  0  0  0  0
   40.8220   35.5330   37.4770 C   0  0  0  0  0  0  0  0  0  0  0  0
   39.7530   34.7430   37.7370 C   0  0  0  0  0  0  0  0  0  0  0  0
   39.5950   34.0880   38.9020 C   0  0  0  0  0  0  0  0  0  0  0  0
   40.4370   34.1320   39.9130 C   0  0  0  0  0  0  0  0  0  0  0  0
   42.4480   34.9700   40.7550 O   0  0  0  0  0  0  0  0  0  0  0  0
   43.5460   34.1130   40.9610 C   0  0  0  0  0  0  0  0  0  0  0  0
   44.5260   34.0730   39.8190 C   0  0  0  0  0  0  0  0  0  0  0  0
   43.8030   32.8710   40.2340 C   0  0  0  0  0  0  0  0  0  0  0  0
   44.1160   34.3190   42.3050 C   0  0  0  0  0  0  0  0  0  0  0  0
   44.7750   33.2690   42.9950 C   0  0  0  0  0  0  0  0  0  0  0  0
   45.3130   33.4400   44.2560 C   0  0  0  0  0  0  0  0  0  0  0  0
   45.1750   34.6750   44.8040 N   0  0  0  0  0  0  0  0  0  0  0  0
   44.5330   35.6830   44.1200 C   0  0  0  0  0  0  0  0  0  0  0  0
   44.0390   35.4670   42.9210 N   0  0  0  0  0  0  0  0  0  0  0  0
   39.8070   33.3420   41.0020 C   0  0  0  0  0  0  0  0  0  0  0  0
   40.6230   32.0380   41.3000 C   0  0  0  0  0  0  0  0  0  0  0  0
   39.9980   34.0240   42.3040 C   0  0  0  0  0  0  0  0  0  0  0  0
   38.5410   32.6930   40.6600 C   0  0  0  0  0  0  0  0  0  0  0  0
   38.4940   31.2220   40.9720 C   0  0  0  0  0  0  0  0  0  0  0  0
   37.2580   30.4770   41.3150 C   0  0  0  0  0  0  0  0  0  0  0  0
   37.8360   30.3190   39.9320 C   0  0  0  0  0  0  0  0  0  0  0  0
   42.6192   36.2513   38.3067 H   0  0  0  0  0  0  0  0  0  0  0  0
   40.9389   36.0645   36.5211 H   0  0  0  0  0  0  0  0  0  0  0  0
   38.9802   34.6319   36.9621 H   0  0  0  0  0  0  0  0  0  0  0  0
   38.6935   33.4686   39.0183 H   0  0  0  0  0  0  0  0  0  0  0  0
   45.6049   34.1637   40.0130 H   0  0  0  0  0  0  0  0  0  0  0  0
   44.6532   34.6245   38.8758 H   0  0  0  0  0  0  0  0  0  0  0  0
   43.0239   32.4514   39.5806 H   0  0  0  0  0  0  0  0  0  0  0  0
   44.1092   31.8576   40.5329 H   0  0  0  0  0  0  0  0  0  0  0  0
   44.8605   32.2856   42.5096 H   0  0  0  0  0  0  0  0  0  0  0  0
   45.8239   32.6226   44.7859 H   0  0  0  0  0  0  0  0  0  0  0  0
   44.4327   36.6769   44.5805 H   0  0  0  0  0  0  0  0  0  0  0  0
   40.7093   31.9001   42.3879 H   0  0  0  0  0  0  0  0  0  0  0  0
   40.1049   31.1728   40.8607 H   0  0  0  0  0  0  0  0  0  0  0  0
   41.6276   32.1257   40.8607 H   0  0  0  0  0  0  0  0  0  0  0  0
   39.7996   33.3154   43.1217 H   0  0  0  0  0  0  0  0  0  0  0  0
   41.0330   34.3891   42.3783 H   0  0  0  0  0  0  0  0  0  0  0  0
   39.3032   34.8736   42.3783 H   0  0  0  0  0  0  0  0  0  0  0  0
   38.3685   32.8218   39.5813 H   0  0  0  0  0  0  0  0  0  0  0  0
   37.7659   33.1704   41.2776 H   0  0  0  0  0  0  0  0  0  0  0  0
   39.4613   31.3130   41.4878 H   0  0  0  0  0  0  0  0  0  0  0  0
   37.3051   29.6387   42.0256 H   0  0  0  0  0  0  0  0  0  0  0  0
   36.2714   30.7627   41.7088 H   0  0  0  0  0  0  0  0  0  0  0  0
   37.3223   30.7571   39.0635 H   0  0  0  0  0  0  0  0  0  0  0  0
   38.1598   29.4737   39.3070 H   0  0  0  0  0  0  0  0  0  0  0  0
  1  6  1  0
  1  7  1  0
  2  1  2  0
  3  4  2  0
  3  2  1  0
  4  5  1  0
  5  6  2  0
  6 17  1  0
  7  8  1  0
  8 11  1  0
  9 10  1  0
  9  8  1  0
 10  8  1  0
 11 16  1  0
 11 12  2  0
 12 13  1  0
 13 14  2  0
 15 14  1  0
 16 15  2  0
 17 18  1  0
 17 19  1  0
 20 21  1  0
 20 17  1  0
 21 22  1  0
 23 21  1  0
 23 22  1  0
  2 24  1  0
  3 25  1  0
  4 26  1  0
  5 27  1  0
  9 28  1  0
  9 29  1  0
 10 30  1  0
 10 31  1  0
 12 32  1  0
 13 33  1  0
 15 34  1  0
 18 35  1  0
 18 36  1  0
 18 37  1  0
 19 38  1  0
 19 39  1  0
 19 40  1  0
 20 41  1  0
 20 42  1  0
 21 43  1  0
 22 44  1  0
 22 45  1  0
 23 46  1  0
 23 47  1  0
M  ISO  8  24  14  25  14  26  14  27  14  28  13  29  13  30  13  31  13
M  ISO  8  32  14  33  14  34  14  35   8  36   8  37   8  38   8  39   8
M  ISO  8  40   8  41   8  42   8  43  13  44  13  45  13  46  13  47  13
M  END
>  <minimizedAffinity>  (1) 
-5.39995718

>  <minimizedRMSD>  (1) 
0.66972667

$$$$
