
     RDKit          3D

 50 53  0  0  0  0  0  0  0  0999 V2000
   42.2260   34.5760   41.2720 C   0  0  0  0  0  0  0  0  0  0  0  0
   41.5150   35.7260   41.6990 C   0  0  0  0  0  0  0  0  0  0  0  0
   40.5530   36.2630   40.9820 C   0  0  0  0  0  0  0  0  0  0  0  0
   40.2970   35.6450   39.8300 C   0  0  0  0  0  0  0  0  0  0  0  0
   40.9250   34.5490   39.3610 C   0  0  0  0  0  0  0  0  0  0  0  0
   41.9140   33.9640   40.0490 C   0  0  0  0  0  0  0  0  0  0  0  0
   43.2720   33.9240   41.9390 O   0  0  0  0  0  0  0  0  0  0  0  0
   44.5280   34.4880   42.2410 C   0  0  0  0  0  0  0  0  0  0  0  0
   44.7420   34.8540   43.6860 C   0  0  0  0  0  0  0  0  0  0  0  0
   44.7720   35.8740   42.6540 C   0  0  0  0  0  0  0  0  0  0  0  0
   45.5970   33.7050   41.5940 C   0  0  0  0  0  0  0  0  0  0  0  0
   46.5870   34.3360   40.7870 C   0  0  0  0  0  0  0  0  0  0  0  0
   47.5970   33.6310   40.1670 C   0  0  0  0  0  0  0  0  0  0  0  0
   47.5950   32.2820   40.3720 N   0  0  0  0  0  0  0  0  0  0  0  0
   46.6300   31.6970   41.1540 C   0  0  0  0  0  0  0  0  0  0  0  0
   45.6910   32.4220   41.7200 N   0  0  0  0  0  0  0  0  0  0  0  0
   42.3460   32.8270   39.1970 C   0  0  0  0  0  0  0  0  0  0  0  0
   43.7770   33.0010   38.5910 C   0  0  0  0  0  0  0  0  0  0  0  0
   42.6310   31.6400   40.0550 C   0  0  0  0  0  0  0  0  0  0  0  0
   41.6060   32.6530   37.9410 C   0  0  0  0  0  0  0  0  0  0  0  0
   40.7930   31.4200   37.8200 C   0  0  0  0  0  0  0  0  0  0  0  0
   39.4780   31.4560   38.3130 C   0  0  0  0  0  0  0  0  0  0  0  0
   38.5490   30.4380   38.2850 C   0  0  0  0  0  0  0  0  0  0  0  0
   38.9580   29.2560   37.7070 C   0  0  0  0  0  0  0  0  0  0  0  0
   40.2340   29.1410   37.1990 C   0  0  0  0  0  0  0  0  0  0  0  0
   41.1230   30.1800   37.2490 C   0  0  0  0  0  0  0  0  0  0  0  0
   41.7775   36.1847   42.6637 H   0  0  0  0  0  0  0  0  0  0  0  0
   40.0005   37.1562   41.3089 H   0  0  0  0  0  0  0  0  0  0  0  0
   39.4986   36.0689   39.2032 H   0  0  0  0  0  0  0  0  0  0  0  0
   40.6190   34.1259   38.3928 H   0  0  0  0  0  0  0  0  0  0  0  0
   43.9027   34.8120   44.3958 H   0  0  0  0  0  0  0  0  0  0  0  0
   45.4280   34.5270   44.4813 H   0  0  0  0  0  0  0  0  0  0  0  0
   45.7251   36.3588   42.3958 H   0  0  0  0  0  0  0  0  0  0  0  0
   44.2377   36.8233   42.5008 H   0  0  0  0  0  0  0  0  0  0  0  0
   46.5441   35.4270   40.6534 H   0  0  0  0  0  0  0  0  0  0  0  0
   48.3577   34.1258   39.5453 H   0  0  0  0  0  0  0  0  0  0  0  0
   46.6428   30.6080   41.3088 H   0  0  0  0  0  0  0  0  0  0  0  0
   44.5115   33.0903   39.4050 H   0  0  0  0  0  0  0  0  0  0  0  0
   44.0215   32.1260   37.9709 H   0  0  0  0  0  0  0  0  0  0  0  0
   43.8046   33.9091   37.9709 H   0  0  0  0  0  0  0  0  0  0  0  0
   42.5618   31.9282   41.1143 H   0  0  0  0  0  0  0  0  0  0  0  0
   41.8973   30.8487   39.8416 H   0  0  0  0  0  0  0  0  0  0  0  0
   43.6440   31.2681   39.8416 H   0  0  0  0  0  0  0  0  0  0  0  0
   40.9287   33.5126   37.8299 H   0  0  0  0  0  0  0  0  0  0  0  0
   42.3745   32.5740   37.1579 H   0  0  0  0  0  0  0  0  0  0  0  0
   39.1537   32.4014   38.7723 H   0  0  0  0  0  0  0  0  0  0  0  0
   37.5382   30.5623   38.7007 H   0  0  0  0  0  0  0  0  0  0  0  0
   38.2654   28.4033   37.6510 H   0  0  0  0  0  0  0  0  0  0  0  0
   40.5455   28.1902   36.7419 H   0  0  0  0  0  0  0  0  0  0  0  0
   42.1295   30.0394   36.8280 H   0  0  0  0  0  0  0  0  0  0  0  0
  1  2  2  0
  1  7  1  0
  3  2  1  0
  4  3  2  0
  5  4  1  0
  5  6  2  0
  6  1  1  0
  7  8  1  0
  8 10  1  0
  8  9  1  0
 10  9  1  0
 11 16  1  0
 11  8  1  0
 12 11  2  0
 13 14  2  0
 13 12  1  0
 14 15  1  0
 15 16  2  0
 17  6  1  0
 17 19  1  0
 18 17  1  0
 20 17  1  0
 21 20  1  0
 21 22  2  0
 23 22  1  0
 24 23  2  0
 25 26  2  0
 25 24  1  0
 26 21  1  0
  2 27  1  0
  3 28  1  0
  4 29  1  0
  5 30  1  0
  9 31  1  0
  9 32  1  0
 10 33  1  0
 10 34  1  0
 12 35  1  0
 13 36  1  0
 15 37  1  0
 18 38  1  0
 18 39  1  0
 18 40  1  0
 19 41  1  0
 19 42  1  0
 19 43  1  0
 20 44  1  0
 20 45  1  0
 22 46  1  0
 23 47  1  0
 24 48  1  0
 25 49  1  0
 26 50  1  0
M  ISO  8  27  14  28  14  29  14  30  14  31  13  32  13  33  13  34  13
M  ISO  8  35  14  36  14  37  14  38   8  39   8  40   8  41   8  42   8
M  ISO  8  43   8  44   8  45   8  46  14  47  14  48  14  49  14  50  14
M  END
>  <minimizedAffinity>  (1) 
-4.87459564

>  <minimizedRMSD>  (1) 
4.15503502

$$$$
