
     RDKit          3D

 32 34  0  0  0  0  0  0  0  0999 V2000
   44.7730   35.2120   45.4850 C   0  0  0  0  0  0  0  0  0  0  0  0
   44.3770   35.8420   44.3160 C   0  0  0  0  0  0  0  0  0  0  0  0
   44.8290   35.2540   43.1110 C   0  0  0  0  0  0  0  0  0  0  0  0
   45.5880   34.1570   43.2320 N   0  0  0  0  0  0  0  0  0  0  0  0
   45.9630   33.5600   44.3630 C   0  0  0  0  0  0  0  0  0  0  0  0
   45.5540   34.0900   45.5420 N   0  0  0  0  0  0  0  0  0  0  0  0
   46.7820   32.4120   44.4320 N   0  0  0  0  0  0  0  0  0  0  0  0
   47.4970   32.1120   43.3350 C   0  0  0  0  0  0  0  0  0  0  0  0
   48.2380   30.9810   43.6110 C   0  0  0  0  0  0  0  0  0  0  0  0
   47.9610   30.6100   44.8750 N   0  0  0  0  0  0  0  0  0  0  0  0
   47.0810   31.4820   45.3590 C   0  0  0  0  0  0  0  0  0  0  0  0
   46.5050   31.4600   46.6530 N   0  0  0  0  0  0  0  0  0  0  0  0
   46.7470   32.2040   47.8610 C   0  0  0  0  0  0  0  0  0  0  0  0
   45.5410   32.1600   48.7740 C   0  0  0  0  0  0  0  0  0  0  0  0
   45.1560   30.7560   49.1820 C   0  0  0  0  0  0  0  0  0  0  0  0
   45.7000   29.7860   48.1580 C   0  0  0  0  0  0  0  0  0  0  0  0
   45.4530   30.4390   46.7980 C   0  0  0  0  0  0  0  0  0  0  0  0
   44.4345   35.6460   46.4374 H   0  0  0  0  0  0  0  0  0  0  0  0
   43.7489   36.7450   44.3243 H   0  0  0  0  0  0  0  0  0  0  0  0
   44.5710   35.6750   42.1280 H   0  0  0  0  0  0  0  0  0  0  0  0
   47.4926   32.6685   42.3862 H   0  0  0  0  0  0  0  0  0  0  0  0
   48.9301   30.4741   42.9224 H   0  0  0  0  0  0  0  0  0  0  0  0
   47.6110   31.7691   48.3847 H   0  0  0  0  0  0  0  0  0  0  0  0
   46.9470   33.2521   47.5937 H   0  0  0  0  0  0  0  0  0  0  0  0
   45.7680   32.7384   49.6817 H   0  0  0  0  0  0  0  0  0  0  0  0
   44.6925   32.5836   48.2167 H   0  0  0  0  0  0  0  0  0  0  0  0
   45.5818   30.5281   50.1703 H   0  0  0  0  0  0  0  0  0  0  0  0
   44.0608   30.6688   49.2353 H   0  0  0  0  0  0  0  0  0  0  0  0
   46.7766   29.6248   48.3163 H   0  0  0  0  0  0  0  0  0  0  0  0
   45.2125   28.8026   48.2309 H   0  0  0  0  0  0  0  0  0  0  0  0
   44.4577   30.9065   46.7714 H   0  0  0  0  0  0  0  0  0  0  0  0
   45.4841   29.7031   45.9810 H   0  0  0  0  0  0  0  0  0  0  0  0
  1  6  2  0
  2  1  1  0
  3  4  1  0
  3  2  2  0
  4  5  2  0
  5  7  1  0
  5  6  1  0
  7 11  1  0
  8  9  2  0
  8  7  1  0
  9 10  1  0
 10 11  2  0
 11 12  1  0
 12 17  1  0
 12 13  1  0
 13 14  1  0
 14 15  1  0
 16 15  1  0
 17 16  1  0
  1 18  1  0
  2 19  1  0
  3 20  1  0
  8 21  1  0
  9 22  1  0
 13 23  1  0
 13 24  1  0
 14 25  1  0
 14 26  1  0
 15 27  1  0
 15 28  1  0
 16 29  1  0
 16 30  1  0
 17 31  1  0
 17 32  1  0
M  ISO  8  18  14  19  14  20  14  21  14  22  14  23  13  24  13  25  13
M  ISO  7  26  13  27  13  28  13  29  13  30  13  31  13  32  13
M  END
>  <minimizedAffinity>  (1) 
-5.2425375

>  <minimizedRMSD>  (1) 
3.36510706

$$$$
