
     RDKit          3D

 26 27  0  0  0  0  0  0  0  0999 V2000
   46.4500   31.4540   46.0570 C   0  0  0  0  0  0  0  0  0  0  0  0
   46.0720   32.7670   45.9180 C   0  0  0  0  0  0  0  0  0  0  0  0
   46.5060   33.5240   44.8450 C   0  0  0  0  0  0  0  0  0  0  0  0
   47.3270   32.9800   43.8920 C   0  0  0  0  0  0  0  0  0  0  0  0
   47.7240   31.6720   44.0010 C   0  0  0  0  0  0  0  0  0  0  0  0
   47.2730   30.9270   45.0910 C   0  0  0  0  0  0  0  0  0  0  0  0
   47.5360   34.4260   40.5230 C   0  0  0  0  0  0  0  0  0  0  0  0
   48.6360   35.3200   40.6530 C   0  0  0  0  0  0  0  0  0  0  0  0
   49.2730   35.3960   41.9010 C   0  0  0  0  0  0  0  0  0  0  0  0
   48.8230   34.6240   42.9270 N   0  0  0  0  0  0  0  0  0  0  0  0
   47.7760   33.7870   42.7710 C   0  0  0  0  0  0  0  0  0  0  0  0
   47.1420   33.6920   41.5760 N   0  0  0  0  0  0  0  0  0  0  0  0
   45.9010   30.5260   47.4290 S   0  0  0  0  0  0  0  0  0  0  0  0
   47.0190   29.6660   47.9470 O   0  0  0  0  0  0  0  0  0  0  0  0
   44.7160   29.6720   47.0260 O   0  0  0  0  0  0  0  0  0  0  0  0
   45.3880   31.6050   48.7310 C   0  0  0  0  0  0  0  0  0  0  0  0
   46.2170   32.6640   48.9240 F   0  0  0  0  0  0  0  0  0  0  0  0
   44.1440   32.1300   48.3690 F   0  0  0  0  0  0  0  0  0  0  0  0
   45.2160   30.8450   49.8760 F   0  0  0  0  0  0  0  0  0  0  0  0
   45.4138   33.2237   46.6718 H   0  0  0  0  0  0  0  0  0  0  0  0
   46.1890   34.5735   44.7556 H   0  0  0  0  0  0  0  0  0  0  0  0
   48.3836   31.2200   43.2456 H   0  0  0  0  0  0  0  0  0  0  0  0
   47.5885   29.8770   45.1806 H   0  0  0  0  0  0  0  0  0  0  0  0
   47.0095   34.3366   39.5613 H   0  0  0  0  0  0  0  0  0  0  0  0
   48.9754   35.9309   39.8035 H   0  0  0  0  0  0  0  0  0  0  0  0
   50.1275   36.0729   42.0483 H   0  0  0  0  0  0  0  0  0  0  0  0
  1 13  1  0
  2  1  2  0
  3  2  1  0
  4  5  1  0
  4  3  2  0
  5  6  2  0
  6  1  1  0
  7  8  2  0
  7 12  1  0
  8  9  1  0
  9 10  2  0
 11 10  1  0
 11  4  1  0
 12 11  2  0
 13 14  2  0
 13 16  1  0
 15 13  2  0
 16 17  1  0
 16 19  1  0
 18 16  1  0
  2 20  1  0
  3 21  1  0
  5 22  1  0
  6 23  1  0
  7 24  1  0
  8 25  1  0
  9 26  1  0
M  ISO  7  20  14  21  14  22  14  23  14  24  14  25  14  26  14
M  END
>  <minimizedAffinity>  (1) 
-5.36139822

>  <minimizedRMSD>  (1) 
1.53750265

$$$$
