
     RDKit          3D

 30 32  0  0  0  0  0  0  0  0999 V2000
   46.2310   31.7730   46.4240 C   0  0  0  0  0  0  0  0  0  0  0  0
   47.0940   31.1780   45.5350 C   0  0  0  0  0  0  0  0  0  0  0  0
   47.5570   31.8390   44.4070 C   0  0  0  0  0  0  0  0  0  0  0  0
   47.1540   33.1240   44.1540 C   0  0  0  0  0  0  0  0  0  0  0  0
   46.2860   33.7570   45.0250 C   0  0  0  0  0  0  0  0  0  0  0  0
   45.8390   33.0640   46.1510 C   0  0  0  0  0  0  0  0  0  0  0  0
   49.2440   35.1590   41.9370 C   0  0  0  0  0  0  0  0  0  0  0  0
   48.5020   35.1410   40.7260 C   0  0  0  0  0  0  0  0  0  0  0  0
   47.2960   34.4230   40.7100 C   0  0  0  0  0  0  0  0  0  0  0  0
   46.8870   33.7780   41.8390 N   0  0  0  0  0  0  0  0  0  0  0  0
   47.6310   33.8220   42.9810 C   0  0  0  0  0  0  0  0  0  0  0  0
   48.7970   34.5060   43.0260 N   0  0  0  0  0  0  0  0  0  0  0  0
   45.6790   30.8820   47.8140 S   0  0  0  0  0  0  0  0  0  0  0  0
   44.5550   31.6260   48.4770 O   0  0  0  0  0  0  0  0  0  0  0  0
   46.8320   30.6720   48.7660 O   0  0  0  0  0  0  0  0  0  0  0  0
   44.6250   27.1770   47.3010 N   0  0  0  0  0  0  0  0  0  0  0  0
   45.2200   28.1650   47.9220 N   0  0  0  0  0  0  0  0  0  0  0  0
   45.0430   29.3330   47.3000 C   0  0  0  0  0  0  0  0  0  0  0  0
   44.2720   29.0250   46.2040 C   0  0  0  0  0  0  0  0  0  0  0  0
   44.0170   27.6620   46.2190 C   0  0  0  0  0  0  0  0  0  0  0  0
   47.4274   30.1469   45.7237 H   0  0  0  0  0  0  0  0  0  0  0  0
   48.2470   31.3322   43.7162 H   0  0  0  0  0  0  0  0  0  0  0  0
   45.9539   34.7881   44.8338 H   0  0  0  0  0  0  0  0  0  0  0  0
   45.1493   33.5671   46.8446 H   0  0  0  0  0  0  0  0  0  0  0  0
   50.1936   35.7122   41.9855 H   0  0  0  0  0  0  0  0  0  0  0  0
   48.8602   35.6715   39.8314 H   0  0  0  0  0  0  0  0  0  0  0  0
   46.6868   34.3812   39.7951 H   0  0  0  0  0  0  0  0  0  0  0  0
   44.6268   26.1910   47.5989 H   0  0  0  0  0  0  0  0  0  0  0  0
   43.9179   29.7380   45.4449 H   0  0  0  0  0  0  0  0  0  0  0  0
   43.4291   27.0936   45.4832 H   0  0  0  0  0  0  0  0  0  0  0  0
  1 13  1  0
  2  1  2  0
  3  2  1  0
  4  3  2  0
  4  5  1  0
  5  6  2  0
  6  1  1  0
  7 12  2  0
  8  7  1  0
  9  8  2  0
  9 10  1  0
 10 11  2  0
 11 12  1  0
 11  4  1  0
 13 14  2  0
 13 15  2  0
 16 17  1  0
 18 13  1  0
 18 17  2  0
 19 20  2  0
 19 18  1  0
 20 16  1  0
  2 21  1  0
  3 22  1  0
  5 23  1  0
  6 24  1  0
  7 25  1  0
  8 26  1  0
  9 27  1  0
 16 28  1  0
 19 29  1  0
 20 30  1  0
M  ISO  8  21  14  22  14  23  14  24  14  25  14  26  14  27  14  28   9
M  ISO  2  29  14  30  14
M  END
>  <minimizedAffinity>  (1) 
-5.07412767

>  <minimizedRMSD>  (1) 
3.54121256

$$$$
