
     RDKit          3D

 29 31  0  0  0  0  0  0  0  0999 V2000
   46.5870   32.4530   45.5460 C   0  0  0  0  0  0  0  0  0  0  0  0
   47.1550   31.2360   45.2550 C   0  0  0  0  0  0  0  0  0  0  0  0
   47.8660   30.5130   46.1850 C   0  0  0  0  0  0  0  0  0  0  0  0
   48.0280   31.0060   47.4560 C   0  0  0  0  0  0  0  0  0  0  0  0
   47.4830   32.2170   47.8000 C   0  0  0  0  0  0  0  0  0  0  0  0
   46.7680   32.9180   46.8270 C   0  0  0  0  0  0  0  0  0  0  0  0
   49.8520   28.2440   49.0490 C   0  0  0  0  0  0  0  0  0  0  0  0
   50.1950   28.7940   50.3050 C   0  0  0  0  0  0  0  0  0  0  0  0
   49.7880   30.1100   50.5730 C   0  0  0  0  0  0  0  0  0  0  0  0
   49.0850   30.8010   49.6220 N   0  0  0  0  0  0  0  0  0  0  0  0
   48.7770   30.2420   48.4380 C   0  0  0  0  0  0  0  0  0  0  0  0
   49.1580   28.9710   48.1540 N   0  0  0  0  0  0  0  0  0  0  0  0
   45.7140   33.3390   44.3150 S   0  0  0  0  0  0  0  0  0  0  0  0
   44.9620   34.4690   44.9550 O   0  0  0  0  0  0  0  0  0  0  0  0
   44.7540   32.3940   43.6180 O   0  0  0  0  0  0  0  0  0  0  0  0
   46.8420   33.9230   43.1080 C   0  0  0  0  0  0  0  0  0  0  0  0
   46.4790   34.2540   41.7290 C   0  0  0  0  0  0  0  0  0  0  0  0
   48.0810   34.7870   41.0330 S   0  0  0  0  0  0  0  0  0  0  0  0
   48.9540   34.4880   42.6620 C   0  0  0  0  0  0  0  0  0  0  0  0
   48.1320   34.1010   43.4040 N   0  0  0  0  0  0  0  0  0  0  0  0
   47.0369   30.8248   44.2416 H   0  0  0  0  0  0  0  0  0  0  0  0
   48.3038   29.5419   45.9107 H   0  0  0  0  0  0  0  0  0  0  0  0
   47.6059   32.6245   48.8143 H   0  0  0  0  0  0  0  0  0  0  0  0
   46.3283   33.8891   47.0985 H   0  0  0  0  0  0  0  0  0  0  0  0
   50.1541   27.2156   48.8016 H   0  0  0  0  0  0  0  0  0  0  0  0
   50.7611   28.2110   51.0464 H   0  0  0  0  0  0  0  0  0  0  0  0
   50.0310   30.5816   51.5366 H   0  0  0  0  0  0  0  0  0  0  0  0
   45.4959   34.1965   41.2389 H   0  0  0  0  0  0  0  0  0  0  0  0
   50.0211   34.6436   42.8792 H   0  0  0  0  0  0  0  0  0  0  0  0
  1  6  1  0
  2  1  2  0
  2  3  1  0
  3  4  2  0
  4  5  1  0
  4 11  1  0
  6  5  2  0
  7  8  2  0
  8  9  1  0
 10  9  2  0
 11 10  1  0
 12 11  2  0
 12  7  1  0
 13 14  2  0
 13  1  1  0
 15 13  2  0
 16 20  1  0
 16 13  1  0
 17 16  2  0
 18 17  1  0
 18 19  1  0
 19 20  2  0
  2 21  1  0
  3 22  1  0
  5 23  1  0
  6 24  1  0
  7 25  1  0
  8 26  1  0
  9 27  1  0
 17 28  1  0
 19 29  1  0
M  ISO  8  21  14  22  14  23  14  24  14  25  14  26  14  27  14  28  14
M  ISO  1  29  14
M  END
>  <minimizedAffinity>  (1) 
-4.61539459

>  <minimizedRMSD>  (1) 
7.12516308

$$$$
