
     RDKit          3D

 30 32  0  0  0  0  0  0  0  0999 V2000
   47.4650   30.7680   45.2200 C   0  0  0  0  0  0  0  0  0  0  0  0
   46.9490   32.0390   45.2920 C   0  0  0  0  0  0  0  0  0  0  0  0
   47.2080   32.9820   44.3170 C   0  0  0  0  0  0  0  0  0  0  0  0
   47.9970   32.6690   43.2400 C   0  0  0  0  0  0  0  0  0  0  0  0
   48.5320   31.4130   43.1330 C   0  0  0  0  0  0  0  0  0  0  0  0
   48.2530   30.4820   44.1310 C   0  0  0  0  0  0  0  0  0  0  0  0
   49.1290   35.7670   41.6250 C   0  0  0  0  0  0  0  0  0  0  0  0
   48.7650   35.5470   40.2690 C   0  0  0  0  0  0  0  0  0  0  0  0
   48.1390   34.3370   39.9540 C   0  0  0  0  0  0  0  0  0  0  0  0
   47.9050   33.4230   40.9450 N   0  0  0  0  0  0  0  0  0  0  0  0
   48.2640   33.6670   42.2200 C   0  0  0  0  0  0  0  0  0  0  0  0
   48.8710   34.8300   42.5580 N   0  0  0  0  0  0  0  0  0  0  0  0
   47.1350   29.6130   46.4920 S   0  0  0  0  0  0  0  0  0  0  0  0
   48.4250   29.0850   47.0450 O   0  0  0  0  0  0  0  0  0  0  0  0
   46.2890   28.4870   45.9310 O   0  0  0  0  0  0  0  0  0  0  0  0
   46.2120   30.3910   47.7620 C   0  0  0  0  0  0  0  0  0  0  0  0
   46.7130   31.0300   48.9020 C   0  0  0  0  0  0  0  0  0  0  0  0
   45.6470   31.5060   49.6390 C   0  0  0  0  0  0  0  0  0  0  0  0
   44.5310   31.1360   48.9140 C   0  0  0  0  0  0  0  0  0  0  0  0
   44.9100   30.4910   47.8310 O   0  0  0  0  0  0  0  0  0  0  0  0
   46.3138   32.3124   46.1474 H   0  0  0  0  0  0  0  0  0  0  0  0
   46.7786   33.9909   44.4049 H   0  0  0  0  0  0  0  0  0  0  0  0
   49.1687   31.1449   42.2770 H   0  0  0  0  0  0  0  0  0  0  0  0
   48.6825   29.4731   44.0435 H   0  0  0  0  0  0  0  0  0  0  0  0
   49.6234   36.7062   41.9140 H   0  0  0  0  0  0  0  0  0  0  0  0
   48.9684   36.3016   39.4949 H   0  0  0  0  0  0  0  0  0  0  0  0
   47.8372   34.1217   38.9183 H   0  0  0  0  0  0  0  0  0  0  0  0
   47.7757   31.1351   49.1659 H   0  0  0  0  0  0  0  0  0  0  0  0
   45.6792   32.0567   50.5907 H   0  0  0  0  0  0  0  0  0  0  0  0
   43.4893   31.3472   49.1972 H   0  0  0  0  0  0  0  0  0  0  0  0
  1  2  2  0
  1 13  1  0
  3  2  1  0
  4  3  2  0
  5  4  1  0
  5  6  2  0
  6  1  1  0
  7 12  2  0
  8  7  1  0
  9  8  2  0
  9 10  1  0
 10 11  2  0
 11 12  1  0
 11  4  1  0
 13 14  2  0
 13 16  1  0
 15 13  2  0
 16 20  1  0
 16 17  2  0
 17 18  1  0
 19 18  2  0
 20 19  1  0
  2 21  1  0
  3 22  1  0
  5 23  1  0
  6 24  1  0
  7 25  1  0
  8 26  1  0
  9 27  1  0
 17 28  1  0
 18 29  1  0
 19 30  1  0
M  ISO  8  21  14  22  14  23  14  24  14  25  14  26  14  27  14  28  14
M  ISO  2  29  14  30  14
M  END
>  <minimizedAffinity>  (1) 
-4.58970499

>  <minimizedRMSD>  (1) 
3.00633407

$$$$
