
     RDKit          3D

 31 33  0  0  0  0  0  0  0  0999 V2000
   46.8780   31.4360   46.4610 C   0  0  0  0  0  0  0  0  0  0  0  0
   46.4390   32.6910   46.8330 C   0  0  0  0  0  0  0  0  0  0  0  0
   45.8910   33.5590   45.9060 C   0  0  0  0  0  0  0  0  0  0  0  0
   45.7700   33.1930   44.5890 C   0  0  0  0  0  0  0  0  0  0  0  0
   46.1970   31.9540   44.1900 C   0  0  0  0  0  0  0  0  0  0  0  0
   46.7480   31.0890   45.1350 C   0  0  0  0  0  0  0  0  0  0  0  0
   43.9340   34.4840   41.6890 C   0  0  0  0  0  0  0  0  0  0  0  0
   44.1150   35.8830   41.8190 C   0  0  0  0  0  0  0  0  0  0  0  0
   44.8680   36.3490   42.9080 C   0  0  0  0  0  0  0  0  0  0  0  0
   45.3900   35.4400   43.7900 N   0  0  0  0  0  0  0  0  0  0  0  0
   45.1930   34.1130   43.6280 C   0  0  0  0  0  0  0  0  0  0  0  0
   44.4690   33.6390   42.5850 N   0  0  0  0  0  0  0  0  0  0  0  0
   47.5910   30.3780   47.6520 S   0  0  0  0  0  0  0  0  0  0  0  0
   47.4850   30.9990   49.0190 O   0  0  0  0  0  0  0  0  0  0  0  0
   49.0410   30.1240   47.2880 O   0  0  0  0  0  0  0  0  0  0  0  0
   46.7320   28.8590   47.6780 C   0  0  0  0  0  0  0  0  0  0  0  0
   45.3590   28.7990   47.8180 C   0  0  0  0  0  0  0  0  0  0  0  0
   44.6620   27.6180   47.8400 C   0  0  0  0  0  0  0  0  0  0  0  0
   45.3490   26.4610   47.7210 N   0  0  0  0  0  0  0  0  0  0  0  0
   46.6870   26.5120   47.5830 C   0  0  0  0  0  0  0  0  0  0  0  0
   47.3600   27.6780   47.5630 N   0  0  0  0  0  0  0  0  0  0  0  0
   46.5265   33.0056   47.8834 H   0  0  0  0  0  0  0  0  0  0  0  0
   45.5485   34.5535   46.2280 H   0  0  0  0  0  0  0  0  0  0  0  0
   46.1064   31.6455   43.1380 H   0  0  0  0  0  0  0  0  0  0  0  0
   47.0905   30.0955   44.8099 H   0  0  0  0  0  0  0  0  0  0  0  0
   43.3497   34.0862   40.8462 H   0  0  0  0  0  0  0  0  0  0  0  0
   43.6793   36.5818   41.0897 H   0  0  0  0  0  0  0  0  0  0  0  0
   45.0362   37.4266   43.0509 H   0  0  0  0  0  0  0  0  0  0  0  0
   44.7995   29.7409   47.9163 H   0  0  0  0  0  0  0  0  0  0  0  0
   43.5677   27.6131   47.9521 H   0  0  0  0  0  0  0  0  0  0  0  0
   47.2484   25.5713   47.4834 H   0  0  0  0  0  0  0  0  0  0  0  0
  1  2  2  0
  1 13  1  0
  3  2  1  0
  4  3  2  0
  5  4  1  0
  5  6  2  0
  6  1  1  0
  7  8  2  0
  7 12  1  0
  8  9  1  0
  9 10  2  0
 11 10  1  0
 11  4  1  0
 12 11  2  0
 13 16  1  0
 13 14  2  0
 15 13  2  0
 16 17  2  0
 17 18  1  0
 19 18  2  0
 20 19  1  0
 21 20  2  0
 21 16  1  0
  2 22  1  0
  3 23  1  0
  5 24  1  0
  6 25  1  0
  7 26  1  0
  8 27  1  0
  9 28  1  0
 17 29  1  0
 18 30  1  0
 20 31  1  0
M  ISO  8  22  14  23  14  24  14  25  14  26  14  27  14  28  14  29  14
M  ISO  2  30  14  31  14
M  END
>  <minimizedAffinity>  (1) 
-4.455019

>  <minimizedRMSD>  (1) 
4.55256701

$$$$
