
     RDKit          3D

 30 32  0  0  0  0  0  0  0  0999 V2000
   46.4800   32.6180   45.7100 C   0  0  0  0  0  0  0  0  0  0  0  0
   45.9570   33.7240   45.0830 C   0  0  0  0  0  0  0  0  0  0  0  0
   46.2610   34.0390   43.7730 C   0  0  0  0  0  0  0  0  0  0  0  0
   47.1100   33.2340   43.0570 C   0  0  0  0  0  0  0  0  0  0  0  0
   47.6540   32.1230   43.6460 C   0  0  0  0  0  0  0  0  0  0  0  0
   47.3310   31.8260   44.9730 C   0  0  0  0  0  0  0  0  0  0  0  0
   47.3630   33.0560   39.4010 C   0  0  0  0  0  0  0  0  0  0  0  0
   48.0740   34.2330   39.0870 C   0  0  0  0  0  0  0  0  0  0  0  0
   48.4520   35.0660   40.1500 C   0  0  0  0  0  0  0  0  0  0  0  0
   48.1240   34.7150   41.4340 N   0  0  0  0  0  0  0  0  0  0  0  0
   47.4330   33.5620   41.6810 C   0  0  0  0  0  0  0  0  0  0  0  0
   47.0660   32.7590   40.6790 N   0  0  0  0  0  0  0  0  0  0  0  0
   46.0710   32.2900   47.3710 S   0  0  0  0  0  0  0  0  0  0  0  0
   44.9130   33.1560   47.7900 O   0  0  0  0  0  0  0  0  0  0  0  0
   47.2820   32.5550   48.2410 O   0  0  0  0  0  0  0  0  0  0  0  0
   45.5690   30.6270   47.5370 C   0  0  0  0  0  0  0  0  0  0  0  0
   45.1770   29.7250   46.5590 C   0  0  0  0  0  0  0  0  0  0  0  0
   44.8620   28.5080   47.1590 C   0  0  0  0  0  0  0  0  0  0  0  0
   45.0810   28.7400   48.4600 N   0  0  0  0  0  0  0  0  0  0  0  0
   45.4950   29.9700   48.7090 N   0  0  0  0  0  0  0  0  0  0  0  0
   45.2740   34.3796   45.6430 H   0  0  0  0  0  0  0  0  0  0  0  0
   45.8234   34.9332   43.3051 H   0  0  0  0  0  0  0  0  0  0  0  0
   48.3373   31.4721   43.0808 H   0  0  0  0  0  0  0  0  0  0  0  0
   47.7698   30.9331   45.4422 H   0  0  0  0  0  0  0  0  0  0  0  0
   47.0492   32.3762   38.5952 H   0  0  0  0  0  0  0  0  0  0  0  0
   48.3229   34.4882   38.0464 H   0  0  0  0  0  0  0  0  0  0  0  0
   49.0080   35.9949   39.9548 H   0  0  0  0  0  0  0  0  0  0  0  0
   45.1234   29.9370   45.4810 H   0  0  0  0  0  0  0  0  0  0  0  0
   44.5166   27.5800   46.6799 H   0  0  0  0  0  0  0  0  0  0  0  0
   44.9407   28.0304   49.1932 H   0  0  0  0  0  0  0  0  0  0  0  0
  1 13  1  0
  2  1  2  0
  3  2  1  0
  4  5  1  0
  4  3  2  0
  5  6  2  0
  6  1  1  0
  7 12  2  0
  8  7  1  0
  8  9  2  0
  9 10  1  0
 10 11  2  0
 11  4  1  0
 12 11  1  0
 13 16  1  0
 13 14  2  0
 13 15  2  0
 16 20  2  0
 17 18  2  0
 17 16  1  0
 18 19  1  0
 19 20  1  0
  2 21  1  0
  3 22  1  0
  5 23  1  0
  6 24  1  0
  7 25  1  0
  8 26  1  0
  9 27  1  0
 17 28  1  0
 18 29  1  0
 19 30  1  0
M  ISO  8  21  14  22  14  23  14  24  14  25  14  26  14  27  14  28  14
M  ISO  2  29  14  30   9
M  END
>  <minimizedAffinity>  (1) 
-4.89263105

>  <minimizedRMSD>  (1) 
2.91078639

$$$$
