
     RDKit          3D

 44 48  0  0  0  0  0  0  0  0999 V2000
   45.7130   31.5650   47.7480 S   0  0  0  0  0  0  0  0  0  0  0  0
   44.5450   32.3650   48.2270 O   0  0  0  0  0  0  0  0  0  0  0  0
   46.8710   31.6830   48.7300 O   0  0  0  0  0  0  0  0  0  0  0  0
   46.2480   32.1590   46.2060 C   0  0  0  0  0  0  0  0  0  0  0  0
   45.7960   33.3680   45.7370 C   0  0  0  0  0  0  0  0  0  0  0  0
   46.1860   33.8900   44.5170 C   0  0  0  0  0  0  0  0  0  0  0  0
   47.0630   33.1850   43.7290 C   0  0  0  0  0  0  0  0  0  0  0  0
   47.5380   31.9790   44.1580 C   0  0  0  0  0  0  0  0  0  0  0  0
   47.1280   31.4700   45.3950 C   0  0  0  0  0  0  0  0  0  0  0  0
   47.4740   33.6540   40.1130 C   0  0  0  0  0  0  0  0  0  0  0  0
   48.3000   34.7990   40.0530 C   0  0  0  0  0  0  0  0  0  0  0  0
   48.6920   35.3790   41.2570 C   0  0  0  0  0  0  0  0  0  0  0  0
   48.2710   34.8280   42.4360 N   0  0  0  0  0  0  0  0  0  0  0  0
   47.4780   33.7250   42.4510 C   0  0  0  0  0  0  0  0  0  0  0  0
   47.0950   33.1600   41.3060 N   0  0  0  0  0  0  0  0  0  0  0  0
   45.2180   29.9030   47.6110 C   0  0  0  0  0  0  0  0  0  0  0  0
   44.7010   29.2280   46.5230 C   0  0  0  0  0  0  0  0  0  0  0  0
   44.4500   27.9070   46.8800 C   0  0  0  0  0  0  0  0  0  0  0  0
   44.8240   27.8560   48.1550 N   0  0  0  0  0  0  0  0  0  0  0  0
   45.2800   29.0110   48.6190 N   0  0  0  0  0  0  0  0  0  0  0  0
   44.7760   26.7200   49.0160 C   0  0  0  0  0  0  0  0  0  0  0  0
   43.9400   26.4130   50.0690 C   0  0  0  0  0  0  0  0  0  0  0  0
   44.3300   25.2000   50.5490 N   0  0  0  0  0  0  0  0  0  0  0  0
   45.3880   24.7540   49.8130 C   0  0  0  0  0  0  0  0  0  0  0  0
   46.1440   23.5910   49.8910 C   0  0  0  0  0  0  0  0  0  0  0  0
   47.1830   23.3430   49.0330 C   0  0  0  0  0  0  0  0  0  0  0  0
   47.4940   24.2750   48.0540 C   0  0  0  0  0  0  0  0  0  0  0  0
   46.7420   25.4280   47.9800 C   0  0  0  0  0  0  0  0  0  0  0  0
   45.6940   25.6830   48.8430 C   0  0  0  0  0  0  0  0  0  0  0  0
   45.0946   33.9452   46.3574 H   0  0  0  0  0  0  0  0  0  0  0  0
   45.7969   34.8622   44.1803 H   0  0  0  0  0  0  0  0  0  0  0  0
   48.2411   31.4091   43.5328 H   0  0  0  0  0  0  0  0  0  0  0  0
   47.5163   30.4968   45.7299 H   0  0  0  0  0  0  0  0  0  0  0  0
   47.1409   33.1667   39.1848 H   0  0  0  0  0  0  0  0  0  0  0  0
   48.6224   35.2179   39.0883 H   0  0  0  0  0  0  0  0  0  0  0  0
   49.3343   36.2720   41.2598 H   0  0  0  0  0  0  0  0  0  0  0  0
   44.5167   29.6656   45.5308 H   0  0  0  0  0  0  0  0  0  0  0  0
   44.0403   27.0984   46.2568 H   0  0  0  0  0  0  0  0  0  0  0  0
   43.1138   27.0316   50.4494 H   0  0  0  0  0  0  0  0  0  0  0  0
   43.8968   24.7008   51.3389 H   0  0  0  0  0  0  0  0  0  0  0  0
   45.9013   22.8474   50.6644 H   0  0  0  0  0  0  0  0  0  0  0  0
   47.7650   22.4136   49.1197 H   0  0  0  0  0  0  0  0  0  0  0  0
   48.3223   24.0980   47.3522 H   0  0  0  0  0  0  0  0  0  0  0  0
   46.9851   26.1712   47.2064 H   0  0  0  0  0  0  0  0  0  0  0  0
  1  2  2  0
  1  3  2  0
  4  1  1  0
  5  4  2  0
  6  5  1  0
  7  8  1  0
  7  6  2  0
  8  9  2  0
  9  4  1  0
 10 15  2  0
 11 10  1  0
 11 12  2  0
 12 13  1  0
 13 14  2  0
 14  7  1  0
 15 14  1  0
 16  1  1  0
 16 20  2  0
 17 18  2  0
 17 16  1  0
 18 19  1  0
 19 20  1  0
 19 21  1  0
 21 22  2  0
 22 23  1  0
 24 25  2  0
 24 23  1  0
 26 25  1  0
 27 26  2  0
 28 27  1  0
 28 29  2  0
 29 21  1  0
 29 24  1  0
  5 30  1  0
  6 31  1  0
  8 32  1  0
  9 33  1  0
 10 34  1  0
 11 35  1  0
 12 36  1  0
 17 37  1  0
 18 38  1  0
 22 39  1  0
 23 40  1  0
 25 41  1  0
 26 42  1  0
 27 43  1  0
 28 44  1  0
M  ISO  8  30  14  31  14  32  14  33  14  34  14  35  14  36  14  37  14
M  ISO  7  38  14  39  14  40   9  41  14  42  14  43  14  44  14
M  END
>  <minimizedAffinity>  (1) 
-6.3835659

>  <minimizedRMSD>  (1) 
1.02955389

$$$$
