
     RDKit          3D

 39 41  0  0  0  0  0  0  0  0999 V2000
   46.3190   31.8210   46.2970 C   0  0  0  0  0  0  0  0  0  0  0  0
   45.9000   33.0980   46.0080 C   0  0  0  0  0  0  0  0  0  0  0  0
   46.3180   33.7710   44.8760 C   0  0  0  0  0  0  0  0  0  0  0  0
   47.1770   33.1580   44.0020 C   0  0  0  0  0  0  0  0  0  0  0  0
   47.6140   31.8920   44.2530 C   0  0  0  0  0  0  0  0  0  0  0  0
   47.1830   31.2280   45.4000 C   0  0  0  0  0  0  0  0  0  0  0  0
   47.3870   34.4010   40.5490 C   0  0  0  0  0  0  0  0  0  0  0  0
   48.5360   35.2270   40.5980 C   0  0  0  0  0  0  0  0  0  0  0  0
   49.2080   35.3340   41.8190 C   0  0  0  0  0  0  0  0  0  0  0  0
   48.7410   34.6490   42.9090 N   0  0  0  0  0  0  0  0  0  0  0  0
   47.6220   33.8620   42.8020 C   0  0  0  0  0  0  0  0  0  0  0  0
   46.9750   33.7500   41.6500 N   0  0  0  0  0  0  0  0  0  0  0  0
   45.7650   31.0170   47.7360 S   0  0  0  0  0  0  0  0  0  0  0  0
   44.6790   31.8530   48.3830 O   0  0  0  0  0  0  0  0  0  0  0  0
   46.9230   30.8290   48.6760 O   0  0  0  0  0  0  0  0  0  0  0  0
   45.0560   29.4820   47.3400 C   0  0  0  0  0  0  0  0  0  0  0  0
   44.4500   29.0730   46.1600 C   0  0  0  0  0  0  0  0  0  0  0  0
   44.0260   27.7500   46.2990 C   0  0  0  0  0  0  0  0  0  0  0  0
   44.3960   27.4360   47.5440 N   0  0  0  0  0  0  0  0  0  0  0  0
   44.9930   28.4270   48.1600 N   0  0  0  0  0  0  0  0  0  0  0  0
   44.1580   26.1320   48.1450 C   0  0  0  0  0  0  0  0  0  0  0  0
   42.8570   25.5500   47.6060 C   0  0  0  0  0  0  0  0  0  0  0  0
   44.0880   26.2060   49.6420 C   0  0  0  0  0  0  0  0  0  0  0  0
   45.2091   33.6006   46.7009 H   0  0  0  0  0  0  0  0  0  0  0  0
   45.9632   34.7931   44.6775 H   0  0  0  0  0  0  0  0  0  0  0  0
   48.3036   31.3965   43.5537 H   0  0  0  0  0  0  0  0  0  0  0  0
   47.5405   30.2061   45.5948 H   0  0  0  0  0  0  0  0  0  0  0  0
   46.8299   34.2919   39.6068 H   0  0  0  0  0  0  0  0  0  0  0  0
   48.8877   35.7659   39.7059 H   0  0  0  0  0  0  0  0  0  0  0  0
   50.1057   35.9640   41.9037 H   0  0  0  0  0  0  0  0  0  0  0  0
   44.3240   29.6921   45.2595 H   0  0  0  0  0  0  0  0  0  0  0  0
   43.5109   27.1178   45.5607 H   0  0  0  0  0  0  0  0  0  0  0  0
   45.0060   25.4838   47.8792 H   0  0  0  0  0  0  0  0  0  0  0  0
   42.2091   25.2601   48.4463 H   0  0  0  0  0  0  0  0  0  0  0  0
   42.3446   26.3047   46.9913 H   0  0  0  0  0  0  0  0  0  0  0  0
   43.0781   24.6650   46.9913 H   0  0  0  0  0  0  0  0  0  0  0  0
   44.7819   25.4724   50.0782 H   0  0  0  0  0  0  0  0  0  0  0  0
   44.3678   27.2171   49.9726 H   0  0  0  0  0  0  0  0  0  0  0  0
   43.0629   25.9827   49.9726 H   0  0  0  0  0  0  0  0  0  0  0  0
  1 13  1  0
  2  1  2  0
  3  2  1  0
  4  5  1  0
  4  3  2  0
  5  6  2  0
  6  1  1  0
  7  8  2  0
  7 12  1  0
  8  9  1  0
  9 10  2  0
 11 10  1  0
 11  4  1  0
 12 11  2  0
 13 14  2  0
 13 15  2  0
 16 13  1  0
 16 20  2  0
 17 18  2  0
 17 16  1  0
 18 19  1  0
 19 21  1  0
 19 20  1  0
 21 23  1  0
 22 21  1  0
  2 24  1  0
  3 25  1  0
  5 26  1  0
  6 27  1  0
  7 28  1  0
  8 29  1  0
  9 30  1  0
 17 31  1  0
 18 32  1  0
 21 33  1  0
 22 34  1  0
 22 35  1  0
 22 36  1  0
 23 37  1  0
 23 38  1  0
 23 39  1  0
M  ISO  8  24  14  25  14  26  14  27  14  28  14  29  14  30  14  31  14
M  ISO  8  32  14  33   8  34   8  35   8  36   8  37   8  38   8  39   8
M  END
>  <minimizedAffinity>  (1) 
-5.70699215

>  <minimizedRMSD>  (1) 
1.54084909

$$$$
