
     RDKit          3D

 38 41  0  0  0  0  0  0  0  0999 V2000
   46.2980   31.7850   46.3020 C   0  0  0  0  0  0  0  0  0  0  0  0
   45.9260   33.0790   46.0420 C   0  0  0  0  0  0  0  0  0  0  0  0
   46.3550   33.7590   44.9210 C   0  0  0  0  0  0  0  0  0  0  0  0
   47.1790   33.1450   44.0260 C   0  0  0  0  0  0  0  0  0  0  0  0
   47.5790   31.8540   44.2410 C   0  0  0  0  0  0  0  0  0  0  0  0
   47.1340   31.1830   45.3810 C   0  0  0  0  0  0  0  0  0  0  0  0
   47.4050   34.4360   40.5950 C   0  0  0  0  0  0  0  0  0  0  0  0
   48.5630   35.2310   40.6470 C   0  0  0  0  0  0  0  0  0  0  0  0
   49.2470   35.3090   41.8660 C   0  0  0  0  0  0  0  0  0  0  0  0
   48.7730   34.6190   42.9500 N   0  0  0  0  0  0  0  0  0  0  0  0
   47.6360   33.8570   42.8400 C   0  0  0  0  0  0  0  0  0  0  0  0
   46.9780   33.7750   41.6890 N   0  0  0  0  0  0  0  0  0  0  0  0
   45.7230   30.9880   47.7290 S   0  0  0  0  0  0  0  0  0  0  0  0
   44.5310   31.7190   48.2940 O   0  0  0  0  0  0  0  0  0  0  0  0
   46.8390   30.9470   48.7580 O   0  0  0  0  0  0  0  0  0  0  0  0
   45.2120   29.3660   47.3520 C   0  0  0  0  0  0  0  0  0  0  0  0
   44.3020   28.9340   46.4040 C   0  0  0  0  0  0  0  0  0  0  0  0
   44.2090   27.5500   46.4590 C   0  0  0  0  0  0  0  0  0  0  0  0
   45.0660   27.2130   47.4370 N   0  0  0  0  0  0  0  0  0  0  0  0
   45.6530   28.2620   47.9630 N   0  0  0  0  0  0  0  0  0  0  0  0
   45.3020   25.8640   47.8510 C   0  0  0  0  0  0  0  0  0  0  0  0
   45.1780   24.8100   46.9710 C   0  0  0  0  0  0  0  0  0  0  0  0
   45.4030   23.4840   47.3530 C   0  0  0  0  0  0  0  0  0  0  0  0
   45.7540   23.2730   48.6360 N   0  0  0  0  0  0  0  0  0  0  0  0
   45.8790   24.2710   49.4960 C   0  0  0  0  0  0  0  0  0  0  0  0
   45.6560   25.5560   49.1090 N   0  0  0  0  0  0  0  0  0  0  0  0
   45.2620   33.5930   46.7525 H   0  0  0  0  0  0  0  0  0  0  0  0
   46.0320   34.7965   44.7497 H   0  0  0  0  0  0  0  0  0  0  0  0
   48.2437   31.3509   43.5234 H   0  0  0  0  0  0  0  0  0  0  0  0
   47.4579   30.1456   45.5512 H   0  0  0  0  0  0  0  0  0  0  0  0
   46.8425   34.3527   39.6534 H   0  0  0  0  0  0  0  0  0  0  0  0
   48.9199   35.7738   39.7594 H   0  0  0  0  0  0  0  0  0  0  0  0
   50.1579   35.9196   41.9525 H   0  0  0  0  0  0  0  0  0  0  0  0
   43.7412   29.5838   45.7160 H   0  0  0  0  0  0  0  0  0  0  0  0
   43.5816   26.8860   45.8463 H   0  0  0  0  0  0  0  0  0  0  0  0
   44.8915   25.0200   45.9299 H   0  0  0  0  0  0  0  0  0  0  0  0
   45.2984   22.6530   46.6399 H   0  0  0  0  0  0  0  0  0  0  0  0
   46.1667   24.0590   50.5363 H   0  0  0  0  0  0  0  0  0  0  0  0
  1 13  1  0
  2  1  2  0
  3  2  1  0
  4  5  1  0
  4  3  2  0
  5  6  2  0
  6  1  1  0
  7  8  2  0
  7 12  1  0
  8  9  1  0
  9 10  2  0
 11 10  1  0
 11  4  1  0
 12 11  2  0
 13 14  2  0
 13 15  2  0
 16 13  1  0
 16 20  2  0
 17 18  2  0
 17 16  1  0
 18 19  1  0
 19 21  1  0
 19 20  1  0
 21 26  2  0
 22 23  2  0
 22 21  1  0
 23 24  1  0
 24 25  2  0
 26 25  1  0
  2 27  1  0
  3 28  1  0
  5 29  1  0
  6 30  1  0
  7 31  1  0
  8 32  1  0
  9 33  1  0
 17 34  1  0
 18 35  1  0
 22 36  1  0
 23 37  1  0
 25 38  1  0
M  ISO  8  27  14  28  14  29  14  30  14  31  14  32  14  33  14  34  14
M  ISO  4  35  14  36  14  37  14  38  14
M  END
>  <minimizedAffinity>  (1) 
-5.66915655

>  <minimizedRMSD>  (1) 
2.05060458

$$$$
