
     RDKit          3D

 45 48  0  0  0  0  0  0  0  0999 V2000
   46.3370   31.8040   46.2980 C   0  0  0  0  0  0  0  0  0  0  0  0
   45.9460   33.1020   46.0280 C   0  0  0  0  0  0  0  0  0  0  0  0
   46.3520   33.7780   44.8940 C   0  0  0  0  0  0  0  0  0  0  0  0
   47.1710   33.1600   43.9940 C   0  0  0  0  0  0  0  0  0  0  0  0
   47.5800   31.8730   44.2280 C   0  0  0  0  0  0  0  0  0  0  0  0
   47.1570   31.2090   45.3800 C   0  0  0  0  0  0  0  0  0  0  0  0
   47.3730   34.3970   40.5480 C   0  0  0  0  0  0  0  0  0  0  0  0
   48.5060   35.2200   40.5810 C   0  0  0  0  0  0  0  0  0  0  0  0
   49.1840   35.3340   41.8000 C   0  0  0  0  0  0  0  0  0  0  0  0
   48.7250   34.6500   42.8970 N   0  0  0  0  0  0  0  0  0  0  0  0
   47.6050   33.8560   42.8020 C   0  0  0  0  0  0  0  0  0  0  0  0
   46.9490   33.7370   41.6470 N   0  0  0  0  0  0  0  0  0  0  0  0
   45.7840   31.0180   47.7480 S   0  0  0  0  0  0  0  0  0  0  0  0
   44.5460   31.7210   48.2680 O   0  0  0  0  0  0  0  0  0  0  0  0
   46.8790   31.0610   48.7780 O   0  0  0  0  0  0  0  0  0  0  0  0
   45.3280   29.3800   47.3990 C   0  0  0  0  0  0  0  0  0  0  0  0
   44.3580   28.9010   46.5200 C   0  0  0  0  0  0  0  0  0  0  0  0
   44.3520   27.5070   46.5770 C   0  0  0  0  0  0  0  0  0  0  0  0
   45.3090   27.2260   47.4780 N   0  0  0  0  0  0  0  0  0  0  0  0
   45.8890   28.2980   47.9680 N   0  0  0  0  0  0  0  0  0  0  0  0
   45.7710   23.3220   48.7560 N   0  0  0  0  0  0  0  0  0  0  0  0
   45.0380   23.4840   47.5210 C   0  0  0  0  0  0  0  0  0  0  0  0
   45.1850   24.8440   46.8970 C   0  0  0  0  0  0  0  0  0  0  0  0
   45.6720   25.8810   47.8760 C   0  0  0  0  0  0  0  0  0  0  0  0
   45.0830   25.6450   49.2480 C   0  0  0  0  0  0  0  0  0  0  0  0
   45.3880   24.2640   49.7710 C   0  0  0  0  0  0  0  0  0  0  0  0
   45.2868   33.6159   46.7431 H   0  0  0  0  0  0  0  0  0  0  0  0
   46.0165   34.8105   44.7169 H   0  0  0  0  0  0  0  0  0  0  0  0
   48.2400   31.3649   43.5095 H   0  0  0  0  0  0  0  0  0  0  0  0
   47.4932   30.1763   45.5547 H   0  0  0  0  0  0  0  0  0  0  0  0
   46.8163   34.2859   39.6058 H   0  0  0  0  0  0  0  0  0  0  0  0
   48.8494   35.7558   39.6838 H   0  0  0  0  0  0  0  0  0  0  0  0
   50.0794   35.9681   41.8780 H   0  0  0  0  0  0  0  0  0  0  0  0
   43.7054   29.5196   45.8864 H   0  0  0  0  0  0  0  0  0  0  0  0
   43.7157   26.8052   46.0179 H   0  0  0  0  0  0  0  0  0  0  0  0
   46.7747   23.4435   48.5590 H   0  0  0  0  0  0  0  0  0  0  0  0
   45.3995   22.7330   46.8031 H   0  0  0  0  0  0  0  0  0  0  0  0
   43.9726   23.3587   47.7643 H   0  0  0  0  0  0  0  0  0  0  0  0
   45.9056   24.7756   46.0687 H   0  0  0  0  0  0  0  0  0  0  0  0
   44.1913   25.1584   46.5453 H   0  0  0  0  0  0  0  0  0  0  0  0
   46.7677   25.7854   47.8950 H   0  0  0  0  0  0  0  0  0  0  0  0
   45.4999   26.3873   49.9446 H   0  0  0  0  0  0  0  0  0  0  0  0
   43.9902   25.7406   49.1665 H   0  0  0  0  0  0  0  0  0  0  0  0
   44.4897   23.8803   50.2767 H   0  0  0  0  0  0  0  0  0  0  0  0
   46.2479   24.3653   50.4494 H   0  0  0  0  0  0  0  0  0  0  0  0
  1 13  1  0
  2  1  2  0
  3  2  1  0
  4  5  1  0
  4  3  2  0
  5  6  2  0
  6  1  1  0
  7  8  2  0
  7 12  1  0
  8  9  1  0
  9 10  2  0
 11 10  1  0
 11  4  1  0
 12 11  2  0
 13 14  2  0
 13 15  2  0
 16 13  1  0
 16 20  2  0
 17 18  2  0
 17 16  1  0
 18 19  1  0
 19 24  1  0
 19 20  1  0
 21 26  1  0
 22 21  1  0
 23 22  1  0
 23 24  1  0
 24 25  1  0
 25 26  1  0
  2 27  1  0
  3 28  1  0
  5 29  1  0
  6 30  1  0
  7 31  1  0
  8 32  1  0
  9 33  1  0
 17 34  1  0
 18 35  1  0
 21 36  1  0
 22 37  1  0
 22 38  1  0
 23 39  1  0
 23 40  1  0
 24 41  1  0
 25 42  1  0
 25 43  1  0
 26 44  1  0
 26 45  1  0
M  ISO  8  27  14  28  14  29  14  30  14  31  14  32  14  33  14  34  14
M  ISO  8  35  14  36   5  37  13  38  13  39  13  40  13  41  13  42  13
M  ISO  3  43  13  44  13  45  13
M  END
>  <minimizedAffinity>  (1) 
-5.64042425

>  <minimizedRMSD>  (1) 
1.93128836

$$$$
