
     RDKit          3D

 40 43  0  0  0  0  0  0  0  0999 V2000
   44.9810   33.6470   43.1220 C   0  0  0  0  0  0  0  0  0  0  0  0
   45.3110   32.3200   43.2950 C   0  0  0  0  0  0  0  0  0  0  0  0
   45.7340   31.8220   44.5130 C   0  0  0  0  0  0  0  0  0  0  0  0
   45.8390   32.6480   45.5940 C   0  0  0  0  0  0  0  0  0  0  0  0
   45.5190   33.9800   45.4600 C   0  0  0  0  0  0  0  0  0  0  0  0
   45.0940   34.4540   44.2200 C   0  0  0  0  0  0  0  0  0  0  0  0
   45.9950   31.8640   49.1720 C   0  0  0  0  0  0  0  0  0  0  0  0
   47.1830   31.1220   49.2770 C   0  0  0  0  0  0  0  0  0  0  0  0
   47.9050   30.9080   48.1010 C   0  0  0  0  0  0  0  0  0  0  0  0
   47.4410   31.4180   46.9180 N   0  0  0  0  0  0  0  0  0  0  0  0
   46.2830   32.1320   46.8740 C   0  0  0  0  0  0  0  0  0  0  0  0
   45.5790   32.3460   47.9880 N   0  0  0  0  0  0  0  0  0  0  0  0
   44.4580   34.1920   41.5590 S   0  0  0  0  0  0  0  0  0  0  0  0
   44.1250   35.6590   41.6030 O   0  0  0  0  0  0  0  0  0  0  0  0
   43.2450   33.3720   41.1400 O   0  0  0  0  0  0  0  0  0  0  0  0
   45.7440   33.9740   40.3900 C   0  0  0  0  0  0  0  0  0  0  0  0
   47.1040   34.2580   40.5310 C   0  0  0  0  0  0  0  0  0  0  0  0
   47.7300   33.9150   39.3290 C   0  0  0  0  0  0  0  0  0  0  0  0
   46.7360   33.4560   38.5530 N   0  0  0  0  0  0  0  0  0  0  0  0
   45.5700   33.4820   39.1550 N   0  0  0  0  0  0  0  0  0  0  0  0
   47.0670   33.0170   37.2300 C   0  0  0  0  0  0  0  0  0  0  0  0
   48.3470   33.2010   36.7430 C   0  0  0  0  0  0  0  0  0  0  0  0
   48.6770   32.7790   35.4670 C   0  0  0  0  0  0  0  0  0  0  0  0
   47.6750   32.1800   34.7310 C   0  0  0  0  0  0  0  0  0  0  0  0
   46.3780   31.9790   35.1860 C   0  0  0  0  0  0  0  0  0  0  0  0
   46.0840   32.4150   36.4740 C   0  0  0  0  0  0  0  0  0  0  0  0
   45.2354   31.6359   42.4369 H   0  0  0  0  0  0  0  0  0  0  0  0
   45.9869   30.7560   44.6112 H   0  0  0  0  0  0  0  0  0  0  0  0
   45.5976   34.6613   46.3200 H   0  0  0  0  0  0  0  0  0  0  0  0
   44.8394   35.5195   44.1208 H   0  0  0  0  0  0  0  0  0  0  0  0
   45.3948   32.0539   50.0740 H   0  0  0  0  0  0  0  0  0  0  0  0
   47.5295   30.7268   50.2433 H   0  0  0  0  0  0  0  0  0  0  0  0
   48.8421   30.3324   48.1249 H   0  0  0  0  0  0  0  0  0  0  0  0
   47.5929   34.6750   41.4238 H   0  0  0  0  0  0  0  0  0  0  0  0
   48.7970   34.0018   39.0762 H   0  0  0  0  0  0  0  0  0  0  0  0
   49.1076   33.6854   37.3729 H   0  0  0  0  0  0  0  0  0  0  0  0
   49.6895   32.9145   35.0590 H   0  0  0  0  0  0  0  0  0  0  0  0
   47.9201   31.8384   33.7145 H   0  0  0  0  0  0  0  0  0  0  0  0
   45.6168   31.4963   34.5555 H   0  0  0  0  0  0  0  0  0  0  0  0
   45.0733   32.2802   36.8866 H   0  0  0  0  0  0  0  0  0  0  0  0
  1  2  2  0
  1  6  1  0
  2  3  1  0
  3  4  2  0
  4 11  1  0
  5  4  1  0
  6  5  2  0
  7  8  2  0
  9  8  1  0
 10  9  2  0
 11 10  1  0
 11 12  2  0
 12  7  1  0
 13 14  2  0
 13  1  1  0
 15 13  2  0
 16 17  1  0
 16 13  1  0
 18 17  2  0
 19 20  1  0
 19 18  1  0
 20 16  2  0
 21 19  1  0
 22 21  2  0
 23 22  1  0
 24 25  1  0
 24 23  2  0
 25 26  2  0
 26 21  1  0
  2 27  1  0
  3 28  1  0
  5 29  1  0
  6 30  1  0
  7 31  1  0
  8 32  1  0
  9 33  1  0
 17 34  1  0
 18 35  1  0
 22 36  1  0
 23 37  1  0
 24 38  1  0
 25 39  1  0
 26 40  1  0
M  ISO  8  27  14  28  14  29  14  30  14  31  14  32  14  33  14  34  14
M  ISO  6  35  14  36  14  37  14  38  14  39  14  40  14
M  END
>  <minimizedAffinity>  (1) 
-5.61557913

>  <minimizedRMSD>  (1) 
9.98509789

$$$$
