
     RDKit          3D

 39 42  0  0  0  0  0  0  0  0999 V2000
   46.2990   31.8130   46.2780 C   0  0  0  0  0  0  0  0  0  0  0  0
   45.9130   33.1100   46.0090 C   0  0  0  0  0  0  0  0  0  0  0  0
   46.3380   33.7860   44.8760 C   0  0  0  0  0  0  0  0  0  0  0  0
   47.1650   33.1670   43.9860 C   0  0  0  0  0  0  0  0  0  0  0  0
   47.5760   31.8710   44.2170 C   0  0  0  0  0  0  0  0  0  0  0  0
   47.1360   31.2070   45.3660 C   0  0  0  0  0  0  0  0  0  0  0  0
   47.3880   34.4010   40.5380 C   0  0  0  0  0  0  0  0  0  0  0  0
   48.5320   35.2250   40.5900 C   0  0  0  0  0  0  0  0  0  0  0  0
   49.2050   35.3370   41.8170 C   0  0  0  0  0  0  0  0  0  0  0  0
   48.7380   34.6560   42.9120 N   0  0  0  0  0  0  0  0  0  0  0  0
   47.6160   33.8660   42.7980 C   0  0  0  0  0  0  0  0  0  0  0  0
   46.9760   33.7550   41.6410 N   0  0  0  0  0  0  0  0  0  0  0  0
   45.7290   31.0290   47.7140 S   0  0  0  0  0  0  0  0  0  0  0  0
   44.5340   31.7630   48.2730 O   0  0  0  0  0  0  0  0  0  0  0  0
   46.8510   31.0000   48.7400 O   0  0  0  0  0  0  0  0  0  0  0  0
   45.2250   29.4110   47.3500 C   0  0  0  0  0  0  0  0  0  0  0  0
   44.3070   28.9610   46.4140 C   0  0  0  0  0  0  0  0  0  0  0  0
   44.2220   27.5740   46.4760 C   0  0  0  0  0  0  0  0  0  0  0  0
   45.0880   27.2530   47.4420 N   0  0  0  0  0  0  0  0  0  0  0  0
   45.6760   28.3040   47.9580 N   0  0  0  0  0  0  0  0  0  0  0  0
   45.3370   25.9120   47.8570 C   0  0  0  0  0  0  0  0  0  0  0  0
   45.2370   24.8440   46.9700 C   0  0  0  0  0  0  0  0  0  0  0  0
   45.4720   23.5390   47.3470 C   0  0  0  0  0  0  0  0  0  0  0  0
   45.8250   23.2430   48.6470 C   0  0  0  0  0  0  0  0  0  0  0  0
   45.9140   24.3290   49.4920 C   0  0  0  0  0  0  0  0  0  0  0  0
   45.6830   25.5960   49.1180 N   0  0  0  0  0  0  0  0  0  0  0  0
   45.2463   33.6244   46.7167 H   0  0  0  0  0  0  0  0  0  0  0  0
   46.0087   34.8199   44.6952 H   0  0  0  0  0  0  0  0  0  0  0  0
   48.2435   31.3646   43.5042 H   0  0  0  0  0  0  0  0  0  0  0  0
   47.4666   30.1736   45.5469 H   0  0  0  0  0  0  0  0  0  0  0  0
   46.8338   34.2877   39.5946 H   0  0  0  0  0  0  0  0  0  0  0  0
   48.8854   35.7625   39.6977 H   0  0  0  0  0  0  0  0  0  0  0  0
   50.1024   35.9678   41.8997 H   0  0  0  0  0  0  0  0  0  0  0  0
   43.7340   29.6020   45.7279 H   0  0  0  0  0  0  0  0  0  0  0  0
   43.5926   26.9021   45.8740 H   0  0  0  0  0  0  0  0  0  0  0  0
   44.9592   25.0497   45.9257 H   0  0  0  0  0  0  0  0  0  0  0  0
   45.3775   22.7301   46.6076 H   0  0  0  0  0  0  0  0  0  0  0  0
   46.0213   22.2149   48.9853 H   0  0  0  0  0  0  0  0  0  0  0  0
   46.1923   24.1443   50.5401 H   0  0  0  0  0  0  0  0  0  0  0  0
  1 13  1  0
  2  1  2  0
  3  2  1  0
  4  5  1  0
  4  3  2  0
  5  6  2  0
  6  1  1  0
  7  8  2  0
  7 12  1  0
  8  9  1  0
  9 10  2  0
 11 10  1  0
 11  4  1  0
 12 11  2  0
 13 14  2  0
 13 15  2  0
 16 13  1  0
 16 20  2  0
 17 18  2  0
 17 16  1  0
 18 19  1  0
 19 21  1  0
 19 20  1  0
 21 26  2  0
 22 23  2  0
 22 21  1  0
 23 24  1  0
 24 25  2  0
 26 25  1  0
  2 27  1  0
  3 28  1  0
  5 29  1  0
  6 30  1  0
  7 31  1  0
  8 32  1  0
  9 33  1  0
 17 34  1  0
 18 35  1  0
 22 36  1  0
 23 37  1  0
 24 38  1  0
 25 39  1  0
M  ISO  8  27  14  28  14  29  14  30  14  31  14  32  14  33  14  34  14
M  ISO  5  35  14  36  14  37  14  38  14  39  14
M  END
>  <minimizedAffinity>  (1) 
-5.59116745

>  <minimizedRMSD>  (1) 
2.15432858

$$$$
