
     RDKit          3D

 11 11  0  0  0  0  0  0  0  0999 V2000
   44.7600   35.2070   44.1360 C   0  0  0  0  0  0  0  0  0  0  0  0
   45.4850   35.5610   42.9820 C   0  0  0  0  0  0  0  0  0  0  0  0
   46.7100   34.9050   42.7670 C   0  0  0  0  0  0  0  0  0  0  0  0
   47.1260   33.9780   43.6670 N   0  0  0  0  0  0  0  0  0  0  0  0
   46.3970   33.6710   44.7580 C   0  0  0  0  0  0  0  0  0  0  0  0
   45.2270   34.2820   44.9860 N   0  0  0  0  0  0  0  0  0  0  0  0
   43.5670   35.8440   44.3480 O   0  0  0  0  0  0  0  0  0  0  0  0
   45.1091   36.3185   42.2786 H   0  0  0  0  0  0  0  0  0  0  0  0
   47.3216   35.1394   41.8833 H   0  0  0  0  0  0  0  0  0  0  0  0
   46.7651   32.9138   45.4659 H   0  0  0  0  0  0  0  0  0  0  0  0
   43.2470   36.5233   43.7028 H   0  0  0  0  0  0  0  0  0  0  0  0
  1  7  1  0
  1  6  2  0
  2  1  1  0
  3  2  2  0
  3  4  1  0
  4  5  2  0
  5  6  1  0
  2  8  1  0
  3  9  1  0
  5 10  1  0
  7 11  1  0
M  ISO  4   8  14   9  14  10  14  11   3
M  END
>  <minimizedAffinity>  (1) 
-3.18751907

>  <minimizedRMSD>  (1) 
1.07088673

$$$$
