
     RDKit          3D

 17 17  0  0  0  0  0  0  0  0999 V2000
   46.1690   34.9880   43.0190 C   0  0  0  0  0  0  0  0  0  0  0  0
   45.2020   35.9920   43.2810 C   0  0  0  0  0  0  0  0  0  0  0  0
   44.5300   35.9190   44.5140 C   0  0  0  0  0  0  0  0  0  0  0  0
   44.8350   34.9190   45.3690 N   0  0  0  0  0  0  0  0  0  0  0  0
   45.7640   33.9860   45.0740 C   0  0  0  0  0  0  0  0  0  0  0  0
   46.4140   34.0310   43.9130 N   0  0  0  0  0  0  0  0  0  0  0  0
   46.8230   35.0470   41.8310 O   0  0  0  0  0  0  0  0  0  0  0  0
   48.1740   34.6280   41.7490 C   0  0  0  0  0  0  0  0  0  0  0  0
   49.0050   35.8740   41.5110 C   0  0  0  0  0  0  0  0  0  0  0  0
   44.9880   36.7896   42.5544 H   0  0  0  0  0  0  0  0  0  0  0  0
   43.7668   36.6657   44.7784 H   0  0  0  0  0  0  0  0  0  0  0  0
   45.9851   33.1854   45.7953 H   0  0  0  0  0  0  0  0  0  0  0  0
   48.4781   34.1437   42.6887 H   0  0  0  0  0  0  0  0  0  0  0  0
   48.3129   33.8996   40.9365 H   0  0  0  0  0  0  0  0  0  0  0  0
   49.2962   36.3107   42.4777 H   0  0  0  0  0  0  0  0  0  0  0  0
   49.9080   35.6092   40.9413 H   0  0  0  0  0  0  0  0  0  0  0  0
   48.4136   36.6059   40.9413 H   0  0  0  0  0  0  0  0  0  0  0  0
  1  2  2  0
  1  6  1  0
  2  3  1  0
  3  4  2  0
  5  4  1  0
  6  5  2  0
  7  1  1  0
  8  7  1  0
  9  8  1  0
  2 10  1  0
  3 11  1  0
  5 12  1  0
  8 13  1  0
  8 14  1  0
  9 15  1  0
  9 16  1  0
  9 17  1  0
M  ISO  8  10  14  11  14  12  14  13   8  14   8  15   8  16   8  17   8
M  END
>  <minimizedAffinity>  (1) 
-3.58865762

>  <minimizedRMSD>  (1) 
3.98839974

$$$$
