
     RDKit          3D

 13 13  0  0  0  0  0  0  0  0999 V2000
   45.4280   34.2070   45.3890 C   0  0  0  0  0  0  0  0  0  0  0  0
   46.2910   33.7620   44.3780 C   0  0  0  0  0  0  0  0  0  0  0  0
   47.0890   32.6320   44.6740 C   0  0  0  0  0  0  0  0  0  0  0  0
   46.9770   32.0490   45.9030 N   0  0  0  0  0  0  0  0  0  0  0  0
   46.1310   32.5230   46.8310 C   0  0  0  0  0  0  0  0  0  0  0  0
   45.3630   33.5860   46.5840 N   0  0  0  0  0  0  0  0  0  0  0  0
   44.6470   35.3070   45.1070 O   0  0  0  0  0  0  0  0  0  0  0  0
   44.6060   35.7700   43.7970 C   0  0  0  0  0  0  0  0  0  0  0  0
   45.1360   36.8450   43.3660 O   0  0  0  0  0  0  0  0  0  0  0  0
   46.3451   34.2668   43.4022 H   0  0  0  0  0  0  0  0  0  0  0  0
   47.7882   32.2299   43.9260 H   0  0  0  0  0  0  0  0  0  0  0  0
   46.0697   32.0272   47.8110 H   0  0  0  0  0  0  0  0  0  0  0  0
   44.0662   35.1511   43.0652 H   0  0  0  0  0  0  0  0  0  0  0  0
  1  6  2  0
  2  3  2  0
  2  1  1  0
  3  4  1  0
  4  5  2  0
  6  5  1  0
  7  1  1  0
  8  7  1  0
  9  8  2  0
  2 10  1  0
  3 11  1  0
  5 12  1  0
  8 13  1  0
M  ISO  4  10  14  11  14  12  14  13   6
M  END
>  <minimizedAffinity>  (1) 
-2.92646646

>  <minimizedRMSD>  (1) 
2.43806601

$$$$
