
     RDKit          3D

 25 27  0  0  1  0  0  0  0  0999 V2000
   47.2290   34.4600   43.5930 O   0  0  0  0  0  0  0  0  0  0  0  0
   47.4270   34.4000   42.2340 C   0  0  0  0  0  0  0  0  0  0  0  0
   48.4270   35.2820   41.7720 C   0  0  0  0  0  0  0  0  0  0  0  0
   48.7030   35.3060   40.4110 C   0  0  0  0  0  0  0  0  0  0  0  0
   48.0080   34.4880   39.6020 N   0  0  0  0  0  0  0  0  0  0  0  0
   47.0690   33.6660   40.0700 C   0  0  0  0  0  0  0  0  0  0  0  0
   46.7750   33.6160   41.3800 N   0  0  0  0  0  0  0  0  0  0  0  0
   46.3540   33.5530   44.2650 C   0  0  2  0  0  0  0  0  0  0  0  0
   45.2570   34.2540   45.0330 C   0  0  0  0  0  0  0  0  0  0  0  0
   46.3750   33.5980   45.7450 C   0  0  1  0  0  0  0  0  0  0  0  0
   45.9740   32.3440   46.5250 C   0  0  0  0  0  0  0  0  0  0  0  0
   45.3070   32.5790   47.8200 C   0  0  0  0  0  0  0  0  0  0  0  0
   46.6800   32.0040   47.7820 C   0  0  0  0  0  0  0  0  0  0  0  0
   48.9731   35.9328   42.4708 H   0  0  0  0  0  0  0  0  0  0  0  0
   49.4725   35.9788   40.0046 H   0  0  0  0  0  0  0  0  0  0  0  0
   46.5240   33.0157   39.3699 H   0  0  0  0  0  0  0  0  0  0  0  0
   46.4248   32.7445   43.5225 H   0  0  0  0  0  0  0  0  0  0  0  0
   45.1838   35.3514   45.0128 H   0  0  0  0  0  0  0  0  0  0  0  0
   44.1598   34.1840   45.0679 H   0  0  0  0  0  0  0  0  0  0  0  0
   47.1451   33.9011   46.4696 H   0  0  0  0  0  0  0  0  0  0  0  0
   45.7576   31.7785   45.6067 H   0  0  0  0  0  0  0  0  0  0  0  0
   45.1507   33.6067   48.1798 H   0  0  0  0  0  0  0  0  0  0  0  0
   44.3489   32.2766   48.2680 H   0  0  0  0  0  0  0  0  0  0  0  0
   46.8443   30.9510   48.0544 H   0  0  0  0  0  0  0  0  0  0  0  0
   47.6497   32.2691   48.2286 H   0  0  0  0  0  0  0  0  0  0  0  0
  1  8  1  0
  2  1  1  0
  3  2  2  0
  4  3  1  0
  5  6  1  0
  5  4  2  0
  6  7  2  0
  7  2  1  0
  8  9  1  0
  8 10  1  0
  9 10  1  0
 10 11  1  0
 11 13  1  0
 11 12  1  0
 13 12  1  0
  3 14  1  0
  4 15  1  0
  6 16  1  0
  8 17  1  1
  9 18  1  0
  9 19  1  0
 10 20  1  6
 11 21  1  0
 12 22  1  0
 12 23  1  0
 13 24  1  0
 13 25  1  0
M  ISO  8  14  14  15  14  16  14  17  13  18  13  19  13  20  13  21  13
M  ISO  4  22  13  23  13  24  13  25  13
M  END
>  <minimizedAffinity>  (1) 
-3.75896835

>  <minimizedRMSD>  (1) 
1.95755947

$$$$
