
     RDKit          3D

 21 22  0  0  1  0  0  0  0  0999 V2000
   46.2660   34.1800   42.1490 C   0  0  2  0  0  0  0  0  0  0  0  0
   45.8280   35.5150   42.7000 C   0  0  0  0  0  0  0  0  0  0  0  0
   46.5390   34.5230   43.5640 C   0  0  1  0  0  0  0  0  0  0  0  0
   45.6810   33.9310   44.6690 C   0  0  0  0  0  0  0  0  0  0  0  0
   46.5050   33.6060   45.7310 F   0  0  0  0  0  0  0  0  0  0  0  0
   45.0940   32.7590   44.1770 F   0  0  0  0  0  0  0  0  0  0  0  0
   44.7330   34.7930   45.1330 F   0  0  0  0  0  0  0  0  0  0  0  0
   47.3780   34.2950   41.2540 O   0  0  0  0  0  0  0  0  0  0  0  0
   47.2710   34.0170   39.9210 C   0  0  0  0  0  0  0  0  0  0  0  0
   48.3010   34.5850   39.1420 C   0  0  0  0  0  0  0  0  0  0  0  0
   48.3010   34.3760   37.7620 C   0  0  0  0  0  0  0  0  0  0  0  0
   47.3010   33.6300   37.2430 N   0  0  0  0  0  0  0  0  0  0  0  0
   46.3420   33.1070   38.0090 C   0  0  0  0  0  0  0  0  0  0  0  0
   46.3210   33.2940   39.3370 N   0  0  0  0  0  0  0  0  0  0  0  0
   45.7863   33.3241   41.6516 H   0  0  0  0  0  0  0  0  0  0  0  0
   46.3372   36.4373   42.3836 H   0  0  0  0  0  0  0  0  0  0  0  0
   44.8768   36.0643   42.7580 H   0  0  0  0  0  0  0  0  0  0  0  0
   47.4576   34.4914   44.1683 H   0  0  0  0  0  0  0  0  0  0  0  0
   49.0928   35.1841   39.6155 H   0  0  0  0  0  0  0  0  0  0  0  0
   49.0861   34.8028   37.1206 H   0  0  0  0  0  0  0  0  0  0  0  0
   45.5484   32.5072   37.5395 H   0  0  0  0  0  0  0  0  0  0  0  0
  1  2  1  0
  1  3  1  0
  2  3  1  0
  3  4  1  0
  4  7  1  0
  4  5  1  0
  6  4  1  0
  8  1  1  0
  9  8  1  0
 10  9  2  0
 11 10  1  0
 12 11  2  0
 12 13  1  0
 13 14  2  0
 14  9  1  0
  1 15  1  1
  2 16  1  0
  2 17  1  0
  3 18  1  1
 10 19  1  0
 11 20  1  0
 13 21  1  0
M  ISO  7  15  13  16  13  17  13  18  13  19  14  20  14  21  14
M  END
>  <minimizedAffinity>  (1) 
-3.73794818

>  <minimizedRMSD>  (1) 
2.60842133

$$$$
