
     RDKit          3D

 31 34  0  0  1  0  0  0  0  0999 V2000
   45.8550   34.0510   44.4450 C   0  0  2  0  0  0  0  0  0  0  0  0
   45.1230   33.9920   43.1440 C   0  0  0  0  0  0  0  0  0  0  0  0
   46.4000   34.7070   43.2150 C   0  0  2  0  0  0  0  0  0  0  0  0
   47.6250   34.2560   42.6280 N   0  0  0  0  0  0  0  0  0  0  0  0
   48.8620   34.5520   43.0020 N   0  0  0  0  0  0  0  0  0  0  0  0
   49.7340   33.9290   42.1920 C   0  0  0  0  0  0  0  0  0  0  0  0
   48.9700   33.2070   41.2670 C   0  0  0  0  0  0  0  0  0  0  0  0
   47.6120   33.4200   41.5520 C   0  0  0  0  0  0  0  0  0  0  0  0
   46.5140   32.8310   44.7930 O   0  0  0  0  0  0  0  0  0  0  0  0
   46.6200   32.4240   46.0860 C   0  0  0  0  0  0  0  0  0  0  0  0
   45.5660   32.9310   46.8880 C   0  0  0  0  0  0  0  0  0  0  0  0
   45.5300   32.6020   48.2440 C   0  0  0  0  0  0  0  0  0  0  0  0
   46.5080   31.8130   48.7260 N   0  0  0  0  0  0  0  0  0  0  0  0
   47.4920   31.3510   47.9410 C   0  0  0  0  0  0  0  0  0  0  0  0
   47.5280   31.6600   46.6640 N   0  0  0  0  0  0  0  0  0  0  0  0
   48.4930   30.5180   48.5380 N   0  0  0  0  0  0  0  0  0  0  0  0
   49.2520   29.4690   48.1910 C   0  0  0  0  0  0  0  0  0  0  0  0
   50.0270   29.1380   49.2550 N   0  0  0  0  0  0  0  0  0  0  0  0
   49.7410   29.9920   50.2590 C   0  0  0  0  0  0  0  0  0  0  0  0
   48.7990   30.8320   49.8070 N   0  0  0  0  0  0  0  0  0  0  0  0
   45.6180   34.3725   45.4699 H   0  0  0  0  0  0  0  0  0  0  0  0
   44.1864   34.5546   43.0163 H   0  0  0  0  0  0  0  0  0  0  0  0
   44.7247   33.1808   42.5168 H   0  0  0  0  0  0  0  0  0  0  0  0
   46.7099   35.7200   42.9186 H   0  0  0  0  0  0  0  0  0  0  0  0
   50.8317   33.9767   42.2450 H   0  0  0  0  0  0  0  0  0  0  0  0
   49.3665   32.5796   40.4551 H   0  0  0  0  0  0  0  0  0  0  0  0
   46.7380   33.0069   41.0272 H   0  0  0  0  0  0  0  0  0  0  0  0
   44.7889   33.5735   46.4483 H   0  0  0  0  0  0  0  0  0  0  0  0
   44.7280   32.9756   48.8977 H   0  0  0  0  0  0  0  0  0  0  0  0
   49.2475   28.9641   47.2137 H   0  0  0  0  0  0  0  0  0  0  0  0
   50.1954   29.9981   51.2607 H   0  0  0  0  0  0  0  0  0  0  0  0
  1  9  1  0
  2  3  1  0
  2  1  1  0
  3  1  1  0
  4  5  1  0
  4  3  1  0
  6  5  2  0
  7  8  2  0
  7  6  1  0
  8  4  1  0
  9 10  1  0
 10 15  1  0
 10 11  2  0
 11 12  1  0
 12 13  2  0
 14 16  1  0
 14 13  1  0
 15 14  2  0
 16 20  1  0
 17 16  1  0
 17 18  2  0
 18 19  1  0
 20 19  2  0
  1 21  1  1
  2 22  1  0
  2 23  1  0
  3 24  1  1
  6 25  1  0
  7 26  1  0
  8 27  1  0
 11 28  1  0
 12 29  1  0
 17 30  1  0
 19 31  1  0
M  ISO  8  21  13  22  13  23  13  24  13  25  14  26  14  27  14  28  14
M  ISO  3  29  14  30  14  31  14
M  END
>  <minimizedAffinity>  (1) 
-4.6456275

>  <minimizedRMSD>  (1) 
5.60299826

$$$$
