
     RDKit          3D

 27 29  0  0  0  0  0  0  0  0999 V2000
   44.8070   34.9890   45.7320 C   0  0  0  0  0  0  0  0  0  0  0  0
   44.4170   35.7330   44.6140 C   0  0  0  0  0  0  0  0  0  0  0  0
   44.9110   35.3130   43.3610 C   0  0  0  0  0  0  0  0  0  0  0  0
   45.7260   34.2270   43.3090 N   0  0  0  0  0  0  0  0  0  0  0  0
   46.0780   33.5350   44.4330 C   0  0  0  0  0  0  0  0  0  0  0  0
   45.6200   33.9180   45.6220 N   0  0  0  0  0  0  0  0  0  0  0  0
   46.9350   32.3920   44.3870 N   0  0  0  0  0  0  0  0  0  0  0  0
   47.6800   32.2470   43.2750 C   0  0  0  0  0  0  0  0  0  0  0  0
   48.4220   31.0950   43.4400 C   0  0  0  0  0  0  0  0  0  0  0  0
   48.1130   30.5660   44.6450 N   0  0  0  0  0  0  0  0  0  0  0  0
   47.2080   31.3600   45.2110 C   0  0  0  0  0  0  0  0  0  0  0  0
   46.5430   31.2640   46.4870 C   0  0  0  0  0  0  0  0  0  0  0  0
   47.2870   31.8750   47.5000 C   0  0  0  0  0  0  0  0  0  0  0  0
   46.8410   31.9060   48.8190 C   0  0  0  0  0  0  0  0  0  0  0  0
   45.6240   31.3140   49.1430 C   0  0  0  0  0  0  0  0  0  0  0  0
   44.9000   30.7160   48.1330 C   0  0  0  0  0  0  0  0  0  0  0  0
   45.3510   30.6870   46.8120 C   0  0  0  0  0  0  0  0  0  0  0  0
   44.4416   35.2846   46.7265 H   0  0  0  0  0  0  0  0  0  0  0  0
   43.7548   36.6064   44.7073 H   0  0  0  0  0  0  0  0  0  0  0  0
   44.6412   35.8550   42.4426 H   0  0  0  0  0  0  0  0  0  0  0  0
   47.6945   32.9174   42.4030 H   0  0  0  0  0  0  0  0  0  0  0  0
   49.1396   30.6798   42.7171 H   0  0  0  0  0  0  0  0  0  0  0  0
   48.2500   32.3437   47.2490 H   0  0  0  0  0  0  0  0  0  0  0  0
   47.4454   32.3941   49.5978 H   0  0  0  0  0  0  0  0  0  0  0  0
   45.2494   31.3228   50.1772 H   0  0  0  0  0  0  0  0  0  0  0  0
   43.9354   30.2464   48.3762 H   0  0  0  0  0  0  0  0  0  0  0  0
   44.7453   30.1991   46.0341 H   0  0  0  0  0  0  0  0  0  0  0  0
  2  1  2  0
  3  2  1  0
  4  3  2  0
  4  5  1  0
  5  6  2  0
  6  1  1  0
  7  5  1  0
  7 11  1  0
  8  9  2  0
  8  7  1  0
  9 10  1  0
 10 11  2  0
 11 12  1  0
 12 17  1  0
 12 13  2  0
 13 14  1  0
 14 15  2  0
 16 15  1  0
 17 16  2  0
  1 18  1  0
  2 19  1  0
  3 20  1  0
  8 21  1  0
  9 22  1  0
 13 23  1  0
 14 24  1  0
 15 25  1  0
 16 26  1  0
 17 27  1  0
M  ISO  8  18  14  19  14  20  14  21  14  22  14  23  14  24  14  25  14
M  ISO  2  26  14  27  14
M  END
>  <minimizedAffinity>  (1) 
-5.02632809

>  <minimizedRMSD>  (1) 
3.62565184

$$$$
