
     RDKit          3D

 33 35  0  0  1  0  0  0  0  0999 V2000
   47.7180   35.0160   41.0810 C   0  0  2  0  0  0  0  0  0  0  0  0
   48.9550   35.7120   41.4280 C   0  0  0  0  0  0  0  0  0  0  0  0
   49.6480   34.8930   42.5120 C   0  0  0  0  0  0  0  0  0  0  0  0
   48.8300   33.6470   42.7080 C   0  0  0  0  0  0  0  0  0  0  0  0
   47.4830   34.0020   42.2360 C   0  0  1  0  0  0  0  0  0  0  0  0
   47.7120   34.2090   39.8480 C   0  0  0  0  0  0  0  0  0  0  0  0
   48.4780   34.6270   38.7480 C   0  0  0  0  0  0  0  0  0  0  0  0
   48.4990   33.8530   37.5900 C   0  0  0  0  0  0  0  0  0  0  0  0
   47.7450   32.7060   37.6130 N   0  0  0  0  0  0  0  0  0  0  0  0
   47.0170   32.3270   38.6770 C   0  0  0  0  0  0  0  0  0  0  0  0
   46.9990   33.0780   39.7970 N   0  0  0  0  0  0  0  0  0  0  0  0
   46.5090   34.4930   43.2010 C   0  0  0  0  0  0  0  0  0  0  0  0
   46.3610   33.8050   44.4130 C   0  0  0  0  0  0  0  0  0  0  0  0
   45.4530   34.1930   45.4080 C   0  0  0  0  0  0  0  0  0  0  0  0
   44.6620   35.3030   45.1930 C   0  0  0  0  0  0  0  0  0  0  0  0
   44.7740   36.0090   44.0170 C   0  0  0  0  0  0  0  0  0  0  0  0
   45.6780   35.5850   43.0800 C   0  0  0  0  0  0  0  0  0  0  0  0
   46.9657   35.8032   40.9247 H   0  0  0  0  0  0  0  0  0  0  0  0
   49.6037   35.7904   40.5431 H   0  0  0  0  0  0  0  0  0  0  0  0
   48.7416   36.7300   41.7859 H   0  0  0  0  0  0  0  0  0  0  0  0
   50.6676   34.6300   42.1937 H   0  0  0  0  0  0  0  0  0  0  0  0
   49.7251   35.4647   43.4486 H   0  0  0  0  0  0  0  0  0  0  0  0
   49.2415   32.8165   42.1157 H   0  0  0  0  0  0  0  0  0  0  0  0
   48.8275   33.3133   43.7562 H   0  0  0  0  0  0  0  0  0  0  0  0
   46.9857   33.0680   41.9354 H   0  0  0  0  0  0  0  0  0  0  0  0
   49.0581   35.5601   38.8003 H   0  0  0  0  0  0  0  0  0  0  0  0
   49.0866   34.1444   36.7069 H   0  0  0  0  0  0  0  0  0  0  0  0
   46.4312   31.3970   38.6341 H   0  0  0  0  0  0  0  0  0  0  0  0
   46.9871   32.9184   44.5920 H   0  0  0  0  0  0  0  0  0  0  0  0
   45.3724   33.6220   46.3447 H   0  0  0  0  0  0  0  0  0  0  0  0
   43.9425   35.6233   45.9609 H   0  0  0  0  0  0  0  0  0  0  0  0
   44.1499   36.8960   43.8335 H   0  0  0  0  0  0  0  0  0  0  0  0
   45.7467   36.1673   42.1493 H   0  0  0  0  0  0  0  0  0  0  0  0
  1  2  1  0
  1  5  1  0
  2  3  1  0
  3  4  1  0
  5  4  1  0
  5 12  1  0
  6  1  1  0
  7  6  2  0
  8  9  2  0
  8  7  1  0
  9 10  1  0
 10 11  2  0
 11  6  1  0
 12 13  2  0
 13 14  1  0
 15 14  2  0
 16 15  1  0
 17 12  1  0
 17 16  2  0
  1 18  1  6
  2 19  1  0
  2 20  1  0
  3 21  1  0
  3 22  1  0
  4 23  1  0
  4 24  1  0
  5 25  1  6
  7 26  1  0
  8 27  1  0
 10 28  1  0
 13 29  1  0
 14 30  1  0
 15 31  1  0
 16 32  1  0
 17 33  1  0
M  ISO  8  18  13  19  13  20  13  21  13  22  13  23  13  24  13  25  13
M  ISO  8  26  14  27  14  28  14  29  14  30  14  31  14  32  14  33  14
M  END
>  <minimizedAffinity>  (1) 
-5.92823362

>  <minimizedRMSD>  (1) 
3.53046679

$$$$
