
     RDKit          3D

 27 29  0  0  1  0  0  0  0  0999 V2000
   47.7520   33.2620   43.3570 C   0  0  2  0  0  0  0  0  0  0  0  0
   48.4780   34.4490   42.8160 C   0  0  0  0  0  0  0  0  0  0  0  0
   47.3100   33.9310   42.0930 C   0  0  2  0  0  0  0  0  0  0  0  0
   46.0420   34.5880   42.0160 N   0  0  0  0  0  0  0  0  0  0  0  0
   45.6150   35.6200   42.7210 N   0  0  0  0  0  0  0  0  0  0  0  0
   44.3650   35.9370   42.3460 C   0  0  0  0  0  0  0  0  0  0  0  0
   44.0110   35.0280   41.3410 C   0  0  0  0  0  0  0  0  0  0  0  0
   45.0920   34.1660   41.1340 C   0  0  0  0  0  0  0  0  0  0  0  0
   46.9260   33.5720   44.4960 O   0  0  0  0  0  0  0  0  0  0  0  0
   46.7960   32.6940   45.5270 C   0  0  0  0  0  0  0  0  0  0  0  0
   47.1940   31.3820   45.1640 C   0  0  0  0  0  0  0  0  0  0  0  0
   47.1210   30.3670   46.1150 C   0  0  0  0  0  0  0  0  0  0  0  0
   46.6680   30.6820   47.3540 N   0  0  0  0  0  0  0  0  0  0  0  0
   46.3020   31.9360   47.6550 C   0  0  0  0  0  0  0  0  0  0  0  0
   46.3690   32.9030   46.7590 N   0  0  0  0  0  0  0  0  0  0  0  0
   45.8260   32.1880   49.0130 C   0  0  0  0  0  0  0  0  0  0  0  0
   45.1620   31.3000   49.6280 O   0  0  0  0  0  0  0  0  0  0  0  0
   48.0211   32.2364   43.6499 H   0  0  0  0  0  0  0  0  0  0  0  0
   48.4149   35.4149   43.3385 H   0  0  0  0  0  0  0  0  0  0  0  0
   49.5235   34.6597   42.5467 H   0  0  0  0  0  0  0  0  0  0  0  0
   47.1435   33.6333   41.0472 H   0  0  0  0  0  0  0  0  0  0  0  0
   43.7424   36.7497   42.7485 H   0  0  0  0  0  0  0  0  0  0  0  0
   43.0496   34.9976   40.8074 H   0  0  0  0  0  0  0  0  0  0  0  0
   45.1607   33.3330   40.4189 H   0  0  0  0  0  0  0  0  0  0  0  0
   47.5548   31.1693   44.1469 H   0  0  0  0  0  0  0  0  0  0  0  0
   47.4224   29.3383   45.8680 H   0  0  0  0  0  0  0  0  0  0  0  0
   46.0438   33.1488   49.5023 H   0  0  0  0  0  0  0  0  0  0  0  0
  1  9  1  0
  2  1  1  0
  3  2  1  0
  3  1  1  0
  4  3  1  0
  4  5  1  0
  6  5  2  0
  7  6  1  0
  8  7  2  0
  8  4  1  0
  9 10  1  0
 10 15  1  0
 11 10  2  0
 11 12  1  0
 12 13  2  0
 13 14  1  0
 14 16  1  0
 15 14  2  0
 16 17  2  0
  1 18  1  6
  2 19  1  0
  2 20  1  0
  3 21  1  6
  6 22  1  0
  7 23  1  0
  8 24  1  0
 11 25  1  0
 12 26  1  0
 16 27  1  0
M  ISO  8  18  13  19  13  20  13  21  13  22  14  23  14  24  14  25  14
M  ISO  2  26  14  27   6
M  END
>  <minimizedAffinity>  (1) 
-4.26454544

>  <minimizedRMSD>  (1) 
4.56650972

$$$$
