
     RDKit          3D

 28 30  0  0  1  0  0  0  0  0999 V2000
   47.5870   31.0150   43.7570 C   0  0  2  0  0  0  0  0  0  0  0  0
   48.5730   29.9960   44.2190 C   0  0  0  0  0  0  0  0  0  0  0  0
   48.4110   30.2300   42.7800 C   0  0  2  0  0  0  0  0  0  0  0  0
   49.3600   30.8870   41.9340 N   0  0  0  0  0  0  0  0  0  0  0  0
   50.5770   31.2910   42.2600 N   0  0  0  0  0  0  0  0  0  0  0  0
   51.1620   31.8680   41.1980 C   0  0  0  0  0  0  0  0  0  0  0  0
   50.2240   31.8040   40.1580 C   0  0  0  0  0  0  0  0  0  0  0  0
   49.0620   31.1710   40.6350 C   0  0  0  0  0  0  0  0  0  0  0  0
   48.0090   32.3640   43.9220 O   0  0  0  0  0  0  0  0  0  0  0  0
   47.1830   33.4190   43.7020 C   0  0  0  0  0  0  0  0  0  0  0  0
   47.4060   33.9940   42.4240 C   0  0  0  0  0  0  0  0  0  0  0  0
   46.6310   35.0980   42.0420 C   0  0  0  0  0  0  0  0  0  0  0  0
   45.7020   35.5580   42.9210 N   0  0  0  0  0  0  0  0  0  0  0  0
   45.5280   34.9790   44.1190 C   0  0  0  0  0  0  0  0  0  0  0  0
   46.2540   33.9450   44.4800 N   0  0  0  0  0  0  0  0  0  0  0  0
   44.4980   35.5480   45.0030 C   0  0  0  0  0  0  0  0  0  0  0  0
   46.5145   31.1991   43.9176 H   0  0  0  0  0  0  0  0  0  0  0  0
   49.4953   30.3169   44.7254 H   0  0  0  0  0  0  0  0  0  0  0  0
   48.5208   29.1094   44.8680 H   0  0  0  0  0  0  0  0  0  0  0  0
   48.2278   29.5574   41.9291 H   0  0  0  0  0  0  0  0  0  0  0  0
   52.1716   32.3024   41.1531 H   0  0  0  0  0  0  0  0  0  0  0  0
   50.3723   32.1859   39.1371 H   0  0  0  0  0  0  0  0  0  0  0  0
   48.1320   30.9559   40.0883 H   0  0  0  0  0  0  0  0  0  0  0  0
   48.1701   33.5826   41.7480 H   0  0  0  0  0  0  0  0  0  0  0  0
   46.7704   35.5769   41.0616 H   0  0  0  0  0  0  0  0  0  0  0  0
   44.7866   35.3885   46.0524 H   0  0  0  0  0  0  0  0  0  0  0  0
   44.4031   36.6265   44.8086 H   0  0  0  0  0  0  0  0  0  0  0  0
   43.5345   35.0542   44.8086 H   0  0  0  0  0  0  0  0  0  0  0  0
  1  9  1  0
  1  2  1  0
  3  1  1  0
  3  2  1  0
  4  5  1  0
  4  3  1  0
  6  5  2  0
  7  8  2  0
  7  6  1  0
  8  4  1  0
 10  9  1  0
 10 15  1  0
 11 10  2  0
 12 11  1  0
 12 13  2  0
 13 14  1  0
 14 15  2  0
 14 16  1  0
  1 17  1  6
  2 18  1  0
  2 19  1  0
  3 20  1  6
  6 21  1  0
  7 22  1  0
  8 23  1  0
 11 24  1  0
 12 25  1  0
 16 26  1  0
 16 27  1  0
 16 28  1  0
M  ISO  8  17  13  18  13  19  13  20  13  21  14  22  14  23  14  24  14
M  ISO  4  25  14  26   8  27   8  28   8
M  END
>  <minimizedAffinity>  (1) 
-3.2765038

>  <minimizedRMSD>  (1) 
1.46319664

$$$$
