
     RDKit          3D

 33 35  0  0  1  0  0  0  0  0999 V2000
   47.7210   34.9450   41.1110 C   0  0  2  0  0  0  0  0  0  0  0  0
   48.9320   35.7280   41.3750 C   0  0  0  0  0  0  0  0  0  0  0  0
   49.7860   34.9400   42.3710 C   0  0  0  0  0  0  0  0  0  0  0  0
   49.0960   33.6270   42.6040 C   0  0  0  0  0  0  0  0  0  0  0  0
   47.6900   33.8750   42.2410 C   0  0  1  0  0  0  0  0  0  0  0  0
   47.6820   34.1710   39.8560 C   0  0  0  0  0  0  0  0  0  0  0  0
   48.4330   34.6080   38.7540 C   0  0  0  0  0  0  0  0  0  0  0  0
   48.4220   33.8650   37.5730 C   0  0  0  0  0  0  0  0  0  0  0  0
   47.6530   32.7260   37.5770 N   0  0  0  0  0  0  0  0  0  0  0  0
   46.9420   32.3310   38.6500 C   0  0  0  0  0  0  0  0  0  0  0  0
   46.9560   33.0490   39.7820 N   0  0  0  0  0  0  0  0  0  0  0  0
   46.7780   34.2200   43.2770 N   0  0  0  0  0  0  0  0  0  0  0  0
   45.8970   35.2490   43.2320 C   0  0  0  0  0  0  0  0  0  0  0  0
   45.0210   35.5790   44.2290 C   0  0  0  0  0  0  0  0  0  0  0  0
   44.9990   34.8320   45.3880 C   0  0  0  0  0  0  0  0  0  0  0  0
   44.2580   35.0120   46.3810 O   0  0  0  0  0  0  0  0  0  0  0  0
   45.8560   33.8000   45.4780 N   0  0  0  0  0  0  0  0  0  0  0  0
   46.6900   33.5320   44.4570 C   0  0  0  0  0  0  0  0  0  0  0  0
   47.4770   32.5480   44.5920 O   0  0  0  0  0  0  0  0  0  0  0  0
   46.8922   35.6658   41.0523 H   0  0  0  0  0  0  0  0  0  0  0  0
   49.4912   35.8803   40.4400 H   0  0  0  0  0  0  0  0  0  0  0  0
   48.6716   36.7146   41.7859 H   0  0  0  0  0  0  0  0  0  0  0  0
   50.7900   34.7698   41.9550 H   0  0  0  0  0  0  0  0  0  0  0  0
   49.8992   35.4950   43.3139 H   0  0  0  0  0  0  0  0  0  0  0  0
   49.5290   32.8425   41.9660 H   0  0  0  0  0  0  0  0  0  0  0  0
   49.2031   33.2785   43.6418 H   0  0  0  0  0  0  0  0  0  0  0  0
   47.2675   32.9095   41.9258 H   0  0  0  0  0  0  0  0  0  0  0  0
   49.0271   35.5313   38.8209 H   0  0  0  0  0  0  0  0  0  0  0  0
   48.9971   34.1739   36.6876 H   0  0  0  0  0  0  0  0  0  0  0  0
   46.3435   31.4096   38.5972 H   0  0  0  0  0  0  0  0  0  0  0  0
   45.8857   35.8672   42.3222 H   0  0  0  0  0  0  0  0  0  0  0  0
   44.3392   36.4336   44.1074 H   0  0  0  0  0  0  0  0  0  0  0  0
   45.8740   33.2162   46.3264 H   0  0  0  0  0  0  0  0  0  0  0  0
  1  2  1  0
  1  5  1  0
  2  3  1  0
  3  4  1  0
  5  4  1  0
  5 12  1  0
  6  1  1  0
  7  6  2  0
  8  9  2  0
  8  7  1  0
  9 10  1  0
 10 11  2  0
 11  6  1  0
 12 18  1  0
 13 12  1  0
 13 14  2  0
 14 15  1  0
 15 17  1  0
 15 16  2  0
 18 19  2  0
 18 17  1  0
  1 20  1  1
  2 21  1  0
  2 22  1  0
  3 23  1  0
  3 24  1  0
  4 25  1  0
  4 26  1  0
  5 27  1  6
  7 28  1  0
  8 29  1  0
 10 30  1  0
 13 31  1  0
 14 32  1  0
 17 33  1  0
M  ISO  8  20  13  21  13  22  13  23  13  24  13  25  13  26  13  27  13
M  ISO  6  28  14  29  14  30  14  31  14  32  14  33   9
M  END
>  <minimizedAffinity>  (1) 
-5.9170599

>  <minimizedRMSD>  (1) 
3.941571

$$$$
