
     RDKit          3D

 39 42  0  0  1  0  0  0  0  0999 V2000
   48.0580   32.4570   42.9070 C   0  0  2  0  0  0  0  0  0  0  0  0
   49.4710   32.6140   42.4420 C   0  0  0  0  0  0  0  0  0  0  0  0
   48.4910   31.9820   41.5560 C   0  0  2  0  0  0  0  0  0  0  0  0
   47.9540   32.5790   40.3570 N   0  0  0  0  0  0  0  0  0  0  0  0
   48.4310   33.6200   39.6940 N   0  0  0  0  0  0  0  0  0  0  0  0
   47.6530   33.8650   38.6380 C   0  0  0  0  0  0  0  0  0  0  0  0
   46.6250   32.9010   38.6570 C   0  0  0  0  0  0  0  0  0  0  0  0
   46.8300   32.0780   39.7690 C   0  0  0  0  0  0  0  0  0  0  0  0
   47.3010   33.6750   42.8620 O   0  0  0  0  0  0  0  0  0  0  0  0
   46.4590   34.0220   43.8680 C   0  0  0  0  0  0  0  0  0  0  0  0
   45.7120   35.1690   43.5460 C   0  0  0  0  0  0  0  0  0  0  0  0
   44.7920   35.6610   44.4830 C   0  0  0  0  0  0  0  0  0  0  0  0
   44.6680   34.9970   45.6620 N   0  0  0  0  0  0  0  0  0  0  0  0
   45.4100   33.9000   45.9190 C   0  0  0  0  0  0  0  0  0  0  0  0
   46.2560   33.4640   45.0370 N   0  0  0  0  0  0  0  0  0  0  0  0
   45.2820   33.2220   47.1250 O   0  0  0  0  0  0  0  0  0  0  0  0
   46.0380   32.0780   47.3630 C   0  0  0  0  0  0  0  0  0  0  0  0
   46.4560   32.1190   48.8330 C   0  0  0  0  0  0  0  0  0  0  0  0
   45.3140   31.3650   49.4820 C   0  0  0  0  0  0  0  0  0  0  0  0
   45.2230   30.1530   48.5530 C   0  0  0  0  0  0  0  0  0  0  0  0
   45.2130   30.8280   47.1950 C   0  0  0  0  0  0  0  0  0  0  0  0
   47.5620   32.0102   43.7813 H   0  0  0  0  0  0  0  0  0  0  0  0
   49.8613   33.6142   42.2027 H   0  0  0  0  0  0  0  0  0  0  0  0
   50.4538   32.3230   42.8414 H   0  0  0  0  0  0  0  0  0  0  0  0
   48.4848   31.0314   41.0025 H   0  0  0  0  0  0  0  0  0  0  0  0
   47.7880   34.6653   37.8955 H   0  0  0  0  0  0  0  0  0  0  0  0
   45.8070   32.8118   37.9270 H   0  0  0  0  0  0  0  0  0  0  0  0
   46.2225   31.2210   40.0954 H   0  0  0  0  0  0  0  0  0  0  0  0
   45.8469   35.6712   42.5767 H   0  0  0  0  0  0  0  0  0  0  0  0
   44.1896   36.5564   44.2702 H   0  0  0  0  0  0  0  0  0  0  0  0
   46.8839   32.0579   46.6601 H   0  0  0  0  0  0  0  0  0  0  0  0
   47.4181   31.6104   48.9933 H   0  0  0  0  0  0  0  0  0  0  0  0
   46.6129   33.1325   49.2307 H   0  0  0  0  0  0  0  0  0  0  0  0
   45.5557   31.0696   50.5137 H   0  0  0  0  0  0  0  0  0  0  0  0
   44.3812   31.9394   49.5819 H   0  0  0  0  0  0  0  0  0  0  0  0
   46.0931   29.4899   48.6679 H   0  0  0  0  0  0  0  0  0  0  0  0
   44.3568   29.5017   48.7416 H   0  0  0  0  0  0  0  0  0  0  0  0
   44.1845   31.0826   46.8994 H   0  0  0  0  0  0  0  0  0  0  0  0
   45.6183   30.1730   46.4097 H   0  0  0  0  0  0  0  0  0  0  0  0
  2  1  1  0
  3  2  1  0
  3  1  1  0
  4  3  1  0
  5  4  1  0
  6  7  1  0
  6  5  2  0
  7  8  2  0
  8  4  1  0
  9  1  1  0
  9 10  1  0
 10 15  1  0
 11 10  2  0
 11 12  1  0
 12 13  2  0
 13 14  1  0
 14 16  1  0
 15 14  2  0
 16 17  1  0
 17 18  1  0
 18 19  1  0
 20 19  1  0
 21 17  1  0
 21 20  1  0
  1 22  1  1
  2 23  1  0
  2 24  1  0
  3 25  1  6
  6 26  1  0
  7 27  1  0
  8 28  1  0
 11 29  1  0
 12 30  1  0
 17 31  1  0
 18 32  1  0
 18 33  1  0
 19 34  1  0
 19 35  1  0
 20 36  1  0
 20 37  1  0
 21 38  1  0
 21 39  1  0
M  ISO  8  22  13  23  13  24  13  25  13  26  14  27  14  28  14  29  14
M  ISO  8  30  14  31  13  32  13  33  13  34  13  35  13  36  13  37  13
M  ISO  2  38  13  39  13
M  END
>  <minimizedAffinity>  (1) 
-5.07577515

>  <minimizedRMSD>  (1) 
2.50568557

$$$$
