
     RDKit          3D

 38 41  0  0  1  0  0  0  0  0999 V2000
   47.8530   33.3830   43.0750 O   0  0  0  0  0  0  0  0  0  0  0  0
   46.9310   33.6590   44.0330 C   0  0  0  0  0  0  0  0  0  0  0  0
   46.0480   34.6910   43.6120 C   0  0  0  0  0  0  0  0  0  0  0  0
   45.0350   35.1030   44.4750 C   0  0  0  0  0  0  0  0  0  0  0  0
   44.9370   34.4970   45.6820 N   0  0  0  0  0  0  0  0  0  0  0  0
   45.8010   33.5240   46.0250 C   0  0  0  0  0  0  0  0  0  0  0  0
   46.7530   33.1310   45.2260 N   0  0  0  0  0  0  0  0  0  0  0  0
   45.7190   32.8830   47.2660 O   0  0  0  0  0  0  0  0  0  0  0  0
   46.6340   31.8150   49.0700 N   0  0  0  0  0  0  0  0  0  0  0  0
   45.2700   31.4570   49.4870 C   0  0  0  0  0  0  0  0  0  0  0  0
   45.1010   30.1340   48.7680 C   0  0  0  0  0  0  0  0  0  0  0  0
   45.6450   30.4640   47.3940 C   0  0  0  0  0  0  0  0  0  0  0  0
   46.4480   31.7470   47.6120 C   0  0  1  0  0  0  0  0  0  0  0  0
   48.3860   32.0630   42.9110 C   0  0  2  0  0  0  0  0  0  0  0  0
   49.7150   31.9990   42.2590 C   0  0  0  0  0  0  0  0  0  0  0  0
   48.5180   31.6400   41.4750 C   0  0  2  0  0  0  0  0  0  0  0  0
   47.9650   32.4300   40.4290 N   0  0  0  0  0  0  0  0  0  0  0  0
   48.5390   33.4050   39.7450 N   0  0  0  0  0  0  0  0  0  0  0  0
   47.6900   33.8990   38.8470 C   0  0  0  0  0  0  0  0  0  0  0  0
   46.4950   33.1740   38.9850 C   0  0  0  0  0  0  0  0  0  0  0  0
   46.6920   32.2400   40.0020 C   0  0  0  0  0  0  0  0  0  0  0  0
   46.1628   35.1561   42.6218 H   0  0  0  0  0  0  0  0  0  0  0  0
   44.3338   35.8990   44.1839 H   0  0  0  0  0  0  0  0  0  0  0  0
   46.8990   32.7599   49.3828 H   0  0  0  0  0  0  0  0  0  0  0  0
   45.1966   31.3387   50.5782 H   0  0  0  0  0  0  0  0  0  0  0  0
   44.5046   32.2101   49.2481 H   0  0  0  0  0  0  0  0  0  0  0  0
   45.6857   29.3370   49.2507 H   0  0  0  0  0  0  0  0  0  0  0  0
   44.0679   29.7562   48.7619 H   0  0  0  0  0  0  0  0  0  0  0  0
   44.8259   30.6321   46.6793 H   0  0  0  0  0  0  0  0  0  0  0  0
   46.2537   29.6501   46.9731 H   0  0  0  0  0  0  0  0  0  0  0  0
   47.3697   31.7245   47.0121 H   0  0  0  0  0  0  0  0  0  0  0  0
   47.9484   31.6370   43.8259 H   0  0  0  0  0  0  0  0  0  0  0  0
   50.2586   32.9282   42.0328 H   0  0  0  0  0  0  0  0  0  0  0  0
   50.6647   31.4949   42.4913 H   0  0  0  0  0  0  0  0  0  0  0  0
   48.2467   30.7650   40.8660 H   0  0  0  0  0  0  0  0  0  0  0  0
   47.8858   34.7152   38.1360 H   0  0  0  0  0  0  0  0  0  0  0  0
   45.5746   33.3164   38.3997 H   0  0  0  0  0  0  0  0  0  0  0  0
   45.9668   31.5037   40.3787 H   0  0  0  0  0  0  0  0  0  0  0  0
  1  2  1  0
  2  7  1  0
  3  2  2  0
  3  4  1  0
  4  5  2  0
  5  6  1  0
  6  8  1  0
  7  6  2  0
  9 10  1  0
 11 10  1  0
 12 13  1  0
 12 11  1  0
 13  8  1  0
 13  9  1  0
 14  1  1  0
 15 14  1  0
 16 15  1  0
 16 14  1  0
 17 16  1  0
 18 17  1  0
 19 20  1  0
 19 18  2  0
 20 21  2  0
 21 17  1  0
  3 22  1  0
  4 23  1  0
  9 24  1  0
 10 25  1  0
 10 26  1  0
 11 27  1  0
 11 28  1  0
 12 29  1  0
 12 30  1  0
 13 31  1  6
 14 32  1  1
 15 33  1  0
 15 34  1  0
 16 35  1  1
 19 36  1  0
 20 37  1  0
 21 38  1  0
M  ISO  8  22  14  23  14  24   5  25  13  26  13  27  13  28  13  29  13
M  ISO  8  30  13  31  13  32  13  33  13  34  13  35  13  36  14  37  14
M  ISO  1  38  14
M  END
>  <minimizedAffinity>  (1) 
-4.94313431

>  <minimizedRMSD>  (1) 
2.65959811

$$$$
