
     RDKit          3D

 30 32  0  0  1  0  0  0  0  0999 V2000
   46.8420   31.3780   44.3130 C   0  0  2  0  0  0  0  0  0  0  0  0
   47.9480   30.4380   44.6380 C   0  0  0  0  0  0  0  0  0  0  0  0
   47.6780   30.7510   43.2390 C   0  0  2  0  0  0  0  0  0  0  0  0
   48.5190   31.5600   42.4080 N   0  0  0  0  0  0  0  0  0  0  0  0
   49.7860   31.8710   42.5890 N   0  0  0  0  0  0  0  0  0  0  0  0
   50.2210   32.6500   41.5880 C   0  0  0  0  0  0  0  0  0  0  0  0
   49.1330   32.8230   40.7370 C   0  0  0  0  0  0  0  0  0  0  0  0
   48.0440   32.1230   41.2640 C   0  0  0  0  0  0  0  0  0  0  0  0
   47.1390   32.7500   44.5560 O   0  0  0  0  0  0  0  0  0  0  0  0
   46.1970   33.7280   44.4140 C   0  0  0  0  0  0  0  0  0  0  0  0
   45.6490   34.1150   45.6660 C   0  0  0  0  0  0  0  0  0  0  0  0
   44.6740   35.1080   45.6780 C   0  0  0  0  0  0  0  0  0  0  0  0
   44.2950   35.6550   44.5080 N   0  0  0  0  0  0  0  0  0  0  0  0
   44.8470   35.2510   43.3540 C   0  0  0  0  0  0  0  0  0  0  0  0
   45.7680   34.3180   43.3160 N   0  0  0  0  0  0  0  0  0  0  0  0
   44.4840   35.7920   42.1070 O   0  0  0  0  0  0  0  0  0  0  0  0
   43.2540   35.5500   41.5350 C   0  0  0  0  0  0  0  0  0  0  0  0
   42.0300   35.5270   42.2700 N   0  0  0  0  0  0  0  0  0  0  0  0
   43.1530   35.3290   40.2890 O   0  0  0  0  0  0  0  0  0  0  0  0
   45.7687   31.4401   44.5459 H   0  0  0  0  0  0  0  0  0  0  0  0
   48.8640   30.8157   45.1159 H   0  0  0  0  0  0  0  0  0  0  0  0
   48.0231   29.5072   45.2193 H   0  0  0  0  0  0  0  0  0  0  0  0
   47.5041   30.1272   42.3498 H   0  0  0  0  0  0  0  0  0  0  0  0
   51.2313   33.0672   41.4645 H   0  0  0  0  0  0  0  0  0  0  0  0
   49.1307   33.4110   39.8073 H   0  0  0  0  0  0  0  0  0  0  0  0
   47.0292   32.0447   40.8469 H   0  0  0  0  0  0  0  0  0  0  0  0
   45.9860   33.6427   46.6005 H   0  0  0  0  0  0  0  0  0  0  0  0
   44.2222   35.4392   46.6246 H   0  0  0  0  0  0  0  0  0  0  0  0
   41.1411   35.3400   41.7844 H   0  0  0  0  0  0  0  0  0  0  0  0
   42.0360   35.6974   43.2858 H   0  0  0  0  0  0  0  0  0  0  0  0
  1  9  1  0
  1  2  1  0
  3  1  1  0
  3  2  1  0
  4  5  1  0
  4  3  1  0
  6  5  2  0
  7  8  2  0
  7  6  1  0
  8  4  1  0
 10  9  1  0
 10 11  2  0
 11 12  1  0
 13 12  2  0
 14 13  1  0
 15 14  2  0
 15 10  1  0
 16 14  1  0
 17 16  1  0
 17 18  1  0
 19 17  2  0
  1 20  1  6
  2 21  1  0
  2 22  1  0
  3 23  1  6
  6 24  1  0
  7 25  1  0
  8 26  1  0
 11 27  1  0
 12 28  1  0
 18 29  1  0
 18 30  1  0
M  ISO  8  20  13  21  13  22  13  23  13  24  14  25  14  26  14  27  14
M  ISO  1  28  14
M  END
>  <minimizedAffinity>  (1) 
-4.26237249

>  <minimizedRMSD>  (1) 
3.27596498

$$$$
