
     RDKit          3D

 33 36  0  0  1  0  0  0  0  0999 V2000
   48.0690   31.1300   42.0890 O   0  0  0  0  0  0  0  0  0  0  0  0
   47.9130   30.9700   43.4350 C   0  0  0  0  0  0  0  0  0  0  0  0
   48.6670   29.9000   43.9390 C   0  0  0  0  0  0  0  0  0  0  0  0
   48.5950   29.6300   45.3050 C   0  0  0  0  0  0  0  0  0  0  0  0
   47.7970   30.4180   46.0800 N   0  0  0  0  0  0  0  0  0  0  0  0
   47.0950   31.4360   45.5330 C   0  0  0  0  0  0  0  0  0  0  0  0
   47.1740   31.6740   44.2600 N   0  0  0  0  0  0  0  0  0  0  0  0
   46.2860   32.2320   46.3360 O   0  0  0  0  0  0  0  0  0  0  0  0
   45.6640   32.0100   49.6890 N   0  0  0  0  0  0  0  0  0  0  0  0
   46.1540   32.4880   48.5400 N   0  0  0  0  0  0  0  0  0  0  0  0
   45.7640   31.7110   47.5040 C   0  0  0  0  0  0  0  0  0  0  0  0
   44.9870   30.6980   48.0690 C   0  0  0  0  0  0  0  0  0  0  0  0
   44.9420   30.9120   49.4400 C   0  0  0  0  0  0  0  0  0  0  0  0
   46.9530   31.0610   41.1860 C   0  0  2  0  0  0  0  0  0  0  0  0
   47.3160   31.2900   39.7630 C   0  0  0  0  0  0  0  0  0  0  0  0
   46.6590   32.3650   40.5000 C   0  0  2  0  0  0  0  0  0  0  0  0
   47.2670   33.5850   40.9420 N   0  0  0  0  0  0  0  0  0  0  0  0
   48.4000   34.1110   40.5040 N   0  0  0  0  0  0  0  0  0  0  0  0
   48.6290   35.2580   41.1650 C   0  0  0  0  0  0  0  0  0  0  0  0
   47.5720   35.4340   42.0570 C   0  0  0  0  0  0  0  0  0  0  0  0
   46.6770   34.3460   41.9180 C   0  0  0  0  0  0  0  0  0  0  0  0
   49.2977   29.2907   43.2749 H   0  0  0  0  0  0  0  0  0  0  0  0
   49.1681   28.8014   45.7465 H   0  0  0  0  0  0  0  0  0  0  0  0
   45.8185   32.4228   50.6199 H   0  0  0  0  0  0  0  0  0  0  0  0
   44.4977   29.8767   47.5249 H   0  0  0  0  0  0  0  0  0  0  0  0
   44.4127   30.2952   50.1812 H   0  0  0  0  0  0  0  0  0  0  0  0
   46.3723   30.3080   41.7390 H   0  0  0  0  0  0  0  0  0  0  0  0
   46.7708   30.7601   38.9680 H   0  0  0  0  0  0  0  0  0  0  0  0
   48.2478   31.2112   39.1838 H   0  0  0  0  0  0  0  0  0  0  0  0
   45.7767   32.9859   40.2855 H   0  0  0  0  0  0  0  0  0  0  0  0
   49.4882   35.9311   41.0283 H   0  0  0  0  0  0  0  0  0  0  0  0
   47.4533   36.2777   42.7528 H   0  0  0  0  0  0  0  0  0  0  0  0
   45.7386   34.1574   42.4600 H   0  0  0  0  0  0  0  0  0  0  0  0
  1  2  1  0
  2  3  2  0
  2  7  1  0
  3  4  1  0
  4  5  2  0
  6  5  1  0
  6  8  1  0
  7  6  2  0
  8 11  1  0
 10  9  1  0
 11 12  1  0
 11 10  2  0
 12 13  2  0
 13  9  1  0
 14  1  1  0
 15 16  1  0
 15 14  1  0
 16 17  1  0
 16 14  1  0
 17 21  1  0
 18 17  1  0
 18 19  2  0
 19 20  1  0
 21 20  2  0
  3 22  1  0
  4 23  1  0
  9 24  1  0
 12 25  1  0
 13 26  1  0
 14 27  1  6
 15 28  1  0
 15 29  1  0
 16 30  1  6
 19 31  1  0
 20 32  1  0
 21 33  1  0
M  ISO  8  22  14  23  14  24   9  25  14  26  14  27  13  28  13  29  13
M  ISO  4  30  13  31  14  32  14  33  14
M  END
>  <minimizedAffinity>  (1) 
-4.20420122

>  <minimizedRMSD>  (1) 
3.91512299

$$$$
