
     RDKit          3D

 32 34  0  0  1  0  0  0  0  0999 V2000
   47.5710   34.9340   41.0940 C   0  0  2  0  0  0  0  0  0  0  0  0
   48.7820   35.6180   41.5340 C   0  0  0  0  0  0  0  0  0  0  0  0
   49.4250   34.7710   42.6360 C   0  0  0  0  0  0  0  0  0  0  0  0
   48.5970   33.5150   42.7700 C   0  0  0  0  0  0  0  0  0  0  0  0
   47.2840   33.8890   42.2140 C   0  0  1  0  0  0  0  0  0  0  0  0
   47.6380   34.1500   39.8520 C   0  0  0  0  0  0  0  0  0  0  0  0
   48.4420   34.6160   38.7890 C   0  0  0  0  0  0  0  0  0  0  0  0
   48.5260   33.8710   37.6140 C   0  0  0  0  0  0  0  0  0  0  0  0
   47.8000   32.7040   37.5770 N   0  0  0  0  0  0  0  0  0  0  0  0
   47.0410   32.2840   38.6070 C   0  0  0  0  0  0  0  0  0  0  0  0
   46.9580   33.0050   39.7450 N   0  0  0  0  0  0  0  0  0  0  0  0
   46.3470   34.4850   43.2040 C   0  0  0  0  0  0  0  0  0  0  0  0
   45.5790   35.6200   43.0370 C   0  0  0  0  0  0  0  0  0  0  0  0
   44.7470   36.0630   44.0440 C   0  0  0  0  0  0  0  0  0  0  0  0
   44.7150   35.3310   45.2140 C   0  0  0  0  0  0  0  0  0  0  0  0
   45.4780   34.1870   45.4050 C   0  0  0  0  0  0  0  0  0  0  0  0
   46.2700   33.8070   44.3830 N   0  0  0  0  0  0  0  0  0  0  0  0
   46.8283   35.7232   40.9055 H   0  0  0  0  0  0  0  0  0  0  0  0
   49.4790   35.7249   40.6897 H   0  0  0  0  0  0  0  0  0  0  0  0
   48.5397   36.6217   41.9134 H   0  0  0  0  0  0  0  0  0  0  0  0
   50.4584   34.5142   42.3601 H   0  0  0  0  0  0  0  0  0  0  0  0
   49.4559   35.3232   43.5869 H   0  0  0  0  0  0  0  0  0  0  0  0
   49.0435   32.6898   42.1958 H   0  0  0  0  0  0  0  0  0  0  0  0
   48.5302   33.1622   43.8098 H   0  0  0  0  0  0  0  0  0  0  0  0
   46.7873   32.9766   41.8524 H   0  0  0  0  0  0  0  0  0  0  0  0
   48.9980   35.5600   38.8874 H   0  0  0  0  0  0  0  0  0  0  0  0
   49.1400   34.1990   36.7623 H   0  0  0  0  0  0  0  0  0  0  0  0
   46.4814   31.3410   38.5198 H   0  0  0  0  0  0  0  0  0  0  0  0
   45.6312   36.1774   42.0901 H   0  0  0  0  0  0  0  0  0  0  0  0
   44.1317   36.9662   43.9194 H   0  0  0  0  0  0  0  0  0  0  0  0
   44.0576   35.6682   46.0289 H   0  0  0  0  0  0  0  0  0  0  0  0
   45.4380   33.6180   46.3455 H   0  0  0  0  0  0  0  0  0  0  0  0
  1  2  1  0
  1  5  1  0
  2  3  1  0
  3  4  1  0
  5  4  1  0
  5 12  1  0
  6  1  1  0
  7  6  2  0
  8  7  1  0
  9  8  2  0
  9 10  1  0
 10 11  2  0
 11  6  1  0
 12 17  1  0
 13 12  2  0
 13 14  1  0
 14 15  2  0
 15 16  1  0
 17 16  2  0
  1 18  1  6
  2 19  1  0
  2 20  1  0
  3 21  1  0
  3 22  1  0
  4 23  1  0
  4 24  1  0
  5 25  1  6
  7 26  1  0
  8 27  1  0
 10 28  1  0
 13 29  1  0
 14 30  1  0
 15 31  1  0
 16 32  1  0
M  ISO  8  18  13  19  13  20  13  21  13  22  13  23  13  24  13  25  13
M  ISO  7  26  14  27  14  28  14  29  14  30  14  31  14  32  14
M  END
>  <minimizedAffinity>  (1) 
-5.63141584

>  <minimizedRMSD>  (1) 
3.63730645

$$$$
