
     RDKit          3D

 43 46  0  0  1  0  0  0  0  0999 V2000
   46.2210   34.7420   43.4740 C   0  0  0  0  0  0  0  0  0  0  0  0
   45.3190   35.8210   43.4720 C   0  0  0  0  0  0  0  0  0  0  0  0
   44.4770   35.9930   44.5870 C   0  0  0  0  0  0  0  0  0  0  0  0
   44.5780   35.1090   45.6080 N   0  0  0  0  0  0  0  0  0  0  0  0
   45.4580   34.0970   45.5530 C   0  0  0  0  0  0  0  0  0  0  0  0
   46.2390   33.9340   44.5240 N   0  0  0  0  0  0  0  0  0  0  0  0
   46.9720   34.6960   42.3400 O   0  0  0  0  0  0  0  0  0  0  0  0
   48.4040   34.7610   42.3910 C   0  0  2  0  0  0  0  0  0  0  0  0
   48.9710   35.7410   41.4210 C   0  0  0  0  0  0  0  0  0  0  0  0
   49.0980   34.2930   41.1550 C   0  0  2  0  0  0  0  0  0  0  0  0
   48.3550   33.6080   40.1370 N   0  0  0  0  0  0  0  0  0  0  0  0
   47.7460   34.1070   39.0890 N   0  0  0  0  0  0  0  0  0  0  0  0
   47.1630   33.1460   38.3750 C   0  0  0  0  0  0  0  0  0  0  0  0
   47.4370   31.9500   39.0410 C   0  0  0  0  0  0  0  0  0  0  0  0
   48.2010   32.2630   40.1670 C   0  0  0  0  0  0  0  0  0  0  0  0
   45.5600   33.1860   46.6060 O   0  0  0  0  0  0  0  0  0  0  0  0
   46.8200   32.6430   46.9920 C   0  0  0  0  0  0  0  0  0  0  0  0
   46.7250   31.1520   47.1010 C   0  0  0  0  0  0  0  0  0  0  0  0
   47.8050   30.6520   47.9030 N   0  0  0  0  0  0  0  0  0  0  0  0
   48.3310   31.6060   48.7200 C   0  0  0  0  0  0  0  0  0  0  0  0
   49.3850   31.3270   49.5770 C   0  0  0  0  0  0  0  0  0  0  0  0
   49.8710   30.0350   49.5570 C   0  0  0  0  0  0  0  0  0  0  0  0
   50.9550   29.7210   50.4280 N   0  0  0  0  0  0  0  0  0  0  0  0
   49.3260   29.1060   48.7310 N   0  0  0  0  0  0  0  0  0  0  0  0
   48.3020   29.4110   47.9100 C   0  0  0  0  0  0  0  0  0  0  0  0
   47.7510   28.6130   47.1270 O   0  0  0  0  0  0  0  0  0  0  0  0
   45.2725   36.5143   42.6192 H   0  0  0  0  0  0  0  0  0  0  0  0
   43.7564   36.8231   44.6279 H   0  0  0  0  0  0  0  0  0  0  0  0
   48.5126   34.5493   43.4650 H   0  0  0  0  0  0  0  0  0  0  0  0
   48.2982   36.3554   40.8047 H   0  0  0  0  0  0  0  0  0  0  0  0
   49.6771   36.5816   41.4909 H   0  0  0  0  0  0  0  0  0  0  0  0
   49.9516   33.6414   40.9168 H   0  0  0  0  0  0  0  0  0  0  0  0
   46.5832   33.2695   37.4484 H   0  0  0  0  0  0  0  0  0  0  0  0
   47.1108   30.9451   38.7348 H   0  0  0  0  0  0  0  0  0  0  0  0
   48.5948   31.5643   40.9198 H   0  0  0  0  0  0  0  0  0  0  0  0
   47.5761   32.9054   46.2374 H   0  0  0  0  0  0  0  0  0  0  0  0
   47.1075   33.0584   47.9692 H   0  0  0  0  0  0  0  0  0  0  0  0
   45.7671   30.8806   47.5687 H   0  0  0  0  0  0  0  0  0  0  0  0
   46.7855   30.7104   46.0954 H   0  0  0  0  0  0  0  0  0  0  0  0
   47.9099   32.6220   48.6997 H   0  0  0  0  0  0  0  0  0  0  0  0
   49.8117   32.0954   50.2385 H   0  0  0  0  0  0  0  0  0  0  0  0
   51.3451   28.7678   50.4418 H   0  0  0  0  0  0  0  0  0  0  0  0
   51.3481   30.4473   51.0435 H   0  0  0  0  0  0  0  0  0  0  0  0
  1  6  1  0
  2  1  2  0
  2  3  1  0
  3  4  2  0
  5  4  1  0
  5 16  1  0
  6  5  2  0
  7  8  1  0
  7  1  1  0
  9  8  1  0
 10  9  1  0
 10  8  1  0
 11 15  1  0
 11 10  1  0
 12 11  1  0
 13 14  1  0
 13 12  2  0
 14 15  2  0
 16 17  1  0
 17 18  1  0
 18 19  1  0
 19 25  1  0
 19 20  1  0
 20 21  2  0
 22 21  1  0
 22 23  1  0
 24 22  2  0
 25 24  1  0
 26 25  2  0
  2 27  1  0
  3 28  1  0
  8 29  1  1
  9 30  1  0
  9 31  1  0
 10 32  1  1
 13 33  1  0
 14 34  1  0
 15 35  1  0
 17 36  1  0
 17 37  1  0
 18 38  1  0
 18 39  1  0
 20 40  1  0
 21 41  1  0
 23 42  1  0
 23 43  1  0
M  ISO  8  27  14  28  14  29  13  30  13  31  13  32  13  33  14  34  14
M  ISO  7  35  14  36   8  37   8  38   8  39   8  40  14  41  14
M  END
>  <minimizedAffinity>  (1) 
-5.58320808

>  <minimizedRMSD>  (1) 
1.84480691

$$$$
