
     RDKit          3D

 39 41  0  0  1  0  0  0  0  0999 V2000
   47.6770   34.9530   41.0630 C   0  0  2  0  0  0  0  0  0  0  0  0
   48.9120   35.6840   41.3700 C   0  0  0  0  0  0  0  0  0  0  0  0
   49.5710   35.0080   42.5750 C   0  0  0  0  0  0  0  0  0  0  0  0
   48.7580   33.7940   42.8820 C   0  0  0  0  0  0  0  0  0  0  0  0
   47.4270   34.0580   42.3020 C   0  0  1  0  0  0  0  0  0  0  0  0
   47.7400   34.0100   39.9270 C   0  0  0  0  0  0  0  0  0  0  0  0
   48.3010   34.4320   38.7070 C   0  0  0  0  0  0  0  0  0  0  0  0
   48.3880   33.5290   37.6560 C   0  0  0  0  0  0  0  0  0  0  0  0
   47.9150   32.2610   37.8700 N   0  0  0  0  0  0  0  0  0  0  0  0
   47.3770   31.8850   39.0640 C   0  0  0  0  0  0  0  0  0  0  0  0
   47.2970   32.7570   40.0720 N   0  0  0  0  0  0  0  0  0  0  0  0
   46.4230   34.5960   43.2350 C   0  0  0  0  0  0  0  0  0  0  0  0
   45.3760   35.4980   42.7250 C   0  0  0  0  0  0  0  0  0  0  0  0
   44.3390   35.7560   43.7930 C   0  0  0  0  0  0  0  0  0  0  0  0
   44.8120   35.4890   45.1960 C   0  0  0  0  0  0  0  0  0  0  0  0
   45.3520   34.0880   45.3630 C   0  0  0  0  0  0  0  0  0  0  0  0
   45.7200   33.4770   44.0230 C   0  0  0  0  0  0  0  0  0  0  0  0
   46.9175   35.7075   40.8103 H   0  0  0  0  0  0  0  0  0  0  0  0
   49.5909   35.6508   40.5051 H   0  0  0  0  0  0  0  0  0  0  0  0
   48.6882   36.7370   41.5961 H   0  0  0  0  0  0  0  0  0  0  0  0
   50.6043   34.7207   42.3306 H   0  0  0  0  0  0  0  0  0  0  0  0
   49.6093   35.6880   43.4388 H   0  0  0  0  0  0  0  0  0  0  0  0
   49.2086   32.9023   42.4217 H   0  0  0  0  0  0  0  0  0  0  0  0
   48.7025   33.6011   43.9635 H   0  0  0  0  0  0  0  0  0  0  0  0
   46.9522   33.1067   42.0199 H   0  0  0  0  0  0  0  0  0  0  0  0
   48.6655   35.4630   38.5879 H   0  0  0  0  0  0  0  0  0  0  0  0
   48.8205   33.8207   36.6876 H   0  0  0  0  0  0  0  0  0  0  0  0
   47.0067   30.8579   39.1982 H   0  0  0  0  0  0  0  0  0  0  0  0
   47.0684   35.2342   43.8564 H   0  0  0  0  0  0  0  0  0  0  0  0
   45.8337   36.4524   42.4258 H   0  0  0  0  0  0  0  0  0  0  0  0
   44.8880   35.0259   41.8596 H   0  0  0  0  0  0  0  0  0  0  0  0
   44.0331   36.8106   43.7279 H   0  0  0  0  0  0  0  0  0  0  0  0
   43.5114   35.0569   43.6024 H   0  0  0  0  0  0  0  0  0  0  0  0
   45.6081   36.2066   45.4433 H   0  0  0  0  0  0  0  0  0  0  0  0
   43.9485   35.5988   45.8685 H   0  0  0  0  0  0  0  0  0  0  0  0
   46.2484   34.1227   45.9996 H   0  0  0  0  0  0  0  0  0  0  0  0
   44.5708   33.4670   45.8257 H   0  0  0  0  0  0  0  0  0  0  0  0
   44.8161   33.1435   43.4922 H   0  0  0  0  0  0  0  0  0  0  0  0
   46.3674   32.5957   44.1424 H   0  0  0  0  0  0  0  0  0  0  0  0
  1  2  1  0
  1  5  1  0
  2  3  1  0
  3  4  1  0
  5  4  1  0
  5 12  1  0
  6 11  1  0
  6  1  1  0
  7  6  2  0
  8  9  2  0
  8  7  1  0
  9 10  1  0
 10 11  2  0
 12 17  1  0
 13 12  1  0
 13 14  1  0
 14 15  1  0
 15 16  1  0
 17 16  1  0
  1 18  1  6
  2 19  1  0
  2 20  1  0
  3 21  1  0
  3 22  1  0
  4 23  1  0
  4 24  1  0
  5 25  1  6
  7 26  1  0
  8 27  1  0
 10 28  1  0
 12 29  1  0
 13 30  1  0
 13 31  1  0
 14 32  1  0
 14 33  1  0
 15 34  1  0
 15 35  1  0
 16 36  1  0
 16 37  1  0
 17 38  1  0
 17 39  1  0
M  ISO  8  18  13  19  13  20  13  21  13  22  13  23  13  24  13  25  13
M  ISO  8  26  14  27  14  28  14  29  13  30  13  31  13  32  13  33  13
M  ISO  6  34  13  35  13  36  13  37  13  38  13  39  13
M  END
>  <minimizedAffinity>  (1) 
-5.6305027

>  <minimizedRMSD>  (1) 
3.4032917

$$$$
