
     RDKit          3D

 47 50  0  0  1  0  0  0  0  0999 V2000
   46.0930   34.8980   43.4080 C   0  0  0  0  0  0  0  0  0  0  0  0
   45.2240   36.0050   43.4920 C   0  0  0  0  0  0  0  0  0  0  0  0
   44.4430   36.1500   44.6560 C   0  0  0  0  0  0  0  0  0  0  0  0
   44.5630   35.2280   45.6290 N   0  0  0  0  0  0  0  0  0  0  0  0
   45.4160   34.1890   45.4870 C   0  0  0  0  0  0  0  0  0  0  0  0
   46.1360   34.0520   44.4140 N   0  0  0  0  0  0  0  0  0  0  0  0
   46.7840   34.8820   42.2370 O   0  0  0  0  0  0  0  0  0  0  0  0
   48.2170   34.8270   42.2080 C   0  0  2  0  0  0  0  0  0  0  0  0
   48.8040   35.5590   41.0490 C   0  0  0  0  0  0  0  0  0  0  0  0
   48.7860   34.0810   41.0450 C   0  0  2  0  0  0  0  0  0  0  0  0
   47.9250   33.2990   40.2080 N   0  0  0  0  0  0  0  0  0  0  0  0
   47.2710   33.6670   39.1290 N   0  0  0  0  0  0  0  0  0  0  0  0
   46.5750   32.6530   38.6280 C   0  0  0  0  0  0  0  0  0  0  0  0
   46.8160   31.5640   39.4670 C   0  0  0  0  0  0  0  0  0  0  0  0
   47.6840   31.9930   40.4760 C   0  0  0  0  0  0  0  0  0  0  0  0
   45.5360   33.2350   46.5010 O   0  0  0  0  0  0  0  0  0  0  0  0
   46.3800   32.0920   46.3520 C   0  0  0  0  0  0  0  0  0  0  0  0
   47.3090   31.9810   47.5250 C   0  0  0  0  0  0  0  0  0  0  0  0
   47.2400   30.7600   48.2500 N   0  0  0  0  0  0  0  0  0  0  0  0
   48.1320   30.8430   49.3990 C   0  0  0  0  0  0  0  0  0  0  0  0
   49.5820   30.7380   48.9780 C   0  0  0  0  0  0  0  0  0  0  0  0
   49.7850   29.4240   48.2560 C   0  0  0  0  0  0  0  0  0  0  0  0
   48.9100   29.4850   46.9970 C   0  0  0  0  0  0  0  0  0  0  0  0
   47.4980   29.5630   47.4780 C   0  0  0  0  0  0  0  0  0  0  0  0
   45.1575   36.7351   42.6719 H   0  0  0  0  0  0  0  0  0  0  0  0
   43.7508   36.9977   44.7668 H   0  0  0  0  0  0  0  0  0  0  0  0
   48.3762   34.8057   43.2962 H   0  0  0  0  0  0  0  0  0  0  0  0
   48.1492   36.1177   40.3641 H   0  0  0  0  0  0  0  0  0  0  0  0
   49.5844   36.3252   40.9306 H   0  0  0  0  0  0  0  0  0  0  0  0
   49.5622   33.3176   40.8873 H   0  0  0  0  0  0  0  0  0  0  0  0
   45.9370   32.6683   37.7321 H   0  0  0  0  0  0  0  0  0  0  0  0
   46.3990   30.5523   39.3549 H   0  0  0  0  0  0  0  0  0  0  0  0
   48.0853   31.3974   41.3092 H   0  0  0  0  0  0  0  0  0  0  0  0
   45.7587   31.1862   46.2929 H   0  0  0  0  0  0  0  0  0  0  0  0
   46.9730   32.1997   45.4318 H   0  0  0  0  0  0  0  0  0  0  0  0
   48.3380   32.0965   47.1538 H   0  0  0  0  0  0  0  0  0  0  0  0
   46.9994   32.7671   48.2294 H   0  0  0  0  0  0  0  0  0  0  0  0
   47.9749   31.8066   49.9058 H   0  0  0  0  0  0  0  0  0  0  0  0
   47.9054   30.0059   50.0757 H   0  0  0  0  0  0  0  0  0  0  0  0
   49.8334   31.5719   48.3062 H   0  0  0  0  0  0  0  0  0  0  0  0
   50.2330   30.7828   49.8636 H   0  0  0  0  0  0  0  0  0  0  0  0
   50.8425   29.3008   47.9793 H   0  0  0  0  0  0  0  0  0  0  0  0
   49.5097   28.5708   48.8934 H   0  0  0  0  0  0  0  0  0  0  0  0
   49.0560   28.5818   46.3863 H   0  0  0  0  0  0  0  0  0  0  0  0
   49.1691   30.3499   46.3687 H   0  0  0  0  0  0  0  0  0  0  0  0
   46.8275   29.5544   46.6061 H   0  0  0  0  0  0  0  0  0  0  0  0
   47.3204   28.6979   48.1338 H   0  0  0  0  0  0  0  0  0  0  0  0
  1  2  2  0
  1  6  1  0
  2  3  1  0
  3  4  2  0
  5  4  1  0
  5 16  1  0
  6  5  2  0
  7  1  1  0
  8  7  1  0
  9  8  1  0
 10  9  1  0
 10  8  1  0
 11 15  1  0
 11 10  1  0
 12 11  1  0
 13 12  2  0
 13 14  1  0
 14 15  2  0
 17 16  1  0
 17 18  1  0
 18 19  1  0
 19 20  1  0
 21 20  1  0
 22 21  1  0
 23 24  1  0
 23 22  1  0
 24 19  1  0
  2 25  1  0
  3 26  1  0
  8 27  1  1
  9 28  1  0
  9 29  1  0
 10 30  1  1
 13 31  1  0
 14 32  1  0
 15 33  1  0
 17 34  1  0
 17 35  1  0
 18 36  1  0
 18 37  1  0
 20 38  1  0
 20 39  1  0
 21 40  1  0
 21 41  1  0
 22 42  1  0
 22 43  1  0
 23 44  1  0
 23 45  1  0
 24 46  1  0
 24 47  1  0
M  ISO  8  25  14  26  14  27  13  28  13  29  13  30  13  31  14  32  14
M  ISO  8  33  14  34   8  35   8  36   8  37   8  38  13  39  13  40  13
M  ISO  7  41  13  42  13  43  13  44  13  45  13  46  13  47  13
M  END
>  <minimizedAffinity>  (1) 
-5.18593645

>  <minimizedRMSD>  (1) 
2.95422435

$$$$
