
     RDKit          3D

 34 36  0  0  1  0  0  0  0  0999 V2000
   46.3120   34.2320   43.7510 C   0  0  0  0  0  0  0  0  0  0  0  0
   45.6250   35.4040   43.3570 C   0  0  0  0  0  0  0  0  0  0  0  0
   44.7110   35.9740   44.2720 C   0  0  0  0  0  0  0  0  0  0  0  0
   44.5410   35.3720   45.4740 N   0  0  0  0  0  0  0  0  0  0  0  0
   45.2310   34.2540   45.7880 C   0  0  0  0  0  0  0  0  0  0  0  0
   46.0710   33.7330   44.9410 N   0  0  0  0  0  0  0  0  0  0  0  0
   47.1520   33.7990   42.7820 O   0  0  0  0  0  0  0  0  0  0  0  0
   48.5640   33.6860   43.0080 C   0  0  2  0  0  0  0  0  0  0  0  0
   49.3290   34.8800   42.5570 C   0  0  0  0  0  0  0  0  0  0  0  0
   49.3930   33.6350   41.7650 C   0  0  2  0  0  0  0  0  0  0  0  0
   48.7580   33.4730   40.4900 N   0  0  0  0  0  0  0  0  0  0  0  0
   48.1710   34.3780   39.7450 N   0  0  0  0  0  0  0  0  0  0  0  0
   47.6990   33.8370   38.6230 C   0  0  0  0  0  0  0  0  0  0  0  0
   48.0240   32.4800   38.6810 C   0  0  0  0  0  0  0  0  0  0  0  0
   48.7020   32.2610   39.8830 C   0  0  0  0  0  0  0  0  0  0  0  0
   45.0490   33.6430   47.0270 O   0  0  0  0  0  0  0  0  0  0  0  0
   45.7790   32.4750   47.3870 C   0  0  0  0  0  0  0  0  0  0  0  0
   44.9920   31.6360   48.3640 C   0  0  0  0  0  0  0  0  0  0  0  0
   45.5170   31.9620   49.6910 N   0  0  0  0  0  0  0  0  0  0  0  0
   45.7967   35.8575   42.3696 H   0  0  0  0  0  0  0  0  0  0  0  0
   44.1508   36.8849   44.0144 H   0  0  0  0  0  0  0  0  0  0  0  0
   48.5041   33.0838   43.9266 H   0  0  0  0  0  0  0  0  0  0  0  0
   48.7948   35.7558   42.1599 H   0  0  0  0  0  0  0  0  0  0  0  0
   50.0750   35.5424   43.0204 H   0  0  0  0  0  0  0  0  0  0  0  0
   50.2245   33.0246   41.3829 H   0  0  0  0  0  0  0  0  0  0  0  0
   47.1619   34.3544   37.8144 H   0  0  0  0  0  0  0  0  0  0  0  0
   47.7891   31.7219   37.9194 H   0  0  0  0  0  0  0  0  0  0  0  0
   49.1047   31.3083   40.2575 H   0  0  0  0  0  0  0  0  0  0  0  0
   45.9813   31.8823   46.4827 H   0  0  0  0  0  0  0  0  0  0  0  0
   46.7233   32.7796   47.8619 H   0  0  0  0  0  0  0  0  0  0  0  0
   43.9219   31.8837   48.3050 H   0  0  0  0  0  0  0  0  0  0  0  0
   45.0911   30.5627   48.1442 H   0  0  0  0  0  0  0  0  0  0  0  0
   44.8923   31.5741   50.4122 H   0  0  0  0  0  0  0  0  0  0  0  0
   46.4577   31.5562   49.7973 H   0  0  0  0  0  0  0  0  0  0  0  0
  1  6  1  0
  2  1  2  0
  2  3  1  0
  3  4  2  0
  4  5  1  0
  5 16  1  0
  6  5  2  0
  7  8  1  0
  7  1  1  0
  9  8  1  0
 10  9  1  0
 10  8  1  0
 11 10  1  0
 12 11  1  0
 13 14  1  0
 13 12  2  0
 14 15  2  0
 15 11  1  0
 16 17  1  0
 17 18  1  0
 18 19  1  0
  2 20  1  0
  3 21  1  0
  8 22  1  1
  9 23  1  0
  9 24  1  0
 10 25  1  1
 13 26  1  0
 14 27  1  0
 15 28  1  0
 17 29  1  0
 17 30  1  0
 18 31  1  0
 18 32  1  0
 19 33  1  0
 19 34  1  0
M  ISO  8  20  14  21  14  22  13  23  13  24  13  25  13  26  14  27  14
M  ISO  7  28  14  29   8  30   8  31   8  32   8  33   5  34   5
M  END
>  <minimizedAffinity>  (1) 
-5.09176445

>  <minimizedRMSD>  (1) 
1.20314837

$$$$
