
     RDKit          3D

 33 35  0  0  1  0  0  0  0  0999 V2000
   46.3000   34.2230   43.7650 C   0  0  0  0  0  0  0  0  0  0  0  0
   45.6170   35.3860   43.3860 C   0  0  0  0  0  0  0  0  0  0  0  0
   44.7110   35.9650   44.2900 C   0  0  0  0  0  0  0  0  0  0  0  0
   44.5410   35.3660   45.4920 N   0  0  0  0  0  0  0  0  0  0  0  0
   45.2240   34.2470   45.8060 C   0  0  0  0  0  0  0  0  0  0  0  0
   46.0620   33.7160   44.9620 N   0  0  0  0  0  0  0  0  0  0  0  0
   47.1450   33.7710   42.7980 O   0  0  0  0  0  0  0  0  0  0  0  0
   48.5560   33.6710   43.0180 C   0  0  2  0  0  0  0  0  0  0  0  0
   49.3110   34.8740   42.5750 C   0  0  0  0  0  0  0  0  0  0  0  0
   49.3850   33.6340   41.7750 C   0  0  2  0  0  0  0  0  0  0  0  0
   48.7510   33.4710   40.5000 N   0  0  0  0  0  0  0  0  0  0  0  0
   48.1620   34.3790   39.7580 N   0  0  0  0  0  0  0  0  0  0  0  0
   47.6910   33.8360   38.6340 C   0  0  0  0  0  0  0  0  0  0  0  0
   48.0180   32.4800   38.6900 C   0  0  0  0  0  0  0  0  0  0  0  0
   48.6970   32.2610   39.8920 C   0  0  0  0  0  0  0  0  0  0  0  0
   45.0460   33.6310   47.0470 O   0  0  0  0  0  0  0  0  0  0  0  0
   45.7980   32.4820   47.4150 C   0  0  0  0  0  0  0  0  0  0  0  0
   45.0300   31.6830   48.4500 C   0  0  0  0  0  0  0  0  0  0  0  0
   45.4970   32.0620   49.7010 O   0  0  0  0  0  0  0  0  0  0  0  0
   45.7872   35.8379   42.3977 H   0  0  0  0  0  0  0  0  0  0  0  0
   44.1561   36.8782   44.0289 H   0  0  0  0  0  0  0  0  0  0  0  0
   48.5015   33.0624   43.9327 H   0  0  0  0  0  0  0  0  0  0  0  0
   48.7697   35.7479   42.1835 H   0  0  0  0  0  0  0  0  0  0  0  0
   50.0515   35.5396   43.0427 H   0  0  0  0  0  0  0  0  0  0  0  0
   50.2221   33.0342   41.3884 H   0  0  0  0  0  0  0  0  0  0  0  0
   47.1531   34.3529   37.8256 H   0  0  0  0  0  0  0  0  0  0  0  0
   47.7841   31.7224   37.9276 H   0  0  0  0  0  0  0  0  0  0  0  0
   49.1016   31.3087   40.2652 H   0  0  0  0  0  0  0  0  0  0  0  0
   45.9723   31.8581   46.5260 H   0  0  0  0  0  0  0  0  0  0  0  0
   46.7633   32.7967   47.8382 H   0  0  0  0  0  0  0  0  0  0  0  0
   43.9545   31.8995   48.3692 H   0  0  0  0  0  0  0  0  0  0  0  0
   45.1759   30.6041   48.2927 H   0  0  0  0  0  0  0  0  0  0  0  0
   44.9548   31.6220   50.4028 H   0  0  0  0  0  0  0  0  0  0  0  0
  1  6  1  0
  2  1  2  0
  2  3  1  0
  3  4  2  0
  4  5  1  0
  5 16  1  0
  6  5  2  0
  7  8  1  0
  7  1  1  0
  9  8  1  0
 10  9  1  0
 10  8  1  0
 11 10  1  0
 12 11  1  0
 13 14  1  0
 13 12  2  0
 14 15  2  0
 15 11  1  0
 16 17  1  0
 17 18  1  0
 18 19  1  0
  2 20  1  0
  3 21  1  0
  8 22  1  1
  9 23  1  0
  9 24  1  0
 10 25  1  1
 13 26  1  0
 14 27  1  0
 15 28  1  0
 17 29  1  0
 17 30  1  0
 18 31  1  0
 18 32  1  0
 19 33  1  0
M  ISO  8  20  14  21  14  22  13  23  13  24  13  25  13  26  14  27  14
M  ISO  6  28  14  29   8  30   8  31   8  32   8  33   3
M  END
>  <minimizedAffinity>  (1) 
-5.04340887

>  <minimizedRMSD>  (1) 
1.19677341

$$$$
