
     RDKit          3D

 44 47  0  0  1  0  0  0  0  0999 V2000
   46.3210   34.4430   43.6180 C   0  0  0  0  0  0  0  0  0  0  0  0
   45.5380   35.5890   43.3570 C   0  0  0  0  0  0  0  0  0  0  0  0
   44.6280   36.0170   44.3430 C   0  0  0  0  0  0  0  0  0  0  0  0
   44.5540   35.3080   45.4890 N   0  0  0  0  0  0  0  0  0  0  0  0
   45.3280   34.2250   45.6800 C   0  0  0  0  0  0  0  0  0  0  0  0
   46.1720   33.8230   44.7690 N   0  0  0  0  0  0  0  0  0  0  0  0
   47.1520   34.1480   42.5810 O   0  0  0  0  0  0  0  0  0  0  0  0
   48.5680   34.0350   42.7650 C   0  0  2  0  0  0  0  0  0  0  0  0
   49.3350   35.1560   42.1520 C   0  0  0  0  0  0  0  0  0  0  0  0
   49.3470   33.8280   41.5040 C   0  0  2  0  0  0  0  0  0  0  0  0
   48.6600   33.5210   40.2850 N   0  0  0  0  0  0  0  0  0  0  0  0
   48.1160   34.3500   39.4230 N   0  0  0  0  0  0  0  0  0  0  0  0
   47.5670   33.6920   38.4100 C   0  0  0  0  0  0  0  0  0  0  0  0
   47.7890   32.3370   38.6640 C   0  0  0  0  0  0  0  0  0  0  0  0
   48.4900   32.2420   39.8700 C   0  0  0  0  0  0  0  0  0  0  0  0
   45.2470   33.4960   46.8690 O   0  0  0  0  0  0  0  0  0  0  0  0
   46.2570   32.5630   47.2390 C   0  0  0  0  0  0  0  0  0  0  0  0
   45.6600   31.4200   48.0070 C   0  0  0  0  0  0  0  0  0  0  0  0
   45.0680   30.4100   47.1650 N   0  0  0  0  0  0  0  0  0  0  0  0
   45.7390   30.2100   45.9090 C   0  0  0  0  0  0  0  0  0  0  0  0
   46.6140   29.0020   46.0110 C   0  0  0  0  0  0  0  0  0  0  0  0
   46.6200   28.7180   47.4930 C   0  0  0  0  0  0  0  0  0  0  0  0
   45.2240   29.1460   47.9020 C   0  0  0  0  0  0  0  0  0  0  0  0
   45.6365   36.1341   42.4066 H   0  0  0  0  0  0  0  0  0  0  0  0
   43.9961   36.9032   44.1837 H   0  0  0  0  0  0  0  0  0  0  0  0
   48.5348   33.5424   43.7480 H   0  0  0  0  0  0  0  0  0  0  0  0
   48.7998   35.9924   41.6787 H   0  0  0  0  0  0  0  0  0  0  0  0
   50.1096   35.8507   42.5088 H   0  0  0  0  0  0  0  0  0  0  0  0
   50.1562   33.1677   41.1587 H   0  0  0  0  0  0  0  0  0  0  0  0
   47.0432   34.1259   37.5455 H   0  0  0  0  0  0  0  0  0  0  0  0
   47.4701   31.4965   38.0301 H   0  0  0  0  0  0  0  0  0  0  0  0
   48.8306   31.3255   40.3740 H   0  0  0  0  0  0  0  0  0  0  0  0
   46.7418   32.1751   46.3310 H   0  0  0  0  0  0  0  0  0  0  0  0
   46.9960   33.0720   47.8752 H   0  0  0  0  0  0  0  0  0  0  0  0
   46.4535   30.9516   48.6077 H   0  0  0  0  0  0  0  0  0  0  0  0
   44.8547   31.8344   48.6314 H   0  0  0  0  0  0  0  0  0  0  0  0
   46.3536   31.0917   45.6748 H   0  0  0  0  0  0  0  0  0  0  0  0
   44.9967   30.0646   45.1103 H   0  0  0  0  0  0  0  0  0  0  0  0
   46.1908   28.1574   45.4474 H   0  0  0  0  0  0  0  0  0  0  0  0
   47.6197   29.1561   45.5929 H   0  0  0  0  0  0  0  0  0  0  0  0
   46.7854   27.6493   47.6944 H   0  0  0  0  0  0  0  0  0  0  0  0
   47.4209   29.2363   48.0405 H   0  0  0  0  0  0  0  0  0  0  0  0
   45.1561   29.3049   48.9883 H   0  0  0  0  0  0  0  0  0  0  0  0
   44.4463   28.4010   47.6779 H   0  0  0  0  0  0  0  0  0  0  0  0
  1  6  1  0
  2  1  2  0
  2  3  1  0
  3  4  2  0
  4  5  1  0
  5 16  1  0
  6  5  2  0
  7  8  1  0
  7  1  1  0
  9  8  1  0
 10  9  1  0
 10  8  1  0
 11 10  1  0
 12 11  1  0
 13 14  1  0
 13 12  2  0
 14 15  2  0
 15 11  1  0
 16 17  1  0
 17 18  1  0
 19 23  1  0
 19 18  1  0
 20 21  1  0
 20 19  1  0
 21 22  1  0
 22 23  1  0
  2 24  1  0
  3 25  1  0
  8 26  1  1
  9 27  1  0
  9 28  1  0
 10 29  1  1
 13 30  1  0
 14 31  1  0
 15 32  1  0
 17 33  1  0
 17 34  1  0
 18 35  1  0
 18 36  1  0
 20 37  1  0
 20 38  1  0
 21 39  1  0
 21 40  1  0
 22 41  1  0
 22 42  1  0
 23 43  1  0
 23 44  1  0
M  ISO  8  24  14  25  14  26  13  27  13  28  13  29  13  30  14  31  14
M  ISO  8  32  14  33   8  34   8  35   8  36   8  37  13  38  13  39  13
M  ISO  5  40  13  41  13  42  13  43  13  44  13
M  END
>  <minimizedAffinity>  (1) 
-4.91261339

>  <minimizedRMSD>  (1) 
2.33268952

$$$$
