
     RDKit          3D

 46 50  0  0  1  0  0  0  0  0999 V2000
   46.6170   33.9320   43.6190 C   0  0  0  0  0  0  0  0  0  0  0  0
   45.8390   35.0590   43.2850 C   0  0  0  0  0  0  0  0  0  0  0  0
   44.9090   35.5280   44.2370 C   0  0  0  0  0  0  0  0  0  0  0  0
   44.8130   34.8760   45.4120 N   0  0  0  0  0  0  0  0  0  0  0  0
   45.5840   33.8060   45.6740 C   0  0  0  0  0  0  0  0  0  0  0  0
   46.4450   33.3670   44.8020 N   0  0  0  0  0  0  0  0  0  0  0  0
   47.4710   33.5900   42.6150 O   0  0  0  0  0  0  0  0  0  0  0  0
   48.4590   32.5660   42.7930 C   0  0  2  0  0  0  0  0  0  0  0  0
   49.5230   32.5860   41.7490 C   0  0  0  0  0  0  0  0  0  0  0  0
   48.4870   31.5340   41.7110 C   0  0  2  0  0  0  0  0  0  0  0  0
   47.4350   31.4910   40.7400 N   0  0  0  0  0  0  0  0  0  0  0  0
   47.3440   32.1250   39.5940 N   0  0  0  0  0  0  0  0  0  0  0  0
   46.2110   31.8250   38.9700 C   0  0  0  0  0  0  0  0  0  0  0  0
   45.5400   30.9260   39.8010 C   0  0  0  0  0  0  0  0  0  0  0  0
   46.3350   30.7210   40.9300 C   0  0  0  0  0  0  0  0  0  0  0  0
   45.4780   33.1350   46.8960 O   0  0  0  0  0  0  0  0  0  0  0  0
   46.6200   32.9350   47.7310 C   0  0  0  0  0  0  0  0  0  0  0  0
   46.3610   31.8490   48.7330 C   0  0  0  0  0  0  0  0  0  0  0  0
   46.9280   30.6140   48.2090 N   0  0  0  0  0  0  0  0  0  0  0  0
   48.1570   30.0870   48.3590 C   0  0  0  0  0  0  0  0  0  0  0  0
   48.1960   28.9340   47.6830 N   0  0  0  0  0  0  0  0  0  0  0  0
   46.9860   28.7220   47.0970 C   0  0  0  0  0  0  0  0  0  0  0  0
   46.5510   27.6680   46.3000 C   0  0  0  0  0  0  0  0  0  0  0  0
   47.2620   26.7000   45.9900 O   0  0  0  0  0  0  0  0  0  0  0  0
   45.2750   27.7900   45.8880 N   0  0  0  0  0  0  0  0  0  0  0  0
   44.4830   28.8250   46.2070 C   0  0  0  0  0  0  0  0  0  0  0  0
   43.1440   28.9230   45.7580 N   0  0  0  0  0  0  0  0  0  0  0  0
   44.8950   29.8450   46.9760 N   0  0  0  0  0  0  0  0  0  0  0  0
   46.1760   29.8060   47.4390 C   0  0  0  0  0  0  0  0  0  0  0  0
   45.9534   35.5579   42.3114 H   0  0  0  0  0  0  0  0  0  0  0  0
   44.2783   36.4039   44.0251 H   0  0  0  0  0  0  0  0  0  0  0  0
   48.4281   32.5394   43.8922 H   0  0  0  0  0  0  0  0  0  0  0  0
   49.5283   33.3785   40.9862 H   0  0  0  0  0  0  0  0  0  0  0  0
   50.6229   32.5900   41.7637 H   0  0  0  0  0  0  0  0  0  0  0  0
   48.5284   30.4363   41.6540 H   0  0  0  0  0  0  0  0  0  0  0  0
   45.8704   32.2071   37.9964 H   0  0  0  0  0  0  0  0  0  0  0  0
   44.5621   30.4631   39.6022 H   0  0  0  0  0  0  0  0  0  0  0  0
   46.1157   30.0725   41.7910 H   0  0  0  0  0  0  0  0  0  0  0  0
   47.4794   32.6517   47.1055 H   0  0  0  0  0  0  0  0  0  0  0  0
   46.8319   33.8702   48.2701 H   0  0  0  0  0  0  0  0  0  0  0  0
   46.8381   32.1026   49.6912 H   0  0  0  0  0  0  0  0  0  0  0  0
   45.2804   31.7334   48.9030 H   0  0  0  0  0  0  0  0  0  0  0  0
   48.9837   30.5271   48.9359 H   0  0  0  0  0  0  0  0  0  0  0  0
   44.8841   27.0454   45.2933 H   0  0  0  0  0  0  0  0  0  0  0  0
   42.5692   29.7347   46.0257 H   0  0  0  0  0  0  0  0  0  0  0  0
   42.7446   28.1826   45.1636 H   0  0  0  0  0  0  0  0  0  0  0  0
  1  6  1  0
  2  1  2  0
  2  3  1  0
  3  4  2  0
  4  5  1  0
  5 16  1  0
  6  5  2  0
  7  8  1  0
  7  1  1  0
  9  8  1  0
 10  9  1  0
 10  8  1  0
 11 15  1  0
 11 10  1  0
 12 11  1  0
 13 12  2  0
 13 14  1  0
 14 15  2  0
 16 17  1  0
 17 18  1  0
 19 20  1  0
 19 18  1  0
 21 20  2  0
 22 29  2  0
 22 21  1  0
 23 22  1  0
 24 23  2  0
 25 26  1  0
 25 23  1  0
 26 28  2  0
 27 26  1  0
 28 29  1  0
 29 19  1  0
  2 30  1  0
  3 31  1  0
  8 32  1  1
  9 33  1  0
  9 34  1  0
 10 35  1  1
 13 36  1  0
 14 37  1  0
 15 38  1  0
 17 39  1  0
 17 40  1  0
 18 41  1  0
 18 42  1  0
 20 43  1  0
 25 44  1  0
 27 45  1  0
 27 46  1  0
M  ISO  8  30  14  31  14  32  13  33  13  34  13  35  13  36  14  37  14
M  ISO  7  38  14  39   8  40   8  41   8  42   8  43  14  44   9
M  END
>  <minimizedAffinity>  (1) 
-4.71820927

>  <minimizedRMSD>  (1) 
4.60909557

$$$$
