
     RDKit          3D

 12 12  0  0  0  0  0  0  0  0999 V2000
   44.5680   36.0060   44.4910 C   0  0  0  0  0  0  0  0  0  0  0  0
   45.3140   35.9200   43.2940 C   0  0  0  0  0  0  0  0  0  0  0  0
   46.2060   34.8570   43.1660 C   0  0  0  0  0  0  0  0  0  0  0  0
   46.3110   33.9670   44.1850 N   0  0  0  0  0  0  0  0  0  0  0  0
   45.5830   34.0810   45.3150 C   0  0  0  0  0  0  0  0  0  0  0  0
   44.7040   35.1030   45.4760 N   0  0  0  0  0  0  0  0  0  0  0  0
   46.9750   34.7710   41.9290 C   0  0  0  0  0  0  0  0  0  0  0  0
   48.0480   35.4060   41.7540 O   0  0  0  0  0  0  0  0  0  0  0  0
   43.8565   36.8350   44.6196 H   0  0  0  0  0  0  0  0  0  0  0  0
   45.1951   36.6645   42.4930 H   0  0  0  0  0  0  0  0  0  0  0  0
   45.7031   33.3366   46.1159 H   0  0  0  0  0  0  0  0  0  0  0  0
   46.6032   34.1269   41.1185 H   0  0  0  0  0  0  0  0  0  0  0  0
  1  6  2  0
  2  1  1  0
  3  2  2  0
  3  4  1  0
  4  5  2  0
  5  6  1  0
  7  3  1  0
  8  7  2  0
  1  9  1  0
  2 10  1  0
  5 11  1  0
  7 12  1  0
M  ISO  4   9  14  10  14  11  14  12   6
M  END
>  <minimizedAffinity>  (1) 
-3.12801242

>  <minimizedRMSD>  (1) 
0.701218545

$$$$
