
     RDKit          3D

 25 26  0  0  0  0  0  0  0  0999 V2000
   47.4230   35.0410   41.8370 C   0  0  0  0  0  0  0  0  0  0  0  0
   48.5000   35.7160   41.9110 O   0  0  0  0  0  0  0  0  0  0  0  0
   44.7020   35.9260   44.1800 C   0  0  0  0  0  0  0  0  0  0  0  0
   45.5530   35.9990   43.0780 C   0  0  0  0  0  0  0  0  0  0  0  0
   46.5120   34.9750   42.9930 C   0  0  0  0  0  0  0  0  0  0  0  0
   46.5620   34.0020   43.9490 N   0  0  0  0  0  0  0  0  0  0  0  0
   45.6980   34.0010   44.9910 C   0  0  0  0  0  0  0  0  0  0  0  0
   44.7660   34.9660   45.1060 N   0  0  0  0  0  0  0  0  0  0  0  0
   46.8510   33.1400   38.1060 C   0  0  0  0  0  0  0  0  0  0  0  0
   48.0000   33.8630   38.3680 C   0  0  0  0  0  0  0  0  0  0  0  0
   48.1140   34.4620   39.6290 C   0  0  0  0  0  0  0  0  0  0  0  0
   47.1200   34.3410   40.5860 C   0  0  0  0  0  0  0  0  0  0  0  0
   45.9950   33.6280   40.3190 C   0  0  0  0  0  0  0  0  0  0  0  0
   45.8670   33.0280   39.0710 C   0  0  0  0  0  0  0  0  0  0  0  0
   46.7010   32.3900   36.5290 S   0  0  0  0  0  0  0  0  0  0  0  0
   45.4360   32.7760   35.8380 O   0  0  0  0  0  0  0  0  0  0  0  0
   47.9140   32.7350   35.7140 O   0  0  0  0  0  0  0  0  0  0  0  0
   43.9332   36.7045   44.2932 H   0  0  0  0  0  0  0  0  0  0  0  0
   45.4791   36.8008   42.3286 H   0  0  0  0  0  0  0  0  0  0  0  0
   45.7577   33.2063   45.7492 H   0  0  0  0  0  0  0  0  0  0  0  0
   48.7949   33.9640   37.6144 H   0  0  0  0  0  0  0  0  0  0  0  0
   49.0169   35.0440   39.8656 H   0  0  0  0  0  0  0  0  0  0  0  0
   45.2017   33.5273   41.0743 H   0  0  0  0  0  0  0  0  0  0  0  0
   44.9592   32.4491   38.8456 H   0  0  0  0  0  0  0  0  0  0  0  0
   46.6332   31.0308   36.6864 H   0  0  0  0  0  0  0  0  0  0  0  0
  1  2  2  0
  1  5  1  0
  3  8  2  0
  4  3  1  0
  5  4  2  0
  5  6  1  0
  6  7  2  0
  7  8  1  0
  9 10  2  0
  9 14  1  0
 10 11  1  0
 11 12  2  0
 12  1  1  0
 13 12  1  0
 14 13  2  0
 15  9  1  0
 16 15  2  0
 17 15  2  0
  3 18  1  0
  4 19  1  0
  7 20  1  0
 10 21  1  0
 11 22  1  0
 13 23  1  0
 14 24  1  0
 15 25  1  0
M  ISO  8  18  14  19  14  20  14  21  14  22  14  23  14  24  14  25  11
M  END
>  <minimizedAffinity>  (1) 
-4.83211517

>  <minimizedRMSD>  (1) 
1.59808719

$$$$
