
     RDKit          3D

 36 39  0  0  1  0  0  0  0  0999 V2000
   47.4630   33.8710   41.9420 C   0  0  2  0  0  0  0  0  0  0  0  0
   48.5040   34.3850   42.8300 C   0  0  0  0  0  0  0  0  0  0  0  0
   49.3490   35.3890   42.0420 C   0  0  0  0  0  0  0  0  0  0  0  0
   48.7240   35.5110   40.6710 C   0  0  0  0  0  0  0  0  0  0  0  0
   47.9570   34.2480   40.5260 C   0  0  1  0  0  0  0  0  0  0  0  0
   46.1160   34.4570   42.0600 C   0  0  0  0  0  0  0  0  0  0  0  0
   45.7390   35.0790   43.2710 C   0  0  0  0  0  0  0  0  0  0  0  0
   44.4720   35.6520   43.3750 C   0  0  0  0  0  0  0  0  0  0  0  0
   43.6630   35.5700   42.2720 N   0  0  0  0  0  0  0  0  0  0  0  0
   44.0550   34.9640   41.1230 C   0  0  0  0  0  0  0  0  0  0  0  0
   45.2800   34.4090   41.0180 N   0  0  0  0  0  0  0  0  0  0  0  0
   48.7320   33.1740   39.9430 N   0  0  0  0  0  0  0  0  0  0  0  0
   49.5130   32.2210   40.4900 C   0  0  0  0  0  0  0  0  0  0  0  0
   49.9910   31.4800   39.4530 N   0  0  0  0  0  0  0  0  0  0  0  0
   49.5190   31.9600   38.2990 C   0  0  0  0  0  0  0  0  0  0  0  0
   49.6930   31.5810   36.9810 C   0  0  0  0  0  0  0  0  0  0  0  0
   49.0930   32.2470   35.9890 N   0  0  0  0  0  0  0  0  0  0  0  0
   48.3000   33.3100   36.2780 C   0  0  0  0  0  0  0  0  0  0  0  0
   48.1360   33.6700   37.5440 N   0  0  0  0  0  0  0  0  0  0  0  0
   48.7150   33.0390   38.6020 C   0  0  0  0  0  0  0  0  0  0  0  0
   50.5130   30.4770   36.6330 N   0  0  0  0  0  0  0  0  0  0  0  0
   47.3369   32.8060   42.1866 H   0  0  0  0  0  0  0  0  0  0  0  0
   48.0430   34.8838   43.6952 H   0  0  0  0  0  0  0  0  0  0  0  0
   49.1342   33.5607   43.1953 H   0  0  0  0  0  0  0  0  0  0  0  0
   49.3446   36.3659   42.5477 H   0  0  0  0  0  0  0  0  0  0  0  0
   50.3936   35.0519   41.9692 H   0  0  0  0  0  0  0  0  0  0  0  0
   48.0570   36.3842   40.6193 H   0  0  0  0  0  0  0  0  0  0  0  0
   49.4670   35.6550   39.8728 H   0  0  0  0  0  0  0  0  0  0  0  0
   47.1203   34.4026   39.8289 H   0  0  0  0  0  0  0  0  0  0  0  0
   46.4362   35.1109   44.1213 H   0  0  0  0  0  0  0  0  0  0  0  0
   44.1377   36.1465   44.2989 H   0  0  0  0  0  0  0  0  0  0  0  0
   43.3655   34.9248   40.2668 H   0  0  0  0  0  0  0  0  0  0  0  0
   49.7220   32.0721   41.5596 H   0  0  0  0  0  0  0  0  0  0  0  0
   47.7993   33.8663   35.4719 H   0  0  0  0  0  0  0  0  0  0  0  0
   50.6282   30.2125   35.6442 H   0  0  0  0  0  0  0  0  0  0  0  0
   50.9932   29.9399   37.3691 H   0  0  0  0  0  0  0  0  0  0  0  0
  1  6  1  0
  1  2  1  0
  3  2  1  0
  4  3  1  0
  5  4  1  0
  5  1  1  0
  6  7  2  0
  7  8  1  0
  9  8  2  0
 10  9  1  0
 11 10  2  0
 11  6  1  0
 12 13  1  0
 12  5  1  0
 14 13  2  0
 15 20  2  0
 15 14  1  0
 16 15  1  0
 17 18  1  0
 17 16  2  0
 18 19  2  0
 19 20  1  0
 20 12  1  0
 21 16  1  0
  1 22  1  6
  2 23  1  0
  2 24  1  0
  3 25  1  0
  3 26  1  0
  4 27  1  0
  4 28  1  0
  5 29  1  6
  7 30  1  0
  8 31  1  0
 10 32  1  0
 13 33  1  0
 18 34  1  0
 21 35  1  0
 21 36  1  0
M  ISO  8  22  13  23  13  24  13  25  13  26  13  27  13  28  13  29  13
M  ISO  5  30  14  31  14  32  14  33  14  34  14
M  END
>  <minimizedAffinity>  (1) 
-5.5282445

>  <minimizedRMSD>  (1) 
6.93139029

$$$$
