
     RDKit          3D

 22 23  0  0  0  0  0  0  0  0999 V2000
   47.5250   35.0710   41.8480 C   0  0  0  0  0  0  0  0  0  0  0  0
   48.5790   35.7380   41.9270 O   0  0  0  0  0  0  0  0  0  0  0  0
   44.7160   35.6810   44.2390 C   0  0  0  0  0  0  0  0  0  0  0  0
   45.5430   35.8710   43.1230 C   0  0  0  0  0  0  0  0  0  0  0  0
   46.6010   34.9570   42.9840 C   0  0  0  0  0  0  0  0  0  0  0  0
   46.7580   33.9690   43.9130 N   0  0  0  0  0  0  0  0  0  0  0  0
   45.9300   33.8350   44.9700 C   0  0  0  0  0  0  0  0  0  0  0  0
   44.8870   34.7040   45.1420 N   0  0  0  0  0  0  0  0  0  0  0  0
   47.2290   34.3920   40.5700 C   0  0  0  0  0  0  0  0  0  0  0  0
   46.0450   33.7010   40.4130 C   0  0  0  0  0  0  0  0  0  0  0  0
   45.8070   33.0860   39.2010 C   0  0  0  0  0  0  0  0  0  0  0  0
   46.6830   33.1180   38.1260 C   0  0  0  0  0  0  0  0  0  0  0  0
   47.8640   33.8150   38.3010 C   0  0  0  0  0  0  0  0  0  0  0  0
   48.1220   34.4380   39.5080 C   0  0  0  0  0  0  0  0  0  0  0  0
   43.8754   36.3757   44.3829 H   0  0  0  0  0  0  0  0  0  0  0  0
   45.3742   36.6842   42.4018 H   0  0  0  0  0  0  0  0  0  0  0  0
   46.0939   33.0247   45.6956 H   0  0  0  0  0  0  0  0  0  0  0  0
   45.3117   33.6421   41.2308 H   0  0  0  0  0  0  0  0  0  0  0  0
   44.8625   32.5353   39.0795 H   0  0  0  0  0  0  0  0  0  0  0  0
   46.4487   32.6120   37.1778 H   0  0  0  0  0  0  0  0  0  0  0  0
   48.5963   33.8738   37.4823 H   0  0  0  0  0  0  0  0  0  0  0  0
   49.0664   34.9885   39.6310 H   0  0  0  0  0  0  0  0  0  0  0  0
  1  2  2  0
  1  5  1  0
  3  8  2  0
  4  3  1  0
  5  4  2  0
  5  6  1  0
  6  7  2  0
  7  8  1  0
  9  1  1  0
 10  9  2  0
 11 10  1  0
 12 13  1  0
 12 11  2  0
 13 14  2  0
 14  9  1  0
  3 15  1  0
  4 16  1  0
  7 17  1  0
 10 18  1  0
 11 19  1  0
 12 20  1  0
 13 21  1  0
 14 22  1  0
M  ISO  8  15  14  16  14  17  14  18  14  19  14  20  14  21  14  22  14
M  END
>  <minimizedAffinity>  (1) 
-4.45821047

>  <minimizedRMSD>  (1) 
1.45211351

$$$$
