
     RDKit          3D

 20 21  0  0  0  0  0  0  0  0999 V2000
   44.6330   35.9410   44.3560 C   0  0  0  0  0  0  0  0  0  0  0  0
   45.4450   36.0040   43.2110 C   0  0  0  0  0  0  0  0  0  0  0  0
   46.4020   34.9870   43.0710 C   0  0  0  0  0  0  0  0  0  0  0  0
   46.4870   34.0290   44.0230 N   0  0  0  0  0  0  0  0  0  0  0  0
   45.6750   34.0170   45.1120 C   0  0  0  0  0  0  0  0  0  0  0  0
   44.7420   34.9810   45.2770 N   0  0  0  0  0  0  0  0  0  0  0  0
   47.2740   34.9980   41.9030 C   0  0  0  0  0  0  0  0  0  0  0  0
   48.3810   35.6220   41.9140 O   0  0  0  0  0  0  0  0  0  0  0  0
   46.8860   34.2850   40.6900 C   0  0  0  0  0  0  0  0  0  0  0  0
   47.7650   34.1400   39.6500 C   0  0  0  0  0  0  0  0  0  0  0  0
   47.3200   33.4540   38.5430 C   0  0  0  0  0  0  0  0  0  0  0  0
   46.0940   32.9330   38.4310 N   0  0  0  0  0  0  0  0  0  0  0  0
   45.2550   33.1040   39.4920 C   0  0  0  0  0  0  0  0  0  0  0  0
   45.6490   33.7650   40.5890 N   0  0  0  0  0  0  0  0  0  0  0  0
   43.8705   36.7206   44.5004 H   0  0  0  0  0  0  0  0  0  0  0  0
   45.3366   36.8058   42.4658 H   0  0  0  0  0  0  0  0  0  0  0  0
   45.7772   33.2195   45.8627 H   0  0  0  0  0  0  0  0  0  0  0  0
   48.7830   34.5540   39.6974 H   0  0  0  0  0  0  0  0  0  0  0  0
   48.0148   33.3268   37.6998 H   0  0  0  0  0  0  0  0  0  0  0  0
   44.2361   32.6919   39.4467 H   0  0  0  0  0  0  0  0  0  0  0  0
  1  6  2  0
  2  1  1  0
  3  2  2  0
  3  4  1  0
  4  5  2  0
  5  6  1  0
  7  8  2  0
  7  3  1  0
  9  7  1  0
 10  9  2  0
 11 10  1  0
 12 11  2  0
 12 13  1  0
 13 14  2  0
 14  9  1  0
  1 15  1  0
  2 16  1  0
  5 17  1  0
 10 18  1  0
 11 19  1  0
 13 20  1  0
M  ISO  6  15  14  16  14  17  14  18  14  19  14  20  14
M  END
>  <minimizedAffinity>  (1) 
-4.24009991

>  <minimizedRMSD>  (1) 
0.616900146

$$$$
