
     RDKit          3D

 18 19  0  0  0  0  0  0  0  0999 V2000
   44.5970   35.9300   44.3880 C   0  0  0  0  0  0  0  0  0  0  0  0
   45.4070   35.9640   43.2160 C   0  0  0  0  0  0  0  0  0  0  0  0
   46.3580   34.9680   43.0870 C   0  0  0  0  0  0  0  0  0  0  0  0
   46.4810   34.0290   44.0440 N   0  0  0  0  0  0  0  0  0  0  0  0
   45.6950   34.0160   45.1550 C   0  0  0  0  0  0  0  0  0  0  0  0
   44.7470   34.9710   45.3300 N   0  0  0  0  0  0  0  0  0  0  0  0
   47.1980   34.9710   41.8930 C   0  0  0  0  0  0  0  0  0  0  0  0
   48.2940   35.6120   41.8400 O   0  0  0  0  0  0  0  0  0  0  0  0
   46.8260   34.2250   40.6670 C   0  0  0  0  0  0  0  0  0  0  0  0
   47.7860   34.0430   39.7080 C   0  0  0  0  0  0  0  0  0  0  0  0
   46.8790   33.0970   38.4260 S   0  0  0  0  0  0  0  0  0  0  0  0
   45.2890   33.1180   39.4670 C   0  0  0  0  0  0  0  0  0  0  0  0
   45.6430   33.7170   40.4180 N   0  0  0  0  0  0  0  0  0  0  0  0
   43.8290   36.7046   44.5304 H   0  0  0  0  0  0  0  0  0  0  0  0
   45.2820   36.7445   42.4510 H   0  0  0  0  0  0  0  0  0  0  0  0
   45.8285   33.2297   45.9126 H   0  0  0  0  0  0  0  0  0  0  0  0
   48.8336   34.3785   39.7070 H   0  0  0  0  0  0  0  0  0  0  0  0
   44.3025   32.6865   39.2420 H   0  0  0  0  0  0  0  0  0  0  0  0
  1  6  2  0
  2  1  1  0
  3  2  2  0
  3  4  1  0
  4  5  2  0
  5  6  1  0
  7  3  1  0
  8  7  2  0
  9  7  1  0
 10  9  2  0
 11 12  1  0
 11 10  1  0
 12 13  2  0
 13  9  1  0
  1 14  1  0
  2 15  1  0
  5 16  1  0
 10 17  1  0
 12 18  1  0
M  ISO  5  14  14  15  14  16  14  17  14  18  14
M  END
>  <minimizedAffinity>  (1) 
-4.00746107

>  <minimizedRMSD>  (1) 
0.537439048

$$$$
