
     RDKit          3D

 28 30  0  0  1  0  0  0  0  0999 V2000
   47.3420   33.8150   42.4360 C   0  0  2  0  0  0  0  0  0  0  0  0
   48.6940   33.5680   42.9340 C   0  0  0  0  0  0  0  0  0  0  0  0
   49.5940   34.7070   42.4540 C   0  0  0  0  0  0  0  0  0  0  0  0
   48.7150   35.6890   41.7280 C   0  0  0  0  0  0  0  0  0  0  0  0
   47.5350   34.8880   41.3260 C   0  0  1  0  0  0  0  0  0  0  0  0
   46.3710   34.4090   43.3740 C   0  0  0  0  0  0  0  0  0  0  0  0
   46.1780   33.8040   44.6300 C   0  0  0  0  0  0  0  0  0  0  0  0
   45.2790   34.3680   45.5350 C   0  0  0  0  0  0  0  0  0  0  0  0
   44.6270   35.5040   45.1270 N   0  0  0  0  0  0  0  0  0  0  0  0
   44.8370   36.0620   43.9060 C   0  0  0  0  0  0  0  0  0  0  0  0
   45.6960   35.5170   43.0490 N   0  0  0  0  0  0  0  0  0  0  0  0
   47.7330   34.1910   40.0120 C   0  0  0  0  0  0  0  0  0  0  0  0
   47.3390   32.9660   39.6210 N   0  0  0  0  0  0  0  0  0  0  0  0
   47.7310   32.7730   38.3870 O   0  0  0  0  0  0  0  0  0  0  0  0
   48.3650   33.8050   37.9330 C   0  0  0  0  0  0  0  0  0  0  0  0
   48.3770   34.7160   38.9500 N   0  0  0  0  0  0  0  0  0  0  0  0
   46.9275   32.8351   42.1567 H   0  0  0  0  0  0  0  0  0  0  0  0
   48.6863   33.5373   44.0335 H   0  0  0  0  0  0  0  0  0  0  0  0
   49.0675   32.6039   42.5586 H   0  0  0  0  0  0  0  0  0  0  0  0
   50.0755   35.1955   43.3139 H   0  0  0  0  0  0  0  0  0  0  0  0
   50.3868   34.3276   41.7926 H   0  0  0  0  0  0  0  0  0  0  0  0
   48.4191   36.5140   42.3926 H   0  0  0  0  0  0  0  0  0  0  0  0
   49.2213   36.1553   40.8700 H   0  0  0  0  0  0  0  0  0  0  0  0
   46.6655   35.5514   41.2081 H   0  0  0  0  0  0  0  0  0  0  0  0
   46.7326   32.8921   44.8962 H   0  0  0  0  0  0  0  0  0  0  0  0
   45.1017   33.9244   46.5258 H   0  0  0  0  0  0  0  0  0  0  0  0
   44.2909   36.9740   43.6233 H   0  0  0  0  0  0  0  0  0  0  0  0
   48.8048   33.9244   36.9318 H   0  0  0  0  0  0  0  0  0  0  0  0
  1  2  1  0
  1  6  1  0
  3  2  1  0
  4  3  1  0
  5  4  1  0
  5  1  1  0
  6  7  2  0
  7  8  1  0
  9  8  2  0
 10  9  1  0
 11  6  1  0
 11 10  2  0
 12  5  1  0
 13 12  2  0
 14 13  1  0
 15 14  1  0
 15 16  2  0
 16 12  1  0
  1 17  1  6
  2 18  1  0
  2 19  1  0
  3 20  1  0
  3 21  1  0
  4 22  1  0
  4 23  1  0
  5 24  1  6
  7 25  1  0
  8 26  1  0
 10 27  1  0
 15 28  1  0
M  ISO  8  17  13  18  13  19  13  20  13  21  13  22  13  23  13  24  13
M  ISO  4  25  14  26  14  27  14  28  14
M  END
>  <minimizedAffinity>  (1) 
-5.30954266

>  <minimizedRMSD>  (1) 
4.35103273

$$$$
