
     RDKit          3D

 33 36  0  0  1  0  0  0  0  0999 V2000
   46.0650   33.4940   41.2650 C   0  0  2  0  0  0  0  0  0  0  0  0
   46.5380   33.6180   39.8520 C   0  0  0  0  0  0  0  0  0  0  0  0
   45.2290   34.2050   40.2490 C   0  0  1  0  0  0  0  0  0  0  0  0
   43.9670   33.4860   39.9220 C   0  0  0  0  0  0  0  0  0  0  0  0
   43.9880   32.3070   39.2390 N   0  0  0  0  0  0  0  0  0  0  0  0
   42.8530   31.6460   38.9350 C   0  0  0  0  0  0  0  0  0  0  0  0
   41.6590   32.1270   39.2960 N   0  0  0  0  0  0  0  0  0  0  0  0
   41.5610   33.3020   39.9820 C   0  0  0  0  0  0  0  0  0  0  0  0
   40.3160   33.8010   40.3570 C   0  0  0  0  0  0  0  0  0  0  0  0
   40.3120   34.9960   41.0480 C   0  0  0  0  0  0  0  0  0  0  0  0
   41.4660   35.6830   41.3650 C   0  0  0  0  0  0  0  0  0  0  0  0
   42.7060   35.1880   40.9930 C   0  0  0  0  0  0  0  0  0  0  0  0
   42.7210   33.9980   40.3030 C   0  0  0  0  0  0  0  0  0  0  0  0
   46.6520   34.4300   42.2960 C   0  0  0  0  0  0  0  0  0  0  0  0
   47.7570   34.9680   42.0070 O   0  0  0  0  0  0  0  0  0  0  0  0
   44.4780   35.9340   44.9010 C   0  0  0  0  0  0  0  0  0  0  0  0
   45.1470   35.7610   43.6390 C   0  0  0  0  0  0  0  0  0  0  0  0
   45.9480   34.6640   43.5430 C   0  0  0  0  0  0  0  0  0  0  0  0
   46.0710   33.8200   44.6020 N   0  0  0  0  0  0  0  0  0  0  0  0
   45.4330   34.0040   45.7740 C   0  0  0  0  0  0  0  0  0  0  0  0
   44.6200   35.0760   45.9390 N   0  0  0  0  0  0  0  0  0  0  0  0
   45.9592   32.6390   41.9489 H   0  0  0  0  0  0  0  0  0  0  0  0
   46.5680   32.7306   39.2027 H   0  0  0  0  0  0  0  0  0  0  0  0
   47.4476   34.0036   39.3683 H   0  0  0  0  0  0  0  0  0  0  0  0
   44.7925   35.2046   40.1064 H   0  0  0  0  0  0  0  0  0  0  0  0
   42.9102   30.6970   38.3818 H   0  0  0  0  0  0  0  0  0  0  0  0
   39.3835   33.2700   40.1149 H   0  0  0  0  0  0  0  0  0  0  0  0
   39.3459   35.4195   41.3598 H   0  0  0  0  0  0  0  0  0  0  0  0
   41.4012   36.6318   41.9178 H   0  0  0  0  0  0  0  0  0  0  0  0
   43.6357   35.7223   41.2383 H   0  0  0  0  0  0  0  0  0  0  0  0
   43.8192   36.8056   45.0289 H   0  0  0  0  0  0  0  0  0  0  0  0
   45.0198   36.4685   42.8064 H   0  0  0  0  0  0  0  0  0  0  0  0
   45.5715   33.2857   46.5955 H   0  0  0  0  0  0  0  0  0  0  0  0
  1 14  1  0
  2  3  1  0
  2  1  1  0
  3  1  1  0
  4  3  1  0
  4 13  1  0
  5  4  2  0
  6  5  1  0
  6  7  2  0
  7  8  1  0
  8 13  2  0
  8  9  1  0
  9 10  2  0
 10 11  1  0
 12 11  2  0
 13 12  1  0
 14 18  1  0
 15 14  2  0
 16 21  2  0
 17 16  1  0
 18 17  2  0
 18 19  1  0
 19 20  2  0
 20 21  1  0
  1 22  1  1
  2 23  1  0
  2 24  1  0
  3 25  1  1
  6 26  1  0
  9 27  1  0
 10 28  1  0
 11 29  1  0
 12 30  1  0
 16 31  1  0
 17 32  1  0
 20 33  1  0
M  ISO  8  22  13  23  13  24  13  25  13  26  14  27  14  28  14  29  14
M  ISO  4  30  14  31  14  32  14  33  14
M  END
>  <minimizedAffinity>  (1) 
-5.31710768

>  <minimizedRMSD>  (1) 
3.60729527

$$$$
