
     RDKit          3D

 21 22  0  0  1  0  0  0  0  0999 V2000
   47.1060   34.8630   41.9700 C   0  0  0  0  0  0  0  0  0  0  0  0
   48.1600   35.5390   41.8160 O   0  0  0  0  0  0  0  0  0  0  0  0
   44.5790   35.9710   44.4260 C   0  0  0  0  0  0  0  0  0  0  0  0
   45.3690   35.9470   43.2470 C   0  0  0  0  0  0  0  0  0  0  0  0
   46.2790   34.9340   43.1470 C   0  0  0  0  0  0  0  0  0  0  0  0
   46.3810   34.0240   44.1490 N   0  0  0  0  0  0  0  0  0  0  0  0
   45.6150   34.0680   45.2660 C   0  0  0  0  0  0  0  0  0  0  0  0
   44.6860   35.0660   45.4140 N   0  0  0  0  0  0  0  0  0  0  0  0
   46.7350   33.9390   40.8380 C   0  0  2  0  0  0  0  0  0  0  0  0
   47.7110   32.8720   40.4540 C   0  0  0  0  0  0  0  0  0  0  0  0
   47.6090   34.1110   39.6310 C   0  0  2  0  0  0  0  0  0  0  0  0
   48.7100   35.0260   39.6640 N   0  0  0  0  0  0  0  0  0  0  0  0
   43.8373   36.7757   44.5374 H   0  0  0  0  0  0  0  0  0  0  0  0
   45.2543   36.7035   42.4567 H   0  0  0  0  0  0  0  0  0  0  0  0
   45.7378   33.3067   46.0505 H   0  0  0  0  0  0  0  0  0  0  0  0
   45.6584   33.9285   41.0636 H   0  0  0  0  0  0  0  0  0  0  0  0
   48.6033   32.6955   41.0726 H   0  0  0  0  0  0  0  0  0  0  0  0
   47.6406   31.7941   40.2460 H   0  0  0  0  0  0  0  0  0  0  0  0
   47.4139   34.3459   38.5742 H   0  0  0  0  0  0  0  0  0  0  0  0
   48.9568   35.2311   40.6427 H   0  0  0  0  0  0  0  0  0  0  0  0
   49.5201   34.6057   39.1865 H   0  0  0  0  0  0  0  0  0  0  0  0
  1  5  1  0
  2  1  2  0
  3  8  2  0
  4  3  1  0
  5  4  2  0
  5  6  1  0
  6  7  2  0
  7  8  1  0
  9  1  1  0
 10  9  1  0
 11 12  1  0
 11 10  1  0
 11  9  1  0
  3 13  1  0
  4 14  1  0
  7 15  1  0
  9 16  1  6
 10 17  1  0
 10 18  1  0
 11 19  1  6
 12 20  1  0
 12 21  1  0
M  ISO  8  13  14  14  14  15  14  16  13  17  13  18  13  19  13  20   5
M  ISO  1  21   5
M  END
>  <minimizedAffinity>  (1) 
-4.22889566

>  <minimizedRMSD>  (1) 
0.227955177

$$$$
