
     RDKit          3D

 21 22  0  0  1  0  0  0  0  0999 V2000
   46.5470   34.8980   42.0620 C   0  0  0  0  0  0  0  0  0  0  0  0
   47.6590   35.4370   41.8150 O   0  0  0  0  0  0  0  0  0  0  0  0
   44.4610   35.9240   44.9370 C   0  0  0  0  0  0  0  0  0  0  0  0
   45.0510   35.9540   43.6390 C   0  0  0  0  0  0  0  0  0  0  0  0
   45.9060   34.9300   43.3610 C   0  0  0  0  0  0  0  0  0  0  0  0
   46.1450   33.9670   44.2910 N   0  0  0  0  0  0  0  0  0  0  0  0
   45.5670   33.9680   45.5160 C   0  0  0  0  0  0  0  0  0  0  0  0
   44.7020   34.9690   45.8550 N   0  0  0  0  0  0  0  0  0  0  0  0
   45.8810   34.1820   40.9150 C   0  0  2  0  0  0  0  0  0  0  0  0
   46.2650   32.7610   40.6430 C   0  0  0  0  0  0  0  0  0  0  0  0
   46.8060   33.8630   39.7930 C   0  0  2  0  0  0  0  0  0  0  0  0
   48.2470   34.1280   39.9090 C   0  0  0  0  0  0  0  0  0  0  0  0
   48.7740   35.0000   39.2200 O   0  0  0  0  0  0  0  0  0  0  0  0
   43.7649   36.7324   45.2052 H   0  0  0  0  0  0  0  0  0  0  0  0
   44.8309   36.7495   42.9118 H   0  0  0  0  0  0  0  0  0  0  0  0
   45.7933   33.1663   46.2344 H   0  0  0  0  0  0  0  0  0  0  0  0
   44.9124   34.6874   41.0430 H   0  0  0  0  0  0  0  0  0  0  0  0
   46.9278   32.2266   41.3395 H   0  0  0  0  0  0  0  0  0  0  0  0
   45.7148   31.8278   40.4522 H   0  0  0  0  0  0  0  0  0  0  0  0
   46.8085   34.1247   38.7246 H   0  0  0  0  0  0  0  0  0  0  0  0
   48.8564   33.5443   40.6146 H   0  0  0  0  0  0  0  0  0  0  0  0
  1  5  1  0
  2  1  2  0
  3  8  2  0
  4  3  1  0
  5  4  2  0
  5  6  1  0
  6  7  2  0
  7  8  1  0
  9  1  1  0
 10  9  1  0
 11 12  1  0
 11 10  1  0
 11  9  1  0
 13 12  2  0
  3 14  1  0
  4 15  1  0
  7 16  1  0
  9 17  1  6
 10 18  1  0
 10 19  1  0
 11 20  1  6
 12 21  1  0
M  ISO  8  14  14  15  14  16  14  17  13  18  13  19  13  20  13  21   6
M  END
>  <minimizedAffinity>  (1) 
-4.1777997

>  <minimizedRMSD>  (1) 
0.948709428

$$$$
