
     RDKit          3D

 37 40  0  0  1  0  0  0  0  0999 V2000
   46.3250   34.1690   42.2150 C   0  0  2  0  0  0  0  0  0  0  0  0
   47.4180   35.1290   42.2870 C   0  0  0  0  0  0  0  0  0  0  0  0
   48.6430   34.4240   42.8770 C   0  0  0  0  0  0  0  0  0  0  0  0
   48.2480   32.9910   43.1220 C   0  0  0  0  0  0  0  0  0  0  0  0
   46.7690   33.0320   43.1790 C   0  0  1  0  0  0  0  0  0  0  0  0
   46.1890   33.2880   44.5070 C   0  0  0  0  0  0  0  0  0  0  0  0
   45.3630   34.3180   44.9220 C   0  0  0  0  0  0  0  0  0  0  0  0
   45.0320   34.2200   46.2220 N   0  0  0  0  0  0  0  0  0  0  0  0
   45.6370   33.1130   46.7000 C   0  0  0  0  0  0  0  0  0  0  0  0
   45.6400   32.5370   47.9750 C   0  0  0  0  0  0  0  0  0  0  0  0
   46.3580   31.3870   48.1730 C   0  0  0  0  0  0  0  0  0  0  0  0
   47.0730   30.8030   47.1270 C   0  0  0  0  0  0  0  0  0  0  0  0
   47.0700   31.3730   45.8700 C   0  0  0  0  0  0  0  0  0  0  0  0
   46.3420   32.5420   45.6590 C   0  0  0  0  0  0  0  0  0  0  0  0
   46.0700   33.5110   40.9250 C   0  0  0  0  0  0  0  0  0  0  0  0
   46.8980   33.8240   39.8240 C   0  0  0  0  0  0  0  0  0  0  0  0
   46.6660   33.1830   38.6020 C   0  0  0  0  0  0  0  0  0  0  0  0
   45.6380   32.2830   38.5570 N   0  0  0  0  0  0  0  0  0  0  0  0
   44.8600   32.0050   39.6370 C   0  0  0  0  0  0  0  0  0  0  0  0
   45.0810   32.6200   40.8090 N   0  0  0  0  0  0  0  0  0  0  0  0
   45.4022   34.7247   42.4377 H   0  0  0  0  0  0  0  0  0  0  0  0
   47.6531   35.5005   41.2787 H   0  0  0  0  0  0  0  0  0  0  0  0
   47.1311   35.9813   42.9204 H   0  0  0  0  0  0  0  0  0  0  0  0
   49.4830   34.4689   42.1682 H   0  0  0  0  0  0  0  0  0  0  0  0
   48.9643   34.9088   43.8107 H   0  0  0  0  0  0  0  0  0  0  0  0
   48.5899   32.3451   42.2998 H   0  0  0  0  0  0  0  0  0  0  0  0
   48.6958   32.5791   44.0384 H   0  0  0  0  0  0  0  0  0  0  0  0
   46.4050   32.0320   42.9007 H   0  0  0  0  0  0  0  0  0  0  0  0
   45.0158   35.1268   44.2622 H   0  0  0  0  0  0  0  0  0  0  0  0
   44.4309   34.8671   46.7518 H   0  0  0  0  0  0  0  0  0  0  0  0
   45.0779   32.9976   48.8008 H   0  0  0  0  0  0  0  0  0  0  0  0
   46.3709   30.9187   49.1683 H   0  0  0  0  0  0  0  0  0  0  0  0
   47.6442   29.8801   47.3057 H   0  0  0  0  0  0  0  0  0  0  0  0
   47.6343   30.9109   45.0466 H   0  0  0  0  0  0  0  0  0  0  0  0
   47.7106   34.5585   39.9255 H   0  0  0  0  0  0  0  0  0  0  0  0
   47.2836   33.3940   37.7165 H   0  0  0  0  0  0  0  0  0  0  0  0
   44.0447   31.2717   39.5494 H   0  0  0  0  0  0  0  0  0  0  0  0
  1  2  1  0
  1  5  1  0
  2  3  1  0
  3  4  1  0
  4  5  1  0
  5  6  1  0
  6  7  2  0
  6 14  1  0
  7  8  1  0
  8  9  1  0
  9 10  2  0
 10 11  1  0
 12 11  2  0
 13 12  1  0
 14 13  2  0
 14  9  1  0
 15  1  1  0
 16 15  2  0
 17 16  1  0
 18 17  2  0
 18 19  1  0
 19 20  2  0
 20 15  1  0
  1 21  1  1
  2 22  1  0
  2 23  1  0
  3 24  1  0
  3 25  1  0
  4 26  1  0
  4 27  1  0
  5 28  1  6
  7 29  1  0
  8 30  1  0
 10 31  1  0
 11 32  1  0
 12 33  1  0
 13 34  1  0
 16 35  1  0
 17 36  1  0
 19 37  1  0
M  ISO  8  21  13  22  13  23  13  24  13  25  13  26  13  27  13  28  13
M  ISO  8  29  14  30   9  31  14  32  14  33  14  34  14  35  14  36  14
M  ISO  1  37  14
M  END
>  <minimizedAffinity>  (1) 
-5.28592777

>  <minimizedRMSD>  (1) 
4.69921923

$$$$
