
     RDKit          3D

 20 21  0  0  1  0  0  0  0  0999 V2000
   47.5550   33.9940   42.5720 C   0  0  0  0  0  0  0  0  0  0  0  0
   48.7020   33.6760   42.9920 O   0  0  0  0  0  0  0  0  0  0  0  0
   44.7670   36.0610   43.8810 C   0  0  0  0  0  0  0  0  0  0  0  0
   45.7960   35.5940   42.9920 C   0  0  0  0  0  0  0  0  0  0  0  0
   46.5010   34.5110   43.4180 C   0  0  0  0  0  0  0  0  0  0  0  0
   46.2050   33.9560   44.6100 N   0  0  0  0  0  0  0  0  0  0  0  0
   45.2410   34.4000   45.4360 C   0  0  0  0  0  0  0  0  0  0  0  0
   44.5010   35.4820   45.0640 N   0  0  0  0  0  0  0  0  0  0  0  0
   47.3060   33.8070   41.0960 C   0  0  2  0  0  0  0  0  0  0  0  0
   48.4140   33.2640   40.2560 C   0  0  0  0  0  0  0  0  0  0  0  0
   48.1210   34.7270   40.2410 C   0  0  2  0  0  0  0  0  0  0  0  0
   49.0150   35.6020   40.8030 O   0  0  0  0  0  0  0  0  0  0  0  0
   44.1693   36.9335   43.5784 H   0  0  0  0  0  0  0  0  0  0  0  0
   46.0006   36.0819   42.0276 H   0  0  0  0  0  0  0  0  0  0  0  0
   45.0529   33.8978   46.3964 H   0  0  0  0  0  0  0  0  0  0  0  0
   46.2466   33.5336   41.2094 H   0  0  0  0  0  0  0  0  0  0  0  0
   49.3333   32.8927   40.7324 H   0  0  0  0  0  0  0  0  0  0  0  0
   48.4941   32.4802   39.4884 H   0  0  0  0  0  0  0  0  0  0  0  0
   47.8840   35.4732   39.4683 H   0  0  0  0  0  0  0  0  0  0  0  0
   48.9568   35.5450   41.7896 H   0  0  0  0  0  0  0  0  0  0  0  0
  1  2  2  0
  1  5  1  0
  3  8  2  0
  4  5  2  0
  4  3  1  0
  5  6  1  0
  6  7  2  0
  8  7  1  0
  9  1  1  0
 10  9  1  0
 11 10  1  0
 11 12  1  0
 11  9  1  0
  3 13  1  0
  4 14  1  0
  7 15  1  0
  9 16  1  1
 10 17  1  0
 10 18  1  0
 11 19  1  6
 12 20  1  0
M  ISO  8  13  14  14  14  15  14  16  13  17  13  18  13  19  13  20   3
M  END
>  <minimizedAffinity>  (1) 
-4.05600643

>  <minimizedRMSD>  (1) 
1.00720382

$$$$
