
     RDKit          3D

 25 27  0  0  1  0  0  0  0  0999 V2000
   45.2840   34.5380   41.8540 C   0  0  2  0  0  0  0  0  0  0  0  0
   45.7930   33.1380   41.7230 C   0  0  0  0  0  0  0  0  0  0  0  0
   46.5000   34.2630   41.0420 C   0  0  2  0  0  0  0  0  0  0  0  0
   47.8150   34.5170   41.5910 N   0  0  0  0  0  0  0  0  0  0  0  0
   48.5930   35.6340   41.4710 C   0  0  0  0  0  0  0  0  0  0  0  0
   49.7560   35.4820   42.1320 N   0  0  0  0  0  0  0  0  0  0  0  0
   49.7130   34.2390   42.6840 C   0  0  0  0  0  0  0  0  0  0  0  0
   48.5510   33.6890   42.3480 N   0  0  0  0  0  0  0  0  0  0  0  0
   45.5480   35.2890   43.1280 C   0  0  0  0  0  0  0  0  0  0  0  0
   45.7760   36.5250   42.9910 O   0  0  0  0  0  0  0  0  0  0  0  0
   44.7450   34.3480   46.6200 C   0  0  0  0  0  0  0  0  0  0  0  0
   44.7040   35.0590   45.3730 C   0  0  0  0  0  0  0  0  0  0  0  0
   45.5370   34.6010   44.3950 C   0  0  0  0  0  0  0  0  0  0  0  0
   46.3420   33.5300   44.6280 N   0  0  0  0  0  0  0  0  0  0  0  0
   46.3560   32.8820   45.8190 C   0  0  0  0  0  0  0  0  0  0  0  0
   45.5490   33.2890   46.8350 N   0  0  0  0  0  0  0  0  0  0  0  0
   44.2973   34.9976   41.6951 H   0  0  0  0  0  0  0  0  0  0  0  0
   46.2570   32.6377   42.5858 H   0  0  0  0  0  0  0  0  0  0  0  0
   45.3619   32.1789   41.4000 H   0  0  0  0  0  0  0  0  0  0  0  0
   46.7830   34.5540   40.0196 H   0  0  0  0  0  0  0  0  0  0  0  0
   48.3075   36.5360   40.9098 H   0  0  0  0  0  0  0  0  0  0  0  0
   50.4984   33.7735   43.2976 H   0  0  0  0  0  0  0  0  0  0  0  0
   44.0896   34.6837   47.4372 H   0  0  0  0  0  0  0  0  0  0  0  0
   44.0401   35.9219   45.2159 H   0  0  0  0  0  0  0  0  0  0  0  0
   47.0249   32.0209   45.9644 H   0  0  0  0  0  0  0  0  0  0  0  0
  1  9  1  0
  2  1  1  0
  3  4  1  0
  3  2  1  0
  3  1  1  0
  4  8  1  0
  5  4  1  0
  5  6  2  0
  6  7  1  0
  8  7  2  0
  9 13  1  0
 10  9  2  0
 11 16  2  0
 12 11  1  0
 13 14  1  0
 13 12  2  0
 14 15  2  0
 15 16  1  0
  1 17  1  6
  2 18  1  0
  2 19  1  0
  3 20  1  6
  5 21  1  0
  7 22  1  0
 11 23  1  0
 12 24  1  0
 15 25  1  0
M  ISO  8  17  13  18  13  19  13  20  13  21  14  22  14  23  14  24  14
M  ISO  1  25  14
M  END
>  <minimizedAffinity>  (1) 
-4.05231953

>  <minimizedRMSD>  (1) 
2.26668215

$$$$
