
     RDKit          3D

 22 23  0  0  1  0  0  0  0  0999 V2000
   46.7290   34.7460   42.1530 C   0  0  0  0  0  0  0  0  0  0  0  0
   47.7660   35.4010   41.8820 O   0  0  0  0  0  0  0  0  0  0  0  0
   44.4710   35.9580   44.8170 C   0  0  0  0  0  0  0  0  0  0  0  0
   45.1490   35.9100   43.5690 C   0  0  0  0  0  0  0  0  0  0  0  0
   46.0090   34.8620   43.4130 C   0  0  0  0  0  0  0  0  0  0  0  0
   46.1710   33.9580   44.4120 N   0  0  0  0  0  0  0  0  0  0  0  0
   45.5110   34.0310   45.5890 C   0  0  0  0  0  0  0  0  0  0  0  0
   44.6350   35.0550   45.8080 N   0  0  0  0  0  0  0  0  0  0  0  0
   46.2490   33.8050   41.0900 C   0  0  2  0  0  0  0  0  0  0  0  0
   47.1070   32.6590   40.6840 C   0  0  0  0  0  0  0  0  0  0  0  0
   47.0070   33.8750   39.8220 C   0  0  2  0  0  0  0  0  0  0  0  0
   48.2870   34.6210   39.6710 C   0  0  0  0  0  0  0  0  0  0  0  0
   43.7661   36.7851   44.9872 H   0  0  0  0  0  0  0  0  0  0  0  0
   44.9917   36.6644   42.7841 H   0  0  0  0  0  0  0  0  0  0  0  0
   45.6785   33.2702   46.3656 H   0  0  0  0  0  0  0  0  0  0  0  0
   45.1972   33.8758   41.4041 H   0  0  0  0  0  0  0  0  0  0  0  0
   48.0373   32.4457   41.2309 H   0  0  0  0  0  0  0  0  0  0  0  0
   46.9502   31.5806   40.5343 H   0  0  0  0  0  0  0  0  0  0  0  0
   46.6911   34.1500   38.8048 H   0  0  0  0  0  0  0  0  0  0  0  0
   48.6930   34.8576   40.6656 H   0  0  0  0  0  0  0  0  0  0  0  0
   49.0090   34.0022   39.1179 H   0  0  0  0  0  0  0  0  0  0  0  0
   48.1045   35.5542   39.1179 H   0  0  0  0  0  0  0  0  0  0  0  0
  1  5  1  0
  2  1  2  0
  3  8  2  0
  4  3  1  0
  5  4  2  0
  5  6  1  0
  6  7  2  0
  7  8  1  0
  9  1  1  0
 10  9  1  0
 11 10  1  0
 11  9  1  0
 12 11  1  0
  3 13  1  0
  4 14  1  0
  7 15  1  0
  9 16  1  6
 10 17  1  0
 10 18  1  0
 11 19  1  6
 12 20  1  0
 12 21  1  0
 12 22  1  0
M  ISO  8  13  14  14  14  15  14  16  13  17  13  18  13  19  13  20   8
M  ISO  2  21   8  22   8
M  END
>  <minimizedAffinity>  (1) 
-4.00099993

>  <minimizedRMSD>  (1) 
0.675154209

$$$$
