
     RDKit          3D

 26 28  0  0  1  0  0  0  0  0999 V2000
   46.2950   34.7120   41.9030 C   0  0  0  0  0  0  0  0  0  0  0  0
   47.4270   35.1410   41.5590 O   0  0  0  0  0  0  0  0  0  0  0  0
   44.4800   35.9350   44.8900 C   0  0  0  0  0  0  0  0  0  0  0  0
   44.9800   35.8890   43.5450 C   0  0  0  0  0  0  0  0  0  0  0  0
   45.7610   34.8190   43.2390 C   0  0  0  0  0  0  0  0  0  0  0  0
   46.0100   33.8980   44.1870 N   0  0  0  0  0  0  0  0  0  0  0  0
   45.5390   33.9460   45.4460 C   0  0  0  0  0  0  0  0  0  0  0  0
   44.7480   34.9970   45.8130 N   0  0  0  0  0  0  0  0  0  0  0  0
   45.5070   34.0560   40.8110 C   0  0  2  0  0  0  0  0  0  0  0  0
   45.7300   32.6170   40.4950 C   0  0  0  0  0  0  0  0  0  0  0  0
   46.3090   33.6780   39.6150 C   0  0  2  0  0  0  0  0  0  0  0  0
   47.7940   33.6390   39.5650 C   0  0  0  0  0  0  0  0  0  0  0  0
   48.6110   32.9530   38.5680 C   0  0  0  0  0  0  0  0  0  0  0  0
   48.3770   34.3760   38.3240 C   0  0  0  0  0  0  0  0  0  0  0  0
   43.8434   36.7839   45.1800 H   0  0  0  0  0  0  0  0  0  0  0  0
   44.7457   36.6710   42.8077 H   0  0  0  0  0  0  0  0  0  0  0  0
   45.7865   33.1530   46.1670 H   0  0  0  0  0  0  0  0  0  0  0  0
   44.5997   34.6400   41.0250 H   0  0  0  0  0  0  0  0  0  0  0  0
   46.3898   32.0094   41.1318 H   0  0  0  0  0  0  0  0  0  0  0  0
   45.0792   31.7442   40.3377 H   0  0  0  0  0  0  0  0  0  0  0  0
   46.2533   34.0454   38.5797 H   0  0  0  0  0  0  0  0  0  0  0  0
   47.8434   33.6163   40.6637 H   0  0  0  0  0  0  0  0  0  0  0  0
   49.6208   32.6135   38.8419 H   0  0  0  0  0  0  0  0  0  0  0  0
   48.4530   32.0505   37.9593 H   0  0  0  0  0  0  0  0  0  0  0  0
   49.1947   35.1023   38.4419 H   0  0  0  0  0  0  0  0  0  0  0  0
   47.9702   34.9807   37.5000 H   0  0  0  0  0  0  0  0  0  0  0  0
  1  5  1  0
  2  1  2  0
  3  8  2  0
  4  3  1  0
  5  4  2  0
  5  6  1  0
  6  7  2  0
  7  8  1  0
  9  1  1  0
 10  9  1  0
 11 10  1  0
 11  9  1  0
 12 11  1  0
 13 12  1  0
 14 13  1  0
 14 12  1  0
  3 15  1  0
  4 16  1  0
  7 17  1  0
  9 18  1  6
 10 19  1  0
 10 20  1  0
 11 21  1  6
 12 22  1  0
 13 23  1  0
 13 24  1  0
 14 25  1  0
 14 26  1  0
M  ISO  8  15  14  16  14  17  14  18  13  19  13  20  13  21  13  22  13
M  ISO  4  23  13  24  13  25  13  26  13
M  END
>  <minimizedAffinity>  (1) 
-3.95099449

>  <minimizedRMSD>  (1) 
1.58717918

$$$$
