
     RDKit          3D

 20 21  0  0  1  0  0  0  0  0999 V2000
   47.2040   34.9980   41.9010 C   0  0  0  0  0  0  0  0  0  0  0  0
   48.3030   35.6160   41.8420 O   0  0  0  0  0  0  0  0  0  0  0  0
   44.5820   35.8460   44.3660 C   0  0  0  0  0  0  0  0  0  0  0  0
   45.3770   35.9200   43.1850 C   0  0  0  0  0  0  0  0  0  0  0  0
   46.3590   34.9780   43.0730 C   0  0  0  0  0  0  0  0  0  0  0  0
   46.5260   34.0520   44.0530 N   0  0  0  0  0  0  0  0  0  0  0  0
   45.7550   34.0070   45.1640 C   0  0  0  0  0  0  0  0  0  0  0  0
   44.7610   34.9160   45.3360 N   0  0  0  0  0  0  0  0  0  0  0  0
   46.7910   34.2490   40.6580 C   0  0  2  0  0  0  0  0  0  0  0  0
   46.9140   32.7600   40.6590 C   0  0  0  0  0  0  0  0  0  0  0  0
   47.9380   33.5880   39.9620 C   0  0  1  0  0  0  0  0  0  0  0  0
   47.8950   33.6850   38.1510 S   0  0  0  0  0  0  0  0  0  0  0  0
   43.7780   36.5851   44.4976 H   0  0  0  0  0  0  0  0  0  0  0  0
   45.2101   36.6864   42.4138 H   0  0  0  0  0  0  0  0  0  0  0  0
   45.9332   33.2349   45.9270 H   0  0  0  0  0  0  0  0  0  0  0  0
   45.9725   34.9357   40.3962 H   0  0  0  0  0  0  0  0  0  0  0  0
   47.1743   32.2307   41.5875 H   0  0  0  0  0  0  0  0  0  0  0  0
   46.2588   31.9262   40.3666 H   0  0  0  0  0  0  0  0  0  0  0  0
   49.0360   33.6328   40.0104 H   0  0  0  0  0  0  0  0  0  0  0  0
   47.3616   34.8882   37.7707 H   0  0  0  0  0  0  0  0  0  0  0  0
  1  5  1  0
  2  1  2  0
  3  8  2  0
  4  3  1  0
  5  4  2  0
  5  6  1  0
  6  7  2  0
  7  8  1  0
  9 10  1  0
  9  1  1  0
 11  9  1  0
 11 10  1  0
 12 11  1  0
  3 13  1  0
  4 14  1  0
  7 15  1  0
  9 16  1  6
 10 17  1  0
 10 18  1  0
 11 19  1  1
 12 20  1  0
M  ISO  8  13  14  14  14  15  14  16  13  17  13  18  13  19  13  20  11
M  END
>  <minimizedAffinity>  (1) 
-3.81853533

>  <minimizedRMSD>  (1) 
0.449053347

$$$$
