
     RDKit          3D

 36 39  0  0  1  0  0  0  0  0999 V2000
   47.3270   32.7760   40.3870 C   0  0  2  0  0  0  0  0  0  0  0  0
   46.5150   34.0360   40.2150 C   0  0  0  0  0  0  0  0  0  0  0  0
   47.5050   33.9270   41.2870 C   0  0  1  0  0  0  0  0  0  0  0  0
   47.4050   33.4380   42.6440 N   0  0  0  0  0  0  0  0  0  0  0  0
   48.1140   32.5130   43.3130 C   0  0  0  0  0  0  0  0  0  0  0  0
   47.6310   32.4120   44.5600 N   0  0  0  0  0  0  0  0  0  0  0  0
   46.6170   33.2850   44.6510 C   0  0  0  0  0  0  0  0  0  0  0  0
   45.8040   33.5480   45.7430 C   0  0  0  0  0  0  0  0  0  0  0  0
   45.9750   32.9270   46.8330 O   0  0  0  0  0  0  0  0  0  0  0  0
   44.8270   34.4790   45.6210 N   0  0  0  0  0  0  0  0  0  0  0  0
   44.6870   35.1120   44.4410 C   0  0  0  0  0  0  0  0  0  0  0  0
   43.6580   36.0890   44.3220 N   0  0  0  0  0  0  0  0  0  0  0  0
   45.4570   34.8800   43.3650 N   0  0  0  0  0  0  0  0  0  0  0  0
   46.4480   33.9520   43.4520 C   0  0  0  0  0  0  0  0  0  0  0  0
   48.5460   34.9840   41.1690 C   0  0  0  0  0  0  0  0  0  0  0  0
   48.7050   35.5450   39.9040 F   0  0  0  0  0  0  0  0  0  0  0  0
   48.1420   36.0690   41.9540 F   0  0  0  0  0  0  0  0  0  0  0  0
   49.7810   34.6760   41.7300 F   0  0  0  0  0  0  0  0  0  0  0  0
   48.4050   32.4240   39.4500 C   0  0  0  0  0  0  0  0  0  0  0  0
   49.5100   32.2080   39.9900 O   0  0  0  0  0  0  0  0  0  0  0  0
   47.1060   31.4940   36.1160 C   0  0  0  0  0  0  0  0  0  0  0  0
   47.2590   31.4800   37.5490 C   0  0  0  0  0  0  0  0  0  0  0  0
   48.1590   32.3550   38.0420 C   0  0  0  0  0  0  0  0  0  0  0  0
   48.8430   33.1680   37.1740 N   0  0  0  0  0  0  0  0  0  0  0  0
   48.6830   33.1620   35.8410 C   0  0  0  0  0  0  0  0  0  0  0  0
   47.7940   32.3040   35.2860 N   0  0  0  0  0  0  0  0  0  0  0  0
   47.0826   31.7090   40.4950 H   0  0  0  0  0  0  0  0  0  0  0  0
   46.7009   34.6995   39.3576 H   0  0  0  0  0  0  0  0  0  0  0  0
   45.4422   34.2735   40.1630 H   0  0  0  0  0  0  0  0  0  0  0  0
   48.9543   31.9328   42.9041 H   0  0  0  0  0  0  0  0  0  0  0  0
   44.2057   34.6974   46.4129 H   0  0  0  0  0  0  0  0  0  0  0  0
   43.5248   36.5910   43.4325 H   0  0  0  0  0  0  0  0  0  0  0  0
   43.0468   36.2937   45.1254 H   0  0  0  0  0  0  0  0  0  0  0  0
   46.3802   30.7981   35.6700 H   0  0  0  0  0  0  0  0  0  0  0  0
   46.6818   30.8027   38.1956 H   0  0  0  0  0  0  0  0  0  0  0  0
   49.2669   33.8457   35.2072 H   0  0  0  0  0  0  0  0  0  0  0  0
  1  3  1  0
  2  1  1  0
  2  3  1  0
  3 15  1  1
  3  4  1  0
  4  5  1  0
  4 14  1  0
  5  6  2  0
  6  7  1  0
  7  8  1  0
  8  9  2  0
 10  8  1  0
 11 10  1  0
 12 11  1  0
 13 14  1  0
 13 11  2  0
 14  7  2  0
 15 18  1  0
 15 17  1  0
 16 15  1  0
 19 20  2  0
 19  1  1  0
 21 22  2  0
 22 23  1  0
 23 19  1  0
 24 23  2  0
 25 24  1  0
 26 25  2  0
 26 21  1  0
  1 27  1  1
  2 28  1  0
  2 29  1  0
  5 30  1  0
 10 31  1  0
 12 32  1  0
 12 33  1  0
 21 34  1  0
 22 35  1  0
 25 36  1  0
M  ISO  8  27  13  28  13  29  13  30  14  31   9  34  14  35  14  36  14
M  END
>  <minimizedAffinity>  (1) 
-6.39021063

>  <minimizedRMSD>  (1) 
6.702034

$$$$
