
     RDKit          3D

 33 36  0  0  1  0  0  0  0  0999 V2000
   46.5240   34.1890   40.8220 C   0  0  2  0  0  0  0  0  0  0  0  0
   46.0580   32.7600   40.9430 C   0  0  0  0  0  0  0  0  0  0  0  0
   47.3480   33.0760   40.3330 C   0  0  1  0  0  0  0  0  0  0  0  0
   47.7230   33.3710   38.9690 N   0  0  0  0  0  0  0  0  0  0  0  0
   48.3460   34.5010   38.6170 C   0  0  0  0  0  0  0  0  0  0  0  0
   48.5340   34.4330   37.2820 N   0  0  0  0  0  0  0  0  0  0  0  0
   48.0220   33.2640   36.8500 C   0  0  0  0  0  0  0  0  0  0  0  0
   47.9270   32.6580   35.6050 C   0  0  0  0  0  0  0  0  0  0  0  0
   47.3490   31.4390   35.4190 N   0  0  0  0  0  0  0  0  0  0  0  0
   46.8420   30.7860   36.5040 C   0  0  0  0  0  0  0  0  0  0  0  0
   46.9230   31.3530   37.7260 N   0  0  0  0  0  0  0  0  0  0  0  0
   47.4890   32.5560   37.9260 C   0  0  0  0  0  0  0  0  0  0  0  0
   48.4670   32.4230   41.0680 C   0  0  0  0  0  0  0  0  0  0  0  0
   48.1920   32.0290   42.3740 F   0  0  0  0  0  0  0  0  0  0  0  0
   48.7540   31.2160   40.4230 F   0  0  0  0  0  0  0  0  0  0  0  0
   49.6950   33.0760   40.9970 F   0  0  0  0  0  0  0  0  0  0  0  0
   46.9700   34.9540   41.9980 C   0  0  0  0  0  0  0  0  0  0  0  0
   48.0500   35.5510   41.8460 O   0  0  0  0  0  0  0  0  0  0  0  0
   44.5190   35.8240   44.6210 C   0  0  0  0  0  0  0  0  0  0  0  0
   45.2320   35.9020   43.3800 C   0  0  0  0  0  0  0  0  0  0  0  0
   46.1910   34.9710   43.1990 C   0  0  0  0  0  0  0  0  0  0  0  0
   46.4090   34.0430   44.1860 N   0  0  0  0  0  0  0  0  0  0  0  0
   45.7280   33.9880   45.3420 C   0  0  0  0  0  0  0  0  0  0  0  0
   44.7540   34.8990   45.5770 N   0  0  0  0  0  0  0  0  0  0  0  0
   46.0937   35.1085   40.3985 H   0  0  0  0  0  0  0  0  0  0  0  0
   46.0179   32.2741   41.9290 H   0  0  0  0  0  0  0  0  0  0  0  0
   45.1628   32.2004   40.6340 H   0  0  0  0  0  0  0  0  0  0  0  0
   48.6458   35.3231   39.2835 H   0  0  0  0  0  0  0  0  0  0  0  0
   48.3363   33.1852   34.7306 H   0  0  0  0  0  0  0  0  0  0  0  0
   46.3686   29.8004   36.3833 H   0  0  0  0  0  0  0  0  0  0  0  0
   43.7286   36.5661   44.8071 H   0  0  0  0  0  0  0  0  0  0  0  0
   45.0115   36.6707   42.6247 H   0  0  0  0  0  0  0  0  0  0  0  0
   45.9582   33.2133   46.0882 H   0  0  0  0  0  0  0  0  0  0  0  0
  1  2  1  0
  1 17  1  0
  3  1  1  0
  3  2  1  0
  3 13  1  1
  4  3  1  0
  5  4  1  0
  6  5  2  0
  7  6  1  0
  7 12  2  0
  8  7  1  0
  9  8  2  0
  9 10  1  0
 10 11  2  0
 11 12  1  0
 12  4  1  0
 13 14  1  0
 15 13  1  0
 16 13  1  0
 17 21  1  0
 18 17  2  0
 19 24  2  0
 20 19  1  0
 21 20  2  0
 21 22  1  0
 22 23  2  0
 23 24  1  0
  1 25  1  6
  2 26  1  0
  2 27  1  0
  5 28  1  0
  8 29  1  0
 10 30  1  0
 19 31  1  0
 20 32  1  0
 23 33  1  0
M  ISO  8  25  13  26  13  27  13  28  14  29  14  30  14  31  14  32  14
M  ISO  1  33  14
M  END
>  <minimizedAffinity>  (1) 
-5.31520844

>  <minimizedRMSD>  (1) 
2.93643832

$$$$
