
     RDKit          3D

 36 38  0  0  1  0  0  0  0  0999 V2000
   47.6320   34.9640   41.3600 C   0  0  2  0  0  0  0  0  0  0  0  0
   48.9820   35.3880   41.7310 C   0  0  0  0  0  0  0  0  0  0  0  0
   49.5280   34.3310   42.6890 C   0  0  0  0  0  0  0  0  0  0  0  0
   48.5160   33.2100   42.7490 C   0  0  0  0  0  0  0  0  0  0  0  0
   47.2390   33.8770   42.3980 C   0  0  1  0  0  0  0  0  0  0  0  0
   47.4480   34.3380   40.0430 C   0  0  0  0  0  0  0  0  0  0  0  0
   48.3930   34.5880   39.0340 C   0  0  0  0  0  0  0  0  0  0  0  0
   48.2420   33.9800   37.7900 C   0  0  0  0  0  0  0  0  0  0  0  0
   47.1540   33.1570   37.6280 N   0  0  0  0  0  0  0  0  0  0  0  0
   46.2610   32.9380   38.6240 C   0  0  0  0  0  0  0  0  0  0  0  0
   46.4140   33.5230   39.8080 N   0  0  0  0  0  0  0  0  0  0  0  0
   46.6350   34.5440   43.5230 N   0  0  0  0  0  0  0  0  0  0  0  0
   45.8380   33.6280   44.2960 C   0  0  0  0  0  0  0  0  0  0  0  0
   45.3170   34.4320   45.4890 C   0  0  0  0  0  0  0  0  0  0  0  0
   44.4570   35.4300   45.1060 O   0  0  0  0  0  0  0  0  0  0  0  0
   44.4150   35.6140   43.7290 C   0  0  0  0  0  0  0  0  0  0  0  0
   45.7530   35.6090   43.0630 C   0  0  0  0  0  0  0  0  0  0  0  0
   47.0316   35.8853   41.3317 H   0  0  0  0  0  0  0  0  0  0  0  0
   49.6181   35.4528   40.8359 H   0  0  0  0  0  0  0  0  0  0  0  0
   48.9681   36.3808   42.2044 H   0  0  0  0  0  0  0  0  0  0  0  0
   50.4907   33.9491   42.3185 H   0  0  0  0  0  0  0  0  0  0  0  0
   49.6922   34.7602   43.6884 H   0  0  0  0  0  0  0  0  0  0  0  0
   48.7600   32.4208   42.0226 H   0  0  0  0  0  0  0  0  0  0  0  0
   48.4844   32.7135   43.7301 H   0  0  0  0  0  0  0  0  0  0  0  0
   46.5145   33.1338   42.0336 H   0  0  0  0  0  0  0  0  0  0  0  0
   49.2445   35.2578   39.2247 H   0  0  0  0  0  0  0  0  0  0  0  0
   48.9607   34.1509   36.9750 H   0  0  0  0  0  0  0  0  0  0  0  0
   45.4033   32.2713   38.4513 H   0  0  0  0  0  0  0  0  0  0  0  0
   44.9990   33.2485   43.6943 H   0  0  0  0  0  0  0  0  0  0  0  0
   46.4246   32.7560   44.6209 H   0  0  0  0  0  0  0  0  0  0  0  0
   44.7875   33.7506   46.1712 H   0  0  0  0  0  0  0  0  0  0  0  0
   46.1806   34.9016   45.9825 H   0  0  0  0  0  0  0  0  0  0  0  0
   43.8106   34.8052   43.2924 H   0  0  0  0  0  0  0  0  0  0  0  0
   43.9842   36.6118   43.5592 H   0  0  0  0  0  0  0  0  0  0  0  0
   46.2423   36.5741   43.2606 H   0  0  0  0  0  0  0  0  0  0  0  0
   45.5765   35.4381   41.9908 H   0  0  0  0  0  0  0  0  0  0  0  0
  1  2  1  0
  1  5  1  0
  2  3  1  0
  3  4  1  0
  5  4  1  0
  5 12  1  0
  6  1  1  0
  7  6  2  0
  8  7  1  0
  9  8  2  0
  9 10  1  0
 10 11  2  0
 11  6  1  0
 12 13  1  0
 13 14  1  0
 15 14  1  0
 16 15  1  0
 17 12  1  0
 17 16  1  0
  1 18  1  6
  2 19  1  0
  2 20  1  0
  3 21  1  0
  3 22  1  0
  4 23  1  0
  4 24  1  0
  5 25  1  6
  7 26  1  0
  8 27  1  0
 10 28  1  0
 13 29  1  0
 13 30  1  0
 14 31  1  0
 14 32  1  0
 16 33  1  0
 16 34  1  0
 17 35  1  0
 17 36  1  0
M  ISO  8  18  13  19  13  20  13  21  13  22  13  23  13  24  13  25  13
M  ISO  8  26  14  27  14  28  14  29  13  30  13  31  13  32  13  33  13
M  ISO  3  34  13  35  13  36  13
M  END
>  <minimizedAffinity>  (1) 
-5.26532936

>  <minimizedRMSD>  (1) 
3.40845704

$$$$
