
     RDKit          3D

 38 40  0  0  1  0  0  0  0  0999 V2000
   46.9060   33.8420   40.9870 C   0  0  2  0  0  0  0  0  0  0  0  0
   46.6820   32.3950   41.3210 C   0  0  0  0  0  0  0  0  0  0  0  0
   47.9420   32.8340   40.7130 C   0  0  1  0  0  0  0  0  0  0  0  0
   48.3430   33.0280   39.2900 C   0  0  0  0  0  0  0  0  0  0  0  0
   47.8120   34.2050   38.5660 C   0  0  0  0  0  0  0  0  0  0  0  0
   48.7080   34.3720   37.3250 C   0  0  0  0  0  0  0  0  0  0  0  0
   48.7520   33.1500   36.4730 C   0  0  0  0  0  0  0  0  0  0  0  0
   48.9260   31.8710   37.2490 C   0  0  0  0  0  0  0  0  0  0  0  0
   47.9900   31.8070   38.4290 C   0  0  0  0  0  0  0  0  0  0  0  0
   49.1010   32.5240   41.5940 C   0  0  0  0  0  0  0  0  0  0  0  0
   48.7960   32.2500   42.9280 F   0  0  0  0  0  0  0  0  0  0  0  0
   49.6480   31.3050   41.1740 F   0  0  0  0  0  0  0  0  0  0  0  0
   50.1870   33.3770   41.4930 F   0  0  0  0  0  0  0  0  0  0  0  0
   47.1450   34.8560   42.0240 C   0  0  0  0  0  0  0  0  0  0  0  0
   48.1320   35.5890   41.8210 O   0  0  0  0  0  0  0  0  0  0  0  0
   44.5300   35.8960   44.4240 C   0  0  0  0  0  0  0  0  0  0  0  0
   45.3280   35.9010   43.2210 C   0  0  0  0  0  0  0  0  0  0  0  0
   46.2800   34.9470   43.1640 C   0  0  0  0  0  0  0  0  0  0  0  0
   46.4170   34.0750   44.2110 N   0  0  0  0  0  0  0  0  0  0  0  0
   45.6620   34.0910   45.3210 C   0  0  0  0  0  0  0  0  0  0  0  0
   44.6870   35.0240   45.4420 N   0  0  0  0  0  0  0  0  0  0  0  0
   46.3456   34.5907   40.4079 H   0  0  0  0  0  0  0  0  0  0  0  0
   46.6607   32.0682   42.3711 H   0  0  0  0  0  0  0  0  0  0  0  0
   45.9149   31.6460   41.0747 H   0  0  0  0  0  0  0  0  0  0  0  0
   49.4240   33.1923   39.4105 H   0  0  0  0  0  0  0  0  0  0  0  0
   46.7685   34.0309   38.2647 H   0  0  0  0  0  0  0  0  0  0  0  0
   47.8206   35.1064   39.1964 H   0  0  0  0  0  0  0  0  0  0  0  0
   48.3206   35.2065   36.7221 H   0  0  0  0  0  0  0  0  0  0  0  0
   49.7313   34.5640   37.6800 H   0  0  0  0  0  0  0  0  0  0  0  0
   49.5939   33.2469   35.7717 H   0  0  0  0  0  0  0  0  0  0  0  0
   47.7810   33.0829   35.9605 H   0  0  0  0  0  0  0  0  0  0  0  0
   48.7210   31.0191   36.5840 H   0  0  0  0  0  0  0  0  0  0  0  0
   49.9587   31.8348   37.6262 H   0  0  0  0  0  0  0  0  0  0  0  0
   46.9435   31.8606   38.0945 H   0  0  0  0  0  0  0  0  0  0  0  0
   48.0968   30.8655   38.9877 H   0  0  0  0  0  0  0  0  0  0  0  0
   43.7395   36.6552   44.5173 H   0  0  0  0  0  0  0  0  0  0  0  0
   45.1714   36.6286   42.4111 H   0  0  0  0  0  0  0  0  0  0  0  0
   45.8327   33.3563   46.1217 H   0  0  0  0  0  0  0  0  0  0  0  0
  1  2  1  0
  1 14  1  0
  3  1  1  0
  3  2  1  0
  3 10  1  1
  4  3  1  0
  5  4  1  0
  6  5  1  0
  7  8  1  0
  7  6  1  0
  8  9  1  0
  9  4  1  0
 10 11  1  0
 12 10  1  0
 13 10  1  0
 14 18  1  0
 15 14  2  0
 16 21  2  0
 17 16  1  0
 18 17  2  0
 18 19  1  0
 19 20  2  0
 20 21  1  0
  1 22  1  6
  2 23  1  0
  2 24  1  0
  4 25  1  0
  5 26  1  0
  5 27  1  0
  6 28  1  0
  6 29  1  0
  7 30  1  0
  7 31  1  0
  8 32  1  0
  8 33  1  0
  9 34  1  0
  9 35  1  0
 16 36  1  0
 17 37  1  0
 20 38  1  0
M  ISO  8  22  13  23  13  24  13  25  13  26  13  27  13  28  13  29  13
M  ISO  8  30  13  31  13  32  13  33  13  34  13  35  13  36  14  37  14
M  ISO  1  38  14
M  END
>  <minimizedAffinity>  (1) 
-5.03435421

>  <minimizedRMSD>  (1) 
2.59336829

$$$$
