
     RDKit          3D

 28 29  0  0  1  0  0  0  0  0999 V2000
   47.3580   33.1540   42.0890 C   0  0  2  0  0  0  0  0  0  0  0  0
   48.5410   33.4830   42.9620 C   0  0  0  0  0  0  0  0  0  0  0  0
   48.5420   33.8330   41.5420 C   0  0  2  0  0  0  0  0  0  0  0  0
   48.6980   35.3020   41.3440 C   0  0  0  0  0  0  0  0  0  0  0  0
   47.8260   36.1090   42.0690 F   0  0  0  0  0  0  0  0  0  0  0  0
   49.9550   35.6630   41.8420 F   0  0  0  0  0  0  0  0  0  0  0  0
   48.7920   35.7240   40.0240 F   0  0  0  0  0  0  0  0  0  0  0  0
   46.0920   33.8920   42.1930 C   0  0  0  0  0  0  0  0  0  0  0  0
   45.5150   34.0940   41.1020 O   0  0  0  0  0  0  0  0  0  0  0  0
   45.1960   34.0920   45.7740 C   0  0  0  0  0  0  0  0  0  0  0  0
   45.7440   33.5480   44.5560 C   0  0  0  0  0  0  0  0  0  0  0  0
   45.6020   34.3290   43.4640 C   0  0  0  0  0  0  0  0  0  0  0  0
   44.9700   35.5390   43.5880 N   0  0  0  0  0  0  0  0  0  0  0  0
   44.4680   36.0240   44.7350 C   0  0  0  0  0  0  0  0  0  0  0  0
   44.5780   35.2890   45.8670 N   0  0  0  0  0  0  0  0  0  0  0  0
   48.9650   33.0810   40.3150 C   0  0  0  0  0  0  0  0  0  0  0  0
   50.0140   32.0460   40.5200 C   0  0  0  0  0  0  0  0  0  0  0  0
   46.7922   32.2358   41.8729 H   0  0  0  0  0  0  0  0  0  0  0  0
   48.4616   34.2717   43.7247 H   0  0  0  0  0  0  0  0  0  0  0  0
   49.2052   32.9109   43.6265 H   0  0  0  0  0  0  0  0  0  0  0  0
   45.2878   33.4904   46.6904 H   0  0  0  0  0  0  0  0  0  0  0  0
   46.2417   32.5677   44.5194 H   0  0  0  0  0  0  0  0  0  0  0  0
   43.9734   37.0064   44.7549 H   0  0  0  0  0  0  0  0  0  0  0  0
   48.0758   32.5831   39.9009 H   0  0  0  0  0  0  0  0  0  0  0  0
   49.4111   33.8300   39.6442 H   0  0  0  0  0  0  0  0  0  0  0  0
   50.1708   31.8913   41.5977 H   0  0  0  0  0  0  0  0  0  0  0  0
   49.6926   31.1014   40.0569 H   0  0  0  0  0  0  0  0  0  0  0  0
   50.9542   32.3801   40.0569 H   0  0  0  0  0  0  0  0  0  0  0  0
  1  8  1  0
  1  2  1  0
  3 16  1  6
  3  1  1  0
  3  2  1  0
  4  3  1  0
  4  6  1  0
  4  5  1  0
  7  4  1  0
  8 12  1  0
  9  8  2  0
 10 15  2  0
 11 10  1  0
 12 13  1  0
 12 11  2  0
 13 14  2  0
 14 15  1  0
 16 17  1  0
  1 18  1  6
  2 19  1  0
  2 20  1  0
 10 21  1  0
 11 22  1  0
 14 23  1  0
 16 24  1  0
 16 25  1  0
 17 26  1  0
 17 27  1  0
 17 28  1  0
M  ISO  8  18  13  19  13  20  13  21  14  22  14  23  14  24   8  25   8
M  ISO  3  26   8  27   8  28   8
M  END
>  <minimizedAffinity>  (1) 
-4.81687212

>  <minimizedRMSD>  (1) 
2.70848918

$$$$
