
     RDKit          3D

 28 30  0  0  1  0  0  0  0  0999 V2000
   47.0730   32.8320   41.2480 C   0  0  2  0  0  0  0  0  0  0  0  0
   47.2230   33.3260   42.6580 C   0  0  0  0  0  0  0  0  0  0  0  0
   48.2530   33.6150   41.6590 C   0  0  1  0  0  0  0  0  0  0  0  0
   49.4610   32.8500   41.2560 C   0  0  0  0  0  0  0  0  0  0  0  0
   50.6670   32.6750   42.0010 C   0  0  0  0  0  0  0  0  0  0  0  0
   51.7160   31.6630   40.8780 S   0  0  0  0  0  0  0  0  0  0  0  0
   50.3350   31.6480   39.5830 C   0  0  0  0  0  0  0  0  0  0  0  0
   49.5330   32.2490   40.0850 N   0  0  0  0  0  0  0  0  0  0  0  0
   48.4300   35.0770   41.4670 C   0  0  0  0  0  0  0  0  0  0  0  0
   47.4740   35.8950   42.0630 F   0  0  0  0  0  0  0  0  0  0  0  0
   49.6140   35.4490   42.1140 F   0  0  0  0  0  0  0  0  0  0  0  0
   48.6870   35.4870   40.1610 F   0  0  0  0  0  0  0  0  0  0  0  0
   46.1050   33.4140   40.3130 C   0  0  0  0  0  0  0  0  0  0  0  0
   46.5350   33.5630   39.1560 O   0  0  0  0  0  0  0  0  0  0  0  0
   42.5230   33.3300   41.2430 C   0  0  0  0  0  0  0  0  0  0  0  0
   43.8120   32.8430   40.8030 C   0  0  0  0  0  0  0  0  0  0  0  0
   44.7880   33.7720   40.7490 C   0  0  0  0  0  0  0  0  0  0  0  0
   44.4980   35.0640   41.1040 N   0  0  0  0  0  0  0  0  0  0  0  0
   43.2940   35.4940   41.5090 C   0  0  0  0  0  0  0  0  0  0  0  0
   42.2700   34.6090   41.5850 N   0  0  0  0  0  0  0  0  0  0  0  0
   46.8851   31.8479   40.7938 H   0  0  0  0  0  0  0  0  0  0  0  0
   46.5752   34.1330   43.0310 H   0  0  0  0  0  0  0  0  0  0  0  0
   47.2114   32.8585   43.6537 H   0  0  0  0  0  0  0  0  0  0  0  0
   50.9102   33.0540   43.0046 H   0  0  0  0  0  0  0  0  0  0  0  0
   50.3228   31.1715   38.5917 H   0  0  0  0  0  0  0  0  0  0  0  0
   41.6945   32.6089   41.3024 H   0  0  0  0  0  0  0  0  0  0  0  0
   43.9837   31.7908   40.5320 H   0  0  0  0  0  0  0  0  0  0  0  0
   43.1396   36.5499   41.7758 H   0  0  0  0  0  0  0  0  0  0  0  0
  1  3  1  0
  1  2  1  0
  3  9  1  6
  3  2  1  0
  4  3  1  0
  4  5  2  0
  6  5  1  0
  7  8  2  0
  7  6  1  0
  8  4  1  0
  9 10  1  0
  9 11  1  0
 12  9  1  0
 13 17  1  0
 13  1  1  0
 14 13  2  0
 15 20  2  0
 16 15  1  0
 17 16  2  0
 17 18  1  0
 18 19  2  0
 19 20  1  0
  1 21  1  1
  2 22  1  0
  2 23  1  0
  5 24  1  0
  7 25  1  0
 15 26  1  0
 16 27  1  0
 19 28  1  0
M  ISO  8  21  13  22  13  23  13  24  14  25  14  26  14  27  14  28  14
M  END
>  <minimizedAffinity>  (1) 
-4.64827299

>  <minimizedRMSD>  (1) 
4.51933336

$$$$
