
     RDKit          3D

 35 37  0  0  1  0  0  0  0  0999 V2000
   46.0230   33.5740   41.2670 C   0  0  2  0  0  0  0  0  0  0  0  0
   45.6130   32.1940   41.7180 C   0  0  0  0  0  0  0  0  0  0  0  0
   46.8510   32.3960   40.9690 C   0  0  1  0  0  0  0  0  0  0  0  0
   47.1260   32.4050   39.5510 N   0  0  0  0  0  0  0  0  0  0  0  0
   47.8400   33.3260   38.8810 C   0  0  0  0  0  0  0  0  0  0  0  0
   47.9870   33.1550   37.5290 C   0  0  0  0  0  0  0  0  0  0  0  0
   48.7730   34.1650   36.7780 C   0  0  0  0  0  0  0  0  0  0  0  0
   47.4350   32.0880   36.8620 C   0  0  0  0  0  0  0  0  0  0  0  0
   47.5750   31.9390   35.6230 O   0  0  0  0  0  0  0  0  0  0  0  0
   46.7220   31.1810   37.5820 N   0  0  0  0  0  0  0  0  0  0  0  0
   46.5830   31.3600   38.9100 C   0  0  0  0  0  0  0  0  0  0  0  0
   45.8990   30.4470   39.4530 O   0  0  0  0  0  0  0  0  0  0  0  0
   48.0370   31.9360   41.7450 C   0  0  0  0  0  0  0  0  0  0  0  0
   47.8250   31.7020   43.1000 F   0  0  0  0  0  0  0  0  0  0  0  0
   48.4040   30.6780   41.2570 F   0  0  0  0  0  0  0  0  0  0  0  0
   49.2050   32.6640   41.5430 F   0  0  0  0  0  0  0  0  0  0  0  0
   46.5180   34.5780   42.2220 C   0  0  0  0  0  0  0  0  0  0  0  0
   47.5440   35.1800   41.8520 O   0  0  0  0  0  0  0  0  0  0  0  0
   44.4280   36.0050   44.9220 C   0  0  0  0  0  0  0  0  0  0  0  0
   45.0410   35.8740   43.6180 C   0  0  0  0  0  0  0  0  0  0  0  0
   45.8470   34.8030   43.4650 C   0  0  0  0  0  0  0  0  0  0  0  0
   46.0180   33.9460   44.5200 N   0  0  0  0  0  0  0  0  0  0  0  0
   45.4410   34.0820   45.7230 C   0  0  0  0  0  0  0  0  0  0  0  0
   44.6200   35.1370   45.9410 N   0  0  0  0  0  0  0  0  0  0  0  0
   45.5369   34.3744   40.6898 H   0  0  0  0  0  0  0  0  0  0  0  0
   45.6505   31.9282   42.7847 H   0  0  0  0  0  0  0  0  0  0  0  0
   44.7190   31.5650   41.5954 H   0  0  0  0  0  0  0  0  0  0  0  0
   48.2900   34.1858   39.3990 H   0  0  0  0  0  0  0  0  0  0  0  0
   49.2896   34.8288   37.4869 H   0  0  0  0  0  0  0  0  0  0  0  0
   49.5148   33.6559   36.1452 H   0  0  0  0  0  0  0  0  0  0  0  0
   48.0972   34.7591   36.1452 H   0  0  0  0  0  0  0  0  0  0  0  0
   46.2936   30.3674   37.1178 H   0  0  0  0  0  0  0  0  0  0  0  0
   43.7640   36.8647   45.0954 H   0  0  0  0  0  0  0  0  0  0  0  0
   44.8624   36.5968   42.8083 H   0  0  0  0  0  0  0  0  0  0  0  0
   45.6315   33.3483   46.5201 H   0  0  0  0  0  0  0  0  0  0  0  0
  1  2  1  0
  1 17  1  0
  3  1  1  0
  3  2  1  0
  3 13  1  1
  4  3  1  0
  5  4  1  0
  6  5  2  0
  7  6  1  0
  8  6  1  0
  8 10  1  0
  9  8  2  0
 10 11  1  0
 11 12  2  0
 11  4  1  0
 13 14  1  0
 15 13  1  0
 16 13  1  0
 17 21  1  0
 18 17  2  0
 19 24  2  0
 20 19  1  0
 21 20  2  0
 21 22  1  0
 22 23  2  0
 23 24  1  0
  1 25  1  6
  2 26  1  0
  2 27  1  0
  5 28  1  0
  7 29  1  0
  7 30  1  0
  7 31  1  0
 10 32  1  0
 19 33  1  0
 20 34  1  0
 23 35  1  0
M  ISO  8  25  13  26  13  27  13  28  14  29   8  30   8  31   8  32   9
M  ISO  3  33  14  34  14  35  14
M  END
>  <minimizedAffinity>  (1) 
-4.50325727

>  <minimizedRMSD>  (1) 
2.86407208

$$$$
