
     RDKit          3D

 30 32  0  0  1  0  0  0  0  0999 V2000
   43.7430   33.6820   42.2520 C   0  0  2  0  0  0  0  0  0  0  0  0
   44.0540   35.1460   42.4190 C   0  0  0  0  0  0  0  0  0  0  0  0
   45.0730   34.1340   42.6820 C   0  0  1  0  0  0  0  0  0  0  0  0
   45.4220   33.3870   43.9100 C   0  0  0  0  0  0  0  0  0  0  0  0
   45.6080   34.0830   45.0820 C   0  0  0  0  0  0  0  0  0  0  0  0
   45.9310   33.3050   46.1970 C   0  0  0  0  0  0  0  0  0  0  0  0
   46.0460   31.9670   46.1060 N   0  0  0  0  0  0  0  0  0  0  0  0
   45.8560   31.3160   44.9390 C   0  0  0  0  0  0  0  0  0  0  0  0
   45.5500   32.0520   43.8780 N   0  0  0  0  0  0  0  0  0  0  0  0
   46.2650   34.3210   41.8100 C   0  0  0  0  0  0  0  0  0  0  0  0
   46.0030   34.6880   40.4920 F   0  0  0  0  0  0  0  0  0  0  0  0
   46.9920   35.4050   42.3090 F   0  0  0  0  0  0  0  0  0  0  0  0
   47.2130   33.3050   41.8630 F   0  0  0  0  0  0  0  0  0  0  0  0
   43.5890   33.0690   40.9220 C   0  0  0  0  0  0  0  0  0  0  0  0
   44.3520   32.1070   40.7020 O   0  0  0  0  0  0  0  0  0  0  0  0
   40.5710   33.5570   38.8360 C   0  0  0  0  0  0  0  0  0  0  0  0
   41.4510   32.9500   39.8090 C   0  0  0  0  0  0  0  0  0  0  0  0
   42.6290   33.5790   39.9910 C   0  0  0  0  0  0  0  0  0  0  0  0
   42.8970   34.7110   39.2640 N   0  0  0  0  0  0  0  0  0  0  0  0
   42.0650   35.2580   38.3650 C   0  0  0  0  0  0  0  0  0  0  0  0
   40.8660   34.6700   38.1390 N   0  0  0  0  0  0  0  0  0  0  0  0
   42.9615   33.0120   42.6396 H   0  0  0  0  0  0  0  0  0  0  0  0
   44.1374   35.7966   41.5360 H   0  0  0  0  0  0  0  0  0  0  0  0
   43.6142   35.9785   42.9877 H   0  0  0  0  0  0  0  0  0  0  0  0
   45.5092   35.1771   45.1376 H   0  0  0  0  0  0  0  0  0  0  0  0
   46.0944   33.7956   47.1679 H   0  0  0  0  0  0  0  0  0  0  0  0
   45.9507   30.2222   44.8703 H   0  0  0  0  0  0  0  0  0  0  0  0
   39.5975   33.0784   38.6534 H   0  0  0  0  0  0  0  0  0  0  0  0
   41.1784   32.0390   40.3619 H   0  0  0  0  0  0  0  0  0  0  0  0
   42.3520   36.1695   37.8201 H   0  0  0  0  0  0  0  0  0  0  0  0
  1  2  1  0
  1  3  1  0
  2  3  1  0
  3 10  1  6
  3  4  1  0
  4  5  2  0
  5  6  1  0
  7  6  2  0
  8  7  1  0
  9  4  1  0
  9  8  2  0
 10 13  1  0
 10 12  1  0
 11 10  1  0
 14  1  1  0
 15 14  2  0
 16 17  2  0
 17 18  1  0
 18 14  1  0
 19 18  2  0
 20 19  1  0
 21 20  2  0
 21 16  1  0
  1 22  1  1
  2 23  1  0
  2 24  1  0
  5 25  1  0
  6 26  1  0
  8 27  1  0
 16 28  1  0
 17 29  1  0
 20 30  1  0
M  ISO  8  22  13  23  13  24  13  25  14  26  14  27  14  28  14  29  14
M  ISO  1  30  14
M  END
>  <minimizedAffinity>  (1) 
-4.43750715

>  <minimizedRMSD>  (1) 
6.27108383

$$$$
