
     RDKit          3D

 23 24  0  0  1  0  0  0  0  0999 V2000
   45.9410   33.8390   41.3530 C   0  0  2  0  0  0  0  0  0  0  0  0
   46.5950   32.4970   41.1600 C   0  0  0  0  0  0  0  0  0  0  0  0
   46.8310   33.5790   40.2080 C   0  0  2  0  0  0  0  0  0  0  0  0
   48.2760   33.9270   40.1230 C   0  0  0  0  0  0  0  0  0  0  0  0
   49.0690   33.4930   41.1810 F   0  0  0  0  0  0  0  0  0  0  0  0
   48.8100   33.2460   39.0230 F   0  0  0  0  0  0  0  0  0  0  0  0
   48.5600   35.2500   39.8010 F   0  0  0  0  0  0  0  0  0  0  0  0
   46.3820   34.7670   42.4070 C   0  0  0  0  0  0  0  0  0  0  0  0
   47.2070   35.6200   42.0340 O   0  0  0  0  0  0  0  0  0  0  0  0
   44.5320   35.3140   45.5610 C   0  0  0  0  0  0  0  0  0  0  0  0
   44.9590   35.5260   44.2040 C   0  0  0  0  0  0  0  0  0  0  0  0
   45.8740   34.6470   43.7430 C   0  0  0  0  0  0  0  0  0  0  0  0
   46.3170   33.6470   44.5690 N   0  0  0  0  0  0  0  0  0  0  0  0
   45.9030   33.4700   45.8360 C   0  0  0  0  0  0  0  0  0  0  0  0
   44.9860   34.3220   46.3540 N   0  0  0  0  0  0  0  0  0  0  0  0
   46.1500   33.9690   39.0610 O   0  0  0  0  0  0  0  0  0  0  0  0
   44.9048   34.1778   41.4996 H   0  0  0  0  0  0  0  0  0  0  0  0
   47.3993   32.1733   41.8370 H   0  0  0  0  0  0  0  0  0  0  0  0
   46.2393   31.4585   41.0887 H   0  0  0  0  0  0  0  0  0  0  0  0
   43.7864   36.0062   45.9794 H   0  0  0  0  0  0  0  0  0  0  0  0
   44.5674   36.3468   43.5852 H   0  0  0  0  0  0  0  0  0  0  0  0
   46.3033   32.6449   46.4434 H   0  0  0  0  0  0  0  0  0  0  0  0
   45.3198   34.4444   39.3157 H   0  0  0  0  0  0  0  0  0  0  0  0
  1  8  1  0
  2  1  1  0
  3 16  1  6
  3  2  1  0
  3  1  1  0
  4  3  1  0
  4  5  1  0
  6  4  1  0
  7  4  1  0
  8 12  1  0
  9  8  2  0
 10 15  2  0
 11 10  1  0
 12 11  2  0
 12 13  1  0
 13 14  2  0
 14 15  1  0
  1 17  1  6
  2 18  1  0
  2 19  1  0
 10 20  1  0
 11 21  1  0
 14 22  1  0
 16 23  1  0
M  ISO  7  17  13  18  13  19  13  20  14  21  14  22  14  23   3
M  END
>  <minimizedAffinity>  (1) 
-4.39040279

>  <minimizedRMSD>  (1) 
0.41926977

$$$$
