
     RDKit          3D

 29 31  0  0  1  0  0  0  0  0999 V2000
   43.9860   33.5370   42.0100 C   0  0  2  0  0  0  0  0  0  0  0  0
   44.2910   32.3070   41.1930 C   0  0  0  0  0  0  0  0  0  0  0  0
   43.1980   33.2030   40.8160 C   0  0  1  0  0  0  0  0  0  0  0  0
   41.8010   33.2400   41.1930 N   0  0  0  0  0  0  0  0  0  0  0  0
   41.2620   34.4650   41.3590 C   0  0  0  0  0  0  0  0  0  0  0  0
   39.9280   34.2560   41.7140 C   0  0  0  0  0  0  0  0  0  0  0  0
   39.7450   32.9260   41.7400 N   0  0  0  0  0  0  0  0  0  0  0  0
   40.8830   32.2820   41.4220 C   0  0  0  0  0  0  0  0  0  0  0  0
   43.3940   33.7550   39.4460 C   0  0  0  0  0  0  0  0  0  0  0  0
   44.6240   33.4810   38.8520 F   0  0  0  0  0  0  0  0  0  0  0  0
   42.4800   33.1230   38.5990 F   0  0  0  0  0  0  0  0  0  0  0  0
   43.0500   35.0910   39.2820 F   0  0  0  0  0  0  0  0  0  0  0  0
   44.8620   34.7180   41.9850 C   0  0  0  0  0  0  0  0  0  0  0  0
   44.2580   35.8120   42.0130 O   0  0  0  0  0  0  0  0  0  0  0  0
   48.4300   34.3360   42.8690 C   0  0  0  0  0  0  0  0  0  0  0  0
   47.0040   34.4600   43.0590 C   0  0  0  0  0  0  0  0  0  0  0  0
   46.2840   34.5720   41.9250 C   0  0  0  0  0  0  0  0  0  0  0  0
   46.9320   34.5590   40.7160 N   0  0  0  0  0  0  0  0  0  0  0  0
   48.2600   34.4430   40.5660 C   0  0  0  0  0  0  0  0  0  0  0  0
   49.0420   34.3270   41.6670 N   0  0  0  0  0  0  0  0  0  0  0  0
   43.7829   33.7234   43.0749 H   0  0  0  0  0  0  0  0  0  0  0  0
   45.2044   32.2628   40.5817 H   0  0  0  0  0  0  0  0  0  0  0  0
   44.3833   31.2313   41.4035 H   0  0  0  0  0  0  0  0  0  0  0  0
   41.7705   35.4330   41.2390 H   0  0  0  0  0  0  0  0  0  0  0  0
   39.1753   35.0286   41.9298 H   0  0  0  0  0  0  0  0  0  0  0  0
   41.0328   31.1939   41.3614 H   0  0  0  0  0  0  0  0  0  0  0  0
   49.0603   34.2425   43.7657 H   0  0  0  0  0  0  0  0  0  0  0  0
   46.5393   34.4629   44.0560 H   0  0  0  0  0  0  0  0  0  0  0  0
   48.7088   34.4420   39.5617 H   0  0  0  0  0  0  0  0  0  0  0  0
  2  1  1  0
  3  9  1  6
  3  4  1  0
  3  2  1  0
  3  1  1  0
  4  5  1  0
  4  8  1  0
  5  6  2  0
  6  7  1  0
  8  7  2  0
 10  9  1  0
 11  9  1  0
 12  9  1  0
 13  1  1  0
 13 14  2  0
 15 16  2  0
 17 13  1  0
 17 16  1  0
 18 17  2  0
 19 18  1  0
 19 20  2  0
 20 15  1  0
  1 21  1  1
  2 22  1  0
  2 23  1  0
  5 24  1  0
  6 25  1  0
  8 26  1  0
 15 27  1  0
 16 28  1  0
 19 29  1  0
M  ISO  8  21  13  22  13  23  13  24  14  25  14  26  14  27  14  28  14
M  ISO  1  29  14
M  END
>  <minimizedAffinity>  (1) 
-4.33324051

>  <minimizedRMSD>  (1) 
4.83166552

$$$$
