
     RDKit          3D

 28 30  0  0  1  0  0  0  0  0999 V2000
   43.8900   32.8360   40.7950 C   0  0  2  0  0  0  0  0  0  0  0  0
   43.8960   33.6580   39.5310 C   0  0  0  0  0  0  0  0  0  0  0  0
   42.8030   33.7800   40.4970 C   0  0  1  0  0  0  0  0  0  0  0  0
   41.5550   33.0620   40.6390 N   0  0  0  0  0  0  0  0  0  0  0  0
   40.7280   32.8760   39.5710 C   0  0  0  0  0  0  0  0  0  0  0  0
   39.6320   32.1820   39.9320 N   0  0  0  0  0  0  0  0  0  0  0  0
   39.7850   31.9330   41.2530 C   0  0  0  0  0  0  0  0  0  0  0  0
   40.9320   32.4600   41.6670 N   0  0  0  0  0  0  0  0  0  0  0  0
   42.6810   35.1730   41.0090 C   0  0  0  0  0  0  0  0  0  0  0  0
   43.8150   35.9710   40.8740 F   0  0  0  0  0  0  0  0  0  0  0  0
   41.7320   35.8330   40.2210 F   0  0  0  0  0  0  0  0  0  0  0  0
   42.1310   35.2990   42.2780 F   0  0  0  0  0  0  0  0  0  0  0  0
   44.8070   33.1290   41.9090 C   0  0  0  0  0  0  0  0  0  0  0  0
   44.3030   33.0150   43.0380 O   0  0  0  0  0  0  0  0  0  0  0  0
   48.3590   33.1360   40.8900 C   0  0  0  0  0  0  0  0  0  0  0  0
   47.0250   32.6470   41.0890 C   0  0  0  0  0  0  0  0  0  0  0  0
   46.1610   33.5150   41.6570 C   0  0  0  0  0  0  0  0  0  0  0  0
   46.6090   34.7660   41.9910 N   0  0  0  0  0  0  0  0  0  0  0  0
   47.8620   35.2060   41.7970 C   0  0  0  0  0  0  0  0  0  0  0  0
   48.7720   34.3790   41.2320 N   0  0  0  0  0  0  0  0  0  0  0  0
   43.9772   31.7618   41.0154 H   0  0  0  0  0  0  0  0  0  0  0  0
   43.7214   33.1755   38.5580 H   0  0  0  0  0  0  0  0  0  0  0  0
   44.6008   34.3559   39.0554 H   0  0  0  0  0  0  0  0  0  0  0  0
   40.9287   33.2428   38.5536 H   0  0  0  0  0  0  0  0  0  0  0  0
   39.0726   31.3816   41.8842 H   0  0  0  0  0  0  0  0  0  0  0  0
   49.0929   32.4578   40.4303 H   0  0  0  0  0  0  0  0  0  0  0  0
   46.7253   31.6296   40.7973 H   0  0  0  0  0  0  0  0  0  0  0  0
   48.1458   36.2265   42.0937 H   0  0  0  0  0  0  0  0  0  0  0  0
  1 13  1  0
  2  3  1  0
  2  1  1  0
  3  4  1  0
  3  1  1  0
  3  9  1  1
  4  8  1  0
  5  6  2  0
  5  4  1  0
  6  7  1  0
  7  8  2  0
  9 12  1  0
 10  9  1  0
 11  9  1  0
 13 14  2  0
 15 16  2  0
 15 20  1  0
 16 17  1  0
 17 13  1  0
 17 18  2  0
 19 18  1  0
 20 19  2  0
  1 21  1  6
  2 22  1  0
  2 23  1  0
  5 24  1  0
  7 25  1  0
 15 26  1  0
 16 27  1  0
 19 28  1  0
M  ISO  8  21  13  22  13  23  13  24  14  25  14  26  14  27  14  28  14
M  END
>  <minimizedAffinity>  (1) 
-3.92741394

>  <minimizedRMSD>  (1) 
5.37236261

$$$$
