
     RDKit          3D

 35 36  0  0  1  0  0  0  0  0999 V2000
   47.0570   33.2250   41.7170 C   0  0  2  0  0  0  0  0  0  0  0  0
   48.2440   33.2360   42.5970 C   0  0  0  0  0  0  0  0  0  0  0  0
   48.3610   33.8260   41.2850 C   0  0  2  0  0  0  0  0  0  0  0  0
   48.6870   35.2660   41.2960 C   0  0  0  0  0  0  0  0  0  0  0  0
   47.9190   36.0630   42.1150 F   0  0  0  0  0  0  0  0  0  0  0  0
   49.9740   35.3810   41.8470 F   0  0  0  0  0  0  0  0  0  0  0  0
   48.8700   35.8510   40.0440 F   0  0  0  0  0  0  0  0  0  0  0  0
   48.7190   33.1830   39.9840 C   0  0  0  0  0  0  0  0  0  0  0  0
   49.5130   31.9410   40.0440 C   0  0  0  0  0  0  0  0  0  0  0  0
   50.8810   32.0900   40.4720 N   0  0  0  0  0  0  0  0  0  0  0  0
   52.1780   31.6290   40.1600 C   0  0  0  0  0  0  0  0  0  0  0  0
   52.2880   31.8360   38.8850 N   0  0  0  0  0  0  0  0  0  0  0  0
   53.0750   31.0860   41.1170 N   0  0  0  0  0  0  0  0  0  0  0  0
   53.1060   31.6150   38.3260 H   0  0  0  0  0  0  0  0  0  0  0  0
   45.9040   34.1050   41.8960 C   0  0  0  0  0  0  0  0  0  0  0  0
   45.3460   34.4420   40.8500 O   0  0  0  0  0  0  0  0  0  0  0  0
   45.2090   34.1130   45.5370 C   0  0  0  0  0  0  0  0  0  0  0  0
   45.6700   33.6400   44.2560 C   0  0  0  0  0  0  0  0  0  0  0  0
   45.4930   34.5050   43.2150 C   0  0  0  0  0  0  0  0  0  0  0  0
   44.9160   35.7120   43.4450 N   0  0  0  0  0  0  0  0  0  0  0  0
   44.4940   36.1350   44.6480 C   0  0  0  0  0  0  0  0  0  0  0  0
   44.6390   35.3200   45.7330 N   0  0  0  0  0  0  0  0  0  0  0  0
   46.3672   32.4366   41.3815 H   0  0  0  0  0  0  0  0  0  0  0  0
   48.2561   33.8812   43.4878 H   0  0  0  0  0  0  0  0  0  0  0  0
   48.8022   32.4607   43.1422 H   0  0  0  0  0  0  0  0  0  0  0  0
   47.7802   32.9511   39.4596 H   0  0  0  0  0  0  0  0  0  0  0  0
   49.3681   33.9113   39.4758 H   0  0  0  0  0  0  0  0  0  0  0  0
   49.0135   31.2548   40.7438 H   0  0  0  0  0  0  0  0  0  0  0  0
   49.5628   31.5686   39.0101 H   0  0  0  0  0  0  0  0  0  0  0  0
   50.9273   32.7472   41.2637 H   0  0  0  0  0  0  0  0  0  0  0  0
   54.0095   30.7669   40.8240 H   0  0  0  0  0  0  0  0  0  0  0  0
   52.7914   31.0111   42.1043 H   0  0  0  0  0  0  0  0  0  0  0  0
   45.3291   33.4504   46.4068 H   0  0  0  0  0  0  0  0  0  0  0  0
   46.1325   32.6504   44.1262 H   0  0  0  0  0  0  0  0  0  0  0  0
   44.0358   37.1290   44.7576 H   0  0  0  0  0  0  0  0  0  0  0  0
  1 15  1  0
  1  2  1  0
  3  8  1  6
  3  4  1  0
  3  1  1  0
  3  2  1  0
  4  6  1  0
  4  5  1  0
  7  4  1  0
  8  9  1  0
  9 10  1  0
 11 10  1  0
 11 13  1  0
 12 11  2  0
 14 12  1  0
 15 19  1  0
 16 15  2  0
 17 22  2  0
 18 17  1  0
 19 20  1  0
 19 18  2  0
 20 21  2  0
 21 22  1  0
  1 23  1  6
  2 24  1  0
  2 25  1  0
  8 26  1  0
  8 27  1  0
  9 28  1  0
  9 29  1  0
 10 30  1  0
 13 31  1  0
 13 32  1  0
 17 33  1  0
 18 34  1  0
 21 35  1  0
M  ISO  8  23  13  24  13  25  13  26   8  27   8  28   8  29   8  33  14
M  ISO  2  34  14  35  14
M  END
>  <minimizedAffinity>  (1) 
-5.68049669

>  <minimizedRMSD>  (1) 
0.57382822

$$$$
