
     RDKit          3D

 39 42  0  0  1  0  0  0  0  0999 V2000
   47.4930   33.0490   42.3860 C   0  0  2  0  0  0  0  0  0  0  0  0
   48.6210   33.5530   43.1850 C   0  0  0  0  0  0  0  0  0  0  0  0
   48.6330   33.7960   41.7620 C   0  0  2  0  0  0  0  0  0  0  0  0
   48.6250   35.2240   41.3900 C   0  0  0  0  0  0  0  0  0  0  0  0
   47.7520   36.0330   42.0820 F   0  0  0  0  0  0  0  0  0  0  0  0
   49.8880   35.7340   41.7390 F   0  0  0  0  0  0  0  0  0  0  0  0
   48.5880   35.4880   40.0240 F   0  0  0  0  0  0  0  0  0  0  0  0
   49.1550   32.9390   40.6510 C   0  0  0  0  0  0  0  0  0  0  0  0
   50.2580   32.0080   40.9920 C   0  0  0  0  0  0  0  0  0  0  0  0
   51.1410   31.6430   39.9170 N   0  0  0  0  0  0  0  0  0  0  0  0
   52.4580   31.4980   40.3050 C   0  0  0  0  0  0  0  0  0  0  0  0
   53.2880   31.1300   39.2950 N   0  0  0  0  0  0  0  0  0  0  0  0
   52.5260   31.0240   38.2110 C   0  0  0  0  0  0  0  0  0  0  0  0
   52.6450   30.7160   36.8730 C   0  0  0  0  0  0  0  0  0  0  0  0
   51.5890   30.7180   36.0110 N   0  0  0  0  0  0  0  0  0  0  0  0
   50.3760   31.0390   36.5030 C   0  0  0  0  0  0  0  0  0  0  0  0
   50.2300   31.3420   37.7920 N   0  0  0  0  0  0  0  0  0  0  0  0
   51.2600   31.3400   38.6320 C   0  0  0  0  0  0  0  0  0  0  0  0
   46.1650   33.6610   42.3710 C   0  0  0  0  0  0  0  0  0  0  0  0
   45.5860   33.6100   41.2830 O   0  0  0  0  0  0  0  0  0  0  0  0
   45.0990   34.2180   45.8720 C   0  0  0  0  0  0  0  0  0  0  0  0
   45.6890   33.5660   44.7410 C   0  0  0  0  0  0  0  0  0  0  0  0
   45.6210   34.2510   43.5640 C   0  0  0  0  0  0  0  0  0  0  0  0
   45.0190   35.4670   43.5360 N   0  0  0  0  0  0  0  0  0  0  0  0
   44.4680   36.0650   44.6100 C   0  0  0  0  0  0  0  0  0  0  0  0
   44.5030   35.4320   45.8190 N   0  0  0  0  0  0  0  0  0  0  0  0
   47.0094   32.0652   42.2950 H   0  0  0  0  0  0  0  0  0  0  0  0
   48.4649   34.3916   43.8795 H   0  0  0  0  0  0  0  0  0  0  0  0
   49.3281   33.0911   43.8898 H   0  0  0  0  0  0  0  0  0  0  0  0
   48.3160   32.3374   40.2713 H   0  0  0  0  0  0  0  0  0  0  0  0
   49.5836   33.6409   39.9204 H   0  0  0  0  0  0  0  0  0  0  0  0
   50.8650   32.4815   41.7778 H   0  0  0  0  0  0  0  0  0  0  0  0
   49.7671   31.0724   41.2979 H   0  0  0  0  0  0  0  0  0  0  0  0
   52.8029   31.6650   41.3361 H   0  0  0  0  0  0  0  0  0  0  0  0
   53.6397   30.4561   36.4819 H   0  0  0  0  0  0  0  0  0  0  0  0
   49.5013   31.0509   35.8362 H   0  0  0  0  0  0  0  0  0  0  0  0
   45.1324   33.7007   46.8422 H   0  0  0  0  0  0  0  0  0  0  0  0
   46.1656   32.5776   44.8171 H   0  0  0  0  0  0  0  0  0  0  0  0
   43.9947   37.0533   44.5138 H   0  0  0  0  0  0  0  0  0  0  0  0
  1  2  1  0
  3  8  1  6
  3  1  1  0
  3  2  1  0
  4  6  1  0
  4  3  1  0
  4  5  1  0
  7  4  1  0
  8  9  1  0
 10 11  1  0
 10  9  1  0
 12 11  2  0
 13 18  2  0
 13 12  1  0
 14 13  1  0
 15 16  1  0
 15 14  2  0
 16 17  2  0
 17 18  1  0
 18 10  1  0
 19  1  1  0
 19 23  1  0
 20 19  2  0
 22 21  2  0
 23 22  1  0
 24 23  2  0
 24 25  1  0
 25 26  2  0
 26 21  1  0
  1 27  1  6
  2 28  1  0
  2 29  1  0
  8 30  1  0
  8 31  1  0
  9 32  1  0
  9 33  1  0
 11 34  1  0
 14 35  1  0
 16 36  1  0
 21 37  1  0
 22 38  1  0
 25 39  1  0
M  ISO  8  27  13  28  13  29  13  30   8  31   8  32   8  33   8  34  14
M  ISO  5  35  14  36  14  37  14  38  14  39  14
M  END
>  <minimizedAffinity>  (1) 
-5.5722394

>  <minimizedRMSD>  (1) 
2.62802768

$$$$
