
     RDKit          3D

 37 39  0  0  1  0  0  0  0  0999 V2000
   47.0350   33.2240   41.7210 C   0  0  2  0  0  0  0  0  0  0  0  0
   48.2310   33.2300   42.5790 C   0  0  0  0  0  0  0  0  0  0  0  0
   48.3360   33.8160   41.2650 C   0  0  2  0  0  0  0  0  0  0  0  0
   48.6710   35.2540   41.2720 C   0  0  0  0  0  0  0  0  0  0  0  0
   47.9120   36.0580   42.0920 F   0  0  0  0  0  0  0  0  0  0  0  0
   49.9610   35.3650   41.8170 F   0  0  0  0  0  0  0  0  0  0  0  0
   48.8520   35.8310   40.0160 F   0  0  0  0  0  0  0  0  0  0  0  0
   48.6740   33.1650   39.9600 C   0  0  0  0  0  0  0  0  0  0  0  0
   49.1900   31.7760   40.0320 C   0  0  0  0  0  0  0  0  0  0  0  0
   50.6440   31.6250   39.7820 C   0  0  0  0  0  0  0  0  0  0  0  0
   51.7660   31.4310   40.5430 C   0  0  0  0  0  0  0  0  0  0  0  0
   53.0410   31.3080   40.0550 C   0  0  0  0  0  0  0  0  0  0  0  0
   53.2820   31.3750   38.7010 C   0  0  0  0  0  0  0  0  0  0  0  0
   52.1580   31.5680   37.9340 C   0  0  0  0  0  0  0  0  0  0  0  0
   50.9210   31.6850   38.4410 N   0  0  0  0  0  0  0  0  0  0  0  0
   45.8880   34.1100   41.9020 C   0  0  0  0  0  0  0  0  0  0  0  0
   45.3280   34.4540   40.8590 O   0  0  0  0  0  0  0  0  0  0  0  0
   45.2030   34.1110   45.5450 C   0  0  0  0  0  0  0  0  0  0  0  0
   45.6570   33.6410   44.2620 C   0  0  0  0  0  0  0  0  0  0  0  0
   45.4830   34.5080   43.2230 C   0  0  0  0  0  0  0  0  0  0  0  0
   44.9140   35.7180   43.4570 N   0  0  0  0  0  0  0  0  0  0  0  0
   44.4970   36.1400   44.6620 C   0  0  0  0  0  0  0  0  0  0  0  0
   44.6390   35.3230   45.7470 N   0  0  0  0  0  0  0  0  0  0  0  0
   46.3346   32.4367   41.4055 H   0  0  0  0  0  0  0  0  0  0  0  0
   48.2602   33.8774   43.4678 H   0  0  0  0  0  0  0  0  0  0  0  0
   48.7913   32.4517   43.1178 H   0  0  0  0  0  0  0  0  0  0  0  0
   47.7615   33.1520   39.3458 H   0  0  0  0  0  0  0  0  0  0  0  0
   49.4966   33.7618   39.5392 H   0  0  0  0  0  0  0  0  0  0  0  0
   48.9761   31.3860   41.0381 H   0  0  0  0  0  0  0  0  0  0  0  0
   48.6844   31.2222   39.2272 H   0  0  0  0  0  0  0  0  0  0  0  0
   51.6334   31.3689   41.6332 H   0  0  0  0  0  0  0  0  0  0  0  0
   53.8788   31.1545   40.7510 H   0  0  0  0  0  0  0  0  0  0  0  0
   54.2895   31.2819   38.2694 H   0  0  0  0  0  0  0  0  0  0  0  0
   52.2792   31.6301   36.8425 H   0  0  0  0  0  0  0  0  0  0  0  0
   45.3221   33.4446   46.4120 H   0  0  0  0  0  0  0  0  0  0  0  0
   46.1136   32.6492   44.1284 H   0  0  0  0  0  0  0  0  0  0  0  0
   44.0445   37.1363   44.7741 H   0  0  0  0  0  0  0  0  0  0  0  0
  1 16  1  0
  1  2  1  0
  3  8  1  6
  3  4  1  0
  3  1  1  0
  3  2  1  0
  4  6  1  0
  4  5  1  0
  7  4  1  0
  8  9  1  0
 10  9  1  0
 10 11  2  0
 12 11  1  0
 13 12  2  0
 14 15  2  0
 14 13  1  0
 15 10  1  0
 16 20  1  0
 17 16  2  0
 18 23  2  0
 19 18  1  0
 20 21  1  0
 20 19  2  0
 21 22  2  0
 22 23  1  0
  1 24  1  6
  2 25  1  0
  2 26  1  0
  8 27  1  0
  8 28  1  0
  9 29  1  0
  9 30  1  0
 11 31  1  0
 12 32  1  0
 13 33  1  0
 14 34  1  0
 18 35  1  0
 19 36  1  0
 22 37  1  0
M  ISO  8  24  13  25  13  26  13  27   8  28   8  29   8  30   8  31  14
M  ISO  6  32  14  33  14  34  14  35  14  36  14  37  14
M  END
>  <minimizedAffinity>  (1) 
-5.53020525

>  <minimizedRMSD>  (1) 
1.53081191

$$$$
