
     RDKit          3D

 38 40  0  0  1  0  0  0  0  0999 V2000
   47.0560   33.1890   41.7730 C   0  0  2  0  0  0  0  0  0  0  0  0
   48.2500   33.2300   42.6350 C   0  0  0  0  0  0  0  0  0  0  0  0
   48.3500   33.7800   41.3030 C   0  0  2  0  0  0  0  0  0  0  0  0
   48.6720   35.2210   41.2640 C   0  0  0  0  0  0  0  0  0  0  0  0
   47.9180   36.0400   42.0750 F   0  0  0  0  0  0  0  0  0  0  0  0
   49.9690   35.3540   41.7900 F   0  0  0  0  0  0  0  0  0  0  0  0
   48.8310   35.7660   39.9940 F   0  0  0  0  0  0  0  0  0  0  0  0
   48.7030   33.1040   40.0130 C   0  0  0  0  0  0  0  0  0  0  0  0
   49.3820   31.7970   40.1140 C   0  0  0  0  0  0  0  0  0  0  0  0
   50.6680   31.6570   39.4160 C   0  0  0  0  0  0  0  0  0  0  0  0
   51.6700   31.4590   40.3830 C   0  0  0  0  0  0  0  0  0  0  0  0
   53.0140   31.3020   40.0700 C   0  0  0  0  0  0  0  0  0  0  0  0
   53.4280   31.3340   38.7560 C   0  0  0  0  0  0  0  0  0  0  0  0
   52.4680   31.5260   37.7920 C   0  0  0  0  0  0  0  0  0  0  0  0
   51.1460   31.6790   38.1310 C   0  0  0  0  0  0  0  0  0  0  0  0
   45.9000   34.0720   41.9310 C   0  0  0  0  0  0  0  0  0  0  0  0
   45.3430   34.3910   40.8780 O   0  0  0  0  0  0  0  0  0  0  0  0
   45.1860   34.1410   45.5660 C   0  0  0  0  0  0  0  0  0  0  0  0
   45.6490   33.6460   44.2970 C   0  0  0  0  0  0  0  0  0  0  0  0
   45.4870   34.4950   43.2410 C   0  0  0  0  0  0  0  0  0  0  0  0
   44.9170   35.7100   43.4480 N   0  0  0  0  0  0  0  0  0  0  0  0
   44.4900   36.1540   44.6420 C   0  0  0  0  0  0  0  0  0  0  0  0
   44.6210   35.3580   45.7410 N   0  0  0  0  0  0  0  0  0  0  0  0
   46.3645   32.3867   41.4763 H   0  0  0  0  0  0  0  0  0  0  0  0
   48.2711   33.9024   43.5053 H   0  0  0  0  0  0  0  0  0  0  0  0
   48.8168   32.4731   43.1970 H   0  0  0  0  0  0  0  0  0  0  0  0
   47.7703   32.9525   39.4498 H   0  0  0  0  0  0  0  0  0  0  0  0
   49.4300   33.7709   39.5265 H   0  0  0  0  0  0  0  0  0  0  0  0
   49.5602   31.5973   41.1809 H   0  0  0  0  0  0  0  0  0  0  0  0
   48.7075   31.0856   39.6151 H   0  0  0  0  0  0  0  0  0  0  0  0
   51.3739   31.4268   41.4419 H   0  0  0  0  0  0  0  0  0  0  0  0
   53.7502   31.1517   40.8734 H   0  0  0  0  0  0  0  0  0  0  0  0
   54.4879   31.2104   38.4888 H   0  0  0  0  0  0  0  0  0  0  0  0
   52.7628   31.5576   36.7327 H   0  0  0  0  0  0  0  0  0  0  0  0
   50.4218   31.8293   37.3168 H   0  0  0  0  0  0  0  0  0  0  0  0
   45.2980   33.4914   46.4466 H   0  0  0  0  0  0  0  0  0  0  0  0
   46.1030   32.6503   44.1855 H   0  0  0  0  0  0  0  0  0  0  0  0
   44.0379   37.1527   44.7322 H   0  0  0  0  0  0  0  0  0  0  0  0
  1 16  1  0
  1  2  1  0
  3  8  1  6
  3  1  1  0
  3  2  1  0
  4  3  1  0
  4  6  1  0
  4  5  1  0
  7  4  1  0
  8  9  1  0
 10  9  1  0
 10 11  2  0
 12 11  1  0
 13 12  2  0
 14 15  2  0
 14 13  1  0
 15 10  1  0
 16 20  1  0
 17 16  2  0
 18 23  2  0
 19 18  1  0
 20 21  1  0
 20 19  2  0
 21 22  2  0
 22 23  1  0
  1 24  1  6
  2 25  1  0
  2 26  1  0
  8 27  1  0
  8 28  1  0
  9 29  1  0
  9 30  1  0
 11 31  1  0
 12 32  1  0
 13 33  1  0
 14 34  1  0
 15 35  1  0
 18 36  1  0
 19 37  1  0
 22 38  1  0
M  ISO  8  24  13  25  13  26  13  27   8  28   8  29   8  30   8  31  14
M  ISO  7  32  14  33  14  34  14  35  14  36  14  37  14  38  14
M  END
>  <minimizedAffinity>  (1) 
-5.51776314

>  <minimizedRMSD>  (1) 
1.77976155

$$$$
