
     RDKit          3D

 35 37  0  0  1  0  0  0  0  0999 V2000
   47.0190   33.2520   41.7310 C   0  0  2  0  0  0  0  0  0  0  0  0
   48.2230   33.2400   42.5750 C   0  0  0  0  0  0  0  0  0  0  0  0
   48.3160   33.8460   41.2670 C   0  0  2  0  0  0  0  0  0  0  0  0
   48.6650   35.2800   41.2890 C   0  0  0  0  0  0  0  0  0  0  0  0
   47.9040   36.0840   42.1070 F   0  0  0  0  0  0  0  0  0  0  0  0
   49.9520   35.3750   41.8460 F   0  0  0  0  0  0  0  0  0  0  0  0
   48.8610   35.8640   40.0400 F   0  0  0  0  0  0  0  0  0  0  0  0
   48.6460   33.2280   39.9450 C   0  0  0  0  0  0  0  0  0  0  0  0
   49.1020   31.8110   39.9790 C   0  0  0  0  0  0  0  0  0  0  0  0
   50.5420   31.6640   39.9670 N   0  0  0  0  0  0  0  0  0  0  0  0
   51.1390   31.4770   38.7830 N   0  0  0  0  0  0  0  0  0  0  0  0
   52.4510   31.3460   38.8870 C   0  0  0  0  0  0  0  0  0  0  0  0
   52.7820   31.4490   40.2200 C   0  0  0  0  0  0  0  0  0  0  0  0
   51.5660   31.6430   40.8280 C   0  0  0  0  0  0  0  0  0  0  0  0
   45.8790   34.1480   41.9370 C   0  0  0  0  0  0  0  0  0  0  0  0
   45.3240   34.5250   40.9030 O   0  0  0  0  0  0  0  0  0  0  0  0
   45.2300   34.0750   45.5870 C   0  0  0  0  0  0  0  0  0  0  0  0
   45.6810   33.6360   44.2920 C   0  0  0  0  0  0  0  0  0  0  0  0
   45.4790   34.5150   43.2700 C   0  0  0  0  0  0  0  0  0  0  0  0
   44.8840   35.7070   43.5250 N   0  0  0  0  0  0  0  0  0  0  0  0
   44.4670   36.1000   44.7430 C   0  0  0  0  0  0  0  0  0  0  0  0
   44.6390   35.2700   45.8110 N   0  0  0  0  0  0  0  0  0  0  0  0
   46.3120   32.4711   41.4143 H   0  0  0  0  0  0  0  0  0  0  0  0
   48.2648   33.8738   43.4730 H   0  0  0  0  0  0  0  0  0  0  0  0
   48.7858   32.4514   43.0959 H   0  0  0  0  0  0  0  0  0  0  0  0
   47.7439   33.2756   39.3174 H   0  0  0  0  0  0  0  0  0  0  0  0
   49.4987   33.8031   39.5550 H   0  0  0  0  0  0  0  0  0  0  0  0
   48.7125   31.3424   40.8948 H   0  0  0  0  0  0  0  0  0  0  0  0
   48.7214   31.3282   39.0668 H   0  0  0  0  0  0  0  0  0  0  0  0
   53.1534   31.1836   38.0561 H   0  0  0  0  0  0  0  0  0  0  0  0
   53.7775   31.3902   40.6843 H   0  0  0  0  0  0  0  0  0  0  0  0
   51.4458   31.7686   41.9142 H   0  0  0  0  0  0  0  0  0  0  0  0
   45.3746   33.3994   46.4430 H   0  0  0  0  0  0  0  0  0  0  0  0
   46.1569   32.6564   44.1377 H   0  0  0  0  0  0  0  0  0  0  0  0
   43.9913   37.0829   44.8757 H   0  0  0  0  0  0  0  0  0  0  0  0
  1 15  1  0
  1  2  1  0
  3  8  1  6
  3  4  1  0
  3  1  1  0
  3  2  1  0
  4  6  1  0
  4  5  1  0
  7  4  1  0
  8  9  1  0
 10  9  1  0
 10 14  1  0
 11 12  2  0
 11 10  1  0
 12 13  1  0
 13 14  2  0
 15 19  1  0
 16 15  2  0
 17 22  2  0
 18 17  1  0
 19 20  1  0
 19 18  2  0
 20 21  2  0
 21 22  1  0
  1 23  1  6
  2 24  1  0
  2 25  1  0
  8 26  1  0
  8 27  1  0
  9 28  1  0
  9 29  1  0
 12 30  1  0
 13 31  1  0
 14 32  1  0
 17 33  1  0
 18 34  1  0
 21 35  1  0
M  ISO  8  23  13  24  13  25  13  26   8  27   8  28   8  29   8  30  14
M  ISO  5  31  14  32  14  33  14  34  14  35  14
M  END
>  <minimizedAffinity>  (1) 
-5.31525087

>  <minimizedRMSD>  (1) 
1.13370049

$$$$
