
     RDKit          3D

 35 37  0  0  1  0  0  0  0  0999 V2000
   47.0050   33.2500   41.7030 C   0  0  2  0  0  0  0  0  0  0  0  0
   48.2110   33.2200   42.5430 C   0  0  0  0  0  0  0  0  0  0  0  0
   48.3030   33.8420   41.2430 C   0  0  2  0  0  0  0  0  0  0  0  0
   48.6580   35.2730   41.2800 C   0  0  0  0  0  0  0  0  0  0  0  0
   47.9020   36.0730   42.1080 F   0  0  0  0  0  0  0  0  0  0  0  0
   49.9440   35.3560   41.8400 F   0  0  0  0  0  0  0  0  0  0  0  0
   48.8590   35.8690   40.0380 F   0  0  0  0  0  0  0  0  0  0  0  0
   48.6270   33.2260   39.9150 C   0  0  0  0  0  0  0  0  0  0  0  0
   49.0130   31.7940   39.9310 C   0  0  0  0  0  0  0  0  0  0  0  0
   50.4710   31.6520   39.9360 C   0  0  0  0  0  0  0  0  0  0  0  0
   51.5480   31.6380   40.7400 C   0  0  0  0  0  0  0  0  0  0  0  0
   52.8030   31.4510   40.2890 C   0  0  0  0  0  0  0  0  0  0  0  0
   52.9370   31.2690   38.9260 C   0  0  0  0  0  0  0  0  0  0  0  0
   51.1910   31.3780   38.3290 S   0  0  0  0  0  0  0  0  0  0  0  0
   45.8700   34.1490   41.9260 C   0  0  0  0  0  0  0  0  0  0  0  0
   45.3120   34.5410   40.9000 O   0  0  0  0  0  0  0  0  0  0  0  0
   45.2500   34.0450   45.5810 C   0  0  0  0  0  0  0  0  0  0  0  0
   45.6960   33.6160   44.2780 C   0  0  0  0  0  0  0  0  0  0  0  0
   45.4780   34.5020   43.2640 C   0  0  0  0  0  0  0  0  0  0  0  0
   44.8780   35.6880   43.5370 N   0  0  0  0  0  0  0  0  0  0  0  0
   44.4690   36.0680   44.7620 C   0  0  0  0  0  0  0  0  0  0  0  0
   44.6560   35.2290   45.8210 N   0  0  0  0  0  0  0  0  0  0  0  0
   46.2926   32.4777   41.3773 H   0  0  0  0  0  0  0  0  0  0  0  0
   48.2593   33.8419   43.4490 H   0  0  0  0  0  0  0  0  0  0  0  0
   48.7709   32.4216   43.0520 H   0  0  0  0  0  0  0  0  0  0  0  0
   47.7391   33.3265   39.2735 H   0  0  0  0  0  0  0  0  0  0  0  0
   49.5142   33.7646   39.5507 H   0  0  0  0  0  0  0  0  0  0  0  0
   48.6006   31.3187   40.8332 H   0  0  0  0  0  0  0  0  0  0  0  0
   48.6130   31.3093   39.0282 H   0  0  0  0  0  0  0  0  0  0  0  0
   51.3968   31.7866   41.8194 H   0  0  0  0  0  0  0  0  0  0  0  0
   53.6702   31.4436   40.9657 H   0  0  0  0  0  0  0  0  0  0  0  0
   53.8539   31.1011   38.3419 H   0  0  0  0  0  0  0  0  0  0  0  0
   45.4047   33.3632   46.4302 H   0  0  0  0  0  0  0  0  0  0  0  0
   46.1787   32.6414   44.1134 H   0  0  0  0  0  0  0  0  0  0  0  0
   43.9882   37.0466   44.9076 H   0  0  0  0  0  0  0  0  0  0  0  0
  1 15  1  0
  1  2  1  0
  3  8  1  6
  3  4  1  0
  3  1  1  0
  3  2  1  0
  4  6  1  0
  4  5  1  0
  7  4  1  0
  8  9  1  0
  9 10  1  0
 10 11  2  0
 12 11  1  0
 13 12  2  0
 14 13  1  0
 14 10  1  0
 15 19  1  0
 16 15  2  0
 17 22  2  0
 18 17  1  0
 19 20  1  0
 19 18  2  0
 20 21  2  0
 21 22  1  0
  1 23  1  6
  2 24  1  0
  2 25  1  0
  8 26  1  0
  8 27  1  0
  9 28  1  0
  9 29  1  0
 11 30  1  0
 12 31  1  0
 13 32  1  0
 17 33  1  0
 18 34  1  0
 21 35  1  0
M  ISO  8  23  13  24  13  25  13  26   8  27   8  28   8  29   8  30  14
M  ISO  5  31  14  32  14  33  14  34  14  35  14
M  END
>  <minimizedAffinity>  (1) 
-5.31493378

>  <minimizedRMSD>  (1) 
1.33741963

$$$$
