
     RDKit          3D

 40 42  0  0  1  0  0  0  0  0999 V2000
   47.3050   33.0020   42.1720 C   0  0  2  0  0  0  0  0  0  0  0  0
   48.4760   33.3510   43.0000 C   0  0  0  0  0  0  0  0  0  0  0  0
   48.4950   33.7050   41.5940 C   0  0  2  0  0  0  0  0  0  0  0  0
   48.6110   35.1590   41.3550 C   0  0  0  0  0  0  0  0  0  0  0  0
   47.7780   35.9710   42.0930 F   0  0  0  0  0  0  0  0  0  0  0  0
   49.8950   35.5380   41.7860 F   0  0  0  0  0  0  0  0  0  0  0  0
   48.6470   35.5430   40.0180 F   0  0  0  0  0  0  0  0  0  0  0  0
   48.9510   32.9120   40.4000 C   0  0  0  0  0  0  0  0  0  0  0  0
   50.2290   32.1780   40.5320 C   0  0  0  0  0  0  0  0  0  0  0  0
   50.6590   31.2900   39.5550 N   0  0  0  0  0  0  0  0  0  0  0  0
   50.0840   31.3240   38.2640 C   0  0  0  0  0  0  0  0  0  0  0  0
   51.2430   31.2000   37.2690 C   0  0  0  0  0  0  0  0  0  0  0  0
   52.3880   31.7480   38.0930 C   0  0  0  0  0  0  0  0  0  0  0  0
   52.0930   31.1250   39.4420 C   0  0  0  0  0  0  0  0  0  0  0  0
   46.0260   33.7380   42.2210 C   0  0  0  0  0  0  0  0  0  0  0  0
   45.4330   33.8340   41.1460 O   0  0  0  0  0  0  0  0  0  0  0  0
   45.1670   34.1270   45.8080 C   0  0  0  0  0  0  0  0  0  0  0  0
   45.6880   33.5370   44.6060 C   0  0  0  0  0  0  0  0  0  0  0  0
   45.5510   34.2720   43.4670 C   0  0  0  0  0  0  0  0  0  0  0  0
   44.9480   35.4850   43.5390 N   0  0  0  0  0  0  0  0  0  0  0  0
   44.4630   36.0230   44.6790 C   0  0  0  0  0  0  0  0  0  0  0  0
   44.5720   35.3340   45.8470 N   0  0  0  0  0  0  0  0  0  0  0  0
   46.7458   32.0686   42.0105 H   0  0  0  0  0  0  0  0  0  0  0  0
   48.3905   34.1412   43.7604 H   0  0  0  0  0  0  0  0  0  0  0  0
   49.1488   32.7817   43.6582 H   0  0  0  0  0  0  0  0  0  0  0  0
   48.1668   32.1753   40.1712 H   0  0  0  0  0  0  0  0  0  0  0  0
   49.1290   33.6580   39.6114 H   0  0  0  0  0  0  0  0  0  0  0  0
   51.0164   32.9402   40.6271 H   0  0  0  0  0  0  0  0  0  0  0  0
   50.0333   31.5134   41.3864 H   0  0  0  0  0  0  0  0  0  0  0  0
   49.3832   30.4856   38.1378 H   0  0  0  0  0  0  0  0  0  0  0  0
   49.5196   32.2545   38.1039 H   0  0  0  0  0  0  0  0  0  0  0  0
   51.0681   31.8050   36.3671 H   0  0  0  0  0  0  0  0  0  0  0  0
   51.4057   30.1819   36.8857 H   0  0  0  0  0  0  0  0  0  0  0  0
   53.3620   31.4204   37.7004 H   0  0  0  0  0  0  0  0  0  0  0  0
   52.4556   32.8459   38.1041 H   0  0  0  0  0  0  0  0  0  0  0  0
   52.3736   30.0615   39.4589 H   0  0  0  0  0  0  0  0  0  0  0  0
   52.6543   31.5835   40.2695 H   0  0  0  0  0  0  0  0  0  0  0  0
   45.2593   33.5619   46.7472 H   0  0  0  0  0  0  0  0  0  0  0  0
   46.1700   32.5482   44.6054 H   0  0  0  0  0  0  0  0  0  0  0  0
   43.9827   37.0125   44.6631 H   0  0  0  0  0  0  0  0  0  0  0  0
  1 15  1  0
  1  2  1  0
  3  8  1  6
  3  1  1  0
  3  2  1  0
  4  3  1  0
  4  6  1  0
  4  5  1  0
  7  4  1  0
  8  9  1  0
 10  9  1  0
 11 10  1  0
 12 13  1  0
 12 11  1  0
 13 14  1  0
 14 10  1  0
 15 19  1  0
 16 15  2  0
 17 22  2  0
 18 17  1  0
 19 20  1  0
 19 18  2  0
 20 21  2  0
 21 22  1  0
  1 23  1  6
  2 24  1  0
  2 25  1  0
  8 26  1  0
  8 27  1  0
  9 28  1  0
  9 29  1  0
 11 30  1  0
 11 31  1  0
 12 32  1  0
 12 33  1  0
 13 34  1  0
 13 35  1  0
 14 36  1  0
 14 37  1  0
 17 38  1  0
 18 39  1  0
 21 40  1  0
M  ISO  8  23  13  24  13  25  13  26   8  27   8  28   8  29   8  30  13
M  ISO  8  31  13  32  13  33  13  34  13  35  13  36  13  37  13  38  14
M  ISO  2  39  14  40  14
M  END
>  <minimizedAffinity>  (1) 
-5.06937027

>  <minimizedRMSD>  (1) 
2.04586959

$$$$
