
     RDKit          3D

 41 43  0  0  1  0  0  0  0  0999 V2000
   47.2810   32.9120   42.2200 C   0  0  2  0  0  0  0  0  0  0  0  0
   48.4530   33.3070   43.0200 C   0  0  0  0  0  0  0  0  0  0  0  0
   48.4560   33.6080   41.6100 C   0  0  2  0  0  0  0  0  0  0  0  0
   48.5500   35.0570   41.3150 C   0  0  0  0  0  0  0  0  0  0  0  0
   47.7390   35.8880   42.0570 F   0  0  0  0  0  0  0  0  0  0  0  0
   49.8430   35.4580   41.6850 F   0  0  0  0  0  0  0  0  0  0  0  0
   48.5300   35.3960   39.9650 F   0  0  0  0  0  0  0  0  0  0  0  0
   48.9180   32.7950   40.4410 C   0  0  0  0  0  0  0  0  0  0  0  0
   50.1690   32.0410   40.5760 C   0  0  0  0  0  0  0  0  0  0  0  0
   50.9440   31.6280   39.4960 N   0  0  0  0  0  0  0  0  0  0  0  0
   51.5860   30.3450   39.5640 C   0  0  0  0  0  0  0  0  0  0  0  0
   52.0540   29.9420   38.1580 C   0  0  0  0  0  0  0  0  0  0  0  0
   51.0170   29.6700   37.3020 O   0  0  0  0  0  0  0  0  0  0  0  0
   49.9040   30.3920   37.6850 C   0  0  0  0  0  0  0  0  0  0  0  0
   50.3160   31.7620   38.2020 C   0  0  0  0  0  0  0  0  0  0  0  0
   45.9880   33.6340   42.2530 C   0  0  0  0  0  0  0  0  0  0  0  0
   45.3850   33.6710   41.1810 O   0  0  0  0  0  0  0  0  0  0  0  0
   45.1440   34.1600   45.8230 C   0  0  0  0  0  0  0  0  0  0  0  0
   45.6580   33.5120   44.6450 C   0  0  0  0  0  0  0  0  0  0  0  0
   45.5280   34.2160   43.4830 C   0  0  0  0  0  0  0  0  0  0  0  0
   44.9430   35.4390   43.5120 N   0  0  0  0  0  0  0  0  0  0  0  0
   44.4690   36.0260   44.6260 C   0  0  0  0  0  0  0  0  0  0  0  0
   44.5660   35.3790   45.8210 N   0  0  0  0  0  0  0  0  0  0  0  0
   46.7324   31.9664   42.0980 H   0  0  0  0  0  0  0  0  0  0  0  0
   48.3635   34.1236   43.7515 H   0  0  0  0  0  0  0  0  0  0  0  0
   49.1396   32.7710   43.6918 H   0  0  0  0  0  0  0  0  0  0  0  0
   48.1227   32.0703   40.2122 H   0  0  0  0  0  0  0  0  0  0  0  0
   49.1287   33.5374   39.6571 H   0  0  0  0  0  0  0  0  0  0  0  0
   50.8289   32.6649   41.1967 H   0  0  0  0  0  0  0  0  0  0  0  0
   49.7953   31.0762   40.9494 H   0  0  0  0  0  0  0  0  0  0  0  0
   52.4531   30.4023   40.2385 H   0  0  0  0  0  0  0  0  0  0  0  0
   50.8775   29.5960   39.9476 H   0  0  0  0  0  0  0  0  0  0  0  0
   52.6480   30.7667   37.7372 H   0  0  0  0  0  0  0  0  0  0  0  0
   52.6442   29.0195   38.2611 H   0  0  0  0  0  0  0  0  0  0  0  0
   49.2366   30.5164   36.8195 H   0  0  0  0  0  0  0  0  0  0  0  0
   49.3833   29.8484   38.4872 H   0  0  0  0  0  0  0  0  0  0  0  0
   51.0257   32.2200   37.4973 H   0  0  0  0  0  0  0  0  0  0  0  0
   49.4237   32.3984   38.2954 H   0  0  0  0  0  0  0  0  0  0  0  0
   45.2275   33.6292   46.7829 H   0  0  0  0  0  0  0  0  0  0  0  0
   46.1243   32.5163   44.6790 H   0  0  0  0  0  0  0  0  0  0  0  0
   44.0059   37.0223   44.5722 H   0  0  0  0  0  0  0  0  0  0  0  0
  1 16  1  0
  1  2  1  0
  3  8  1  6
  3  1  1  0
  3  2  1  0
  4  3  1  0
  4  6  1  0
  4  5  1  0
  7  4  1  0
  8  9  1  0
 10 11  1  0
 10  9  1  0
 12 11  1  0
 13 14  1  0
 13 12  1  0
 14 15  1  0
 15 10  1  0
 16 20  1  0
 17 16  2  0
 19 18  2  0
 20 21  2  0
 20 19  1  0
 21 22  1  0
 22 23  2  0
 23 18  1  0
  1 24  1  6
  2 25  1  0
  2 26  1  0
  8 27  1  0
  8 28  1  0
  9 29  1  0
  9 30  1  0
 11 31  1  0
 11 32  1  0
 12 33  1  0
 12 34  1  0
 14 35  1  0
 14 36  1  0
 15 37  1  0
 15 38  1  0
 18 39  1  0
 19 40  1  0
 22 41  1  0
M  ISO  8  24  13  25  13  26  13  27   8  28   8  29   8  30   8  31  13
M  ISO  8  32  13  33  13  34  13  35  13  36  13  37  13  38  13  39  14
M  ISO  2  40  14  41  14
M  END
>  <minimizedAffinity>  (1) 
-4.85535336

>  <minimizedRMSD>  (1) 
2.48262668

$$$$
