
     RDKit          3D

 35 37  0  0  1  0  0  0  0  0999 V2000
   47.3280   32.9320   42.3260 C   0  0  2  0  0  0  0  0  0  0  0  0
   48.4840   33.3910   43.1150 C   0  0  0  0  0  0  0  0  0  0  0  0
   48.4810   33.6340   41.6860 C   0  0  2  0  0  0  0  0  0  0  0  0
   48.5390   35.0720   41.3370 C   0  0  0  0  0  0  0  0  0  0  0  0
   47.7230   35.9150   42.0610 F   0  0  0  0  0  0  0  0  0  0  0  0
   49.8380   35.5110   41.6750 F   0  0  0  0  0  0  0  0  0  0  0  0
   48.4980   35.3580   39.9800 F   0  0  0  0  0  0  0  0  0  0  0  0
   48.9760   32.7930   40.5630 C   0  0  0  0  0  0  0  0  0  0  0  0
   50.2900   32.1630   40.6570 C   0  0  0  0  0  0  0  0  0  0  0  0
   50.6200   31.2370   41.7290 C   0  0  0  0  0  0  0  0  0  0  0  0
   49.8220   30.0810   41.8730 C   0  0  0  0  0  0  0  0  0  0  0  0
   50.2370   29.2880   42.9230 C   0  0  0  0  0  0  0  0  0  0  0  0
   51.2980   30.0040   43.3930 C   0  0  0  0  0  0  0  0  0  0  0  0
   51.4840   31.0840   42.7040 O   0  0  0  0  0  0  0  0  0  0  0  0
   46.0190   33.6220   42.3290 C   0  0  0  0  0  0  0  0  0  0  0  0
   45.4150   33.6200   41.2530 O   0  0  0  0  0  0  0  0  0  0  0  0
   45.1010   34.1970   45.8720 C   0  0  0  0  0  0  0  0  0  0  0  0
   45.6340   33.5350   44.7110 C   0  0  0  0  0  0  0  0  0  0  0  0
   45.5300   34.2270   43.5390 C   0  0  0  0  0  0  0  0  0  0  0  0
   44.9520   35.4540   43.5430 N   0  0  0  0  0  0  0  0  0  0  0  0
   44.4590   36.0570   44.6380 C   0  0  0  0  0  0  0  0  0  0  0  0
   44.5300   35.4200   45.8430 N   0  0  0  0  0  0  0  0  0  0  0  0
   46.8080   31.9664   42.2414 H   0  0  0  0  0  0  0  0  0  0  0  0
   48.3689   34.2339   43.8123 H   0  0  0  0  0  0  0  0  0  0  0  0
   49.1827   32.9033   43.8106 H   0  0  0  0  0  0  0  0  0  0  0  0
   48.2436   31.9844   40.4228 H   0  0  0  0  0  0  0  0  0  0  0  0
   49.0938   33.5105   39.7376 H   0  0  0  0  0  0  0  0  0  0  0  0
   50.4365   31.6118   39.7164 H   0  0  0  0  0  0  0  0  0  0  0  0
   50.9443   33.0192   40.8781 H   0  0  0  0  0  0  0  0  0  0  0  0
   48.9679   29.8404   41.2229 H   0  0  0  0  0  0  0  0  0  0  0  0
   49.8233   28.3348   43.2838 H   0  0  0  0  0  0  0  0  0  0  0  0
   51.9180   29.7018   44.2499 H   0  0  0  0  0  0  0  0  0  0  0  0
   45.1623   33.6765   46.8391 H   0  0  0  0  0  0  0  0  0  0  0  0
   46.0947   32.5375   44.7643 H   0  0  0  0  0  0  0  0  0  0  0  0
   44.0023   37.0550   44.5639 H   0  0  0  0  0  0  0  0  0  0  0  0
  1 15  1  0
  1  2  1  0
  3  8  1  6
  3  1  1  0
  3  2  1  0
  4  6  1  0
  4  3  1  0
  4  5  1  0
  7  4  1  0
  8  9  1  0
  9 10  1  0
 10 11  2  0
 10 14  1  0
 11 12  1  0
 12 13  2  0
 14 13  1  0
 15 19  1  0
 16 15  2  0
 18 17  2  0
 19 20  2  0
 19 18  1  0
 20 21  1  0
 21 22  2  0
 22 17  1  0
  1 23  1  6
  2 24  1  0
  2 25  1  0
  8 26  1  0
  8 27  1  0
  9 28  1  0
  9 29  1  0
 11 30  1  0
 12 31  1  0
 13 32  1  0
 17 33  1  0
 18 34  1  0
 21 35  1  0
M  ISO  8  23  13  24  13  25  13  26   8  27   8  28   8  29   8  30  14
M  ISO  5  31  14  32  14  33  14  34  14  35  14
M  END
>  <minimizedAffinity>  (1) 
-4.69191647

>  <minimizedRMSD>  (1) 
0.898506284

$$$$
