
     RDKit          3D

 33 35  0  0  1  0  0  0  0  0999 V2000
   47.3430   32.9350   42.3220 C   0  0  2  0  0  0  0  0  0  0  0  0
   48.4960   33.3990   43.1130 C   0  0  0  0  0  0  0  0  0  0  0  0
   48.4930   33.6430   41.6840 C   0  0  2  0  0  0  0  0  0  0  0  0
   48.5450   35.0810   41.3340 C   0  0  0  0  0  0  0  0  0  0  0  0
   47.7230   35.9190   42.0570 F   0  0  0  0  0  0  0  0  0  0  0  0
   49.8410   35.5270   41.6740 F   0  0  0  0  0  0  0  0  0  0  0  0
   48.5020   35.3700   39.9780 F   0  0  0  0  0  0  0  0  0  0  0  0
   48.9930   32.8050   40.5610 C   0  0  0  0  0  0  0  0  0  0  0  0
   50.2990   32.1600   40.6660 C   0  0  0  0  0  0  0  0  0  0  0  0
   50.5890   31.1660   41.6780 C   0  0  0  0  0  0  0  0  0  0  0  0
   49.8350   30.0210   41.6610 N   0  0  0  0  0  0  0  0  0  0  0  0
   50.2060   29.2110   42.6030 O   0  0  0  0  0  0  0  0  0  0  0  0
   51.1740   29.7500   43.2580 C   0  0  0  0  0  0  0  0  0  0  0  0
   51.4110   30.9180   42.7130 N   0  0  0  0  0  0  0  0  0  0  0  0
   46.0310   33.6180   42.3220 C   0  0  0  0  0  0  0  0  0  0  0  0
   45.4290   33.6130   41.2460 O   0  0  0  0  0  0  0  0  0  0  0  0
   45.1060   34.1940   45.8660 C   0  0  0  0  0  0  0  0  0  0  0  0
   45.6410   33.5310   44.7060 C   0  0  0  0  0  0  0  0  0  0  0  0
   45.5380   34.2190   43.5310 C   0  0  0  0  0  0  0  0  0  0  0  0
   44.9560   35.4470   43.5330 N   0  0  0  0  0  0  0  0  0  0  0  0
   44.4620   36.0500   44.6290 C   0  0  0  0  0  0  0  0  0  0  0  0
   44.5350   35.4120   45.8330 N   0  0  0  0  0  0  0  0  0  0  0  0
   46.8278   31.9668   42.2370 H   0  0  0  0  0  0  0  0  0  0  0  0
   48.3760   34.2408   43.8108 H   0  0  0  0  0  0  0  0  0  0  0  0
   49.1964   32.9142   43.8091 H   0  0  0  0  0  0  0  0  0  0  0  0
   48.2537   32.0054   40.4058 H   0  0  0  0  0  0  0  0  0  0  0  0
   49.1289   33.5274   39.7427 H   0  0  0  0  0  0  0  0  0  0  0  0
   50.4796   31.6728   39.6965 H   0  0  0  0  0  0  0  0  0  0  0  0
   50.9432   32.9963   40.9753 H   0  0  0  0  0  0  0  0  0  0  0  0
   51.7042   29.3115   44.1163 H   0  0  0  0  0  0  0  0  0  0  0  0
   45.1673   33.6757   46.8343 H   0  0  0  0  0  0  0  0  0  0  0  0
   46.1031   32.5343   44.7623 H   0  0  0  0  0  0  0  0  0  0  0  0
   44.0038   37.0473   44.5556 H   0  0  0  0  0  0  0  0  0  0  0  0
  1 15  1  0
  1  2  1  0
  3  8  1  6
  3  1  1  0
  3  2  1  0
  4  6  1  0
  4  3  1  0
  4  5  1  0
  7  4  1  0
  8  9  1  0
  9 10  1  0
 10 14  1  0
 11 10  2  0
 11 12  1  0
 12 13  1  0
 14 13  2  0
 15 19  1  0
 16 15  2  0
 18 17  2  0
 19 20  2  0
 19 18  1  0
 20 21  1  0
 21 22  2  0
 22 17  1  0
  1 23  1  6
  2 24  1  0
  2 25  1  0
  8 26  1  0
  8 27  1  0
  9 28  1  0
  9 29  1  0
 13 30  1  0
 17 31  1  0
 18 32  1  0
 21 33  1  0
M  ISO  8  23  13  24  13  25  13  26   8  27   8  28   8  29   8  30  14
M  ISO  3  31  14  32  14  33  14
M  END
>  <minimizedAffinity>  (1) 
-4.65572309

>  <minimizedRMSD>  (1) 
0.778755188

$$$$
