
     RDKit          3D

 35 37  0  0  1  0  0  0  0  0999 V2000
   47.4890   32.9020   42.3970 C   0  0  2  0  0  0  0  0  0  0  0  0
   48.6030   33.4800   43.1650 C   0  0  0  0  0  0  0  0  0  0  0  0
   48.5870   33.6600   41.7260 C   0  0  2  0  0  0  0  0  0  0  0  0
   48.5400   35.0800   41.3130 C   0  0  0  0  0  0  0  0  0  0  0  0
   47.6870   35.8980   42.0220 F   0  0  0  0  0  0  0  0  0  0  0  0
   49.8100   35.6240   41.5870 F   0  0  0  0  0  0  0  0  0  0  0  0
   48.4390   35.2940   39.9450 F   0  0  0  0  0  0  0  0  0  0  0  0
   49.1550   32.8070   40.6450 C   0  0  0  0  0  0  0  0  0  0  0  0
   50.4780   32.2080   40.8450 C   0  0  0  0  0  0  0  0  0  0  0  0
   50.6300   30.8650   41.4420 C   0  0  0  0  0  0  0  0  0  0  0  0
   51.8850   30.1610   41.7020 C   0  0  0  0  0  0  0  0  0  0  0  0
   51.2620   30.8020   42.8790 C   0  0  0  0  0  0  0  0  0  0  0  0
   46.1300   33.4890   42.3680 C   0  0  0  0  0  0  0  0  0  0  0  0
   45.5240   33.3570   41.3010 O   0  0  0  0  0  0  0  0  0  0  0  0
   45.1190   34.2100   45.8570 C   0  0  0  0  0  0  0  0  0  0  0  0
   45.6890   33.5040   44.7390 C   0  0  0  0  0  0  0  0  0  0  0  0
   45.6080   34.1400   43.5340 C   0  0  0  0  0  0  0  0  0  0  0  0
   45.0130   35.3600   43.4620 N   0  0  0  0  0  0  0  0  0  0  0  0
   44.4860   36.0020   44.5220 C   0  0  0  0  0  0  0  0  0  0  0  0
   44.5330   35.4220   45.7560 N   0  0  0  0  0  0  0  0  0  0  0  0
   47.0438   31.8970   42.3559 H   0  0  0  0  0  0  0  0  0  0  0  0
   48.4221   34.3413   43.8249 H   0  0  0  0  0  0  0  0  0  0  0  0
   49.3339   33.0770   43.8815 H   0  0  0  0  0  0  0  0  0  0  0  0
   48.4474   31.9815   40.4779 H   0  0  0  0  0  0  0  0  0  0  0  0
   49.2996   33.5012   39.8041 H   0  0  0  0  0  0  0  0  0  0  0  0
   50.9527   32.1636   39.8537 H   0  0  0  0  0  0  0  0  0  0  0  0
   50.9226   32.8612   41.6103 H   0  0  0  0  0  0  0  0  0  0  0  0
   49.7214   30.5609   40.9017 H   0  0  0  0  0  0  0  0  0  0  0  0
   51.9079   29.0631   41.6379 H   0  0  0  0  0  0  0  0  0  0  0  0
   52.8881   30.2271   41.2555 H   0  0  0  0  0  0  0  0  0  0  0  0
   51.7129   31.6985   43.3296 H   0  0  0  0  0  0  0  0  0  0  0  0
   50.9327   30.4787   43.8775 H   0  0  0  0  0  0  0  0  0  0  0  0
   45.1635   33.7355   46.8484 H   0  0  0  0  0  0  0  0  0  0  0  0
   46.1594   32.5158   44.8489 H   0  0  0  0  0  0  0  0  0  0  0  0
   44.0196   36.9899   44.3935 H   0  0  0  0  0  0  0  0  0  0  0  0
  1  2  1  0
  3  8  1  6
  3  1  1  0
  3  2  1  0
  4  6  1  0
  4  3  1  0
  4  5  1  0
  7  4  1  0
  8  9  1  0
  9 10  1  0
 10 11  1  0
 10 12  1  0
 11 12  1  0
 13  1  1  0
 13 17  1  0
 14 13  2  0
 16 15  2  0
 17 16  1  0
 18 17  2  0
 18 19  1  0
 19 20  2  0
 20 15  1  0
  1 21  1  6
  2 22  1  0
  2 23  1  0
  8 24  1  0
  8 25  1  0
  9 26  1  0
  9 27  1  0
 10 28  1  0
 11 29  1  0
 11 30  1  0
 12 31  1  0
 12 32  1  0
 15 33  1  0
 16 34  1  0
 19 35  1  0
M  ISO  8  21  13  22  13  23  13  24   8  25   8  26   8  27   8  28  13
M  ISO  7  29  13  30  13  31  13  32  13  33  14  34  14  35  14
M  END
>  <minimizedAffinity>  (1) 
-4.56581163

>  <minimizedRMSD>  (1) 
0.764194012

$$$$
