
     RDKit          3D

 29 30  0  0  1  0  0  0  0  0999 V2000
   47.3220   32.9500   42.2540 C   0  0  2  0  0  0  0  0  0  0  0  0
   48.4870   33.3520   43.0550 C   0  0  0  0  0  0  0  0  0  0  0  0
   48.4910   33.6600   41.6410 C   0  0  2  0  0  0  0  0  0  0  0  0
   48.5710   35.1030   41.3410 C   0  0  0  0  0  0  0  0  0  0  0  0
   47.7450   35.9270   42.0770 F   0  0  0  0  0  0  0  0  0  0  0  0
   49.8600   35.5230   41.7230 F   0  0  0  0  0  0  0  0  0  0  0  0
   48.5580   35.4360   39.9940 F   0  0  0  0  0  0  0  0  0  0  0  0
   48.9770   32.8530   40.4790 C   0  0  0  0  0  0  0  0  0  0  0  0
   50.2580   32.1140   40.6610 C   0  0  0  0  0  0  0  0  0  0  0  0
   50.0500   30.3490   41.0300 S   0  0  0  0  0  0  0  0  0  0  0  0
   46.0280   33.6480   42.2750 C   0  0  0  0  0  0  0  0  0  0  0  0
   45.4250   33.6770   41.1980 O   0  0  0  0  0  0  0  0  0  0  0  0
   45.1330   34.1720   45.8330 C   0  0  0  0  0  0  0  0  0  0  0  0
   45.6640   33.5280   44.6600 C   0  0  0  0  0  0  0  0  0  0  0  0
   45.5460   34.2310   43.4990 C   0  0  0  0  0  0  0  0  0  0  0  0
   44.9560   35.4520   43.5240 N   0  0  0  0  0  0  0  0  0  0  0  0
   44.4660   36.0340   44.6330 C   0  0  0  0  0  0  0  0  0  0  0  0
   44.5550   35.3810   45.8280 N   0  0  0  0  0  0  0  0  0  0  0  0
   46.7827   31.9984   42.1370 H   0  0  0  0  0  0  0  0  0  0  0  0
   48.3889   34.1650   43.7894 H   0  0  0  0  0  0  0  0  0  0  0  0
   49.1771   32.8193   43.7258 H   0  0  0  0  0  0  0  0  0  0  0  0
   48.1983   32.1142   40.2384 H   0  0  0  0  0  0  0  0  0  0  0  0
   49.1791   33.5865   39.6846 H   0  0  0  0  0  0  0  0  0  0  0  0
   50.8446   32.2065   39.7351 H   0  0  0  0  0  0  0  0  0  0  0  0
   50.7619   32.5623   41.5300 H   0  0  0  0  0  0  0  0  0  0  0  0
   50.0284   30.1657   42.3875 H   0  0  0  0  0  0  0  0  0  0  0  0
   45.2062   33.6389   46.7924 H   0  0  0  0  0  0  0  0  0  0  0  0
   46.1339   32.5342   44.6986 H   0  0  0  0  0  0  0  0  0  0  0  0
   43.9976   37.0277   44.5773 H   0  0  0  0  0  0  0  0  0  0  0  0
  1 11  1  0
  1  2  1  0
  3  8  1  6
  3  1  1  0
  3  2  1  0
  4  3  1  0
  4  6  1  0
  4  5  1  0
  7  4  1  0
  8  9  1  0
  9 10  1  0
 11 15  1  0
 12 11  2  0
 14 13  2  0
 15 16  2  0
 15 14  1  0
 16 17  1  0
 17 18  2  0
 18 13  1  0
  1 19  1  6
  2 20  1  0
  2 21  1  0
  8 22  1  0
  8 23  1  0
  9 24  1  0
  9 25  1  0
 10 26  1  0
 13 27  1  0
 14 28  1  0
 17 29  1  0
M  ISO  8  19  13  20  13  21  13  22   8  23   8  24   8  25   8  26  11
M  ISO  3  27  14  28  14  29  14
M  END
>  <minimizedAffinity>  (1) 
-4.56300974

>  <minimizedRMSD>  (1) 
0.312626302

$$$$
