
     RDKit          3D

 39 41  0  0  1  0  0  0  0  0999 V2000
   47.4320   33.3800   42.7790 C   0  0  2  0  0  0  0  0  0  0  0  0
   46.9180   34.6880   43.2420 C   0  0  0  0  0  0  0  0  0  0  0  0
   46.5440   34.2350   41.9250 C   0  0  2  0  0  0  0  0  0  0  0  0
   45.0940   34.0340   41.7360 C   0  0  0  0  0  0  0  0  0  0  0  0
   44.3050   34.1590   42.8580 F   0  0  0  0  0  0  0  0  0  0  0  0
   44.6570   35.0870   40.9120 F   0  0  0  0  0  0  0  0  0  0  0  0
   44.7290   32.9240   40.9800 F   0  0  0  0  0  0  0  0  0  0  0  0
   47.2510   34.4050   40.6160 C   0  0  0  0  0  0  0  0  0  0  0  0
   47.0790   33.3470   39.6100 C   0  0  0  0  0  0  0  0  0  0  0  0
   48.2110   32.7310   39.0240 N   0  0  0  0  0  0  0  0  0  0  0  0
   48.1230   32.9410   37.6590 C   0  0  0  0  0  0  0  0  0  0  0  0
   49.0630   32.5180   36.7110 C   0  0  0  0  0  0  0  0  0  0  0  0
   50.1810   31.8320   37.1620 C   0  0  0  0  0  0  0  0  0  0  0  0
   51.2090   31.3490   36.3160 N   0  0  0  0  0  0  0  0  0  0  0  0
   50.2790   31.6240   38.4650 N   0  0  0  0  0  0  0  0  0  0  0  0
   49.3400   32.0610   39.2810 C   0  0  0  0  0  0  0  0  0  0  0  0
   49.4560   31.8450   40.5060 O   0  0  0  0  0  0  0  0  0  0  0  0
   46.9310   32.0950   43.2590 C   0  0  0  0  0  0  0  0  0  0  0  0
   46.8680   31.2130   42.3990 O   0  0  0  0  0  0  0  0  0  0  0  0
   46.4590   32.6730   46.8860 C   0  0  0  0  0  0  0  0  0  0  0  0
   46.8350   32.9290   45.5260 C   0  0  0  0  0  0  0  0  0  0  0  0
   46.5650   31.9290   44.6380 C   0  0  0  0  0  0  0  0  0  0  0  0
   45.9760   30.7880   45.0820 N   0  0  0  0  0  0  0  0  0  0  0  0
   45.6300   30.5660   46.3630 C   0  0  0  0  0  0  0  0  0  0  0  0
   45.8720   31.5260   47.3020 N   0  0  0  0  0  0  0  0  0  0  0  0
   48.4347   32.9311   42.7226 H   0  0  0  0  0  0  0  0  0  0  0  0
   46.1625   34.7250   44.0407 H   0  0  0  0  0  0  0  0  0  0  0  0
   47.3879   35.6018   43.6345 H   0  0  0  0  0  0  0  0  0  0  0  0
   46.8959   35.3454   40.1693 H   0  0  0  0  0  0  0  0  0  0  0  0
   48.3210   34.3795   40.8697 H   0  0  0  0  0  0  0  0  0  0  0  0
   46.4954   32.5468   40.0886 H   0  0  0  0  0  0  0  0  0  0  0  0
   46.6165   33.8776   38.7647 H   0  0  0  0  0  0  0  0  0  0  0  0
   47.2419   33.4851   37.2880 H   0  0  0  0  0  0  0  0  0  0  0  0
   48.9189   32.7238   35.6401 H   0  0  0  0  0  0  0  0  0  0  0  0
   52.0132   30.8464   36.7180 H   0  0  0  0  0  0  0  0  0  0  0  0
   51.1524   31.5003   35.2987 H   0  0  0  0  0  0  0  0  0  0  0  0
   46.6591   33.4537   47.6346 H   0  0  0  0  0  0  0  0  0  0  0  0
   47.3109   33.8718   45.2183 H   0  0  0  0  0  0  0  0  0  0  0  0
   45.1551   29.6167   46.6516 H   0  0  0  0  0  0  0  0  0  0  0  0
  1  2  1  0
  1 18  1  0
  3  8  1  6
  3  1  1  0
  3  2  1  0
  4  3  1  0
  4  5  1  0
  6  4  1  0
  7  4  1  0
  9  8  1  0
 10 16  1  0
 10  9  1  0
 11 10  1  0
 12 13  1  0
 12 11  2  0
 13 15  2  0
 14 13  1  0
 15 16  1  0
 16 17  2  0
 18 22  1  0
 19 18  2  0
 20 25  2  0
 21 20  1  0
 22 23  1  0
 22 21  2  0
 23 24  2  0
 24 25  1  0
  1 26  1  6
  2 27  1  0
  2 28  1  0
  8 29  1  0
  8 30  1  0
  9 31  1  0
  9 32  1  0
 11 33  1  0
 12 34  1  0
 14 35  1  0
 14 36  1  0
 20 37  1  0
 21 38  1  0
 24 39  1  0
M  ISO  8  26  13  27  13  28  13  29   8  30   8  31   8  32   8  33  14
M  ISO  4  34  14  37  14  38  14  39  14
M  END
>  <minimizedAffinity>  (1) 
-4.39547539

>  <minimizedRMSD>  (1) 
4.20655346

$$$$
