
     RDKit          3D

 30 32  0  0  1  0  0  0  0  0999 V2000
   45.3980   34.3560   40.9320 C   0  0  2  0  0  0  0  0  0  0  0  0
   44.4540   33.3930   40.3320 C   0  0  0  0  0  0  0  0  0  0  0  0
   45.2050   32.0700   40.1440 C   0  0  0  0  0  0  0  0  0  0  0  0
   46.5830   32.2510   40.7550 C   0  0  0  0  0  0  0  0  0  0  0  0
   46.7690   33.7240   40.6850 C   0  0  2  0  0  0  0  0  0  0  0  0
   45.2660   34.5830   42.3770 C   0  0  0  0  0  0  0  0  0  0  0  0
   44.9760   35.8650   42.8680 C   0  0  0  0  0  0  0  0  0  0  0  0
   44.8280   36.0500   44.2400 C   0  0  0  0  0  0  0  0  0  0  0  0
   44.9810   34.9410   45.0380 N   0  0  0  0  0  0  0  0  0  0  0  0
   45.2610   33.7190   44.5350 C   0  0  0  0  0  0  0  0  0  0  0  0
   45.3990   33.5580   43.2150 N   0  0  0  0  0  0  0  0  0  0  0  0
   47.8830   34.2540   41.4390 C   0  0  0  0  0  0  0  0  0  0  0  0
   48.4390   35.4760   41.0300 C   0  0  0  0  0  0  0  0  0  0  0  0
   49.5040   35.8210   41.8740 C   0  0  0  0  0  0  0  0  0  0  0  0
   49.5250   34.7630   42.7590 C   0  0  0  0  0  0  0  0  0  0  0  0
   48.6040   33.9010   42.4880 O   0  0  0  0  0  0  0  0  0  0  0  0
   45.2173   35.3431   40.4814 H   0  0  0  0  0  0  0  0  0  0  0  0
   43.5929   33.2447   41.0003 H   0  0  0  0  0  0  0  0  0  0  0  0
   44.0789   33.7667   39.3678 H   0  0  0  0  0  0  0  0  0  0  0  0
   44.6695   31.2558   40.6543 H   0  0  0  0  0  0  0  0  0  0  0  0
   45.2795   31.8090   39.0780 H   0  0  0  0  0  0  0  0  0  0  0  0
   46.6073   31.8953   41.7956 H   0  0  0  0  0  0  0  0  0  0  0  0
   47.3714   31.6823   40.2402 H   0  0  0  0  0  0  0  0  0  0  0  0
   47.1138   34.0144   39.6816 H   0  0  0  0  0  0  0  0  0  0  0  0
   44.8669   36.7139   42.1771 H   0  0  0  0  0  0  0  0  0  0  0  0
   44.5992   37.0381   44.6659 H   0  0  0  0  0  0  0  0  0  0  0  0
   45.3752   32.8581   45.2101 H   0  0  0  0  0  0  0  0  0  0  0  0
   48.0911   36.0739   40.1748 H   0  0  0  0  0  0  0  0  0  0  0  0
   50.1550   36.7070   41.8394 H   0  0  0  0  0  0  0  0  0  0  0  0
   50.2376   34.6664   43.5914 H   0  0  0  0  0  0  0  0  0  0  0  0
  1  6  1  0
  2  1  1  0
  3  2  1  0
  3  4  1  0
  5  4  1  0
  5  1  1  0
  5 12  1  0
  6  7  2  0
  6 11  1  0
  7  8  1  0
  8  9  2  0
 10  9  1  0
 11 10  2  0
 12 16  1  0
 13 12  2  0
 13 14  1  0
 14 15  2  0
 16 15  1  0
  1 17  1  6
  2 18  1  0
  2 19  1  0
  3 20  1  0
  3 21  1  0
  4 22  1  0
  4 23  1  0
  5 24  1  6
  7 25  1  0
  8 26  1  0
 10 27  1  0
 13 28  1  0
 14 29  1  0
 15 30  1  0
M  ISO  8  17  13  18  13  19  13  20  13  21  13  22  13  23  13  24  13
M  ISO  6  25  14  26  14  27  14  28  14  29  14  30  14
M  END
>  <minimizedAffinity>  (1) 
-4.72276545

>  <minimizedRMSD>  (1) 
4.05677271

$$$$
