
     RDKit          3D

 37 39  0  0  1  0  0  0  0  0999 V2000
   48.1770   32.3580   42.1560 C   0  0  2  0  0  0  0  0  0  0  0  0
   49.1450   33.3410   42.5610 C   0  0  0  0  0  0  0  0  0  0  0  0
   48.6970   33.4340   41.2040 C   0  0  2  0  0  0  0  0  0  0  0  0
   47.9910   34.6440   40.8140 C   0  0  0  0  0  0  0  0  0  0  0  0
   46.6920   34.4980   40.4050 F   0  0  0  0  0  0  0  0  0  0  0  0
   47.8650   35.4080   42.0000 F   0  0  0  0  0  0  0  0  0  0  0  0
   48.6900   35.5230   39.9920 F   0  0  0  0  0  0  0  0  0  0  0  0
   49.2540   32.7410   39.9910 C   0  0  0  0  0  0  0  0  0  0  0  0
   50.1120   31.5490   40.2240 C   0  0  0  0  0  0  0  0  0  0  0  0
   51.2820   31.5320   39.3740 N   0  0  0  0  0  0  0  0  0  0  0  0
   51.5540   31.6500   38.0760 C   0  0  0  0  0  0  0  0  0  0  0  0
   52.9120   31.5500   37.8110 C   0  0  0  0  0  0  0  0  0  0  0  0
   53.5040   31.3610   38.9930 N   0  0  0  0  0  0  0  0  0  0  0  0
   52.5300   31.3510   39.9190 C   0  0  0  0  0  0  0  0  0  0  0  0
   46.7450   32.3870   42.4780 C   0  0  0  0  0  0  0  0  0  0  0  0
   46.0120   31.8780   41.6440 O   0  0  0  0  0  0  0  0  0  0  0  0
   46.0160   32.8820   46.0830 C   0  0  0  0  0  0  0  0  0  0  0  0
   46.5210   32.2790   44.8830 C   0  0  0  0  0  0  0  0  0  0  0  0
   46.2870   32.9750   43.7150 C   0  0  0  0  0  0  0  0  0  0  0  0
   45.6240   34.1400   43.7690 N   0  0  0  0  0  0  0  0  0  0  0  0
   45.1560   34.6930   44.9070 C   0  0  0  0  0  0  0  0  0  0  0  0
   45.3520   34.0560   46.1040 N   0  0  0  0  0  0  0  0  0  0  0  0
   44.4510   35.9490   44.8820 C   0  0  0  0  0  0  0  0  0  0  0  0
   44.8790   36.9140   44.2150 O   0  0  0  0  0  0  0  0  0  0  0  0
   48.1473   31.2625   42.2510 H   0  0  0  0  0  0  0  0  0  0  0  0
   48.8511   34.1210   43.2788 H   0  0  0  0  0  0  0  0  0  0  0  0
   50.1421   33.2691   43.0199 H   0  0  0  0  0  0  0  0  0  0  0  0
   48.4025   32.4202   39.3729 H   0  0  0  0  0  0  0  0  0  0  0  0
   49.9183   33.4813   39.5212 H   0  0  0  0  0  0  0  0  0  0  0  0
   50.4393   31.5502   41.2742 H   0  0  0  0  0  0  0  0  0  0  0  0
   49.5144   30.6565   39.9867 H   0  0  0  0  0  0  0  0  0  0  0  0
   50.7889   31.8087   37.3018 H   0  0  0  0  0  0  0  0  0  0  0  0
   53.4013   31.6134   36.8279 H   0  0  0  0  0  0  0  0  0  0  0  0
   52.7121   31.2131   40.9950 H   0  0  0  0  0  0  0  0  0  0  0  0
   46.1790   32.3590   47.0369 H   0  0  0  0  0  0  0  0  0  0  0  0
   47.0614   31.3209   44.8936 H   0  0  0  0  0  0  0  0  0  0  0  0
   43.5213   36.0597   45.4594 H   0  0  0  0  0  0  0  0  0  0  0  0
  1 15  1  0
  1  2  1  0
  3  8  1  6
  3  1  1  0
  3  2  1  0
  4  3  1  0
  4  6  1  0
  5  4  1  0
  7  4  1  0
  8  9  1  0
 10 14  1  0
 10  9  1  0
 11 10  1  0
 12 11  2  0
 12 13  1  0
 13 14  2  0
 15 19  1  0
 16 15  2  0
 17 22  2  0
 18 17  1  0
 19 20  1  0
 19 18  2  0
 20 21  2  0
 21 22  1  0
 23 21  1  0
 24 23  2  0
  1 25  1  6
  2 26  1  0
  2 27  1  0
  8 28  1  0
  8 29  1  0
  9 30  1  0
  9 31  1  0
 11 32  1  0
 12 33  1  0
 14 34  1  0
 17 35  1  0
 18 36  1  0
 23 37  1  0
M  ISO  8  25  13  26  13  27  13  28   8  29   8  30   8  31   8  32  14
M  ISO  5  33  14  34  14  35  14  36  14  37   6
M  END
>  <minimizedAffinity>  (1) 
-5.09418726

>  <minimizedRMSD>  (1) 
1.58172524

$$$$
