
     RDKit          3D

 37 39  0  0  1  0  0  0  0  0999 V2000
   47.0090   33.1670   41.6520 C   0  0  2  0  0  0  0  0  0  0  0  0
   48.1860   33.1290   42.4800 C   0  0  0  0  0  0  0  0  0  0  0  0
   48.3380   33.7750   41.2080 C   0  0  2  0  0  0  0  0  0  0  0  0
   48.6730   35.1920   41.2140 C   0  0  0  0  0  0  0  0  0  0  0  0
   47.9530   35.9960   42.0540 F   0  0  0  0  0  0  0  0  0  0  0  0
   49.9830   35.2660   41.7480 F   0  0  0  0  0  0  0  0  0  0  0  0
   48.8500   35.7820   39.9660 F   0  0  0  0  0  0  0  0  0  0  0  0
   48.7060   33.1570   39.8870 C   0  0  0  0  0  0  0  0  0  0  0  0
   49.1510   31.7400   39.9040 C   0  0  0  0  0  0  0  0  0  0  0  0
   50.5740   31.6020   39.6690 N   0  0  0  0  0  0  0  0  0  0  0  0
   51.3800   31.4170   38.6290 C   0  0  0  0  0  0  0  0  0  0  0  0
   52.7170   31.3580   39.0000 C   0  0  0  0  0  0  0  0  0  0  0  0
   52.7300   31.5140   40.3290 N   0  0  0  0  0  0  0  0  0  0  0  0
   51.4580   31.6570   40.7200 C   0  0  0  0  0  0  0  0  0  0  0  0
   45.8760   34.0840   41.8200 C   0  0  0  0  0  0  0  0  0  0  0  0
   45.2980   34.3920   40.7880 O   0  0  0  0  0  0  0  0  0  0  0  0
   44.9550   34.1170   45.4170 C   0  0  0  0  0  0  0  0  0  0  0  0
   45.3620   33.6160   44.1360 C   0  0  0  0  0  0  0  0  0  0  0  0
   45.5030   34.5510   43.1360 C   0  0  0  0  0  0  0  0  0  0  0  0
   45.2620   35.8440   43.4060 N   0  0  0  0  0  0  0  0  0  0  0  0
   44.8800   36.3040   44.6180 C   0  0  0  0  0  0  0  0  0  0  0  0
   44.7190   35.4250   45.6600 N   0  0  0  0  0  0  0  0  0  0  0  0
   44.6840   37.6990   44.6650 N   0  0  0  0  0  0  0  0  0  0  0  0
   46.2952   32.3900   41.3409 H   0  0  0  0  0  0  0  0  0  0  0  0
   48.2178   33.7342   43.3980 H   0  0  0  0  0  0  0  0  0  0  0  0
   48.7289   32.3126   42.9787 H   0  0  0  0  0  0  0  0  0  0  0  0
   47.8227   33.2192   39.2344 H   0  0  0  0  0  0  0  0  0  0  0  0
   49.5811   33.7262   39.5402 H   0  0  0  0  0  0  0  0  0  0  0  0
   48.9122   31.3071   40.8867 H   0  0  0  0  0  0  0  0  0  0  0  0
   48.6260   31.2152   39.0922 H   0  0  0  0  0  0  0  0  0  0  0  0
   51.0280   31.3214   37.5912 H   0  0  0  0  0  0  0  0  0  0  0  0
   53.5844   31.2132   38.3392 H   0  0  0  0  0  0  0  0  0  0  0  0
   51.1536   31.8025   41.7670 H   0  0  0  0  0  0  0  0  0  0  0  0
   44.8288   33.4009   46.2424 H   0  0  0  0  0  0  0  0  0  0  0  0
   45.5505   32.5462   43.9629 H   0  0  0  0  0  0  0  0  0  0  0  0
   44.3916   38.1486   45.5443 H   0  0  0  0  0  0  0  0  0  0  0  0
   44.8332   38.2688   43.8200 H   0  0  0  0  0  0  0  0  0  0  0  0
  1 15  1  0
  1  2  1  0
  3  8  1  6
  3  4  1  0
  3  1  1  0
  3  2  1  0
  4  6  1  0
  4  5  1  0
  7  4  1  0
  8  9  1  0
 10  9  1  0
 10 14  1  0
 11 12  2  0
 11 10  1  0
 12 13  1  0
 13 14  2  0
 15 19  1  0
 16 15  2  0
 17 22  2  0
 18 17  1  0
 19 20  1  0
 19 18  2  0
 20 21  2  0
 21 23  1  0
 21 22  1  0
  1 24  1  6
  2 25  1  0
  2 26  1  0
  8 27  1  0
  8 28  1  0
  9 29  1  0
  9 30  1  0
 11 31  1  0
 12 32  1  0
 14 33  1  0
 17 34  1  0
 18 35  1  0
 23 36  1  0
 23 37  1  0
M  ISO  8  24  13  25  13  26  13  27   8  28   8  29   8  30   8  31  14
M  ISO  4  32  14  33  14  34  14  35  14
M  END
>  <minimizedAffinity>  (1) 
-5.05778027

>  <minimizedRMSD>  (1) 
0.265253216

$$$$
