
     RDKit          3D

 38 40  0  0  1  0  0  0  0  0999 V2000
   46.8140   33.4460   41.9450 C   0  0  2  0  0  0  0  0  0  0  0  0
   47.9130   33.4410   42.8730 C   0  0  0  0  0  0  0  0  0  0  0  0
   48.2300   33.8580   41.5390 C   0  0  2  0  0  0  0  0  0  0  0  0
   48.7080   35.2200   41.3620 C   0  0  0  0  0  0  0  0  0  0  0  0
   48.1890   36.1720   42.1980 F   0  0  0  0  0  0  0  0  0  0  0  0
   50.0780   35.1910   41.7250 F   0  0  0  0  0  0  0  0  0  0  0  0
   48.7810   35.6780   40.0510 F   0  0  0  0  0  0  0  0  0  0  0  0
   48.6350   33.0040   40.3700 C   0  0  0  0  0  0  0  0  0  0  0  0
   49.2920   31.7060   40.6710 C   0  0  0  0  0  0  0  0  0  0  0  0
   50.5980   31.5850   40.0610 N   0  0  0  0  0  0  0  0  0  0  0  0
   51.1010   31.4110   38.8420 C   0  0  0  0  0  0  0  0  0  0  0  0
   52.4870   31.3660   38.8430 C   0  0  0  0  0  0  0  0  0  0  0  0
   52.8610   31.5180   40.1160 N   0  0  0  0  0  0  0  0  0  0  0  0
   51.7290   31.6480   40.8380 C   0  0  0  0  0  0  0  0  0  0  0  0
   45.7730   34.4770   41.8630 C   0  0  0  0  0  0  0  0  0  0  0  0
   45.2760   34.6310   40.7580 O   0  0  0  0  0  0  0  0  0  0  0  0
   44.4890   35.3000   45.2460 C   0  0  0  0  0  0  0  0  0  0  0  0
   44.8860   34.5170   44.1130 C   0  0  0  0  0  0  0  0  0  0  0  0
   45.3900   35.2200   43.0410 C   0  0  0  0  0  0  0  0  0  0  0  0
   45.4750   36.5580   43.1170 N   0  0  0  0  0  0  0  0  0  0  0  0
   45.0950   37.2800   44.1940 C   0  0  0  0  0  0  0  0  0  0  0  0
   44.5860   36.6430   45.2930 N   0  0  0  0  0  0  0  0  0  0  0  0
   45.2210   38.7140   44.1930 C   0  0  0  0  0  0  0  0  0  0  0  0
   45.3560   39.3420   43.1140 O   0  0  0  0  0  0  0  0  0  0  0  0
   45.1940   39.4190   45.3800 O   0  0  0  0  0  0  0  0  0  0  0  0
   46.0522   32.6935   41.6934 H   0  0  0  0  0  0  0  0  0  0  0  0
   47.9329   34.1811   43.6865 H   0  0  0  0  0  0  0  0  0  0  0  0
   48.3306   32.6712   43.5386 H   0  0  0  0  0  0  0  0  0  0  0  0
   47.7269   32.7878   39.7881 H   0  0  0  0  0  0  0  0  0  0  0  0
   49.3996   33.5922   39.8414 H   0  0  0  0  0  0  0  0  0  0  0  0
   49.4032   31.6127   41.7614 H   0  0  0  0  0  0  0  0  0  0  0  0
   48.6572   30.9090   40.2563 H   0  0  0  0  0  0  0  0  0  0  0  0
   50.4865   31.3137   37.9349 H   0  0  0  0  0  0  0  0  0  0  0  0
   53.1451   31.2322   37.9718 H   0  0  0  0  0  0  0  0  0  0  0  0
   51.7133   31.7889   41.9288 H   0  0  0  0  0  0  0  0  0  0  0  0
   44.0834   34.7764   46.1242 H   0  0  0  0  0  0  0  0  0  0  0  0
   44.7938   33.4209   44.1003 H   0  0  0  0  0  0  0  0  0  0  0  0
   45.2812   40.4051   45.3721 H   0  0  0  0  0  0  0  0  0  0  0  0
  1  2  1  0
  3  8  1  6
  3  1  1  0
  3  2  1  0
  4  3  1  0
  4  6  1  0
  4  5  1  0
  7  4  1  0
  8  9  1  0
 10  9  1  0
 10 14  1  0
 11 12  2  0
 11 10  1  0
 12 13  1  0
 13 14  2  0
 15  1  1  0
 15 19  1  0
 16 15  2  0
 17 22  2  0
 18 17  1  0
 19 20  1  0
 19 18  2  0
 20 21  2  0
 21 22  1  0
 23 21  1  0
 23 25  1  0
 24 23  2  0
  1 26  1  6
  2 27  1  0
  2 28  1  0
  8 29  1  0
  8 30  1  0
  9 31  1  0
  9 32  1  0
 11 33  1  0
 12 34  1  0
 14 35  1  0
 17 36  1  0
 18 37  1  0
 25 38  1  0
M  ISO  8  26  13  27  13  28  13  29   8  30   8  31   8  32   8  33  14
M  ISO  5  34  14  35  14  36  14  37  14  38   3
M  END
>  <minimizedAffinity>  (1) 
-4.87390566

>  <minimizedRMSD>  (1) 
1.06019914

$$$$
