
     RDKit          3D

 31 33  0  0  1  0  0  0  0  0999 V2000
   46.4300   34.1540   40.9000 C   0  0  2  0  0  0  0  0  0  0  0  0
   47.5000   34.2680   39.9030 C   0  0  0  0  0  0  0  0  0  0  0  0
   48.7300   34.8430   40.6080 C   0  0  0  0  0  0  0  0  0  0  0  0
   48.3890   34.9410   42.0850 C   0  0  0  0  0  0  0  0  0  0  0  0
   46.9110   35.0530   42.0540 C   0  0  2  0  0  0  0  0  0  0  0  0
   46.1810   32.8230   41.4630 C   0  0  0  0  0  0  0  0  0  0  0  0
   47.2410   31.9160   41.6190 C   0  0  0  0  0  0  0  0  0  0  0  0
   46.9940   30.6620   42.1700 C   0  0  0  0  0  0  0  0  0  0  0  0
   45.6960   30.3900   42.5340 N   0  0  0  0  0  0  0  0  0  0  0  0
   44.6940   31.2880   42.3690 C   0  0  0  0  0  0  0  0  0  0  0  0
   44.9440   32.4930   41.8370 N   0  0  0  0  0  0  0  0  0  0  0  0
   46.2330   34.8890   43.3200 C   0  0  0  0  0  0  0  0  0  0  0  0
   45.2060   35.8180   43.5200 C   0  0  0  0  0  0  0  0  0  0  0  0
   44.4400   35.8580   44.6910 C   0  0  0  0  0  0  0  0  0  0  0  0
   44.6960   34.9670   45.6720 N   0  0  0  0  0  0  0  0  0  0  0  0
   45.6840   34.0730   45.4770 C   0  0  0  0  0  0  0  0  0  0  0  0
   46.4000   34.0520   44.3580 N   0  0  0  0  0  0  0  0  0  0  0  0
   45.4834   34.4212   40.4075 H   0  0  0  0  0  0  0  0  0  0  0  0
   47.1855   34.9393   39.0903 H   0  0  0  0  0  0  0  0  0  0  0  0
   47.7290   33.2840   39.4679 H   0  0  0  0  0  0  0  0  0  0  0  0
   49.5941   34.1779   40.4630 H   0  0  0  0  0  0  0  0  0  0  0  0
   48.9918   35.8300   40.1989 H   0  0  0  0  0  0  0  0  0  0  0  0
   48.7102   34.0410   42.6298 H   0  0  0  0  0  0  0  0  0  0  0  0
   48.8861   35.7761   42.6002 H   0  0  0  0  0  0  0  0  0  0  0  0
   46.6204   36.0951   41.8553 H   0  0  0  0  0  0  0  0  0  0  0  0
   48.2589   32.1942   41.3082 H   0  0  0  0  0  0  0  0  0  0  0  0
   47.7981   29.9241   42.3077 H   0  0  0  0  0  0  0  0  0  0  0  0
   43.6698   31.0265   42.6734 H   0  0  0  0  0  0  0  0  0  0  0  0
   44.9917   36.5468   42.7244 H   0  0  0  0  0  0  0  0  0  0  0  0
   43.6411   36.6047   44.8099 H   0  0  0  0  0  0  0  0  0  0  0  0
   45.9045   33.3394   46.2664 H   0  0  0  0  0  0  0  0  0  0  0  0
  1  6  1  0
  1  5  1  0
  2  3  1  0
  2  1  1  0
  3  4  1  0
  5  4  1  0
  5 12  1  0
  6  7  2  0
  6 11  1  0
  7  8  1  0
  8  9  2  0
 10  9  1  0
 11 10  2  0
 12 13  2  0
 12 17  1  0
 13 14  1  0
 14 15  2  0
 16 15  1  0
 17 16  2  0
  1 18  1  6
  2 19  1  0
  2 20  1  0
  3 21  1  0
  3 22  1  0
  4 23  1  0
  4 24  1  0
  5 25  1  6
  7 26  1  0
  8 27  1  0
 10 28  1  0
 13 29  1  0
 14 30  1  0
 16 31  1  0
M  ISO  8  18  13  19  13  20  13  21  13  22  13  23  13  24  13  25  13
M  ISO  6  26  14  27  14  28  14  29  14  30  14  31  14
M  END
>  <minimizedAffinity>  (1) 
-4.66492796

>  <minimizedRMSD>  (1) 
1.06374216

$$$$
