
     RDKit          3D

 37 40  0  0  1  0  0  0  0  0999 V2000
   44.6920   34.0610   41.9260 C   0  0  1  0  0  0  0  0  0  0  0  0
   45.4980   34.0930   40.6410 C   0  0  0  0  0  0  0  0  0  0  0  0
   46.9160   34.3540   41.0830 C   0  0  0  0  0  0  0  0  0  0  0  0
   46.7750   35.1580   42.3730 C   0  0  0  0  0  0  0  0  0  0  0  0
   45.2890   35.1950   42.6960 C   0  0  2  0  0  0  0  0  0  0  0  0
   45.0750   35.0490   44.1470 C   0  0  0  0  0  0  0  0  0  0  0  0
   44.4580   35.9340   45.0060 C   0  0  0  0  0  0  0  0  0  0  0  0
   44.5170   35.3370   46.2280 N   0  0  0  0  0  0  0  0  0  0  0  0
   45.1350   34.1420   46.1510 C   0  0  0  0  0  0  0  0  0  0  0  0
   45.4260   33.1860   47.1160 C   0  0  0  0  0  0  0  0  0  0  0  0
   46.0820   32.0250   46.7630 C   0  0  0  0  0  0  0  0  0  0  0  0
   46.4520   31.8100   45.4450 C   0  0  0  0  0  0  0  0  0  0  0  0
   46.1640   32.7600   44.4780 C   0  0  0  0  0  0  0  0  0  0  0  0
   45.5080   33.9240   44.8270 C   0  0  0  0  0  0  0  0  0  0  0  0
   41.4210   35.6750   41.2450 C   0  0  0  0  0  0  0  0  0  0  0  0
   40.5760   34.5580   41.0490 C   0  0  0  0  0  0  0  0  0  0  0  0
   41.1360   33.2830   41.1490 C   0  0  0  0  0  0  0  0  0  0  0  0
   42.4510   33.2040   41.4270 N   0  0  0  0  0  0  0  0  0  0  0  0
   43.2560   34.2740   41.6140 C   0  0  0  0  0  0  0  0  0  0  0  0
   42.7170   35.4930   41.5180 N   0  0  0  0  0  0  0  0  0  0  0  0
   44.7295   33.1130   42.4827 H   0  0  0  0  0  0  0  0  0  0  0  0
   45.1433   34.8983   39.9809 H   0  0  0  0  0  0  0  0  0  0  0  0
   45.4064   33.1575   40.0696 H   0  0  0  0  0  0  0  0  0  0  0  0
   47.4447   33.4078   41.2709 H   0  0  0  0  0  0  0  0  0  0  0  0
   47.4993   34.8893   40.3193 H   0  0  0  0  0  0  0  0  0  0  0  0
   47.3294   34.6698   43.1880 H   0  0  0  0  0  0  0  0  0  0  0  0
   47.1831   36.1729   42.2569 H   0  0  0  0  0  0  0  0  0  0  0  0
   44.8205   36.1505   42.4175 H   0  0  0  0  0  0  0  0  0  0  0  0
   44.0148   36.9097   44.7578 H   0  0  0  0  0  0  0  0  0  0  0  0
   44.1397   35.7443   47.0956 H   0  0  0  0  0  0  0  0  0  0  0  0
   45.1330   33.3550   48.1627 H   0  0  0  0  0  0  0  0  0  0  0  0
   46.3116   31.2691   47.5285 H   0  0  0  0  0  0  0  0  0  0  0  0
   46.9753   30.8836   45.1658 H   0  0  0  0  0  0  0  0  0  0  0  0
   46.4580   32.5868   43.4323 H   0  0  0  0  0  0  0  0  0  0  0  0
   41.0119   36.6935   41.1728 H   0  0  0  0  0  0  0  0  0  0  0  0
   39.5074   34.6901   40.8240 H   0  0  0  0  0  0  0  0  0  0  0  0
   40.5267   32.3784   41.0062 H   0  0  0  0  0  0  0  0  0  0  0  0
  1  5  1  0
  2  3  1  0
  2  1  1  0
  3  4  1  0
  4  5  1  0
  5  6  1  0
  6 14  1  0
  6  7  2  0
  7  8  1  0
  9  8  1  0
  9 10  2  0
 11 10  1  0
 12 11  2  0
 13 14  2  0
 13 12  1  0
 14  9  1  0
 15 20  2  0
 16 17  2  0
 16 15  1  0
 17 18  1  0
 18 19  2  0
 19  1  1  0
 20 19  1  0
  1 21  1  1
  2 22  1  0
  2 23  1  0
  3 24  1  0
  3 25  1  0
  4 26  1  0
  4 27  1  0
  5 28  1  6
  7 29  1  0
  8 30  1  0
 10 31  1  0
 11 32  1  0
 12 33  1  0
 13 34  1  0
 15 35  1  0
 16 36  1  0
 17 37  1  0
M  ISO  8  21  13  22  13  23  13  24  13  25  13  26  13  27  13  28  13
M  ISO  8  29  14  30   9  31  14  32  14  33  14  34  14  35  14  36  14
M  ISO  1  37  14
M  END
>  <minimizedAffinity>  (1) 
-6.53821468

>  <minimizedRMSD>  (1) 
6.03835964

$$$$
