
     RDKit          3D

 36 38  0  0  1  0  0  0  0  0999 V2000
   46.5080   35.0300   42.1680 C   0  0  1  0  0  0  0  0  0  0  0  0
   48.0280   35.1020   42.0860 C   0  0  0  0  0  0  0  0  0  0  0  0
   48.3520   34.9980   40.6190 C   0  0  0  0  0  0  0  0  0  0  0  0
   47.2180   34.1500   40.0420 C   0  0  0  0  0  0  0  0  0  0  0  0
   46.2230   33.9610   41.1610 C   0  0  2  0  0  0  0  0  0  0  0  0
   46.3060   33.2720   45.4320 C   0  0  0  0  0  0  0  0  0  0  0  0
   45.3210   34.0230   46.1050 C   0  0  0  0  0  0  0  0  0  0  0  0
   44.7430   35.1100   45.4430 C   0  0  0  0  0  0  0  0  0  0  0  0
   45.1660   35.3800   44.1850 N   0  0  0  0  0  0  0  0  0  0  0  0
   46.1110   34.6530   43.5490 C   0  0  0  0  0  0  0  0  0  0  0  0
   46.6580   33.6140   44.1930 N   0  0  0  0  0  0  0  0  0  0  0  0
   42.1650   34.4030   39.8150 C   0  0  0  0  0  0  0  0  0  0  0  0
   42.9080   33.2940   39.4300 C   0  0  0  0  0  0  0  0  0  0  0  0
   44.2050   33.1230   39.8430 C   0  0  0  0  0  0  0  0  0  0  0  0
   44.8310   34.0630   40.6690 C   0  0  0  0  0  0  0  0  0  0  0  0
   44.0780   35.1680   41.0470 C   0  0  0  0  0  0  0  0  0  0  0  0
   42.7710   35.3540   40.6400 C   0  0  0  0  0  0  0  0  0  0  0  0
   40.5070   34.6270   39.2920 S   0  0  0  0  0  0  0  0  0  0  0  0
   39.8710   35.6420   40.1960 O   0  0  0  0  0  0  0  0  0  0  0  0
   40.4710   35.0740   37.8500 O   0  0  0  0  0  0  0  0  0  0  0  0
   45.9617   35.9624   41.9628 H   0  0  0  0  0  0  0  0  0  0  0  0
   48.3911   36.0568   42.4941 H   0  0  0  0  0  0  0  0  0  0  0  0
   48.5086   34.3031   42.6698 H   0  0  0  0  0  0  0  0  0  0  0  0
   48.3704   35.9939   40.1523 H   0  0  0  0  0  0  0  0  0  0  0  0
   49.3426   34.5556   40.4373 H   0  0  0  0  0  0  0  0  0  0  0  0
   46.7457   34.6698   39.1954 H   0  0  0  0  0  0  0  0  0  0  0  0
   47.5894   33.1844   39.6682 H   0  0  0  0  0  0  0  0  0  0  0  0
   46.3232   32.9587   41.6030 H   0  0  0  0  0  0  0  0  0  0  0  0
   46.7802   32.4108   45.9255 H   0  0  0  0  0  0  0  0  0  0  0  0
   45.0142   33.7596   47.1280 H   0  0  0  0  0  0  0  0  0  0  0  0
   43.9706   35.7254   45.9274 H   0  0  0  0  0  0  0  0  0  0  0  0
   42.4462   32.5364   38.7798 H   0  0  0  0  0  0  0  0  0  0  0  0
   44.7624   32.2316   39.5192 H   0  0  0  0  0  0  0  0  0  0  0  0
   44.5413   35.9252   41.6966 H   0  0  0  0  0  0  0  0  0  0  0  0
   42.2115   36.2443   40.9631 H   0  0  0  0  0  0  0  0  0  0  0  0
   39.8120   33.4488   39.3675 H   0  0  0  0  0  0  0  0  0  0  0  0
  1 10  1  0
  2  1  1  0
  3  2  1  0
  4  3  1  0
  4  5  1  0
  5  1  1  0
  6  7  2  0
  8  7  1  0
  9  8  2  0
 10  9  1  0
 10 11  2  0
 11  6  1  0
 12 17  2  0
 13 12  1  0
 13 14  2  0
 14 15  1  0
 15 16  2  0
 15  5  1  0
 17 16  1  0
 18 12  1  0
 18 19  2  0
 20 18  2  0
  1 21  1  6
  2 22  1  0
  2 23  1  0
  3 24  1  0
  3 25  1  0
  4 26  1  0
  4 27  1  0
  5 28  1  1
  6 29  1  0
  7 30  1  0
  8 31  1  0
 13 32  1  0
 14 33  1  0
 16 34  1  0
 17 35  1  0
 18 36  1  0
M  ISO  8  21  13  22  13  23  13  24  13  25  13  26  13  27  13  28  13
M  ISO  8  29  14  30  14  31  14  32  14  33  14  34  14  35  14  36  11
M  END
>  <minimizedAffinity>  (1) 
-6.05551386

>  <minimizedRMSD>  (1) 
0.760325611

$$$$
