
     RDKit          3D

 26 27  0  0  1  0  0  0  0  0999 V2000
   47.7350   34.9300   41.3190 C   0  0  2  0  0  0  0  0  0  0  0  0
   48.9480   35.7050   41.5900 C   0  0  0  0  0  0  0  0  0  0  0  0
   49.8890   34.8360   42.4250 C   0  0  0  0  0  0  0  0  0  0  0  0
   49.2460   33.4790   42.5540 C   0  0  0  0  0  0  0  0  0  0  0  0
   47.8080   33.7440   42.3260 C   0  0  1  0  0  0  0  0  0  0  0  0
   47.6240   34.2950   39.9940 C   0  0  0  0  0  0  0  0  0  0  0  0
   48.4660   34.7330   38.9530 C   0  0  0  0  0  0  0  0  0  0  0  0
   48.3840   34.1230   37.7070 C   0  0  0  0  0  0  0  0  0  0  0  0
   47.4690   33.1120   37.5670 N   0  0  0  0  0  0  0  0  0  0  0  0
   46.6690   32.7110   38.5880 C   0  0  0  0  0  0  0  0  0  0  0  0
   46.7500   33.3040   39.7970 N   0  0  0  0  0  0  0  0  0  0  0  0
   47.0480   34.0800   43.5390 C   0  0  0  0  0  0  0  0  0  0  0  0
   46.0900   34.9120   43.6190 O   0  0  0  0  0  0  0  0  0  0  0  0
   47.4210   33.4140   44.7120 O   0  0  0  0  0  0  0  0  0  0  0  0
   46.8901   35.6308   41.3905 H   0  0  0  0  0  0  0  0  0  0  0  0
   49.4353   35.9786   40.6425 H   0  0  0  0  0  0  0  0  0  0  0  0
   48.6976   36.6278   42.1339 H   0  0  0  0  0  0  0  0  0  0  0  0
   50.8633   34.7451   41.9225 H   0  0  0  0  0  0  0  0  0  0  0  0
   50.0578   35.2837   43.4155 H   0  0  0  0  0  0  0  0  0  0  0  0
   49.6410   32.7851   41.7973 H   0  0  0  0  0  0  0  0  0  0  0  0
   49.4414   33.0076   43.5285 H   0  0  0  0  0  0  0  0  0  0  0  0
   47.3438   32.8213   41.9476 H   0  0  0  0  0  0  0  0  0  0  0  0
   49.1818   35.5504   39.1248 H   0  0  0  0  0  0  0  0  0  0  0  0
   49.0250   34.4375   36.8702 H   0  0  0  0  0  0  0  0  0  0  0  0
   45.9484   31.8954   38.4280 H   0  0  0  0  0  0  0  0  0  0  0  0
   46.9445   33.5999   45.5597 H   0  0  0  0  0  0  0  0  0  0  0  0
  1  2  1  0
  1  5  1  0
  2  3  1  0
  3  4  1  0
  5  4  1  0
  5 12  1  0
  6  1  1  0
  7  6  2  0
  8  7  1  0
  9  8  2  0
  9 10  1  0
 10 11  2  0
 11  6  1  0
 12 13  2  0
 12 14  1  0
  1 15  1  1
  2 16  1  0
  2 17  1  0
  3 18  1  0
  3 19  1  0
  4 20  1  0
  4 21  1  0
  5 22  1  6
  7 23  1  0
  8 24  1  0
 10 25  1  0
 14 26  1  0
M  ISO  8  15  13  16  13  17  13  18  13  19  13  20  13  21  13  22  13
M  ISO  4  23  14  24  14  25  14  26   3
M  END
>  <minimizedAffinity>  (1) 
-4.65293121

>  <minimizedRMSD>  (1) 
3.50020194

$$$$
