
     RDKit          3D

 36 39  0  0  1  0  0  0  0  0999 V2000
   46.5600   34.9590   42.2080 C   0  0  1  0  0  0  0  0  0  0  0  0
   48.0570   35.2110   42.1190 C   0  0  0  0  0  0  0  0  0  0  0  0
   48.3490   35.1870   40.6300 C   0  0  0  0  0  0  0  0  0  0  0  0
   47.3990   34.1040   40.1120 C   0  0  0  0  0  0  0  0  0  0  0  0
   46.3500   33.8980   41.1800 C   0  0  2  0  0  0  0  0  0  0  0  0
   46.5100   33.1350   45.4230 C   0  0  0  0  0  0  0  0  0  0  0  0
   45.4930   33.8130   46.1370 C   0  0  0  0  0  0  0  0  0  0  0  0
   44.8350   34.8920   45.5000 C   0  0  0  0  0  0  0  0  0  0  0  0
   45.2270   35.1990   44.2480 N   0  0  0  0  0  0  0  0  0  0  0  0
   46.1980   34.5350   43.5940 C   0  0  0  0  0  0  0  0  0  0  0  0
   46.8400   33.5060   44.1760 N   0  0  0  0  0  0  0  0  0  0  0  0
   45.0390   34.1000   40.5930 N   0  0  0  0  0  0  0  0  0  0  0  0
   44.1470   35.0720   40.8590 C   0  0  0  0  0  0  0  0  0  0  0  0
   43.0620   34.8550   40.0650 N   0  0  0  0  0  0  0  0  0  0  0  0
   43.3010   33.7430   39.3160 C   0  0  0  0  0  0  0  0  0  0  0  0
   42.5200   33.1010   38.3580 C   0  0  0  0  0  0  0  0  0  0  0  0
   43.0190   31.9840   37.7520 N   0  0  0  0  0  0  0  0  0  0  0  0
   44.2480   31.5740   38.1270 C   0  0  0  0  0  0  0  0  0  0  0  0
   45.0390   32.1620   39.0470 N   0  0  0  0  0  0  0  0  0  0  0  0
   44.5580   33.2660   39.6530 C   0  0  0  0  0  0  0  0  0  0  0  0
   41.2260   33.5680   37.9910 N   0  0  0  0  0  0  0  0  0  0  0  0
   45.9239   35.8360   42.0173 H   0  0  0  0  0  0  0  0  0  0  0  0
   48.3147   36.1890   42.5517 H   0  0  0  0  0  0  0  0  0  0  0  0
   48.6442   34.4662   42.6762 H   0  0  0  0  0  0  0  0  0  0  0  0
   48.1287   36.1606   40.1679 H   0  0  0  0  0  0  0  0  0  0  0  0
   49.4051   34.9853   40.3979 H   0  0  0  0  0  0  0  0  0  0  0  0
   46.9260   34.4317   39.1745 H   0  0  0  0  0  0  0  0  0  0  0  0
   47.9407   33.1694   39.9046 H   0  0  0  0  0  0  0  0  0  0  0  0
   46.4204   32.8889   41.6121 H   0  0  0  0  0  0  0  0  0  0  0  0
   47.0367   32.2932   45.8963 H   0  0  0  0  0  0  0  0  0  0  0  0
   45.2216   33.5096   47.1589 H   0  0  0  0  0  0  0  0  0  0  0  0
   44.0374   35.4561   46.0056 H   0  0  0  0  0  0  0  0  0  0  0  0
   44.2713   35.8903   41.5836 H   0  0  0  0  0  0  0  0  0  0  0  0
   44.6431   30.6731   37.6348 H   0  0  0  0  0  0  0  0  0  0  0  0
   40.6799   33.0644   37.2775 H   0  0  0  0  0  0  0  0  0  0  0  0
   40.8360   34.4095   38.4390 H   0  0  0  0  0  0  0  0  0  0  0  0
  1 10  1  0
  2  1  1  0
  3  2  1  0
  4  3  1  0
  4  5  1  0
  5  1  1  0
  6  7  2  0
  8  7  1  0
  9  8  2  0
 10 11  2  0
 10  9  1  0
 11  6  1  0
 12 13  1  0
 12  5  1  0
 14 13  2  0
 15 20  2  0
 15 14  1  0
 16 15  1  0
 17 18  1  0
 17 16  2  0
 18 19  2  0
 19 20  1  0
 20 12  1  0
 21 16  1  0
  1 22  1  6
  2 23  1  0
  2 24  1  0
  3 25  1  0
  3 26  1  0
  4 27  1  0
  4 28  1  0
  5 29  1  1
  6 30  1  0
  7 31  1  0
  8 32  1  0
 13 33  1  0
 18 34  1  0
 21 35  1  0
 21 36  1  0
M  ISO  8  22  13  23  13  24  13  25  13  26  13  27  13  28  13  29  13
M  ISO  5  30  14  31  14  32  14  33  14  34  14
M  END
>  <minimizedAffinity>  (1) 
-5.75451088

>  <minimizedRMSD>  (1) 
1.69627893

$$$$
