
     RDKit          3D

 34 37  0  0  1  0  0  0  0  0999 V2000
   46.4910   35.0450   42.1840 C   0  0  1  0  0  0  0  0  0  0  0  0
   48.0200   35.0380   42.0860 C   0  0  0  0  0  0  0  0  0  0  0  0
   48.3300   34.8910   40.6200 C   0  0  0  0  0  0  0  0  0  0  0  0
   47.1260   34.1920   40.0350 C   0  0  0  0  0  0  0  0  0  0  0  0
   46.1170   34.0370   41.1720 C   0  0  2  0  0  0  0  0  0  0  0  0
   44.7690   34.2750   40.6980 N   0  0  0  0  0  0  0  0  0  0  0  0
   43.9710   35.3040   41.0440 C   0  0  0  0  0  0  0  0  0  0  0  0
   42.7880   35.2060   40.4120 N   0  0  0  0  0  0  0  0  0  0  0  0
   42.8280   34.0970   39.6480 C   0  0  0  0  0  0  0  0  0  0  0  0
   41.8750   33.5590   38.8170 C   0  0  0  0  0  0  0  0  0  0  0  0
   42.2290   32.4290   38.1890 N   0  0  0  0  0  0  0  0  0  0  0  0
   43.4530   31.8630   38.3740 C   0  0  0  0  0  0  0  0  0  0  0  0
   44.3790   32.3830   39.1810 N   0  0  0  0  0  0  0  0  0  0  0  0
   44.0800   33.5170   39.8370 C   0  0  0  0  0  0  0  0  0  0  0  0
   46.2950   33.2790   45.4460 C   0  0  0  0  0  0  0  0  0  0  0  0
   45.3200   34.0070   46.1300 C   0  0  0  0  0  0  0  0  0  0  0  0
   44.7360   35.0950   45.4740 C   0  0  0  0  0  0  0  0  0  0  0  0
   45.1510   35.3850   44.2050 N   0  0  0  0  0  0  0  0  0  0  0  0
   46.0930   34.6630   43.5740 C   0  0  0  0  0  0  0  0  0  0  0  0
   46.6480   33.6230   44.2070 N   0  0  0  0  0  0  0  0  0  0  0  0
   46.0002   36.0119   41.9993 H   0  0  0  0  0  0  0  0  0  0  0  0
   48.4341   35.9805   42.4736 H   0  0  0  0  0  0  0  0  0  0  0  0
   48.4626   34.2246   42.6796 H   0  0  0  0  0  0  0  0  0  0  0  0
   48.4692   35.8773   40.1533 H   0  0  0  0  0  0  0  0  0  0  0  0
   49.2591   34.3278   40.4482 H   0  0  0  0  0  0  0  0  0  0  0  0
   46.6937   34.7956   39.2234 H   0  0  0  0  0  0  0  0  0  0  0  0
   47.4010   33.2144   39.6122 H   0  0  0  0  0  0  0  0  0  0  0  0
   46.1352   33.0183   41.5865 H   0  0  0  0  0  0  0  0  0  0  0  0
   44.2471   36.1078   41.7423 H   0  0  0  0  0  0  0  0  0  0  0  0
   40.8882   34.0243   38.6766 H   0  0  0  0  0  0  0  0  0  0  0  0
   43.6892   30.9346   37.8334 H   0  0  0  0  0  0  0  0  0  0  0  0
   46.7749   32.4166   45.9318 H   0  0  0  0  0  0  0  0  0  0  0  0
   45.0206   33.7335   47.1525 H   0  0  0  0  0  0  0  0  0  0  0  0
   43.9623   35.7019   45.9670 H   0  0  0  0  0  0  0  0  0  0  0  0
  1 19  1  0
  2  1  1  0
  3  2  1  0
  4  3  1  0
  4  5  1  0
  5  1  1  0
  6  7  1  0
  6  5  1  0
  8  7  2  0
  9 14  2  0
  9  8  1  0
 10  9  1  0
 11 12  1  0
 11 10  2  0
 12 13  2  0
 13 14  1  0
 14  6  1  0
 15 16  2  0
 17 16  1  0
 18 17  2  0
 19 18  1  0
 19 20  2  0
 20 15  1  0
  1 21  1  6
  2 22  1  0
  2 23  1  0
  3 24  1  0
  3 25  1  0
  4 26  1  0
  4 27  1  0
  5 28  1  1
  7 29  1  0
 10 30  1  0
 12 31  1  0
 15 32  1  0
 16 33  1  0
 17 34  1  0
M  ISO  8  21  13  22  13  23  13  24  13  25  13  26  13  27  13  28  13
M  ISO  6  29  14  30  14  31  14  32  14  33  14  34  14
M  END
>  <minimizedAffinity>  (1) 
-5.58460617

>  <minimizedRMSD>  (1) 
1.42137718

$$$$
