
     RDKit          3D

 38 40  0  0  1  0  0  0  0  0999 V2000
   45.0540   35.1550   42.0130 C   0  0  2  0  0  0  0  0  0  0  0  0
   43.7890   35.7100   41.5410 C   0  0  0  0  0  0  0  0  0  0  0  0
   42.9950   34.5870   40.8700 C   0  0  0  0  0  0  0  0  0  0  0  0
   43.8040   33.3250   41.0220 C   0  0  0  0  0  0  0  0  0  0  0  0
   45.1800   33.8080   41.2520 C   0  0  1  0  0  0  0  0  0  0  0  0
   45.1440   34.8090   43.4470 C   0  0  0  0  0  0  0  0  0  0  0  0
   44.4940   35.6140   44.3980 C   0  0  0  0  0  0  0  0  0  0  0  0
   44.5720   35.2600   45.7420 C   0  0  0  0  0  0  0  0  0  0  0  0
   45.2850   34.1360   46.0590 N   0  0  0  0  0  0  0  0  0  0  0  0
   45.9030   33.3780   45.1090 C   0  0  0  0  0  0  0  0  0  0  0  0
   45.8280   33.7200   43.8190 N   0  0  0  0  0  0  0  0  0  0  0  0
   46.0310   33.9150   40.1370 N   0  0  0  0  0  0  0  0  0  0  0  0
   47.3720   34.3260   40.4970 C   0  0  0  0  0  0  0  0  0  0  0  0
   48.3330   33.2520   40.0990 C   0  0  0  0  0  0  0  0  0  0  0  0
   48.4120   33.2870   38.5750 C   0  0  0  0  0  0  0  0  0  0  0  0
   46.9990   33.3980   38.0480 C   0  0  0  0  0  0  0  0  0  0  0  0
   45.9780   32.9490   39.1100 C   0  0  0  0  0  0  0  0  0  0  0  0
   45.8243   35.9224   41.8464 H   0  0  0  0  0  0  0  0  0  0  0  0
   43.2188   36.1127   42.3911 H   0  0  0  0  0  0  0  0  0  0  0  0
   43.9748   36.5242   40.8251 H   0  0  0  0  0  0  0  0  0  0  0  0
   42.8460   34.8143   39.8041 H   0  0  0  0  0  0  0  0  0  0  0  0
   42.0033   34.4761   41.3330 H   0  0  0  0  0  0  0  0  0  0  0  0
   43.4488   32.7338   41.8789 H   0  0  0  0  0  0  0  0  0  0  0  0
   43.7280   32.6654   40.1450 H   0  0  0  0  0  0  0  0  0  0  0  0
   45.6962   33.0283   41.8313 H   0  0  0  0  0  0  0  0  0  0  0  0
   43.9337   36.5077   44.0860 H   0  0  0  0  0  0  0  0  0  0  0  0
   44.0789   35.8613   46.5200 H   0  0  0  0  0  0  0  0  0  0  0  0
   46.4660   32.4807   45.4056 H   0  0  0  0  0  0  0  0  0  0  0  0
   47.6247   35.2598   39.9733 H   0  0  0  0  0  0  0  0  0  0  0  0
   47.4307   34.4939   41.5825 H   0  0  0  0  0  0  0  0  0  0  0  0
   49.3236   33.4469   40.5358 H   0  0  0  0  0  0  0  0  0  0  0  0
   48.0010   32.2668   40.4584 H   0  0  0  0  0  0  0  0  0  0  0  0
   49.0033   34.1556   38.2496 H   0  0  0  0  0  0  0  0  0  0  0  0
   48.8977   32.3775   38.1917 H   0  0  0  0  0  0  0  0  0  0  0  0
   46.7978   34.4445   37.7751 H   0  0  0  0  0  0  0  0  0  0  0  0
   46.9003   32.7450   37.1683 H   0  0  0  0  0  0  0  0  0  0  0  0
   44.9682   32.9086   38.6757 H   0  0  0  0  0  0  0  0  0  0  0  0
   46.2107   31.9438   39.4914 H   0  0  0  0  0  0  0  0  0  0  0  0
  1  6  1  0
  2  1  1  0
  3  4  1  0
  3  2  1  0
  4  5  1  0
  5  1  1  0
  6 11  1  0
  6  7  2  0
  7  8  1  0
  8  9  2  0
 10  9  1  0
 11 10  2  0
 12 13  1  0
 12  5  1  0
 14 13  1  0
 15 14  1  0
 16 15  1  0
 16 17  1  0
 17 12  1  0
  1 18  1  6
  2 19  1  0
  2 20  1  0
  3 21  1  0
  3 22  1  0
  4 23  1  0
  4 24  1  0
  5 25  1  1
  7 26  1  0
  8 27  1  0
 10 28  1  0
 13 29  1  0
 13 30  1  0
 14 31  1  0
 14 32  1  0
 15 33  1  0
 15 34  1  0
 16 35  1  0
 16 36  1  0
 17 37  1  0
 17 38  1  0
M  ISO  8  18  13  19  13  20  13  21  13  22  13  23  13  24  13  25  13
M  ISO  8  26  14  27  14  28  14  29  13  30  13  31  13  32  13  33  13
M  ISO  5  34  13  35  13  36  13  37  13  38  13
M  END
>  <minimizedAffinity>  (1) 
-4.58581638

>  <minimizedRMSD>  (1) 
5.02522326

$$$$
