
     RDKit          3D

 31 33  0  0  1  0  0  0  0  0999 V2000
   46.4890   34.9770   42.1530 C   0  0  1  0  0  0  0  0  0  0  0  0
   47.9930   35.1400   42.0550 C   0  0  0  0  0  0  0  0  0  0  0  0
   48.2940   35.0480   40.5790 C   0  0  0  0  0  0  0  0  0  0  0  0
   47.2530   34.0720   40.0580 C   0  0  0  0  0  0  0  0  0  0  0  0
   46.2400   33.8870   41.1650 C   0  0  2  0  0  0  0  0  0  0  0  0
   46.3270   33.2700   45.4320 C   0  0  0  0  0  0  0  0  0  0  0  0
   45.3480   34.0220   46.1100 C   0  0  0  0  0  0  0  0  0  0  0  0
   44.7530   35.1030   45.4370 C   0  0  0  0  0  0  0  0  0  0  0  0
   45.1550   35.3660   44.1690 N   0  0  0  0  0  0  0  0  0  0  0  0
   46.0970   34.6300   43.5400 C   0  0  0  0  0  0  0  0  0  0  0  0
   46.6600   33.6010   44.1850 N   0  0  0  0  0  0  0  0  0  0  0  0
   44.8930   34.1220   40.5780 C   0  0  0  0  0  0  0  0  0  0  0  0
   44.0180   35.0810   41.0240 C   0  0  0  0  0  0  0  0  0  0  0  0
   42.7940   35.2100   40.4050 C   0  0  0  0  0  0  0  0  0  0  0  0
   42.4610   34.3990   39.3650 N   0  0  0  0  0  0  0  0  0  0  0  0
   43.3280   33.4670   38.9420 C   0  0  0  0  0  0  0  0  0  0  0  0
   44.5210   33.3350   39.5400 N   0  0  0  0  0  0  0  0  0  0  0  0
   45.8989   35.8789   41.9333 H   0  0  0  0  0  0  0  0  0  0  0  0
   48.3040   36.1168   42.4540 H   0  0  0  0  0  0  0  0  0  0  0  0
   48.5325   34.3788   42.6376 H   0  0  0  0  0  0  0  0  0  0  0  0
   48.1874   36.0301   40.0952 H   0  0  0  0  0  0  0  0  0  0  0  0
   49.3242   34.7213   40.3741 H   0  0  0  0  0  0  0  0  0  0  0  0
   46.7645   34.4813   39.1614 H   0  0  0  0  0  0  0  0  0  0  0  0
   47.7139   33.1131   39.7785 H   0  0  0  0  0  0  0  0  0  0  0  0
   46.3074   32.8894   41.6234 H   0  0  0  0  0  0  0  0  0  0  0  0
   46.8127   32.4166   45.9278 H   0  0  0  0  0  0  0  0  0  0  0  0
   45.0564   33.7697   47.1402 H   0  0  0  0  0  0  0  0  0  0  0  0
   43.9829   35.7183   45.9252 H   0  0  0  0  0  0  0  0  0  0  0  0
   44.2903   35.7372   41.8638 H   0  0  0  0  0  0  0  0  0  0  0  0
   42.0823   35.9728   40.7536 H   0  0  0  0  0  0  0  0  0  0  0  0
   43.0596   32.8091   38.1022 H   0  0  0  0  0  0  0  0  0  0  0  0
  1 10  1  0
  2  1  1  0
  3  2  1  0
  4  3  1  0
  4  5  1  0
  5  1  1  0
  6  7  2  0
  8  7  1  0
  9  8  2  0
 10  9  1  0
 10 11  2  0
 11  6  1  0
 12 13  2  0
 12  5  1  0
 14 13  1  0
 15 14  2  0
 16 15  1  0
 16 17  2  0
 17 12  1  0
  1 18  1  6
  2 19  1  0
  2 20  1  0
  3 21  1  0
  3 22  1  0
  4 23  1  0
  4 24  1  0
  5 25  1  1
  6 26  1  0
  7 27  1  0
  8 28  1  0
 13 29  1  0
 14 30  1  0
 16 31  1  0
M  ISO  8  18  13  19  13  20  13  21  13  22  13  23  13  24  13  25  13
M  ISO  6  26  14  27  14  28  14  29  14  30  14  31  14
M  END
>  <minimizedAffinity>  (1) 
-5.31758976

>  <minimizedRMSD>  (1) 
0.766006231

$$$$
