
     RDKit          3D

 31 33  0  0  1  0  0  0  0  0999 V2000
   46.5400   35.2390   41.9650 C   0  0  1  0  0  0  0  0  0  0  0  0
   48.0600   35.2810   42.0320 C   0  0  0  0  0  0  0  0  0  0  0  0
   48.4980   35.0840   40.5950 C   0  0  0  0  0  0  0  0  0  0  0  0
   47.4320   34.1860   40.0040 C   0  0  0  0  0  0  0  0  0  0  0  0
   46.2990   34.1110   41.0130 C   0  0  2  0  0  0  0  0  0  0  0  0
   45.8810   33.6600   45.2570 C   0  0  0  0  0  0  0  0  0  0  0  0
   44.9480   34.5300   45.8280 C   0  0  0  0  0  0  0  0  0  0  0  0
   44.5440   35.6610   45.0850 C   0  0  0  0  0  0  0  0  0  0  0  0
   45.0880   35.8410   43.8540 N   0  0  0  0  0  0  0  0  0  0  0  0
   45.9830   34.9870   43.3290 C   0  0  0  0  0  0  0  0  0  0  0  0
   46.3600   33.9170   44.0400 N   0  0  0  0  0  0  0  0  0  0  0  0
   44.9730   34.1030   40.3820 C   0  0  0  0  0  0  0  0  0  0  0  0
   43.8770   34.8500   40.7570 C   0  0  0  0  0  0  0  0  0  0  0  0
   42.6650   34.7690   40.0920 C   0  0  0  0  0  0  0  0  0  0  0  0
   42.5110   33.9330   39.0260 N   0  0  0  0  0  0  0  0  0  0  0  0
   43.5760   33.2220   38.6780 C   0  0  0  0  0  0  0  0  0  0  0  0
   44.7380   33.2970   39.3130 N   0  0  0  0  0  0  0  0  0  0  0  0
   46.0568   36.1695   41.6324 H   0  0  0  0  0  0  0  0  0  0  0  0
   48.4074   36.2512   42.4167 H   0  0  0  0  0  0  0  0  0  0  0  0
   48.4743   34.5188   42.7083 H   0  0  0  0  0  0  0  0  0  0  0  0
   48.5369   36.0461   40.0632 H   0  0  0  0  0  0  0  0  0  0  0  0
   49.5061   34.6509   40.5165 H   0  0  0  0  0  0  0  0  0  0  0  0
   47.0658   34.6085   39.0567 H   0  0  0  0  0  0  0  0  0  0  0  0
   47.8363   33.1845   39.7952 H   0  0  0  0  0  0  0  0  0  0  0  0
   46.2941   33.1566   41.5599 H   0  0  0  0  0  0  0  0  0  0  0  0
   46.2176   32.7695   45.8081 H   0  0  0  0  0  0  0  0  0  0  0  0
   44.5387   34.3386   46.8309 H   0  0  0  0  0  0  0  0  0  0  0  0
   43.8113   36.3740   45.4909 H   0  0  0  0  0  0  0  0  0  0  0  0
   43.9682   35.5338   41.6138 H   0  0  0  0  0  0  0  0  0  0  0  0
   41.8179   35.3854   40.4272 H   0  0  0  0  0  0  0  0  0  0  0  0
   43.4910   32.5372   37.8214 H   0  0  0  0  0  0  0  0  0  0  0  0
  1  2  1  0
  1 10  1  0
  3  2  1  0
  4  3  1  0
  4  5  1  0
  5  1  1  0
  6  7  2  0
  8  7  1  0
  9  8  2  0
 10  9  1  0
 10 11  2  0
 11  6  1  0
 12 13  2  0
 12  5  1  0
 14 13  1  0
 15 14  2  0
 16 15  1  0
 16 17  2  0
 17 12  1  0
  1 18  1  6
  2 19  1  0
  2 20  1  0
  3 21  1  0
  3 22  1  0
  4 23  1  0
  4 24  1  0
  5 25  1  1
  6 26  1  0
  7 27  1  0
  8 28  1  0
 13 29  1  0
 14 30  1  0
 16 31  1  0
M  ISO  8  18  13  19  13  20  13  21  13  22  13  23  13  24  13  25  13
M  ISO  6  26  14  27  14  28  14  29  14  30  14  31  14
M  END
>  <minimizedAffinity>  (1) 
-5.30368948

>  <minimizedRMSD>  (1) 
0.395741105

$$$$
