
     RDKit          3D

 39 41  0  0  1  0  0  0  0  0999 V2000
   46.1920   34.9090   42.2580 C   0  0  1  0  0  0  0  0  0  0  0  0
   47.7090   35.0910   42.1010 C   0  0  0  0  0  0  0  0  0  0  0  0
   48.0220   34.8450   40.6580 C   0  0  0  0  0  0  0  0  0  0  0  0
   46.8900   33.9840   40.1540 C   0  0  0  0  0  0  0  0  0  0  0  0
   45.8980   33.8260   41.3050 C   0  0  2  0  0  0  0  0  0  0  0  0
   46.1740   33.3210   45.5940 C   0  0  0  0  0  0  0  0  0  0  0  0
   45.2490   34.0950   46.2940 C   0  0  0  0  0  0  0  0  0  0  0  0
   44.6360   35.1570   45.6240 C   0  0  0  0  0  0  0  0  0  0  0  0
   44.9950   35.3490   44.3410 N   0  0  0  0  0  0  0  0  0  0  0  0
   45.8870   34.6020   43.6700 C   0  0  0  0  0  0  0  0  0  0  0  0
   46.4690   33.5870   44.3180 N   0  0  0  0  0  0  0  0  0  0  0  0
   44.4730   33.8850   40.8030 C   0  0  0  0  0  0  0  0  0  0  0  0
   43.6320   32.8740   41.5310 C   0  0  0  0  0  0  0  0  0  0  0  0
   42.1600   33.0240   41.2540 C   0  0  0  0  0  0  0  0  0  0  0  0
   41.8580   34.2800   40.4630 C   0  0  0  0  0  0  0  0  0  0  0  0
   42.4950   35.3880   41.2760 C   0  0  0  0  0  0  0  0  0  0  0  0
   43.9920   35.2950   40.9720 C   0  0  0  0  0  0  0  0  0  0  0  0
   45.5712   35.7899   42.0374 H   0  0  0  0  0  0  0  0  0  0  0  0
   47.9999   36.1135   42.3835 H   0  0  0  0  0  0  0  0  0  0  0  0
   48.2613   34.3963   42.7508 H   0  0  0  0  0  0  0  0  0  0  0  0
   48.0620   35.7943   40.1038 H   0  0  0  0  0  0  0  0  0  0  0  0
   49.0006   34.3607   40.5243 H   0  0  0  0  0  0  0  0  0  0  0  0
   46.3996   34.4693   39.2973 H   0  0  0  0  0  0  0  0  0  0  0  0
   47.2622   33.0039   39.8210 H   0  0  0  0  0  0  0  0  0  0  0  0
   46.0023   32.8462   41.7939 H   0  0  0  0  0  0  0  0  0  0  0  0
   46.6684   32.4786   46.0999 H   0  0  0  0  0  0  0  0  0  0  0  0
   45.0085   33.8755   47.3447 H   0  0  0  0  0  0  0  0  0  0  0  0
   43.8972   35.8036   46.1201 H   0  0  0  0  0  0  0  0  0  0  0  0
   44.4017   33.6225   39.7372 H   0  0  0  0  0  0  0  0  0  0  0  0
   43.9464   31.8670   41.2194 H   0  0  0  0  0  0  0  0  0  0  0  0
   43.7821   33.0362   42.6086 H   0  0  0  0  0  0  0  0  0  0  0  0
   41.8156   32.1511   40.6800 H   0  0  0  0  0  0  0  0  0  0  0  0
   41.6376   33.0958   42.2194 H   0  0  0  0  0  0  0  0  0  0  0  0
   42.3038   34.2262   39.4588 H   0  0  0  0  0  0  0  0  0  0  0  0
   40.7798   34.4342   40.3094 H   0  0  0  0  0  0  0  0  0  0  0  0
   42.0990   36.3678   40.9706 H   0  0  0  0  0  0  0  0  0  0  0  0
   42.2853   35.2836   42.3508 H   0  0  0  0  0  0  0  0  0  0  0  0
   44.5468   35.7567   41.8021 H   0  0  0  0  0  0  0  0  0  0  0  0
   44.1655   35.8164   40.0191 H   0  0  0  0  0  0  0  0  0  0  0  0
  1 10  1  0
  2  1  1  0
  3  2  1  0
  4  3  1  0
  4  5  1  0
  5  1  1  0
  6  7  2  0
  8  7  1  0
  9  8  2  0
 10 11  2  0
 10  9  1  0
 11  6  1  0
 12 17  1  0
 12  5  1  0
 12 13  1  0
 14 13  1  0
 15 14  1  0
 15 16  1  0
 17 16  1  0
  1 18  1  6
  2 19  1  0
  2 20  1  0
  3 21  1  0
  3 22  1  0
  4 23  1  0
  4 24  1  0
  5 25  1  1
  6 26  1  0
  7 27  1  0
  8 28  1  0
 12 29  1  0
 13 30  1  0
 13 31  1  0
 14 32  1  0
 14 33  1  0
 15 34  1  0
 15 35  1  0
 16 36  1  0
 16 37  1  0
 17 38  1  0
 17 39  1  0
M  ISO  8  18  13  19  13  20  13  21  13  22  13  23  13  24  13  25  13
M  ISO  8  26  14  27  14  28  14  29  13  30  13  31  13  32  13  33  13
M  ISO  6  34  13  35  13  36  13  37  13  38  13  39  13
M  END
>  <minimizedAffinity>  (1) 
-5.19336987

>  <minimizedRMSD>  (1) 
0.878247857

$$$$
