
     RDKit          3D

 30 32  0  0  1  0  0  0  0  0999 V2000
   46.4740   35.1330   42.1040 C   0  0  1  0  0  0  0  0  0  0  0  0
   47.9870   35.2780   42.1300 C   0  0  0  0  0  0  0  0  0  0  0  0
   48.4420   35.0660   40.7080 C   0  0  0  0  0  0  0  0  0  0  0  0
   47.3940   34.1480   40.1150 C   0  0  0  0  0  0  0  0  0  0  0  0
   46.2900   33.9920   41.1550 C   0  0  2  0  0  0  0  0  0  0  0  0
   45.9060   33.5580   45.3950 C   0  0  0  0  0  0  0  0  0  0  0  0
   44.9870   34.4180   45.9970 C   0  0  0  0  0  0  0  0  0  0  0  0
   44.5660   35.5370   45.2710 C   0  0  0  0  0  0  0  0  0  0  0  0
   45.0740   35.7220   44.0190 N   0  0  0  0  0  0  0  0  0  0  0  0
   45.9580   34.8740   43.4680 C   0  0  0  0  0  0  0  0  0  0  0  0
   46.3630   33.8010   44.1640 N   0  0  0  0  0  0  0  0  0  0  0  0
   44.9850   34.1720   40.4670 C   0  0  0  0  0  0  0  0  0  0  0  0
   43.9900   35.0030   40.9340 C   0  0  0  0  0  0  0  0  0  0  0  0
   42.9540   34.8850   40.0150 C   0  0  0  0  0  0  0  0  0  0  0  0
   43.3360   34.0120   39.0430 N   0  0  0  0  0  0  0  0  0  0  0  0
   44.5740   33.5850   39.3310 N   0  0  0  0  0  0  0  0  0  0  0  0
   45.9185   36.0263   41.7823 H   0  0  0  0  0  0  0  0  0  0  0  0
   48.2701   36.2826   42.4775 H   0  0  0  0  0  0  0  0  0  0  0  0
   48.4522   34.5558   42.8170 H   0  0  0  0  0  0  0  0  0  0  0  0
   48.4772   36.0210   40.1633 H   0  0  0  0  0  0  0  0  0  0  0  0
   49.4553   34.6420   40.6489 H   0  0  0  0  0  0  0  0  0  0  0  0
   46.9846   34.5888   39.1941 H   0  0  0  0  0  0  0  0  0  0  0  0
   47.8304   33.1711   39.8596 H   0  0  0  0  0  0  0  0  0  0  0  0
   46.3207   33.0154   41.6603 H   0  0  0  0  0  0  0  0  0  0  0  0
   46.2580   32.6700   45.9404 H   0  0  0  0  0  0  0  0  0  0  0  0
   44.6057   34.2223   47.0101 H   0  0  0  0  0  0  0  0  0  0  0  0
   43.8444   36.2488   45.6985 H   0  0  0  0  0  0  0  0  0  0  0  0
   44.0111   35.6263   41.8401 H   0  0  0  0  0  0  0  0  0  0  0  0
   41.9880   35.4089   40.0648 H   0  0  0  0  0  0  0  0  0  0  0  0
   42.7725   33.7289   38.2286 H   0  0  0  0  0  0  0  0  0  0  0  0
  1  2  1  0
  1 10  1  0
  3  2  1  0
  4  3  1  0
  4  5  1  0
  5  1  1  0
  6  7  2  0
  8  7  1  0
  9  8  2  0
 10  9  1  0
 10 11  2  0
 11  6  1  0
 12 13  1  0
 12  5  1  0
 14 13  2  0
 15 16  1  0
 15 14  1  0
 16 12  2  0
  1 17  1  6
  2 18  1  0
  2 19  1  0
  3 20  1  0
  3 21  1  0
  4 22  1  0
  4 23  1  0
  5 24  1  1
  6 25  1  0
  7 26  1  0
  8 27  1  0
 13 28  1  0
 14 29  1  0
 15 30  1  0
M  ISO  8  17  13  18  13  19  13  20  13  21  13  22  13  23  13  24  13
M  ISO  6  25  14  26  14  27  14  28  14  29  14  30   9
M  END
>  <minimizedAffinity>  (1) 
-5.14923239

>  <minimizedRMSD>  (1) 
0.568257928

$$$$
