
     RDKit          3D

 28 30  0  0  1  0  0  0  0  0999 V2000
   46.5440   35.0360   42.2250 C   0  0  1  0  0  0  0  0  0  0  0  0
   48.0670   35.0210   42.1280 C   0  0  0  0  0  0  0  0  0  0  0  0
   48.3740   34.9020   40.6540 C   0  0  0  0  0  0  0  0  0  0  0  0
   47.1720   34.1730   40.0730 C   0  0  0  0  0  0  0  0  0  0  0  0
   46.1830   34.0040   41.2020 C   0  0  2  0  0  0  0  0  0  0  0  0
   46.3270   33.3050   45.4960 C   0  0  0  0  0  0  0  0  0  0  0  0
   45.3190   34.0280   46.1490 C   0  0  0  0  0  0  0  0  0  0  0  0
   44.7240   35.0980   45.4670 C   0  0  0  0  0  0  0  0  0  0  0  0
   45.1640   35.3630   44.2210 N   0  0  0  0  0  0  0  0  0  0  0  0
   46.1320   34.6620   43.6010 C   0  0  0  0  0  0  0  0  0  0  0  0
   46.7080   33.6310   44.2520 N   0  0  0  0  0  0  0  0  0  0  0  0
   44.8120   34.2930   40.7050 C   0  0  0  0  0  0  0  0  0  0  0  0
   43.8910   35.2590   40.9390 N   0  0  0  0  0  0  0  0  0  0  0  0
   42.8450   34.9960   40.2060 O   0  0  0  0  0  0  0  0  0  0  0  0
   43.0130   33.9130   39.4970 C   0  0  0  0  0  0  0  0  0  0  0  0
   44.2430   33.4570   39.7970 N   0  0  0  0  0  0  0  0  0  0  0  0
   46.0559   36.0046   42.0414 H   0  0  0  0  0  0  0  0  0  0  0  0
   48.4877   35.9524   42.5347 H   0  0  0  0  0  0  0  0  0  0  0  0
   48.5055   34.1936   42.7052 H   0  0  0  0  0  0  0  0  0  0  0  0
   48.4832   35.8970   40.1979 H   0  0  0  0  0  0  0  0  0  0  0  0
   49.3179   34.3699   40.4647 H   0  0  0  0  0  0  0  0  0  0  0  0
   46.7243   34.7658   39.2617 H   0  0  0  0  0  0  0  0  0  0  0  0
   47.4638   33.1995   39.6520 H   0  0  0  0  0  0  0  0  0  0  0  0
   46.2100   32.9831   41.6107 H   0  0  0  0  0  0  0  0  0  0  0  0
   46.8108   32.4610   46.0095 H   0  0  0  0  0  0  0  0  0  0  0  0
   45.0037   33.7627   47.1689 H   0  0  0  0  0  0  0  0  0  0  0  0
   43.9280   35.6988   45.9311 H   0  0  0  0  0  0  0  0  0  0  0  0
   42.2943   33.4638   38.7959 H   0  0  0  0  0  0  0  0  0  0  0  0
  1 10  1  0
  2  1  1  0
  3  2  1  0
  4  3  1  0
  4  5  1  0
  5  1  1  0
  6  7  2  0
  8  7  1  0
  9  8  2  0
 10  9  1  0
 10 11  2  0
 11  6  1  0
 12 13  2  0
 12  5  1  0
 14 13  1  0
 15 16  2  0
 15 14  1  0
 16 12  1  0
  1 17  1  6
  2 18  1  0
  2 19  1  0
  3 20  1  0
  3 21  1  0
  4 22  1  0
  4 23  1  0
  5 24  1  1
  6 25  1  0
  7 26  1  0
  8 27  1  0
 15 28  1  0
M  ISO  8  17  13  18  13  19  13  20  13  21  13  22  13  23  13  24  13
M  ISO  4  25  14  26  14  27  14  28  14
M  END
>  <minimizedAffinity>  (1) 
-5.04383326

>  <minimizedRMSD>  (1) 
0.68002665

$$$$
