
     RDKit          3D

 38 40  0  0  1  0  0  0  0  0999 V2000
   46.4870   35.2290   41.9990 C   0  0  1  0  0  0  0  0  0  0  0  0
   48.0070   35.2730   42.0510 C   0  0  0  0  0  0  0  0  0  0  0  0
   48.4840   35.0130   40.6500 C   0  0  0  0  0  0  0  0  0  0  0  0
   47.4040   34.1370   40.0520 C   0  0  0  0  0  0  0  0  0  0  0  0
   46.2470   34.1230   41.0450 C   0  0  2  0  0  0  0  0  0  0  0  0
   45.8840   33.6510   45.3090 C   0  0  0  0  0  0  0  0  0  0  0  0
   44.9590   34.5150   45.8950 C   0  0  0  0  0  0  0  0  0  0  0  0
   44.5450   35.6440   45.1490 C   0  0  0  0  0  0  0  0  0  0  0  0
   45.0720   35.8220   43.9030 N   0  0  0  0  0  0  0  0  0  0  0  0
   45.9610   34.9690   43.3710 C   0  0  0  0  0  0  0  0  0  0  0  0
   46.3460   33.9050   44.0860 N   0  0  0  0  0  0  0  0  0  0  0  0
   45.0670   34.1620   40.2600 N   0  0  0  0  0  0  0  0  0  0  0  0
   43.8610   34.5820   40.8510 C   0  0  0  0  0  0  0  0  0  0  0  0
   43.1610   33.5260   41.6780 C   0  0  0  0  0  0  0  0  0  0  0  0
   43.1940   32.1710   41.0270 C   0  0  0  0  0  0  0  0  0  0  0  0
   43.5050   32.4030   39.5540 C   0  0  0  0  0  0  0  0  0  0  0  0
   44.9320   32.9320   39.5430 C   0  0  0  0  0  0  0  0  0  0  0  0
   45.9851   36.1539   41.6787 H   0  0  0  0  0  0  0  0  0  0  0  0
   48.3481   36.2615   42.3923 H   0  0  0  0  0  0  0  0  0  0  0  0
   48.4050   34.5265   42.7541 H   0  0  0  0  0  0  0  0  0  0  0  0
   48.5796   35.9541   40.0885 H   0  0  0  0  0  0  0  0  0  0  0  0
   49.4767   34.5400   40.6217 H   0  0  0  0  0  0  0  0  0  0  0  0
   47.0711   34.5508   39.0887 H   0  0  0  0  0  0  0  0  0  0  0  0
   47.7785   33.1191   39.8684 H   0  0  0  0  0  0  0  0  0  0  0  0
   46.1462   33.2319   41.6820 H   0  0  0  0  0  0  0  0  0  0  0  0
   46.2311   32.7619   45.8558 H   0  0  0  0  0  0  0  0  0  0  0  0
   44.5642   34.3250   46.9040 H   0  0  0  0  0  0  0  0  0  0  0  0
   43.8181   36.3587   45.5623 H   0  0  0  0  0  0  0  0  0  0  0  0
   44.0800   35.4394   41.5043 H   0  0  0  0  0  0  0  0  0  0  0  0
   43.1799   34.8310   40.0239 H   0  0  0  0  0  0  0  0  0  0  0  0
   43.6566   33.4591   42.6578 H   0  0  0  0  0  0  0  0  0  0  0  0
   42.1068   33.8237   41.7782 H   0  0  0  0  0  0  0  0  0  0  0  0
   43.9757   31.5482   41.4864 H   0  0  0  0  0  0  0  0  0  0  0  0
   42.2347   31.6475   41.1521 H   0  0  0  0  0  0  0  0  0  0  0  0
   43.4352   31.4617   38.9892 H   0  0  0  0  0  0  0  0  0  0  0  0
   42.7972   33.1007   39.0825 H   0  0  0  0  0  0  0  0  0  0  0  0
   45.5899   32.1809   40.0045 H   0  0  0  0  0  0  0  0  0  0  0  0
   45.2085   33.1242   38.4958 H   0  0  0  0  0  0  0  0  0  0  0  0
  1  2  1  0
  1 10  1  0
  3  2  1  0
  4  3  1  0
  4  5  1  0
  5  1  1  0
  6  7  2  0
  8  7  1  0
  9  8  2  0
 10  9  1  0
 10 11  2  0
 11  6  1  0
 12 13  1  0
 12  5  1  0
 13 14  1  0
 15 14  1  0
 16 15  1  0
 17 16  1  0
 17 12  1  0
  1 18  1  6
  2 19  1  0
  2 20  1  0
  3 21  1  0
  3 22  1  0
  4 23  1  0
  4 24  1  0
  5 25  1  1
  6 26  1  0
  7 27  1  0
  8 28  1  0
 13 29  1  0
 13 30  1  0
 14 31  1  0
 14 32  1  0
 15 33  1  0
 15 34  1  0
 16 35  1  0
 16 36  1  0
 17 37  1  0
 17 38  1  0
M  ISO  8  18  13  19  13  20  13  21  13  22  13  23  13  24  13  25  13
M  ISO  8  26  14  27  14  28  14  29  13  30  13  31  13  32  13  33  13
M  ISO  5  34  13  35  13  36  13  37  13  38  13
M  END
>  <minimizedAffinity>  (1) 
-4.90472603

>  <minimizedRMSD>  (1) 
0.881541669

$$$$
