
     RDKit          3D

 26 27  0  0  1  0  0  0  0  0999 V2000
   46.5380   34.9760   42.0910 C   0  0  1  0  0  0  0  0  0  0  0  0
   48.0530   35.2810   42.0800 C   0  0  0  0  0  0  0  0  0  0  0  0
   48.4480   35.1820   40.6230 C   0  0  0  0  0  0  0  0  0  0  0  0
   47.5220   34.1210   40.0760 C   0  0  0  0  0  0  0  0  0  0  0  0
   46.4620   33.8690   41.1320 C   0  0  2  0  0  0  0  0  0  0  0  0
   46.3680   33.3050   45.3970 C   0  0  0  0  0  0  0  0  0  0  0  0
   45.3720   34.0310   46.0480 C   0  0  0  0  0  0  0  0  0  0  0  0
   44.7660   35.0810   45.3550 C   0  0  0  0  0  0  0  0  0  0  0  0
   45.1690   35.3520   44.0820 N   0  0  0  0  0  0  0  0  0  0  0  0
   46.1480   34.6170   43.4820 C   0  0  0  0  0  0  0  0  0  0  0  0
   46.7400   33.6000   44.1410 N   0  0  0  0  0  0  0  0  0  0  0  0
   45.1450   33.7880   40.3660 C   0  0  0  0  0  0  0  0  0  0  0  0
   45.3430   33.5670   39.0200 F   0  0  0  0  0  0  0  0  0  0  0  0
   44.4560   34.9700   40.5900 F   0  0  0  0  0  0  0  0  0  0  0  0
   44.4220   32.7620   40.9520 F   0  0  0  0  0  0  0  0  0  0  0  0
   45.8563   35.7928   41.8113 H   0  0  0  0  0  0  0  0  0  0  0  0
   48.2492   36.2913   42.4684 H   0  0  0  0  0  0  0  0  0  0  0  0
   48.6239   34.5889   42.7164 H   0  0  0  0  0  0  0  0  0  0  0  0
   48.2936   36.1417   40.1080 H   0  0  0  0  0  0  0  0  0  0  0  0
   49.5109   34.9352   40.4838 H   0  0  0  0  0  0  0  0  0  0  0  0
   47.0521   34.4729   39.1457 H   0  0  0  0  0  0  0  0  0  0  0  0
   48.0748   33.1980   39.8471 H   0  0  0  0  0  0  0  0  0  0  0  0
   46.5824   32.9426   41.7128 H   0  0  0  0  0  0  0  0  0  0  0  0
   46.8594   32.4732   45.9230 H   0  0  0  0  0  0  0  0  0  0  0  0
   45.0722   33.7841   47.0772 H   0  0  0  0  0  0  0  0  0  0  0  0
   43.9752   35.6803   45.8297 H   0  0  0  0  0  0  0  0  0  0  0  0
  1 10  1  0
  2  1  1  0
  3  2  1  0
  4  3  1  0
  4  5  1  0
  5  1  1  0
  6  7  2  0
  8  7  1  0
  9  8  2  0
 10  9  1  0
 10 11  2  0
 11  6  1  0
 12 14  1  0
 12 15  1  0
 12  5  1  0
 13 12  1  0
  1 16  1  6
  2 17  1  0
  2 18  1  0
  3 19  1  0
  3 20  1  0
  4 21  1  0
  4 22  1  0
  5 23  1  1
  6 24  1  0
  7 25  1  0
  8 26  1  0
M  ISO  8  16  13  17  13  18  13  19  13  20  13  21  13  22  13  23  13
M  ISO  3  24  14  25  14  26  14
M  END
>  <minimizedAffinity>  (1) 
-4.72640371

>  <minimizedRMSD>  (1) 
0.620670557

$$$$
