
     RDKit          3D

 26 27  0  0  1  0  0  0  0  0999 V2000
   46.6000   35.1400   41.9630 C   0  0  1  0  0  0  0  0  0  0  0  0
   48.1090   35.3380   42.0170 C   0  0  0  0  0  0  0  0  0  0  0  0
   48.5520   35.1470   40.5850 C   0  0  0  0  0  0  0  0  0  0  0  0
   47.5670   34.1480   40.0020 C   0  0  0  0  0  0  0  0  0  0  0  0
   46.4840   33.9680   41.0410 C   0  0  2  0  0  0  0  0  0  0  0  0
   46.0400   33.6030   45.2790 C   0  0  0  0  0  0  0  0  0  0  0  0
   45.0560   34.4240   45.8410 C   0  0  0  0  0  0  0  0  0  0  0  0
   44.5880   35.5100   45.0700 C   0  0  0  0  0  0  0  0  0  0  0  0
   45.1250   35.6780   43.8400 N   0  0  0  0  0  0  0  0  0  0  0  0
   46.0720   34.8680   43.3280 C   0  0  0  0  0  0  0  0  0  0  0  0
   46.5280   33.8340   44.0490 N   0  0  0  0  0  0  0  0  0  0  0  0
   45.1120   33.8880   40.4140 C   0  0  0  0  0  0  0  0  0  0  0  0
   46.0205   36.0076   41.6145 H   0  0  0  0  0  0  0  0  0  0  0  0
   48.3587   36.3486   42.3724 H   0  0  0  0  0  0  0  0  0  0  0  0
   48.6037   34.6420   42.7105 H   0  0  0  0  0  0  0  0  0  0  0  0
   48.5084   36.0992   40.0360 H   0  0  0  0  0  0  0  0  0  0  0  0
   49.5911   34.7928   40.5164 H   0  0  0  0  0  0  0  0  0  0  0  0
   47.1375   34.5372   39.0671 H   0  0  0  0  0  0  0  0  0  0  0  0
   48.0580   33.1926   39.7652 H   0  0  0  0  0  0  0  0  0  0  0  0
   46.6115   33.0196   41.5835 H   0  0  0  0  0  0  0  0  0  0  0  0
   46.4225   32.7492   45.8575 H   0  0  0  0  0  0  0  0  0  0  0  0
   44.6607   34.2298   46.8490 H   0  0  0  0  0  0  0  0  0  0  0  0
   43.8164   36.1932   45.4547 H   0  0  0  0  0  0  0  0  0  0  0  0
   44.3492   33.8435   41.2053 H   0  0  0  0  0  0  0  0  0  0  0  0
   44.9416   34.7777   39.7900 H   0  0  0  0  0  0  0  0  0  0  0  0
   45.0461   32.9845   39.7900 H   0  0  0  0  0  0  0  0  0  0  0  0
  1  2  1  0
  1 10  1  0
  3  2  1  0
  4  3  1  0
  4  5  1  0
  5  1  1  0
  6  7  2  0
  8  7  1  0
  9  8  2  0
 10  9  1  0
 10 11  2  0
 11  6  1  0
 12  5  1  0
  1 13  1  6
  2 14  1  0
  2 15  1  0
  3 16  1  0
  3 17  1  0
  4 18  1  0
  4 19  1  0
  5 20  1  1
  6 21  1  0
  7 22  1  0
  8 23  1  0
 12 24  1  0
 12 25  1  0
 12 26  1  0
M  ISO  8  13  13  14  13  15  13  16  13  17  13  18  13  19  13  20  13
M  ISO  6  21  14  22  14  23  14  24   8  25   8  26   8
M  END
>  <minimizedAffinity>  (1) 
-4.52557516

>  <minimizedRMSD>  (1) 
0.179465234

$$$$
