
     RDKit          3D

 30 32  0  0  1  0  0  0  0  0999 V2000
   46.6790   35.1760   42.1480 C   0  0  1  0  0  0  0  0  0  0  0  0
   48.1580   34.8250   42.1640 C   0  0  0  0  0  0  0  0  0  0  0  0
   48.5270   34.6820   40.7000 C   0  0  0  0  0  0  0  0  0  0  0  0
   47.2610   34.1720   40.0470 C   0  0  0  0  0  0  0  0  0  0  0  0
   46.1500   34.3060   41.0580 C   0  0  1  0  0  0  0  0  0  0  0  0
   46.0000   33.7060   45.4650 C   0  0  0  0  0  0  0  0  0  0  0  0
   44.9420   34.5160   45.9420 C   0  0  0  0  0  0  0  0  0  0  0  0
   44.4730   35.5630   45.1130 C   0  0  0  0  0  0  0  0  0  0  0  0
   45.0700   35.7270   43.9050 N   0  0  0  0  0  0  0  0  0  0  0  0
   46.0730   34.9430   43.4740 C   0  0  0  0  0  0  0  0  0  0  0  0
   46.5130   33.9570   44.2580 N   0  0  0  0  0  0  0  0  0  0  0  0
   45.5430   33.0540   41.4370 C   0  0  0  0  0  0  0  0  0  0  0  0
   46.1100   31.8230   41.5500 C   0  0  0  0  0  0  0  0  0  0  0  0
   45.4040   30.7180   41.9230 C   0  0  0  0  0  0  0  0  0  0  0  0
   43.9530   31.0290   42.1890 C   0  0  0  0  0  0  0  0  0  0  0  0
   43.7710   32.8500   41.8750 S   0  0  0  0  0  0  0  0  0  0  0  0
   46.4526   36.2349   41.9542 H   0  0  0  0  0  0  0  0  0  0  0  0
   48.7435   35.6274   42.6365 H   0  0  0  0  0  0  0  0  0  0  0  0
   48.3661   33.9114   42.7403 H   0  0  0  0  0  0  0  0  0  0  0  0
   48.8214   35.6530   40.2751 H   0  0  0  0  0  0  0  0  0  0  0  0
   49.3825   34.0082   40.5447 H   0  0  0  0  0  0  0  0  0  0  0  0
   47.0309   34.7705   39.1532 H   0  0  0  0  0  0  0  0  0  0  0  0
   47.3789   33.1240   39.7343 H   0  0  0  0  0  0  0  0  0  0  0  0
   45.2645   34.7997   40.6311 H   0  0  0  0  0  0  0  0  0  0  0  0
   46.3936   32.8825   46.0790 H   0  0  0  0  0  0  0  0  0  0  0  0
   44.4958   34.3365   46.9313 H   0  0  0  0  0  0  0  0  0  0  0  0
   43.6530   36.2211   45.4365 H   0  0  0  0  0  0  0  0  0  0  0  0
   47.1826   31.7144   41.3314 H   0  0  0  0  0  0  0  0  0  0  0  0
   45.8430   29.7140   42.0189 H   0  0  0  0  0  0  0  0  0  0  0  0
   43.1678   30.3255   42.5029 H   0  0  0  0  0  0  0  0  0  0  0  0
  1  2  1  0
  1 10  1  0
  3  2  1  0
  4  3  1  0
  4  5  1  0
  5 12  1  0
  5  1  1  0
  6  7  2  0
  8  7  1  0
  9  8  2  0
 10  9  1  0
 10 11  2  0
 11  6  1  0
 12 13  2  0
 12 16  1  0
 13 14  1  0
 14 15  2  0
 16 15  1  0
  1 17  1  6
  2 18  1  0
  2 19  1  0
  3 20  1  0
  3 21  1  0
  4 22  1  0
  4 23  1  0
  5 24  1  6
  6 25  1  0
  7 26  1  0
  8 27  1  0
 13 28  1  0
 14 29  1  0
 15 30  1  0
M  ISO  8  17  13  18  13  19  13  20  13  21  13  22  13  23  13  24  13
M  ISO  6  25  14  26  14  27  14  28  14  29  14  30  14
M  END
>  <minimizedAffinity>  (1) 
-4.42785025

>  <minimizedRMSD>  (1) 
0.772029996

$$$$
