
     RDKit          3D

 29 30  0  0  1  0  0  0  0  0999 V2000
   46.4680   34.9270   42.1000 C   0  0  1  0  0  0  0  0  0  0  0  0
   47.9400   35.2830   42.0280 C   0  0  0  0  0  0  0  0  0  0  0  0
   48.3320   35.0890   40.5780 C   0  0  0  0  0  0  0  0  0  0  0  0
   47.3990   33.9980   40.0840 C   0  0  0  0  0  0  0  0  0  0  0  0
   46.3680   33.7600   41.1780 C   0  0  2  0  0  0  0  0  0  0  0  0
   46.3330   33.2740   45.4180 C   0  0  0  0  0  0  0  0  0  0  0  0
   45.3680   34.0210   46.0940 C   0  0  0  0  0  0  0  0  0  0  0  0
   44.7570   35.1000   45.4080 C   0  0  0  0  0  0  0  0  0  0  0  0
   45.1600   35.3260   44.1390 N   0  0  0  0  0  0  0  0  0  0  0  0
   46.0930   34.5920   43.5060 C   0  0  0  0  0  0  0  0  0  0  0  0
   46.6720   33.5710   44.1570 N   0  0  0  0  0  0  0  0  0  0  0  0
   45.0130   33.7470   40.4890 C   0  0  0  0  0  0  0  0  0  0  0  0
   44.1760   34.9580   40.8490 C   0  0  0  0  0  0  0  0  0  0  0  0
   45.7830   35.7377   41.8108 H   0  0  0  0  0  0  0  0  0  0  0  0
   48.0982   36.3281   42.3326 H   0  0  0  0  0  0  0  0  0  0  0  0
   48.5447   34.6581   42.7017 H   0  0  0  0  0  0  0  0  0  0  0  0
   48.1846   36.0171   40.0063 H   0  0  0  0  0  0  0  0  0  0  0  0
   49.3926   34.8224   40.4598 H   0  0  0  0  0  0  0  0  0  0  0  0
   46.8993   34.3197   39.1584 H   0  0  0  0  0  0  0  0  0  0  0  0
   47.9571   33.0757   39.8652 H   0  0  0  0  0  0  0  0  0  0  0  0
   46.5158   32.8231   41.7352 H   0  0  0  0  0  0  0  0  0  0  0  0
   46.8217   32.4303   45.9273 H   0  0  0  0  0  0  0  0  0  0  0  0
   45.0893   33.7793   47.1303 H   0  0  0  0  0  0  0  0  0  0  0  0
   43.9893   35.7251   45.8874 H   0  0  0  0  0  0  0  0  0  0  0  0
   44.4706   32.8390   40.7912 H   0  0  0  0  0  0  0  0  0  0  0  0
   45.1863   33.7671   39.4029 H   0  0  0  0  0  0  0  0  0  0  0  0
   44.1136   35.0483   41.9435 H   0  0  0  0  0  0  0  0  0  0  0  0
   44.6423   35.8630   40.4324 H   0  0  0  0  0  0  0  0  0  0  0  0
   43.1646   34.8417   40.4324 H   0  0  0  0  0  0  0  0  0  0  0  0
  1 10  1  0
  2  1  1  0
  3  2  1  0
  4  3  1  0
  4  5  1  0
  5  1  1  0
  6  7  2  0
  8  7  1  0
  9  8  2  0
 10  9  1  0
 10 11  2  0
 11  6  1  0
 12 13  1  0
 12  5  1  0
  1 14  1  6
  2 15  1  0
  2 16  1  0
  3 17  1  0
  3 18  1  0
  4 19  1  0
  4 20  1  0
  5 21  1  1
  6 22  1  0
  7 23  1  0
  8 24  1  0
 12 25  1  0
 12 26  1  0
 13 27  1  0
 13 28  1  0
 13 29  1  0
M  ISO  8  14  13  15  13  16  13  17  13  18  13  19  13  20  13  21  13
M  ISO  8  22  14  23  14  24  14  25   8  26   8  27   8  28   8  29   8
M  END
>  <minimizedAffinity>  (1) 
-4.39733648

>  <minimizedRMSD>  (1) 
0.616295815

$$$$
