
     RDKit          3D

 30 32  0  0  1  0  0  0  0  0999 V2000
   46.8370   34.9210   42.0550 C   0  0  1  0  0  0  0  0  0  0  0  0
   48.0490   33.9770   42.1410 C   0  0  0  0  0  0  0  0  0  0  0  0
   48.4470   33.7040   40.7130 C   0  0  0  0  0  0  0  0  0  0  0  0
   47.1510   33.8400   39.9380 C   0  0  0  0  0  0  0  0  0  0  0  0
   46.1000   34.3840   40.9090 C   0  0  1  0  0  0  0  0  0  0  0  0
   45.6390   33.9320   45.3870 C   0  0  0  0  0  0  0  0  0  0  0  0
   44.7180   34.9460   45.7030 C   0  0  0  0  0  0  0  0  0  0  0  0
   44.5260   35.9770   44.7530 C   0  0  0  0  0  0  0  0  0  0  0  0
   45.2320   35.9430   43.5820 N   0  0  0  0  0  0  0  0  0  0  0  0
   46.1100   34.9300   43.3360 C   0  0  0  0  0  0  0  0  0  0  0  0
   46.2940   33.9570   44.2310 N   0  0  0  0  0  0  0  0  0  0  0  0
   45.0830   33.3310   41.1050 C   0  0  0  0  0  0  0  0  0  0  0  0
   43.7120   33.5420   41.5920 C   0  0  0  0  0  0  0  0  0  0  0  0
   43.9320   33.3040   40.1160 C   0  0  0  0  0  0  0  0  0  0  0  0
   47.0655   35.9856   41.8986 H   0  0  0  0  0  0  0  0  0  0  0  0
   48.8745   34.4594   42.6849 H   0  0  0  0  0  0  0  0  0  0  0  0
   47.8077   33.0503   42.6823 H   0  0  0  0  0  0  0  0  0  0  0  0
   49.1886   34.4389   40.3666 H   0  0  0  0  0  0  0  0  0  0  0  0
   48.9147   32.7166   40.5855 H   0  0  0  0  0  0  0  0  0  0  0  0
   47.2853   34.5374   39.0980 H   0  0  0  0  0  0  0  0  0  0  0  0
   46.8378   32.8693   39.5261 H   0  0  0  0  0  0  0  0  0  0  0  0
   45.4920   35.2350   40.5683 H   0  0  0  0  0  0  0  0  0  0  0  0
   45.8184   33.1139   46.1001 H   0  0  0  0  0  0  0  0  0  0  0  0
   44.1664   34.9382   46.6547 H   0  0  0  0  0  0  0  0  0  0  0  0
   43.8184   36.7949   44.9536 H   0  0  0  0  0  0  0  0  0  0  0  0
   45.8801   32.6641   41.4653 H   0  0  0  0  0  0  0  0  0  0  0  0
   43.2241   32.7688   42.2036 H   0  0  0  0  0  0  0  0  0  0  0  0
   43.2154   34.3276   42.1804 H   0  0  0  0  0  0  0  0  0  0  0  0
   43.7997   34.1246   39.3955 H   0  0  0  0  0  0  0  0  0  0  0  0
   43.5526   32.5942   39.3661 H   0  0  0  0  0  0  0  0  0  0  0  0
  1  2  1  0
  1 10  1  0
  3  2  1  0
  4  3  1  0
  4  5  1  0
  5 12  1  0
  5  1  1  0
  6  7  2  0
  8  7  1  0
  9  8  2  0
 10  9  1  0
 10 11  2  0
 11  6  1  0
 12 13  1  0
 14 12  1  0
 14 13  1  0
  1 15  1  6
  2 16  1  0
  2 17  1  0
  3 18  1  0
  3 19  1  0
  4 20  1  0
  4 21  1  0
  5 22  1  6
  6 23  1  0
  7 24  1  0
  8 25  1  0
 12 26  1  0
 13 27  1  0
 13 28  1  0
 14 29  1  0
 14 30  1  0
M  ISO  8  15  13  16  13  17  13  18  13  19  13  20  13  21  13  22  13
M  ISO  8  23  14  24  14  25  14  26  13  27  13  28  13  29  13  30  13
M  END
>  <minimizedAffinity>  (1) 
-4.20066118

>  <minimizedRMSD>  (1) 
1.47753799

$$$$
