
     RDKit          3D

 24 25  0  0  1  0  0  0  0  0999 V2000
   47.0060   34.8920   42.0550 C   0  0  1  0  0  0  0  0  0  0  0  0
   48.1910   33.9500   42.1730 C   0  0  0  0  0  0  0  0  0  0  0  0
   48.6240   33.7220   40.7420 C   0  0  0  0  0  0  0  0  0  0  0  0
   47.3210   33.7980   39.9440 C   0  0  0  0  0  0  0  0  0  0  0  0
   46.2610   34.3150   40.8950 C   0  0  1  0  0  0  0  0  0  0  0  0
   45.7480   33.9360   45.4070 C   0  0  0  0  0  0  0  0  0  0  0  0
   44.7500   34.9070   45.6370 C   0  0  0  0  0  0  0  0  0  0  0  0
   44.5220   35.8680   44.6500 C   0  0  0  0  0  0  0  0  0  0  0  0
   45.2710   35.8280   43.5100 N   0  0  0  0  0  0  0  0  0  0  0  0
   46.2230   34.8770   43.3270 C   0  0  0  0  0  0  0  0  0  0  0  0
   46.4490   33.9500   44.2680 N   0  0  0  0  0  0  0  0  0  0  0  0
   45.1070   33.0090   41.3830 S   0  0  0  0  0  0  0  0  0  0  0  0
   47.2583   35.9507   41.8956 H   0  0  0  0  0  0  0  0  0  0  0  0
   49.0005   34.4119   42.7572 H   0  0  0  0  0  0  0  0  0  0  0  0
   47.9365   33.0139   42.6916 H   0  0  0  0  0  0  0  0  0  0  0  0
   49.3274   34.5029   40.4173 H   0  0  0  0  0  0  0  0  0  0  0  0
   49.1483   32.7646   40.6059 H   0  0  0  0  0  0  0  0  0  0  0  0
   47.4363   34.4861   39.0936 H   0  0  0  0  0  0  0  0  0  0  0  0
   47.0451   32.8128   39.5398 H   0  0  0  0  0  0  0  0  0  0  0  0
   45.6274   35.0800   40.4224 H   0  0  0  0  0  0  0  0  0  0  0  0
   45.9498   33.1660   46.1662 H   0  0  0  0  0  0  0  0  0  0  0  0
   44.1668   34.9068   46.5697 H   0  0  0  0  0  0  0  0  0  0  0  0
   43.7533   36.6425   44.7887 H   0  0  0  0  0  0  0  0  0  0  0  0
   45.0464   32.9405   42.7499 H   0  0  0  0  0  0  0  0  0  0  0  0
  1  2  1  0
  1 10  1  0
  3  2  1  0
  4  3  1  0
  4  5  1  0
  5 12  1  0
  5  1  1  0
  6  7  2  0
  8  7  1  0
  9  8  2  0
 10  9  1  0
 10 11  2  0
 11  6  1  0
  1 13  1  6
  2 14  1  0
  2 15  1  0
  3 16  1  0
  3 17  1  0
  4 18  1  0
  4 19  1  0
  5 20  1  6
  6 21  1  0
  7 22  1  0
  8 23  1  0
 12 24  1  0
M  ISO  8  13  13  14  13  15  13  16  13  17  13  18  13  19  13  20  13
M  ISO  4  21  14  22  14  23  14  24  11
M  END
>  <minimizedAffinity>  (1) 
-3.96675897

>  <minimizedRMSD>  (1) 
0.801770747

$$$$
