
     RDKit          3D

 24 25  0  0  1  0  0  0  0  0999 V2000
   47.8160   34.9280   41.6240 C   0  0  2  0  0  0  0  0  0  0  0  0
   49.0640   35.6810   41.7710 C   0  0  0  0  0  0  0  0  0  0  0  0
   50.0800   34.7520   42.4350 C   0  0  0  0  0  0  0  0  0  0  0  0
   49.4390   33.3860   42.5440 C   0  0  0  0  0  0  0  0  0  0  0  0
   47.9870   33.6930   42.5540 C   0  0  1  0  0  0  0  0  0  0  0  0
   47.5060   34.3800   40.2970 C   0  0  0  0  0  0  0  0  0  0  0  0
   48.3650   34.6630   39.2230 C   0  0  0  0  0  0  0  0  0  0  0  0
   48.0950   34.1370   37.9600 C   0  0  0  0  0  0  0  0  0  0  0  0
   46.9700   33.3530   37.8490 N   0  0  0  0  0  0  0  0  0  0  0  0
   46.1600   33.1000   38.9050 C   0  0  0  0  0  0  0  0  0  0  0  0
   46.4290   33.6080   40.1130 N   0  0  0  0  0  0  0  0  0  0  0  0
   47.5850   34.1360   43.8240 O   0  0  0  0  0  0  0  0  0  0  0  0
   47.0032   35.6351   41.8462 H   0  0  0  0  0  0  0  0  0  0  0  0
   49.4317   35.9966   40.7835 H   0  0  0  0  0  0  0  0  0  0  0  0
   48.9050   36.5831   42.3800 H   0  0  0  0  0  0  0  0  0  0  0  0
   50.9915   34.6920   41.8221 H   0  0  0  0  0  0  0  0  0  0  0  0
   50.3609   35.1301   43.4291 H   0  0  0  0  0  0  0  0  0  0  0  0
   49.7032   32.7563   41.6816 H   0  0  0  0  0  0  0  0  0  0  0  0
   49.7675   32.8247   43.4312 H   0  0  0  0  0  0  0  0  0  0  0  0
   47.4129   32.8026   42.2581 H   0  0  0  0  0  0  0  0  0  0  0  0
   49.2494   35.2985   39.3776 H   0  0  0  0  0  0  0  0  0  0  0  0
   48.7474   34.3384   37.0976 H   0  0  0  0  0  0  0  0  0  0  0  0
   45.2697   32.4688   38.7674 H   0  0  0  0  0  0  0  0  0  0  0  0
   48.0579   33.6148   44.5203 H   0  0  0  0  0  0  0  0  0  0  0  0
  1  2  1  0
  1  5  1  0
  2  3  1  0
  3  4  1  0
  4  5  1  0
  5 12  1  0
  6  1  1  0
  7  6  2  0
  8  7  1  0
  9  8  2  0
  9 10  1  0
 10 11  2  0
 11  6  1  0
  1 13  1  1
  2 14  1  0
  2 15  1  0
  3 16  1  0
  3 17  1  0
  4 18  1  0
  4 19  1  0
  5 20  1  6
  7 21  1  0
  8 22  1  0
 10 23  1  0
 12 24  1  0
M  ISO  8  13  13  14  13  15  13  16  13  17  13  18  13  19  13  20  13
M  ISO  4  21  14  22  14  23  14  24   3
M  END
>  <minimizedAffinity>  (1) 
-4.31359863

>  <minimizedRMSD>  (1) 
3.34058762

$$$$
