
     RDKit          3D

 30 32  0  0  1  0  0  0  0  0999 V2000
   46.1840   34.3600   41.0780 C   0  0  2  0  0  0  0  0  0  0  0  0
   47.3130   34.2240   40.1500 C   0  0  0  0  0  0  0  0  0  0  0  0
   48.5880   34.5520   40.9240 C   0  0  0  0  0  0  0  0  0  0  0  0
   48.2000   34.7430   42.3760 C   0  0  0  0  0  0  0  0  0  0  0  0
   46.7610   35.1490   42.2650 C   0  0  2  0  0  0  0  0  0  0  0  0
   45.6320   33.1160   41.6320 C   0  0  0  0  0  0  0  0  0  0  0  0
   46.4750   32.0210   41.8810 C   0  0  0  0  0  0  0  0  0  0  0  0
   45.9390   30.8500   42.4270 C   0  0  0  0  0  0  0  0  0  0  0  0
   44.5920   30.8600   42.6860 N   0  0  0  0  0  0  0  0  0  0  0  0
   43.8050   31.9200   42.4390 C   0  0  0  0  0  0  0  0  0  0  0  0
   44.3360   33.0260   41.9180 N   0  0  0  0  0  0  0  0  0  0  0  0
   46.0190   35.0700   43.4680 N   0  0  0  0  0  0  0  0  0  0  0  0
   46.1360   34.2090   44.4630 N   0  0  0  0  0  0  0  0  0  0  0  0
   45.2340   34.4310   45.4350 C   0  0  0  0  0  0  0  0  0  0  0  0
   44.4590   35.5300   45.0520 C   0  0  0  0  0  0  0  0  0  0  0  0
   44.9880   35.8970   43.8110 C   0  0  0  0  0  0  0  0  0  0  0  0
   45.3546   34.8197   40.5205 H   0  0  0  0  0  0  0  0  0  0  0  0
   47.1940   34.9233   39.3093 H   0  0  0  0  0  0  0  0  0  0  0  0
   47.3590   33.2026   39.7441 H   0  0  0  0  0  0  0  0  0  0  0  0
   49.3068   33.7243   40.8326 H   0  0  0  0  0  0  0  0  0  0  0  0
   49.0612   35.4616   40.5255 H   0  0  0  0  0  0  0  0  0  0  0  0
   48.3084   33.8077   42.9447 H   0  0  0  0  0  0  0  0  0  0  0  0
   48.8263   35.4732   42.9094 H   0  0  0  0  0  0  0  0  0  0  0  0
   46.6833   36.2287   42.0697 H   0  0  0  0  0  0  0  0  0  0  0  0
   47.5483   32.0836   41.6485 H   0  0  0  0  0  0  0  0  0  0  0  0
   46.5636   29.9692   42.6372 H   0  0  0  0  0  0  0  0  0  0  0  0
   42.7294   31.8757   42.6652 H   0  0  0  0  0  0  0  0  0  0  0  0
   45.1253   33.8523   46.3641 H   0  0  0  0  0  0  0  0  0  0  0  0
   43.6270   35.9970   45.5995 H   0  0  0  0  0  0  0  0  0  0  0  0
   44.6247   36.7344   43.1971 H   0  0  0  0  0  0  0  0  0  0  0  0
  1  6  1  0
  1  5  1  0
  2  3  1  0
  2  1  1  0
  3  4  1  0
  5  4  1  0
  5 12  1  0
  6  7  2  0
  6 11  1  0
  7  8  1  0
  8  9  2  0
 10  9  1  0
 11 10  2  0
 12 16  1  0
 12 13  1  0
 13 14  2  0
 15 14  1  0
 16 15  2  0
  1 17  1  6
  2 18  1  0
  2 19  1  0
  3 20  1  0
  3 21  1  0
  4 22  1  0
  4 23  1  0
  5 24  1  6
  7 25  1  0
  8 26  1  0
 10 27  1  0
 14 28  1  0
 15 29  1  0
 16 30  1  0
M  ISO  8  17  13  18  13  19  13  20  13  21  13  22  13  23  13  24  13
M  ISO  6  25  14  26  14  27  14  28  14  29  14  30  14
M  END
>  <minimizedAffinity>  (1) 
-4.305336

>  <minimizedRMSD>  (1) 
0.745635569

$$$$
