
     RDKit          3D

 43 46  0  0  1  0  0  0  0  0999 V2000
   46.1760   34.9380   41.8270 C   0  0  1  0  0  0  0  0  0  0  0  0
   47.6970   34.9760   41.7470 C   0  0  0  0  0  0  0  0  0  0  0  0
   48.0200   34.6470   40.3240 C   0  0  0  0  0  0  0  0  0  0  0  0
   46.8810   33.7630   39.8690 C   0  0  0  0  0  0  0  0  0  0  0  0
   45.8460   33.7430   41.0150 C   0  0  2  0  0  0  0  0  0  0  0  0
   45.7840   33.6630   45.2740 C   0  0  0  0  0  0  0  0  0  0  0  0
   44.9520   34.6000   45.8680 C   0  0  0  0  0  0  0  0  0  0  0  0
   44.5260   35.6660   45.0910 C   0  0  0  0  0  0  0  0  0  0  0  0
   44.9710   35.6720   43.8340 N   0  0  0  0  0  0  0  0  0  0  0  0
   45.7700   34.7800   43.2510 C   0  0  0  0  0  0  0  0  0  0  0  0
   46.1710   33.7630   44.0040 N   0  0  0  0  0  0  0  0  0  0  0  0
   44.4540   33.7210   40.4430 C   0  0  2  0  0  0  0  0  0  0  0  0
   44.5130   33.1400   39.0620 C   0  0  0  0  0  0  0  0  0  0  0  0
   43.7840   35.0500   40.4820 C   0  0  0  0  0  0  0  0  0  0  0  0
   42.4960   34.9520   39.7670 N   0  0  0  0  0  0  0  0  0  0  0  0
   42.1990   35.3710   38.5240 C   0  0  0  0  0  0  0  0  0  0  0  0
   40.9390   35.1190   38.2070 N   0  0  0  0  0  0  0  0  0  0  0  0
   40.3740   34.5140   39.2650 C   0  0  0  0  0  0  0  0  0  0  0  0
   39.0790   34.0370   39.4710 C   0  0  0  0  0  0  0  0  0  0  0  0
   38.8210   33.4680   40.6670 N   0  0  0  0  0  0  0  0  0  0  0  0
   39.7970   33.3760   41.6140 C   0  0  0  0  0  0  0  0  0  0  0  0
   41.0530   33.8410   41.4090 N   0  0  0  0  0  0  0  0  0  0  0  0
   41.3500   34.4130   40.2350 C   0  0  0  0  0  0  0  0  0  0  0  0
   45.6639   35.8416   41.4647 H   0  0  0  0  0  0  0  0  0  0  0  0
   48.0726   35.9767   42.0070 H   0  0  0  0  0  0  0  0  0  0  0  0
   48.1647   34.2708   42.4498 H   0  0  0  0  0  0  0  0  0  0  0  0
   48.0685   35.5619   39.7153 H   0  0  0  0  0  0  0  0  0  0  0  0
   48.9977   34.1535   40.2215 H   0  0  0  0  0  0  0  0  0  0  0  0
   46.4260   34.1722   38.9550 H   0  0  0  0  0  0  0  0  0  0  0  0
   47.2367   32.7474   39.6408 H   0  0  0  0  0  0  0  0  0  0  0  0
   45.8816   32.8481   41.6536 H   0  0  0  0  0  0  0  0  0  0  0  0
   46.1358   32.8091   45.8717 H   0  0  0  0  0  0  0  0  0  0  0  0
   44.6411   34.5009   46.9185 H   0  0  0  0  0  0  0  0  0  0  0  0
   43.8660   36.4531   45.4845 H   0  0  0  0  0  0  0  0  0  0  0  0
   43.8215   33.0816   41.0763 H   0  0  0  0  0  0  0  0  0  0  0  0
   44.6239   32.0476   39.1282 H   0  0  0  0  0  0  0  0  0  0  0  0
   43.5856   33.3823   38.5223 H   0  0  0  0  0  0  0  0  0  0  0  0
   45.3727   33.5638   38.5223 H   0  0  0  0  0  0  0  0  0  0  0  0
   43.6059   35.3442   41.5269 H   0  0  0  0  0  0  0  0  0  0  0  0
   44.4227   35.8059   40.0017 H   0  0  0  0  0  0  0  0  0  0  0  0
   42.9169   35.8638   37.8518 H   0  0  0  0  0  0  0  0  0  0  0  0
   38.3044   34.1209   38.6945 H   0  0  0  0  0  0  0  0  0  0  0  0
   39.5563   32.9073   42.5796 H   0  0  0  0  0  0  0  0  0  0  0  0
  1 10  1  0
  2  1  1  0
  3  2  1  0
  4  3  1  0
  4  5  1  0
  5  1  1  0
  6  7  2  0
  8  7  1  0
  9  8  2  0
 10  9  1  0
 10 11  2  0
 11  6  1  0
 12 14  1  0
 12  5  1  0
 13 12  1  0
 15 23  1  0
 15 14  1  0
 16 15  1  0
 17 16  2  0
 17 18  1  0
 18 19  2  0
 18 23  1  0
 19 20  1  0
 20 21  2  0
 22 21  1  0
 23 22  2  0
  1 24  1  6
  2 25  1  0
  2 26  1  0
  3 27  1  0
  3 28  1  0
  4 29  1  0
  4 30  1  0
  5 31  1  1
  6 32  1  0
  7 33  1  0
  8 34  1  0
 12 35  1  1
 13 36  1  0
 13 37  1  0
 13 38  1  0
 14 39  1  0
 14 40  1  0
 16 41  1  0
 19 42  1  0
 21 43  1  0
M  ISO  8  24  13  25  13  26  13  27  13  28  13  29  13  30  13  31  13
M  ISO  8  32  14  33  14  34  14  35   8  36   8  37   8  38   8  39   8
M  ISO  4  40   8  41  14  42  14  43  14
M  END
>  <minimizedAffinity>  (1) 
-6.22744703

>  <minimizedRMSD>  (1) 
1.10327756

$$$$
