
     RDKit          3D

 43 45  0  0  1  0  0  0  0  0999 V2000
   46.4360   34.9500   42.0460 C   0  0  1  0  0  0  0  0  0  0  0  0
   47.9520   35.1770   41.9670 C   0  0  0  0  0  0  0  0  0  0  0  0
   48.3090   35.0050   40.5200 C   0  0  0  0  0  0  0  0  0  0  0  0
   47.2690   34.0440   39.9810 C   0  0  0  0  0  0  0  0  0  0  0  0
   46.2600   33.8230   41.1050 C   0  0  2  0  0  0  0  0  0  0  0  0
   46.3060   33.3100   45.3640 C   0  0  0  0  0  0  0  0  0  0  0  0
   45.3460   34.0500   46.0350 C   0  0  0  0  0  0  0  0  0  0  0  0
   44.7450   35.1020   45.3590 C   0  0  0  0  0  0  0  0  0  0  0  0
   45.1620   35.3000   44.1070 N   0  0  0  0  0  0  0  0  0  0  0  0
   46.0800   34.6060   43.4390 C   0  0  0  0  0  0  0  0  0  0  0  0
   46.6410   33.5990   44.1150 N   0  0  0  0  0  0  0  0  0  0  0  0
   44.8800   33.6320   40.5470 C   0  0  2  0  0  0  0  0  0  0  0  0
   44.9870   33.2460   39.1040 C   0  0  0  0  0  0  0  0  0  0  0  0
   44.0290   34.8340   40.7620 C   0  0  0  0  0  0  0  0  0  0  0  0
   42.6020   34.5250   40.7150 N   0  0  0  0  0  0  0  0  0  0  0  0
   41.6620   35.2200   40.0510 C   0  0  0  0  0  0  0  0  0  0  0  0
   40.3390   34.8310   40.0850 C   0  0  0  0  0  0  0  0  0  0  0  0
   39.9140   33.7230   40.7900 C   0  0  0  0  0  0  0  0  0  0  0  0
   38.5380   33.3450   40.8060 N   0  0  0  0  0  0  0  0  0  0  0  0
   40.8610   33.0260   41.4580 N   0  0  0  0  0  0  0  0  0  0  0  0
   42.1630   33.4330   41.4070 C   0  0  0  0  0  0  0  0  0  0  0  0
   42.9320   32.6810   42.0810 O   0  0  0  0  0  0  0  0  0  0  0  0
   45.7992   35.8090   41.7879 H   0  0  0  0  0  0  0  0  0  0  0  0
   48.2070   36.1913   42.3078 H   0  0  0  0  0  0  0  0  0  0  0  0
   48.5035   34.4747   42.6093 H   0  0  0  0  0  0  0  0  0  0  0  0
   48.2591   35.9680   39.9907 H   0  0  0  0  0  0  0  0  0  0  0  0
   49.3339   34.6289   40.3852 H   0  0  0  0  0  0  0  0  0  0  0  0
   46.7699   34.4779   39.1020 H   0  0  0  0  0  0  0  0  0  0  0  0
   47.7287   33.0954   39.6666 H   0  0  0  0  0  0  0  0  0  0  0  0
   46.4265   32.8927   41.6679 H   0  0  0  0  0  0  0  0  0  0  0  0
   46.7976   32.4697   45.8760 H   0  0  0  0  0  0  0  0  0  0  0  0
   45.0687   33.8107   47.0722 H   0  0  0  0  0  0  0  0  0  0  0  0
   43.9738   35.7327   45.8254 H   0  0  0  0  0  0  0  0  0  0  0  0
   44.3751   32.8166   41.0857 H   0  0  0  0  0  0  0  0  0  0  0  0
   45.2801   32.1885   39.0281 H   0  0  0  0  0  0  0  0  0  0  0  0
   44.0142   33.3931   38.6120 H   0  0  0  0  0  0  0  0  0  0  0  0
   45.7452   33.8729   38.6120 H   0  0  0  0  0  0  0  0  0  0  0  0
   44.2650   35.2616   41.7476 H   0  0  0  0  0  0  0  0  0  0  0  0
   44.2438   35.5450   39.9506 H   0  0  0  0  0  0  0  0  0  0  0  0
   41.9516   36.1101   39.4733 H   0  0  0  0  0  0  0  0  0  0  0  0
   39.5968   35.4245   39.5310 H   0  0  0  0  0  0  0  0  0  0  0  0
   38.2380   32.5152   41.3373 H   0  0  0  0  0  0  0  0  0  0  0  0
   37.8448   33.9020   40.2862 H   0  0  0  0  0  0  0  0  0  0  0  0
  1 10  1  0
  2  1  1  0
  3  2  1  0
  4  3  1  0
  4  5  1  0
  5  1  1  0
  6  7  2  0
  8  7  1  0
  9  8  2  0
 10  9  1  0
 10 11  2  0
 11  6  1  0
 12 14  1  0
 12  5  1  0
 13 12  1  0
 15 14  1  0
 15 21  1  0
 16 17  2  0
 16 15  1  0
 17 18  1  0
 18 19  1  0
 18 20  2  0
 21 20  1  0
 21 22  2  0
  1 23  1  6
  2 24  1  0
  2 25  1  0
  3 26  1  0
  3 27  1  0
  4 28  1  0
  4 29  1  0
  5 30  1  1
  6 31  1  0
  7 32  1  0
  8 33  1  0
 12 34  1  1
 13 35  1  0
 13 36  1  0
 13 37  1  0
 14 38  1  0
 14 39  1  0
 16 40  1  0
 17 41  1  0
 19 42  1  0
 19 43  1  0
M  ISO  8  23  13  24  13  25  13  26  13  27  13  28  13  29  13  30  13
M  ISO  8  31  14  32  14  33  14  34   8  35   8  36   8  37   8  38   8
M  ISO  3  39   8  40  14  41  14
M  END
>  <minimizedAffinity>  (1) 
-6.15529299

>  <minimizedRMSD>  (1) 
1.43427575

$$$$
