
     RDKit          3D

 47 49  0  0  1  0  0  0  0  0999 V2000
   46.3950   35.0300   41.9240 C   0  0  1  0  0  0  0  0  0  0  0  0
   47.8980   35.2680   41.9370 C   0  0  0  0  0  0  0  0  0  0  0  0
   48.3740   34.9610   40.5410 C   0  0  0  0  0  0  0  0  0  0  0  0
   47.3690   33.9600   40.0110 C   0  0  0  0  0  0  0  0  0  0  0  0
   46.2820   33.8110   41.0880 C   0  0  2  0  0  0  0  0  0  0  0  0
   45.9150   33.6590   45.3210 C   0  0  0  0  0  0  0  0  0  0  0  0
   44.9890   34.5420   45.8790 C   0  0  0  0  0  0  0  0  0  0  0  0
   44.5330   35.5940   45.0990 C   0  0  0  0  0  0  0  0  0  0  0  0
   45.0390   35.6590   43.8640 N   0  0  0  0  0  0  0  0  0  0  0  0
   45.9250   34.8230   43.3180 C   0  0  0  0  0  0  0  0  0  0  0  0
   46.3540   33.8190   44.0730 N   0  0  0  0  0  0  0  0  0  0  0  0
   44.9450   33.5820   40.4450 C   0  0  2  0  0  0  0  0  0  0  0  0
   45.1560   32.9830   39.0820 C   0  0  0  0  0  0  0  0  0  0  0  0
   44.1240   34.8140   40.3660 C   0  0  0  0  0  0  0  0  0  0  0  0
   42.6830   34.5270   40.4530 N   0  0  0  0  0  0  0  0  0  0  0  0
   42.1600   35.1400   41.6530 C   0  0  0  0  0  0  0  0  0  0  0  0
   40.6770   35.3230   41.6610 C   0  0  0  0  0  0  0  0  0  0  0  0
   40.1570   36.0410   40.4420 C   0  0  0  0  0  0  0  0  0  0  0  0
   40.6150   35.1780   39.2590 C   0  0  0  0  0  0  0  0  0  0  0  0
   42.1060   35.1890   39.2910 C   0  0  0  0  0  0  0  0  0  0  0  0
   45.7844   35.8563   41.5310 H   0  0  0  0  0  0  0  0  0  0  0  0
   48.1180   36.3144   42.1953 H   0  0  0  0  0  0  0  0  0  0  0  0
   48.4014   34.6372   42.6844 H   0  0  0  0  0  0  0  0  0  0  0  0
   48.3798   35.8710   39.9230 H   0  0  0  0  0  0  0  0  0  0  0  0
   49.4023   34.5706   40.5254 H   0  0  0  0  0  0  0  0  0  0  0  0
   46.9259   34.3279   39.0738 H   0  0  0  0  0  0  0  0  0  0  0  0
   47.8488   32.9935   39.7975 H   0  0  0  0  0  0  0  0  0  0  0  0
   46.4053   32.9310   41.7364 H   0  0  0  0  0  0  0  0  0  0  0  0
   46.2887   32.8167   45.9217 H   0  0  0  0  0  0  0  0  0  0  0  0
   44.6305   34.4069   46.9101 H   0  0  0  0  0  0  0  0  0  0  0  0
   43.8027   36.3269   45.4725 H   0  0  0  0  0  0  0  0  0  0  0  0
   44.3765   32.8849   41.0781 H   0  0  0  0  0  0  0  0  0  0  0  0
   45.5198   31.9503   39.1877 H   0  0  0  0  0  0  0  0  0  0  0  0
   44.2042   32.9819   38.5306 H   0  0  0  0  0  0  0  0  0  0  0  0
   45.8984   33.5787   38.5306 H   0  0  0  0  0  0  0  0  0  0  0  0
   44.4035   35.4800   41.1956 H   0  0  0  0  0  0  0  0  0  0  0  0
   44.3165   35.2868   39.3916 H   0  0  0  0  0  0  0  0  0  0  0  0
   42.4323   34.5055   42.5093 H   0  0  0  0  0  0  0  0  0  0  0  0
   42.5992   36.1471   41.7061 H   0  0  0  0  0  0  0  0  0  0  0  0
   40.2034   34.3314   41.7104 H   0  0  0  0  0  0  0  0  0  0  0  0
   40.4307   35.9447   42.5344 H   0  0  0  0  0  0  0  0  0  0  0  0
   39.0595   36.1096   40.4706 H   0  0  0  0  0  0  0  0  0  0  0  0
   40.5314   37.0731   40.3747 H   0  0  0  0  0  0  0  0  0  0  0  0
   40.2504   35.6036   38.3124 H   0  0  0  0  0  0  0  0  0  0  0  0
   40.2193   34.1542   39.3318 H   0  0  0  0  0  0  0  0  0  0  0  0
   42.4742   34.6820   38.3869 H   0  0  0  0  0  0  0  0  0  0  0  0
   42.4133   36.2439   39.3431 H   0  0  0  0  0  0  0  0  0  0  0  0
  1  2  1  0
  1 10  1  0
  3  2  1  0
  4  3  1  0
  4  5  1  0
  5  1  1  0
  6  7  2  0
  8  7  1  0
  9  8  2  0
 10  9  1  0
 10 11  2  0
 11  6  1  0
 12  5  1  0
 13 12  1  0
 14 12  1  0
 14 15  1  0
 15 16  1  0
 16 17  1  0
 18 17  1  0
 19 20  1  0
 19 18  1  0
 20 15  1  0
  1 21  1  6
  2 22  1  0
  2 23  1  0
  3 24  1  0
  3 25  1  0
  4 26  1  0
  4 27  1  0
  5 28  1  1
  6 29  1  0
  7 30  1  0
  8 31  1  0
 12 32  1  1
 13 33  1  0
 13 34  1  0
 13 35  1  0
 14 36  1  0
 14 37  1  0
 16 38  1  0
 16 39  1  0
 17 40  1  0
 17 41  1  0
 18 42  1  0
 18 43  1  0
 19 44  1  0
 19 45  1  0
 20 46  1  0
 20 47  1  0
M  ISO  8  21  13  22  13  23  13  24  13  25  13  26  13  27  13  28  13
M  ISO  8  29  14  30  14  31  14  32   8  33   8  34   8  35   8  36   8
M  ISO  8  37   8  38  13  39  13  40  13  41  13  42  13  43  13  44  13
M  ISO  3  45  13  46  13  47  13
M  END
>  <minimizedAffinity>  (1) 
-5.91466761

>  <minimizedRMSD>  (1) 
1.74583077

$$$$
