
     RDKit          3D

 39 41  0  0  1  0  0  0  0  0999 V2000
   46.2110   34.9760   42.1980 C   0  0  1  0  0  0  0  0  0  0  0  0
   47.7260   35.0480   42.0760 C   0  0  0  0  0  0  0  0  0  0  0  0
   48.0390   34.8190   40.6210 C   0  0  0  0  0  0  0  0  0  0  0  0
   46.8740   34.0080   40.1030 C   0  0  0  0  0  0  0  0  0  0  0  0
   45.8830   33.8620   41.2720 C   0  0  2  0  0  0  0  0  0  0  0  0
   46.0080   33.4310   45.5400 C   0  0  0  0  0  0  0  0  0  0  0  0
   45.1050   34.2590   46.2150 C   0  0  0  0  0  0  0  0  0  0  0  0
   44.5690   35.3510   45.5130 C   0  0  0  0  0  0  0  0  0  0  0  0
   44.9870   35.4820   44.2510 N   0  0  0  0  0  0  0  0  0  0  0  0
   45.8460   34.6980   43.6030 C   0  0  0  0  0  0  0  0  0  0  0  0
   46.3490   33.6670   44.2730 N   0  0  0  0  0  0  0  0  0  0  0  0
   44.4610   33.8480   40.7580 C   0  0  2  0  0  0  0  0  0  0  0  0
   44.4750   33.3150   39.3540 C   0  0  0  0  0  0  0  0  0  0  0  0
   43.8170   35.1910   40.8060 C   0  0  0  0  0  0  0  0  0  0  0  0
   42.3370   34.9730   40.9470 C   0  0  0  0  0  0  0  0  0  0  0  0
   41.3810   35.4260   40.0310 C   0  0  0  0  0  0  0  0  0  0  0  0
   40.1540   35.0740   40.4390 N   0  0  0  0  0  0  0  0  0  0  0  0
   40.3110   34.4070   41.5960 C   0  0  0  0  0  0  0  0  0  0  0  0
   41.6190   34.3580   41.8800 N   0  0  0  0  0  0  0  0  0  0  0  0
   45.6655   35.8965   41.9428 H   0  0  0  0  0  0  0  0  0  0  0  0
   48.0880   36.0371   42.3933 H   0  0  0  0  0  0  0  0  0  0  0  0
   48.2167   34.2994   42.7153 H   0  0  0  0  0  0  0  0  0  0  0  0
   48.1145   35.7765   40.0848 H   0  0  0  0  0  0  0  0  0  0  0  0
   49.0011   34.3055   40.4773 H   0  0  0  0  0  0  0  0  0  0  0  0
   46.3937   34.5288   39.2615 H   0  0  0  0  0  0  0  0  0  0  0  0
   47.2065   33.0241   39.7406 H   0  0  0  0  0  0  0  0  0  0  0  0
   45.9695   32.9091   41.8146 H   0  0  0  0  0  0  0  0  0  0  0  0
   46.4451   32.5686   46.0647 H   0  0  0  0  0  0  0  0  0  0  0  0
   44.8242   34.0616   47.2601 H   0  0  0  0  0  0  0  0  0  0  0  0
   43.8541   36.0504   45.9709 H   0  0  0  0  0  0  0  0  0  0  0  0
   43.8586   33.2014   41.4130 H   0  0  0  0  0  0  0  0  0  0  0  0
   44.5039   32.2157   39.3794 H   0  0  0  0  0  0  0  0  0  0  0  0
   43.5679   33.6459   38.8271 H   0  0  0  0  0  0  0  0  0  0  0  0
   45.3635   33.6931   38.8271 H   0  0  0  0  0  0  0  0  0  0  0  0
   44.1972   35.7601   41.6671 H   0  0  0  0  0  0  0  0  0  0  0  0
   44.0409   35.7627   39.8933 H   0  0  0  0  0  0  0  0  0  0  0  0
   41.6037   35.9879   39.1120 H   0  0  0  0  0  0  0  0  0  0  0  0
   39.5032   33.9753   42.2052 H   0  0  0  0  0  0  0  0  0  0  0  0
   42.0166   33.9024   42.7138 H   0  0  0  0  0  0  0  0  0  0  0  0
  1 10  1  0
  2  1  1  0
  3  2  1  0
  4  3  1  0
  4  5  1  0
  5  1  1  0
  6  7  2  0
  8  7  1  0
  9  8  2  0
 10  9  1  0
 10 11  2  0
 11  6  1  0
 12 14  1  0
 12  5  1  0
 13 12  1  0
 14 15  1  0
 15 19  1  0
 16 17  1  0
 16 15  2  0
 17 18  2  0
 18 19  1  0
  1 20  1  6
  2 21  1  0
  2 22  1  0
  3 23  1  0
  3 24  1  0
  4 25  1  0
  4 26  1  0
  5 27  1  1
  6 28  1  0
  7 29  1  0
  8 30  1  0
 12 31  1  1
 13 32  1  0
 13 33  1  0
 13 34  1  0
 14 35  1  0
 14 36  1  0
 16 37  1  0
 18 38  1  0
 19 39  1  0
M  ISO  8  20  13  21  13  22  13  23  13  24  13  25  13  26  13  27  13
M  ISO  8  28  14  29  14  30  14  31   8  32   8  33   8  34   8  35   8
M  ISO  4  36   8  37  14  38  14  39   9
M  END
>  <minimizedAffinity>  (1) 
-5.47715092

>  <minimizedRMSD>  (1) 
1.49514067

$$$$
