
     RDKit          3D

 30 32  0  0  1  0  0  0  0  0999 V2000
   44.0050   35.0230   40.9330 C   0  0  2  0  0  0  0  0  0  0  0  0
   44.8380   34.0500   40.2290 C   0  0  0  0  0  0  0  0  0  0  0  0
   44.9290   32.8050   41.1120 C   0  0  0  0  0  0  0  0  0  0  0  0
   44.0250   33.0240   42.3010 C   0  0  0  0  0  0  0  0  0  0  0  0
   43.9420   34.5030   42.3960 C   0  0  1  0  0  0  0  0  0  0  0  0
   42.6020   35.1560   40.5040 C   0  0  0  0  0  0  0  0  0  0  0  0
   42.2540   34.8240   39.1850 C   0  0  0  0  0  0  0  0  0  0  0  0
   40.9250   34.9310   38.7750 C   0  0  0  0  0  0  0  0  0  0  0  0
   40.0240   35.3650   39.7080 N   0  0  0  0  0  0  0  0  0  0  0  0
   40.3930   35.6810   40.9810 C   0  0  0  0  0  0  0  0  0  0  0  0
   41.6800   35.5750   41.3740 N   0  0  0  0  0  0  0  0  0  0  0  0
   44.9950   35.1120   43.2520 C   0  0  0  0  0  0  0  0  0  0  0  0
   44.5210   35.8310   44.5300 C   0  0  0  0  0  0  0  0  0  0  0  0
   45.2520   36.5390   43.4090 C   0  0  0  0  0  0  0  0  0  0  0  0
   44.4622   36.0067   40.7508 H   0  0  0  0  0  0  0  0  0  0  0  0
   44.3809   33.7930   39.2621 H   0  0  0  0  0  0  0  0  0  0  0  0
   45.8388   34.4630   40.0343 H   0  0  0  0  0  0  0  0  0  0  0  0
   44.5997   31.9198   40.5480 H   0  0  0  0  0  0  0  0  0  0  0  0
   45.9657   32.6376   41.4395 H   0  0  0  0  0  0  0  0  0  0  0  0
   43.0320   32.5835   42.1280 H   0  0  0  0  0  0  0  0  0  0  0  0
   44.4009   32.5530   43.2213 H   0  0  0  0  0  0  0  0  0  0  0  0
   43.0070   34.7963   42.8958 H   0  0  0  0  0  0  0  0  0  0  0  0
   43.0249   34.4815   38.4790 H   0  0  0  0  0  0  0  0  0  0  0  0
   40.6163   34.6783   37.7499 H   0  0  0  0  0  0  0  0  0  0  0  0
   39.6329   36.0267   41.6971 H   0  0  0  0  0  0  0  0  0  0  0  0
   45.6635   34.2872   42.9641 H   0  0  0  0  0  0  0  0  0  0  0  0
   43.4503   36.0155   44.7021 H   0  0  0  0  0  0  0  0  0  0  0  0
   44.6612   35.7016   45.6133 H   0  0  0  0  0  0  0  0  0  0  0  0
   46.2818   36.8910   43.5692 H   0  0  0  0  0  0  0  0  0  0  0  0
   45.0338   37.4258   42.7959 H   0  0  0  0  0  0  0  0  0  0  0  0
  1  5  1  0
  2  1  1  0
  2  3  1  0
  3  4  1  0
  4  5  1  0
  5 12  1  0
  6  1  1  0
  6 11  1  0
  7  6  2  0
  8  7  1  0
  8  9  2  0
  9 10  1  0
 10 11  2  0
 12 14  1  0
 12 13  1  0
 14 13  1  0
  1 15  1  1
  2 16  1  0
  2 17  1  0
  3 18  1  0
  3 19  1  0
  4 20  1  0
  4 21  1  0
  5 22  1  1
  7 23  1  0
  8 24  1  0
 10 25  1  0
 12 26  1  0
 13 27  1  0
 13 28  1  0
 14 29  1  0
 14 30  1  0
M  ISO  8  15  13  16  13  17  13  18  13  19  13  20  13  21  13  22  13
M  ISO  8  23  14  24  14  25  14  26  13  27  13  28  13  29  13  30  13
M  END
>  <minimizedAffinity>  (1) 
-4.15757227

>  <minimizedRMSD>  (1) 
4.15851688

$$$$
