
     RDKit          3D

 38 40  0  0  1  0  0  0  0  0999 V2000
   46.4370   34.9470   42.1140 C   0  0  1  0  0  0  0  0  0  0  0  0
   47.9390   35.1700   42.0250 C   0  0  0  0  0  0  0  0  0  0  0  0
   48.2920   34.9740   40.5760 C   0  0  0  0  0  0  0  0  0  0  0  0
   47.2220   34.0470   40.0440 C   0  0  0  0  0  0  0  0  0  0  0  0
   46.2270   33.8140   41.1820 C   0  0  2  0  0  0  0  0  0  0  0  0
   46.2920   33.3440   45.4360 C   0  0  0  0  0  0  0  0  0  0  0  0
   45.3250   34.0770   46.1080 C   0  0  0  0  0  0  0  0  0  0  0  0
   44.7200   35.1280   45.4140 C   0  0  0  0  0  0  0  0  0  0  0  0
   45.1450   35.3160   44.1600 N   0  0  0  0  0  0  0  0  0  0  0  0
   46.0730   34.6150   43.5100 C   0  0  0  0  0  0  0  0  0  0  0  0
   46.6510   33.6060   44.1820 N   0  0  0  0  0  0  0  0  0  0  0  0
   44.8220   33.6810   40.6310 C   0  0  2  0  0  0  0  0  0  0  0  0
   44.9060   33.2300   39.2020 C   0  0  0  0  0  0  0  0  0  0  0  0
   44.0400   34.9410   40.7440 C   0  0  0  0  0  0  0  0  0  0  0  0
   42.6560   34.5510   41.0530 N   0  0  0  0  0  0  0  0  0  0  0  0
   41.6570   35.4170   41.3470 C   0  0  0  0  0  0  0  0  0  0  0  0
   40.5160   34.7420   41.5800 N   0  0  0  0  0  0  0  0  0  0  0  0
   40.8180   33.4200   41.4240 C   0  0  0  0  0  0  0  0  0  0  0  0
   42.1390   33.3220   41.1000 N   0  0  0  0  0  0  0  0  0  0  0  0
   45.8175   35.8168   41.8500 H   0  0  0  0  0  0  0  0  0  0  0  0
   48.1956   36.1897   42.3482 H   0  0  0  0  0  0  0  0  0  0  0  0
   48.4926   34.4774   42.6760 H   0  0  0  0  0  0  0  0  0  0  0  0
   48.2759   35.9340   40.0392 H   0  0  0  0  0  0  0  0  0  0  0  0
   49.3034   34.5617   40.4454 H   0  0  0  0  0  0  0  0  0  0  0  0
   46.7130   34.5104   39.1860 H   0  0  0  0  0  0  0  0  0  0  0  0
   47.6592   33.0967   39.7037 H   0  0  0  0  0  0  0  0  0  0  0  0
   46.3807   32.8708   41.7268 H   0  0  0  0  0  0  0  0  0  0  0  0
   46.7824   32.5115   45.9617 H   0  0  0  0  0  0  0  0  0  0  0  0
   45.0457   33.8404   47.1453 H   0  0  0  0  0  0  0  0  0  0  0  0
   43.9439   35.7603   45.8699 H   0  0  0  0  0  0  0  0  0  0  0  0
   44.2838   32.9347   41.2338 H   0  0  0  0  0  0  0  0  0  0  0  0
   45.1073   32.1491   39.1699 H   0  0  0  0  0  0  0  0  0  0  0  0
   43.9532   33.4407   38.6944 H   0  0  0  0  0  0  0  0  0  0  0  0
   45.7191   33.7696   38.6944 H   0  0  0  0  0  0  0  0  0  0  0  0
   44.4464   35.5688   41.5507 H   0  0  0  0  0  0  0  0  0  0  0  0
   44.0892   35.5230   39.8119 H   0  0  0  0  0  0  0  0  0  0  0  0
   41.7626   36.5111   41.3892 H   0  0  0  0  0  0  0  0  0  0  0  0
   40.1175   32.5798   41.5396 H   0  0  0  0  0  0  0  0  0  0  0  0
  1 10  1  0
  2  1  1  0
  3  2  1  0
  4  3  1  0
  4  5  1  0
  5  1  1  0
  6  7  2  0
  8  7  1  0
  9  8  2  0
 10  9  1  0
 10 11  2  0
 11  6  1  0
 12 14  1  0
 12  5  1  0
 13 12  1  0
 14 15  1  0
 15 19  1  0
 15 16  1  0
 16 17  2  0
 18 17  1  0
 19 18  2  0
  1 20  1  6
  2 21  1  0
  2 22  1  0
  3 23  1  0
  3 24  1  0
  4 25  1  0
  4 26  1  0
  5 27  1  1
  6 28  1  0
  7 29  1  0
  8 30  1  0
 12 31  1  1
 13 32  1  0
 13 33  1  0
 13 34  1  0
 14 35  1  0
 14 36  1  0
 16 37  1  0
 18 38  1  0
M  ISO  8  20  13  21  13  22  13  23  13  24  13  25  13  26  13  27  13
M  ISO  8  28  14  29  14  30  14  31   8  32   8  33   8  34   8  35   8
M  ISO  3  36   8  37  14  38  14
M  END
>  <minimizedAffinity>  (1) 
-5.25572634

>  <minimizedRMSD>  (1) 
1.25802195

$$$$
