
     RDKit          3D

 39 41  0  0  1  0  0  0  0  0999 V2000
   46.4440   34.9620   42.1060 C   0  0  1  0  0  0  0  0  0  0  0  0
   47.9420   35.2170   42.0250 C   0  0  0  0  0  0  0  0  0  0  0  0
   48.3140   35.0200   40.5890 C   0  0  0  0  0  0  0  0  0  0  0  0
   47.2680   34.0710   40.0430 C   0  0  0  0  0  0  0  0  0  0  0  0
   46.2670   33.8170   41.1860 C   0  0  2  0  0  0  0  0  0  0  0  0
   46.3220   33.3310   45.4280 C   0  0  0  0  0  0  0  0  0  0  0  0
   45.3480   34.0580   46.1000 C   0  0  0  0  0  0  0  0  0  0  0  0
   44.7310   35.1090   45.4140 C   0  0  0  0  0  0  0  0  0  0  0  0
   45.1490   35.3100   44.1610 N   0  0  0  0  0  0  0  0  0  0  0  0
   46.0810   34.6210   43.5050 C   0  0  0  0  0  0  0  0  0  0  0  0
   46.6600   33.6210   44.1770 N   0  0  0  0  0  0  0  0  0  0  0  0
   44.8810   33.6610   40.6170 C   0  0  2  0  0  0  0  0  0  0  0  0
   44.9720   33.1870   39.1990 C   0  0  0  0  0  0  0  0  0  0  0  0
   44.0590   34.8970   40.7200 C   0  0  0  0  0  0  0  0  0  0  0  0
   42.6020   34.4610   40.9250 C   0  0  0  0  0  0  0  0  0  0  0  0
   41.5630   35.1640   40.0540 C   0  0  0  0  0  0  0  0  0  0  0  0
   41.6360   35.3820   41.5510 C   0  0  0  0  0  0  0  0  0  0  0  0
   45.8091   35.8177   41.8327 H   0  0  0  0  0  0  0  0  0  0  0  0
   48.1730   36.2445   42.3427 H   0  0  0  0  0  0  0  0  0  0  0  0
   48.5035   34.5390   42.6845 H   0  0  0  0  0  0  0  0  0  0  0  0
   48.2885   35.9772   40.0477 H   0  0  0  0  0  0  0  0  0  0  0  0
   49.3335   34.6227   40.4758 H   0  0  0  0  0  0  0  0  0  0  0  0
   46.7548   34.5255   39.1827 H   0  0  0  0  0  0  0  0  0  0  0  0
   47.7249   33.1314   39.6989 H   0  0  0  0  0  0  0  0  0  0  0  0
   46.4354   32.8833   41.7426 H   0  0  0  0  0  0  0  0  0  0  0  0
   46.8236   32.4981   45.9424 H   0  0  0  0  0  0  0  0  0  0  0  0
   45.0712   33.8154   47.1366 H   0  0  0  0  0  0  0  0  0  0  0  0
   43.9507   35.7310   45.8769 H   0  0  0  0  0  0  0  0  0  0  0  0
   44.3590   32.9082   41.2259 H   0  0  0  0  0  0  0  0  0  0  0  0
   45.1794   32.1068   39.1861 H   0  0  0  0  0  0  0  0  0  0  0  0
   44.0197   33.3837   38.6848 H   0  0  0  0  0  0  0  0  0  0  0  0
   45.7838   33.7224   38.6848 H   0  0  0  0  0  0  0  0  0  0  0  0
   44.3946   35.5020   41.5752 H   0  0  0  0  0  0  0  0  0  0  0  0
   44.1583   35.5074   39.8103 H   0  0  0  0  0  0  0  0  0  0  0  0
   42.8950   33.4221   41.1369 H   0  0  0  0  0  0  0  0  0  0  0  0
   41.8675   35.9621   39.3609 H   0  0  0  0  0  0  0  0  0  0  0  0
   40.7888   34.8489   39.3389 H   0  0  0  0  0  0  0  0  0  0  0  0
   40.8428   34.9827   42.2002 H   0  0  0  0  0  0  0  0  0  0  0  0
   41.7253   36.2687   42.1958 H   0  0  0  0  0  0  0  0  0  0  0  0
  1 10  1  0
  2  1  1  0
  3  2  1  0
  4  3  1  0
  4  5  1  0
  5  1  1  0
  6  7  2  0
  8  7  1  0
  9  8  2  0
 10  9  1  0
 10 11  2  0
 11  6  1  0
 12 14  1  0
 12  5  1  0
 13 12  1  0
 14 15  1  0
 15 17  1  0
 16 15  1  0
 16 17  1  0
  1 18  1  6
  2 19  1  0
  2 20  1  0
  3 21  1  0
  3 22  1  0
  4 23  1  0
  4 24  1  0
  5 25  1  1
  6 26  1  0
  7 27  1  0
  8 28  1  0
 12 29  1  1
 13 30  1  0
 13 31  1  0
 13 32  1  0
 14 33  1  0
 14 34  1  0
 15 35  1  0
 16 36  1  0
 16 37  1  0
 17 38  1  0
 17 39  1  0
M  ISO  8  18  13  19  13  20  13  21  13  22  13  23  13  24  13  25  13
M  ISO  8  26  14  27  14  28  14  29   8  30   8  31   8  32   8  33   8
M  ISO  6  34   8  35  13  36  13  37  13  38  13  39  13
M  END
>  <minimizedAffinity>  (1) 
-4.99023771

>  <minimizedRMSD>  (1) 
1.25731087

$$$$
