
     RDKit          3D

 25 26  0  0  1  0  0  0  0  0999 V2000
   47.4230   34.6540   40.7500 C   0  0  2  0  0  0  0  0  0  0  0  0
   48.6950   35.3630   40.9290 C   0  0  0  0  0  0  0  0  0  0  0  0
   49.1870   35.0700   42.3450 C   0  0  0  0  0  0  0  0  0  0  0  0
   48.2590   34.0480   42.9480 C   0  0  0  0  0  0  0  0  0  0  0  0
   46.9960   34.2660   42.1980 C   0  0  1  0  0  0  0  0  0  0  0  0
   47.4510   33.3930   39.9970 C   0  0  0  0  0  0  0  0  0  0  0  0
   48.6090   33.0540   39.2800 C   0  0  0  0  0  0  0  0  0  0  0  0
   48.6550   31.8510   38.5760 C   0  0  0  0  0  0  0  0  0  0  0  0
   47.5330   31.0570   38.6340 N   0  0  0  0  0  0  0  0  0  0  0  0
   46.4320   31.4160   39.3370 C   0  0  0  0  0  0  0  0  0  0  0  0
   46.3970   32.5710   40.0080 N   0  0  0  0  0  0  0  0  0  0  0  0
   46.2860   35.3850   42.7890 N   0  0  0  0  0  0  0  0  0  0  0  0
   46.7672   35.3227   40.1732 H   0  0  0  0  0  0  0  0  0  0  0  0
   49.4311   35.0056   40.1939 H   0  0  0  0  0  0  0  0  0  0  0  0
   48.5605   36.4447   40.7810 H   0  0  0  0  0  0  0  0  0  0  0  0
   50.2119   34.6720   42.3110 H   0  0  0  0  0  0  0  0  0  0  0  0
   49.1939   35.9892   42.9492 H   0  0  0  0  0  0  0  0  0  0  0  0
   48.6399   33.0276   42.7942 H   0  0  0  0  0  0  0  0  0  0  0  0
   48.1426   34.1547   44.0366 H   0  0  0  0  0  0  0  0  0  0  0  0
   46.3491   33.3765   42.2149 H   0  0  0  0  0  0  0  0  0  0  0  0
   49.4746   33.7327   39.2734 H   0  0  0  0  0  0  0  0  0  0  0  0
   49.5447   31.5517   38.0025 H   0  0  0  0  0  0  0  0  0  0  0  0
   45.5572   30.7494   39.3556 H   0  0  0  0  0  0  0  0  0  0  0  0
   46.3299   35.3158   43.8157 H   0  0  0  0  0  0  0  0  0  0  0  0
   46.7222   36.2673   42.4854 H   0  0  0  0  0  0  0  0  0  0  0  0
  1  2  1  0
  1  5  1  0
  2  3  1  0
  3  4  1  0
  5 12  1  0
  5  4  1  0
  6 11  1  0
  6  1  1  0
  7  6  2  0
  8  9  2  0
  8  7  1  0
  9 10  1  0
 10 11  2  0
  1 13  1  6
  2 14  1  0
  2 15  1  0
  3 16  1  0
  3 17  1  0
  4 18  1  0
  4 19  1  0
  5 20  1  6
  7 21  1  0
  8 22  1  0
 10 23  1  0
 12 24  1  0
 12 25  1  0
M  ISO  8  13  13  14  13  15  13  16  13  17  13  18  13  19  13  20  13
M  ISO  5  21  14  22  14  23  14  24   5  25   5
M  END
>  <minimizedAffinity>  (1) 
-3.27390885

>  <minimizedRMSD>  (1) 
2.67681193

$$$$
