
     RDKit          3D

 46 49  0  0  1  0  0  0  0  0999 V2000
   45.0190   33.5800   40.5290 C   0  0  2  0  0  0  0  0  0  0  0  0
   46.4590   35.0660   42.0220 C   0  0  1  0  0  0  0  0  0  0  0  0
   47.9840   35.2250   42.0500 C   0  0  0  0  0  0  0  0  0  0  0  0
   48.3980   35.1020   40.6040 C   0  0  0  0  0  0  0  0  0  0  0  0
   47.4100   34.1190   40.0350 C   0  0  0  0  0  0  0  0  0  0  0  0
   46.3600   33.9120   41.1330 C   0  0  2  0  0  0  0  0  0  0  0  0
   46.0600   33.5380   45.3790 C   0  0  0  0  0  0  0  0  0  0  0  0
   45.1000   34.3550   45.9720 C   0  0  0  0  0  0  0  0  0  0  0  0
   44.6040   35.4020   45.2260 C   0  0  0  0  0  0  0  0  0  0  0  0
   45.1070   35.5160   44.0030 N   0  0  0  0  0  0  0  0  0  0  0  0
   46.0130   34.7640   43.4090 C   0  0  0  0  0  0  0  0  0  0  0  0
   46.4870   33.7540   44.1370 N   0  0  0  0  0  0  0  0  0  0  0  0
   45.2010   33.1110   39.1060 C   0  0  0  0  0  0  0  0  0  0  0  0
   44.1310   34.6880   40.5650 C   0  0  0  0  0  0  0  0  0  0  0  0
   42.8360   34.4790   40.0020 N   0  0  0  0  0  0  0  0  0  0  0  0
   42.4280   35.2210   38.9400 N   0  0  0  0  0  0  0  0  0  0  0  0
   41.2070   34.8490   38.5890 C   0  0  0  0  0  0  0  0  0  0  0  0
   40.8880   33.8650   39.4600 C   0  0  0  0  0  0  0  0  0  0  0  0
   41.9500   33.6100   40.3990 C   0  0  0  0  0  0  0  0  0  0  0  0
   41.6940   32.5410   41.3800 C   0  0  0  0  0  0  0  0  0  0  0  0
   40.4360   32.1090   41.7460 C   0  0  0  0  0  0  0  0  0  0  0  0
   40.4480   31.1260   42.6530 C   0  0  0  0  0  0  0  0  0  0  0  0
   41.7260   30.9080   42.8880 N   0  0  0  0  0  0  0  0  0  0  0  0
   42.3170   31.7320   42.1410 N   0  0  0  0  0  0  0  0  0  0  0  0
   44.5705   32.7763   41.1314 H   0  0  0  0  0  0  0  0  0  0  0  0
   45.8545   35.9239   41.6926 H   0  0  0  0  0  0  0  0  0  0  0  0
   48.2659   36.2086   42.4538 H   0  0  0  0  0  0  0  0  0  0  0  0
   48.4729   34.4777   42.6923 H   0  0  0  0  0  0  0  0  0  0  0  0
   48.3262   36.0724   40.0911 H   0  0  0  0  0  0  0  0  0  0  0  0
   49.4419   34.7763   40.4846 H   0  0  0  0  0  0  0  0  0  0  0  0
   46.9416   34.5266   39.1270 H   0  0  0  0  0  0  0  0  0  0  0  0
   47.8936   33.1733   39.7491 H   0  0  0  0  0  0  0  0  0  0  0  0
   46.5310   33.0302   41.7680 H   0  0  0  0  0  0  0  0  0  0  0  0
   46.4748   32.6947   45.9506 H   0  0  0  0  0  0  0  0  0  0  0  0
   44.7506   34.1710   46.9987 H   0  0  0  0  0  0  0  0  0  0  0  0
   43.8443   36.0949   45.6167 H   0  0  0  0  0  0  0  0  0  0  0  0
   45.5990   32.0855   39.1060 H   0  0  0  0  0  0  0  0  0  0  0  0
   44.2310   33.1279   38.5875 H   0  0  0  0  0  0  0  0  0  0  0  0
   45.9057   33.7778   38.5875 H   0  0  0  0  0  0  0  0  0  0  0  0
   43.9962   34.9754   41.6182 H   0  0  0  0  0  0  0  0  0  0  0  0
   44.6013   35.4613   39.9399 H   0  0  0  0  0  0  0  0  0  0  0  0
   40.5899   35.2505   37.7717 H   0  0  0  0  0  0  0  0  0  0  0  0
   39.9306   33.3233   39.4523 H   0  0  0  0  0  0  0  0  0  0  0  0
   39.5099   32.5332   41.3308 H   0  0  0  0  0  0  0  0  0  0  0  0
   39.5842   30.6141   43.1022 H   0  0  0  0  0  0  0  0  0  0  0  0
   42.1446   30.2227   43.5330 H   0  0  0  0  0  0  0  0  0  0  0  0
  1 14  1  0
  1  6  1  0
  2  3  1  0
  2 11  1  0
  4  3  1  0
  5  4  1  0
  5  6  1  0
  6  2  1  0
  7  8  2  0
  9  8  1  0
 10  9  2  0
 11 10  1  0
 11 12  2  0
 12  7  1  0
 13  1  1  0
 15 19  1  0
 15 14  1  0
 16 15  1  0
 17 16  2  0
 17 18  1  0
 18 19  2  0
 19 20  1  0
 20 21  1  0
 20 24  2  0
 21 22  2  0
 22 23  1  0
 24 23  1  0
  1 25  1  1
  2 26  1  6
  3 27  1  0
  3 28  1  0
  4 29  1  0
  4 30  1  0
  5 31  1  0
  5 32  1  0
  6 33  1  1
  7 34  1  0
  8 35  1  0
  9 36  1  0
 13 37  1  0
 13 38  1  0
 13 39  1  0
 14 40  1  0
 14 41  1  0
 17 42  1  0
 18 43  1  0
 21 44  1  0
 22 45  1  0
 23 46  1  0
M  ISO  8  25   8  26  13  27  13  28  13  29  13  30  13  31  13  32  13
M  ISO  8  33  13  34  14  35  14  36  14  37   8  38   8  39   8  40   8
M  ISO  6  41   8  42  14  43  14  44  14  45  14  46   9
M  END
>  <minimizedAffinity>  (1) 
-6.19539833

>  <minimizedRMSD>  (1) 
1.24827659

$$$$
