
     RDKit          3D

 49 52  0  0  1  0  0  0  0  0999 V2000
   45.0500   33.5590   40.5190 C   0  0  2  0  0  0  0  0  0  0  0  0
   46.4780   35.0640   42.0050 C   0  0  1  0  0  0  0  0  0  0  0  0
   47.9890   35.2540   42.0400 C   0  0  0  0  0  0  0  0  0  0  0  0
   48.4100   35.1240   40.6030 C   0  0  0  0  0  0  0  0  0  0  0  0
   47.4290   34.1260   40.0240 C   0  0  0  0  0  0  0  0  0  0  0  0
   46.3830   33.8930   41.1240 C   0  0  2  0  0  0  0  0  0  0  0  0
   46.0560   33.5360   45.3580 C   0  0  0  0  0  0  0  0  0  0  0  0
   45.0970   34.3620   45.9500 C   0  0  0  0  0  0  0  0  0  0  0  0
   44.5980   35.4330   45.2020 C   0  0  0  0  0  0  0  0  0  0  0  0
   45.1030   35.5460   43.9820 N   0  0  0  0  0  0  0  0  0  0  0  0
   46.0140   34.7750   43.3970 C   0  0  0  0  0  0  0  0  0  0  0  0
   46.4870   33.7540   44.1190 N   0  0  0  0  0  0  0  0  0  0  0  0
   45.2410   33.1600   39.0630 C   0  0  0  0  0  0  0  0  0  0  0  0
   44.1390   34.6700   40.5790 C   0  0  0  0  0  0  0  0  0  0  0  0
   42.8790   34.4650   39.9500 N   0  0  0  0  0  0  0  0  0  0  0  0
   42.4730   35.2120   38.9210 N   0  0  0  0  0  0  0  0  0  0  0  0
   41.2620   34.8000   38.5270 C   0  0  0  0  0  0  0  0  0  0  0  0
   40.9260   33.7550   39.3610 C   0  0  0  0  0  0  0  0  0  0  0  0
   41.9910   33.5590   40.2760 C   0  0  0  0  0  0  0  0  0  0  0  0
   41.6840   32.4760   41.1920 C   0  0  0  0  0  0  0  0  0  0  0  0
   40.3350   32.3600   41.4180 C   0  0  0  0  0  0  0  0  0  0  0  0
   39.7730   31.3950   42.2300 C   0  0  0  0  0  0  0  0  0  0  0  0
   40.6080   30.4940   42.8520 C   0  0  0  0  0  0  0  0  0  0  0  0
   41.9660   30.5840   42.6460 C   0  0  0  0  0  0  0  0  0  0  0  0
   42.5200   31.5490   41.8340 C   0  0  0  0  0  0  0  0  0  0  0  0
   44.6199   32.7291   41.0990 H   0  0  0  0  0  0  0  0  0  0  0  0
   45.8724   35.9140   41.6577 H   0  0  0  0  0  0  0  0  0  0  0  0
   48.2483   36.2477   42.4342 H   0  0  0  0  0  0  0  0  0  0  0  0
   48.4904   34.5251   42.6937 H   0  0  0  0  0  0  0  0  0  0  0  0
   48.3358   36.0913   40.0846 H   0  0  0  0  0  0  0  0  0  0  0  0
   49.4561   34.8014   40.4953 H   0  0  0  0  0  0  0  0  0  0  0  0
   46.9525   34.5350   39.1209 H   0  0  0  0  0  0  0  0  0  0  0  0
   47.9257   33.1901   39.7285 H   0  0  0  0  0  0  0  0  0  0  0  0
   46.5557   33.0091   41.7556 H   0  0  0  0  0  0  0  0  0  0  0  0
   46.4628   32.6880   45.9285 H   0  0  0  0  0  0  0  0  0  0  0  0
   44.7446   34.1751   46.9751 H   0  0  0  0  0  0  0  0  0  0  0  0
   43.8432   36.1292   45.5965 H   0  0  0  0  0  0  0  0  0  0  0  0
   45.7155   32.1688   39.0137 H   0  0  0  0  0  0  0  0  0  0  0  0
   44.2627   33.1236   38.5614 H   0  0  0  0  0  0  0  0  0  0  0  0
   45.8829   33.8992   38.5614 H   0  0  0  0  0  0  0  0  0  0  0  0
   43.9550   34.9003   41.6388 H   0  0  0  0  0  0  0  0  0  0  0  0
   44.6233   35.4874   40.0246 H   0  0  0  0  0  0  0  0  0  0  0  0
   40.6578   35.2115   37.7050 H   0  0  0  0  0  0  0  0  0  0  0  0
   39.9929   33.1737   39.3231 H   0  0  0  0  0  0  0  0  0  0  0  0
   39.6631   33.0771   40.9238 H   0  0  0  0  0  0  0  0  0  0  0  0
   38.6839   31.3471   42.3765 H   0  0  0  0  0  0  0  0  0  0  0  0
   40.1948   29.7117   43.5057 H   0  0  0  0  0  0  0  0  0  0  0  0
   42.6296   29.8627   43.1454 H   0  0  0  0  0  0  0  0  0  0  0  0
   43.6096   31.5929   41.6897 H   0  0  0  0  0  0  0  0  0  0  0  0
  1 14  1  0
  1  6  1  0
  2  3  1  0
  2 11  1  0
  4  3  1  0
  5  4  1  0
  5  6  1  0
  6  2  1  0
  7  8  2  0
  9  8  1  0
 10  9  2  0
 11 10  1  0
 11 12  2  0
 12  7  1  0
 13  1  1  0
 15 19  1  0
 15 14  1  0
 16 15  1  0
 17 16  2  0
 17 18  1  0
 18 19  2  0
 19 20  1  0
 20 21  2  0
 20 25  1  0
 21 22  1  0
 22 23  2  0
 24 23  1  0
 25 24  2  0
  1 26  1  1
  2 27  1  6
  3 28  1  0
  3 29  1  0
  4 30  1  0
  4 31  1  0
  5 32  1  0
  5 33  1  0
  6 34  1  1
  7 35  1  0
  8 36  1  0
  9 37  1  0
 13 38  1  0
 13 39  1  0
 13 40  1  0
 14 41  1  0
 14 42  1  0
 17 43  1  0
 18 44  1  0
 21 45  1  0
 22 46  1  0
 23 47  1  0
 24 48  1  0
 25 49  1  0
M  ISO  8  26   8  27  13  28  13  29  13  30  13  31  13  32  13  33  13
M  ISO  8  34  13  35  14  36  14  37  14  38   8  39   8  40   8  41   8
M  ISO  8  42   8  43  14  44  14  45  14  46  14  47  14  48  14  49  14
M  END
>  <minimizedAffinity>  (1) 
-6.01289892

>  <minimizedRMSD>  (1) 
1.31617641

$$$$
