
     RDKit          3D

 51 53  0  0  1  0  0  0  0  0999 V2000
   46.2980   35.0650   41.9080 C   0  0  1  0  0  0  0  0  0  0  0  0
   47.8290   35.1200   41.9570 C   0  0  0  0  0  0  0  0  0  0  0  0
   48.2520   34.8820   40.5330 C   0  0  0  0  0  0  0  0  0  0  0  0
   47.1950   33.9510   39.9970 C   0  0  0  0  0  0  0  0  0  0  0  0
   46.1400   33.8670   41.0940 C   0  0  2  0  0  0  0  0  0  0  0  0
   45.7100   33.7640   45.3340 C   0  0  0  0  0  0  0  0  0  0  0  0
   44.8600   34.7130   45.8820 C   0  0  0  0  0  0  0  0  0  0  0  0
   44.4930   35.7820   45.0830 C   0  0  0  0  0  0  0  0  0  0  0  0
   45.0070   35.7800   43.8460 N   0  0  0  0  0  0  0  0  0  0  0  0
   45.8200   34.8810   43.3070 C   0  0  0  0  0  0  0  0  0  0  0  0
   46.1620   33.8650   44.0870 N   0  0  0  0  0  0  0  0  0  0  0  0
   44.7810   33.5770   40.5070 C   0  0  2  0  0  0  0  0  0  0  0  0
   44.9370   33.0970   39.1270 C   0  0  0  0  0  0  0  0  0  0  0  0
   43.9090   34.7390   40.5350 C   0  0  0  0  0  0  0  0  0  0  0  0
   42.6720   34.5520   39.8930 N   0  0  0  0  0  0  0  0  0  0  0  0
   42.3480   35.3800   38.8840 N   0  0  0  0  0  0  0  0  0  0  0  0
   41.1660   35.1080   38.4120 C   0  0  0  0  0  0  0  0  0  0  0  0
   40.7540   34.0770   39.1550 C   0  0  0  0  0  0  0  0  0  0  0  0
   41.7150   33.6660   40.1520 C   0  0  0  0  0  0  0  0  0  0  0  0
   41.3690   32.5900   40.9340 C   0  0  0  0  0  0  0  0  0  0  0  0
   41.7420   31.7130   41.9210 C   0  0  0  0  0  0  0  0  0  0  0  0
   40.0620   33.0610   41.6770 C   0  0  0  0  0  0  0  0  0  0  0  0
   40.8830   31.4810   39.9020 C   0  0  0  0  0  0  0  0  0  0  0  0
   45.7532   35.9354   41.5136 H   0  0  0  0  0  0  0  0  0  0  0  0
   48.1731   36.1044   42.3070 H   0  0  0  0  0  0  0  0  0  0  0  0
   48.2553   34.3820   42.6524 H   0  0  0  0  0  0  0  0  0  0  0  0
   48.2686   35.8245   39.9660 H   0  0  0  0  0  0  0  0  0  0  0  0
   49.2669   34.4652   40.4538 H   0  0  0  0  0  0  0  0  0  0  0  0
   46.7580   34.3557   39.0722 H   0  0  0  0  0  0  0  0  0  0  0  0
   47.6073   32.9622   39.7477 H   0  0  0  0  0  0  0  0  0  0  0  0
   46.2648   33.0148   41.7783 H   0  0  0  0  0  0  0  0  0  0  0  0
   46.0188   32.9045   45.9471 H   0  0  0  0  0  0  0  0  0  0  0  0
   44.4909   34.6196   46.9140 H   0  0  0  0  0  0  0  0  0  0  0  0
   43.8244   36.5793   45.4397 H   0  0  0  0  0  0  0  0  0  0  0  0
   44.3065   32.8013   41.1259 H   0  0  0  0  0  0  0  0  0  0  0  0
   45.2770   32.0509   39.1389 H   0  0  0  0  0  0  0  0  0  0  0  0
   43.9712   33.1628   38.6045 H   0  0  0  0  0  0  0  0  0  0  0  0
   45.6796   33.7180   38.6045 H   0  0  0  0  0  0  0  0  0  0  0  0
   43.7154   34.9987   41.5862 H   0  0  0  0  0  0  0  0  0  0  0  0
   44.4307   35.5365   39.9856 H   0  0  0  0  0  0  0  0  0  0  0  0
   40.6310   35.6100   37.5924 H   0  0  0  0  0  0  0  0  0  0  0  0
   39.7776   33.5885   39.0206 H   0  0  0  0  0  0  0  0  0  0  0  0
   41.5497   32.1652   42.9052 H   0  0  0  0  0  0  0  0  0  0  0  0
   41.1612   30.7838   41.8246 H   0  0  0  0  0  0  0  0  0  0  0  0
   42.8142   31.4869   41.8246 H   0  0  0  0  0  0  0  0  0  0  0  0
   40.2179   33.0048   42.7644 H   0  0  0  0  0  0  0  0  0  0  0  0
   39.8322   34.0985   41.3927 H   0  0  0  0  0  0  0  0  0  0  0  0
   39.2233   32.4086   41.3927 H   0  0  0  0  0  0  0  0  0  0  0  0
   40.5010   30.6092   40.4535 H   0  0  0  0  0  0  0  0  0  0  0  0
   40.0834   31.8940   39.2695 H   0  0  0  0  0  0  0  0  0  0  0  0
   41.7286   31.1730   39.2695 H   0  0  0  0  0  0  0  0  0  0  0  0
  1  2  1  0
  1 10  1  0
  3  2  1  0
  4  3  1  0
  4  5  1  0
  5  1  1  0
  6  7  2  0
  8  7  1  0
  9  8  2  0
 10  9  1  0
 10 11  2  0
 11  6  1  0
 12 14  1  0
 12  5  1  0
 13 12  1  0
 15 19  1  0
 15 14  1  0
 16 15  1  0
 17 16  2  0
 17 18  1  0
 18 19  2  0
 19 20  1  0
 20 22  1  0
 20 21  1  0
 23 20  1  0
  1 24  1  6
  2 25  1  0
  2 26  1  0
  3 27  1  0
  3 28  1  0
  4 29  1  0
  4 30  1  0
  5 31  1  1
  6 32  1  0
  7 33  1  0
  8 34  1  0
 12 35  1  1
 13 36  1  0
 13 37  1  0
 13 38  1  0
 14 39  1  0
 14 40  1  0
 17 41  1  0
 18 42  1  0
 21 43  1  0
 21 44  1  0
 21 45  1  0
 22 46  1  0
 22 47  1  0
 22 48  1  0
 23 49  1  0
 23 50  1  0
 23 51  1  0
M  ISO  8  24  13  25  13  26  13  27  13  28  13  29  13  30  13  31  13
M  ISO  8  32  14  33  14  34  14  35   8  36   8  37   8  38   8  39   8
M  ISO  8  40   8  41  14  42  14  43   8  44   8  45   8  46   8  47   8
M  ISO  4  48   8  49   8  50   8  51   8
M  END
>  <minimizedAffinity>  (1) 
-5.74775505

>  <minimizedRMSD>  (1) 
1.24701762

$$$$
