
     RDKit          3D

 26 27  0  0  1  0  0  0  0  0999 V2000
   46.1480   34.3660   41.0890 C   0  0  2  0  0  0  0  0  0  0  0  0
   47.3620   34.2850   40.2630 C   0  0  0  0  0  0  0  0  0  0  0  0
   48.5510   34.5980   41.1760 C   0  0  0  0  0  0  0  0  0  0  0  0
   48.0030   34.7440   42.5790 C   0  0  0  0  0  0  0  0  0  0  0  0
   46.5870   35.1200   42.3340 C   0  0  2  0  0  0  0  0  0  0  0  0
   45.5600   33.0990   41.5340 C   0  0  0  0  0  0  0  0  0  0  0  0
   46.3700   31.9390   41.6220 C   0  0  0  0  0  0  0  0  0  0  0  0
   45.7940   30.7600   42.0790 C   0  0  0  0  0  0  0  0  0  0  0  0
   44.4670   30.7950   42.4160 N   0  0  0  0  0  0  0  0  0  0  0  0
   43.7200   31.9080   42.3220 C   0  0  0  0  0  0  0  0  0  0  0  0
   44.2740   33.0340   41.8850 N   0  0  0  0  0  0  0  0  0  0  0  0
   45.7970   34.9620   43.5580 C   0  0  0  0  0  0  0  0  0  0  0  0
   45.3644   34.8312   40.4729 H   0  0  0  0  0  0  0  0  0  0  0  0
   47.4653   33.2738   39.8426 H   0  0  0  0  0  0  0  0  0  0  0  0
   47.3137   34.9970   39.4260 H   0  0  0  0  0  0  0  0  0  0  0  0
   49.2822   33.7771   41.1393 H   0  0  0  0  0  0  0  0  0  0  0  0
   49.0614   35.5182   40.8555 H   0  0  0  0  0  0  0  0  0  0  0  0
   48.0724   33.7965   43.1334 H   0  0  0  0  0  0  0  0  0  0  0  0
   48.5515   35.4761   43.1899 H   0  0  0  0  0  0  0  0  0  0  0  0
   46.4311   36.1853   42.1086 H   0  0  0  0  0  0  0  0  0  0  0  0
   47.4313   31.9715   41.3348 H   0  0  0  0  0  0  0  0  0  0  0  0
   46.3813   29.8340   42.1668 H   0  0  0  0  0  0  0  0  0  0  0  0
   42.6572   31.8872   42.6049 H   0  0  0  0  0  0  0  0  0  0  0  0
   46.4488   35.0924   44.4345 H   0  0  0  0  0  0  0  0  0  0  0  0
   44.9985   35.7182   43.5792 H   0  0  0  0  0  0  0  0  0  0  0  0
   45.3507   33.9568   43.5792 H   0  0  0  0  0  0  0  0  0  0  0  0
  1  6  1  0
  1  5  1  0
  2  1  1  0
  2  3  1  0
  3  4  1  0
  5  4  1  0
  5 12  1  0
  6  7  2  0
  6 11  1  0
  7  8  1  0
  8  9  2  0
 10  9  1  0
 11 10  2  0
  1 13  1  6
  2 14  1  0
  2 15  1  0
  3 16  1  0
  3 17  1  0
  4 18  1  0
  4 19  1  0
  5 20  1  6
  7 21  1  0
  8 22  1  0
 10 23  1  0
 12 24  1  0
 12 25  1  0
 12 26  1  0
M  ISO  8  13  13  14  13  15  13  16  13  17  13  18  13  19  13  20  13
M  ISO  6  21  14  22  14  23  14  24   8  25   8  26   8
M  END
>  <minimizedAffinity>  (1) 
-3.14094615

>  <minimizedRMSD>  (1) 
0.506259382

$$$$
