
     RDKit          3D

 31 34  0  0  0  0  0  0  0  0999 V2000
   47.1760   34.8830   41.8900 C   0  0  0  0  0  0  0  0  0  0  0  0
   48.4400   35.4320   41.7630 C   0  0  0  0  0  0  0  0  0  0  0  0
   48.7660   35.1560   40.4290 C   0  0  0  0  0  0  0  0  0  0  0  0
   47.6990   34.4730   39.8510 C   0  0  0  0  0  0  0  0  0  0  0  0
   46.7670   34.3360   40.7810 O   0  0  0  0  0  0  0  0  0  0  0  0
   47.6390   34.0010   38.4710 C   0  0  0  0  0  0  0  0  0  0  0  0
   48.5300   34.2560   37.4490 C   0  0  0  0  0  0  0  0  0  0  0  0
   48.0790   33.6160   36.3380 N   0  0  0  0  0  0  0  0  0  0  0  0
   46.9320   32.9720   36.6420 C   0  0  0  0  0  0  0  0  0  0  0  0
   46.0210   32.1720   35.9680 C   0  0  0  0  0  0  0  0  0  0  0  0
   44.9010   31.6350   36.5600 C   0  0  0  0  0  0  0  0  0  0  0  0
   44.6360   31.8790   37.8870 C   0  0  0  0  0  0  0  0  0  0  0  0
   45.5230   32.6670   38.5730 C   0  0  0  0  0  0  0  0  0  0  0  0
   46.6410   33.1970   37.9610 C   0  0  0  0  0  0  0  0  0  0  0  0
   44.5800   35.8610   44.3830 C   0  0  0  0  0  0  0  0  0  0  0  0
   45.3720   35.8870   43.1930 C   0  0  0  0  0  0  0  0  0  0  0  0
   46.3460   34.8840   43.1000 C   0  0  0  0  0  0  0  0  0  0  0  0
   46.4990   33.9710   44.0850 N   0  0  0  0  0  0  0  0  0  0  0  0
   45.7110   34.0010   45.1960 C   0  0  0  0  0  0  0  0  0  0  0  0
   44.7620   34.9460   45.3290 N   0  0  0  0  0  0  0  0  0  0  0  0
   49.0401   35.9555   42.5218 H   0  0  0  0  0  0  0  0  0  0  0  0
   49.7039   35.4315   39.9246 H   0  0  0  0  0  0  0  0  0  0  0  0
   49.4416   34.8674   37.5205 H   0  0  0  0  0  0  0  0  0  0  0  0
   48.5371   33.6214   35.4155 H   0  0  0  0  0  0  0  0  0  0  0  0
   46.2034   31.9557   34.9050 H   0  0  0  0  0  0  0  0  0  0  0  0
   44.2157   31.0087   35.9700 H   0  0  0  0  0  0  0  0  0  0  0  0
   43.7467   31.4581   38.3789 H   0  0  0  0  0  0  0  0  0  0  0  0
   45.3397   32.8821   39.6361 H   0  0  0  0  0  0  0  0  0  0  0  0
   43.7967   36.6211   44.5194 H   0  0  0  0  0  0  0  0  0  0  0  0
   45.2269   36.6414   42.4057 H   0  0  0  0  0  0  0  0  0  0  0  0
   45.8510   33.2499   45.9874 H   0  0  0  0  0  0  0  0  0  0  0  0
  1 17  1  0
  2  1  2  0
  3  2  1  0
  4  3  2  0
  4  5  1  0
  5  1  1  0
  6  4  1  0
  7  6  2  0
  8  9  1  0
  8  7  1  0
  9 14  2  0
 10 11  2  0
 10  9  1  0
 11 12  1  0
 12 13  2  0
 14  6  1  0
 14 13  1  0
 15 20  2  0
 16 15  1  0
 17 16  2  0
 17 18  1  0
 18 19  2  0
 19 20  1  0
  2 21  1  0
  3 22  1  0
  7 23  1  0
  8 24  1  0
 10 25  1  0
 11 26  1  0
 12 27  1  0
 13 28  1  0
 15 29  1  0
 16 30  1  0
 19 31  1  0
M  ISO  8  21  14  22  14  23  14  24   9  25  14  26  14  27  14  28  14
M  ISO  3  29  14  30  14  31  14
M  END
>  <minimizedAffinity>  (1) 
-6.07945061

>  <minimizedRMSD>  (1) 
0.501245916

$$$$
