
     RDKit          3D

 30 33  0  0  0  0  0  0  0  0999 V2000
   47.1830   34.8880   41.9120 C   0  0  0  0  0  0  0  0  0  0  0  0
   48.4130   35.4860   41.7640 C   0  0  0  0  0  0  0  0  0  0  0  0
   48.7750   35.2040   40.4630 C   0  0  0  0  0  0  0  0  0  0  0  0
   47.7340   34.4450   39.8900 C   0  0  0  0  0  0  0  0  0  0  0  0
   46.7950   34.2820   40.8060 O   0  0  0  0  0  0  0  0  0  0  0  0
   44.5730   35.8720   44.4000 C   0  0  0  0  0  0  0  0  0  0  0  0
   45.3770   35.8750   43.2330 C   0  0  0  0  0  0  0  0  0  0  0  0
   46.3560   34.8860   43.1100 C   0  0  0  0  0  0  0  0  0  0  0  0
   46.4940   33.9790   44.0950 N   0  0  0  0  0  0  0  0  0  0  0  0
   45.7010   34.0050   45.2080 C   0  0  0  0  0  0  0  0  0  0  0  0
   44.7490   34.9540   45.3450 N   0  0  0  0  0  0  0  0  0  0  0  0
   47.7740   33.9780   38.5470 N   0  0  0  0  0  0  0  0  0  0  0  0
   48.7210   34.0620   37.5820 C   0  0  0  0  0  0  0  0  0  0  0  0
   48.2640   33.4480   36.4610 N   0  0  0  0  0  0  0  0  0  0  0  0
   47.0470   32.9660   36.6600 C   0  0  0  0  0  0  0  0  0  0  0  0
   46.0750   32.2740   35.9680 C   0  0  0  0  0  0  0  0  0  0  0  0
   44.8780   31.9100   36.4670 N   0  0  0  0  0  0  0  0  0  0  0  0
   44.6280   32.2560   37.7410 C   0  0  0  0  0  0  0  0  0  0  0  0
   45.5340   32.9320   38.4710 N   0  0  0  0  0  0  0  0  0  0  0  0
   46.7440   33.2990   37.9630 C   0  0  0  0  0  0  0  0  0  0  0  0
   46.3660   31.9190   34.6200 N   0  0  0  0  0  0  0  0  0  0  0  0
   48.9793   36.0590   42.5130 H   0  0  0  0  0  0  0  0  0  0  0  0
   49.7050   35.5143   39.9642 H   0  0  0  0  0  0  0  0  0  0  0  0
   43.7940   36.6385   44.5253 H   0  0  0  0  0  0  0  0  0  0  0  0
   45.2346   36.6326   42.4483 H   0  0  0  0  0  0  0  0  0  0  0  0
   45.8385   33.2498   45.9959 H   0  0  0  0  0  0  0  0  0  0  0  0
   49.7015   34.5489   37.6894 H   0  0  0  0  0  0  0  0  0  0  0  0
   43.6647   31.9815   38.1957 H   0  0  0  0  0  0  0  0  0  0  0  0
   47.2709   32.1797   34.2027 H   0  0  0  0  0  0  0  0  0  0  0  0
   45.6716   31.4016   34.0623 H   0  0  0  0  0  0  0  0  0  0  0  0
  1  8  1  0
  2  1  2  0
  3  2  1  0
  4  3  2  0
  4  5  1  0
  5  1  1  0
  6 11  2  0
  7  6  1  0
  8  7  2  0
  8  9  1  0
  9 10  2  0
 10 11  1  0
 12  4  1  0
 13 12  1  0
 14 15  1  0
 14 13  2  0
 15 20  2  0
 16 17  2  0
 16 15  1  0
 17 18  1  0
 18 19  2  0
 20 19  1  0
 20 12  1  0
 21 16  1  0
  2 22  1  0
  3 23  1  0
  6 24  1  0
  7 25  1  0
 10 26  1  0
 13 27  1  0
 18 28  1  0
 21 29  1  0
 21 30  1  0
M  ISO  7  22  14  23  14  24  14  25  14  26  14  27  14  28  14
M  END
>  <minimizedAffinity>  (1) 
-6.04522276

>  <minimizedRMSD>  (1) 
0.615225494

$$$$
