
     RDKit          3D

 30 32  0  0  0  0  0  0  0  0999 V2000
   47.0530   34.8580   42.1340 C   0  0  0  0  0  0  0  0  0  0  0  0
   48.2580   35.5150   41.9490 C   0  0  0  0  0  0  0  0  0  0  0  0
   48.6310   35.1780   40.6630 C   0  0  0  0  0  0  0  0  0  0  0  0
   47.6450   34.3440   40.1460 C   0  0  0  0  0  0  0  0  0  0  0  0
   46.6990   34.1700   41.0650 O   0  0  0  0  0  0  0  0  0  0  0  0
   44.4960   35.9050   44.6480 C   0  0  0  0  0  0  0  0  0  0  0  0
   45.2830   35.9010   43.4680 C   0  0  0  0  0  0  0  0  0  0  0  0
   46.2310   34.8860   43.3390 C   0  0  0  0  0  0  0  0  0  0  0  0
   46.3610   33.9640   44.3230 N   0  0  0  0  0  0  0  0  0  0  0  0
   45.5810   34.0070   45.4450 C   0  0  0  0  0  0  0  0  0  0  0  0
   44.6610   34.9740   45.5930 N   0  0  0  0  0  0  0  0  0  0  0  0
   47.7830   32.7030   36.2110 C   0  0  0  0  0  0  0  0  0  0  0  0
   48.5600   33.8180   36.5260 C   0  0  0  0  0  0  0  0  0  0  0  0
   48.4780   34.3080   37.8120 C   0  0  0  0  0  0  0  0  0  0  0  0
   47.6850   33.7790   38.8070 C   0  0  0  0  0  0  0  0  0  0  0  0
   46.9320   32.6810   38.4670 C   0  0  0  0  0  0  0  0  0  0  0  0
   46.9680   32.1350   37.1850 C   0  0  0  0  0  0  0  0  0  0  0  0
   47.8700   32.0580   34.5760 S   0  0  0  0  0  0  0  0  0  0  0  0
   46.4840   32.1060   33.9820 O   0  0  0  0  0  0  0  0  0  0  0  0
   48.8150   32.9450   33.7990 O   0  0  0  0  0  0  0  0  0  0  0  0
   48.7946   36.1576   42.6625 H   0  0  0  0  0  0  0  0  0  0  0  0
   49.5418   35.5087   40.1423 H   0  0  0  0  0  0  0  0  0  0  0  0
   43.7363   36.6881   44.7880 H   0  0  0  0  0  0  0  0  0  0  0  0
   45.1514   36.6655   42.6881 H   0  0  0  0  0  0  0  0  0  0  0  0
   45.7075   33.2465   46.2296 H   0  0  0  0  0  0  0  0  0  0  0  0
   49.2134   34.2885   35.7766 H   0  0  0  0  0  0  0  0  0  0  0  0
   49.0910   35.1864   38.0623 H   0  0  0  0  0  0  0  0  0  0  0  0
   46.2834   32.2206   39.2269 H   0  0  0  0  0  0  0  0  0  0  0  0
   46.3526   31.2558   36.9436 H   0  0  0  0  0  0  0  0  0  0  0  0
   48.3200   30.7643   34.5482 H   0  0  0  0  0  0  0  0  0  0  0  0
  1  8  1  0
  2  1  2  0
  3  2  1  0
  4  3  2  0
  4  5  1  0
  5  1  1  0
  6 11  2  0
  7  6  1  0
  8  7  2  0
  8  9  1  0
  9 10  2  0
 10 11  1  0
 12 13  2  0
 12 17  1  0
 13 14  1  0
 14 15  2  0
 15  4  1  0
 16 15  1  0
 17 16  2  0
 18 12  1  0
 19 18  2  0
 20 18  2  0
  2 21  1  0
  3 22  1  0
  6 23  1  0
  7 24  1  0
 10 25  1  0
 13 26  1  0
 14 27  1  0
 16 28  1  0
 17 29  1  0
 18 30  1  0
M  ISO  8  21  14  22  14  23  14  24  14  25  14  26  14  27  14  28  14
M  ISO  2  29  14  30  11
M  END
>  <minimizedAffinity>  (1) 
-5.91108847

>  <minimizedRMSD>  (1) 
0.883895576

$$$$
