
     RDKit          3D

 28 31  0  0  0  0  0  0  0  0999 V2000
   47.0650   34.8570   41.9340 C   0  0  0  0  0  0  0  0  0  0  0  0
   48.3170   35.4110   41.7690 C   0  0  0  0  0  0  0  0  0  0  0  0
   48.6510   35.0950   40.4570 C   0  0  0  0  0  0  0  0  0  0  0  0
   47.5870   34.3770   39.9200 C   0  0  0  0  0  0  0  0  0  0  0  0
   46.6340   34.2500   40.8520 O   0  0  0  0  0  0  0  0  0  0  0  0
   47.5860   33.8900   38.5900 N   0  0  0  0  0  0  0  0  0  0  0  0
   48.5760   34.0100   37.6670 C   0  0  0  0  0  0  0  0  0  0  0  0
   48.2440   33.4290   36.4970 N   0  0  0  0  0  0  0  0  0  0  0  0
   47.0080   32.9080   36.6350 C   0  0  0  0  0  0  0  0  0  0  0  0
   46.1410   32.2020   35.8020 C   0  0  0  0  0  0  0  0  0  0  0  0
   44.9300   31.8000   36.2340 N   0  0  0  0  0  0  0  0  0  0  0  0
   44.5830   32.1070   37.5100 C   0  0  0  0  0  0  0  0  0  0  0  0
   45.4190   32.7880   38.3180 N   0  0  0  0  0  0  0  0  0  0  0  0
   46.6350   33.2080   37.9280 C   0  0  0  0  0  0  0  0  0  0  0  0
   44.5600   35.9430   44.4870 C   0  0  0  0  0  0  0  0  0  0  0  0
   45.3260   35.9300   43.2880 C   0  0  0  0  0  0  0  0  0  0  0  0
   46.2550   34.9060   43.1540 C   0  0  0  0  0  0  0  0  0  0  0  0
   46.3770   34.0010   44.1440 N   0  0  0  0  0  0  0  0  0  0  0  0
   45.6340   34.0350   45.2790 C   0  0  0  0  0  0  0  0  0  0  0  0
   44.7200   35.0230   45.4320 N   0  0  0  0  0  0  0  0  0  0  0  0
   48.9126   35.9721   42.5041 H   0  0  0  0  0  0  0  0  0  0  0  0
   49.5838   35.3630   39.9393 H   0  0  0  0  0  0  0  0  0  0  0  0
   49.5329   34.5198   37.8523 H   0  0  0  0  0  0  0  0  0  0  0  0
   46.4516   31.9689   34.7728 H   0  0  0  0  0  0  0  0  0  0  0  0
   43.6001   31.7937   37.8918 H   0  0  0  0  0  0  0  0  0  0  0  0
   43.8140   36.7375   44.6358 H   0  0  0  0  0  0  0  0  0  0  0  0
   45.1894   36.6922   42.5067 H   0  0  0  0  0  0  0  0  0  0  0  0
   45.7715   33.2737   46.0610 H   0  0  0  0  0  0  0  0  0  0  0  0
  1 17  1  0
  2  1  2  0
  3  2  1  0
  4  3  2  0
  4  5  1  0
  5  1  1  0
  6  4  1  0
  7  6  1  0
  8  9  1  0
  8  7  2  0
  9 14  2  0
 10 11  2  0
 10  9  1  0
 11 12  1  0
 12 13  2  0
 14 13  1  0
 14  6  1  0
 15 20  2  0
 16 15  1  0
 17 16  2  0
 17 18  1  0
 18 19  2  0
 19 20  1  0
  2 21  1  0
  3 22  1  0
  7 23  1  0
 10 24  1  0
 12 25  1  0
 15 26  1  0
 16 27  1  0
 19 28  1  0
M  ISO  8  21  14  22  14  23  14  24  14  25  14  26  14  27  14  28  14
M  END
>  <minimizedAffinity>  (1) 
-5.86373711

>  <minimizedRMSD>  (1) 
0.353601992

$$$$
