
     RDKit          3D

 24 26  0  0  0  0  0  0  0  0999 V2000
   47.2130   34.9180   41.9330 C   0  0  0  0  0  0  0  0  0  0  0  0
   48.4310   35.5300   41.7890 C   0  0  0  0  0  0  0  0  0  0  0  0
   48.8080   35.2250   40.4940 C   0  0  0  0  0  0  0  0  0  0  0  0
   47.8060   34.4490   39.9220 C   0  0  0  0  0  0  0  0  0  0  0  0
   46.8490   34.2830   40.8340 O   0  0  0  0  0  0  0  0  0  0  0  0
   44.5640   35.8660   44.3970 C   0  0  0  0  0  0  0  0  0  0  0  0
   45.3750   35.9040   43.2200 C   0  0  0  0  0  0  0  0  0  0  0  0
   46.3620   34.9180   43.1170 C   0  0  0  0  0  0  0  0  0  0  0  0
   46.5050   33.9930   44.1070 N   0  0  0  0  0  0  0  0  0  0  0  0
   45.7020   34.0020   45.2110 C   0  0  0  0  0  0  0  0  0  0  0  0
   44.7460   34.9330   45.3430 N   0  0  0  0  0  0  0  0  0  0  0  0
   47.8270   33.9220   38.5620 C   0  0  0  0  0  0  0  0  0  0  0  0
   47.3150   32.7110   38.1420 C   0  0  0  0  0  0  0  0  0  0  0  0
   47.5680   32.6490   36.7670 C   0  0  0  0  0  0  0  0  0  0  0  0
   48.2040   33.7830   36.4080 N   0  0  0  0  0  0  0  0  0  0  0  0
   48.3580   34.5470   37.4940 N   0  0  0  0  0  0  0  0  0  0  0  0
   48.9814   36.1260   42.5319 H   0  0  0  0  0  0  0  0  0  0  0  0
   49.7393   35.5415   40.0016 H   0  0  0  0  0  0  0  0  0  0  0  0
   43.7731   36.6189   44.5295 H   0  0  0  0  0  0  0  0  0  0  0  0
   45.2309   36.6656   42.4395 H   0  0  0  0  0  0  0  0  0  0  0  0
   45.8397   33.2428   45.9950 H   0  0  0  0  0  0  0  0  0  0  0  0
   46.8124   31.9522   38.7598 H   0  0  0  0  0  0  0  0  0  0  0  0
   47.2959   31.8206   36.0964 H   0  0  0  0  0  0  0  0  0  0  0  0
   48.5184   34.0205   35.4563 H   0  0  0  0  0  0  0  0  0  0  0  0
  1  8  1  0
  2  1  2  0
  3  2  1  0
  4  3  2  0
  4  5  1  0
  5  1  1  0
  6 11  2  0
  7  6  1  0
  8  7  2  0
  8  9  1  0
  9 10  2  0
 10 11  1  0
 12  4  1  0
 13 12  1  0
 14 13  2  0
 15 14  1  0
 15 16  1  0
 16 12  2  0
  2 17  1  0
  3 18  1  0
  6 19  1  0
  7 20  1  0
 10 21  1  0
 13 22  1  0
 14 23  1  0
 15 24  1  0
M  ISO  8  17  14  18  14  19  14  20  14  21  14  22  14  23  14  24   9
M  END
>  <minimizedAffinity>  (1) 
-5.51946259

>  <minimizedRMSD>  (1) 
0.496533602

$$$$
