
     RDKit          3D

 25 27  0  0  0  0  0  0  0  0999 V2000
   47.1220   34.8890   42.0020 C   0  0  0  0  0  0  0  0  0  0  0  0
   48.3190   35.5310   41.8190 C   0  0  0  0  0  0  0  0  0  0  0  0
   48.6790   35.1620   40.5170 C   0  0  0  0  0  0  0  0  0  0  0  0
   47.6810   34.3240   39.9970 C   0  0  0  0  0  0  0  0  0  0  0  0
   46.7600   34.1920   40.9400 O   0  0  0  0  0  0  0  0  0  0  0  0
   44.5480   35.9730   44.4910 C   0  0  0  0  0  0  0  0  0  0  0  0
   45.3510   35.9600   43.3130 C   0  0  0  0  0  0  0  0  0  0  0  0
   46.2910   34.9250   43.1950 C   0  0  0  0  0  0  0  0  0  0  0  0
   46.3840   34.0140   44.1820 N   0  0  0  0  0  0  0  0  0  0  0  0
   45.5990   34.0620   45.2900 C   0  0  0  0  0  0  0  0  0  0  0  0
   44.6850   35.0430   45.4360 N   0  0  0  0  0  0  0  0  0  0  0  0
   47.7020   33.7350   38.6630 C   0  0  0  0  0  0  0  0  0  0  0  0
   48.4820   34.2730   37.6610 C   0  0  0  0  0  0  0  0  0  0  0  0
   48.4060   33.6150   36.4510 C   0  0  0  0  0  0  0  0  0  0  0  0
   47.6330   32.5440   36.2740 N   0  0  0  0  0  0  0  0  0  0  0  0
   46.8780   32.0340   37.2640 C   0  0  0  0  0  0  0  0  0  0  0  0
   46.9370   32.6490   38.4360 N   0  0  0  0  0  0  0  0  0  0  0  0
   48.8636   36.1778   42.5226 H   0  0  0  0  0  0  0  0  0  0  0  0
   49.5918   35.4766   39.9899 H   0  0  0  0  0  0  0  0  0  0  0  0
   43.7991   36.7678   44.6229 H   0  0  0  0  0  0  0  0  0  0  0  0
   45.2387   36.7266   42.5321 H   0  0  0  0  0  0  0  0  0  0  0  0
   45.7095   33.2966   46.0722 H   0  0  0  0  0  0  0  0  0  0  0  0
   49.1160   35.1587   37.8148 H   0  0  0  0  0  0  0  0  0  0  0  0
   49.0028   33.9863   35.6048 H   0  0  0  0  0  0  0  0  0  0  0  0
   46.2428   31.1496   37.1079 H   0  0  0  0  0  0  0  0  0  0  0  0
  1  8  1  0
  2  1  2  0
  3  2  1  0
  4  3  2  0
  4  5  1  0
  5  1  1  0
  6 11  2  0
  7  6  1  0
  8  7  2  0
  8  9  1  0
  9 10  2  0
 10 11  1  0
 12  4  1  0
 13 12  2  0
 14 13  1  0
 15 14  2  0
 15 16  1  0
 16 17  2  0
 17 12  1  0
  2 18  1  0
  3 19  1  0
  6 20  1  0
  7 21  1  0
 10 22  1  0
 13 23  1  0
 14 24  1  0
 16 25  1  0
M  ISO  8  18  14  19  14  20  14  21  14  22  14  23  14  24  14  25  14
M  END
>  <minimizedAffinity>  (1) 
-5.49621725

>  <minimizedRMSD>  (1) 
0.559021652

$$$$
