
     RDKit          3D

 30 32  0  0  0  0  0  0  0  0999 V2000
   47.1800   34.9090   41.9890 C   0  0  0  0  0  0  0  0  0  0  0  0
   48.4020   35.5100   41.8400 C   0  0  0  0  0  0  0  0  0  0  0  0
   48.7720   35.2290   40.5390 C   0  0  0  0  0  0  0  0  0  0  0  0
   47.7520   34.4710   39.9690 C   0  0  0  0  0  0  0  0  0  0  0  0
   46.8170   34.3080   40.8900 O   0  0  0  0  0  0  0  0  0  0  0  0
   44.5700   35.8320   44.4900 C   0  0  0  0  0  0  0  0  0  0  0  0
   45.3640   35.8840   43.3020 C   0  0  0  0  0  0  0  0  0  0  0  0
   46.3420   34.8990   43.1840 C   0  0  0  0  0  0  0  0  0  0  0  0
   46.4810   33.9850   44.1650 N   0  0  0  0  0  0  0  0  0  0  0  0
   45.7050   33.9720   45.2800 C   0  0  0  0  0  0  0  0  0  0  0  0
   44.7510   34.9070   45.4260 N   0  0  0  0  0  0  0  0  0  0  0  0
   47.6030   33.9100   38.6670 N   0  0  0  0  0  0  0  0  0  0  0  0
   46.6850   32.8090   38.3470 C   0  0  0  0  0  0  0  0  0  0  0  0
   46.9590   32.3610   36.9530 C   0  0  0  0  0  0  0  0  0  0  0  0
   48.2780   32.1540   36.6520 O   0  0  0  0  0  0  0  0  0  0  0  0
   49.1270   33.1720   37.0230 C   0  0  0  0  0  0  0  0  0  0  0  0
   48.3640   34.3960   37.5250 C   0  0  0  0  0  0  0  0  0  0  0  0
   48.9634   36.0875   42.5892 H   0  0  0  0  0  0  0  0  0  0  0  0
   49.7018   35.5458   40.0440 H   0  0  0  0  0  0  0  0  0  0  0  0
   43.7811   36.5849   44.6340 H   0  0  0  0  0  0  0  0  0  0  0  0
   45.2122   36.6530   42.5302 H   0  0  0  0  0  0  0  0  0  0  0  0
   45.8558   33.2052   46.0541 H   0  0  0  0  0  0  0  0  0  0  0  0
   46.8480   31.9743   39.0446 H   0  0  0  0  0  0  0  0  0  0  0  0
   45.6421   33.1468   38.4382 H   0  0  0  0  0  0  0  0  0  0  0  0
   46.4208   31.4159   36.7882 H   0  0  0  0  0  0  0  0  0  0  0  0
   46.6237   33.1800   36.2997 H   0  0  0  0  0  0  0  0  0  0  0  0
   49.7864   32.8103   37.8257 H   0  0  0  0  0  0  0  0  0  0  0  0
   49.7071   33.4716   36.1377 H   0  0  0  0  0  0  0  0  0  0  0  0
   49.0612   35.1895   37.8320 H   0  0  0  0  0  0  0  0  0  0  0  0
   47.7188   34.8333   36.7488 H   0  0  0  0  0  0  0  0  0  0  0  0
  1  8  1  0
  2  1  2  0
  3  2  1  0
  4  3  2  0
  4  5  1  0
  5  1  1  0
  6 11  2  0
  7  6  1  0
  8  7  2  0
  8  9  1  0
  9 10  2  0
 10 11  1  0
 12  4  1  0
 13 12  1  0
 14 13  1  0
 15 14  1  0
 15 16  1  0
 16 17  1  0
 17 12  1  0
  2 18  1  0
  3 19  1  0
  6 20  1  0
  7 21  1  0
 10 22  1  0
 13 23  1  0
 13 24  1  0
 14 25  1  0
 14 26  1  0
 16 27  1  0
 16 28  1  0
 17 29  1  0
 17 30  1  0
M  ISO  8  18  14  19  14  20  14  21  14  22  14  23  13  24  13  25  13
M  ISO  5  26  13  27  13  28  13  29  13  30  13
M  END
>  <minimizedAffinity>  (1) 
-5.40819168

>  <minimizedRMSD>  (1) 
0.644015312

$$$$
