
     RDKit          3D

 24 26  0  0  0  0  0  0  0  0999 V2000
   47.2930   35.0060   41.9570 C   0  0  0  0  0  0  0  0  0  0  0  0
   48.4900   35.6640   41.8570 C   0  0  0  0  0  0  0  0  0  0  0  0
   48.9220   35.3860   40.5780 C   0  0  0  0  0  0  0  0  0  0  0  0
   47.9580   34.5680   39.9580 C   0  0  0  0  0  0  0  0  0  0  0  0
   46.9920   34.3710   40.8460 O   0  0  0  0  0  0  0  0  0  0  0  0
   44.5570   35.8340   44.3590 C   0  0  0  0  0  0  0  0  0  0  0  0
   45.3990   35.9170   43.2090 C   0  0  0  0  0  0  0  0  0  0  0  0
   46.4030   34.9650   43.1160 C   0  0  0  0  0  0  0  0  0  0  0  0
   46.5330   34.0300   44.0920 N   0  0  0  0  0  0  0  0  0  0  0  0
   45.7110   33.9860   45.1700 C   0  0  0  0  0  0  0  0  0  0  0  0
   44.7240   34.8970   45.2920 N   0  0  0  0  0  0  0  0  0  0  0  0
   47.9950   34.0300   38.6050 C   0  0  0  0  0  0  0  0  0  0  0  0
   47.0150   33.2030   38.0780 C   0  0  0  0  0  0  0  0  0  0  0  0
   47.3550   32.8840   36.7960 N   0  0  0  0  0  0  0  0  0  0  0  0
   48.5120   33.4930   36.5310 C   0  0  0  0  0  0  0  0  0  0  0  0
   48.8920   34.1810   37.6210 N   0  0  0  0  0  0  0  0  0  0  0  0
   48.9917   36.2745   42.6222 H   0  0  0  0  0  0  0  0  0  0  0  0
   49.8573   35.7414   40.1210 H   0  0  0  0  0  0  0  0  0  0  0  0
   43.7450   36.5663   44.4788 H   0  0  0  0  0  0  0  0  0  0  0  0
   45.2593   36.6918   42.4407 H   0  0  0  0  0  0  0  0  0  0  0  0
   45.8485   33.2123   45.9398 H   0  0  0  0  0  0  0  0  0  0  0  0
   46.1128   32.8608   38.6061 H   0  0  0  0  0  0  0  0  0  0  0  0
   49.0624   33.4408   35.5801 H   0  0  0  0  0  0  0  0  0  0  0  0
   49.7513   34.7447   37.6903 H   0  0  0  0  0  0  0  0  0  0  0  0
  1  8  1  0
  2  1  2  0
  3  2  1  0
  4  3  2  0
  4  5  1  0
  5  1  1  0
  6 11  2  0
  7  6  1  0
  8  7  2  0
  8  9  1  0
  9 10  2  0
 10 11  1  0
 12  4  1  0
 13 12  2  0
 14 13  1  0
 15 14  2  0
 15 16  1  0
 16 12  1  0
  2 17  1  0
  3 18  1  0
  6 19  1  0
  7 20  1  0
 10 21  1  0
 13 22  1  0
 15 23  1  0
 16 24  1  0
M  ISO  8  17  14  18  14  19  14  20  14  21  14  22  14  23  14  24   9
M  END
>  <minimizedAffinity>  (1) 
-5.40440416

>  <minimizedRMSD>  (1) 
0.803088546

$$$$
