
     RDKit          3D

 29 31  0  0  0  0  0  0  0  0999 V2000
   47.1960   34.9210   41.9400 C   0  0  0  0  0  0  0  0  0  0  0  0
   48.4240   35.5210   41.8140 C   0  0  0  0  0  0  0  0  0  0  0  0
   48.8110   35.2350   40.5230 C   0  0  0  0  0  0  0  0  0  0  0  0
   47.8030   34.4800   39.9320 C   0  0  0  0  0  0  0  0  0  0  0  0
   46.8330   34.3110   40.8340 O   0  0  0  0  0  0  0  0  0  0  0  0
   44.5670   35.8650   44.4120 C   0  0  0  0  0  0  0  0  0  0  0  0
   45.3710   35.9080   43.2280 C   0  0  0  0  0  0  0  0  0  0  0  0
   46.3420   34.9240   43.1340 C   0  0  0  0  0  0  0  0  0  0  0  0
   46.4880   33.9990   44.1230 N   0  0  0  0  0  0  0  0  0  0  0  0
   45.6910   34.0100   45.2240 C   0  0  0  0  0  0  0  0  0  0  0  0
   44.7360   34.9440   45.3600 N   0  0  0  0  0  0  0  0  0  0  0  0
   47.6780   33.9200   38.6290 N   0  0  0  0  0  0  0  0  0  0  0  0
   47.0010   32.7380   38.1180 C   0  0  0  0  0  0  0  0  0  0  0  0
   47.8550   32.1640   37.0230 C   0  0  0  0  0  0  0  0  0  0  0  0
   48.9240   33.2140   36.8210 C   0  0  0  0  0  0  0  0  0  0  0  0
   48.2440   34.4370   37.3850 C   0  0  0  0  0  0  0  0  0  0  0  0
   48.9740   36.0987   42.5714 H   0  0  0  0  0  0  0  0  0  0  0  0
   49.7506   35.5482   40.0444 H   0  0  0  0  0  0  0  0  0  0  0  0
   43.7794   36.6215   44.5441 H   0  0  0  0  0  0  0  0  0  0  0  0
   45.2278   36.6694   42.4471 H   0  0  0  0  0  0  0  0  0  0  0  0
   45.8290   33.2501   46.0073 H   0  0  0  0  0  0  0  0  0  0  0  0
   46.8768   31.9991   38.9234 H   0  0  0  0  0  0  0  0  0  0  0  0
   46.0039   32.9993   37.7339 H   0  0  0  0  0  0  0  0  0  0  0  0
   48.2985   31.2059   37.3318 H   0  0  0  0  0  0  0  0  0  0  0  0
   47.2874   31.9488   36.1056 H   0  0  0  0  0  0  0  0  0  0  0  0
   49.8401   32.9690   37.3785 H   0  0  0  0  0  0  0  0  0  0  0  0
   49.2579   33.3235   35.7787 H   0  0  0  0  0  0  0  0  0  0  0  0
   48.9669   35.2431   37.5789 H   0  0  0  0  0  0  0  0  0  0  0  0
   47.4993   34.8830   36.7093 H   0  0  0  0  0  0  0  0  0  0  0  0
  1  8  1  0
  2  1  2  0
  3  2  1  0
  4  3  2  0
  4  5  1  0
  5  1  1  0
  6 11  2  0
  7  6  1  0
  8  7  2  0
  8  9  1  0
  9 10  2  0
 10 11  1  0
 12  4  1  0
 13 12  1  0
 14 13  1  0
 15 14  1  0
 15 16  1  0
 16 12  1  0
  2 17  1  0
  3 18  1  0
  6 19  1  0
  7 20  1  0
 10 21  1  0
 13 22  1  0
 13 23  1  0
 14 24  1  0
 14 25  1  0
 15 26  1  0
 15 27  1  0
 16 28  1  0
 16 29  1  0
M  ISO  8  17  14  18  14  19  14  20  14  21  14  22  13  23  13  24  13
M  ISO  5  25  13  26  13  27  13  28  13  29  13
M  END
>  <minimizedAffinity>  (1) 
-5.28168392

>  <minimizedRMSD>  (1) 
0.936350465

$$$$
