
     RDKit          3D

 23 25  0  0  0  0  0  0  0  0999 V2000
   47.1720   34.9100   41.9930 C   0  0  0  0  0  0  0  0  0  0  0  0
   48.3730   35.5480   41.8280 C   0  0  0  0  0  0  0  0  0  0  0  0
   48.7450   35.2050   40.5310 C   0  0  0  0  0  0  0  0  0  0  0  0
   47.7490   34.3820   39.9860 C   0  0  0  0  0  0  0  0  0  0  0  0
   46.8210   34.2350   40.9110 O   0  0  0  0  0  0  0  0  0  0  0  0
   44.5600   35.9140   44.4570 C   0  0  0  0  0  0  0  0  0  0  0  0
   45.3680   35.9330   43.2810 C   0  0  0  0  0  0  0  0  0  0  0  0
   46.3280   34.9260   43.1770 C   0  0  0  0  0  0  0  0  0  0  0  0
   46.4460   34.0020   44.1690 N   0  0  0  0  0  0  0  0  0  0  0  0
   45.6490   34.0280   45.2730 C   0  0  0  0  0  0  0  0  0  0  0  0
   44.7130   34.9840   45.4060 N   0  0  0  0  0  0  0  0  0  0  0  0
   47.7290   33.7840   38.6300 C   0  0  0  0  0  0  0  0  0  0  0  0
   46.7800   32.8390   38.3440 C   0  0  0  0  0  0  0  0  0  0  0  0
   47.1380   32.4000   36.5950 S   0  0  0  0  0  0  0  0  0  0  0  0
   48.5790   33.6370   36.5720 C   0  0  0  0  0  0  0  0  0  0  0  0
   48.5530   34.0690   37.6310 N   0  0  0  0  0  0  0  0  0  0  0  0
   48.9139   36.1799   42.5478 H   0  0  0  0  0  0  0  0  0  0  0  0
   49.6649   35.5255   40.0200 H   0  0  0  0  0  0  0  0  0  0  0  0
   43.7884   36.6872   44.5869 H   0  0  0  0  0  0  0  0  0  0  0  0
   45.2412   36.6981   42.5009 H   0  0  0  0  0  0  0  0  0  0  0  0
   45.7712   33.2660   46.0568 H   0  0  0  0  0  0  0  0  0  0  0  0
   45.9939   32.4394   39.0015 H   0  0  0  0  0  0  0  0  0  0  0  0
   49.2661   33.8777   35.7474 H   0  0  0  0  0  0  0  0  0  0  0  0
  1  8  1  0
  2  1  2  0
  3  2  1  0
  4  3  2  0
  4  5  1  0
  5  1  1  0
  6 11  2  0
  7  6  1  0
  8  7  2  0
  8  9  1  0
  9 10  2  0
 10 11  1  0
 12  4  1  0
 13 12  2  0
 14 13  1  0
 15 14  1  0
 15 16  2  0
 16 12  1  0
  2 17  1  0
  3 18  1  0
  6 19  1  0
  7 20  1  0
 10 21  1  0
 13 22  1  0
 15 23  1  0
M  ISO  7  17  14  18  14  19  14  20  14  21  14  22  14  23  14
M  END
>  <minimizedAffinity>  (1) 
-5.25978708

>  <minimizedRMSD>  (1) 
0.699722946

$$$$
