
     RDKit          3D

 22 24  0  0  0  0  0  0  0  0999 V2000
   47.1950   34.9070   41.9560 C   0  0  0  0  0  0  0  0  0  0  0  0
   48.3910   35.5660   41.8090 C   0  0  0  0  0  0  0  0  0  0  0  0
   48.8010   35.2480   40.5300 C   0  0  0  0  0  0  0  0  0  0  0  0
   47.8330   34.4150   39.9720 C   0  0  0  0  0  0  0  0  0  0  0  0
   46.8700   34.2370   40.8840 O   0  0  0  0  0  0  0  0  0  0  0  0
   44.5570   35.8870   44.4120 C   0  0  0  0  0  0  0  0  0  0  0  0
   45.3710   35.9090   43.2390 C   0  0  0  0  0  0  0  0  0  0  0  0
   46.3420   34.9180   43.1440 C   0  0  0  0  0  0  0  0  0  0  0  0
   46.4820   33.9900   44.1360 N   0  0  0  0  0  0  0  0  0  0  0  0
   45.6700   34.0220   45.2370 C   0  0  0  0  0  0  0  0  0  0  0  0
   44.7130   34.9740   45.3630 N   0  0  0  0  0  0  0  0  0  0  0  0
   47.7730   33.7960   38.6530 C   0  0  0  0  0  0  0  0  0  0  0  0
   47.0940   32.7560   38.1220 N   0  0  0  0  0  0  0  0  0  0  0  0
   47.4060   32.6130   36.8710 O   0  0  0  0  0  0  0  0  0  0  0  0
   48.2800   33.5250   36.5250 C   0  0  0  0  0  0  0  0  0  0  0  0
   48.5260   34.2810   37.6300 N   0  0  0  0  0  0  0  0  0  0  0  0
   48.9054   36.2027   42.5438 H   0  0  0  0  0  0  0  0  0  0  0  0
   49.7245   35.5901   40.0399 H   0  0  0  0  0  0  0  0  0  0  0  0
   43.7752   36.6515   44.5315 H   0  0  0  0  0  0  0  0  0  0  0  0
   45.2374   36.6678   42.4540 H   0  0  0  0  0  0  0  0  0  0  0  0
   45.7950   33.2677   46.0278 H   0  0  0  0  0  0  0  0  0  0  0  0
   48.7301   33.6554   35.5298 H   0  0  0  0  0  0  0  0  0  0  0  0
  1  8  1  0
  2  1  2  0
  3  2  1  0
  4  3  2  0
  4  5  1  0
  5  1  1  0
  6 11  2  0
  7  6  1  0
  8  7  2  0
  8  9  1  0
  9 10  2  0
 10 11  1  0
 12  4  1  0
 13 12  2  0
 14 13  1  0
 15 14  1  0
 15 16  2  0
 16 12  1  0
  2 17  1  0
  3 18  1  0
  6 19  1  0
  7 20  1  0
 10 21  1  0
 15 22  1  0
M  ISO  6  17  14  18  14  19  14  20  14  21  14  22  14
M  END
>  <minimizedAffinity>  (1) 
-5.23981953

>  <minimizedRMSD>  (1) 
0.396554053

$$$$
