
     RDKit          3D

 23 25  0  0  0  0  0  0  0  0999 V2000
   47.2390   34.9570   41.9390 C   0  0  0  0  0  0  0  0  0  0  0  0
   48.4540   35.5740   41.8150 C   0  0  0  0  0  0  0  0  0  0  0  0
   48.8600   35.2970   40.5240 C   0  0  0  0  0  0  0  0  0  0  0  0
   47.8660   34.5230   39.9320 C   0  0  0  0  0  0  0  0  0  0  0  0
   46.8930   34.3370   40.8280 O   0  0  0  0  0  0  0  0  0  0  0  0
   44.5650   35.8570   44.3720 C   0  0  0  0  0  0  0  0  0  0  0  0
   45.3860   35.9040   43.2200 C   0  0  0  0  0  0  0  0  0  0  0  0
   46.3720   34.9390   43.1170 C   0  0  0  0  0  0  0  0  0  0  0  0
   46.5190   34.0010   44.0970 N   0  0  0  0  0  0  0  0  0  0  0  0
   45.6960   34.0000   45.1930 C   0  0  0  0  0  0  0  0  0  0  0  0
   44.7200   34.9340   45.3220 N   0  0  0  0  0  0  0  0  0  0  0  0
   47.7400   33.9510   38.6280 N   0  0  0  0  0  0  0  0  0  0  0  0
   48.4330   34.1520   37.4820 C   0  0  0  0  0  0  0  0  0  0  0  0
   47.9230   33.3620   36.5150 N   0  0  0  0  0  0  0  0  0  0  0  0
   46.9140   32.6710   37.0620 C   0  0  0  0  0  0  0  0  0  0  0  0
   46.8080   33.0350   38.3530 N   0  0  0  0  0  0  0  0  0  0  0  0
   48.9894   36.1611   42.5756 H   0  0  0  0  0  0  0  0  0  0  0  0
   49.7965   35.6273   40.0509 H   0  0  0  0  0  0  0  0  0  0  0  0
   43.7705   36.6089   44.4879 H   0  0  0  0  0  0  0  0  0  0  0  0
   45.2468   36.6710   42.4439 H   0  0  0  0  0  0  0  0  0  0  0  0
   45.8276   33.2365   45.9738 H   0  0  0  0  0  0  0  0  0  0  0  0
   49.2762   34.8477   37.3595 H   0  0  0  0  0  0  0  0  0  0  0  0
   46.2818   31.9339   36.5453 H   0  0  0  0  0  0  0  0  0  0  0  0
  1  8  1  0
  2  1  2  0
  3  2  1  0
  4  3  2  0
  4  5  1  0
  5  1  1  0
  6 11  2  0
  7  6  1  0
  8  7  2  0
  8  9  1  0
  9 10  2  0
 10 11  1  0
 12  4  1  0
 13 12  1  0
 14 15  1  0
 14 13  2  0
 15 16  2  0
 16 12  1  0
  2 17  1  0
  3 18  1  0
  6 19  1  0
  7 20  1  0
 10 21  1  0
 13 22  1  0
 15 23  1  0
M  ISO  7  17  14  18  14  19  14  20  14  21  14  22  14  23  14
M  END
>  <minimizedAffinity>  (1) 
-5.20614481

>  <minimizedRMSD>  (1) 
0.673248351

$$$$
