
     RDKit          3D

 20 21  0  0  0  0  0  0  0  0999 V2000
   47.2620   34.9680   41.9290 C   0  0  0  0  0  0  0  0  0  0  0  0
   48.4700   35.6490   41.8370 C   0  0  0  0  0  0  0  0  0  0  0  0
   48.9030   35.3720   40.5570 C   0  0  0  0  0  0  0  0  0  0  0  0
   47.9380   34.5420   39.9450 C   0  0  0  0  0  0  0  0  0  0  0  0
   46.9580   34.3310   40.8370 O   0  0  0  0  0  0  0  0  0  0  0  0
   44.5660   35.8520   44.3560 C   0  0  0  0  0  0  0  0  0  0  0  0
   45.3980   35.8990   43.2010 C   0  0  0  0  0  0  0  0  0  0  0  0
   46.3870   34.9390   43.1030 C   0  0  0  0  0  0  0  0  0  0  0  0
   46.5360   34.0010   44.0820 N   0  0  0  0  0  0  0  0  0  0  0  0
   45.7180   33.9900   45.1720 C   0  0  0  0  0  0  0  0  0  0  0  0
   44.7400   34.9130   45.3040 N   0  0  0  0  0  0  0  0  0  0  0  0
   48.0650   34.0390   38.5660 C   0  0  0  0  0  0  0  0  0  0  0  0
   48.5990   35.0210   37.7380 F   0  0  0  0  0  0  0  0  0  0  0  0
   46.8530   33.6850   38.0070 F   0  0  0  0  0  0  0  0  0  0  0  0
   48.9190   32.9560   38.5460 F   0  0  0  0  0  0  0  0  0  0  0  0
   48.9641   36.2637   42.6038 H   0  0  0  0  0  0  0  0  0  0  0  0
   49.8338   35.7331   40.0953 H   0  0  0  0  0  0  0  0  0  0  0  0
   43.7660   36.5975   44.4754 H   0  0  0  0  0  0  0  0  0  0  0  0
   45.2597   36.6642   42.4229 H   0  0  0  0  0  0  0  0  0  0  0  0
   45.8549   33.2243   45.9498 H   0  0  0  0  0  0  0  0  0  0  0  0
  1  8  1  0
  2  1  2  0
  3  2  1  0
  4  3  2  0
  4  5  1  0
  5  1  1  0
  6 11  2  0
  7  6  1  0
  8  7  2  0
  8  9  1  0
  9 10  2  0
 10 11  1  0
 12  4  1  0
 13 12  1  0
 14 12  1  0
 15 12  1  0
  2 16  1  0
  3 17  1  0
  6 18  1  0
  7 19  1  0
 10 20  1  0
M  ISO  5  16  14  17  14  18  14  19  14  20  14
M  END
>  <minimizedAffinity>  (1) 
-5.19033194

>  <minimizedRMSD>  (1) 
0.511758745

$$$$
