
     RDKit          3D

 29 30  0  0  0  0  0  0  0  0999 V2000
   47.2070   34.8790   41.9240 C   0  0  0  0  0  0  0  0  0  0  0  0
   48.3690   35.5810   41.7390 C   0  0  0  0  0  0  0  0  0  0  0  0
   48.7710   35.2020   40.4640 C   0  0  0  0  0  0  0  0  0  0  0  0
   47.8400   34.3040   39.9550 C   0  0  0  0  0  0  0  0  0  0  0  0
   46.8970   34.1330   40.8850 O   0  0  0  0  0  0  0  0  0  0  0  0
   44.5700   35.8930   44.3720 C   0  0  0  0  0  0  0  0  0  0  0  0
   45.3840   35.8920   43.2100 C   0  0  0  0  0  0  0  0  0  0  0  0
   46.3540   34.9040   43.1140 C   0  0  0  0  0  0  0  0  0  0  0  0
   46.4820   33.9950   44.1150 N   0  0  0  0  0  0  0  0  0  0  0  0
   45.6800   34.0280   45.2180 C   0  0  0  0  0  0  0  0  0  0  0  0
   44.7290   34.9790   45.3390 N   0  0  0  0  0  0  0  0  0  0  0  0
   47.8210   33.6180   38.6430 C   0  0  0  0  0  0  0  0  0  0  0  0
   48.3530   34.5070   37.5280 C   0  0  0  0  0  0  0  0  0  0  0  0
   46.4330   33.1760   38.2430 C   0  0  0  0  0  0  0  0  0  0  0  0
   48.7080   32.3830   38.6590 C   0  0  0  0  0  0  0  0  0  0  0  0
   48.8642   36.2767   42.4324 H   0  0  0  0  0  0  0  0  0  0  0  0
   49.6746   35.5537   39.9445 H   0  0  0  0  0  0  0  0  0  0  0  0
   43.7907   36.6615   44.4817 H   0  0  0  0  0  0  0  0  0  0  0  0
   45.2518   36.6435   42.4176 H   0  0  0  0  0  0  0  0  0  0  0  0
   45.8084   33.2773   46.0117 H   0  0  0  0  0  0  0  0  0  0  0  0
   48.8713   35.3731   37.9653 H   0  0  0  0  0  0  0  0  0  0  0  0
   49.0568   33.9340   36.9064 H   0  0  0  0  0  0  0  0  0  0  0  0
   47.5154   34.8564   36.9064 H   0  0  0  0  0  0  0  0  0  0  0  0
   45.8344   32.9854   39.1460 H   0  0  0  0  0  0  0  0  0  0  0  0
   45.9544   33.9662   37.6459 H   0  0  0  0  0  0  0  0  0  0  0  0
   46.4994   32.2546   37.6459 H   0  0  0  0  0  0  0  0  0  0  0  0
   48.9155   32.0941   39.6999 H   0  0  0  0  0  0  0  0  0  0  0  0
   48.1956   31.5568   38.1443 H   0  0  0  0  0  0  0  0  0  0  0  0
   49.6546   32.6047   38.1443 H   0  0  0  0  0  0  0  0  0  0  0  0
  1  8  1  0
  2  1  2  0
  3  2  1  0
  4  3  2  0
  4  5  1  0
  5  1  1  0
  6 11  2  0
  7  6  1  0
  8  7  2  0
  8  9  1  0
  9 10  2  0
 10 11  1  0
 12 15  1  0
 12  4  1  0
 13 12  1  0
 14 12  1  0
  2 16  1  0
  3 17  1  0
  6 18  1  0
  7 19  1  0
 10 20  1  0
 13 21  1  0
 13 22  1  0
 13 23  1  0
 14 24  1  0
 14 25  1  0
 14 26  1  0
 15 27  1  0
 15 28  1  0
 15 29  1  0
M  ISO  8  16  14  17  14  18  14  19  14  20  14  21   8  22   8  23   8
M  ISO  6  24   8  25   8  26   8  27   8  28   8  29   8
M  END
>  <minimizedAffinity>  (1) 
-5.18937492

>  <minimizedRMSD>  (1) 
0.345962256

$$$$
