
     RDKit          3D

 20 21  0  0  0  0  0  0  0  0999 V2000
   44.5460   36.0030   44.5080 C   0  0  0  0  0  0  0  0  0  0  0  0
   45.3150   35.9410   43.3110 C   0  0  0  0  0  0  0  0  0  0  0  0
   46.2240   34.8820   43.1820 C   0  0  0  0  0  0  0  0  0  0  0  0
   46.3250   33.9880   44.1820 N   0  0  0  0  0  0  0  0  0  0  0  0
   45.5730   34.0780   45.3140 C   0  0  0  0  0  0  0  0  0  0  0  0
   44.6860   35.0890   45.4670 N   0  0  0  0  0  0  0  0  0  0  0  0
   47.0160   34.8060   41.9670 C   0  0  0  0  0  0  0  0  0  0  0  0
   48.2290   35.4060   41.7430 C   0  0  0  0  0  0  0  0  0  0  0  0
   48.5410   35.0140   40.4360 C   0  0  0  0  0  0  0  0  0  0  0  0
   47.5080   34.2110   39.9620 C   0  0  0  0  0  0  0  0  0  0  0  0
   46.6000   34.1100   40.9270 O   0  0  0  0  0  0  0  0  0  0  0  0
   47.4300   33.5760   38.6170 C   0  0  0  0  0  0  0  0  0  0  0  0
   43.8229   36.8208   44.6432 H   0  0  0  0  0  0  0  0  0  0  0  0
   45.2000   36.6950   42.5184 H   0  0  0  0  0  0  0  0  0  0  0  0
   45.6870   33.3253   46.1080 H   0  0  0  0  0  0  0  0  0  0  0  0
   48.8142   36.0408   42.4246 H   0  0  0  0  0  0  0  0  0  0  0  0
   49.4476   35.2929   39.8789 H   0  0  0  0  0  0  0  0  0  0  0  0
   47.2966   32.4901   38.7314 H   0  0  0  0  0  0  0  0  0  0  0  0
   46.5764   33.9939   38.0631 H   0  0  0  0  0  0  0  0  0  0  0  0
   48.3593   33.7749   38.0631 H   0  0  0  0  0  0  0  0  0  0  0  0
  1  6  2  0
  2  1  1  0
  3  2  2  0
  3  4  1  0
  4  5  2  0
  5  6  1  0
  7  3  1  0
  8  7  2  0
  9  8  1  0
 10  9  2  0
 10 11  1  0
 11  7  1  0
 12 10  1  0
  1 13  1  0
  2 14  1  0
  5 15  1  0
  8 16  1  0
  9 17  1  0
 12 18  1  0
 12 19  1  0
 12 20  1  0
M  ISO  8  13  14  14  14  15  14  16  14  17  14  18   8  19   8  20   8
M  END
>  <minimizedAffinity>  (1) 
-4.63193655

>  <minimizedRMSD>  (1) 
0.0257599149

$$$$
