
     RDKit          3D

 41 45  0  0  0  0  0  0  0  0999 V2000
   46.8930   34.7290   41.8880 C   0  0  0  0  0  0  0  0  0  0  0  0
   48.1960   35.1780   41.6750 C   0  0  0  0  0  0  0  0  0  0  0  0
   48.4540   34.7780   40.3660 C   0  0  0  0  0  0  0  0  0  0  0  0
   47.3130   34.1240   39.8840 C   0  0  0  0  0  0  0  0  0  0  0  0
   46.4050   34.1260   40.8450 O   0  0  0  0  0  0  0  0  0  0  0  0
   44.5570   36.0780   44.4500 C   0  0  0  0  0  0  0  0  0  0  0  0
   45.2830   35.9700   43.2220 C   0  0  0  0  0  0  0  0  0  0  0  0
   46.1270   34.8910   43.1160 C   0  0  0  0  0  0  0  0  0  0  0  0
   46.2270   34.0110   44.1480 N   0  0  0  0  0  0  0  0  0  0  0  0
   45.5140   34.1580   45.3000 C   0  0  0  0  0  0  0  0  0  0  0  0
   44.6810   35.1960   45.4410 N   0  0  0  0  0  0  0  0  0  0  0  0
   45.6680   33.1960   46.3410 N   0  0  0  0  0  0  0  0  0  0  0  0
   45.1140   33.2930   47.5630 C   0  0  0  0  0  0  0  0  0  0  0  0
   45.4780   32.2030   48.2800 N   0  0  0  0  0  0  0  0  0  0  0  0
   46.2620   31.4270   47.5010 C   0  0  0  0  0  0  0  0  0  0  0  0
   46.9180   30.2250   47.6670 C   0  0  0  0  0  0  0  0  0  0  0  0
   47.6490   29.6970   46.6520 N   0  0  0  0  0  0  0  0  0  0  0  0
   47.7580   30.3180   45.4630 C   0  0  0  0  0  0  0  0  0  0  0  0
   47.1240   31.4840   45.2990 N   0  0  0  0  0  0  0  0  0  0  0  0
   46.3840   32.0600   46.2660 C   0  0  0  0  0  0  0  0  0  0  0  0
   47.1670   33.5630   38.5860 N   0  0  0  0  0  0  0  0  0  0  0  0
   46.3170   32.5310   38.4330 C   0  0  0  0  0  0  0  0  0  0  0  0
   46.1400   31.9460   37.2010 C   0  0  0  0  0  0  0  0  0  0  0  0
   46.8550   32.4360   36.1190 C   0  0  0  0  0  0  0  0  0  0  0  0
   46.6730   31.8780   35.0030 O   0  0  0  0  0  0  0  0  0  0  0  0
   47.6870   33.4650   36.3370 N   0  0  0  0  0  0  0  0  0  0  0  0
   47.8470   34.0300   37.5560 C   0  0  0  0  0  0  0  0  0  0  0  0
   48.6460   34.9930   37.6780 O   0  0  0  0  0  0  0  0  0  0  0  0
   45.1700   30.8120   37.1350 C   0  0  0  0  0  0  0  0  0  0  0  0
   48.8575   35.7159   42.3700 H   0  0  0  0  0  0  0  0  0  0  0  0
   49.3879   34.9459   39.8096 H   0  0  0  0  0  0  0  0  0  0  0  0
   43.8674   36.9248   44.5816 H   0  0  0  0  0  0  0  0  0  0  0  0
   45.1723   36.7060   42.4120 H   0  0  0  0  0  0  0  0  0  0  0  0
   44.4757   34.1153   47.9185 H   0  0  0  0  0  0  0  0  0  0  0  0
   46.8485   29.6916   48.6265 H   0  0  0  0  0  0  0  0  0  0  0  0
   48.3523   29.8785   44.6484 H   0  0  0  0  0  0  0  0  0  0  0  0
   45.7585   32.1518   39.3015 H   0  0  0  0  0  0  0  0  0  0  0  0
   48.2263   33.8406   35.5439 H   0  0  0  0  0  0  0  0  0  0  0  0
   44.9021   30.4988   38.1549 H   0  0  0  0  0  0  0  0  0  0  0  0
   44.2643   31.1349   36.6008 H   0  0  0  0  0  0  0  0  0  0  0  0
   45.6293   29.9672   36.6008 H   0  0  0  0  0  0  0  0  0  0  0  0
  1  8  1  0
  2  1  2  0
  3  2  1  0
  4  3  2  0
  4  5  1  0
  5  1  1  0
  6 11  2  0
  7  6  1  0
  8  7  2  0
  8  9  1  0
  9 10  2  0
 10 11  1  0
 10 12  1  0
 12 13  1  0
 13 14  2  0
 15 16  2  0
 15 14  1  0
 17 16  1  0
 18 17  2  0
 19 18  1  0
 19 20  2  0
 20 12  1  0
 20 15  1  0
 21  4  1  0
 22 21  1  0
 23 22  2  0
 24 26  1  0
 24 23  1  0
 25 24  2  0
 26 27  1  0
 27 28  2  0
 27 21  1  0
 29 23  1  0
  2 30  1  0
  3 31  1  0
  6 32  1  0
  7 33  1  0
 13 34  1  0
 16 35  1  0
 18 36  1  0
 22 37  1  0
 26 38  1  0
 29 39  1  0
 29 40  1  0
 29 41  1  0
M  ISO  8  30  14  31  14  32  14  33  14  34  14  35  14  36  14  37  14
M  ISO  4  38   9  39   8  40   8  41   8
M  END
>  <minimizedAffinity>  (1) 
-8.01680279

>  <minimizedRMSD>  (1) 
0.0673981681

$$$$
