
     RDKit          3D

 39 41  0  0  0  0  0  0  0  0999 V2000
   47.0010   34.6990   42.0070 C   0  0  0  0  0  0  0  0  0  0  0  0
   48.2240   35.3160   41.7480 C   0  0  0  0  0  0  0  0  0  0  0  0
   48.4780   34.9760   40.4200 C   0  0  0  0  0  0  0  0  0  0  0  0
   47.4140   34.1900   39.9630 C   0  0  0  0  0  0  0  0  0  0  0  0
   46.5620   34.0590   40.9610 O   0  0  0  0  0  0  0  0  0  0  0  0
   47.2860   33.6400   38.6640 N   0  0  0  0  0  0  0  0  0  0  0  0
   46.4410   32.6070   38.4920 C   0  0  0  0  0  0  0  0  0  0  0  0
   46.2800   32.0340   37.2440 C   0  0  0  0  0  0  0  0  0  0  0  0
   46.9960   32.5330   36.1810 C   0  0  0  0  0  0  0  0  0  0  0  0
   46.8390   32.0010   35.0540 O   0  0  0  0  0  0  0  0  0  0  0  0
   47.8340   33.5740   36.4120 N   0  0  0  0  0  0  0  0  0  0  0  0
   47.9740   34.1200   37.6430 C   0  0  0  0  0  0  0  0  0  0  0  0
   48.7680   35.0840   37.7860 O   0  0  0  0  0  0  0  0  0  0  0  0
   45.3200   30.8970   37.1510 C   0  0  0  0  0  0  0  0  0  0  0  0
   44.5950   35.6730   44.6710 C   0  0  0  0  0  0  0  0  0  0  0  0
   45.2890   35.6800   43.4200 C   0  0  0  0  0  0  0  0  0  0  0  0
   46.2710   34.7310   43.2580 C   0  0  0  0  0  0  0  0  0  0  0  0
   46.5140   33.8690   44.2700 N   0  0  0  0  0  0  0  0  0  0  0  0
   45.8390   33.8890   45.4420 C   0  0  0  0  0  0  0  0  0  0  0  0
   44.8690   34.8040   45.6380 N   0  0  0  0  0  0  0  0  0  0  0  0
   46.1790   32.9020   46.4880 C   0  0  0  0  0  0  0  0  0  0  0  0
   46.1930   31.5430   45.7960 C   0  0  0  0  0  0  0  0  0  0  0  0
   45.1770   32.9470   47.6050 C   0  0  0  0  0  0  0  0  0  0  0  0
   48.8397   35.9240   42.4272 H   0  0  0  0  0  0  0  0  0  0  0  0
   49.3602   35.2734   39.8340 H   0  0  0  0  0  0  0  0  0  0  0  0
   45.8746   32.2158   39.3500 H   0  0  0  0  0  0  0  0  0  0  0  0
   48.3796   33.9603   35.6284 H   0  0  0  0  0  0  0  0  0  0  0  0
   45.0422   30.5680   38.1632 H   0  0  0  0  0  0  0  0  0  0  0  0
   44.4185   31.2215   36.6106 H   0  0  0  0  0  0  0  0  0  0  0  0
   45.7910   30.0627   36.6106 H   0  0  0  0  0  0  0  0  0  0  0  0
   43.8025   36.4171   44.8391 H   0  0  0  0  0  0  0  0  0  0  0  0
   45.0497   36.4063   42.6293 H   0  0  0  0  0  0  0  0  0  0  0  0
   47.1558   33.1145   46.9471 H   0  0  0  0  0  0  0  0  0  0  0  0
   46.2012   30.7457   46.5538 H   0  0  0  0  0  0  0  0  0  0  0  0
   45.2958   31.4423   45.1675 H   0  0  0  0  0  0  0  0  0  0  0  0
   47.0920   31.4608   45.1675 H   0  0  0  0  0  0  0  0  0  0  0  0
   45.7031   32.9234   48.5707 H   0  0  0  0  0  0  0  0  0  0  0  0
   44.5871   33.8725   47.5314 H   0  0  0  0  0  0  0  0  0  0  0  0
   44.5065   32.0781   47.5314 H   0  0  0  0  0  0  0  0  0  0  0  0
  1 17  1  0
  2  1  2  0
  3  2  1  0
  4  3  2  0
  4  5  1  0
  5  1  1  0
  6  4  1  0
  7  6  1  0
  8  7  2  0
  9 11  1  0
  9  8  1  0
 10  9  2  0
 11 12  1  0
 12 13  2  0
 12  6  1  0
 14  8  1  0
 15 20  2  0
 16 15  1  0
 17 16  2  0
 17 18  1  0
 18 19  2  0
 19 20  1  0
 19 21  1  0
 21 23  1  0
 22 21  1  0
  2 24  1  0
  3 25  1  0
  7 26  1  0
 11 27  1  0
 14 28  1  0
 14 29  1  0
 14 30  1  0
 15 31  1  0
 16 32  1  0
 21 33  1  0
 22 34  1  0
 22 35  1  0
 22 36  1  0
 23 37  1  0
 23 38  1  0
 23 39  1  0
M  ISO  8  24  14  25  14  26  14  27   9  28   8  29   8  30   8  31  14
M  ISO  8  32  14  33   8  34   8  35   8  36   8  37   8  38   8  39   8
M  END
>  <minimizedAffinity>  (1) 
-6.59771919

>  <minimizedRMSD>  (1) 
0.433338851

$$$$
