
     RDKit          3D

 37 40  0  0  0  0  0  0  0  0999 V2000
   46.9650   34.7820   41.9770 C   0  0  0  0  0  0  0  0  0  0  0  0
   48.2430   35.2660   41.7720 C   0  0  0  0  0  0  0  0  0  0  0  0
   48.5330   34.8770   40.4630 C   0  0  0  0  0  0  0  0  0  0  0  0
   47.4220   34.1920   39.9650 C   0  0  0  0  0  0  0  0  0  0  0  0
   46.5100   34.1650   40.9180 O   0  0  0  0  0  0  0  0  0  0  0  0
   47.3100   33.6310   38.6670 N   0  0  0  0  0  0  0  0  0  0  0  0
   46.4870   32.5810   38.5020 C   0  0  0  0  0  0  0  0  0  0  0  0
   46.3410   31.9940   37.2550 C   0  0  0  0  0  0  0  0  0  0  0  0
   47.0490   32.5060   36.1960 C   0  0  0  0  0  0  0  0  0  0  0  0
   46.9080   31.9630   35.0660 O   0  0  0  0  0  0  0  0  0  0  0  0
   47.8550   33.5570   36.4230 N   0  0  0  0  0  0  0  0  0  0  0  0
   47.9870   34.1180   37.6420 C   0  0  0  0  0  0  0  0  0  0  0  0
   48.7610   35.1020   37.7810 O   0  0  0  0  0  0  0  0  0  0  0  0
   45.4090   30.8370   37.1660 C   0  0  0  0  0  0  0  0  0  0  0  0
   44.5620   36.0460   44.5180 C   0  0  0  0  0  0  0  0  0  0  0  0
   45.3150   35.9770   43.3070 C   0  0  0  0  0  0  0  0  0  0  0  0
   46.1730   34.9090   43.1850 C   0  0  0  0  0  0  0  0  0  0  0  0
   46.2430   34.0110   44.2050 N   0  0  0  0  0  0  0  0  0  0  0  0
   45.5150   34.1100   45.3360 C   0  0  0  0  0  0  0  0  0  0  0  0
   44.6690   35.1310   45.4970 N   0  0  0  0  0  0  0  0  0  0  0  0
   45.6190   33.1090   46.4320 C   0  0  0  0  0  0  0  0  0  0  0  0
   47.0230   32.7140   46.8390 C   0  0  0  0  0  0  0  0  0  0  0  0
   46.0690   31.7330   46.1800 C   0  0  0  0  0  0  0  0  0  0  0  0
   48.8801   35.8248   42.4733 H   0  0  0  0  0  0  0  0  0  0  0  0
   49.4693   35.0746   39.9205 H   0  0  0  0  0  0  0  0  0  0  0  0
   45.9262   32.1854   39.3616 H   0  0  0  0  0  0  0  0  0  0  0  0
   48.3921   33.9488   35.6363 H   0  0  0  0  0  0  0  0  0  0  0  0
   45.1405   30.5037   38.1793 H   0  0  0  0  0  0  0  0  0  0  0  0
   44.4994   31.1395   36.6265 H   0  0  0  0  0  0  0  0  0  0  0  0
   45.8983   30.0127   36.6265 H   0  0  0  0  0  0  0  0  0  0  0  0
   43.8637   36.8846   44.6560 H   0  0  0  0  0  0  0  0  0  0  0  0
   45.2146   36.7351   42.5163 H   0  0  0  0  0  0  0  0  0  0  0  0
   44.7224   33.5132   46.9246 H   0  0  0  0  0  0  0  0  0  0  0  0
   47.8914   33.1012   46.2859 H   0  0  0  0  0  0  0  0  0  0  0  0
   47.6127   32.7395   47.7672 H   0  0  0  0  0  0  0  0  0  0  0  0
   45.6466   30.9029   46.7652 H   0  0  0  0  0  0  0  0  0  0  0  0
   46.1175   31.0864   45.2914 H   0  0  0  0  0  0  0  0  0  0  0  0
  1 17  1  0
  2  1  2  0
  3  2  1  0
  4  3  2  0
  4  5  1  0
  5  1  1  0
  6  4  1  0
  7  6  1  0
  8  7  2  0
  9 11  1  0
  9  8  1  0
 10  9  2  0
 11 12  1  0
 12 13  2  0
 12  6  1  0
 14  8  1  0
 15 20  2  0
 16 15  1  0
 17 16  2  0
 17 18  1  0
 18 19  2  0
 19 20  1  0
 19 21  1  0
 21 22  1  0
 23 21  1  0
 23 22  1  0
  2 24  1  0
  3 25  1  0
  7 26  1  0
 11 27  1  0
 14 28  1  0
 14 29  1  0
 14 30  1  0
 15 31  1  0
 16 32  1  0
 21 33  1  0
 22 34  1  0
 22 35  1  0
 23 36  1  0
 23 37  1  0
M  ISO  8  24  14  25  14  26  14  27   9  28   8  29   8  30   8  31  14
M  ISO  6  32  14  33  13  34  13  35  13  36  13  37  13
M  END
>  <minimizedAffinity>  (1) 
-6.57238293

>  <minimizedRMSD>  (1) 
0.350440681

$$$$
