
     RDKit          3D

 32 34  0  0  0  0  0  0  0  0999 V2000
   46.8960   34.7550   41.8680 C   0  0  0  0  0  0  0  0  0  0  0  0
   48.1930   35.1750   41.6520 C   0  0  0  0  0  0  0  0  0  0  0  0
   48.4580   34.7650   40.3470 C   0  0  0  0  0  0  0  0  0  0  0  0
   47.3150   34.1290   39.8580 C   0  0  0  0  0  0  0  0  0  0  0  0
   46.4010   34.1490   40.8150 O   0  0  0  0  0  0  0  0  0  0  0  0
   44.5880   36.1920   44.4020 C   0  0  0  0  0  0  0  0  0  0  0  0
   45.3340   36.0680   43.1910 C   0  0  0  0  0  0  0  0  0  0  0  0
   46.1150   34.9300   43.0860 C   0  0  0  0  0  0  0  0  0  0  0  0
   46.1240   34.0450   44.0930 N   0  0  0  0  0  0  0  0  0  0  0  0
   45.3980   34.2000   45.2320 C   0  0  0  0  0  0  0  0  0  0  0  0
   44.6220   35.2940   45.3770 N   0  0  0  0  0  0  0  0  0  0  0  0
   45.4640   33.2220   46.2400 N   0  0  0  0  0  0  0  0  0  0  0  0
   47.1670   33.5640   38.5650 N   0  0  0  0  0  0  0  0  0  0  0  0
   46.3140   32.5330   38.4180 C   0  0  0  0  0  0  0  0  0  0  0  0
   46.1380   31.9420   37.1780 C   0  0  0  0  0  0  0  0  0  0  0  0
   46.8510   32.4290   36.1010 C   0  0  0  0  0  0  0  0  0  0  0  0
   46.6740   31.8730   34.9840 O   0  0  0  0  0  0  0  0  0  0  0  0
   47.6820   33.4560   36.3150 N   0  0  0  0  0  0  0  0  0  0  0  0
   47.8460   34.0260   37.5320 C   0  0  0  0  0  0  0  0  0  0  0  0
   48.6410   34.9890   37.6640 O   0  0  0  0  0  0  0  0  0  0  0  0
   45.1670   30.8100   37.1170 C   0  0  0  0  0  0  0  0  0  0  0  0
   48.8598   35.7075   42.3461 H   0  0  0  0  0  0  0  0  0  0  0  0
   49.4000   34.9155   39.7993 H   0  0  0  0  0  0  0  0  0  0  0  0
   43.9514   37.0794   44.5331 H   0  0  0  0  0  0  0  0  0  0  0  0
   45.2910   36.8259   42.3949 H   0  0  0  0  0  0  0  0  0  0  0  0
   44.9156   33.3356   47.1044 H   0  0  0  0  0  0  0  0  0  0  0  0
   46.0608   32.3920   46.1140 H   0  0  0  0  0  0  0  0  0  0  0  0
   45.7539   32.1580   39.2873 H   0  0  0  0  0  0  0  0  0  0  0  0
   48.2199   33.8288   35.5196 H   0  0  0  0  0  0  0  0  0  0  0  0
   44.9009   30.4998   38.1382 H   0  0  0  0  0  0  0  0  0  0  0  0
   44.2606   31.1328   36.5839 H   0  0  0  0  0  0  0  0  0  0  0  0
   45.6240   29.9633   36.5839 H   0  0  0  0  0  0  0  0  0  0  0  0
  1  8  1  0
  2  1  2  0
  3  2  1  0
  4  3  2  0
  4  5  1  0
  5  1  1  0
  6 11  2  0
  7  6  1  0
  8  7  2  0
  8  9  1  0
  9 10  2  0
 10 11  1  0
 10 12  1  0
 13  4  1  0
 14 13  1  0
 15 14  2  0
 16 18  1  0
 16 15  1  0
 17 16  2  0
 18 19  1  0
 19 20  2  0
 19 13  1  0
 21 15  1  0
  2 22  1  0
  3 23  1  0
  6 24  1  0
  7 25  1  0
 12 26  1  0
 12 27  1  0
 14 28  1  0
 18 29  1  0
 21 30  1  0
 21 31  1  0
 21 32  1  0
M  ISO  8  22  14  23  14  24  14  25  14  28  14  29   9  30   8  31   8
M  ISO  1  32   8
M  END
>  <minimizedAffinity>  (1) 
-6.51635885

>  <minimizedRMSD>  (1) 
0.095419392

$$$$
