
     RDKit          3D

 31 33  0  0  0  0  0  0  0  0999 V2000
   46.8760   34.7570   41.8640 C   0  0  0  0  0  0  0  0  0  0  0  0
   48.1860   35.1680   41.6580 C   0  0  0  0  0  0  0  0  0  0  0  0
   48.4570   34.7500   40.3520 C   0  0  0  0  0  0  0  0  0  0  0  0
   47.3070   34.1220   39.8620 C   0  0  0  0  0  0  0  0  0  0  0  0
   46.3940   34.1580   40.8150 O   0  0  0  0  0  0  0  0  0  0  0  0
   47.1660   33.5560   38.5720 N   0  0  0  0  0  0  0  0  0  0  0  0
   46.3200   32.5200   38.4260 C   0  0  0  0  0  0  0  0  0  0  0  0
   46.1430   31.9250   37.1960 C   0  0  0  0  0  0  0  0  0  0  0  0
   46.8560   32.4150   36.1140 C   0  0  0  0  0  0  0  0  0  0  0  0
   46.6890   31.8650   34.9890 O   0  0  0  0  0  0  0  0  0  0  0  0
   47.6970   33.4610   36.3120 N   0  0  0  0  0  0  0  0  0  0  0  0
   47.8460   34.0240   37.5390 C   0  0  0  0  0  0  0  0  0  0  0  0
   48.6370   34.9900   37.6680 O   0  0  0  0  0  0  0  0  0  0  0  0
   45.1900   30.7900   37.1160 C   0  0  0  0  0  0  0  0  0  0  0  0
   44.5870   36.2220   44.4000 C   0  0  0  0  0  0  0  0  0  0  0  0
   45.3380   36.0870   43.1910 C   0  0  0  0  0  0  0  0  0  0  0  0
   46.0960   34.9450   43.0740 C   0  0  0  0  0  0  0  0  0  0  0  0
   46.0800   34.0580   44.0780 N   0  0  0  0  0  0  0  0  0  0  0  0
   45.3570   34.2110   45.2190 C   0  0  0  0  0  0  0  0  0  0  0  0
   44.6110   35.3070   45.3630 N   0  0  0  0  0  0  0  0  0  0  0  0
   45.3890   33.2490   46.2180 O   0  0  0  0  0  0  0  0  0  0  0  0
   48.8519   35.6965   42.3561 H   0  0  0  0  0  0  0  0  0  0  0  0
   49.4029   34.8895   39.8082 H   0  0  0  0  0  0  0  0  0  0  0  0
   45.7640   32.1442   39.2976 H   0  0  0  0  0  0  0  0  0  0  0  0
   48.2330   33.8355   35.5162 H   0  0  0  0  0  0  0  0  0  0  0  0
   44.9186   30.4668   38.1318 H   0  0  0  0  0  0  0  0  0  0  0  0
   44.2847   31.1085   36.5784 H   0  0  0  0  0  0  0  0  0  0  0  0
   45.6604   29.9535   36.5784 H   0  0  0  0  0  0  0  0  0  0  0  0
   43.9649   37.1186   44.5383 H   0  0  0  0  0  0  0  0  0  0  0  0
   45.3113   36.8516   42.4006 H   0  0  0  0  0  0  0  0  0  0  0  0
   44.8569   33.3746   47.0434 H   0  0  0  0  0  0  0  0  0  0  0  0
  1 17  1  0
  2  1  2  0
  3  2  1  0
  4  3  2  0
  4  5  1  0
  5  1  1  0
  6  4  1  0
  7  6  1  0
  8  7  2  0
  9 11  1  0
  9  8  1  0
 10  9  2  0
 11 12  1  0
 12 13  2  0
 12  6  1  0
 14  8  1  0
 15 20  2  0
 16 15  1  0
 17 16  2  0
 17 18  1  0
 18 19  2  0
 19 20  1  0
 19 21  1  0
  2 22  1  0
  3 23  1  0
  7 24  1  0
 11 25  1  0
 14 26  1  0
 14 27  1  0
 14 28  1  0
 15 29  1  0
 16 30  1  0
 21 31  1  0
M  ISO  8  22  14  23  14  24  14  25   9  26   8  27   8  28   8  29  14
M  ISO  2  30  14  31   3
M  END
>  <minimizedAffinity>  (1) 
-6.47147274

>  <minimizedRMSD>  (1) 
0.117809959

$$$$
