
     RDKit          3D

 49 53  0  0  0  0  0  0  0  0999 V2000
   46.8780   34.7320   41.9190 C   0  0  0  0  0  0  0  0  0  0  0  0
   48.1860   35.1890   41.6910 C   0  0  0  0  0  0  0  0  0  0  0  0
   48.4410   34.7910   40.3880 C   0  0  0  0  0  0  0  0  0  0  0  0
   47.3160   34.1350   39.9040 C   0  0  0  0  0  0  0  0  0  0  0  0
   46.4080   34.1310   40.8680 O   0  0  0  0  0  0  0  0  0  0  0  0
   44.5000   36.0380   44.4530 C   0  0  0  0  0  0  0  0  0  0  0  0
   45.2320   35.9180   43.2310 C   0  0  0  0  0  0  0  0  0  0  0  0
   46.1190   34.8870   43.1440 C   0  0  0  0  0  0  0  0  0  0  0  0
   46.2590   34.0440   44.2020 N   0  0  0  0  0  0  0  0  0  0  0  0
   45.5630   34.1680   45.3480 C   0  0  0  0  0  0  0  0  0  0  0  0
   44.6730   35.1770   45.4740 N   0  0  0  0  0  0  0  0  0  0  0  0
   45.8340   33.1970   46.3590 N   0  0  0  0  0  0  0  0  0  0  0  0
   45.1890   33.1530   47.5260 N   0  0  0  0  0  0  0  0  0  0  0  0
   45.6400   32.1530   48.2810 C   0  0  0  0  0  0  0  0  0  0  0  0
   46.6470   31.5060   47.5490 C   0  0  0  0  0  0  0  0  0  0  0  0
   46.7520   32.1840   46.3360 C   0  0  0  0  0  0  0  0  0  0  0  0
   47.1650   33.5750   38.6180 N   0  0  0  0  0  0  0  0  0  0  0  0
   46.3160   32.5480   38.4580 C   0  0  0  0  0  0  0  0  0  0  0  0
   46.1130   31.9390   37.2510 C   0  0  0  0  0  0  0  0  0  0  0  0
   46.8310   32.4260   36.1570 C   0  0  0  0  0  0  0  0  0  0  0  0
   46.6680   31.8880   35.0340 O   0  0  0  0  0  0  0  0  0  0  0  0
   47.6810   33.4700   36.3590 N   0  0  0  0  0  0  0  0  0  0  0  0
   47.8490   34.0410   37.5760 C   0  0  0  0  0  0  0  0  0  0  0  0
   48.6400   34.9900   37.6980 O   0  0  0  0  0  0  0  0  0  0  0  0
   45.1720   30.8270   37.1300 C   0  0  0  0  0  0  0  0  0  0  0  0
   44.0580   30.8330   38.0020 N   0  0  0  0  0  0  0  0  0  0  0  0
   43.6240   29.5140   38.3110 C   0  0  0  0  0  0  0  0  0  0  0  0
   42.2960   29.2880   37.5700 C   0  0  0  0  0  0  0  0  0  0  0  0
   42.3500   30.3820   36.5270 C   0  0  0  0  0  0  0  0  0  0  0  0
   42.9660   31.5180   37.3170 C   0  0  0  0  0  0  0  0  0  0  0  0
   48.8489   35.7322   42.3806 H   0  0  0  0  0  0  0  0  0  0  0  0
   49.3743   34.9648   39.8323 H   0  0  0  0  0  0  0  0  0  0  0  0
   43.7743   36.8574   44.5626 H   0  0  0  0  0  0  0  0  0  0  0  0
   45.0863   36.6243   42.4004 H   0  0  0  0  0  0  0  0  0  0  0  0
   45.2892   31.8848   49.2885 H   0  0  0  0  0  0  0  0  0  0  0  0
   47.2374   30.6350   47.8695 H   0  0  0  0  0  0  0  0  0  0  0  0
   47.4439   31.9483   45.5140 H   0  0  0  0  0  0  0  0  0  0  0  0
   45.7607   32.1812   39.3339 H   0  0  0  0  0  0  0  0  0  0  0  0
   48.2148   33.8385   35.5589 H   0  0  0  0  0  0  0  0  0  0  0  0
   44.7873   30.8280   36.0995 H   0  0  0  0  0  0  0  0  0  0  0  0
   45.7485   29.9323   37.4077 H   0  0  0  0  0  0  0  0  0  0  0  0
   44.3729   28.7821   37.9743 H   0  0  0  0  0  0  0  0  0  0  0  0
   43.4921   29.3901   39.3960 H   0  0  0  0  0  0  0  0  0  0  0  0
   42.2578   28.2911   37.1066 H   0  0  0  0  0  0  0  0  0  0  0  0
   41.4069   29.3250   38.2166 H   0  0  0  0  0  0  0  0  0  0  0  0
   41.3445   30.6426   36.1649 H   0  0  0  0  0  0  0  0  0  0  0  0
   42.9089   30.1107   35.6193 H   0  0  0  0  0  0  0  0  0  0  0  0
   43.3416   32.3117   36.6544 H   0  0  0  0  0  0  0  0  0  0  0  0
   42.2634   32.0302   37.9907 H   0  0  0  0  0  0  0  0  0  0  0  0
  1  8  1  0
  2  1  2  0
  3  2  1  0
  4  3  2  0
  4  5  1  0
  5  1  1  0
  6 11  2  0
  7  6  1  0
  8  7  2  0
  8  9  1  0
  9 10  2  0
 10 11  1  0
 10 12  1  0
 12 13  1  0
 13 14  2  0
 15 14  1  0
 16 12  1  0
 16 15  2  0
 17  4  1  0
 18 17  1  0
 19 18  2  0
 20 22  1  0
 20 19  1  0
 21 20  2  0
 22 23  1  0
 23 24  2  0
 23 17  1  0
 25 19  1  0
 25 26  1  0
 26 27  1  0
 28 27  1  0
 29 30  1  0
 29 28  1  0
 30 26  1  0
  2 31  1  0
  3 32  1  0
  6 33  1  0
  7 34  1  0
 14 35  1  0
 15 36  1  0
 16 37  1  0
 18 38  1  0
 22 39  1  0
 25 40  1  0
 25 41  1  0
 27 42  1  0
 27 43  1  0
 28 44  1  0
 28 45  1  0
 29 46  1  0
 29 47  1  0
 30 48  1  0
 30 49  1  0
M  ISO  8  31  14  32  14  33  14  34  14  35  14  36  14  37  14  38  14
M  ISO  8  39   9  40   8  41   8  42  13  43  13  44  13  45  13  46  13
M  ISO  3  47  13  48  13  49  13
M  END
>  <minimizedAffinity>  (1) 
-7.24332666

>  <minimizedRMSD>  (1) 
0.685719073

$$$$
