
     RDKit          3D

 53 57  0  0  0  0  0  0  0  0999 V2000
   46.8890   34.7340   41.9090 C   0  0  0  0  0  0  0  0  0  0  0  0
   48.2090   35.1600   41.6970 C   0  0  0  0  0  0  0  0  0  0  0  0
   48.4510   34.7760   40.3890 C   0  0  0  0  0  0  0  0  0  0  0  0
   47.2940   34.1560   39.8920 C   0  0  0  0  0  0  0  0  0  0  0  0
   46.3940   34.1590   40.8430 O   0  0  0  0  0  0  0  0  0  0  0  0
   44.5030   36.0230   44.4470 C   0  0  0  0  0  0  0  0  0  0  0  0
   45.2330   35.9140   43.2230 C   0  0  0  0  0  0  0  0  0  0  0  0
   46.1250   34.8880   43.1290 C   0  0  0  0  0  0  0  0  0  0  0  0
   46.2760   34.0320   44.1860 N   0  0  0  0  0  0  0  0  0  0  0  0
   45.5690   34.1640   45.3340 C   0  0  0  0  0  0  0  0  0  0  0  0
   44.6790   35.1640   45.4640 N   0  0  0  0  0  0  0  0  0  0  0  0
   45.8400   33.1970   46.3390 N   0  0  0  0  0  0  0  0  0  0  0  0
   45.2040   33.1430   47.5120 N   0  0  0  0  0  0  0  0  0  0  0  0
   45.6680   32.1280   48.2590 C   0  0  0  0  0  0  0  0  0  0  0  0
   46.6650   31.4870   47.5220 C   0  0  0  0  0  0  0  0  0  0  0  0
   46.7530   32.1810   46.3180 C   0  0  0  0  0  0  0  0  0  0  0  0
   47.1680   33.6320   38.5860 N   0  0  0  0  0  0  0  0  0  0  0  0
   46.2760   32.6250   38.4150 C   0  0  0  0  0  0  0  0  0  0  0  0
   46.0810   32.0410   37.1740 C   0  0  0  0  0  0  0  0  0  0  0  0
   46.8310   32.5260   36.1110 C   0  0  0  0  0  0  0  0  0  0  0  0
   46.6660   32.0120   34.9820 O   0  0  0  0  0  0  0  0  0  0  0  0
   47.7030   33.5290   36.3380 N   0  0  0  0  0  0  0  0  0  0  0  0
   47.8730   34.0830   37.5700 C   0  0  0  0  0  0  0  0  0  0  0  0
   48.6930   35.0070   37.7160 O   0  0  0  0  0  0  0  0  0  0  0  0
   45.1220   30.9410   37.0710 C   0  0  0  0  0  0  0  0  0  0  0  0
   45.6360   29.5580   37.1320 C   0  0  0  0  0  0  0  0  0  0  0  0
   47.0530   29.3820   37.5560 C   0  0  0  0  0  0  0  0  0  0  0  0
   47.5210   27.9420   37.3690 C   0  0  0  0  0  0  0  0  0  0  0  0
   47.4890   27.5310   35.9290 C   0  0  0  0  0  0  0  0  0  0  0  0
   46.5820   28.4180   35.1130 C   0  0  0  0  0  0  0  0  0  0  0  0
   45.3390   28.8550   35.8250 C   0  0  0  0  0  0  0  0  0  0  0  0
   48.8849   35.6726   42.3973 H   0  0  0  0  0  0  0  0  0  0  0  0
   49.3886   34.9302   39.8347 H   0  0  0  0  0  0  0  0  0  0  0  0
   43.7726   36.8378   44.5596 H   0  0  0  0  0  0  0  0  0  0  0  0
   45.0821   36.6241   42.3966 H   0  0  0  0  0  0  0  0  0  0  0  0
   45.3251   31.8523   49.2672 H   0  0  0  0  0  0  0  0  0  0  0  0
   47.2589   30.6135   47.8290 H   0  0  0  0  0  0  0  0  0  0  0  0
   47.4405   31.9504   45.4909 H   0  0  0  0  0  0  0  0  0  0  0  0
   45.6964   32.2651   39.2779 H   0  0  0  0  0  0  0  0  0  0  0  0
   48.2609   33.8892   35.5507 H   0  0  0  0  0  0  0  0  0  0  0  0
   44.6000   31.0526   36.1092 H   0  0  0  0  0  0  0  0  0  0  0  0
   44.4975   31.0392   37.9712 H   0  0  0  0  0  0  0  0  0  0  0  0
   45.0913   29.0844   37.9620 H   0  0  0  0  0  0  0  0  0  0  0  0
   47.6908   30.0456   36.9536 H   0  0  0  0  0  0  0  0  0  0  0  0
   47.1255   29.6310   38.6250 H   0  0  0  0  0  0  0  0  0  0  0  0
   48.5515   27.8508   37.7428 H   0  0  0  0  0  0  0  0  0  0  0  0
   46.8389   27.2847   37.9282 H   0  0  0  0  0  0  0  0  0  0  0  0
   48.5080   27.5905   35.5191 H   0  0  0  0  0  0  0  0  0  0  0  0
   47.1005   26.5033   35.8755 H   0  0  0  0  0  0  0  0  0  0  0  0
   46.2846   27.8668   34.2087 H   0  0  0  0  0  0  0  0  0  0  0  0
   47.1535   29.3312   34.8905 H   0  0  0  0  0  0  0  0  0  0  0  0
   44.7825   29.5439   35.1725 H   0  0  0  0  0  0  0  0  0  0  0  0
   44.7521   27.9538   36.0562 H   0  0  0  0  0  0  0  0  0  0  0  0
  1  8  1  0
  2  1  2  0
  3  2  1  0
  4  3  2  0
  4  5  1  0
  5  1  1  0
  6 11  2  0
  7  6  1  0
  8  7  2  0
  8  9  1  0
  9 10  2  0
 10 11  1  0
 10 12  1  0
 12 13  1  0
 13 14  2  0
 15 14  1  0
 16 12  1  0
 16 15  2  0
 17  4  1  0
 18 17  1  0
 19 18  2  0
 20 22  1  0
 20 19  1  0
 21 20  2  0
 22 23  1  0
 23 24  2  0
 23 17  1  0
 25 26  1  0
 25 19  1  0
 26 27  1  0
 28 27  1  0
 29 28  1  0
 30 31  1  0
 30 29  1  0
 31 26  1  0
  2 32  1  0
  3 33  1  0
  6 34  1  0
  7 35  1  0
 14 36  1  0
 15 37  1  0
 16 38  1  0
 18 39  1  0
 22 40  1  0
 25 41  1  0
 25 42  1  0
 26 43  1  0
 27 44  1  0
 27 45  1  0
 28 46  1  0
 28 47  1  0
 29 48  1  0
 29 49  1  0
 30 50  1  0
 30 51  1  0
 31 52  1  0
 31 53  1  0
M  ISO  8  32  14  33  14  34  14  35  14  36  14  37  14  38  14  39  14
M  ISO  8  40   9  41   8  42   8  43  13  44  13  45  13  46  13  47  13
M  ISO  6  48  13  49  13  50  13  51  13  52  13  53  13
M  END
>  <minimizedAffinity>  (1) 
-7.04100704

>  <minimizedRMSD>  (1) 
0.237258613

$$$$
