
     RDKit          3D

 22 22  0  0  0  0  0  0  0  0999 V2000
   44.6530   36.0520   44.2550 C   0  0  0  0  0  0  0  0  0  0  0  0
   45.4820   35.8590   43.1220 C   0  0  0  0  0  0  0  0  0  0  0  0
   46.3520   34.7480   43.1340 C   0  0  0  0  0  0  0  0  0  0  0  0
   46.3510   33.9280   44.2210 N   0  0  0  0  0  0  0  0  0  0  0  0
   45.5400   34.1460   45.2880 C   0  0  0  0  0  0  0  0  0  0  0  0
   44.6980   35.2040   45.3010 N   0  0  0  0  0  0  0  0  0  0  0  0
   47.2680   34.4340   42.0140 C   0  0  0  0  0  0  0  0  0  0  0  0
   46.4110   34.1800   40.7800 C   0  0  0  0  0  0  0  0  0  0  0  0
   47.9700   33.1260   42.3170 C   0  0  0  0  0  0  0  0  0  0  0  0
   48.3200   35.4580   41.7560 C   0  0  0  0  0  0  0  0  0  0  0  0
   43.9620   36.9075   44.2809 H   0  0  0  0  0  0  0  0  0  0  0  0
   45.4486   36.5489   42.2659 H   0  0  0  0  0  0  0  0  0  0  0  0
   45.5681   33.4584   46.1462 H   0  0  0  0  0  0  0  0  0  0  0  0
   45.3995   33.8802   41.0914 H   0  0  0  0  0  0  0  0  0  0  0  0
   46.3522   35.0993   40.1789 H   0  0  0  0  0  0  0  0  0  0  0  0
   46.8626   33.3771   40.1789 H   0  0  0  0  0  0  0  0  0  0  0  0
   48.0418   32.9922   43.4065 H   0  0  0  0  0  0  0  0  0  0  0  0
   47.3976   32.2933   41.8823 H   0  0  0  0  0  0  0  0  0  0  0  0
   48.9803   33.1428   41.8823 H   0  0  0  0  0  0  0  0  0  0  0  0
   48.7074   35.8351   42.7140 H   0  0  0  0  0  0  0  0  0  0  0  0
   49.1409   35.0037   41.1818 H   0  0  0  0  0  0  0  0  0  0  0  0
   47.8880   36.2909   41.1818 H   0  0  0  0  0  0  0  0  0  0  0  0
  1  6  2  0
  2  3  2  0
  2  1  1  0
  3  4  1  0
  4  5  2  0
  5  6  1  0
  7  9  1  0
  7  3  1  0
  8  7  1  0
 10  7  1  0
  1 11  1  0
  2 12  1  0
  5 13  1  0
  8 14  1  0
  8 15  1  0
  8 16  1  0
  9 17  1  0
  9 18  1  0
  9 19  1  0
 10 20  1  0
 10 21  1  0
 10 22  1  0
M  ISO  8  11  14  12  14  13  14  14   8  15   8  16   8  17   8  18   8
M  ISO  4  19   8  20   8  21   8  22   8
M  END
>  <minimizedAffinity>  (1) 
-3.87143254

>  <minimizedRMSD>  (1) 
0.388613909

$$$$
