
     RDKit          3D

 32 33  0  0  0  0  0  0  0  0999 V2000
   47.7360   34.1580   41.2440 C   0  0  0  0  0  0  0  0  0  0  0  0
   48.6520   33.7990   37.5750 C   0  0  0  0  0  0  0  0  0  0  0  0
   48.0830   34.3660   38.7410 C   0  0  0  0  0  0  0  0  0  0  0  0
   48.2770   33.6740   39.9640 C   0  0  0  0  0  0  0  0  0  0  0  0
   48.9870   32.5250   39.9560 N   0  0  0  0  0  0  0  0  0  0  0  0
   49.5220   32.0070   38.8150 C   0  0  0  0  0  0  0  0  0  0  0  0
   49.3530   32.6430   37.6390 N   0  0  0  0  0  0  0  0  0  0  0  0
   48.4200   35.4650   41.5800 C   0  0  0  0  0  0  0  0  0  0  0  0
   48.1100   33.1810   42.3320 C   0  0  0  0  0  0  0  0  0  0  0  0
   46.2440   34.3180   41.2700 C   0  0  0  0  0  0  0  0  0  0  0  0
   45.7320   34.7240   42.5920 C   0  0  0  0  0  0  0  0  0  0  0  0
   45.7640   33.7910   43.6110 C   0  0  0  0  0  0  0  0  0  0  0  0
   45.3050   34.0670   44.9000 C   0  0  0  0  0  0  0  0  0  0  0  0
   44.8020   35.3250   45.1610 C   0  0  0  0  0  0  0  0  0  0  0  0
   44.7640   36.2680   44.1540 C   0  0  0  0  0  0  0  0  0  0  0  0
   45.2250   35.9740   42.8800 C   0  0  0  0  0  0  0  0  0  0  0  0
   48.5229   34.3037   36.6062 H   0  0  0  0  0  0  0  0  0  0  0  0
   47.5131   35.3059   38.7001 H   0  0  0  0  0  0  0  0  0  0  0  0
   50.0931   31.0677   38.8538 H   0  0  0  0  0  0  0  0  0  0  0  0
   48.4790   35.5777   42.6726 H   0  0  0  0  0  0  0  0  0  0  0  0
   49.4349   35.4673   41.1558 H   0  0  0  0  0  0  0  0  0  0  0  0
   47.8434   36.3002   41.1558 H   0  0  0  0  0  0  0  0  0  0  0  0
   47.9336   33.6418   43.3151 H   0  0  0  0  0  0  0  0  0  0  0  0
   47.4957   32.2735   42.2369 H   0  0  0  0  0  0  0  0  0  0  0  0
   49.1733   32.9157   42.2369 H   0  0  0  0  0  0  0  0  0  0  0  0
   45.9606   35.0844   40.5336 H   0  0  0  0  0  0  0  0  0  0  0  0
   45.8034   33.3384   41.0326 H   0  0  0  0  0  0  0  0  0  0  0  0
   46.1676   32.7902   43.3976 H   0  0  0  0  0  0  0  0  0  0  0  0
   45.3433   33.3006   45.6881 H   0  0  0  0  0  0  0  0  0  0  0  0
   44.4331   35.5751   46.1667 H   0  0  0  0  0  0  0  0  0  0  0  0
   44.3613   37.2695   44.3657 H   0  0  0  0  0  0  0  0  0  0  0  0
   45.1862   36.7425   42.0939 H   0  0  0  0  0  0  0  0  0  0  0  0
  1 10  1  0
  1  8  1  0
  1  9  1  0
  2  7  2  0
  2  3  1  0
  3  4  2  0
  4  1  1  0
  5  4  1  0
  6  5  2  0
  7  6  1  0
 10 11  1  0
 11 16  1  0
 11 12  2  0
 12 13  1  0
 13 14  2  0
 15 14  1  0
 16 15  2  0
  2 17  1  0
  3 18  1  0
  6 19  1  0
  8 20  1  0
  8 21  1  0
  8 22  1  0
  9 23  1  0
  9 24  1  0
  9 25  1  0
 10 26  1  0
 10 27  1  0
 12 28  1  0
 13 29  1  0
 14 30  1  0
 15 31  1  0
 16 32  1  0
M  ISO  8  17  14  18  14  19  14  20   8  21   8  22   8  23   8  24   8
M  ISO  8  25   8  26   8  27   8  28  14  29  14  30  14  31  14  32  14
M  END
>  <minimizedAffinity>  (1) 
-4.85532141

>  <minimizedRMSD>  (1) 
5.39499426

$$$$
