
     RDKit          3D

 31 32  0  0  0  0  0  0  0  0999 V2000
   47.0480   34.0390   40.9730 C   0  0  0  0  0  0  0  0  0  0  0  0
   48.5180   34.4120   37.4970 C   0  0  0  0  0  0  0  0  0  0  0  0
   48.3910   34.5990   38.8960 C   0  0  0  0  0  0  0  0  0  0  0  0
   47.3070   33.9360   39.5320 C   0  0  0  0  0  0  0  0  0  0  0  0
   46.4810   33.1790   38.7660 N   0  0  0  0  0  0  0  0  0  0  0  0
   46.6410   33.0280   37.4310 C   0  0  0  0  0  0  0  0  0  0  0  0
   47.6630   33.6490   36.8040 N   0  0  0  0  0  0  0  0  0  0  0  0
   47.9800   35.0860   41.5410 C   0  0  0  0  0  0  0  0  0  0  0  0
   47.4270   32.7320   41.6320 C   0  0  0  0  0  0  0  0  0  0  0  0
   45.6240   34.3380   41.3310 C   0  0  0  0  0  0  0  0  0  0  0  0
   45.3930   34.5160   42.7650 C   0  0  0  0  0  0  0  0  0  0  0  0
   44.8840   35.7870   43.0580 C   0  0  0  0  0  0  0  0  0  0  0  0
   44.5940   36.1640   44.3690 C   0  0  0  0  0  0  0  0  0  0  0  0
   44.8350   35.2220   45.3410 C   0  0  0  0  0  0  0  0  0  0  0  0
   45.3350   33.9730   45.0530 C   0  0  0  0  0  0  0  0  0  0  0  0
   45.6030   33.6490   43.7740 N   0  0  0  0  0  0  0  0  0  0  0  0
   49.3430   34.9081   36.9647 H   0  0  0  0  0  0  0  0  0  0  0  0
   49.0962   35.2260   39.4613 H   0  0  0  0  0  0  0  0  0  0  0  0
   45.9411   32.4016   36.8585 H   0  0  0  0  0  0  0  0  0  0  0  0
   47.9470   35.0489   42.6399 H   0  0  0  0  0  0  0  0  0  0  0  0
   49.0063   34.8881   41.1981 H   0  0  0  0  0  0  0  0  0  0  0  0
   47.6646   36.0825   41.1981 H   0  0  0  0  0  0  0  0  0  0  0  0
   47.3930   32.8492   42.7252 H   0  0  0  0  0  0  0  0  0  0  0  0
   46.7192   31.9478   41.3251 H   0  0  0  0  0  0  0  0  0  0  0  0
   48.4445   32.4481   41.3251 H   0  0  0  0  0  0  0  0  0  0  0  0
   45.3251   35.2627   40.8156 H   0  0  0  0  0  0  0  0  0  0  0  0
   45.0291   33.4667   41.0197 H   0  0  0  0  0  0  0  0  0  0  0  0
   44.7097   36.5009   42.2395 H   0  0  0  0  0  0  0  0  0  0  0  0
   44.1946   37.1597   44.6119 H   0  0  0  0  0  0  0  0  0  0  0  0
   44.6198   35.4767   46.3892 H   0  0  0  0  0  0  0  0  0  0  0  0
   45.5140   33.2466   45.8594 H   0  0  0  0  0  0  0  0  0  0  0  0
  1 10  1  0
  1  8  1  0
  1  9  1  0
  2  3  2  0
  3  4  1  0
  4  1  1  0
  5  4  2  0
  6  5  1  0
  7  6  2  0
  7  2  1  0
 10 11  1  0
 11 12  2  0
 11 16  1  0
 12 13  1  0
 13 14  2  0
 15 14  1  0
 16 15  2  0
  2 17  1  0
  3 18  1  0
  6 19  1  0
  8 20  1  0
  8 21  1  0
  8 22  1  0
  9 23  1  0
  9 24  1  0
  9 25  1  0
 10 26  1  0
 10 27  1  0
 12 28  1  0
 13 29  1  0
 14 30  1  0
 15 31  1  0
M  ISO  8  17  14  18  14  19  14  20   8  21   8  22   8  23   8  24   8
M  ISO  7  25   8  26   8  27   8  28  14  29  14  30  14  31  14
M  END
>  <minimizedAffinity>  (1) 
-4.6630497

>  <minimizedRMSD>  (1) 
5.46630716

$$$$
