
     RDKit          3D

 23 23  0  0  0  0  0  0  0  0999 V2000
   47.1650   34.1920   42.2180 C   0  0  0  0  0  0  0  0  0  0  0  0
   44.6200   36.0230   44.3560 C   0  0  0  0  0  0  0  0  0  0  0  0
   45.4380   35.7300   43.2300 C   0  0  0  0  0  0  0  0  0  0  0  0
   46.2750   34.6060   43.3120 C   0  0  0  0  0  0  0  0  0  0  0  0
   46.2700   33.8480   44.4560 N   0  0  0  0  0  0  0  0  0  0  0  0
   45.4650   34.1770   45.5040 C   0  0  0  0  0  0  0  0  0  0  0  0
   44.6510   35.2520   45.4490 N   0  0  0  0  0  0  0  0  0  0  0  0
   46.3700   34.3150   40.9170 C   0  0  0  0  0  0  0  0  0  0  0  0
   47.4790   32.7060   42.3740 C   0  0  0  0  0  0  0  0  0  0  0  0
   48.4590   34.9040   42.1340 C   0  0  0  0  0  0  0  0  0  0  0  0
   49.1900   34.5610   43.2880 O   0  0  0  0  0  0  0  0  0  0  0  0
   43.9520   36.8965   44.3278 H   0  0  0  0  0  0  0  0  0  0  0  0
   45.4156   36.3604   42.3288 H   0  0  0  0  0  0  0  0  0  0  0  0
   45.4785   33.5555   46.4115 H   0  0  0  0  0  0  0  0  0  0  0  0
   45.3077   34.4794   41.1506 H   0  0  0  0  0  0  0  0  0  0  0  0
   46.7526   35.1646   40.3324 H   0  0  0  0  0  0  0  0  0  0  0  0
   46.4780   33.3895   40.3324 H   0  0  0  0  0  0  0  0  0  0  0  0
   47.5325   32.4528   43.4431 H   0  0  0  0  0  0  0  0  0  0  0  0
   46.6866   32.1116   41.8956 H   0  0  0  0  0  0  0  0  0  0  0  0
   48.4441   32.4830   41.8956 H   0  0  0  0  0  0  0  0  0  0  0  0
   49.0057   34.5901   41.2326 H   0  0  0  0  0  0  0  0  0  0  0  0
   48.3068   35.9917   42.0730 H   0  0  0  0  0  0  0  0  0  0  0  0
   48.6689   34.8055   44.0935 H   0  0  0  0  0  0  0  0  0  0  0  0
  1  9  1  0
  1  4  1  0
  2  7  2  0
  3  4  2  0
  3  2  1  0
  4  5  1  0
  5  6  2  0
  7  6  1  0
  8  1  1  0
 10  1  1  0
 10 11  1  0
  2 12  1  0
  3 13  1  0
  6 14  1  0
  8 15  1  0
  8 16  1  0
  8 17  1  0
  9 18  1  0
  9 19  1  0
  9 20  1  0
 10 21  1  0
 10 22  1  0
 11 23  1  0
M  ISO  8  12  14  13  14  14  14  15   8  16   8  17   8  18   8  19   8
M  ISO  4  20   8  21   8  22   8  23   3
M  END
>  <minimizedAffinity>  (1) 
-3.93113041

>  <minimizedRMSD>  (1) 
0.472946227

$$$$
