
     RDKit          3D

 23 23  0  0  0  0  0  0  0  0999 V2000
   46.6120   34.2510   42.1570 C   0  0  0  0  0  0  0  0  0  0  0  0
   44.4700   35.9790   44.7680 C   0  0  0  0  0  0  0  0  0  0  0  0
   45.1030   35.7280   43.5360 C   0  0  0  0  0  0  0  0  0  0  0  0
   45.9140   34.5890   43.4100 C   0  0  0  0  0  0  0  0  0  0  0  0
   46.0490   33.7810   44.4890 N   0  0  0  0  0  0  0  0  0  0  0  0
   45.4270   34.0460   45.6700 C   0  0  0  0  0  0  0  0  0  0  0  0
   44.6430   35.1360   45.8090 N   0  0  0  0  0  0  0  0  0  0  0  0
   45.5980   34.2770   41.0360 C   0  0  0  0  0  0  0  0  0  0  0  0
   47.0800   32.8030   42.2610 C   0  0  0  0  0  0  0  0  0  0  0  0
   47.8060   35.0800   41.8520 C   0  0  0  0  0  0  0  0  0  0  0  0
   48.4170   34.7640   40.1810 S   0  0  0  0  0  0  0  0  0  0  0  0
   43.8308   36.8667   44.8836 H   0  0  0  0  0  0  0  0  0  0  0  0
   44.9645   36.4128   42.6863 H   0  0  0  0  0  0  0  0  0  0  0  0
   45.5648   33.3637   46.5217 H   0  0  0  0  0  0  0  0  0  0  0  0
   44.5833   34.3030   41.4600 H   0  0  0  0  0  0  0  0  0  0  0  0
   45.7595   35.1713   40.4162 H   0  0  0  0  0  0  0  0  0  0  0  0
   45.7134   33.3756   40.4162 H   0  0  0  0  0  0  0  0  0  0  0  0
   47.1708   32.5222   43.3207 H   0  0  0  0  0  0  0  0  0  0  0  0
   46.3488   32.1451   41.7687 H   0  0  0  0  0  0  0  0  0  0  0  0
   48.0580   32.6975   41.7687 H   0  0  0  0  0  0  0  0  0  0  0  0
   47.5359   36.1427   41.9395 H   0  0  0  0  0  0  0  0  0  0  0  0
   48.6006   34.8196   42.5667 H   0  0  0  0  0  0  0  0  0  0  0  0
   49.6323   34.1355   40.2504 H   0  0  0  0  0  0  0  0  0  0  0  0
  1  9  1  0
  1  4  1  0
  2  7  2  0
  3  2  1  0
  4  3  2  0
  4  5  1  0
  5  6  2  0
  6  7  1  0
  8  1  1  0
 10  1  1  0
 11 10  1  0
  2 12  1  0
  3 13  1  0
  6 14  1  0
  8 15  1  0
  8 16  1  0
  8 17  1  0
  9 18  1  0
  9 19  1  0
  9 20  1  0
 10 21  1  0
 10 22  1  0
 11 23  1  0
M  ISO  8  12  14  13  14  14  14  15   8  16   8  17   8  18   8  19   8
M  ISO  4  20   8  21   8  22   8  23  11
M  END
>  <minimizedAffinity>  (1) 
-3.57038617

>  <minimizedRMSD>  (1) 
0.677560568

$$$$
