
     RDKit          3D

 29 30  0  0  0  0  0  0  0  0999 V2000
   46.4790   34.0770   41.8920 C   0  0  0  0  0  0  0  0  0  0  0  0
   44.5800   36.0710   44.5070 C   0  0  0  0  0  0  0  0  0  0  0  0
   45.1400   35.7260   43.2630 C   0  0  0  0  0  0  0  0  0  0  0  0
   45.8590   34.5070   43.1490 C   0  0  0  0  0  0  0  0  0  0  0  0
   45.9630   33.7370   44.2540 N   0  0  0  0  0  0  0  0  0  0  0  0
   45.4170   34.0860   45.4350 C   0  0  0  0  0  0  0  0  0  0  0  0
   44.7360   35.2360   45.5630 N   0  0  0  0  0  0  0  0  0  0  0  0
   45.4460   34.2570   40.7730 C   0  0  0  0  0  0  0  0  0  0  0  0
   46.7530   32.5840   41.9840 C   0  0  0  0  0  0  0  0  0  0  0  0
   47.7290   34.7510   41.5100 C   0  0  0  0  0  0  0  0  0  0  0  0
   48.9620   33.9770   41.5620 C   0  0  0  0  0  0  0  0  0  0  0  0
   49.8320   34.3400   42.6030 C   0  0  0  0  0  0  0  0  0  0  0  0
   50.9100   33.5470   42.5230 N   0  0  0  0  0  0  0  0  0  0  0  0
   50.7930   32.7050   41.5120 C   0  0  0  0  0  0  0  0  0  0  0  0
   49.6070   32.9790   40.9390 N   0  0  0  0  0  0  0  0  0  0  0  0
   44.0201   37.0109   44.6214 H   0  0  0  0  0  0  0  0  0  0  0  0
   45.0227   36.3895   42.3935 H   0  0  0  0  0  0  0  0  0  0  0  0
   45.5304   33.4214   46.3042 H   0  0  0  0  0  0  0  0  0  0  0  0
   44.4535   34.4299   41.2146 H   0  0  0  0  0  0  0  0  0  0  0  0
   45.7259   35.1199   40.1509 H   0  0  0  0  0  0  0  0  0  0  0  0
   45.4176   33.3503   40.1509 H   0  0  0  0  0  0  0  0  0  0  0  0
   46.8077   32.2857   43.0414 H   0  0  0  0  0  0  0  0  0  0  0  0
   45.9413   32.0310   41.4886 H   0  0  0  0  0  0  0  0  0  0  0  0
   47.7081   32.3553   41.4886 H   0  0  0  0  0  0  0  0  0  0  0  0
   47.8547   35.6136   42.1809 H   0  0  0  0  0  0  0  0  0  0  0  0
   47.5987   34.9927   40.4448 H   0  0  0  0  0  0  0  0  0  0  0  0
   49.6603   35.1308   43.3481 H   0  0  0  0  0  0  0  0  0  0  0  0
   51.5170   31.9370   41.2020 H   0  0  0  0  0  0  0  0  0  0  0  0
   49.2370   32.4804   40.1172 H   0  0  0  0  0  0  0  0  0  0  0  0
  1  9  1  0
  1  4  1  0
  2  7  2  0
  3  2  1  0
  4  3  2  0
  4  5  1  0
  5  6  2  0
  6  7  1  0
  8  1  1  0
 10 11  1  0
 10  1  1  0
 11 12  2  0
 13 12  1  0
 14 13  2  0
 15 14  1  0
 15 11  1  0
  2 16  1  0
  3 17  1  0
  6 18  1  0
  8 19  1  0
  8 20  1  0
  8 21  1  0
  9 22  1  0
  9 23  1  0
  9 24  1  0
 10 25  1  0
 10 26  1  0
 12 27  1  0
 14 28  1  0
 15 29  1  0
M  ISO  8  16  14  17  14  18  14  19   8  20   8  21   8  22   8  23   8
M  ISO  6  24   8  25   8  26   8  27  14  28  14  29   9
M  END
>  <minimizedAffinity>  (1) 
-4.6567626

>  <minimizedRMSD>  (1) 
2.11015511

$$$$
