
     RDKit          3D

 43 46  0  0  0  0  0  0  0  0999 V2000
   47.5250   34.4130   41.5750 C   0  0  0  0  0  0  0  0  0  0  0  0
   48.4700   33.4500   41.0700 C   0  0  0  0  0  0  0  0  0  0  0  0
   49.3190   32.7650   41.9390 C   0  0  0  0  0  0  0  0  0  0  0  0
   50.0810   31.9480   41.2160 N   0  0  0  0  0  0  0  0  0  0  0  0
   49.7850   32.0560   39.9350 C   0  0  0  0  0  0  0  0  0  0  0  0
   48.8090   32.9700   39.8800 N   0  0  0  0  0  0  0  0  0  0  0  0
   48.1560   33.4280   38.6800 C   0  0  0  0  0  0  0  0  0  0  0  0
   48.3250   34.4550   37.8000 C   0  0  0  0  0  0  0  0  0  0  0  0
   47.3990   34.3910   36.8380 N   0  0  0  0  0  0  0  0  0  0  0  0
   46.5930   33.3260   37.0470 C   0  0  0  0  0  0  0  0  0  0  0  0
   45.5130   32.8730   36.3130 C   0  0  0  0  0  0  0  0  0  0  0  0
   44.8610   31.7300   36.7770 C   0  0  0  0  0  0  0  0  0  0  0  0
   45.2850   31.0830   37.9190 C   0  0  0  0  0  0  0  0  0  0  0  0
   46.3660   31.5690   38.6170 C   0  0  0  0  0  0  0  0  0  0  0  0
   47.0540   32.7130   38.1950 C   0  0  0  0  0  0  0  0  0  0  0  0
   46.1830   33.9690   41.9580 C   0  0  0  0  0  0  0  0  0  0  0  0
   44.4660   36.0590   44.6330 C   0  0  0  0  0  0  0  0  0  0  0  0
   44.9440   35.6740   43.3660 C   0  0  0  0  0  0  0  0  0  0  0  0
   45.6450   34.4600   43.2370 C   0  0  0  0  0  0  0  0  0  0  0  0
   45.8220   33.7190   44.3650 N   0  0  0  0  0  0  0  0  0  0  0  0
   45.3650   34.0920   45.5650 C   0  0  0  0  0  0  0  0  0  0  0  0
   44.6910   35.2550   45.7010 N   0  0  0  0  0  0  0  0  0  0  0  0
   45.1850   34.3480   40.8750 C   0  0  0  0  0  0  0  0  0  0  0  0
   46.2010   32.4480   41.9850 C   0  0  0  0  0  0  0  0  0  0  0  0
   47.3991   35.1783   40.7949 H   0  0  0  0  0  0  0  0  0  0  0  0
   47.9712   34.7415   42.5252 H   0  0  0  0  0  0  0  0  0  0  0  0
   49.3529   32.8801   43.0324 H   0  0  0  0  0  0  0  0  0  0  0  0
   50.2414   31.5127   39.0944 H   0  0  0  0  0  0  0  0  0  0  0  0
   49.1085   35.2238   37.8710 H   0  0  0  0  0  0  0  0  0  0  0  0
   47.3125   35.0541   36.0546 H   0  0  0  0  0  0  0  0  0  0  0  0
   45.1814   33.3917   35.4014 H   0  0  0  0  0  0  0  0  0  0  0  0
   43.9949   31.3386   36.2232 H   0  0  0  0  0  0  0  0  0  0  0  0
   44.7607   30.1820   38.2701 H   0  0  0  0  0  0  0  0  0  0  0  0
   46.6973   31.0473   39.5270 H   0  0  0  0  0  0  0  0  0  0  0  0
   43.9152   37.0033   44.7552 H   0  0  0  0  0  0  0  0  0  0  0  0
   44.7719   36.3137   42.4879 H   0  0  0  0  0  0  0  0  0  0  0  0
   45.5380   33.4513   46.4423 H   0  0  0  0  0  0  0  0  0  0  0  0
   44.2539   34.7016   41.3419 H   0  0  0  0  0  0  0  0  0  0  0  0
   45.6085   35.1479   40.2498 H   0  0  0  0  0  0  0  0  0  0  0  0
   44.9707   33.4686   40.2498 H   0  0  0  0  0  0  0  0  0  0  0  0
   46.2051   32.0998   43.0284 H   0  0  0  0  0  0  0  0  0  0  0  0
   45.3074   32.0616   41.4730 H   0  0  0  0  0  0  0  0  0  0  0  0
   47.1035   32.0828   41.4730 H   0  0  0  0  0  0  0  0  0  0  0  0
  1 16  1  0
  2  1  1  0
  2  3  2  0
  4  3  1  0
  5  4  2  0
  6  5  1  0
  6  2  1  0
  7  6  1  0
  8  7  2  0
  9 10  1  0
  9  8  1  0
 10 15  2  0
 11 12  2  0
 11 10  1  0
 12 13  1  0
 13 14  2  0
 15 14  1  0
 15  7  1  0
 16 24  1  0
 16 19  1  0
 17 22  2  0
 18 17  1  0
 19 18  2  0
 19 20  1  0
 20 21  2  0
 21 22  1  0
 23 16  1  0
  1 25  1  0
  1 26  1  0
  3 27  1  0
  5 28  1  0
  8 29  1  0
  9 30  1  0
 11 31  1  0
 12 32  1  0
 13 33  1  0
 14 34  1  0
 17 35  1  0
 18 36  1  0
 21 37  1  0
 23 38  1  0
 23 39  1  0
 23 40  1  0
 24 41  1  0
 24 42  1  0
 24 43  1  0
M  ISO  8  25   8  26   8  27  14  28  14  29  14  30   9  31  14  32  14
M  ISO  8  33  14  34  14  35  14  36  14  37  14  38   8  39   8  40   8
M  ISO  3  41   8  42   8  43   8
M  END
>  <minimizedAffinity>  (1) 
-5.71432972

>  <minimizedRMSD>  (1) 
1.91873038

$$$$
