
     RDKit          3D

 43 46  0  0  0  0  0  0  0  0999 V2000
   47.0880   34.4380   40.8280 C   0  0  0  0  0  0  0  0  0  0  0  0
   48.3710   34.1320   41.4080 C   0  0  0  0  0  0  0  0  0  0  0  0
   48.8370   34.8800   42.4880 C   0  0  0  0  0  0  0  0  0  0  0  0
   50.0410   34.4080   42.8320 N   0  0  0  0  0  0  0  0  0  0  0  0
   50.3740   33.4020   42.0370 C   0  0  0  0  0  0  0  0  0  0  0  0
   49.3490   33.2550   41.1870 N   0  0  0  0  0  0  0  0  0  0  0  0
   49.2340   32.2910   40.1270 C   0  0  0  0  0  0  0  0  0  0  0  0
   49.6520   31.0500   40.4340 N   0  0  0  0  0  0  0  0  0  0  0  0
   49.6030   30.0470   39.5380 C   0  0  0  0  0  0  0  0  0  0  0  0
   49.1230   30.2700   38.2900 N   0  0  0  0  0  0  0  0  0  0  0  0
   48.6900   31.5060   37.9370 C   0  0  0  0  0  0  0  0  0  0  0  0
   48.1910   31.8000   36.6850 C   0  0  0  0  0  0  0  0  0  0  0  0
   47.7550   33.0810   36.3570 C   0  0  0  0  0  0  0  0  0  0  0  0
   47.8310   34.0740   37.3250 C   0  0  0  0  0  0  0  0  0  0  0  0
   48.3330   33.7920   38.5920 C   0  0  0  0  0  0  0  0  0  0  0  0
   48.7490   32.5210   38.8690 C   0  0  0  0  0  0  0  0  0  0  0  0
   45.8760   33.9020   41.4580 C   0  0  0  0  0  0  0  0  0  0  0  0
   44.6700   36.2590   44.1920 C   0  0  0  0  0  0  0  0  0  0  0  0
   45.0150   35.7890   42.9150 C   0  0  0  0  0  0  0  0  0  0  0  0
   45.4930   34.4730   42.7580 C   0  0  0  0  0  0  0  0  0  0  0  0
   45.5950   33.7200   43.8780 N   0  0  0  0  0  0  0  0  0  0  0  0
   45.2590   34.1870   45.0960 C   0  0  0  0  0  0  0  0  0  0  0  0
   44.8050   35.4310   45.2570 N   0  0  0  0  0  0  0  0  0  0  0  0
   44.6830   34.0690   40.5270 C   0  0  0  0  0  0  0  0  0  0  0  0
   46.0730   32.4020   41.6220 C   0  0  0  0  0  0  0  0  0  0  0  0
   46.9903   35.5336   40.8216 H   0  0  0  0  0  0  0  0  0  0  0  0
   47.1169   33.9412   39.8470 H   0  0  0  0  0  0  0  0  0  0  0  0
   48.3073   35.7132   42.9730 H   0  0  0  0  0  0  0  0  0  0  0  0
   51.3005   32.8099   42.0683 H   0  0  0  0  0  0  0  0  0  0  0  0
   49.9536   29.0430   39.8193 H   0  0  0  0  0  0  0  0  0  0  0  0
   48.1363   31.0038   35.9280 H   0  0  0  0  0  0  0  0  0  0  0  0
   47.3595   33.3014   35.3545 H   0  0  0  0  0  0  0  0  0  0  0  0
   47.4912   35.0930   37.0880 H   0  0  0  0  0  0  0  0  0  0  0  0
   48.3937   34.5796   39.3575 H   0  0  0  0  0  0  0  0  0  0  0  0
   44.2955   37.2845   44.3266 H   0  0  0  0  0  0  0  0  0  0  0  0
   44.9124   36.4465   42.0391 H   0  0  0  0  0  0  0  0  0  0  0  0
   45.3608   33.5311   45.9732 H   0  0  0  0  0  0  0  0  0  0  0  0
   43.7676   34.1971   41.1234 H   0  0  0  0  0  0  0  0  0  0  0  0
   44.8342   34.9547   39.8925 H   0  0  0  0  0  0  0  0  0  0  0  0
   44.5852   33.1758   39.8925 H   0  0  0  0  0  0  0  0  0  0  0  0
   46.1059   32.1514   42.6926 H   0  0  0  0  0  0  0  0  0  0  0  0
   45.2372   31.8682   41.1460 H   0  0  0  0  0  0  0  0  0  0  0  0
   47.0182   32.1021   41.1460 H   0  0  0  0  0  0  0  0  0  0  0  0
  1  2  1  0
  1 17  1  0
  2  3  2  0
  3  4  1  0
  5  4  2  0
  6  2  1  0
  6  5  1  0
  7  8  2  0
  7  6  1  0
  9  8  1  0
 10  9  2  0
 11 10  1  0
 11 16  2  0
 12 11  1  0
 13 12  2  0
 13 14  1  0
 14 15  2  0
 15 16  1  0
 16  7  1  0
 17 25  1  0
 17 20  1  0
 18 23  2  0
 19 18  1  0
 20 19  2  0
 20 21  1  0
 21 22  2  0
 22 23  1  0
 24 17  1  0
  1 26  1  0
  1 27  1  0
  3 28  1  0
  5 29  1  0
  9 30  1  0
 12 31  1  0
 13 32  1  0
 14 33  1  0
 15 34  1  0
 18 35  1  0
 19 36  1  0
 22 37  1  0
 24 38  1  0
 24 39  1  0
 24 40  1  0
 25 41  1  0
 25 42  1  0
 25 43  1  0
M  ISO  8  26   8  27   8  28  14  29  14  30  14  31  14  32  14  33  14
M  ISO  8  34  14  35  14  36  14  37  14  38   8  39   8  40   8  41   8
M  ISO  2  42   8  43   8
M  END
>  <minimizedAffinity>  (1) 
-5.69754505

>  <minimizedRMSD>  (1) 
1.02284741

$$$$
