
     RDKit          3D

 36 38  0  0  0  0  0  0  0  0999 V2000
   46.1010   34.0310   41.9050 C   0  0  0  0  0  0  0  0  0  0  0  0
   44.4560   35.9610   44.7450 C   0  0  0  0  0  0  0  0  0  0  0  0
   44.8840   35.6510   43.4380 C   0  0  0  0  0  0  0  0  0  0  0  0
   45.6060   34.4560   43.2220 C   0  0  0  0  0  0  0  0  0  0  0  0
   45.8430   33.6730   44.3030 N   0  0  0  0  0  0  0  0  0  0  0  0
   45.4240   33.9920   45.5390 C   0  0  0  0  0  0  0  0  0  0  0  0
   44.7380   35.1190   45.7640 N   0  0  0  0  0  0  0  0  0  0  0  0
   45.0540   34.4550   40.8760 C   0  0  0  0  0  0  0  0  0  0  0  0
   46.1480   32.5230   41.8540 C   0  0  0  0  0  0  0  0  0  0  0  0
   47.4270   34.5370   41.5100 C   0  0  0  0  0  0  0  0  0  0  0  0
   48.4130   33.6000   41.0340 C   0  0  0  0  0  0  0  0  0  0  0  0
   49.3000   33.0150   41.9280 C   0  0  0  0  0  0  0  0  0  0  0  0
   50.1100   32.1990   41.2470 N   0  0  0  0  0  0  0  0  0  0  0  0
   49.7860   32.2280   39.9540 C   0  0  0  0  0  0  0  0  0  0  0  0
   48.7590   33.0820   39.8620 N   0  0  0  0  0  0  0  0  0  0  0  0
   48.0560   33.4510   38.6590 C   0  0  0  0  0  0  0  0  0  0  0  0
   46.9230   32.7890   38.2250 C   0  0  0  0  0  0  0  0  0  0  0  0
   46.4680   33.3690   37.0380 C   0  0  0  0  0  0  0  0  0  0  0  0
   47.3620   34.3600   36.8200 N   0  0  0  0  0  0  0  0  0  0  0  0
   48.2860   34.4200   37.7490 N   0  0  0  0  0  0  0  0  0  0  0  0
   43.8933   36.8869   44.9352 H   0  0  0  0  0  0  0  0  0  0  0  0
   44.6596   36.3281   42.6006 H   0  0  0  0  0  0  0  0  0  0  0  0
   45.6480   33.3171   46.3783 H   0  0  0  0  0  0  0  0  0  0  0  0
   44.1554   34.8189   41.3958 H   0  0  0  0  0  0  0  0  0  0  0  0
   45.4635   35.2581   40.2457 H   0  0  0  0  0  0  0  0  0  0  0  0
   44.7893   33.5932   40.2457 H   0  0  0  0  0  0  0  0  0  0  0  0
   46.1605   32.1217   42.8781 H   0  0  0  0  0  0  0  0  0  0  0  0
   45.2612   32.1462   41.3234 H   0  0  0  0  0  0  0  0  0  0  0  0
   47.0566   32.2022   41.3234 H   0  0  0  0  0  0  0  0  0  0  0  0
   47.2667   35.2731   40.7084 H   0  0  0  0  0  0  0  0  0  0  0  0
   47.8555   34.9216   42.4473 H   0  0  0  0  0  0  0  0  0  0  0  0
   49.3307   33.1931   43.0130 H   0  0  0  0  0  0  0  0  0  0  0  0
   50.2621   31.6683   39.1354 H   0  0  0  0  0  0  0  0  0  0  0  0
   46.4517   31.9363   38.7357 H   0  0  0  0  0  0  0  0  0  0  0  0
   45.5957   33.0881   36.4295 H   0  0  0  0  0  0  0  0  0  0  0  0
   47.3217   34.9981   36.0125 H   0  0  0  0  0  0  0  0  0  0  0  0
  1  4  1  0
  2  7  2  0
  3  2  1  0
  4  3  2  0
  4  5  1  0
  5  6  2  0
  6  7  1  0
  8  1  1  0
  9  1  1  0
 10  1  1  0
 11 10  1  0
 11 12  2  0
 13 12  1  0
 14 13  2  0
 15 14  1  0
 15 11  1  0
 16 15  1  0
 17 16  1  0
 18 17  2  0
 19 18  1  0
 19 20  1  0
 20 16  2  0
  2 21  1  0
  3 22  1  0
  6 23  1  0
  8 24  1  0
  8 25  1  0
  8 26  1  0
  9 27  1  0
  9 28  1  0
  9 29  1  0
 10 30  1  0
 10 31  1  0
 12 32  1  0
 14 33  1  0
 17 34  1  0
 18 35  1  0
 19 36  1  0
M  ISO  8  21  14  22  14  23  14  24   8  25   8  26   8  27   8  28   8
M  ISO  8  29   8  30   8  31   8  32  14  33  14  34  14  35  14  36   9
M  END
>  <minimizedAffinity>  (1) 
-5.4658308

>  <minimizedRMSD>  (1) 
1.44048929

$$$$
