
     RDKit          3D

 45 48  0  0  0  0  0  0  0  0999 V2000
   47.2480   34.6120   41.4090 C   0  0  0  0  0  0  0  0  0  0  0  0
   48.3890   33.7360   41.4230 C   0  0  0  0  0  0  0  0  0  0  0  0
   49.0540   33.4870   42.6310 C   0  0  0  0  0  0  0  0  0  0  0  0
   50.0740   32.6580   42.3740 N   0  0  0  0  0  0  0  0  0  0  0  0
   50.1010   32.3600   41.0890 C   0  0  0  0  0  0  0  0  0  0  0  0
   49.0660   33.0300   40.5350 N   0  0  0  0  0  0  0  0  0  0  0  0
   48.7150   33.0040   39.1560 C   0  0  0  0  0  0  0  0  0  0  0  0
   47.6930   33.7410   38.5930 C   0  0  0  0  0  0  0  0  0  0  0  0
   47.3490   33.7240   37.2720 C   0  0  0  0  0  0  0  0  0  0  0  0
   48.0590   32.9180   36.4060 C   0  0  0  0  0  0  0  0  0  0  0  0
   49.0970   32.1480   36.8890 C   0  0  0  0  0  0  0  0  0  0  0  0
   49.8070   31.3420   36.0250 C   0  0  0  0  0  0  0  0  0  0  0  0
   50.8480   30.5660   36.4930 C   0  0  0  0  0  0  0  0  0  0  0  0
   51.1870   30.5930   37.8360 C   0  0  0  0  0  0  0  0  0  0  0  0
   50.4450   31.4160   38.6570 C   0  0  0  0  0  0  0  0  0  0  0  0
   49.4000   32.2040   38.2330 C   0  0  0  0  0  0  0  0  0  0  0  0
   45.9510   34.1100   41.8640 C   0  0  0  0  0  0  0  0  0  0  0  0
   44.4480   35.9580   44.8270 C   0  0  0  0  0  0  0  0  0  0  0  0
   44.8240   35.6840   43.4960 C   0  0  0  0  0  0  0  0  0  0  0  0
   45.5180   34.4860   43.2120 C   0  0  0  0  0  0  0  0  0  0  0  0
   45.7900   33.6550   44.2560 N   0  0  0  0  0  0  0  0  0  0  0  0
   45.4250   33.9320   45.5190 C   0  0  0  0  0  0  0  0  0  0  0  0
   44.7640   35.0670   45.8010 N   0  0  0  0  0  0  0  0  0  0  0  0
   44.8590   34.5590   40.8930 C   0  0  0  0  0  0  0  0  0  0  0  0
   45.9910   32.5900   41.7700 C   0  0  0  0  0  0  0  0  0  0  0  0
   47.4984   35.4745   42.0442 H   0  0  0  0  0  0  0  0  0  0  0  0
   47.0878   34.8120   40.3393 H   0  0  0  0  0  0  0  0  0  0  0  0
   48.7860   33.8990   43.6151 H   0  0  0  0  0  0  0  0  0  0  0  0
   50.8175   31.7024   40.5749 H   0  0  0  0  0  0  0  0  0  0  0  0
   47.1103   34.3928   39.2606 H   0  0  0  0  0  0  0  0  0  0  0  0
   46.5182   34.3436   36.9035 H   0  0  0  0  0  0  0  0  0  0  0  0
   47.7992   32.8895   35.3375 H   0  0  0  0  0  0  0  0  0  0  0  0
   49.5426   31.3172   34.9575 H   0  0  0  0  0  0  0  0  0  0  0  0
   51.4098   29.9246   35.7980 H   0  0  0  0  0  0  0  0  0  0  0  0
   52.0133   29.9836   38.2309 H   0  0  0  0  0  0  0  0  0  0  0  0
   50.7069   31.4444   39.7250 H   0  0  0  0  0  0  0  0  0  0  0  0
   43.9052   36.8826   45.0731 H   0  0  0  0  0  0  0  0  0  0  0  0
   44.5807   36.3924   42.6904 H   0  0  0  0  0  0  0  0  0  0  0  0
   45.6687   33.2257   46.3263 H   0  0  0  0  0  0  0  0  0  0  0  0
   43.9878   34.9172   41.4611 H   0  0  0  0  0  0  0  0  0  0  0  0
   45.2432   35.3721   40.2596 H   0  0  0  0  0  0  0  0  0  0  0  0
   44.5602   33.7108   40.2596 H   0  0  0  0  0  0  0  0  0  0  0  0
   46.0023   32.1602   42.7825 H   0  0  0  0  0  0  0  0  0  0  0  0
   45.1020   32.2325   41.2298 H   0  0  0  0  0  0  0  0  0  0  0  0
   46.8976   32.2798   41.2298 H   0  0  0  0  0  0  0  0  0  0  0  0
  1  2  1  0
  1 17  1  0
  2  3  2  0
  4  3  1  0
  5  4  2  0
  6  5  1  0
  6  2  1  0
  7  6  1  0
  8  7  2  0
  9  8  1  0
 10 11  1  0
 10  9  2  0
 11 16  2  0
 12 13  2  0
 12 11  1  0
 13 14  1  0
 14 15  2  0
 16 15  1  0
 16  7  1  0
 17 20  1  0
 18 23  2  0
 19 18  1  0
 20 19  2  0
 20 21  1  0
 21 22  2  0
 22 23  1  0
 24 17  1  0
 25 17  1  0
  1 26  1  0
  1 27  1  0
  3 28  1  0
  5 29  1  0
  8 30  1  0
  9 31  1  0
 10 32  1  0
 12 33  1  0
 13 34  1  0
 14 35  1  0
 15 36  1  0
 18 37  1  0
 19 38  1  0
 22 39  1  0
 24 40  1  0
 24 41  1  0
 24 42  1  0
 25 43  1  0
 25 44  1  0
 25 45  1  0
M  ISO  8  26   8  27   8  28  14  29  14  30  14  31  14  32  14  33  14
M  ISO  8  34  14  35  14  36  14  37  14  38  14  39  14  40   8  41   8
M  ISO  4  42   8  43   8  44   8  45   8
M  END
>  <minimizedAffinity>  (1) 
-5.4446311

>  <minimizedRMSD>  (1) 
0.950486243

$$$$
