
     RDKit          3D

 39 41  0  0  1  0  0  0  0  0999 V2000
   47.8140   34.9180   41.4610 C   0  0  2  0  0  0  0  0  0  0  0  0
   49.0640   35.5890   41.7010 C   0  0  0  0  0  0  0  0  0  0  0  0
   50.0060   34.5980   42.4040 C   0  0  0  0  0  0  0  0  0  0  0  0
   49.2830   33.2700   42.4920 C   0  0  0  0  0  0  0  0  0  0  0  0
   47.8630   33.6810   42.4110 C   0  0  1  0  0  0  0  0  0  0  0  0
   47.5350   34.3480   40.1180 C   0  0  0  0  0  0  0  0  0  0  0  0
   48.3960   34.6640   39.0680 C   0  0  0  0  0  0  0  0  0  0  0  0
   48.1610   34.1400   37.8080 C   0  0  0  0  0  0  0  0  0  0  0  0
   47.0720   33.3280   37.6790 N   0  0  0  0  0  0  0  0  0  0  0  0
   46.2560   33.0390   38.7100 C   0  0  0  0  0  0  0  0  0  0  0  0
   46.4880   33.5520   39.9350 N   0  0  0  0  0  0  0  0  0  0  0  0
   47.3750   34.1060   43.7630 C   0  0  0  0  0  0  0  0  0  0  0  0
   45.9220   33.7920   43.9060 C   0  0  0  0  0  0  0  0  0  0  0  0
   45.8200   33.1960   45.2670 N   0  0  0  0  0  0  0  0  0  0  0  0
   46.3330   32.0050   45.6230 C   0  0  0  0  0  0  0  0  0  0  0  0
   46.1350   31.6200   46.9400 C   0  0  0  0  0  0  0  0  0  0  0  0
   45.4370   32.4520   47.8120 C   0  0  0  0  0  0  0  0  0  0  0  0
   45.2660   32.0880   49.0050 O   0  0  0  0  0  0  0  0  0  0  0  0
   44.9360   33.6440   47.4180 N   0  0  0  0  0  0  0  0  0  0  0  0
   45.1480   33.9860   46.1320 C   0  0  0  0  0  0  0  0  0  0  0  0
   44.6560   35.1130   45.8160 O   0  0  0  0  0  0  0  0  0  0  0  0
   47.0413   35.6883   41.6005 H   0  0  0  0  0  0  0  0  0  0  0  0
   49.5050   35.9102   40.7458 H   0  0  0  0  0  0  0  0  0  0  0  0
   48.9066   36.4785   42.3287 H   0  0  0  0  0  0  0  0  0  0  0  0
   50.9329   34.4836   41.8228 H   0  0  0  0  0  0  0  0  0  0  0  0
   50.2736   34.9616   43.4071 H   0  0  0  0  0  0  0  0  0  0  0  0
   49.5559   32.6111   41.6545 H   0  0  0  0  0  0  0  0  0  0  0  0
   49.5252   32.6946   43.3977 H   0  0  0  0  0  0  0  0  0  0  0  0
   47.2375   32.8514   42.0496 H   0  0  0  0  0  0  0  0  0  0  0  0
   49.2575   35.3261   39.2396 H   0  0  0  0  0  0  0  0  0  0  0  0
   48.8181   34.3666   36.9554 H   0  0  0  0  0  0  0  0  0  0  0  0
   45.3914   32.3777   38.5514 H   0  0  0  0  0  0  0  0  0  0  0  0
   47.9411   33.5702   44.5392 H   0  0  0  0  0  0  0  0  0  0  0  0
   47.5217   35.1905   43.8743 H   0  0  0  0  0  0  0  0  0  0  0  0
   45.3144   34.7059   43.8318 H   0  0  0  0  0  0  0  0  0  0  0  0
   45.5525   33.1193   43.1181 H   0  0  0  0  0  0  0  0  0  0  0  0
   46.8794   31.3714   44.9088 H   0  0  0  0  0  0  0  0  0  0  0  0
   46.5294   30.6570   47.2965 H   0  0  0  0  0  0  0  0  0  0  0  0
   44.4204   34.2573   48.0653 H   0  0  0  0  0  0  0  0  0  0  0  0
  1  2  1  0
  1  5  1  0
  2  3  1  0
  3  4  1  0
  5  4  1  0
  5 12  1  0
  6  1  1  0
  7  6  2  0
  8  7  1  0
  9  8  2  0
  9 10  1  0
 10 11  2  0
 11  6  1  0
 12 13  1  0
 13 14  1  0
 14 15  1  0
 14 20  1  0
 15 16  2  0
 16 17  1  0
 17 18  2  0
 19 17  1  0
 20 19  1  0
 21 20  2  0
  1 22  1  1
  2 23  1  0
  2 24  1  0
  3 25  1  0
  3 26  1  0
  4 27  1  0
  4 28  1  0
  5 29  1  6
  7 30  1  0
  8 31  1  0
 10 32  1  0
 12 33  1  0
 12 34  1  0
 13 35  1  0
 13 36  1  0
 15 37  1  0
 16 38  1  0
 19 39  1  0
M  ISO  8  22  13  23  13  24  13  25  13  26  13  27  13  28  13  29  13
M  ISO  8  30  14  31  14  32  14  33   8  34   8  35   8  36   8  37  14
M  ISO  2  38  14  39   9
M  END
>  <minimizedAffinity>  (1) 
-6.31253624

>  <minimizedRMSD>  (1) 
1.74301445

$$$$
