
     RDKit          3D

 41 43  0  0  1  0  0  0  0  0999 V2000
   46.4200   34.0590   41.9200 C   0  0  0  0  0  0  0  0  0  0  0  0
   44.5870   36.2120   44.4570 C   0  0  0  0  0  0  0  0  0  0  0  0
   45.1500   35.8070   43.2410 C   0  0  0  0  0  0  0  0  0  0  0  0
   45.8050   34.5530   43.1570 C   0  0  0  0  0  0  0  0  0  0  0  0
   45.8500   33.8010   44.2830 N   0  0  0  0  0  0  0  0  0  0  0  0
   45.3030   34.2060   45.4450 C   0  0  0  0  0  0  0  0  0  0  0  0
   44.6800   35.3930   45.5340 N   0  0  0  0  0  0  0  0  0  0  0  0
   45.3800   34.1700   40.8160 C   0  0  0  0  0  0  0  0  0  0  0  0
   46.6840   32.5600   42.0790 C   0  0  0  0  0  0  0  0  0  0  0  0
   47.6750   34.6760   41.4950 C   0  0  0  0  0  0  0  0  0  0  0  0
   48.8990   33.9210   41.5840 C   0  0  0  0  0  0  0  0  0  0  0  0
   49.7930   34.1470   42.6270 C   0  0  0  0  0  0  0  0  0  0  0  0
   50.8330   33.3270   42.4640 N   0  0  0  0  0  0  0  0  0  0  0  0
   50.6600   32.5840   41.3730 C   0  0  0  0  0  0  0  0  0  0  0  0
   49.4830   32.9680   40.8660 N   0  0  0  0  0  0  0  0  0  0  0  0
   48.9940   33.3660   38.5660 N   0  0  0  0  0  0  0  0  0  0  0  0
   49.5140   32.6720   37.4300 C   0  0  0  0  0  0  0  0  0  0  0  0
   50.4480   31.6520   38.0450 C   0  0  0  0  0  0  0  0  0  0  0  0
   49.6930   31.2120   39.2600 C   0  0  0  0  0  0  0  0  0  0  0  0
   48.8810   32.4250   39.6660 C   0  0  1  0  0  0  0  0  0  0  0  0
   44.0755   37.1825   44.5380 H   0  0  0  0  0  0  0  0  0  0  0  0
   45.0845   36.4577   42.3566 H   0  0  0  0  0  0  0  0  0  0  0  0
   45.3670   33.5576   46.3313 H   0  0  0  0  0  0  0  0  0  0  0  0
   44.3806   34.2767   41.2631 H   0  0  0  0  0  0  0  0  0  0  0  0
   45.5989   35.0499   40.1932 H   0  0  0  0  0  0  0  0  0  0  0  0
   45.4082   33.2637   40.1932 H   0  0  0  0  0  0  0  0  0  0  0  0
   46.7286   32.3070   43.1486 H   0  0  0  0  0  0  0  0  0  0  0  0
   45.8721   31.9920   41.6014 H   0  0  0  0  0  0  0  0  0  0  0  0
   47.6411   32.3036   41.6014 H   0  0  0  0  0  0  0  0  0  0  0  0
   47.8109   35.5803   42.1064 H   0  0  0  0  0  0  0  0  0  0  0  0
   47.5388   34.8237   40.4135 H   0  0  0  0  0  0  0  0  0  0  0  0
   49.6646   34.8740   43.4424 H   0  0  0  0  0  0  0  0  0  0  0  0
   51.3401   31.8174   40.9734 H   0  0  0  0  0  0  0  0  0  0  0  0
   48.0659   33.7528   38.3425 H   0  0  0  0  0  0  0  0  0  0  0  0
   50.0607   33.3572   36.7655 H   0  0  0  0  0  0  0  0  0  0  0  0
   48.7301   32.2179   36.8061 H   0  0  0  0  0  0  0  0  0  0  0  0
   50.6237   30.8098   37.3596 H   0  0  0  0  0  0  0  0  0  0  0  0
   51.4472   32.0527   38.2710 H   0  0  0  0  0  0  0  0  0  0  0  0
   49.0329   30.3651   39.0213 H   0  0  0  0  0  0  0  0  0  0  0  0
   50.3605   30.8689   40.0642 H   0  0  0  0  0  0  0  0  0  0  0  0
   47.8241   32.1966   39.8682 H   0  0  0  0  0  0  0  0  0  0  0  0
  1  9  1  0
  1  4  1  0
  2  7  2  0
  3  2  1  0
  4  3  2  0
  4  5  1  0
  5  6  2  0
  6  7  1  0
  8  1  1  0
 10 11  1  0
 10  1  1  0
 11 12  2  0
 13 12  1  0
 14 13  2  0
 15 14  1  0
 15 11  1  0
 16 20  1  0
 17 18  1  0
 17 16  1  0
 18 19  1  0
 20 19  1  0
 20 15  1  0
  2 21  1  0
  3 22  1  0
  6 23  1  0
  8 24  1  0
  8 25  1  0
  8 26  1  0
  9 27  1  0
  9 28  1  0
  9 29  1  0
 10 30  1  0
 10 31  1  0
 12 32  1  0
 14 33  1  0
 16 34  1  0
 17 35  1  0
 17 36  1  0
 18 37  1  0
 18 38  1  0
 19 39  1  0
 19 40  1  0
 20 41  1  1
M  ISO  8  21  14  22  14  23  14  24   8  25   8  26   8  27   8  28   8
M  ISO  8  29   8  30   8  31   8  32  14  33  14  34   5  35  13  36  13
M  ISO  5  37  13  38  13  39  13  40  13  41  13
M  END
>  <minimizedAffinity>  (1) 
-5.14002419

>  <minimizedRMSD>  (1) 
0.158109546

$$$$
