
     RDKit          3D

 39 41  0  0  0  0  0  0  0  0999 V2000
   46.5680   33.9810   42.1100 C   0  0  0  0  0  0  0  0  0  0  0  0
   44.5650   36.1670   44.4880 C   0  0  0  0  0  0  0  0  0  0  0  0
   45.1890   35.7390   43.3080 C   0  0  0  0  0  0  0  0  0  0  0  0
   45.8840   34.5060   43.3050 C   0  0  0  0  0  0  0  0  0  0  0  0
   45.9150   33.7870   44.4600 N   0  0  0  0  0  0  0  0  0  0  0  0
   45.3070   34.2170   45.5840 C   0  0  0  0  0  0  0  0  0  0  0  0
   44.6410   35.3900   45.6000 N   0  0  0  0  0  0  0  0  0  0  0  0
   45.6650   34.2450   40.9170 C   0  0  0  0  0  0  0  0  0  0  0  0
   46.6440   32.4600   42.2350 C   0  0  0  0  0  0  0  0  0  0  0  0
   47.9190   34.4650   41.8410 C   0  0  0  0  0  0  0  0  0  0  0  0
   48.9440   33.5230   41.4630 C   0  0  0  0  0  0  0  0  0  0  0  0
   49.9470   33.1750   42.3700 C   0  0  0  0  0  0  0  0  0  0  0  0
   50.7620   32.3050   41.7800 N   0  0  0  0  0  0  0  0  0  0  0  0
   50.3520   32.0640   40.5420 C   0  0  0  0  0  0  0  0  0  0  0  0
   49.2480   32.8180   40.3820 N   0  0  0  0  0  0  0  0  0  0  0  0
   48.4760   32.8700   39.1880 C   0  0  0  0  0  0  0  0  0  0  0  0
   48.4610   33.9970   38.3580 C   0  0  0  0  0  0  0  0  0  0  0  0
   47.7230   34.0820   37.1970 C   0  0  0  0  0  0  0  0  0  0  0  0
   46.9520   33.0160   36.8100 C   0  0  0  0  0  0  0  0  0  0  0  0
   46.9280   31.8780   37.5880 C   0  0  0  0  0  0  0  0  0  0  0  0
   47.6790   31.8380   38.7380 C   0  0  0  0  0  0  0  0  0  0  0  0
   44.0195   37.1219   44.5134 H   0  0  0  0  0  0  0  0  0  0  0  0
   45.1392   36.3531   42.3967 H   0  0  0  0  0  0  0  0  0  0  0  0
   45.3545   33.6053   46.4970 H   0  0  0  0  0  0  0  0  0  0  0  0
   44.6655   34.5372   41.2713 H   0  0  0  0  0  0  0  0  0  0  0  0
   46.0899   35.0565   40.3080 H   0  0  0  0  0  0  0  0  0  0  0  0
   45.5859   33.3324   40.3080 H   0  0  0  0  0  0  0  0  0  0  0  0
   46.6580   32.1798   43.2986 H   0  0  0  0  0  0  0  0  0  0  0  0
   45.7673   32.0078   41.7482 H   0  0  0  0  0  0  0  0  0  0  0  0
   47.5614   32.0975   41.7482 H   0  0  0  0  0  0  0  0  0  0  0  0
   47.8406   35.1985   41.0251 H   0  0  0  0  0  0  0  0  0  0  0  0
   48.2594   34.8430   42.8163 H   0  0  0  0  0  0  0  0  0  0  0  0
   50.0462   33.5555   43.3973 H   0  0  0  0  0  0  0  0  0  0  0  0
   50.8147   31.3921   39.8041 H   0  0  0  0  0  0  0  0  0  0  0  0
   49.0727   34.8638   38.6487 H   0  0  0  0  0  0  0  0  0  0  0  0
   47.7522   34.9965   36.5865 H   0  0  0  0  0  0  0  0  0  0  0  0
   46.3573   33.0684   35.8861 H   0  0  0  0  0  0  0  0  0  0  0  0
   46.3157   31.0134   37.2920 H   0  0  0  0  0  0  0  0  0  0  0  0
   47.6421   30.9192   39.3417 H   0  0  0  0  0  0  0  0  0  0  0  0
  1  9  1  0
  1  4  1  0
  2  7  2  0
  3  2  1  0
  4  3  2  0
  4  5  1  0
  5  6  2  0
  6  7  1  0
  8  1  1  0
 10  1  1  0
 11 10  1  0
 11 12  2  0
 13 12  1  0
 14 13  2  0
 15 14  1  0
 15 11  1  0
 16 15  1  0
 17 16  2  0
 18 17  1  0
 19 18  2  0
 19 20  1  0
 20 21  2  0
 21 16  1  0
  2 22  1  0
  3 23  1  0
  6 24  1  0
  8 25  1  0
  8 26  1  0
  8 27  1  0
  9 28  1  0
  9 29  1  0
  9 30  1  0
 10 31  1  0
 10 32  1  0
 12 33  1  0
 14 34  1  0
 17 35  1  0
 18 36  1  0
 19 37  1  0
 20 38  1  0
 21 39  1  0
M  ISO  8  22  14  23  14  24  14  25   8  26   8  27   8  28   8  29   8
M  ISO  8  30   8  31   8  32   8  33  14  34  14  35  14  36  14  37  14
M  ISO  2  38  14  39  14
M  END
>  <minimizedAffinity>  (1) 
-4.98528528

>  <minimizedRMSD>  (1) 
1.00661016

$$$$
