
     RDKit          3D

 36 38  0  0  0  0  0  0  0  0999 V2000
   46.4120   33.9420   42.0890 C   0  0  0  0  0  0  0  0  0  0  0  0
   44.4740   35.9330   44.6890 C   0  0  0  0  0  0  0  0  0  0  0  0
   45.0260   35.5800   43.4410 C   0  0  0  0  0  0  0  0  0  0  0  0
   45.7980   34.3860   43.3540 C   0  0  0  0  0  0  0  0  0  0  0  0
   45.9610   33.6560   44.4770 N   0  0  0  0  0  0  0  0  0  0  0  0
   45.4250   34.0110   45.6600 C   0  0  0  0  0  0  0  0  0  0  0  0
   44.6910   35.1330   45.7660 N   0  0  0  0  0  0  0  0  0  0  0  0
   45.5010   34.3890   40.9560 C   0  0  0  0  0  0  0  0  0  0  0  0
   46.3990   32.4240   42.0610 C   0  0  0  0  0  0  0  0  0  0  0  0
   47.7970   34.3760   41.8310 C   0  0  0  0  0  0  0  0  0  0  0  0
   48.7670   33.3970   41.4090 C   0  0  0  0  0  0  0  0  0  0  0  0
   49.6100   32.8180   42.3590 C   0  0  0  0  0  0  0  0  0  0  0  0
   50.4160   31.9550   41.7220 N   0  0  0  0  0  0  0  0  0  0  0  0
   50.1400   31.9470   40.4320 C   0  0  0  0  0  0  0  0  0  0  0  0
   49.1340   32.8320   40.2690 N   0  0  0  0  0  0  0  0  0  0  0  0
   48.4840   33.1770   39.0390 C   0  0  0  0  0  0  0  0  0  0  0  0
   47.4630   32.6050   38.3310 C   0  0  0  0  0  0  0  0  0  0  0  0
   47.2450   33.3610   37.2150 N   0  0  0  0  0  0  0  0  0  0  0  0
   48.1160   34.3890   37.2220 C   0  0  0  0  0  0  0  0  0  0  0  0
   48.8600   34.2670   38.3320 N   0  0  0  0  0  0  0  0  0  0  0  0
   43.8726   36.8484   44.7904 H   0  0  0  0  0  0  0  0  0  0  0  0
   44.8644   36.2117   42.5551 H   0  0  0  0  0  0  0  0  0  0  0  0
   45.5885   33.3793   46.5455 H   0  0  0  0  0  0  0  0  0  0  0  0
   44.5878   34.8371   41.3748 H   0  0  0  0  0  0  0  0  0  0  0  0
   46.0238   35.1329   40.3369 H   0  0  0  0  0  0  0  0  0  0  0  0
   45.2325   33.5203   40.3369 H   0  0  0  0  0  0  0  0  0  0  0  0
   46.3957   32.0383   43.0912 H   0  0  0  0  0  0  0  0  0  0  0  0
   45.4978   32.0747   41.5358 H   0  0  0  0  0  0  0  0  0  0  0  0
   47.2941   32.0593   41.5358 H   0  0  0  0  0  0  0  0  0  0  0  0
   47.7531   35.1458   41.0465 H   0  0  0  0  0  0  0  0  0  0  0  0
   48.1606   34.7009   42.8170 H   0  0  0  0  0  0  0  0  0  0  0  0
   49.6130   33.0313   43.4381 H   0  0  0  0  0  0  0  0  0  0  0  0
   50.6281   31.3446   39.6517 H   0  0  0  0  0  0  0  0  0  0  0  0
   46.9133   31.6945   38.6118 H   0  0  0  0  0  0  0  0  0  0  0  0
   48.2011   35.1791   36.4614 H   0  0  0  0  0  0  0  0  0  0  0  0
   49.6129   34.9137   38.6074 H   0  0  0  0  0  0  0  0  0  0  0  0
  1  4  1  0
  2  7  2  0
  3  2  1  0
  4  3  2  0
  4  5  1  0
  5  6  2  0
  6  7  1  0
  8  1  1  0
  9  1  1  0
 10  1  1  0
 11 10  1  0
 11 12  2  0
 13 12  1  0
 14 13  2  0
 15 14  1  0
 15 11  1  0
 16 15  1  0
 17 16  2  0
 18 19  2  0
 18 17  1  0
 19 20  1  0
 20 16  1  0
  2 21  1  0
  3 22  1  0
  6 23  1  0
  8 24  1  0
  8 25  1  0
  8 26  1  0
  9 27  1  0
  9 28  1  0
  9 29  1  0
 10 30  1  0
 10 31  1  0
 12 32  1  0
 14 33  1  0
 17 34  1  0
 19 35  1  0
 20 36  1  0
M  ISO  8  21  14  22  14  23  14  24   8  25   8  26   8  27   8  28   8
M  ISO  8  29   8  30   8  31   8  32  14  33  14  34  14  35  14  36   9
M  END
>  <minimizedAffinity>  (1) 
-4.97672796

>  <minimizedRMSD>  (1) 
1.14383519

$$$$
