
     RDKit          3D

 37 39  0  0  0  0  0  0  0  0999 V2000
   45.9790   34.2010   42.0210 C   0  0  0  0  0  0  0  0  0  0  0  0
   44.4050   36.0170   44.9700 C   0  0  0  0  0  0  0  0  0  0  0  0
   44.8170   35.7500   43.6540 C   0  0  0  0  0  0  0  0  0  0  0  0
   45.5160   34.5510   43.3720 C   0  0  0  0  0  0  0  0  0  0  0  0
   45.7520   33.7130   44.4080 N   0  0  0  0  0  0  0  0  0  0  0  0
   45.3460   33.9920   45.6650 C   0  0  0  0  0  0  0  0  0  0  0  0
   44.6860   35.1200   45.9440 N   0  0  0  0  0  0  0  0  0  0  0  0
   44.8740   34.5770   41.0460 C   0  0  0  0  0  0  0  0  0  0  0  0
   46.0990   32.6830   41.9340 C   0  0  0  0  0  0  0  0  0  0  0  0
   47.2620   34.7620   41.5880 C   0  0  0  0  0  0  0  0  0  0  0  0
   48.4210   33.9060   41.5290 C   0  0  0  0  0  0  0  0  0  0  0  0
   49.2310   33.7740   42.6520 C   0  0  0  0  0  0  0  0  0  0  0  0
   50.2370   32.9450   42.3530 N   0  0  0  0  0  0  0  0  0  0  0  0
   50.1190   32.5330   41.0930 C   0  0  0  0  0  0  0  0  0  0  0  0
   49.0080   33.1350   40.6270 N   0  0  0  0  0  0  0  0  0  0  0  0
   48.4490   33.0100   39.3020 C   0  0  0  0  0  0  0  0  0  0  0  0
   48.3880   34.1240   38.4680 C   0  0  0  0  0  0  0  0  0  0  0  0
   47.8750   34.1100   37.1890 C   0  0  0  0  0  0  0  0  0  0  0  0
   47.4110   32.9090   36.7600 N   0  0  0  0  0  0  0  0  0  0  0  0
   47.4730   31.8230   37.5820 C   0  0  0  0  0  0  0  0  0  0  0  0
   47.9790   31.8460   38.8360 N   0  0  0  0  0  0  0  0  0  0  0  0
   43.8609   36.9434   45.2061 H   0  0  0  0  0  0  0  0  0  0  0  0
   44.5984   36.4666   42.8486 H   0  0  0  0  0  0  0  0  0  0  0  0
   45.5623   33.2783   46.4736 H   0  0  0  0  0  0  0  0  0  0  0  0
   43.9782   34.8818   41.6069 H   0  0  0  0  0  0  0  0  0  0  0  0
   45.2116   35.4108   40.4130 H   0  0  0  0  0  0  0  0  0  0  0  0
   44.6330   33.7103   40.4130 H   0  0  0  0  0  0  0  0  0  0  0  0
   46.1325   32.2591   42.9485 H   0  0  0  0  0  0  0  0  0  0  0  0
   45.2302   32.2768   41.3954 H   0  0  0  0  0  0  0  0  0  0  0  0
   47.0209   32.4183   41.3954 H   0  0  0  0  0  0  0  0  0  0  0  0
   47.1104   35.1675   40.5768 H   0  0  0  0  0  0  0  0  0  0  0  0
   47.5112   35.4849   42.3788 H   0  0  0  0  0  0  0  0  0  0  0  0
   49.0712   34.2678   43.6218 H   0  0  0  0  0  0  0  0  0  0  0  0
   50.7858   31.8478   40.5490 H   0  0  0  0  0  0  0  0  0  0  0  0
   48.7748   35.0779   38.8559 H   0  0  0  0  0  0  0  0  0  0  0  0
   47.8437   35.0110   36.5587 H   0  0  0  0  0  0  0  0  0  0  0  0
   47.0865   30.8664   37.2006 H   0  0  0  0  0  0  0  0  0  0  0  0
  1  4  1  0
  2  7  2  0
  3  2  1  0
  4  3  2  0
  4  5  1  0
  5  6  2  0
  6  7  1  0
  8  1  1  0
  9  1  1  0
 10  1  1  0
 11 10  1  0
 11 12  2  0
 13 12  1  0
 14 13  2  0
 15 14  1  0
 15 11  1  0
 16 15  1  0
 17 16  2  0
 18 17  1  0
 19 18  2  0
 19 20  1  0
 20 21  2  0
 21 16  1  0
  2 22  1  0
  3 23  1  0
  6 24  1  0
  8 25  1  0
  8 26  1  0
  8 27  1  0
  9 28  1  0
  9 29  1  0
  9 30  1  0
 10 31  1  0
 10 32  1  0
 12 33  1  0
 14 34  1  0
 17 35  1  0
 18 36  1  0
 20 37  1  0
M  ISO  8  22  14  23  14  24  14  25   8  26   8  27   8  28   8  29   8
M  ISO  8  30   8  31   8  32   8  33  14  34  14  35  14  36  14  37  14
M  END
>  <minimizedAffinity>  (1) 
-4.93132353

>  <minimizedRMSD>  (1) 
0.959379017

$$$$
