
     RDKit          3D

 42 45  0  0  1  0  0  0  0  0999 V2000
   47.8290   34.8930   41.4120 C   0  0  2  0  0  0  0  0  0  0  0  0
   48.9870   35.6990   41.7060 C   0  0  0  0  0  0  0  0  0  0  0  0
   50.0190   34.7960   42.4050 C   0  0  0  0  0  0  0  0  0  0  0  0
   49.4560   33.3880   42.4180 C   0  0  0  0  0  0  0  0  0  0  0  0
   47.9960   33.6420   42.3160 C   0  0  1  0  0  0  0  0  0  0  0  0
   47.6500   34.3470   40.0420 C   0  0  0  0  0  0  0  0  0  0  0  0
   48.4900   34.8020   39.0250 C   0  0  0  0  0  0  0  0  0  0  0  0
   48.3470   34.3030   37.7440 C   0  0  0  0  0  0  0  0  0  0  0  0
   47.3660   33.3720   37.5610 N   0  0  0  0  0  0  0  0  0  0  0  0
   46.5680   32.9490   38.5540 C   0  0  0  0  0  0  0  0  0  0  0  0
   46.7040   33.4330   39.8040 N   0  0  0  0  0  0  0  0  0  0  0  0
   47.4310   33.9390   43.6700 C   0  0  0  0  0  0  0  0  0  0  0  0
   46.0370   33.4200   43.7590 C   0  0  0  0  0  0  0  0  0  0  0  0
   45.7890   33.2820   45.2260 N   0  0  0  0  0  0  0  0  0  0  0  0
   45.0870   34.1980   45.9500 C   0  0  0  0  0  0  0  0  0  0  0  0
   45.0520   33.7700   47.2250 N   0  0  0  0  0  0  0  0  0  0  0  0
   45.7250   32.5870   47.3240 C   0  0  0  0  0  0  0  0  0  0  0  0
   46.0150   31.7030   48.3460 C   0  0  0  0  0  0  0  0  0  0  0  0
   46.7200   30.6100   48.0600 N   0  0  0  0  0  0  0  0  0  0  0  0
   47.1680   30.3210   46.8240 C   0  0  0  0  0  0  0  0  0  0  0  0
   46.8900   31.1770   45.8210 N   0  0  0  0  0  0  0  0  0  0  0  0
   46.1800   32.2970   46.0550 C   0  0  0  0  0  0  0  0  0  0  0  0
   45.5260   32.0340   49.6510 N   0  0  0  0  0  0  0  0  0  0  0  0
   46.9682   35.5616   41.5599 H   0  0  0  0  0  0  0  0  0  0  0  0
   49.4108   36.1005   40.7737 H   0  0  0  0  0  0  0  0  0  0  0  0
   48.7137   36.5453   42.3534 H   0  0  0  0  0  0  0  0  0  0  0  0
   50.9703   34.8153   41.8530 H   0  0  0  0  0  0  0  0  0  0  0  0
   50.2104   35.1468   43.4298 H   0  0  0  0  0  0  0  0  0  0  0  0
   49.8213   32.8029   41.5611 H   0  0  0  0  0  0  0  0  0  0  0  0
   49.7448   32.8015   43.3027 H   0  0  0  0  0  0  0  0  0  0  0  0
   47.4726   32.7661   41.9051 H   0  0  0  0  0  0  0  0  0  0  0  0
   49.2626   35.5544   39.2418 H   0  0  0  0  0  0  0  0  0  0  0  0
   48.9894   34.6383   36.9164 H   0  0  0  0  0  0  0  0  0  0  0  0
   45.7928   32.1973   38.3444 H   0  0  0  0  0  0  0  0  0  0  0  0
   48.0510   33.4547   44.4389 H   0  0  0  0  0  0  0  0  0  0  0  0
   47.4249   35.0272   43.8308 H   0  0  0  0  0  0  0  0  0  0  0  0
   45.3273   34.1295   43.3086 H   0  0  0  0  0  0  0  0  0  0  0  0
   45.9060   32.4707   43.2189 H   0  0  0  0  0  0  0  0  0  0  0  0
   44.6311   35.1209   45.5621 H   0  0  0  0  0  0  0  0  0  0  0  0
   47.7486   29.4057   46.6367 H   0  0  0  0  0  0  0  0  0  0  0  0
   45.7156   31.4074   50.4462 H   0  0  0  0  0  0  0  0  0  0  0  0
   44.9848   32.8986   49.7942 H   0  0  0  0  0  0  0  0  0  0  0  0
  1  2  1  0
  1  5  1  0
  2  3  1  0
  3  4  1  0
  5  4  1  0
  5 12  1  0
  6  1  1  0
  7  6  2  0
  8  7  1  0
  9  8  2  0
  9 10  1  0
 10 11  2  0
 11  6  1  0
 12 13  1  0
 13 14  1  0
 14 15  1  0
 14 22  1  0
 15 16  2  0
 16 17  1  0
 17 18  2  0
 18 23  1  0
 19 18  1  0
 20 19  2  0
 21 22  2  0
 21 20  1  0
 22 17  1  0
  1 24  1  1
  2 25  1  0
  2 26  1  0
  3 27  1  0
  3 28  1  0
  4 29  1  0
  4 30  1  0
  5 31  1  6
  7 32  1  0
  8 33  1  0
 10 34  1  0
 12 35  1  0
 12 36  1  0
 13 37  1  0
 13 38  1  0
 15 39  1  0
 20 40  1  0
 23 41  1  0
 23 42  1  0
M  ISO  8  24  13  25  13  26  13  27  13  28  13  29  13  30  13  31  13
M  ISO  8  32  14  33  14  34  14  35   8  36   8  37   8  38   8  39  14
M  ISO  1  40  14
M  END
>  <minimizedAffinity>  (1) 
-6.2718854

>  <minimizedRMSD>  (1) 
1.59610641

$$$$
