
     RDKit          3D

 36 38  0  0  0  0  0  0  0  0999 V2000
   46.0560   34.1740   42.0680 C   0  0  0  0  0  0  0  0  0  0  0  0
   44.4000   36.0370   44.9480 C   0  0  0  0  0  0  0  0  0  0  0  0
   44.8440   35.7550   43.6490 C   0  0  0  0  0  0  0  0  0  0  0  0
   45.5560   34.5440   43.4070 C   0  0  0  0  0  0  0  0  0  0  0  0
   45.7700   33.7180   44.4530 N   0  0  0  0  0  0  0  0  0  0  0  0
   45.3310   34.0140   45.6950 C   0  0  0  0  0  0  0  0  0  0  0  0
   44.6630   35.1420   45.9450 N   0  0  0  0  0  0  0  0  0  0  0  0
   44.9920   34.5750   41.0560 C   0  0  0  0  0  0  0  0  0  0  0  0
   46.1710   32.6600   42.0160 C   0  0  0  0  0  0  0  0  0  0  0  0
   47.3600   34.7300   41.6710 C   0  0  0  0  0  0  0  0  0  0  0  0
   48.4790   33.8390   41.4940 C   0  0  0  0  0  0  0  0  0  0  0  0
   49.3510   33.6120   42.5530 C   0  0  0  0  0  0  0  0  0  0  0  0
   50.2990   32.7620   42.1420 N   0  0  0  0  0  0  0  0  0  0  0  0
   50.0830   32.4300   40.8750 C   0  0  0  0  0  0  0  0  0  0  0  0
   48.9710   33.1000   40.5110 N   0  0  0  0  0  0  0  0  0  0  0  0
   48.3350   33.0670   39.2230 C   0  0  0  0  0  0  0  0  0  0  0  0
   48.2830   34.1870   38.4260 C   0  0  0  0  0  0  0  0  0  0  0  0
   47.6170   33.8650   37.2580 C   0  0  0  0  0  0  0  0  0  0  0  0
   47.2940   32.5230   37.4190 C   0  0  0  0  0  0  0  0  0  0  0  0
   47.7320   32.0840   38.5900 O   0  0  0  0  0  0  0  0  0  0  0  0
   43.8484   36.9646   45.1610 H   0  0  0  0  0  0  0  0  0  0  0  0
   44.6457   36.4587   42.8271 H   0  0  0  0  0  0  0  0  0  0  0  0
   45.5280   33.3110   46.5178 H   0  0  0  0  0  0  0  0  0  0  0  0
   44.0905   34.9148   41.5869 H   0  0  0  0  0  0  0  0  0  0  0  0
   45.3750   35.3905   40.4249 H   0  0  0  0  0  0  0  0  0  0  0  0
   44.7416   33.7096   40.4249 H   0  0  0  0  0  0  0  0  0  0  0  0
   46.2014   32.2592   43.0399 H   0  0  0  0  0  0  0  0  0  0  0  0
   45.3018   32.2443   41.4852 H   0  0  0  0  0  0  0  0  0  0  0  0
   47.0930   32.3803   41.4852 H   0  0  0  0  0  0  0  0  0  0  0  0
   47.2094   35.2511   40.7141 H   0  0  0  0  0  0  0  0  0  0  0  0
   47.6528   35.3507   42.5306 H   0  0  0  0  0  0  0  0  0  0  0  0
   49.2745   34.0553   43.5568 H   0  0  0  0  0  0  0  0  0  0  0  0
   50.6847   31.7511   40.2529 H   0  0  0  0  0  0  0  0  0  0  0  0
   48.7011   35.1732   38.6760 H   0  0  0  0  0  0  0  0  0  0  0  0
   47.3947   34.5184   36.4014 H   0  0  0  0  0  0  0  0  0  0  0  0
   46.7527   31.9131   36.6807 H   0  0  0  0  0  0  0  0  0  0  0  0
  1  4  1  0
  2  7  2  0
  3  2  1  0
  4  3  2  0
  4  5  1  0
  5  6  2  0
  6  7  1  0
  8  1  1  0
  9  1  1  0
 10  1  1  0
 11 10  1  0
 11 12  2  0
 13 12  1  0
 14 13  2  0
 15 14  1  0
 15 11  1  0
 16 15  1  0
 17 16  2  0
 18 19  2  0
 18 17  1  0
 19 20  1  0
 20 16  1  0
  2 21  1  0
  3 22  1  0
  6 23  1  0
  8 24  1  0
  8 25  1  0
  8 26  1  0
  9 27  1  0
  9 28  1  0
  9 29  1  0
 10 30  1  0
 10 31  1  0
 12 32  1  0
 14 33  1  0
 17 34  1  0
 18 35  1  0
 19 36  1  0
M  ISO  8  21  14  22  14  23  14  24   8  25   8  26   8  27   8  28   8
M  ISO  8  29   8  30   8  31   8  32  14  33  14  34  14  35  14  36  14
M  END
>  <minimizedAffinity>  (1) 
-4.78865576

>  <minimizedRMSD>  (1) 
0.970577478

$$$$
