
     RDKit          3D

 35 37  0  0  0  0  0  0  0  0999 V2000
   46.3190   33.9960   42.0020 C   0  0  0  0  0  0  0  0  0  0  0  0
   44.5010   36.1200   44.5840 C   0  0  0  0  0  0  0  0  0  0  0  0
   45.0360   35.7210   43.3430 C   0  0  0  0  0  0  0  0  0  0  0  0
   45.7270   34.4970   43.2530 C   0  0  0  0  0  0  0  0  0  0  0  0
   45.8360   33.7650   44.3870 N   0  0  0  0  0  0  0  0  0  0  0  0
   45.3270   34.1480   45.5640 C   0  0  0  0  0  0  0  0  0  0  0  0
   44.6660   35.3140   45.6640 N   0  0  0  0  0  0  0  0  0  0  0  0
   45.3360   34.3090   40.8860 C   0  0  0  0  0  0  0  0  0  0  0  0
   46.3920   32.4760   42.0800 C   0  0  0  0  0  0  0  0  0  0  0  0
   47.6560   34.4850   41.6510 C   0  0  0  0  0  0  0  0  0  0  0  0
   48.6820   33.5340   41.3090 C   0  0  0  0  0  0  0  0  0  0  0  0
   49.6130   33.1260   42.2620 C   0  0  0  0  0  0  0  0  0  0  0  0
   50.4450   32.2560   41.6960 N   0  0  0  0  0  0  0  0  0  0  0  0
   50.1080   32.0740   40.4220 C   0  0  0  0  0  0  0  0  0  0  0  0
   49.0310   32.8620   40.2050 N   0  0  0  0  0  0  0  0  0  0  0  0
   48.2980   33.0140   38.9680 C   0  0  0  0  0  0  0  0  0  0  0  0
   47.3450   32.0830   38.5240 C   0  0  0  0  0  0  0  0  0  0  0  0
   46.8050   32.8520   36.9350 S   0  0  0  0  0  0  0  0  0  0  0  0
   47.9920   34.3170   37.1750 C   0  0  0  0  0  0  0  0  0  0  0  0
   48.5910   34.1170   38.2630 N   0  0  0  0  0  0  0  0  0  0  0  0
   43.9570   37.0716   44.6765 H   0  0  0  0  0  0  0  0  0  0  0  0
   44.9153   36.3583   42.4545 H   0  0  0  0  0  0  0  0  0  0  0  0
   45.4497   33.5080   46.4502 H   0  0  0  0  0  0  0  0  0  0  0  0
   44.3732   34.6156   41.3207 H   0  0  0  0  0  0  0  0  0  0  0  0
   45.7342   35.1248   40.2648 H   0  0  0  0  0  0  0  0  0  0  0  0
   45.1892   33.4132   40.2648 H   0  0  0  0  0  0  0  0  0  0  0  0
   46.4070   32.1633   43.1345 H   0  0  0  0  0  0  0  0  0  0  0  0
   45.5137   32.0406   41.5809 H   0  0  0  0  0  0  0  0  0  0  0  0
   47.3080   32.1268   41.5809 H   0  0  0  0  0  0  0  0  0  0  0  0
   47.5371   35.1550   40.7867 H   0  0  0  0  0  0  0  0  0  0  0  0
   48.0214   34.9422   42.5823 H   0  0  0  0  0  0  0  0  0  0  0  0
   49.6532   33.4663   43.3073 H   0  0  0  0  0  0  0  0  0  0  0  0
   50.6045   31.4163   39.6934 H   0  0  0  0  0  0  0  0  0  0  0  0
   47.0104   31.1474   38.9960 H   0  0  0  0  0  0  0  0  0  0  0  0
   48.1284   35.1717   36.4960 H   0  0  0  0  0  0  0  0  0  0  0  0
  1  9  1  0
  1  4  1  0
  2  7  2  0
  3  2  1  0
  4  3  2  0
  4  5  1  0
  5  6  2  0
  6  7  1  0
  8  1  1  0
 10  1  1  0
 11 10  1  0
 11 12  2  0
 13 12  1  0
 14 13  2  0
 15 14  1  0
 15 11  1  0
 16 15  1  0
 17 16  2  0
 18 19  1  0
 18 17  1  0
 19 20  2  0
 20 16  1  0
  2 21  1  0
  3 22  1  0
  6 23  1  0
  8 24  1  0
  8 25  1  0
  8 26  1  0
  9 27  1  0
  9 28  1  0
  9 29  1  0
 10 30  1  0
 10 31  1  0
 12 32  1  0
 14 33  1  0
 17 34  1  0
 19 35  1  0
M  ISO  8  21  14  22  14  23  14  24   8  25   8  26   8  27   8  28   8
M  ISO  7  29   8  30   8  31   8  32  14  33  14  34  14  35  14
M  END
>  <minimizedAffinity>  (1) 
-4.72906208

>  <minimizedRMSD>  (1) 
1.06956947

$$$$
