
     RDKit          3D

 36 38  0  0  0  0  0  0  0  0999 V2000
   46.4540   34.0340   41.9590 C   0  0  0  0  0  0  0  0  0  0  0  0
   44.5880   36.2310   44.4300 C   0  0  0  0  0  0  0  0  0  0  0  0
   45.1690   35.8050   43.2290 C   0  0  0  0  0  0  0  0  0  0  0  0
   45.8230   34.5470   43.1840 C   0  0  0  0  0  0  0  0  0  0  0  0
   45.8520   33.8120   44.3200 N   0  0  0  0  0  0  0  0  0  0  0  0
   45.2890   34.2360   45.4680 C   0  0  0  0  0  0  0  0  0  0  0  0
   44.6650   35.4250   45.5290 N   0  0  0  0  0  0  0  0  0  0  0  0
   45.4260   34.1300   40.8430 C   0  0  0  0  0  0  0  0  0  0  0  0
   46.7080   32.5370   42.1440 C   0  0  0  0  0  0  0  0  0  0  0  0
   47.7160   34.6380   41.5390 C   0  0  0  0  0  0  0  0  0  0  0  0
   48.9260   33.8530   41.5810 C   0  0  0  0  0  0  0  0  0  0  0  0
   49.8810   34.0750   42.5700 C   0  0  0  0  0  0  0  0  0  0  0  0
   50.8850   33.2220   42.3720 N   0  0  0  0  0  0  0  0  0  0  0  0
   50.6490   32.4610   41.3240 C   0  0  0  0  0  0  0  0  0  0  0  0
   49.4440   32.8620   40.8530 N   0  0  0  0  0  0  0  0  0  0  0  0
   48.7490   32.3210   39.7010 C   0  0  0  0  0  0  0  0  0  0  0  0
   48.5600   33.0760   38.4610 C   0  0  0  0  0  0  0  0  0  0  0  0
   49.6970   32.1120   38.5080 C   0  0  0  0  0  0  0  0  0  0  0  0
   44.0760   37.2029   44.4870 H   0  0  0  0  0  0  0  0  0  0  0  0
   45.1188   36.4385   42.3311 H   0  0  0  0  0  0  0  0  0  0  0  0
   45.3405   33.6021   46.3655 H   0  0  0  0  0  0  0  0  0  0  0  0
   44.4201   34.2239   41.2781 H   0  0  0  0  0  0  0  0  0  0  0  0
   45.6406   35.0120   40.2217 H   0  0  0  0  0  0  0  0  0  0  0  0
   45.4735   33.2235   40.2217 H   0  0  0  0  0  0  0  0  0  0  0  0
   46.7479   32.3018   43.2178 H   0  0  0  0  0  0  0  0  0  0  0  0
   45.8939   31.9661   41.6736 H   0  0  0  0  0  0  0  0  0  0  0  0
   47.6649   32.2666   41.6736 H   0  0  0  0  0  0  0  0  0  0  0  0
   47.8808   35.5153   42.1818 H   0  0  0  0  0  0  0  0  0  0  0  0
   47.5677   34.8285   40.4658 H   0  0  0  0  0  0  0  0  0  0  0  0
   49.8175   34.8234   43.3737 H   0  0  0  0  0  0  0  0  0  0  0  0
   51.2936   31.6679   40.9172 H   0  0  0  0  0  0  0  0  0  0  0  0
   48.0301   31.7610   40.3170 H   0  0  0  0  0  0  0  0  0  0  0  0
   48.7654   34.1566   38.4473 H   0  0  0  0  0  0  0  0  0  0  0  0
   47.7096   33.2178   37.7779 H   0  0  0  0  0  0  0  0  0  0  0  0
   49.6602   31.1798   37.9251 H   0  0  0  0  0  0  0  0  0  0  0  0
   50.7834   32.1621   38.3432 H   0  0  0  0  0  0  0  0  0  0  0  0
  1  9  1  0
  1  4  1  0
  2  7  2  0
  3  2  1  0
  4  3  2  0
  4  5  1  0
  5  6  2  0
  6  7  1  0
  8  1  1  0
 10 11  1  0
 10  1  1  0
 11 12  2  0
 13 12  1  0
 14 13  2  0
 15 14  1  0
 15 11  1  0
 16 15  1  0
 17 18  1  0
 17 16  1  0
 18 16  1  0
  2 19  1  0
  3 20  1  0
  6 21  1  0
  8 22  1  0
  8 23  1  0
  8 24  1  0
  9 25  1  0
  9 26  1  0
  9 27  1  0
 10 28  1  0
 10 29  1  0
 12 30  1  0
 14 31  1  0
 16 32  1  0
 17 33  1  0
 17 34  1  0
 18 35  1  0
 18 36  1  0
M  ISO  8  19  14  20  14  21  14  22   8  23   8  24   8  25   8  26   8
M  ISO  8  27   8  28   8  29   8  30  14  31  14  32  13  33  13  34  13
M  ISO  2  35  13  36  13
M  END
>  <minimizedAffinity>  (1) 
-4.63732481

>  <minimizedRMSD>  (1) 
0.259873092

$$$$
