
     RDKit          3D

 35 38  0  0  0  0  0  0  0  0999 V2000
   44.7700   35.9030   44.2050 C   0  0  0  0  0  0  0  0  0  0  0  0
   45.5010   35.7610   43.0170 C   0  0  0  0  0  0  0  0  0  0  0  0
   46.4360   34.7300   42.9400 C   0  0  0  0  0  0  0  0  0  0  0  0
   46.6000   33.9100   44.0090 N   0  0  0  0  0  0  0  0  0  0  0  0
   45.8710   34.0780   45.1480 C   0  0  0  0  0  0  0  0  0  0  0  0
   44.9680   35.0620   45.2440 N   0  0  0  0  0  0  0  0  0  0  0  0
   46.0060   33.2460   46.2940 N   0  0  0  0  0  0  0  0  0  0  0  0
   47.0000   32.3290   46.3440 C   0  0  0  0  0  0  0  0  0  0  0  0
   47.0670   31.5520   47.4970 C   0  0  0  0  0  0  0  0  0  0  0  0
   46.1830   31.6940   48.5350 C   0  0  0  0  0  0  0  0  0  0  0  0
   46.3060   30.8710   49.6820 N   0  0  0  0  0  0  0  0  0  0  0  0
   45.2210   32.6210   48.4240 N   0  0  0  0  0  0  0  0  0  0  0  0
   45.1190   33.4010   47.3130 C   0  0  0  0  0  0  0  0  0  0  0  0
   44.2270   34.2780   47.1850 O   0  0  0  0  0  0  0  0  0  0  0  0
   48.1230   30.6000   47.5150 N   0  0  0  0  0  0  0  0  0  0  0  0
   48.3130   29.6690   46.5460 C   0  0  0  0  0  0  0  0  0  0  0  0
   49.3970   28.9540   46.8980 N   0  0  0  0  0  0  0  0  0  0  0  0
   49.8880   29.4180   48.0630 C   0  0  0  0  0  0  0  0  0  0  0  0
   50.9820   29.0260   48.8410 C   0  0  0  0  0  0  0  0  0  0  0  0
   51.7300   28.0930   48.5220 O   0  0  0  0  0  0  0  0  0  0  0  0
   51.1220   29.7700   49.9520 N   0  0  0  0  0  0  0  0  0  0  0  0
   50.3330   30.7890   50.3330 C   0  0  0  0  0  0  0  0  0  0  0  0
   50.5780   31.5070   51.5350 N   0  0  0  0  0  0  0  0  0  0  0  0
   49.2780   31.1630   49.5800 N   0  0  0  0  0  0  0  0  0  0  0  0
   49.0740   30.4640   48.4510 C   0  0  0  0  0  0  0  0  0  0  0  0
   44.0263   36.7088   44.2923 H   0  0  0  0  0  0  0  0  0  0  0  0
   45.3412   36.4439   42.1696 H   0  0  0  0  0  0  0  0  0  0  0  0
   47.0317   34.5833   42.0270 H   0  0  0  0  0  0  0  0  0  0  0  0
   47.7161   32.2044   45.5184 H   0  0  0  0  0  0  0  0  0  0  0  0
   45.6436   30.9749   50.4639 H   0  0  0  0  0  0  0  0  0  0  0  0
   47.0578   30.1689   49.7339 H   0  0  0  0  0  0  0  0  0  0  0  0
   47.6983   29.5263   45.6450 H   0  0  0  0  0  0  0  0  0  0  0  0
   51.9109   29.5362   50.5716 H   0  0  0  0  0  0  0  0  0  0  0  0
   49.9590   32.2844   51.8058 H   0  0  0  0  0  0  0  0  0  0  0  0
   51.3746   31.2499   52.1352 H   0  0  0  0  0  0  0  0  0  0  0  0
  1  6  2  0
  2  1  1  0
  3  2  2  0
  3  4  1  0
  4  5  2  0
  5  6  1  0
  5  7  1  0
  7  8  1  0
  7 13  1  0
  8  9  2  0
  9 15  1  0
  9 10  1  0
 10 11  1  0
 12 10  2  0
 13 12  1  0
 14 13  2  0
 15 25  1  0
 16 17  2  0
 16 15  1  0
 17 18  1  0
 18 25  2  0
 18 19  1  0
 19 21  1  0
 20 19  2  0
 21 22  1  0
 22 23  1  0
 24 22  2  0
 25 24  1  0
  1 26  1  0
  2 27  1  0
  3 28  1  0
  8 29  1  0
 11 30  1  0
 11 31  1  0
 16 32  1  0
 21 33  1  0
 23 34  1  0
 23 35  1  0
M  ISO  6  26  14  27  14  28  14  29  14  32  14  33   9
M  END
>  <minimizedAffinity>  (1) 
-6.90079021

>  <minimizedRMSD>  (1) 
1.34292257

$$$$
