
     RDKit          3D

 35 38  0  0  0  0  0  0  0  0999 V2000
   44.9230   35.8190   44.1640 C   0  0  0  0  0  0  0  0  0  0  0  0
   45.7010   35.6140   42.9920 C   0  0  0  0  0  0  0  0  0  0  0  0
   46.6060   34.5590   42.9510 C   0  0  0  0  0  0  0  0  0  0  0  0
   46.7030   33.7680   44.0470 N   0  0  0  0  0  0  0  0  0  0  0  0
   45.9470   33.9850   45.1610 C   0  0  0  0  0  0  0  0  0  0  0  0
   45.0580   35.0030   45.2250 N   0  0  0  0  0  0  0  0  0  0  0  0
   46.0160   33.1840   46.3360 N   0  0  0  0  0  0  0  0  0  0  0  0
   46.9640   32.2700   46.4880 C   0  0  0  0  0  0  0  0  0  0  0  0
   47.0710   31.4940   47.5830 C   0  0  0  0  0  0  0  0  0  0  0  0
   46.1350   31.6690   48.5980 C   0  0  0  0  0  0  0  0  0  0  0  0
   46.0850   30.9340   49.8430 N   0  0  0  0  0  0  0  0  0  0  0  0
   45.1770   32.6050   48.4260 N   0  0  0  0  0  0  0  0  0  0  0  0
   45.1060   33.3610   47.3120 C   0  0  0  0  0  0  0  0  0  0  0  0
   44.2200   34.2390   47.1340 O   0  0  0  0  0  0  0  0  0  0  0  0
   48.0010   30.4530   47.9660 C   0  0  0  0  0  0  0  0  0  0  0  0
   47.8010   29.2050   47.5540 N   0  0  0  0  0  0  0  0  0  0  0  0
   48.5330   28.1380   47.8000 C   0  0  0  0  0  0  0  0  0  0  0  0
   49.6530   28.2440   48.5670 N   0  0  0  0  0  0  0  0  0  0  0  0
   49.9760   29.4680   49.0560 C   0  0  0  0  0  0  0  0  0  0  0  0
   51.1000   29.5900   49.8280 C   0  0  0  0  0  0  0  0  0  0  0  0
   51.4580   30.8180   50.3420 C   0  0  0  0  0  0  0  0  0  0  0  0
   50.6200   31.8990   50.0280 C   0  0  0  0  0  0  0  0  0  0  0  0
   49.5220   31.6700   49.2480 C   0  0  0  0  0  0  0  0  0  0  0  0
   49.1230   30.4840   48.7180 C   0  0  0  0  0  0  0  0  0  0  0  0
   44.2050   36.6514   44.2036 H   0  0  0  0  0  0  0  0  0  0  0  0
   45.5883   36.2832   42.1263 H   0  0  0  0  0  0  0  0  0  0  0  0
   47.2223   34.3728   42.0591 H   0  0  0  0  0  0  0  0  0  0  0  0
   47.6990   32.1392   45.6802 H   0  0  0  0  0  0  0  0  0  0  0  0
   45.3485   31.1395   50.5331 H   0  0  0  0  0  0  0  0  0  0  0  0
   46.7859   30.2052   50.0393 H   0  0  0  0  0  0  0  0  0  0  0  0
   48.2397   27.1620   47.3861 H   0  0  0  0  0  0  0  0  0  0  0  0
   51.7192   28.7056   50.0387 H   0  0  0  0  0  0  0  0  0  0  0  0
   52.3548   30.9441   50.9664 H   0  0  0  0  0  0  0  0  0  0  0  0
   50.8425   32.9093   50.4020 H   0  0  0  0  0  0  0  0  0  0  0  0
   48.8908   32.5426   49.0241 H   0  0  0  0  0  0  0  0  0  0  0  0
  1  6  2  0
  2  1  1  0
  3  2  2  0
  3  4  1  0
  4  5  2  0
  5  6  1  0
  5  7  1  0
  7  8  1  0
  7 13  1  0
  8  9  2  0
  9 15  1  0
  9 10  1  0
 10 11  1  0
 12 10  2  0
 13 12  1  0
 14 13  2  0
 15 24  2  0
 16 17  2  0
 16 15  1  0
 17 18  1  0
 18 19  2  0
 19 20  1  0
 20 21  2  0
 22 21  1  0
 23 22  2  0
 24 19  1  0
 24 23  1  0
  1 25  1  0
  2 26  1  0
  3 27  1  0
  8 28  1  0
 11 29  1  0
 11 30  1  0
 17 31  1  0
 20 32  1  0
 21 33  1  0
 22 34  1  0
 23 35  1  0
M  ISO  8  25  14  26  14  27  14  28  14  31  14  32  14  33  14  34  14
M  ISO  1  35  14
M  END
>  <minimizedAffinity>  (1) 
-6.62121439

>  <minimizedRMSD>  (1) 
0.722820103

$$$$
