
     RDKit          3D

 32 35  0  0  0  0  0  0  0  0999 V2000
   44.6360   35.9330   44.3410 C   0  0  0  0  0  0  0  0  0  0  0  0
   45.3210   35.8250   43.1220 C   0  0  0  0  0  0  0  0  0  0  0  0
   46.2530   34.8000   42.9770 C   0  0  0  0  0  0  0  0  0  0  0  0
   46.4640   33.9520   44.0040 N   0  0  0  0  0  0  0  0  0  0  0  0
   45.7910   34.0730   45.1770 C   0  0  0  0  0  0  0  0  0  0  0  0
   44.8850   35.0580   45.3390 N   0  0  0  0  0  0  0  0  0  0  0  0
   45.9780   33.2070   46.2850 N   0  0  0  0  0  0  0  0  0  0  0  0
   46.9510   32.2600   46.2450 C   0  0  0  0  0  0  0  0  0  0  0  0
   47.0730   31.4470   47.3710 C   0  0  0  0  0  0  0  0  0  0  0  0
   46.2610   31.5860   48.4660 C   0  0  0  0  0  0  0  0  0  0  0  0
   46.4160   30.7410   49.5920 N   0  0  0  0  0  0  0  0  0  0  0  0
   45.3170   32.5440   48.4440 N   0  0  0  0  0  0  0  0  0  0  0  0
   45.1700   33.3540   47.3630 C   0  0  0  0  0  0  0  0  0  0  0  0
   44.2920   34.2610   47.3160 O   0  0  0  0  0  0  0  0  0  0  0  0
   48.0960   30.4590   47.3130 N   0  0  0  0  0  0  0  0  0  0  0  0
   48.0390   29.5360   46.3360 C   0  0  0  0  0  0  0  0  0  0  0  0
   49.1040   28.7050   46.4740 N   0  0  0  0  0  0  0  0  0  0  0  0
   49.8300   29.1070   47.5410 C   0  0  0  0  0  0  0  0  0  0  0  0
   50.9790   28.7230   48.2040 C   0  0  0  0  0  0  0  0  0  0  0  0
   51.4190   29.3970   49.2810 N   0  0  0  0  0  0  0  0  0  0  0  0
   50.7540   30.4760   49.7560 C   0  0  0  0  0  0  0  0  0  0  0  0
   49.6120   30.9080   49.1470 N   0  0  0  0  0  0  0  0  0  0  0  0
   49.1860   30.2130   48.0630 C   0  0  0  0  0  0  0  0  0  0  0  0
   43.8941   36.7324   44.4845 H   0  0  0  0  0  0  0  0  0  0  0  0
   45.1273   36.5316   42.3015 H   0  0  0  0  0  0  0  0  0  0  0  0
   46.8103   34.6837   42.0358 H   0  0  0  0  0  0  0  0  0  0  0  0
   47.6078   32.1409   45.3707 H   0  0  0  0  0  0  0  0  0  0  0  0
   45.8000   30.8544   50.4097 H   0  0  0  0  0  0  0  0  0  0  0  0
   47.1447   30.0131   49.5932 H   0  0  0  0  0  0  0  0  0  0  0  0
   47.2633   29.4664   45.5592 H   0  0  0  0  0  0  0  0  0  0  0  0
   51.5442   27.8504   47.8447 H   0  0  0  0  0  0  0  0  0  0  0  0
   51.1369   31.0083   50.6392 H   0  0  0  0  0  0  0  0  0  0  0  0
  1  6  2  0
  2  1  1  0
  3  2  2  0
  3  4  1  0
  4  5  2  0
  5  6  1  0
  5  7  1  0
  7 13  1  0
  8  7  1  0
  8  9  2  0
  9 10  1  0
 10 11  1  0
 12 10  2  0
 13 12  1  0
 14 13  2  0
 15  9  1  0
 15 23  1  0
 16 17  2  0
 16 15  1  0
 17 18  1  0
 18 23  2  0
 18 19  1  0
 19 20  2  0
 20 21  1  0
 22 21  2  0
 23 22  1  0
  1 24  1  0
  2 25  1  0
  3 26  1  0
  8 27  1  0
 11 28  1  0
 11 29  1  0
 16 30  1  0
 19 31  1  0
 21 32  1  0
M  ISO  7  24  14  25  14  26  14  27  14  30  14  31  14  32  14
M  END
>  <minimizedAffinity>  (1) 
-6.16963339

>  <minimizedRMSD>  (1) 
0.952491641

$$$$
