
     RDKit          3D

 37 39  0  0  0  0  0  0  0  0999 V2000
   44.6650   35.9450   44.3320 C   0  0  0  0  0  0  0  0  0  0  0  0
   45.3350   35.7940   43.1000 C   0  0  0  0  0  0  0  0  0  0  0  0
   46.2500   34.7310   42.9440 C   0  0  0  0  0  0  0  0  0  0  0  0
   46.4390   33.9000   43.9980 N   0  0  0  0  0  0  0  0  0  0  0  0
   45.7830   34.0640   45.1720 C   0  0  0  0  0  0  0  0  0  0  0  0
   44.9030   35.0780   45.3400 N   0  0  0  0  0  0  0  0  0  0  0  0
   45.9470   33.2220   46.2970 N   0  0  0  0  0  0  0  0  0  0  0  0
   46.9140   32.2750   46.2780 C   0  0  0  0  0  0  0  0  0  0  0  0
   47.0560   31.4580   47.3970 C   0  0  0  0  0  0  0  0  0  0  0  0
   46.2240   31.6210   48.4990 C   0  0  0  0  0  0  0  0  0  0  0  0
   46.3680   30.7940   49.6350 N   0  0  0  0  0  0  0  0  0  0  0  0
   45.2860   32.5750   48.4600 N   0  0  0  0  0  0  0  0  0  0  0  0
   45.1400   33.3760   47.3720 C   0  0  0  0  0  0  0  0  0  0  0  0
   44.2710   34.2810   47.3010 O   0  0  0  0  0  0  0  0  0  0  0  0
   48.1000   30.4610   47.3410 C   0  0  0  0  0  0  0  0  0  0  0  0
   49.0170   30.6890   48.5530 C   0  0  0  0  0  0  0  0  0  0  0  0
   49.9280   29.4960   48.7520 C   0  0  0  0  0  0  0  0  0  0  0  0
   50.2220   28.9410   47.3700 C   0  0  0  0  0  0  0  0  0  0  0  0
   48.9910   28.2430   46.8900 C   0  0  0  0  0  0  0  0  0  0  0  0
   47.7140   29.0280   47.2100 C   0  0  0  0  0  0  0  0  0  0  0  0
   43.9491   36.7684   44.4718 H   0  0  0  0  0  0  0  0  0  0  0  0
   45.1471   36.4945   42.2730 H   0  0  0  0  0  0  0  0  0  0  0  0
   46.7918   34.5818   41.9984 H   0  0  0  0  0  0  0  0  0  0  0  0
   47.5695   32.1540   45.4030 H   0  0  0  0  0  0  0  0  0  0  0  0
   45.7473   30.9217   50.4470 H   0  0  0  0  0  0  0  0  0  0  0  0
   47.0937   30.0633   49.6514 H   0  0  0  0  0  0  0  0  0  0  0  0
   48.6026   30.6220   46.3759 H   0  0  0  0  0  0  0  0  0  0  0  0
   49.6277   31.5879   48.3825 H   0  0  0  0  0  0  0  0  0  0  0  0
   48.3970   30.8208   49.4521 H   0  0  0  0  0  0  0  0  0  0  0  0
   50.8618   29.8088   49.2421 H   0  0  0  0  0  0  0  0  0  0  0  0
   49.4545   28.7371   49.3923 H   0  0  0  0  0  0  0  0  0  0  0  0
   50.4794   29.7612   46.6837 H   0  0  0  0  0  0  0  0  0  0  0  0
   51.0712   28.2428   47.4076 H   0  0  0  0  0  0  0  0  0  0  0  0
   48.9313   27.2576   47.3753 H   0  0  0  0  0  0  0  0  0  0  0  0
   49.0627   28.1490   45.7964 H   0  0  0  0  0  0  0  0  0  0  0  0
   46.9834   28.9072   46.3966 H   0  0  0  0  0  0  0  0  0  0  0  0
   47.2521   28.6612   48.1385 H   0  0  0  0  0  0  0  0  0  0  0  0
  1  6  2  0
  2  1  1  0
  3  2  2  0
  3  4  1  0
  4  5  2  0
  5  6  1  0
  5  7  1  0
  7 13  1  0
  8  7  1  0
  8  9  2  0
  9 10  1  0
 10 11  1  0
 12 10  2  0
 13 12  1  0
 14 13  2  0
 15  9  1  0
 15 16  1  0
 16 17  1  0
 18 17  1  0
 19 20  1  0
 19 18  1  0
 20 15  1  0
  1 21  1  0
  2 22  1  0
  3 23  1  0
  8 24  1  0
 11 25  1  0
 11 26  1  0
 15 27  1  0
 16 28  1  0
 16 29  1  0
 17 30  1  0
 17 31  1  0
 18 32  1  0
 18 33  1  0
 19 34  1  0
 19 35  1  0
 20 36  1  0
 20 37  1  0
M  ISO  8  21  14  22  14  23  14  24  14  27  13  28  13  29  13  30  13
M  ISO  7  31  13  32  13  33  13  34  13  35  13  36  13  37  13
M  END
>  <minimizedAffinity>  (1) 
-5.93275595

>  <minimizedRMSD>  (1) 
0.379262418

$$$$
