
     RDKit          3D

 34 36  0  0  0  0  0  0  0  0999 V2000
   44.8070   35.8980   44.2330 C   0  0  0  0  0  0  0  0  0  0  0  0
   45.5010   35.6810   43.0140 C   0  0  0  0  0  0  0  0  0  0  0  0
   46.3850   34.5830   42.9140 C   0  0  0  0  0  0  0  0  0  0  0  0
   46.5250   33.7880   43.9940 N   0  0  0  0  0  0  0  0  0  0  0  0
   45.8430   34.0230   45.1510 C   0  0  0  0  0  0  0  0  0  0  0  0
   44.9980   35.0600   45.2700 N   0  0  0  0  0  0  0  0  0  0  0  0
   45.9780   33.1900   46.3050 N   0  0  0  0  0  0  0  0  0  0  0  0
   46.9430   32.2460   46.3390 C   0  0  0  0  0  0  0  0  0  0  0  0
   46.9960   31.4930   47.4890 C   0  0  0  0  0  0  0  0  0  0  0  0
   46.1440   31.6600   48.5540 C   0  0  0  0  0  0  0  0  0  0  0  0
   46.2640   30.8430   49.7050 N   0  0  0  0  0  0  0  0  0  0  0  0
   45.2060   32.6220   48.4510 N   0  0  0  0  0  0  0  0  0  0  0  0
   45.1120   33.3900   47.3370 C   0  0  0  0  0  0  0  0  0  0  0  0
   44.2440   34.2960   47.2160 O   0  0  0  0  0  0  0  0  0  0  0  0
   47.9770   30.4920   47.5930 N   0  0  0  0  0  0  0  0  0  0  0  0
   47.7880   29.3760   46.8600 C   0  0  0  0  0  0  0  0  0  0  0  0
   48.7210   28.3600   46.9260 C   0  0  0  0  0  0  0  0  0  0  0  0
   48.6580   27.0640   46.1780 C   0  0  0  0  0  0  0  0  0  0  0  0
   49.8330   28.4830   47.7320 C   0  0  0  0  0  0  0  0  0  0  0  0
   50.7740   27.6880   47.9250 O   0  0  0  0  0  0  0  0  0  0  0  0
   49.9630   29.6260   48.4420 N   0  0  0  0  0  0  0  0  0  0  0  0
   49.0630   30.6360   48.3940 C   0  0  0  0  0  0  0  0  0  0  0  0
   49.1950   31.6970   49.0600 O   0  0  0  0  0  0  0  0  0  0  0  0
   44.1154   36.7478   44.3305 H   0  0  0  0  0  0  0  0  0  0  0  0
   45.3529   36.3577   42.1595 H   0  0  0  0  0  0  0  0  0  0  0  0
   46.9405   34.3835   41.9858 H   0  0  0  0  0  0  0  0  0  0  0  0
   47.6403   32.0896   45.5028 H   0  0  0  0  0  0  0  0  0  0  0  0
   45.6214   30.9745   50.4992 H   0  0  0  0  0  0  0  0  0  0  0  0
   46.9938   30.1175   49.7477 H   0  0  0  0  0  0  0  0  0  0  0  0
   46.9011   29.2761   46.2171 H   0  0  0  0  0  0  0  0  0  0  0  0
   48.6174   26.2294   46.8934 H   0  0  0  0  0  0  0  0  0  0  0  0
   47.7581   27.0490   45.5456 H   0  0  0  0  0  0  0  0  0  0  0  0
   49.5522   26.9618   45.5456 H   0  0  0  0  0  0  0  0  0  0  0  0
   50.7877   29.7337   49.0496 H   0  0  0  0  0  0  0  0  0  0  0  0
  1  6  2  0
  2  1  1  0
  3  2  2  0
  3  4  1  0
  4  5  2  0
  5  6  1  0
  5  7  1  0
  7  8  1  0
  7 13  1  0
  8  9  2  0
  9 15  1  0
  9 10  1  0
 10 11  1  0
 12 10  2  0
 13 12  1  0
 14 13  2  0
 15 22  1  0
 16 17  2  0
 16 15  1  0
 17 19  1  0
 18 17  1  0
 19 20  2  0
 19 21  1  0
 22 21  1  0
 22 23  2  0
  1 24  1  0
  2 25  1  0
  3 26  1  0
  8 27  1  0
 11 28  1  0
 11 29  1  0
 16 30  1  0
 18 31  1  0
 18 32  1  0
 18 33  1  0
 21 34  1  0
M  ISO  8  24  14  25  14  26  14  27  14  30  14  31   8  32   8  33   8
M  ISO  1  34   9
M  END
>  <minimizedAffinity>  (1) 
-5.886199

>  <minimizedRMSD>  (1) 
1.15825224

$$$$
