
     RDKit          3D

 34 36  0  0  0  0  0  0  0  0999 V2000
   44.6160   35.9340   44.3940 C   0  0  0  0  0  0  0  0  0  0  0  0
   45.2290   35.8190   43.1400 C   0  0  0  0  0  0  0  0  0  0  0  0
   46.1370   34.7760   42.9390 C   0  0  0  0  0  0  0  0  0  0  0  0
   46.3830   33.9220   43.9620 N   0  0  0  0  0  0  0  0  0  0  0  0
   45.7730   34.0610   45.1640 C   0  0  0  0  0  0  0  0  0  0  0  0
   44.9020   35.0510   45.3770 N   0  0  0  0  0  0  0  0  0  0  0  0
   46.0170   33.1760   46.2500 N   0  0  0  0  0  0  0  0  0  0  0  0
   46.9810   32.2510   46.1970 C   0  0  0  0  0  0  0  0  0  0  0  0
   47.1690   31.4230   47.2840 C   0  0  0  0  0  0  0  0  0  0  0  0
   46.3680   31.5500   48.4150 C   0  0  0  0  0  0  0  0  0  0  0  0
   46.5450   30.7080   49.5430 N   0  0  0  0  0  0  0  0  0  0  0  0
   45.4080   32.4910   48.4350 N   0  0  0  0  0  0  0  0  0  0  0  0
   45.2260   33.3070   47.3570 C   0  0  0  0  0  0  0  0  0  0  0  0
   44.3310   34.2010   47.3480 O   0  0  0  0  0  0  0  0  0  0  0  0
   48.1870   30.3820   47.3360 C   0  0  0  0  0  0  0  0  0  0  0  0
   49.0710   30.4390   48.5790 C   0  0  0  0  0  0  0  0  0  0  0  0
   49.9220   29.2030   48.3540 C   0  0  0  0  0  0  0  0  0  0  0  0
   48.8690   28.1760   47.9780 C   0  0  0  0  0  0  0  0  0  0  0  0
   47.7000   28.9750   47.3890 C   0  0  0  0  0  0  0  0  0  0  0  0
   43.8984   36.7467   44.5800 H   0  0  0  0  0  0  0  0  0  0  0  0
   45.0014   36.5317   42.3336 H   0  0  0  0  0  0  0  0  0  0  0  0
   46.6419   34.6507   41.9698 H   0  0  0  0  0  0  0  0  0  0  0  0
   47.6131   32.1521   45.3022 H   0  0  0  0  0  0  0  0  0  0  0  0
   45.9403   30.8201   50.3693 H   0  0  0  0  0  0  0  0  0  0  0  0
   47.2782   29.9846   49.5357 H   0  0  0  0  0  0  0  0  0  0  0  0
   48.7048   30.6053   46.3916 H   0  0  0  0  0  0  0  0  0  0  0  0
   49.6800   31.3547   48.6052 H   0  0  0  0  0  0  0  0  0  0  0  0
   48.5262   30.4588   49.5344 H   0  0  0  0  0  0  0  0  0  0  0  0
   50.6443   29.3553   47.5384 H   0  0  0  0  0  0  0  0  0  0  0  0
   50.5377   28.9182   49.2199 H   0  0  0  0  0  0  0  0  0  0  0  0
   49.2680   27.4736   47.2314 H   0  0  0  0  0  0  0  0  0  0  0  0
   48.5553   27.5798   48.8476 H   0  0  0  0  0  0  0  0  0  0  0  0
   46.8129   28.8963   48.0347 H   0  0  0  0  0  0  0  0  0  0  0  0
   47.4006   28.6023   46.3983 H   0  0  0  0  0  0  0  0  0  0  0  0
  1  6  2  0
  2  1  1  0
  3  2  2  0
  3  4  1  0
  4  5  2  0
  5  6  1  0
  5  7  1  0
  7 13  1  0
  8  7  1  0
  8  9  2  0
  9 15  1  0
  9 10  1  0
 10 12  2  0
 10 11  1  0
 13 12  1  0
 14 13  2  0
 15 19  1  0
 15 16  1  0
 17 16  1  0
 18 17  1  0
 19 18  1  0
  1 20  1  0
  2 21  1  0
  3 22  1  0
  8 23  1  0
 11 24  1  0
 11 25  1  0
 15 26  1  0
 16 27  1  0
 16 28  1  0
 17 29  1  0
 17 30  1  0
 18 31  1  0
 18 32  1  0
 19 33  1  0
 19 34  1  0
M  ISO  8  20  14  21  14  22  14  23  14  26  13  27  13  28  13  29  13
M  ISO  5  30  13  31  13  32  13  33  13  34  13
M  END
>  <minimizedAffinity>  (1) 
-5.88216925

>  <minimizedRMSD>  (1) 
0.54020834

$$$$
