
     RDKit          3D

 31 33  0  0  0  0  0  0  0  0999 V2000
   44.6570   35.9390   44.3870 C   0  0  0  0  0  0  0  0  0  0  0  0
   45.3110   35.8330   43.1470 C   0  0  0  0  0  0  0  0  0  0  0  0
   46.2260   34.7890   42.9710 C   0  0  0  0  0  0  0  0  0  0  0  0
   46.4370   33.9330   44.0000 N   0  0  0  0  0  0  0  0  0  0  0  0
   45.7940   34.0620   45.1760 C   0  0  0  0  0  0  0  0  0  0  0  0
   44.9130   35.0530   45.3720 N   0  0  0  0  0  0  0  0  0  0  0  0
   45.9860   33.1860   46.2840 N   0  0  0  0  0  0  0  0  0  0  0  0
   46.9490   32.2500   46.2400 C   0  0  0  0  0  0  0  0  0  0  0  0
   47.0850   31.4310   47.3440 C   0  0  0  0  0  0  0  0  0  0  0  0
   46.2830   31.5480   48.4550 C   0  0  0  0  0  0  0  0  0  0  0  0
   46.4280   30.7040   49.5860 N   0  0  0  0  0  0  0  0  0  0  0  0
   45.3270   32.5130   48.4420 N   0  0  0  0  0  0  0  0  0  0  0  0
   45.1840   33.3210   47.3660 C   0  0  0  0  0  0  0  0  0  0  0  0
   44.2940   34.2320   47.3320 O   0  0  0  0  0  0  0  0  0  0  0  0
   48.1310   30.3880   47.3370 C   0  0  0  0  0  0  0  0  0  0  0  0
   48.0550   29.3100   46.4780 C   0  0  0  0  0  0  0  0  0  0  0  0
   49.0730   28.3510   46.5130 C   0  0  0  0  0  0  0  0  0  0  0  0
   50.1060   28.5360   47.4130 C   0  0  0  0  0  0  0  0  0  0  0  0
   50.1870   29.6120   48.2730 C   0  0  0  0  0  0  0  0  0  0  0  0
   49.1690   30.5620   48.2310 C   0  0  0  0  0  0  0  0  0  0  0  0
   43.9322   36.7491   44.5552 H   0  0  0  0  0  0  0  0  0  0  0  0
   45.1091   36.5505   42.3380 H   0  0  0  0  0  0  0  0  0  0  0  0
   46.7621   34.6659   42.0184 H   0  0  0  0  0  0  0  0  0  0  0  0
   47.6018   32.1405   45.3615 H   0  0  0  0  0  0  0  0  0  0  0  0
   45.8079   30.8224   50.3998 H   0  0  0  0  0  0  0  0  0  0  0  0
   47.1534   29.9728   49.5933 H   0  0  0  0  0  0  0  0  0  0  0  0
   47.2110   29.2071   45.7801 H   0  0  0  0  0  0  0  0  0  0  0  0
   49.0522   27.4771   45.8453 H   0  0  0  0  0  0  0  0  0  0  0  0
   50.9078   27.7837   47.4453 H   0  0  0  0  0  0  0  0  0  0  0  0
   51.0306   29.7166   48.9712 H   0  0  0  0  0  0  0  0  0  0  0  0
   49.1916   31.4359   48.8986 H   0  0  0  0  0  0  0  0  0  0  0  0
  1  6  2  0
  2  1  1  0
  3  2  2  0
  3  4  1  0
  4  5  2  0
  5  6  1  0
  5  7  1  0
  7 13  1  0
  8  7  1  0
  8  9  2  0
  9 10  1  0
 10 11  1  0
 12 10  2  0
 13 12  1  0
 14 13  2  0
 15  9  1  0
 15 20  2  0
 16 17  2  0
 16 15  1  0
 17 18  1  0
 18 19  2  0
 20 19  1  0
  1 21  1  0
  2 22  1  0
  3 23  1  0
  8 24  1  0
 11 25  1  0
 11 26  1  0
 16 27  1  0
 17 28  1  0
 18 29  1  0
 19 30  1  0
 20 31  1  0
M  ISO  8  21  14  22  14  23  14  24  14  27  14  28  14  29  14  30  14
M  ISO  1  31  14
M  END
>  <minimizedAffinity>  (1) 
-5.77118731

>  <minimizedRMSD>  (1) 
0.30819577

$$$$
