
     RDKit          3D

 29 31  0  0  0  0  0  0  0  0999 V2000
   44.6330   35.9370   44.3900 C   0  0  0  0  0  0  0  0  0  0  0  0
   45.2790   35.8180   43.1440 C   0  0  0  0  0  0  0  0  0  0  0  0
   46.2070   34.7700   42.9460 C   0  0  0  0  0  0  0  0  0  0  0  0
   46.4340   33.9220   43.9690 N   0  0  0  0  0  0  0  0  0  0  0  0
   45.7950   34.0600   45.1630 C   0  0  0  0  0  0  0  0  0  0  0  0
   44.9050   35.0530   45.3790 N   0  0  0  0  0  0  0  0  0  0  0  0
   46.0050   33.1890   46.2680 N   0  0  0  0  0  0  0  0  0  0  0  0
   46.9750   32.2580   46.2220 C   0  0  0  0  0  0  0  0  0  0  0  0
   47.1470   31.4330   47.3130 C   0  0  0  0  0  0  0  0  0  0  0  0
   46.3510   31.5460   48.4280 C   0  0  0  0  0  0  0  0  0  0  0  0
   46.4840   30.7270   49.5740 N   0  0  0  0  0  0  0  0  0  0  0  0
   45.3980   32.4900   48.4240 N   0  0  0  0  0  0  0  0  0  0  0  0
   45.2070   33.3180   47.3590 C   0  0  0  0  0  0  0  0  0  0  0  0
   44.3140   34.2120   47.3370 O   0  0  0  0  0  0  0  0  0  0  0  0
   48.1760   30.4010   47.3410 C   0  0  0  0  0  0  0  0  0  0  0  0
   48.3020   29.3770   46.4270 C   0  0  0  0  0  0  0  0  0  0  0  0
   49.2950   28.4240   46.5000 C   0  0  0  0  0  0  0  0  0  0  0  0
   50.1730   28.4990   47.5020 N   0  0  0  0  0  0  0  0  0  0  0  0
   50.0710   29.4870   48.4060 C   0  0  0  0  0  0  0  0  0  0  0  0
   49.0950   30.4110   48.3220 N   0  0  0  0  0  0  0  0  0  0  0  0
   43.9084   36.7471   44.5594 H   0  0  0  0  0  0  0  0  0  0  0  0
   45.0641   36.5317   42.3350 H   0  0  0  0  0  0  0  0  0  0  0  0
   46.7287   34.6500   41.9850 H   0  0  0  0  0  0  0  0  0  0  0  0
   47.6163   32.1573   45.3340 H   0  0  0  0  0  0  0  0  0  0  0  0
   45.8555   30.8615   50.3789 H   0  0  0  0  0  0  0  0  0  0  0  0
   47.2093   29.9962   49.6034 H   0  0  0  0  0  0  0  0  0  0  0  0
   47.5771   29.3177   45.6018 H   0  0  0  0  0  0  0  0  0  0  0  0
   49.3621   27.6214   45.7508 H   0  0  0  0  0  0  0  0  0  0  0  0
   50.7978   29.5424   49.2298 H   0  0  0  0  0  0  0  0  0  0  0  0
  1  6  2  0
  2  1  1  0
  3  2  2  0
  3  4  1  0
  4  5  2  0
  5  6  1  0
  5  7  1  0
  7 13  1  0
  8  7  1  0
  8  9  2  0
  9 15  1  0
  9 10  1  0
 10 11  1  0
 12 10  2  0
 13 12  1  0
 14 13  2  0
 15 20  2  0
 16 17  2  0
 16 15  1  0
 17 18  1  0
 18 19  2  0
 20 19  1  0
  1 21  1  0
  2 22  1  0
  3 23  1  0
  8 24  1  0
 11 25  1  0
 11 26  1  0
 16 27  1  0
 17 28  1  0
 19 29  1  0
M  ISO  7  21  14  22  14  23  14  24  14  27  14  28  14  29  14
M  END
>  <minimizedAffinity>  (1) 
-5.7706461

>  <minimizedRMSD>  (1) 
0.32990545

$$$$
