
     RDKit          3D

 36 38  0  0  0  0  0  0  0  0999 V2000
   44.6560   35.9480   44.3610 C   0  0  0  0  0  0  0  0  0  0  0  0
   45.3310   35.8230   43.1260 C   0  0  0  0  0  0  0  0  0  0  0  0
   46.2460   34.7860   42.9600 C   0  0  0  0  0  0  0  0  0  0  0  0
   46.4480   33.9420   43.9910 N   0  0  0  0  0  0  0  0  0  0  0  0
   45.7930   34.0720   45.1730 C   0  0  0  0  0  0  0  0  0  0  0  0
   44.9060   35.0620   45.3600 N   0  0  0  0  0  0  0  0  0  0  0  0
   45.9790   33.2000   46.2840 N   0  0  0  0  0  0  0  0  0  0  0  0
   46.9510   32.2600   46.2410 C   0  0  0  0  0  0  0  0  0  0  0  0
   47.0730   31.4430   47.3660 C   0  0  0  0  0  0  0  0  0  0  0  0
   46.2600   31.5770   48.4610 C   0  0  0  0  0  0  0  0  0  0  0  0
   46.4160   30.7220   49.5920 N   0  0  0  0  0  0  0  0  0  0  0  0
   45.3200   32.5300   48.4320 N   0  0  0  0  0  0  0  0  0  0  0  0
   45.1630   33.3470   47.3620 C   0  0  0  0  0  0  0  0  0  0  0  0
   44.2830   34.2450   47.3240 O   0  0  0  0  0  0  0  0  0  0  0  0
   48.1020   30.4610   47.3000 N   0  0  0  0  0  0  0  0  0  0  0  0
   48.1450   29.4230   46.3090 C   0  0  0  0  0  0  0  0  0  0  0  0
   49.5490   29.0070   45.9520 C   0  0  0  0  0  0  0  0  0  0  0  0
   50.3990   28.6780   47.1180 C   0  0  0  0  0  0  0  0  0  0  0  0
   49.9750   29.2930   48.4130 C   0  0  0  0  0  0  0  0  0  0  0  0
   49.1460   30.5250   48.2860 C   0  0  0  0  0  0  0  0  0  0  0  0
   43.9302   36.7604   44.5131 H   0  0  0  0  0  0  0  0  0  0  0  0
   45.1370   36.5332   42.3087 H   0  0  0  0  0  0  0  0  0  0  0  0
   46.7895   34.6593   42.0121 H   0  0  0  0  0  0  0  0  0  0  0  0
   47.6092   32.1458   45.3671 H   0  0  0  0  0  0  0  0  0  0  0  0
   45.7992   30.8318   50.4096 H   0  0  0  0  0  0  0  0  0  0  0  0
   47.1454   29.9948   49.5911 H   0  0  0  0  0  0  0  0  0  0  0  0
   47.6074   28.5453   46.6972 H   0  0  0  0  0  0  0  0  0  0  0  0
   47.6775   29.8204   45.3960 H   0  0  0  0  0  0  0  0  0  0  0  0
   49.4918   28.1191   45.3052 H   0  0  0  0  0  0  0  0  0  0  0  0
   50.0167   29.8684   45.4527 H   0  0  0  0  0  0  0  0  0  0  0  0
   50.3950   27.5852   47.2436 H   0  0  0  0  0  0  0  0  0  0  0  0
   51.3931   29.0931   46.8958 H   0  0  0  0  0  0  0  0  0  0  0  0
   49.3914   28.5455   48.9704 H   0  0  0  0  0  0  0  0  0  0  0  0
   50.8998   29.5973   48.9251 H   0  0  0  0  0  0  0  0  0  0  0  0
   49.8133   31.3585   48.0215 H   0  0  0  0  0  0  0  0  0  0  0  0
   48.6428   30.6557   49.2554 H   0  0  0  0  0  0  0  0  0  0  0  0
  1  6  2  0
  2  1  1  0
  3  2  2  0
  3  4  1  0
  4  5  2  0
  5  6  1  0
  5  7  1  0
  7 13  1  0
  8  7  1  0
  8  9  2  0
  9 10  1  0
 10 11  1  0
 12 10  2  0
 13 12  1  0
 14 13  2  0
 15  9  1  0
 15 20  1  0
 16 15  1  0
 17 16  1  0
 17 18  1  0
 18 19  1  0
 20 19  1  0
  1 21  1  0
  2 22  1  0
  3 23  1  0
  8 24  1  0
 11 25  1  0
 11 26  1  0
 16 27  1  0
 16 28  1  0
 17 29  1  0
 17 30  1  0
 18 31  1  0
 18 32  1  0
 19 33  1  0
 19 34  1  0
 20 35  1  0
 20 36  1  0
M  ISO  8  21  14  22  14  23  14  24  14  27  13  28  13  29  13  30  13
M  ISO  6  31  13  32  13  33  13  34  13  35  13  36  13
M  END
>  <minimizedAffinity>  (1) 
-5.73367643

>  <minimizedRMSD>  (1) 
0.308511049

$$$$
