
     RDKit          3D

 24 26  0  0  0  0  0  0  0  0999 V2000
   44.7120   35.2150   45.6280 C   0  0  0  0  0  0  0  0  0  0  0  0
   44.4600   35.9570   44.4740 C   0  0  0  0  0  0  0  0  0  0  0  0
   45.0380   35.4890   43.2900 C   0  0  0  0  0  0  0  0  0  0  0  0
   45.7980   34.3730   43.2850 N   0  0  0  0  0  0  0  0  0  0  0  0
   46.0160   33.6790   44.4430 C   0  0  0  0  0  0  0  0  0  0  0  0
   45.4750   34.1050   45.5860 N   0  0  0  0  0  0  0  0  0  0  0  0
   46.8130   32.4970   44.4750 N   0  0  0  0  0  0  0  0  0  0  0  0
   47.6600   32.3080   43.4430 C   0  0  0  0  0  0  0  0  0  0  0  0
   48.3160   31.1160   43.6870 C   0  0  0  0  0  0  0  0  0  0  0  0
   47.8610   30.6180   44.8390 N   0  0  0  0  0  0  0  0  0  0  0  0
   46.9390   31.4590   45.3290 C   0  0  0  0  0  0  0  0  0  0  0  0
   46.1490   31.4180   46.5070 N   0  0  0  0  0  0  0  0  0  0  0  0
   45.7730   30.2620   47.1020 C   0  0  0  0  0  0  0  0  0  0  0  0
   45.0150   30.5940   48.2210 C   0  0  0  0  0  0  0  0  0  0  0  0
   44.9400   31.9420   48.2920 N   0  0  0  0  0  0  0  0  0  0  0  0
   45.6310   32.4200   47.2460 C   0  0  0  0  0  0  0  0  0  0  0  0
   44.2816   35.5407   46.5864 H   0  0  0  0  0  0  0  0  0  0  0  0
   43.8382   36.8642   44.4944 H   0  0  0  0  0  0  0  0  0  0  0  0
   44.8715   36.0369   42.3508 H   0  0  0  0  0  0  0  0  0  0  0  0
   47.8012   32.9718   42.5773 H   0  0  0  0  0  0  0  0  0  0  0  0
   49.0808   30.6571   43.0432 H   0  0  0  0  0  0  0  0  0  0  0  0
   46.0212   29.2454   46.7630 H   0  0  0  0  0  0  0  0  0  0  0  0
   44.5569   29.8836   48.9249 H   0  0  0  0  0  0  0  0  0  0  0  0
   45.7583   33.4891   47.0208 H   0  0  0  0  0  0  0  0  0  0  0  0
  2  1  2  0
  3  2  1  0
  4  3  2  0
  4  5  1  0
  5  7  1  0
  5  6  2  0
  6  1  1  0
  7 11  1  0
  8  9  2  0
  8  7  1  0
  9 10  1  0
 10 11  2  0
 11 12  1  0
 12 13  1  0
 12 16  1  0
 13 14  2  0
 14 15  1  0
 16 15  2  0
  1 17  1  0
  2 18  1  0
  3 19  1  0
  8 20  1  0
  9 21  1  0
 13 22  1  0
 14 23  1  0
 16 24  1  0
M  ISO  8  17  14  18  14  19  14  20  14  21  14  22  14  23  14  24  14
M  END
>  <minimizedAffinity>  (1) 
-4.78615046

>  <minimizedRMSD>  (1) 
3.10012984

$$$$
