
     RDKit          3D

 43 46  0  0  1  0  0  0  0  0999 V2000
   47.8620   34.9290   41.4540 C   0  0  2  0  0  0  0  0  0  0  0  0
   49.0650   35.6740   41.7020 C   0  0  0  0  0  0  0  0  0  0  0  0
   50.0760   34.7340   42.3780 C   0  0  0  0  0  0  0  0  0  0  0  0
   49.4460   33.3570   42.4350 C   0  0  0  0  0  0  0  0  0  0  0  0
   47.9970   33.6820   42.3730 C   0  0  1  0  0  0  0  0  0  0  0  0
   47.6180   34.3680   40.1000 C   0  0  0  0  0  0  0  0  0  0  0  0
   48.4620   34.7430   39.0590 C   0  0  0  0  0  0  0  0  0  0  0  0
   48.2590   34.2290   37.7870 C   0  0  0  0  0  0  0  0  0  0  0  0
   47.2070   33.3620   37.6390 N   0  0  0  0  0  0  0  0  0  0  0  0
   46.4080   33.0210   38.6700 C   0  0  0  0  0  0  0  0  0  0  0  0
   46.6010   33.5150   39.9020 N   0  0  0  0  0  0  0  0  0  0  0  0
   47.4870   34.0070   43.7410 C   0  0  0  0  0  0  0  0  0  0  0  0
   46.0940   33.4800   43.8980 C   0  0  0  0  0  0  0  0  0  0  0  0
   45.8000   33.2910   45.3450 N   0  0  0  0  0  0  0  0  0  0  0  0
   45.0400   34.1770   46.0230 C   0  0  0  0  0  0  0  0  0  0  0  0
   44.9430   33.7510   47.3160 N   0  0  0  0  0  0  0  0  0  0  0  0
   45.6400   32.6090   47.4370 C   0  0  0  0  0  0  0  0  0  0  0  0
   45.9440   31.6920   48.4240 C   0  0  0  0  0  0  0  0  0  0  0  0
   45.4800   31.9030   49.5770 O   0  0  0  0  0  0  0  0  0  0  0  0
   46.7060   30.6060   48.1920 N   0  0  0  0  0  0  0  0  0  0  0  0
   47.2100   30.3690   46.9590 C   0  0  0  0  0  0  0  0  0  0  0  0
   48.0260   29.2600   46.5920 N   0  0  0  0  0  0  0  0  0  0  0  0
   46.9390   31.2390   45.9610 N   0  0  0  0  0  0  0  0  0  0  0  0
   46.1750   32.3250   46.1990 C   0  0  0  0  0  0  0  0  0  0  0  0
   47.0407   35.6432   41.6135 H   0  0  0  0  0  0  0  0  0  0  0  0
   49.4773   36.0442   40.7517 H   0  0  0  0  0  0  0  0  0  0  0  0
   48.8529   36.5367   42.3507 H   0  0  0  0  0  0  0  0  0  0  0  0
   51.0062   34.6980   41.7919 H   0  0  0  0  0  0  0  0  0  0  0  0
   50.3224   35.0907   43.3890 H   0  0  0  0  0  0  0  0  0  0  0  0
   49.7549   32.7396   41.5786 H   0  0  0  0  0  0  0  0  0  0  0  0
   49.7336   32.7722   43.3212 H   0  0  0  0  0  0  0  0  0  0  0  0
   47.4162   32.8321   41.9852 H   0  0  0  0  0  0  0  0  0  0  0  0
   49.2880   35.4453   39.2446 H   0  0  0  0  0  0  0  0  0  0  0  0
   48.9075   34.5023   36.9416 H   0  0  0  0  0  0  0  0  0  0  0  0
   45.5777   32.3207   38.4966 H   0  0  0  0  0  0  0  0  0  0  0  0
   48.1405   33.5435   44.4947 H   0  0  0  0  0  0  0  0  0  0  0  0
   47.4815   35.0984   43.8783 H   0  0  0  0  0  0  0  0  0  0  0  0
   45.3791   34.1972   43.4684 H   0  0  0  0  0  0  0  0  0  0  0  0
   46.0031   32.5168   43.3745 H   0  0  0  0  0  0  0  0  0  0  0  0
   44.5790   35.0845   45.6059 H   0  0  0  0  0  0  0  0  0  0  0  0
   46.9069   29.9499   48.9602 H   0  0  0  0  0  0  0  0  0  0  0  0
   48.3625   29.1666   45.6230 H   0  0  0  0  0  0  0  0  0  0  0  0
   48.2793   28.5518   47.2957 H   0  0  0  0  0  0  0  0  0  0  0  0
  1  2  1  0
  1  5  1  0
  2  3  1  0
  3  4  1  0
  5  4  1  0
  5 12  1  0
  6  1  1  0
  7  6  2  0
  8  7  1  0
  9  8  2  0
  9 10  1  0
 10 11  2  0
 11  6  1  0
 12 13  1  0
 13 14  1  0
 14 15  1  0
 14 24  1  0
 15 16  2  0
 16 17  1  0
 17 18  1  0
 18 19  2  0
 20 18  1  0
 21 20  1  0
 22 21  1  0
 23 24  1  0
 23 21  2  0
 24 17  2  0
  1 25  1  1
  2 26  1  0
  2 27  1  0
  3 28  1  0
  3 29  1  0
  4 30  1  0
  4 31  1  0
  5 32  1  6
  7 33  1  0
  8 34  1  0
 10 35  1  0
 12 36  1  0
 12 37  1  0
 13 38  1  0
 13 39  1  0
 15 40  1  0
 20 41  1  0
 22 42  1  0
 22 43  1  0
M  ISO  8  25  13  26  13  27  13  28  13  29  13  30  13  31  13  32  13
M  ISO  8  33  14  34  14  35  14  36   8  37   8  38   8  39   8  40  14
M  ISO  1  41   9
M  END
>  <minimizedAffinity>  (1) 
-6.06757021

>  <minimizedRMSD>  (1) 
1.84098125

$$$$
