
     RDKit          3D

 28 30  0  0  0  0  0  0  0  0999 V2000
   44.6260   35.9170   44.3880 C   0  0  0  0  0  0  0  0  0  0  0  0
   45.2610   35.7970   43.1320 C   0  0  0  0  0  0  0  0  0  0  0  0
   46.1690   34.7600   42.9290 C   0  0  0  0  0  0  0  0  0  0  0  0
   46.3900   33.9220   43.9620 N   0  0  0  0  0  0  0  0  0  0  0  0
   45.7760   34.0470   45.1590 C   0  0  0  0  0  0  0  0  0  0  0  0
   44.8910   35.0470   45.3760 N   0  0  0  0  0  0  0  0  0  0  0  0
   45.9940   33.1760   46.2590 N   0  0  0  0  0  0  0  0  0  0  0  0
   46.9450   32.2390   46.2030 C   0  0  0  0  0  0  0  0  0  0  0  0
   47.1240   31.4150   47.2940 C   0  0  0  0  0  0  0  0  0  0  0  0
   46.3490   31.5410   48.4160 C   0  0  0  0  0  0  0  0  0  0  0  0
   46.5070   30.7080   49.5560 N   0  0  0  0  0  0  0  0  0  0  0  0
   45.4000   32.4970   48.4380 N   0  0  0  0  0  0  0  0  0  0  0  0
   45.2130   33.3220   47.3610 C   0  0  0  0  0  0  0  0  0  0  0  0
   44.3280   34.2280   47.3540 O   0  0  0  0  0  0  0  0  0  0  0  0
   48.1790   30.4010   47.1860 C   0  0  0  0  0  0  0  0  0  0  0  0
   48.5130   29.5340   46.1740 C   0  0  0  0  0  0  0  0  0  0  0  0
   49.5920   28.7520   46.5190 C   0  0  0  0  0  0  0  0  0  0  0  0
   49.9160   29.1510   47.7560 N   0  0  0  0  0  0  0  0  0  0  0  0
   49.0960   30.1080   48.1430 N   0  0  0  0  0  0  0  0  0  0  0  0
   43.9068   36.7317   44.5586 H   0  0  0  0  0  0  0  0  0  0  0  0
   45.0417   36.5122   42.3255 H   0  0  0  0  0  0  0  0  0  0  0  0
   46.6843   34.6302   41.9659 H   0  0  0  0  0  0  0  0  0  0  0  0
   47.5716   32.1274   45.3058 H   0  0  0  0  0  0  0  0  0  0  0  0
   45.9005   30.8396   50.3780 H   0  0  0  0  0  0  0  0  0  0  0  0
   47.2280   29.9725   49.5604 H   0  0  0  0  0  0  0  0  0  0  0  0
   47.9854   29.4725   45.2107 H   0  0  0  0  0  0  0  0  0  0  0  0
   50.0794   27.9733   45.9140 H   0  0  0  0  0  0  0  0  0  0  0  0
   50.6886   28.7682   48.3194 H   0  0  0  0  0  0  0  0  0  0  0  0
  1  6  2  0
  2  1  1  0
  3  2  2  0
  3  4  1  0
  4  5  2  0
  5  6  1  0
  5  7  1  0
  7 13  1  0
  8  7  1  0
  8  9  2  0
  9 10  1  0
 10 12  2  0
 10 11  1  0
 13 12  1  0
 14 13  2  0
 15  9  1  0
 15 19  2  0
 16 17  2  0
 16 15  1  0
 17 18  1  0
 18 19  1  0
  1 20  1  0
  2 21  1  0
  3 22  1  0
  8 23  1  0
 11 24  1  0
 11 25  1  0
 16 26  1  0
 17 27  1  0
 18 28  1  0
M  ISO  7  20  14  21  14  22  14  23  14  26  14  27  14  28   9
M  END
>  <minimizedAffinity>  (1) 
-5.66462326

>  <minimizedRMSD>  (1) 
0.22371994

$$$$
