
     RDKit          3D

 27 29  0  0  0  0  0  0  0  0999 V2000
   44.6260   35.9340   44.3810 C   0  0  0  0  0  0  0  0  0  0  0  0
   45.2660   35.8250   43.1370 C   0  0  0  0  0  0  0  0  0  0  0  0
   46.1840   34.7980   42.9320 C   0  0  0  0  0  0  0  0  0  0  0  0
   46.4090   33.9520   43.9580 N   0  0  0  0  0  0  0  0  0  0  0  0
   45.7830   34.0700   45.1550 C   0  0  0  0  0  0  0  0  0  0  0  0
   44.8890   35.0630   45.3690 N   0  0  0  0  0  0  0  0  0  0  0  0
   46.0030   33.1960   46.2420 N   0  0  0  0  0  0  0  0  0  0  0  0
   46.9550   32.2610   46.2010 C   0  0  0  0  0  0  0  0  0  0  0  0
   47.1340   31.4300   47.2880 C   0  0  0  0  0  0  0  0  0  0  0  0
   46.3360   31.5620   48.4110 C   0  0  0  0  0  0  0  0  0  0  0  0
   46.5200   30.6980   49.5430 N   0  0  0  0  0  0  0  0  0  0  0  0
   45.3840   32.5110   48.4260 N   0  0  0  0  0  0  0  0  0  0  0  0
   45.2240   33.3250   47.3400 C   0  0  0  0  0  0  0  0  0  0  0  0
   44.3220   34.2300   47.3440 O   0  0  0  0  0  0  0  0  0  0  0  0
   48.1630   30.4000   47.2760 C   0  0  0  0  0  0  0  0  0  0  0  0
   48.2710   29.4440   46.1690 C   0  0  0  0  0  0  0  0  0  0  0  0
   49.7430   28.3980   46.7070 S   0  0  0  0  0  0  0  0  0  0  0  0
   49.9300   29.3860   48.2380 C   0  0  0  0  0  0  0  0  0  0  0  0
   49.0720   30.1950   48.1830 N   0  0  0  0  0  0  0  0  0  0  0  0
   43.8998   36.7429   44.5491 H   0  0  0  0  0  0  0  0  0  0  0  0
   45.0452   36.5425   42.3330 H   0  0  0  0  0  0  0  0  0  0  0  0
   46.7054   34.6813   41.9705 H   0  0  0  0  0  0  0  0  0  0  0  0
   47.5905   32.1541   45.3095 H   0  0  0  0  0  0  0  0  0  0  0  0
   45.9212   30.8038   50.3744 H   0  0  0  0  0  0  0  0  0  0  0  0
   47.2508   29.9724   49.5237 H   0  0  0  0  0  0  0  0  0  0  0  0
   47.6542   29.3597   45.2621 H   0  0  0  0  0  0  0  0  0  0  0  0
   50.6777   29.2544   49.0340 H   0  0  0  0  0  0  0  0  0  0  0  0
  1  6  2  0
  2  1  1  0
  3  2  2  0
  3  4  1  0
  4  5  2  0
  5  6  1  0
  5  7  1  0
  7 13  1  0
  8  7  1  0
  8  9  2  0
  9 10  1  0
 10 12  2  0
 10 11  1  0
 13 14  2  0
 13 12  1  0
 15  9  1  0
 15 19  1  0
 16 17  1  0
 16 15  2  0
 17 18  1  0
 19 18  2  0
  1 20  1  0
  2 21  1  0
  3 22  1  0
  8 23  1  0
 11 24  1  0
 11 25  1  0
 16 26  1  0
 18 27  1  0
M  ISO  6  20  14  21  14  22  14  23  14  26  14  27  14
M  END
>  <minimizedAffinity>  (1) 
-5.65635967

>  <minimizedRMSD>  (1) 
0.352043241

$$$$
