
     RDKit          3D

 26 28  0  0  0  0  0  0  0  0999 V2000
   44.6060   35.9300   44.3900 C   0  0  0  0  0  0  0  0  0  0  0  0
   45.2500   35.8180   43.1470 C   0  0  0  0  0  0  0  0  0  0  0  0
   46.1790   34.7920   42.9350 C   0  0  0  0  0  0  0  0  0  0  0  0
   46.4050   33.9500   43.9630 N   0  0  0  0  0  0  0  0  0  0  0  0
   45.7780   34.0690   45.1590 C   0  0  0  0  0  0  0  0  0  0  0  0
   44.8810   35.0560   45.3720 N   0  0  0  0  0  0  0  0  0  0  0  0
   46.0030   33.1930   46.2580 N   0  0  0  0  0  0  0  0  0  0  0  0
   46.9820   32.2590   46.1860 C   0  0  0  0  0  0  0  0  0  0  0  0
   47.1390   31.4460   47.2920 C   0  0  0  0  0  0  0  0  0  0  0  0
   46.3620   31.5540   48.4170 C   0  0  0  0  0  0  0  0  0  0  0  0
   46.5360   30.7090   49.5460 N   0  0  0  0  0  0  0  0  0  0  0  0
   45.4130   32.5010   48.4170 N   0  0  0  0  0  0  0  0  0  0  0  0
   45.2090   33.3290   47.3640 C   0  0  0  0  0  0  0  0  0  0  0  0
   44.3220   34.2220   47.3490 O   0  0  0  0  0  0  0  0  0  0  0  0
   48.1730   30.4180   47.2880 C   0  0  0  0  0  0  0  0  0  0  0  0
   49.1280   30.2550   48.2230 N   0  0  0  0  0  0  0  0  0  0  0  0
   49.8880   29.2550   47.9280 O   0  0  0  0  0  0  0  0  0  0  0  0
   49.4940   28.7020   46.8000 C   0  0  0  0  0  0  0  0  0  0  0  0
   48.4200   29.4300   46.3990 N   0  0  0  0  0  0  0  0  0  0  0  0
   43.8754   36.7346   44.5595 H   0  0  0  0  0  0  0  0  0  0  0  0
   45.0254   36.5339   42.3426 H   0  0  0  0  0  0  0  0  0  0  0  0
   46.7006   34.6783   41.9733 H   0  0  0  0  0  0  0  0  0  0  0  0
   47.6178   32.1537   45.2946 H   0  0  0  0  0  0  0  0  0  0  0  0
   45.9314   30.8223   50.3721 H   0  0  0  0  0  0  0  0  0  0  0  0
   47.2667   29.9831   49.5383 H   0  0  0  0  0  0  0  0  0  0  0  0
   49.9398   27.8349   46.2908 H   0  0  0  0  0  0  0  0  0  0  0  0
  1  6  2  0
  2  1  1  0
  3  2  2  0
  3  4  1  0
  4  5  2  0
  5  6  1  0
  5  7  1  0
  7 13  1  0
  8  7  1  0
  8  9  2  0
  9 10  1  0
 10 11  1  0
 12 10  2  0
 13 12  1  0
 14 13  2  0
 15  9  1  0
 15 16  2  0
 17 16  1  0
 18 17  1  0
 19 18  2  0
 19 15  1  0
  1 20  1  0
  2 21  1  0
  3 22  1  0
  8 23  1  0
 11 24  1  0
 11 25  1  0
 18 26  1  0
M  ISO  5  20  14  21  14  22  14  23  14  26  14
M  END
>  <minimizedAffinity>  (1) 
-5.6439023

>  <minimizedRMSD>  (1) 
0.577125371

$$$$
