
     RDKit          3D

 34 36  0  0  0  0  0  0  0  0999 V2000
   44.7610   35.8910   44.2600 C   0  0  0  0  0  0  0  0  0  0  0  0
   45.4690   35.7020   43.0430 C   0  0  0  0  0  0  0  0  0  0  0  0
   46.3770   34.6470   42.9320 C   0  0  0  0  0  0  0  0  0  0  0  0
   46.5400   33.8440   44.0020 N   0  0  0  0  0  0  0  0  0  0  0  0
   45.8540   34.0410   45.1580 C   0  0  0  0  0  0  0  0  0  0  0  0
   44.9780   35.0480   45.2860 N   0  0  0  0  0  0  0  0  0  0  0  0
   46.0190   33.1980   46.2960 N   0  0  0  0  0  0  0  0  0  0  0  0
   46.9860   32.2760   46.3500 C   0  0  0  0  0  0  0  0  0  0  0  0
   47.0740   31.5040   47.4900 C   0  0  0  0  0  0  0  0  0  0  0  0
   46.2140   31.6550   48.5470 C   0  0  0  0  0  0  0  0  0  0  0  0
   46.2750   30.8810   49.7320 N   0  0  0  0  0  0  0  0  0  0  0  0
   45.2440   32.6030   48.4550 N   0  0  0  0  0  0  0  0  0  0  0  0
   45.1390   33.3780   47.3360 C   0  0  0  0  0  0  0  0  0  0  0  0
   44.2420   34.2690   47.2270 O   0  0  0  0  0  0  0  0  0  0  0  0
   50.2470   28.6970   47.9220 C   0  0  0  0  0  0  0  0  0  0  0  0
   50.1660   29.8480   48.6940 C   0  0  0  0  0  0  0  0  0  0  0  0
   49.1100   30.7320   48.5150 C   0  0  0  0  0  0  0  0  0  0  0  0
   48.1250   30.4900   47.5720 C   0  0  0  0  0  0  0  0  0  0  0  0
   48.1980   29.3600   46.8090 C   0  0  0  0  0  0  0  0  0  0  0  0
   49.2480   28.4900   46.9950 C   0  0  0  0  0  0  0  0  0  0  0  0
   51.5790   27.6000   48.1620 S   0  0  0  0  0  0  0  0  0  0  0  0
   52.1790   27.1590   46.8620 O   0  0  0  0  0  0  0  0  0  0  0  0
   52.6050   28.2760   49.0510 O   0  0  0  0  0  0  0  0  0  0  0  0
   44.0429   36.7179   44.3625 H   0  0  0  0  0  0  0  0  0  0  0  0
   45.3031   36.3818   42.1943 H   0  0  0  0  0  0  0  0  0  0  0  0
   46.9403   34.4771   42.0026 H   0  0  0  0  0  0  0  0  0  0  0  0
   47.6874   32.1378   45.5140 H   0  0  0  0  0  0  0  0  0  0  0  0
   45.5973   31.0454   50.4900 H   0  0  0  0  0  0  0  0  0  0  0  0
   46.9971   30.1538   49.8356 H   0  0  0  0  0  0  0  0  0  0  0  0
   50.9386   30.0599   49.4478 H   0  0  0  0  0  0  0  0  0  0  0  0
   49.0550   31.6403   49.1330 H   0  0  0  0  0  0  0  0  0  0  0  0
   47.4264   29.1475   46.0543 H   0  0  0  0  0  0  0  0  0  0  0  0
   49.2923   27.5840   46.3727 H   0  0  0  0  0  0  0  0  0  0  0  0
   51.1236   26.4616   48.7731 H   0  0  0  0  0  0  0  0  0  0  0  0
  1  6  2  0
  2  1  1  0
  3  2  2  0
  3  4  1  0
  4  5  2  0
  5  6  1  0
  5  7  1  0
  7  8  1  0
  7 13  1  0
  8  9  2  0
  9 18  1  0
  9 10  1  0
 10 11  1  0
 12 10  2  0
 13 12  1  0
 14 13  2  0
 15 21  1  0
 15 16  2  0
 17 16  1  0
 18 17  2  0
 19 20  2  0
 19 18  1  0
 20 15  1  0
 21 23  2  0
 22 21  2  0
  1 24  1  0
  2 25  1  0
  3 26  1  0
  8 27  1  0
 11 28  1  0
 11 29  1  0
 16 30  1  0
 17 31  1  0
 19 32  1  0
 20 33  1  0
 21 34  1  0
M  ISO  8  24  14  25  14  26  14  27  14  30  14  31  14  32  14  33  14
M  ISO  1  34  11
M  END
>  <minimizedAffinity>  (1) 
-5.63486862

>  <minimizedRMSD>  (1) 
0.811642945

$$$$
