
     RDKit          3D

 28 30  0  0  0  0  0  0  0  0999 V2000
   44.6550   35.9480   44.3770 C   0  0  0  0  0  0  0  0  0  0  0  0
   45.2940   35.8000   43.1250 C   0  0  0  0  0  0  0  0  0  0  0  0
   46.1940   34.7290   42.9280 C   0  0  0  0  0  0  0  0  0  0  0  0
   46.4010   33.8930   43.9640 N   0  0  0  0  0  0  0  0  0  0  0  0
   45.7810   34.0490   45.1560 C   0  0  0  0  0  0  0  0  0  0  0  0
   44.9180   35.0690   45.3580 N   0  0  0  0  0  0  0  0  0  0  0  0
   45.9810   33.1820   46.2610 N   0  0  0  0  0  0  0  0  0  0  0  0
   46.9290   32.2410   46.2260 C   0  0  0  0  0  0  0  0  0  0  0  0
   47.0860   31.4190   47.3290 C   0  0  0  0  0  0  0  0  0  0  0  0
   46.2960   31.5550   48.4390 C   0  0  0  0  0  0  0  0  0  0  0  0
   46.4210   30.7360   49.5910 N   0  0  0  0  0  0  0  0  0  0  0  0
   45.3610   32.5130   48.4240 N   0  0  0  0  0  0  0  0  0  0  0  0
   45.1890   33.3350   47.3470 C   0  0  0  0  0  0  0  0  0  0  0  0
   44.3050   34.2450   47.3290 O   0  0  0  0  0  0  0  0  0  0  0  0
   48.1290   30.4090   47.2460 C   0  0  0  0  0  0  0  0  0  0  0  0
   48.2470   29.4210   46.2730 C   0  0  0  0  0  0  0  0  0  0  0  0
   49.3210   28.6500   46.4840 N   0  0  0  0  0  0  0  0  0  0  0  0
   49.9330   29.1110   47.5980 C   0  0  0  0  0  0  0  0  0  0  0  0
   49.1960   30.1510   48.0160 N   0  0  0  0  0  0  0  0  0  0  0  0
   43.9494   36.7747   44.5463 H   0  0  0  0  0  0  0  0  0  0  0  0
   45.0924   36.5123   42.3114 H   0  0  0  0  0  0  0  0  0  0  0  0
   46.7062   34.5832   41.9655 H   0  0  0  0  0  0  0  0  0  0  0  0
   47.5705   32.1220   45.3404 H   0  0  0  0  0  0  0  0  0  0  0  0
   45.7984   30.8839   50.3981 H   0  0  0  0  0  0  0  0  0  0  0  0
   47.1344   29.9936   49.6201 H   0  0  0  0  0  0  0  0  0  0  0  0
   47.5458   29.2900   45.4356 H   0  0  0  0  0  0  0  0  0  0  0  0
   50.8467   28.7150   48.0652 H   0  0  0  0  0  0  0  0  0  0  0  0
   49.4291   30.7025   48.8541 H   0  0  0  0  0  0  0  0  0  0  0  0
  1  6  2  0
  2  1  1  0
  3  2  2  0
  3  4  1  0
  4  5  2  0
  5  6  1  0
  5  7  1  0
  7 13  1  0
  8  7  1  0
  8  9  2  0
  9 10  1  0
 10 11  1  0
 12 10  2  0
 13 12  1  0
 14 13  2  0
 15  9  1  0
 15 19  1  0
 16 17  1  0
 16 15  2  0
 17 18  2  0
 18 19  1  0
  1 20  1  0
  2 21  1  0
  3 22  1  0
  8 23  1  0
 11 24  1  0
 11 25  1  0
 16 26  1  0
 18 27  1  0
 19 28  1  0
M  ISO  7  20  14  21  14  22  14  23  14  26  14  27  14  28   9
M  END
>  <minimizedAffinity>  (1) 
-5.56341887

>  <minimizedRMSD>  (1) 
0.278286397

$$$$
