
     RDKit          3D

 30 31  0  0  0  0  0  0  0  0999 V2000
   44.6220   35.9150   44.3930 C   0  0  0  0  0  0  0  0  0  0  0  0
   45.2490   35.7910   43.1340 C   0  0  0  0  0  0  0  0  0  0  0  0
   46.1590   34.7500   42.9310 C   0  0  0  0  0  0  0  0  0  0  0  0
   46.3940   33.9060   43.9650 N   0  0  0  0  0  0  0  0  0  0  0  0
   45.7860   34.0410   45.1590 C   0  0  0  0  0  0  0  0  0  0  0  0
   44.9030   35.0400   45.3800 N   0  0  0  0  0  0  0  0  0  0  0  0
   46.0210   33.1670   46.2530 N   0  0  0  0  0  0  0  0  0  0  0  0
   46.9840   32.2380   46.1990 C   0  0  0  0  0  0  0  0  0  0  0  0
   47.1470   31.4240   47.3120 C   0  0  0  0  0  0  0  0  0  0  0  0
   46.3650   31.5500   48.4310 C   0  0  0  0  0  0  0  0  0  0  0  0
   46.5490   30.7090   49.5540 N   0  0  0  0  0  0  0  0  0  0  0  0
   45.4070   32.5030   48.4340 N   0  0  0  0  0  0  0  0  0  0  0  0
   45.2260   33.3110   47.3610 C   0  0  0  0  0  0  0  0  0  0  0  0
   44.3360   34.2080   47.3470 O   0  0  0  0  0  0  0  0  0  0  0  0
   48.1950   30.3610   47.3430 C   0  0  0  0  0  0  0  0  0  0  0  0
   49.0480   30.4450   48.5790 C   0  0  0  0  0  0  0  0  0  0  0  0
   47.4850   29.0330   47.2870 C   0  0  0  0  0  0  0  0  0  0  0  0
   43.9021   36.7278   44.5693 H   0  0  0  0  0  0  0  0  0  0  0  0
   45.0247   36.5026   42.3257 H   0  0  0  0  0  0  0  0  0  0  0  0
   46.6675   34.6200   41.9643 H   0  0  0  0  0  0  0  0  0  0  0  0
   47.6202   32.1244   45.3089 H   0  0  0  0  0  0  0  0  0  0  0  0
   45.9503   30.8207   50.3847 H   0  0  0  0  0  0  0  0  0  0  0  0
   47.2816   29.9851   49.5408 H   0  0  0  0  0  0  0  0  0  0  0  0
   48.8741   30.4881   46.4870 H   0  0  0  0  0  0  0  0  0  0  0  0
   48.4078   30.3820   49.4713 H   0  0  0  0  0  0  0  0  0  0  0  0
   49.7680   29.6134   48.5848 H   0  0  0  0  0  0  0  0  0  0  0  0
   49.5920   31.4011   48.5848 H   0  0  0  0  0  0  0  0  0  0  0  0
   47.2941   28.6759   48.3097 H   0  0  0  0  0  0  0  0  0  0  0  0
   46.5293   29.1503   46.7552 H   0  0  0  0  0  0  0  0  0  0  0  0
   48.1134   28.3034   46.7552 H   0  0  0  0  0  0  0  0  0  0  0  0
  1  6  2  0
  2  1  1  0
  3  2  2  0
  3  4  1  0
  4  5  2  0
  5  6  1  0
  5  7  1  0
  7 13  1  0
  8  7  1  0
  8  9  2  0
  9 15  1  0
  9 10  1  0
 10 12  2  0
 10 11  1  0
 13 12  1  0
 14 13  2  0
 15 16  1  0
 17 15  1  0
  1 18  1  0
  2 19  1  0
  3 20  1  0
  8 21  1  0
 11 22  1  0
 11 23  1  0
 15 24  1  0
 16 25  1  0
 16 26  1  0
 16 27  1  0
 17 28  1  0
 17 29  1  0
 17 30  1  0
M  ISO  8  18  14  19  14  20  14  21  14  24   8  25   8  26   8  27   8
M  ISO  3  28   8  29   8  30   8
M  END
>  <minimizedAffinity>  (1) 
-5.56664801

>  <minimizedRMSD>  (1) 
0.611754179

$$$$
