
     RDKit          3D

 40 43  0  0  1  0  0  0  0  0999 V2000
   47.8870   34.6870   41.1260 C   0  0  2  0  0  0  0  0  0  0  0  0
   48.8080   35.7460   41.4440 C   0  0  0  0  0  0  0  0  0  0  0  0
   49.9050   35.1580   42.3490 C   0  0  0  0  0  0  0  0  0  0  0  0
   49.6240   33.6750   42.4850 C   0  0  0  0  0  0  0  0  0  0  0  0
   48.1690   33.5740   42.1930 C   0  0  1  0  0  0  0  0  0  0  0  0
   48.0040   33.9880   39.8330 C   0  0  0  0  0  0  0  0  0  0  0  0
   48.4250   34.6990   38.7140 C   0  0  0  0  0  0  0  0  0  0  0  0
   48.5420   34.0650   37.4880 C   0  0  0  0  0  0  0  0  0  0  0  0
   48.2260   32.7370   37.4610 N   0  0  0  0  0  0  0  0  0  0  0  0
   47.8150   32.0480   38.5620 C   0  0  0  0  0  0  0  0  0  0  0  0
   47.7160   32.7070   39.7290 N   0  0  0  0  0  0  0  0  0  0  0  0
   47.3610   33.9410   43.4090 C   0  0  0  0  0  0  0  0  0  0  0  0
   47.1150   32.7850   44.2820 C   0  0  0  0  0  0  0  0  0  0  0  0
   46.3110   32.9000   45.4450 N   0  0  0  0  0  0  0  0  0  0  0  0
   45.5120   33.8420   45.9720 C   0  0  0  0  0  0  0  0  0  0  0  0
   45.0090   33.5110   47.1720 N   0  0  0  0  0  0  0  0  0  0  0  0
   45.4610   32.2870   47.5260 C   0  0  0  0  0  0  0  0  0  0  0  0
   45.2770   31.4740   48.6170 C   0  0  0  0  0  0  0  0  0  0  0  0
   45.9140   30.2710   48.6210 N   0  0  0  0  0  0  0  0  0  0  0  0
   46.6820   29.9640   47.5510 C   0  0  0  0  0  0  0  0  0  0  0  0
   46.8740   30.7350   46.4860 N   0  0  0  0  0  0  0  0  0  0  0  0
   46.2490   31.9510   46.4460 C   0  0  0  0  0  0  0  0  0  0  0  0
   46.9028   35.1776   41.0988 H   0  0  0  0  0  0  0  0  0  0  0  0
   49.2565   36.1418   40.5209 H   0  0  0  0  0  0  0  0  0  0  0  0
   48.2867   36.5683   41.9560 H   0  0  0  0  0  0  0  0  0  0  0  0
   50.8939   35.3143   41.8933 H   0  0  0  0  0  0  0  0  0  0  0  0
   49.9042   35.6482   43.3337 H   0  0  0  0  0  0  0  0  0  0  0  0
   50.2127   33.0943   41.7596 H   0  0  0  0  0  0  0  0  0  0  0  0
   49.8933   33.2748   43.4736 H   0  0  0  0  0  0  0  0  0  0  0  0
   47.9082   32.5552   41.8706 H   0  0  0  0  0  0  0  0  0  0  0  0
   48.6659   35.7686   38.8030 H   0  0  0  0  0  0  0  0  0  0  0  0
   48.8713   34.6017   36.5861 H   0  0  0  0  0  0  0  0  0  0  0  0
   47.5700   30.9776   38.4973 H   0  0  0  0  0  0  0  0  0  0  0  0
   47.9077   34.7060   43.9799 H   0  0  0  0  0  0  0  0  0  0  0  0
   46.3864   34.3180   43.0655 H   0  0  0  0  0  0  0  0  0  0  0  0
   46.6454   32.0140   43.6534 H   0  0  0  0  0  0  0  0  0  0  0  0
   48.1126   32.5834   44.6994 H   0  0  0  0  0  0  0  0  0  0  0  0
   45.2906   34.7945   45.4682 H   0  0  0  0  0  0  0  0  0  0  0  0
   44.6381   31.7835   49.4572 H   0  0  0  0  0  0  0  0  0  0  0  0
   47.1929   28.9899   47.5635 H   0  0  0  0  0  0  0  0  0  0  0  0
  1  2  1  0
  1  5  1  0
  2  3  1  0
  3  4  1  0
  5  4  1  0
  5 12  1  0
  6  1  1  0
  7  6  2  0
  8  7  1  0
  9  8  2  0
  9 10  1  0
 10 11  2  0
 11  6  1  0
 12 13  1  0
 13 14  1  0
 14 15  1  0
 14 22  1  0
 15 16  2  0
 16 17  1  0
 17 18  2  0
 18 19  1  0
 20 19  2  0
 21 20  1  0
 22 21  2  0
 22 17  1  0
  1 23  1  1
  2 24  1  0
  2 25  1  0
  3 26  1  0
  3 27  1  0
  4 28  1  0
  4 29  1  0
  5 30  1  6
  7 31  1  0
  8 32  1  0
 10 33  1  0
 12 34  1  0
 12 35  1  0
 13 36  1  0
 13 37  1  0
 15 38  1  0
 18 39  1  0
 20 40  1  0
M  ISO  8  23  13  24  13  25  13  26  13  27  13  28  13  29  13  30  13
M  ISO  8  31  14  32  14  33  14  34   8  35   8  36   8  37   8  38  14
M  ISO  2  39  14  40  14
M  END
>  <minimizedAffinity>  (1) 
-5.75070572

>  <minimizedRMSD>  (1) 
4.5857029

$$$$
