
     RDKit          3D

 42 44  0  0  1  0  0  0  0  0999 V2000
   47.8660   34.9140   41.3690 C   0  0  2  0  0  0  0  0  0  0  0  0
   49.0940   35.6130   41.6920 C   0  0  0  0  0  0  0  0  0  0  0  0
   50.0110   34.6120   42.4030 C   0  0  0  0  0  0  0  0  0  0  0  0
   49.3100   33.2850   42.4080 C   0  0  0  0  0  0  0  0  0  0  0  0
   47.8720   33.6400   42.2730 C   0  0  1  0  0  0  0  0  0  0  0  0
   47.6740   34.3880   40.0010 C   0  0  0  0  0  0  0  0  0  0  0  0
   48.5310   34.8230   38.9920 C   0  0  0  0  0  0  0  0  0  0  0  0
   48.3580   34.3470   37.6910 C   0  0  0  0  0  0  0  0  0  0  0  0
   47.3260   33.4570   37.4960 N   0  0  0  0  0  0  0  0  0  0  0  0
   46.5190   33.0600   38.4970 C   0  0  0  0  0  0  0  0  0  0  0  0
   46.7090   33.5330   39.7320 N   0  0  0  0  0  0  0  0  0  0  0  0
   47.3120   34.0790   43.6040 C   0  0  0  0  0  0  0  0  0  0  0  0
   45.9580   34.6390   43.4660 C   0  0  0  0  0  0  0  0  0  0  0  0
   44.9280   33.9240   42.8280 N   0  0  0  0  0  0  0  0  0  0  0  0
   44.1820   34.7350   41.9950 C   0  0  0  0  0  0  0  0  0  0  0  0
   43.0420   34.3810   41.2880 C   0  0  0  0  0  0  0  0  0  0  0  0
   42.2840   35.3020   40.4070 C   0  0  0  0  0  0  0  0  0  0  0  0
   42.5780   33.0950   41.4060 C   0  0  0  0  0  0  0  0  0  0  0  0
   41.5700   32.6070   40.8430 O   0  0  0  0  0  0  0  0  0  0  0  0
   43.2750   32.2750   42.2030 N   0  0  0  0  0  0  0  0  0  0  0  0
   44.3620   32.7180   42.8380 C   0  0  0  0  0  0  0  0  0  0  0  0
   44.9940   31.9190   43.5630 O   0  0  0  0  0  0  0  0  0  0  0  0
   47.0768   35.6682   41.5046 H   0  0  0  0  0  0  0  0  0  0  0  0
   49.5743   35.9763   40.7715 H   0  0  0  0  0  0  0  0  0  0  0  0
   48.8913   36.4822   42.3350 H   0  0  0  0  0  0  0  0  0  0  0  0
   50.9669   34.5301   41.8649 H   0  0  0  0  0  0  0  0  0  0  0  0
   50.2236   34.9424   43.4304 H   0  0  0  0  0  0  0  0  0  0  0  0
   49.6410   32.6643   41.5623 H   0  0  0  0  0  0  0  0  0  0  0  0
   49.5189   32.6981   43.3146 H   0  0  0  0  0  0  0  0  0  0  0  0
   47.2916   32.7892   41.8867 H   0  0  0  0  0  0  0  0  0  0  0  0
   49.3375   35.5358   39.2188 H   0  0  0  0  0  0  0  0  0  0  0  0
   49.0115   34.6661   36.8657 H   0  0  0  0  0  0  0  0  0  0  0  0
   45.7046   32.3476   38.2989 H   0  0  0  0  0  0  0  0  0  0  0  0
   47.2718   33.2105   44.2779 H   0  0  0  0  0  0  0  0  0  0  0  0
   47.9679   34.8629   44.0106 H   0  0  0  0  0  0  0  0  0  0  0  0
   45.6039   34.8495   44.4860 H   0  0  0  0  0  0  0  0  0  0  0  0
   46.1202   35.4829   42.7793 H   0  0  0  0  0  0  0  0  0  0  0  0
   44.5289   35.7725   41.8799 H   0  0  0  0  0  0  0  0  0  0  0  0
   41.7050   36.0055   41.0234 H   0  0  0  0  0  0  0  0  0  0  0  0
   42.9858   35.8626   39.7720 H   0  0  0  0  0  0  0  0  0  0  0  0
   41.5989   34.7211   39.7720 H   0  0  0  0  0  0  0  0  0  0  0  0
   42.9710   31.2987   42.3264 H   0  0  0  0  0  0  0  0  0  0  0  0
  1  2  1  0
  1  5  1  0
  2  3  1  0
  3  4  1  0
  5  4  1  0
  5 12  1  0
  6  1  1  0
  7  6  2  0
  8  7  1  0
  9  8  2  0
  9 10  1  0
 10 11  2  0
 11  6  1  0
 13 12  1  0
 14 21  1  0
 14 13  1  0
 15 14  1  0
 16 18  1  0
 16 15  2  0
 17 16  1  0
 18 20  1  0
 19 18  2  0
 20 21  1  0
 21 22  2  0
  1 23  1  1
  2 24  1  0
  2 25  1  0
  3 26  1  0
  3 27  1  0
  4 28  1  0
  4 29  1  0
  5 30  1  6
  7 31  1  0
  8 32  1  0
 10 33  1  0
 12 34  1  0
 12 35  1  0
 13 36  1  0
 13 37  1  0
 15 38  1  0
 17 39  1  0
 17 40  1  0
 17 41  1  0
 20 42  1  0
M  ISO  8  23  13  24  13  25  13  26  13  27  13  28  13  29  13  30  13
M  ISO  8  31  14  32  14  33  14  34   8  35   8  36   8  37   8  38  14
M  ISO  4  39   8  40   8  41   8  42   9
M  END
>  <minimizedAffinity>  (1) 
-5.68187571

>  <minimizedRMSD>  (1) 
0.404290587

$$$$
