
     RDKit          3D

 46 48  0  0  1  0  0  0  0  0999 V2000
   44.6050   35.8800   44.3690 C   0  0  0  0  0  0  0  0  0  0  0  0
   45.2270   35.7340   43.1180 C   0  0  0  0  0  0  0  0  0  0  0  0
   46.1400   34.7060   42.9290 C   0  0  0  0  0  0  0  0  0  0  0  0
   46.3880   33.8830   43.9770 N   0  0  0  0  0  0  0  0  0  0  0  0
   45.7800   34.0360   45.1810 C   0  0  0  0  0  0  0  0  0  0  0  0
   44.8950   35.0280   45.3740 N   0  0  0  0  0  0  0  0  0  0  0  0
   46.0230   33.1790   46.2890 N   0  0  0  0  0  0  0  0  0  0  0  0
   47.0000   32.2510   46.2260 C   0  0  0  0  0  0  0  0  0  0  0  0
   47.1520   31.4460   47.3450 C   0  0  0  0  0  0  0  0  0  0  0  0
   46.3750   31.5700   48.4520 C   0  0  0  0  0  0  0  0  0  0  0  0
   46.5400   30.7730   49.6090 N   0  0  0  0  0  0  0  0  0  0  0  0
   45.4020   32.5240   48.4660 N   0  0  0  0  0  0  0  0  0  0  0  0
   45.2240   33.3320   47.3800 C   0  0  0  0  0  0  0  0  0  0  0  0
   44.3340   34.2250   47.3550 O   0  0  0  0  0  0  0  0  0  0  0  0
   48.1600   30.3630   47.3820 C   0  0  1  0  0  0  0  0  0  0  0  0
   49.1120   30.5220   48.5370 C   0  0  0  0  0  0  0  0  0  0  0  0
   47.4750   29.0440   47.4660 C   0  0  0  0  0  0  0  0  0  0  0  0
   46.3860   28.7330   46.5270 C   0  0  0  0  0  0  0  0  0  0  0  0
   45.0720   28.3110   47.1380 C   0  0  0  0  0  0  0  0  0  0  0  0
   44.0020   28.6220   46.1160 C   0  0  0  0  0  0  0  0  0  0  0  0
   44.2690   28.1070   44.7480 C   0  0  0  0  0  0  0  0  0  0  0  0
   45.6870   28.2920   44.2580 C   0  0  0  0  0  0  0  0  0  0  0  0
   46.6810   27.8550   45.3630 C   0  0  0  0  0  0  0  0  0  0  0  0
   43.8796   36.6911   44.5296 H   0  0  0  0  0  0  0  0  0  0  0  0
   44.9929   36.4273   42.2967 H   0  0  0  0  0  0  0  0  0  0  0  0
   46.6449   34.5640   41.9621 H   0  0  0  0  0  0  0  0  0  0  0  0
   47.6395   32.1392   45.3380 H   0  0  0  0  0  0  0  0  0  0  0  0
   45.9215   30.9099   50.4212 H   0  0  0  0  0  0  0  0  0  0  0  0
   47.2786   30.0558   49.6393 H   0  0  0  0  0  0  0  0  0  0  0  0
   48.7502   30.4194   46.4554 H   0  0  0  0  0  0  0  0  0  0  0  0
   48.5590   30.4296   49.4834 H   0  0  0  0  0  0  0  0  0  0  0  0
   49.8843   29.7404   48.4858 H   0  0  0  0  0  0  0  0  0  0  0  0
   49.5884   31.5122   48.4858 H   0  0  0  0  0  0  0  0  0  0  0  0
   48.2471   28.2729   47.3274 H   0  0  0  0  0  0  0  0  0  0  0  0
   46.9723   29.0754   48.4439 H   0  0  0  0  0  0  0  0  0  0  0  0
   46.2810   29.7511   46.1240 H   0  0  0  0  0  0  0  0  0  0  0  0
   45.0845   27.2335   47.3588 H   0  0  0  0  0  0  0  0  0  0  0  0
   44.8848   28.8418   48.0831 H   0  0  0  0  0  0  0  0  0  0  0  0
   43.0569   28.1822   46.4673 H   0  0  0  0  0  0  0  0  0  0  0  0
   43.9695   29.7182   46.0300 H   0  0  0  0  0  0  0  0  0  0  0  0
   44.0433   27.0304   44.7392 H   0  0  0  0  0  0  0  0  0  0  0  0
   43.6319   28.6941   44.0702 H   0  0  0  0  0  0  0  0  0  0  0  0
   45.8464   27.6785   43.3590 H   0  0  0  0  0  0  0  0  0  0  0  0
   45.8539   29.3519   44.0155 H   0  0  0  0  0  0  0  0  0  0  0  0
   46.5232   26.7990   45.6273 H   0  0  0  0  0  0  0  0  0  0  0  0
   47.7265   27.9483   45.0339 H   0  0  0  0  0  0  0  0  0  0  0  0
  1  6  2  0
  2  1  1  0
  3  2  2  0
  3  4  1  0
  4  5  2  0
  5  6  1  0
  5  7  1  0
  7 13  1  0
  8  7  1  0
  8  9  2  0
  9 15  1  0
  9 10  1  0
 10 12  2  0
 10 11  1  0
 13 12  1  0
 14 13  2  0
 15 17  1  0
 15 16  1  0
 18 19  1  0
 18 17  1  0
 20 19  1  0
 21 20  1  0
 22 21  1  0
 22 23  1  0
 23 18  1  0
  1 24  1  0
  2 25  1  0
  3 26  1  0
  8 27  1  0
 11 28  1  0
 11 29  1  0
 15 30  1  6
 16 31  1  0
 16 32  1  0
 16 33  1  0
 17 34  1  0
 17 35  1  0
 18 36  1  0
 19 37  1  0
 19 38  1  0
 20 39  1  0
 20 40  1  0
 21 41  1  0
 21 42  1  0
 22 43  1  0
 22 44  1  0
 23 45  1  0
 23 46  1  0
M  ISO  8  24  14  25  14  26  14  27  14  30   8  31   8  32   8  33   8
M  ISO  8  34   8  35   8  36  13  37  13  38  13  39  13  40  13  41  13
M  ISO  5  42  13  43  13  44  13  45  13  46  13
M  END
>  <minimizedAffinity>  (1) 
-5.80489922

>  <minimizedRMSD>  (1) 
0.419688642

$$$$
