
     RDKit          3D

 41 44  0  0  1  0  0  0  0  0999 V2000
   44.6350   35.9310   44.3960 C   0  0  0  0  0  0  0  0  0  0  0  0
   45.2680   35.8140   43.1510 C   0  0  0  0  0  0  0  0  0  0  0  0
   46.1780   34.7740   42.9490 C   0  0  0  0  0  0  0  0  0  0  0  0
   46.3990   33.9320   43.9740 N   0  0  0  0  0  0  0  0  0  0  0  0
   45.7790   34.0600   45.1720 C   0  0  0  0  0  0  0  0  0  0  0  0
   44.9010   35.0570   45.3770 N   0  0  0  0  0  0  0  0  0  0  0  0
   46.0090   33.1800   46.2670 N   0  0  0  0  0  0  0  0  0  0  0  0
   46.9770   32.2570   46.2070 C   0  0  0  0  0  0  0  0  0  0  0  0
   47.1370   31.4410   47.3160 C   0  0  0  0  0  0  0  0  0  0  0  0
   46.3560   31.5570   48.4220 C   0  0  0  0  0  0  0  0  0  0  0  0
   46.5150   30.7370   49.5620 N   0  0  0  0  0  0  0  0  0  0  0  0
   45.3840   32.5100   48.4410 N   0  0  0  0  0  0  0  0  0  0  0  0
   45.2110   33.3230   47.3600 C   0  0  0  0  0  0  0  0  0  0  0  0
   44.3210   34.2170   47.3420 O   0  0  0  0  0  0  0  0  0  0  0  0
   48.1640   30.3760   47.3590 C   0  0  1  0  0  0  0  0  0  0  0  0
   49.0470   30.4640   48.5540 C   0  0  0  0  0  0  0  0  0  0  0  0
   47.4570   29.0390   47.3260 C   0  0  0  0  0  0  0  0  0  0  0  0
   46.9290   28.7210   46.0260 N   0  0  0  0  0  0  0  0  0  0  0  0
   47.6860   28.5040   44.9170 C   0  0  0  0  0  0  0  0  0  0  0  0
   46.8640   28.2330   43.8820 N   0  0  0  0  0  0  0  0  0  0  0  0
   45.5820   28.2750   44.3220 C   0  0  0  0  0  0  0  0  0  0  0  0
   44.3770   28.0690   43.6540 C   0  0  0  0  0  0  0  0  0  0  0  0
   43.2570   28.1880   44.4020 N   0  0  0  0  0  0  0  0  0  0  0  0
   43.2860   28.4870   45.7170 C   0  0  0  0  0  0  0  0  0  0  0  0
   44.4770   28.6810   46.3320 N   0  0  0  0  0  0  0  0  0  0  0  0
   45.6400   28.5820   45.6670 C   0  0  0  0  0  0  0  0  0  0  0  0
   43.9156   36.7449   44.5692 H   0  0  0  0  0  0  0  0  0  0  0  0
   45.0513   36.5306   42.3450 H   0  0  0  0  0  0  0  0  0  0  0  0
   46.6952   34.6482   41.9864 H   0  0  0  0  0  0  0  0  0  0  0  0
   47.6162   32.1511   45.3181 H   0  0  0  0  0  0  0  0  0  0  0  0
   45.8980   30.8629   50.3771 H   0  0  0  0  0  0  0  0  0  0  0  0
   47.2479   30.0135   49.5778 H   0  0  0  0  0  0  0  0  0  0  0  0
   48.8229   30.4980   46.4866 H   0  0  0  0  0  0  0  0  0  0  0  0
   48.4360   30.4031   49.4667 H   0  0  0  0  0  0  0  0  0  0  0  0
   49.7679   29.6332   48.5392 H   0  0  0  0  0  0  0  0  0  0  0  0
   49.5897   31.4207   48.5392 H   0  0  0  0  0  0  0  0  0  0  0  0
   48.1725   28.2555   47.6163 H   0  0  0  0  0  0  0  0  0  0  0  0
   46.6087   29.0949   48.0241 H   0  0  0  0  0  0  0  0  0  0  0  0
   48.7844   28.5429   44.8716 H   0  0  0  0  0  0  0  0  0  0  0  0
   44.3390   27.8242   42.5823 H   0  0  0  0  0  0  0  0  0  0  0  0
   42.3486   28.5727   46.2861 H   0  0  0  0  0  0  0  0  0  0  0  0
  1  6  2  0
  2  1  1  0
  3  2  2  0
  3  4  1  0
  4  5  2  0
  5  6  1  0
  5  7  1  0
  7 13  1  0
  8  7  1  0
  8  9  2  0
  9 15  1  0
  9 10  1  0
 10 12  2  0
 10 11  1  0
 13 12  1  0
 14 13  2  0
 15 16  1  0
 17 15  1  0
 18 17  1  0
 19 18  1  0
 20 21  1  0
 20 19  2  0
 21 26  2  0
 22 21  1  0
 22 23  2  0
 23 24  1  0
 24 25  2  0
 26 18  1  0
 26 25  1  0
  1 27  1  0
  2 28  1  0
  3 29  1  0
  8 30  1  0
 11 31  1  0
 11 32  1  0
 15 33  1  6
 16 34  1  0
 16 35  1  0
 16 36  1  0
 17 37  1  0
 17 38  1  0
 19 39  1  0
 22 40  1  0
 24 41  1  0
M  ISO  8  27  14  28  14  29  14  30  14  33   8  34   8  35   8  36   8
M  ISO  5  37   8  38   8  39  14  40  14  41  14
M  END
>  <minimizedAffinity>  (1) 
-5.79992676

>  <minimizedRMSD>  (1) 
0.865337789

$$$$
