
     RDKit          3D

 37 39  0  0  1  0  0  0  0  0999 V2000
   44.6280   35.9510   44.3890 C   0  0  0  0  0  0  0  0  0  0  0  0
   45.1910   35.7640   43.1030 C   0  0  0  0  0  0  0  0  0  0  0  0
   46.0210   34.6720   42.8760 C   0  0  0  0  0  0  0  0  0  0  0  0
   46.2620   33.8260   43.9070 N   0  0  0  0  0  0  0  0  0  0  0  0
   45.7170   34.0180   45.1330 C   0  0  0  0  0  0  0  0  0  0  0  0
   44.9000   35.0780   45.3800 N   0  0  0  0  0  0  0  0  0  0  0  0
   45.9490   33.1500   46.2360 N   0  0  0  0  0  0  0  0  0  0  0  0
   46.8670   32.1790   46.1520 C   0  0  0  0  0  0  0  0  0  0  0  0
   47.0480   31.3740   47.2610 C   0  0  0  0  0  0  0  0  0  0  0  0
   46.3300   31.5480   48.4000 C   0  0  0  0  0  0  0  0  0  0  0  0
   46.5160   30.7570   49.5580 N   0  0  0  0  0  0  0  0  0  0  0  0
   45.4050   32.5460   48.4480 N   0  0  0  0  0  0  0  0  0  0  0  0
   45.2120   33.3530   47.3630 C   0  0  0  0  0  0  0  0  0  0  0  0
   44.3660   34.2890   47.3640 O   0  0  0  0  0  0  0  0  0  0  0  0
   48.0100   30.2520   47.2830 C   0  0  1  0  0  0  0  0  0  0  0  0
   49.0470   30.3960   48.3370 C   0  0  0  0  0  0  0  0  0  0  0  0
   47.2400   28.9600   47.4300 C   0  0  0  0  0  0  0  0  0  0  0  0
   46.0950   28.8060   46.5640 C   0  0  0  0  0  0  0  0  0  0  0  0
   44.6740   28.7150   46.7910 C   0  0  0  0  0  0  0  0  0  0  0  0
   43.8890   28.5640   45.7070 C   0  0  0  0  0  0  0  0  0  0  0  0
   44.3570   28.4910   44.3900 C   0  0  0  0  0  0  0  0  0  0  0  0
   46.2310   28.6600   44.6790 S   0  0  0  0  0  0  0  0  0  0  0  0
   43.9677   36.8099   44.5797 H   0  0  0  0  0  0  0  0  0  0  0  0
   44.9739   36.4752   42.2924 H   0  0  0  0  0  0  0  0  0  0  0  0
   46.4698   34.4994   41.8867 H   0  0  0  0  0  0  0  0  0  0  0  0
   47.4551   32.0275   45.2348 H   0  0  0  0  0  0  0  0  0  0  0  0
   45.9445   30.9301   50.3972 H   0  0  0  0  0  0  0  0  0  0  0  0
   47.2230   30.0079   49.5619 H   0  0  0  0  0  0  0  0  0  0  0  0
   48.5646   30.2507   46.3331 H   0  0  0  0  0  0  0  0  0  0  0  0
   48.5741   30.3303   49.3280 H   0  0  0  0  0  0  0  0  0  0  0  0
   49.7909   29.5925   48.2317 H   0  0  0  0  0  0  0  0  0  0  0  0
   49.5438   31.3718   48.2317 H   0  0  0  0  0  0  0  0  0  0  0  0
   47.9320   28.1300   47.2245 H   0  0  0  0  0  0  0  0  0  0  0  0
   46.8394   28.9672   48.4544 H   0  0  0  0  0  0  0  0  0  0  0  0
   44.2498   28.7666   47.8046 H   0  0  0  0  0  0  0  0  0  0  0  0
   42.8032   28.4930   45.8682 H   0  0  0  0  0  0  0  0  0  0  0  0
   43.7981   28.3698   43.4504 H   0  0  0  0  0  0  0  0  0  0  0  0
  1  6  2  0
  2  1  1  0
  3  2  2  0
  3  4  1  0
  4  5  2  0
  5  6  1  0
  5  7  1  0
  7 13  1  0
  8  7  1  0
  8  9  2  0
  9 15  1  0
  9 10  1  0
 10 12  2  0
 10 11  1  0
 13 14  2  0
 13 12  1  0
 15 17  1  0
 15 16  1  0
 18 19  2  0
 18 17  1  0
 20 19  1  0
 21 22  1  0
 21 20  2  0
 22 18  1  0
  1 23  1  0
  2 24  1  0
  3 25  1  0
  8 26  1  0
 11 27  1  0
 11 28  1  0
 15 29  1  6
 16 30  1  0
 16 31  1  0
 16 32  1  0
 17 33  1  0
 17 34  1  0
 19 35  1  0
 20 36  1  0
 21 37  1  0
M  ISO  8  23  14  24  14  25  14  26  14  29   8  30   8  31   8  32   8
M  ISO  5  33   8  34   8  35  14  36  14  37  14
M  END
>  <minimizedAffinity>  (1) 
-5.69812059

>  <minimizedRMSD>  (1) 
0.662869394

$$$$
