
     RDKit          3D

 45 47  0  0  1  0  0  0  0  0999 V2000
   44.6490   35.9240   44.4020 C   0  0  0  0  0  0  0  0  0  0  0  0
   45.2440   35.7700   43.1390 C   0  0  0  0  0  0  0  0  0  0  0  0
   46.1150   34.7080   42.9310 C   0  0  0  0  0  0  0  0  0  0  0  0
   46.3480   33.8660   43.9630 N   0  0  0  0  0  0  0  0  0  0  0  0
   45.7690   34.0250   45.1730 C   0  0  0  0  0  0  0  0  0  0  0  0
   44.9250   35.0490   45.3840 N   0  0  0  0  0  0  0  0  0  0  0  0
   45.9970   33.1550   46.2680 N   0  0  0  0  0  0  0  0  0  0  0  0
   46.9470   32.2240   46.2140 C   0  0  0  0  0  0  0  0  0  0  0  0
   47.1080   31.4050   47.3380 C   0  0  0  0  0  0  0  0  0  0  0  0
   46.3440   31.5380   48.4420 C   0  0  0  0  0  0  0  0  0  0  0  0
   46.5070   30.7380   49.5830 N   0  0  0  0  0  0  0  0  0  0  0  0
   45.3850   32.5050   48.4480 N   0  0  0  0  0  0  0  0  0  0  0  0
   45.2070   33.3150   47.3670 C   0  0  0  0  0  0  0  0  0  0  0  0
   44.3250   34.2190   47.3510 O   0  0  0  0  0  0  0  0  0  0  0  0
   48.1290   30.3060   47.3690 C   0  0  1  0  0  0  0  0  0  0  0  0
   49.2090   30.5930   48.3490 C   0  0  0  0  0  0  0  0  0  0  0  0
   47.4000   29.0200   47.6530 C   0  0  0  0  0  0  0  0  0  0  0  0
   46.3720   28.7610   46.7370 N   0  0  0  0  0  0  0  0  0  0  0  0
   45.1170   28.2900   47.0920 C   0  0  0  0  0  0  0  0  0  0  0  0
   44.0650   28.7720   46.0860 C   0  0  0  0  0  0  0  0  0  0  0  0
   44.4040   28.4560   44.6780 C   0  0  0  0  0  0  0  0  0  0  0  0
   45.8340   28.7170   44.3100 C   0  0  0  0  0  0  0  0  0  0  0  0
   46.8090   28.4850   45.3940 C   0  0  0  0  0  0  0  0  0  0  0  0
   43.9581   36.7597   44.5871 H   0  0  0  0  0  0  0  0  0  0  0  0
   45.0238   36.4791   42.3274 H   0  0  0  0  0  0  0  0  0  0  0  0
   46.6007   34.5565   41.9557 H   0  0  0  0  0  0  0  0  0  0  0  0
   47.5798   32.1031   45.3224 H   0  0  0  0  0  0  0  0  0  0  0  0
   45.8980   30.8784   50.4017 H   0  0  0  0  0  0  0  0  0  0  0  0
   47.2357   30.0103   49.6019 H   0  0  0  0  0  0  0  0  0  0  0  0
   48.6423   30.2225   46.3997 H   0  0  0  0  0  0  0  0  0  0  0  0
   48.8146   30.4882   49.3705 H   0  0  0  0  0  0  0  0  0  0  0  0
   50.0365   29.8836   48.2009 H   0  0  0  0  0  0  0  0  0  0  0  0
   49.5752   31.6196   48.2009 H   0  0  0  0  0  0  0  0  0  0  0  0
   48.1222   28.1913   47.6133 H   0  0  0  0  0  0  0  0  0  0  0  0
   46.9392   29.1150   48.6473 H   0  0  0  0  0  0  0  0  0  0  0  0
   45.1317   27.1902   47.1031 H   0  0  0  0  0  0  0  0  0  0  0  0
   44.8598   28.6729   48.0906 H   0  0  0  0  0  0  0  0  0  0  0  0
   43.1054   28.2922   46.3291 H   0  0  0  0  0  0  0  0  0  0  0  0
   44.0167   29.8678   46.1688 H   0  0  0  0  0  0  0  0  0  0  0  0
   44.1934   27.3904   44.5046 H   0  0  0  0  0  0  0  0  0  0  0  0
   43.7927   29.1222   44.0515 H   0  0  0  0  0  0  0  0  0  0  0  0
   46.0957   28.0583   43.4688 H   0  0  0  0  0  0  0  0  0  0  0  0
   45.8977   29.7870   44.0627 H   0  0  0  0  0  0  0  0  0  0  0  0
   47.1053   27.4265   45.3526 H   0  0  0  0  0  0  0  0  0  0  0  0
   47.6214   29.2022   45.2053 H   0  0  0  0  0  0  0  0  0  0  0  0
  1  6  2  0
  2  1  1  0
  3  2  2  0
  3  4  1  0
  4  5  2  0
  5  6  1  0
  5  7  1  0
  7 13  1  0
  8  7  1  0
  8  9  2  0
  9 15  1  0
  9 10  1  0
 10 12  2  0
 10 11  1  0
 13 12  1  0
 14 13  2  0
 15 17  1  0
 15 16  1  0
 18 19  1  0
 18 17  1  0
 20 19  1  0
 21 20  1  0
 22 21  1  0
 22 23  1  0
 23 18  1  0
  1 24  1  0
  2 25  1  0
  3 26  1  0
  8 27  1  0
 11 28  1  0
 11 29  1  0
 15 30  1  6
 16 31  1  0
 16 32  1  0
 16 33  1  0
 17 34  1  0
 17 35  1  0
 19 36  1  0
 19 37  1  0
 20 38  1  0
 20 39  1  0
 21 40  1  0
 21 41  1  0
 22 42  1  0
 22 43  1  0
 23 44  1  0
 23 45  1  0
M  ISO  8  24  14  25  14  26  14  27  14  30   8  31   8  32   8  33   8
M  ISO  8  34   8  35   8  36  13  37  13  38  13  39  13  40  13  41  13
M  ISO  4  42  13  43  13  44  13  45  13
M  END
>  <minimizedAffinity>  (1) 
-5.62822294

>  <minimizedRMSD>  (1) 
2.62118006

$$$$
