
     RDKit          3D

 36 38  0  0  1  0  0  0  0  0999 V2000
   44.6370   35.9500   44.3790 C   0  0  0  0  0  0  0  0  0  0  0  0
   45.2500   35.7880   43.1120 C   0  0  0  0  0  0  0  0  0  0  0  0
   46.1320   34.7140   42.9040 C   0  0  0  0  0  0  0  0  0  0  0  0
   46.3480   33.8800   43.9450 N   0  0  0  0  0  0  0  0  0  0  0  0
   45.7540   34.0490   45.1520 C   0  0  0  0  0  0  0  0  0  0  0  0
   44.9090   35.0720   45.3650 N   0  0  0  0  0  0  0  0  0  0  0  0
   45.9760   33.1780   46.2560 N   0  0  0  0  0  0  0  0  0  0  0  0
   46.9280   32.2220   46.1800 C   0  0  0  0  0  0  0  0  0  0  0  0
   47.0740   31.4150   47.3010 C   0  0  0  0  0  0  0  0  0  0  0  0
   46.3160   31.5620   48.4180 C   0  0  0  0  0  0  0  0  0  0  0  0
   46.4690   30.7620   49.5720 N   0  0  0  0  0  0  0  0  0  0  0  0
   45.3700   32.5420   48.4420 N   0  0  0  0  0  0  0  0  0  0  0  0
   45.1980   33.3550   47.3570 C   0  0  0  0  0  0  0  0  0  0  0  0
   44.3350   34.2730   47.3390 O   0  0  0  0  0  0  0  0  0  0  0  0
   48.0650   30.3160   47.3450 C   0  0  1  0  0  0  0  0  0  0  0  0
   49.0430   30.4630   48.4600 C   0  0  0  0  0  0  0  0  0  0  0  0
   47.3350   29.0120   47.4430 C   0  0  0  0  0  0  0  0  0  0  0  0
   46.4340   28.7510   46.3700 N   0  0  0  0  0  0  0  0  0  0  0  0
   45.0920   28.5720   46.4300 C   0  0  0  0  0  0  0  0  0  0  0  0
   44.5900   28.3480   45.2050 N   0  0  0  0  0  0  0  0  0  0  0  0
   45.6380   28.3850   44.3560 C   0  0  0  0  0  0  0  0  0  0  0  0
   46.7050   28.6280   45.1060 N   0  0  0  0  0  0  0  0  0  0  0  0
   43.9444   36.7859   44.5567 H   0  0  0  0  0  0  0  0  0  0  0  0
   45.0373   36.4968   42.2981 H   0  0  0  0  0  0  0  0  0  0  0  0
   46.6263   34.5586   41.9337 H   0  0  0  0  0  0  0  0  0  0  0  0
   47.5508   32.0906   45.2829 H   0  0  0  0  0  0  0  0  0  0  0  0
   45.8648   30.9189   50.3913 H   0  0  0  0  0  0  0  0  0  0  0  0
   47.1848   30.0217   49.5943 H   0  0  0  0  0  0  0  0  0  0  0  0
   48.6568   30.3512   46.4184 H   0  0  0  0  0  0  0  0  0  0  0  0
   48.5164   30.3838   49.4225 H   0  0  0  0  0  0  0  0  0  0  0  0
   49.8007   29.6687   48.3902 H   0  0  0  0  0  0  0  0  0  0  0  0
   49.5337   31.4450   48.3902 H   0  0  0  0  0  0  0  0  0  0  0  0
   48.0803   28.2034   47.4688 H   0  0  0  0  0  0  0  0  0  0  0  0
   46.7233   29.0666   48.3556 H   0  0  0  0  0  0  0  0  0  0  0  0
   44.4965   28.6056   47.3542 H   0  0  0  0  0  0  0  0  0  0  0  0
   45.6129   28.2428   43.2655 H   0  0  0  0  0  0  0  0  0  0  0  0
  1  6  2  0
  2  1  1  0
  3  2  2  0
  3  4  1  0
  4  5  2  0
  5  6  1  0
  5  7  1  0
  7 13  1  0
  8  7  1  0
  8  9  2  0
  9 15  1  0
  9 10  1  0
 10 12  2  0
 10 11  1  0
 13 12  1  0
 14 13  2  0
 15 17  1  0
 15 16  1  0
 18 19  1  0
 18 17  1  0
 20 19  2  0
 21 22  2  0
 21 20  1  0
 22 18  1  0
  1 23  1  0
  2 24  1  0
  3 25  1  0
  8 26  1  0
 11 27  1  0
 11 28  1  0
 15 29  1  6
 16 30  1  0
 16 31  1  0
 16 32  1  0
 17 33  1  0
 17 34  1  0
 19 35  1  0
 21 36  1  0
M  ISO  8  23  14  24  14  25  14  26  14  29   8  30   8  31   8  32   8
M  ISO  4  33   8  34   8  35  14  36  14
M  END
>  <minimizedAffinity>  (1) 
-5.4207077

>  <minimizedRMSD>  (1) 
0.369776517

$$$$
