
     RDKit          3D

 31 32  0  0  1  0  0  0  0  0999 V2000
   44.5710   35.8750   44.3730 C   0  0  0  0  0  0  0  0  0  0  0  0
   45.2060   35.7590   43.1260 C   0  0  0  0  0  0  0  0  0  0  0  0
   46.1460   34.7560   42.9360 C   0  0  0  0  0  0  0  0  0  0  0  0
   46.4060   33.9320   43.9710 N   0  0  0  0  0  0  0  0  0  0  0  0
   45.7880   34.0510   45.1710 C   0  0  0  0  0  0  0  0  0  0  0  0
   44.8790   35.0190   45.3630 N   0  0  0  0  0  0  0  0  0  0  0  0
   46.0410   33.1710   46.2620 N   0  0  0  0  0  0  0  0  0  0  0  0
   46.9990   32.2480   46.1860 C   0  0  0  0  0  0  0  0  0  0  0  0
   47.1460   31.4170   47.2840 C   0  0  0  0  0  0  0  0  0  0  0  0
   46.3650   31.5170   48.3940 C   0  0  0  0  0  0  0  0  0  0  0  0
   46.5000   30.6730   49.5200 N   0  0  0  0  0  0  0  0  0  0  0  0
   45.3980   32.4790   48.4250 N   0  0  0  0  0  0  0  0  0  0  0  0
   45.2360   33.3100   47.3530 C   0  0  0  0  0  0  0  0  0  0  0  0
   44.3470   34.2130   47.3540 O   0  0  0  0  0  0  0  0  0  0  0  0
   48.1690   30.3380   47.3340 C   0  0  1  0  0  0  0  0  0  0  0  0
   49.0250   30.3990   48.5480 C   0  0  0  0  0  0  0  0  0  0  0  0
   47.4430   29.0110   47.2290 C   0  0  0  0  0  0  0  0  0  0  0  0
   48.3180   28.0000   47.6610 O   0  0  0  0  0  0  0  0  0  0  0  0
   43.8233   36.6644   44.5395 H   0  0  0  0  0  0  0  0  0  0  0  0
   44.9613   36.4546   42.3098 H   0  0  0  0  0  0  0  0  0  0  0  0
   46.6624   34.6371   41.9720 H   0  0  0  0  0  0  0  0  0  0  0  0
   47.6398   32.1511   45.2972 H   0  0  0  0  0  0  0  0  0  0  0  0
   45.8795   30.7957   50.3329 H   0  0  0  0  0  0  0  0  0  0  0  0
   47.2188   29.9354   49.5275 H   0  0  0  0  0  0  0  0  0  0  0  0
   48.8655   30.4664   46.4924 H   0  0  0  0  0  0  0  0  0  0  0  0
   48.3914   30.3538   49.4461 H   0  0  0  0  0  0  0  0  0  0  0  0
   49.7223   29.5483   48.5481 H   0  0  0  0  0  0  0  0  0  0  0  0
   49.5946   31.3400   48.5481 H   0  0  0  0  0  0  0  0  0  0  0  0
   46.5461   29.0252   47.8657 H   0  0  0  0  0  0  0  0  0  0  0  0
   47.1318   28.8277   46.1900 H   0  0  0  0  0  0  0  0  0  0  0  0
   48.3357   27.9795   48.6506 H   0  0  0  0  0  0  0  0  0  0  0  0
  1  6  2  0
  2  1  1  0
  3  2  2  0
  3  4  1  0
  4  5  2  0
  5  6  1  0
  5  7  1  0
  7 13  1  0
  8  7  1  0
  8  9  2  0
  9 15  1  0
  9 10  1  0
 10 12  2  0
 10 11  1  0
 13 14  2  0
 13 12  1  0
 15 16  1  0
 17 15  1  0
 17 18  1  0
  1 19  1  0
  2 20  1  0
  3 21  1  0
  8 22  1  0
 11 23  1  0
 11 24  1  0
 15 25  1  6
 16 26  1  0
 16 27  1  0
 16 28  1  0
 17 29  1  0
 17 30  1  0
 18 31  1  0
M  ISO  8  19  14  20  14  21  14  22  14  25   8  26   8  27   8  28   8
M  ISO  3  29   8  30   8  31   3
M  END
>  <minimizedAffinity>  (1) 
-5.38820887

>  <minimizedRMSD>  (1) 
0.0896289796

$$$$
