
     RDKit          3D

 37 39  0  0  1  0  0  0  0  0999 V2000
   44.6270   35.9100   44.3900 C   0  0  0  0  0  0  0  0  0  0  0  0
   45.2080   35.7430   43.1240 C   0  0  0  0  0  0  0  0  0  0  0  0
   46.0940   34.6840   42.9210 C   0  0  0  0  0  0  0  0  0  0  0  0
   46.3540   33.8600   43.9590 N   0  0  0  0  0  0  0  0  0  0  0  0
   45.7830   34.0360   45.1750 C   0  0  0  0  0  0  0  0  0  0  0  0
   44.9210   35.0580   45.3920 N   0  0  0  0  0  0  0  0  0  0  0  0
   46.0280   33.1760   46.2800 N   0  0  0  0  0  0  0  0  0  0  0  0
   47.0110   32.2630   46.2200 C   0  0  0  0  0  0  0  0  0  0  0  0
   47.1670   31.4480   47.3420 C   0  0  0  0  0  0  0  0  0  0  0  0
   46.3780   31.5600   48.4400 C   0  0  0  0  0  0  0  0  0  0  0  0
   46.5330   30.7510   49.5870 N   0  0  0  0  0  0  0  0  0  0  0  0
   45.3940   32.5040   48.4500 N   0  0  0  0  0  0  0  0  0  0  0  0
   45.2150   33.3180   47.3670 C   0  0  0  0  0  0  0  0  0  0  0  0
   44.3160   34.2030   47.3390 O   0  0  0  0  0  0  0  0  0  0  0  0
   48.1940   30.3800   47.4020 C   0  0  1  0  0  0  0  0  0  0  0  0
   49.0970   30.5060   48.5660 C   0  0  0  0  0  0  0  0  0  0  0  0
   47.4690   29.0420   47.3860 C   0  0  0  0  0  0  0  0  0  0  0  0
   48.4810   27.9630   47.2800 C   0  0  0  0  0  0  0  0  0  0  0  0
   49.4470   27.6150   46.3650 C   0  0  0  0  0  0  0  0  0  0  0  0
   50.1290   26.4880   46.7740 C   0  0  0  0  0  0  0  0  0  0  0  0
   49.5220   26.1820   47.9760 C   0  0  0  0  0  0  0  0  0  0  0  0
   48.5960   27.0460   48.2180 O   0  0  0  0  0  0  0  0  0  0  0  0
   43.9278   36.7408   44.5657 H   0  0  0  0  0  0  0  0  0  0  0  0
   44.9689   36.4361   42.3040 H   0  0  0  0  0  0  0  0  0  0  0  0
   46.5681   34.5246   41.9413 H   0  0  0  0  0  0  0  0  0  0  0  0
   47.6573   32.1631   45.3355 H   0  0  0  0  0  0  0  0  0  0  0  0
   45.9064   30.8771   50.3947 H   0  0  0  0  0  0  0  0  0  0  0  0
   47.2727   30.0348   49.6159 H   0  0  0  0  0  0  0  0  0  0  0  0
   48.8565   30.4675   46.5282 H   0  0  0  0  0  0  0  0  0  0  0  0
   48.5123   30.4244   49.4942 H   0  0  0  0  0  0  0  0  0  0  0  0
   49.8494   29.7041   48.5349 H   0  0  0  0  0  0  0  0  0  0  0  0
   49.6011   31.4832   48.5349 H   0  0  0  0  0  0  0  0  0  0  0  0
   46.8924   28.9207   48.3149 H   0  0  0  0  0  0  0  0  0  0  0  0
   46.7773   28.9969   46.5319 H   0  0  0  0  0  0  0  0  0  0  0  0
   49.6487   28.1620   45.4322 H   0  0  0  0  0  0  0  0  0  0  0  0
   50.9526   25.9630   46.2680 H   0  0  0  0  0  0  0  0  0  0  0  0
   49.7869   25.3343   48.6251 H   0  0  0  0  0  0  0  0  0  0  0  0
  1  6  2  0
  2  1  1  0
  3  2  2  0
  3  4  1  0
  4  5  2  0
  5  6  1  0
  5  7  1  0
  7 13  1  0
  8  7  1  0
  8  9  2  0
  9 15  1  0
  9 10  1  0
 10 12  2  0
 10 11  1  0
 13 12  1  0
 14 13  2  0
 15 16  1  0
 17 15  1  0
 18 17  1  0
 18 22  1  0
 19 20  1  0
 19 18  2  0
 20 21  2  0
 21 22  1  0
  1 23  1  0
  2 24  1  0
  3 25  1  0
  8 26  1  0
 11 27  1  0
 11 28  1  0
 15 29  1  6
 16 30  1  0
 16 31  1  0
 16 32  1  0
 17 33  1  0
 17 34  1  0
 19 35  1  0
 20 36  1  0
 21 37  1  0
M  ISO  8  23  14  24  14  25  14  26  14  29   8  30   8  31   8  32   8
M  ISO  5  33   8  34   8  35  14  36  14  37  14
M  END
>  <minimizedAffinity>  (1) 
-5.31730223

>  <minimizedRMSD>  (1) 
0.17979528

$$$$
