
     RDKit          3D

 37 39  0  0  1  0  0  0  0  0999 V2000
   44.6610   35.9870   44.3520 C   0  0  0  0  0  0  0  0  0  0  0  0
   45.2180   35.7970   43.0790 C   0  0  0  0  0  0  0  0  0  0  0  0
   46.0460   34.6890   42.8550 C   0  0  0  0  0  0  0  0  0  0  0  0
   46.2680   33.8490   43.8950 N   0  0  0  0  0  0  0  0  0  0  0  0
   45.7180   34.0540   45.1190 C   0  0  0  0  0  0  0  0  0  0  0  0
   44.9180   35.1170   45.3440 N   0  0  0  0  0  0  0  0  0  0  0  0
   45.9310   33.1830   46.2240 N   0  0  0  0  0  0  0  0  0  0  0  0
   46.8430   32.2140   46.1580 C   0  0  0  0  0  0  0  0  0  0  0  0
   46.9910   31.4010   47.2610 C   0  0  0  0  0  0  0  0  0  0  0  0
   46.2450   31.5660   48.3850 C   0  0  0  0  0  0  0  0  0  0  0  0
   46.3830   30.7550   49.5390 N   0  0  0  0  0  0  0  0  0  0  0  0
   45.3230   32.5700   48.4180 N   0  0  0  0  0  0  0  0  0  0  0  0
   45.1640   33.3830   47.3330 C   0  0  0  0  0  0  0  0  0  0  0  0
   44.3240   34.3240   47.3190 O   0  0  0  0  0  0  0  0  0  0  0  0
   47.9580   30.2750   47.3140 C   0  0  1  0  0  0  0  0  0  0  0  0
   49.0270   30.4630   48.3230 C   0  0  0  0  0  0  0  0  0  0  0  0
   47.1700   28.9980   47.5630 C   0  0  0  0  0  0  0  0  0  0  0  0
   46.4390   28.7460   46.3080 N   0  0  0  0  0  0  0  0  0  0  0  0
   46.9170   28.6240   45.0810 N   0  0  0  0  0  0  0  0  0  0  0  0
   45.9360   28.3970   44.2060 C   0  0  0  0  0  0  0  0  0  0  0  0
   44.7420   28.3680   44.9020 C   0  0  0  0  0  0  0  0  0  0  0  0
   45.1170   28.5910   46.2060 C   0  0  0  0  0  0  0  0  0  0  0  0
   44.0098   36.8534   44.5399 H   0  0  0  0  0  0  0  0  0  0  0  0
   45.0076   36.5085   42.2669 H   0  0  0  0  0  0  0  0  0  0  0  0
   46.4999   34.5074   41.8696 H   0  0  0  0  0  0  0  0  0  0  0  0
   47.4555   32.0682   45.2560 H   0  0  0  0  0  0  0  0  0  0  0  0
   45.7894   30.9266   50.3631 H   0  0  0  0  0  0  0  0  0  0  0  0
   47.0769   29.9940   49.5536 H   0  0  0  0  0  0  0  0  0  0  0  0
   48.4901   30.2210   46.3528 H   0  0  0  0  0  0  0  0  0  0  0  0
   48.5961   30.3872   49.3322 H   0  0  0  0  0  0  0  0  0  0  0  0
   49.7948   29.6861   48.1929 H   0  0  0  0  0  0  0  0  0  0  0  0
   49.4836   31.4552   48.1929 H   0  0  0  0  0  0  0  0  0  0  0  0
   47.8495   28.1628   47.7883 H   0  0  0  0  0  0  0  0  0  0  0  0
   46.4909   29.0942   48.4230 H   0  0  0  0  0  0  0  0  0  0  0  0
   46.0561   28.2575   43.1215 H   0  0  0  0  0  0  0  0  0  0  0  0
   43.7290   28.2047   44.5055 H   0  0  0  0  0  0  0  0  0  0  0  0
   44.4186   28.6358   47.0546 H   0  0  0  0  0  0  0  0  0  0  0  0
  1  6  2  0
  2  1  1  0
  3  2  2  0
  3  4  1  0
  4  5  2  0
  5  6  1  0
  5  7  1  0
  7 13  1  0
  8  7  1  0
  8  9  2  0
  9 15  1  0
  9 10  1  0
 10 12  2  0
 10 11  1  0
 13 12  1  0
 14 13  2  0
 15 17  1  0
 15 16  1  0
 18 17  1  0
 19 18  1  0
 20 21  1  0
 20 19  2  0
 21 22  2  0
 22 18  1  0
  1 23  1  0
  2 24  1  0
  3 25  1  0
  8 26  1  0
 11 27  1  0
 11 28  1  0
 15 29  1  6
 16 30  1  0
 16 31  1  0
 16 32  1  0
 17 33  1  0
 17 34  1  0
 20 35  1  0
 21 36  1  0
 22 37  1  0
M  ISO  8  23  14  24  14  25  14  26  14  29   8  30   8  31   8  32   8
M  ISO  5  33   8  34   8  35  14  36  14  37  14
M  END
>  <minimizedAffinity>  (1) 
-5.30578423

>  <minimizedRMSD>  (1) 
0.398867935

$$$$
