
     RDKit          3D

 44 48  0  0  0  0  0  0  0  0999 V2000
   44.9850   32.9910   41.3770 N   0  0  0  0  0  0  0  0  0  0  0  0
   44.8810   31.7650   41.9370 C   0  0  0  0  0  0  0  0  0  0  0  0
   43.6510   31.1810   42.0720 C   0  0  0  0  0  0  0  0  0  0  0  0
   42.4960   31.8170   41.6470 C   0  0  0  0  0  0  0  0  0  0  0  0
   41.3820   31.2390   41.7930 O   0  0  0  0  0  0  0  0  0  0  0  0
   42.6510   33.0530   41.0890 N   0  0  0  0  0  0  0  0  0  0  0  0
   43.8480   33.6210   40.9570 C   0  0  0  0  0  0  0  0  0  0  0  0
   43.8330   34.7620   40.4230 O   0  0  0  0  0  0  0  0  0  0  0  0
   46.6080   34.6090   42.1370 C   0  0  0  0  0  0  0  0  0  0  0  0
   47.7560   35.3240   41.9010 C   0  0  0  0  0  0  0  0  0  0  0  0
   48.4810   35.1990   40.7140 C   0  0  0  0  0  0  0  0  0  0  0  0
   48.0090   34.3050   39.7330 C   0  0  0  0  0  0  0  0  0  0  0  0
   46.8470   33.5780   39.9670 C   0  0  0  0  0  0  0  0  0  0  0  0
   46.1760   33.7460   41.1580 C   0  0  0  0  0  0  0  0  0  0  0  0
   44.4580   35.9530   44.9280 C   0  0  0  0  0  0  0  0  0  0  0  0
   45.0550   35.8550   43.6740 C   0  0  0  0  0  0  0  0  0  0  0  0
   45.9290   34.8130   43.4050 C   0  0  0  0  0  0  0  0  0  0  0  0
   46.1800   33.9040   44.3880 N   0  0  0  0  0  0  0  0  0  0  0  0
   45.5790   34.0230   45.6140 C   0  0  0  0  0  0  0  0  0  0  0  0
   44.7380   35.0220   45.8810 N   0  0  0  0  0  0  0  0  0  0  0  0
   41.4250   33.6540   40.6730 C   0  0  0  0  0  0  0  0  0  0  0  0
   40.9000   34.6750   41.4590 C   0  0  0  0  0  0  0  0  0  0  0  0
   39.7480   35.0570   40.8370 N   0  0  0  0  0  0  0  0  0  0  0  0
   39.5490   34.3220   39.7180 C   0  0  0  0  0  0  0  0  0  0  0  0
   38.5440   34.3310   38.7630 C   0  0  0  0  0  0  0  0  0  0  0  0
   38.6660   33.4180   37.7290 C   0  0  0  0  0  0  0  0  0  0  0  0
   39.7180   32.5360   37.6220 C   0  0  0  0  0  0  0  0  0  0  0  0
   40.7230   32.5350   38.5860 C   0  0  0  0  0  0  0  0  0  0  0  0
   40.6000   33.4390   39.6100 C   0  0  0  0  0  0  0  0  0  0  0  0
   45.7826   31.2384   42.2831 H   0  0  0  0  0  0  0  0  0  0  0  0
   43.5775   30.1830   42.5287 H   0  0  0  0  0  0  0  0  0  0  0  0
   48.1171   36.0191   42.6733 H   0  0  0  0  0  0  0  0  0  0  0  0
   49.3978   35.7841   40.5492 H   0  0  0  0  0  0  0  0  0  0  0  0
   48.5567   34.1827   38.7869 H   0  0  0  0  0  0  0  0  0  0  0  0
   46.4679   32.8765   39.2093 H   0  0  0  0  0  0  0  0  0  0  0  0
   43.7641   36.7779   45.1474 H   0  0  0  0  0  0  0  0  0  0  0  0
   44.8336   36.6028   42.8983 H   0  0  0  0  0  0  0  0  0  0  0  0
   45.7953   33.2783   46.3941 H   0  0  0  0  0  0  0  0  0  0  0  0
   41.3245   35.0871   42.3863 H   0  0  0  0  0  0  0  0  0  0  0  0
   39.1181   35.8001   41.1716 H   0  0  0  0  0  0  0  0  0  0  0  0
   37.6943   35.0269   38.8235 H   0  0  0  0  0  0  0  0  0  0  0  0
   37.8844   33.3963   36.9553 H   0  0  0  0  0  0  0  0  0  0  0  0
   39.7645   31.8336   36.7767 H   0  0  0  0  0  0  0  0  0  0  0  0
   41.5752   31.8419   38.5288 H   0  0  0  0  0  0  0  0  0  0  0  0
  1  2  1  0
  2  3  2  0
  4  5  2  0
  4  3  1  0
  6  4  1  0
  7  6  1  0
  7  1  1  0
  8  7  2  0
  9 17  1  0
 10  9  2  0
 11 10  1  0
 12 13  1  0
 12 11  2  0
 13 14  2  0
 14  1  1  0
 14  9  1  0
 15 20  2  0
 16 15  1  0
 17 16  2  0
 17 18  1  0
 18 19  2  0
 19 20  1  0
 21  6  1  0
 21 22  2  0
 23 22  1  0
 24 23  1  0
 25 24  2  0
 26 25  1  0
 27 26  2  0
 27 28  1  0
 28 29  2  0
 29 24  1  0
 29 21  1  0
  2 30  1  0
  3 31  1  0
 10 32  1  0
 11 33  1  0
 12 34  1  0
 13 35  1  0
 15 36  1  0
 16 37  1  0
 19 38  1  0
 22 39  1  0
 23 40  1  0
 25 41  1  0
 26 42  1  0
 27 43  1  0
 28 44  1  0
M  ISO  8  30  14  31  14  32  14  33  14  34  14  35  14  36  14  37  14
M  ISO  7  38  14  39  14  40   9  41  14  42  14  43  14  44  14
M  END
>  <minimizedAffinity>  (1) 
-7.7638669

>  <minimizedRMSD>  (1) 
0.780411899

$$$$
