
     RDKit          3D

 37 40  0  0  0  0  0  0  0  0999 V2000
   46.6100   34.6370   42.1470 C   0  0  0  0  0  0  0  0  0  0  0  0
   47.7800   35.3160   41.9280 C   0  0  0  0  0  0  0  0  0  0  0  0
   48.5200   35.1970   40.7520 C   0  0  0  0  0  0  0  0  0  0  0  0
   48.0470   34.3450   39.7500 C   0  0  0  0  0  0  0  0  0  0  0  0
   46.8600   33.6460   39.9550 C   0  0  0  0  0  0  0  0  0  0  0  0
   46.1750   33.8120   41.1510 C   0  0  0  0  0  0  0  0  0  0  0  0
   44.9590   33.0800   41.3310 N   0  0  0  0  0  0  0  0  0  0  0  0
   44.8110   31.8730   41.9290 C   0  0  0  0  0  0  0  0  0  0  0  0
   43.5590   31.3140   42.0160 C   0  0  0  0  0  0  0  0  0  0  0  0
   42.4550   31.9430   41.5150 C   0  0  0  0  0  0  0  0  0  0  0  0
   41.3280   31.3860   41.6200 O   0  0  0  0  0  0  0  0  0  0  0  0
   42.6410   33.1490   40.9240 N   0  0  0  0  0  0  0  0  0  0  0  0
   43.8540   33.7090   40.8300 C   0  0  0  0  0  0  0  0  0  0  0  0
   43.8920   34.8370   40.2560 O   0  0  0  0  0  0  0  0  0  0  0  0
   41.4700   33.8210   40.3900 C   0  0  0  0  0  0  0  0  0  0  0  0
   40.7090   34.7120   41.0120 C   0  0  0  0  0  0  0  0  0  0  0  0
   39.6300   35.2550   40.3570 C   0  0  0  0  0  0  0  0  0  0  0  0
   39.4060   34.8220   39.0550 C   0  0  0  0  0  0  0  0  0  0  0  0
   40.8140   33.5800   38.7730 S   0  0  0  0  0  0  0  0  0  0  0  0
   44.4320   35.9600   44.9130 C   0  0  0  0  0  0  0  0  0  0  0  0
   45.0430   35.8660   43.6660 C   0  0  0  0  0  0  0  0  0  0  0  0
   45.9210   34.8320   43.4050 C   0  0  0  0  0  0  0  0  0  0  0  0
   46.1620   33.9270   44.3890 N   0  0  0  0  0  0  0  0  0  0  0  0
   45.5560   34.0320   45.6050 C   0  0  0  0  0  0  0  0  0  0  0  0
   44.7060   35.0320   45.8640 N   0  0  0  0  0  0  0  0  0  0  0  0
   48.1528   35.9862   42.7166 H   0  0  0  0  0  0  0  0  0  0  0  0
   49.4547   35.7608   40.6160 H   0  0  0  0  0  0  0  0  0  0  0  0
   48.6061   34.2279   38.8099 H   0  0  0  0  0  0  0  0  0  0  0  0
   46.4701   32.9709   39.1790 H   0  0  0  0  0  0  0  0  0  0  0  0
   45.6845   31.3461   42.3406 H   0  0  0  0  0  0  0  0  0  0  0  0
   43.4427   30.3340   42.5020 H   0  0  0  0  0  0  0  0  0  0  0  0
   40.9400   35.0138   42.0443 H   0  0  0  0  0  0  0  0  0  0  0  0
   38.9755   35.9960   40.8392 H   0  0  0  0  0  0  0  0  0  0  0  0
   38.6092   35.1245   38.3595 H   0  0  0  0  0  0  0  0  0  0  0  0
   43.7317   36.7811   45.1260 H   0  0  0  0  0  0  0  0  0  0  0  0
   44.8270   36.6142   42.8892 H   0  0  0  0  0  0  0  0  0  0  0  0
   45.7685   33.2848   46.3838 H   0  0  0  0  0  0  0  0  0  0  0  0
  1 22  1  0
  2  1  2  0
  3  2  1  0
  4  5  1  0
  4  3  2  0
  5  6  2  0
  6  7  1  0
  6  1  1  0
  7  8  1  0
  8  9  2  0
 10 11  2  0
 10  9  1  0
 12 10  1  0
 13 12  1  0
 13  7  1  0
 14 13  2  0
 15 12  1  0
 15 16  2  0
 17 16  1  0
 18 17  2  0
 19 18  1  0
 19 15  1  0
 20 25  2  0
 21 20  1  0
 22 21  2  0
 22 23  1  0
 23 24  2  0
 24 25  1  0
  2 26  1  0
  3 27  1  0
  4 28  1  0
  5 29  1  0
  8 30  1  0
  9 31  1  0
 16 32  1  0
 17 33  1  0
 18 34  1  0
 20 35  1  0
 21 36  1  0
 24 37  1  0
M  ISO  8  26  14  27  14  28  14  29  14  30  14  31  14  32  14  33  14
M  ISO  4  34  14  35  14  36  14  37  14
M  END
>  <minimizedAffinity>  (1) 
-6.93466282

>  <minimizedRMSD>  (1) 
0.745457888

$$$$
