
     RDKit          3D

 33 35  0  0  0  0  0  0  0  0999 V2000
   46.4190   34.6160   42.1750 C   0  0  0  0  0  0  0  0  0  0  0  0
   47.6760   35.1260   41.9900 C   0  0  0  0  0  0  0  0  0  0  0  0
   48.3760   34.9710   40.7840 C   0  0  0  0  0  0  0  0  0  0  0  0
   47.7590   34.2700   39.7370 C   0  0  0  0  0  0  0  0  0  0  0  0
   46.4800   33.7530   39.9280 C   0  0  0  0  0  0  0  0  0  0  0  0
   45.8400   33.9360   41.1330 C   0  0  0  0  0  0  0  0  0  0  0  0
   44.5430   33.4000   41.2980 N   0  0  0  0  0  0  0  0  0  0  0  0
   44.2010   32.1570   41.7320 C   0  0  0  0  0  0  0  0  0  0  0  0
   42.8840   31.8020   41.8310 C   0  0  0  0  0  0  0  0  0  0  0  0
   41.8760   32.6690   41.5040 C   0  0  0  0  0  0  0  0  0  0  0  0
   40.6750   32.2990   41.6100 O   0  0  0  0  0  0  0  0  0  0  0  0
   42.2490   33.9080   41.0710 N   0  0  0  0  0  0  0  0  0  0  0  0
   43.5270   34.2570   40.9730 C   0  0  0  0  0  0  0  0  0  0  0  0
   43.7280   35.4470   40.5540 O   0  0  0  0  0  0  0  0  0  0  0  0
   41.1620   34.8330   40.7210 C   0  0  0  0  0  0  0  0  0  0  0  0
   41.3000   35.2990   39.4490 F   0  0  0  0  0  0  0  0  0  0  0  0
   39.9400   34.1730   40.7980 F   0  0  0  0  0  0  0  0  0  0  0  0
   41.1350   35.9280   41.5700 F   0  0  0  0  0  0  0  0  0  0  0  0
   44.4400   36.0360   45.0550 C   0  0  0  0  0  0  0  0  0  0  0  0
   45.0090   35.9200   43.7850 C   0  0  0  0  0  0  0  0  0  0  0  0
   45.7840   34.8340   43.4620 C   0  0  0  0  0  0  0  0  0  0  0  0
   45.9750   33.8780   44.4230 N   0  0  0  0  0  0  0  0  0  0  0  0
   45.4120   34.0120   45.6520 C   0  0  0  0  0  0  0  0  0  0  0  0
   44.6640   35.0590   45.9660 N   0  0  0  0  0  0  0  0  0  0  0  0
   48.1532   35.6758   42.8146 H   0  0  0  0  0  0  0  0  0  0  0  0
   49.3859   35.3897   40.6621 H   0  0  0  0  0  0  0  0  0  0  0  0
   48.2787   34.1305   38.7776 H   0  0  0  0  0  0  0  0  0  0  0  0
   45.9824   33.1997   39.1179 H   0  0  0  0  0  0  0  0  0  0  0  0
   44.9856   31.4356   42.0040 H   0  0  0  0  0  0  0  0  0  0  0  0
   42.6274   30.7920   42.1831 H   0  0  0  0  0  0  0  0  0  0  0  0
   43.8195   36.9073   45.3116 H   0  0  0  0  0  0  0  0  0  0  0  0
   44.8345   36.7066   43.0361 H   0  0  0  0  0  0  0  0  0  0  0  0
   45.5819   33.2300   46.4067 H   0  0  0  0  0  0  0  0  0  0  0  0
  1 21  1  0
  2  1  2  0
  3  2  1  0
  4  5  1  0
  4  3  2  0
  5  6  2  0
  6  7  1  0
  6  1  1  0
  7  8  1  0
  8  9  2  0
 10 11  2  0
 10  9  1  0
 12 10  1  0
 13 12  1  0
 13  7  1  0
 14 13  2  0
 15 17  1  0
 15 12  1  0
 15 18  1  0
 16 15  1  0
 19 24  2  0
 20 19  1  0
 21 20  2  0
 21 22  1  0
 22 23  2  0
 23 24  1  0
  2 25  1  0
  3 26  1  0
  4 27  1  0
  5 28  1  0
  8 29  1  0
  9 30  1  0
 19 31  1  0
 20 32  1  0
 23 33  1  0
M  ISO  8  25  14  26  14  27  14  28  14  29  14  30  14  31  14  32  14
M  ISO  1  33  14
M  END
>  <minimizedAffinity>  (1) 
-6.71681356

>  <minimizedRMSD>  (1) 
0.291151762

$$$$
