
     RDKit          3D

 36 39  0  0  0  0  0  0  0  0999 V2000
   46.6230   34.6410   42.1390 C   0  0  0  0  0  0  0  0  0  0  0  0
   47.7800   35.3390   41.9310 C   0  0  0  0  0  0  0  0  0  0  0  0
   48.5230   35.2250   40.7580 C   0  0  0  0  0  0  0  0  0  0  0  0
   48.0560   34.3570   39.7570 C   0  0  0  0  0  0  0  0  0  0  0  0
   46.8830   33.6480   39.9620 C   0  0  0  0  0  0  0  0  0  0  0  0
   46.1900   33.8010   41.1430 C   0  0  0  0  0  0  0  0  0  0  0  0
   44.9900   33.0610   41.3290 N   0  0  0  0  0  0  0  0  0  0  0  0
   44.8540   31.8450   41.9090 C   0  0  0  0  0  0  0  0  0  0  0  0
   43.6230   31.2760   42.0070 C   0  0  0  0  0  0  0  0  0  0  0  0
   42.4920   31.8940   41.5320 C   0  0  0  0  0  0  0  0  0  0  0  0
   41.3640   31.3430   41.6360 O   0  0  0  0  0  0  0  0  0  0  0  0
   42.6740   33.1090   40.9580 N   0  0  0  0  0  0  0  0  0  0  0  0
   43.8850   33.6750   40.8600 C   0  0  0  0  0  0  0  0  0  0  0  0
   43.8790   34.8160   40.2940 O   0  0  0  0  0  0  0  0  0  0  0  0
   41.4620   33.7280   40.4710 C   0  0  0  0  0  0  0  0  0  0  0  0
   40.5600   34.5660   41.2770 C   0  0  0  0  0  0  0  0  0  0  0  0
   39.3050   34.9360   39.9340 S   0  0  0  0  0  0  0  0  0  0  0  0
   40.2180   33.9280   38.6240 C   0  0  0  0  0  0  0  0  0  0  0  0
   41.2270   33.4620   39.1840 N   0  0  0  0  0  0  0  0  0  0  0  0
   44.4410   35.9390   44.9210 C   0  0  0  0  0  0  0  0  0  0  0  0
   45.0450   35.8650   43.6670 C   0  0  0  0  0  0  0  0  0  0  0  0
   45.9230   34.8350   43.4060 C   0  0  0  0  0  0  0  0  0  0  0  0
   46.1780   33.9100   44.3860 N   0  0  0  0  0  0  0  0  0  0  0  0
   45.5650   34.0180   45.6000 C   0  0  0  0  0  0  0  0  0  0  0  0
   44.7090   35.0150   45.8660 N   0  0  0  0  0  0  0  0  0  0  0  0
   48.1380   36.0166   42.7201 H   0  0  0  0  0  0  0  0  0  0  0  0
   49.4508   35.7995   40.6193 H   0  0  0  0  0  0  0  0  0  0  0  0
   48.6169   34.2410   38.8179 H   0  0  0  0  0  0  0  0  0  0  0  0
   46.5068   32.9660   39.1852 H   0  0  0  0  0  0  0  0  0  0  0  0
   45.7373   31.3188   42.2999 H   0  0  0  0  0  0  0  0  0  0  0  0
   43.5298   30.2884   42.4823 H   0  0  0  0  0  0  0  0  0  0  0  0
   40.6070   34.8764   42.3313 H   0  0  0  0  0  0  0  0  0  0  0  0
   39.9181   33.7819   37.5758 H   0  0  0  0  0  0  0  0  0  0  0  0
   43.7401   36.7576   45.1416 H   0  0  0  0  0  0  0  0  0  0  0  0
   44.8240   36.6182   42.8963 H   0  0  0  0  0  0  0  0  0  0  0  0
   45.7779   33.2702   46.3781 H   0  0  0  0  0  0  0  0  0  0  0  0
  1 22  1  0
  2  1  2  0
  3  2  1  0
  4  5  1  0
  4  3  2  0
  5  6  2  0
  6  7  1  0
  6  1  1  0
  7  8  1  0
  8  9  2  0
 10 11  2  0
 10  9  1  0
 12 10  1  0
 13 12  1  0
 13  7  1  0
 14 13  2  0
 15 12  1  0
 15 16  2  0
 17 16  1  0
 18 19  2  0
 18 17  1  0
 19 15  1  0
 20 25  2  0
 21 20  1  0
 22 21  2  0
 22 23  1  0
 23 24  2  0
 24 25  1  0
  2 26  1  0
  3 27  1  0
  4 28  1  0
  5 29  1  0
  8 30  1  0
  9 31  1  0
 16 32  1  0
 18 33  1  0
 20 34  1  0
 21 35  1  0
 24 36  1  0
M  ISO  8  26  14  27  14  28  14  29  14  30  14  31  14  32  14  33  14
M  ISO  3  34  14  35  14  36  14
M  END
>  <minimizedAffinity>  (1) 
-6.71102667

>  <minimizedRMSD>  (1) 
0.506371439

$$$$
