
     RDKit          3D

 25 27  0  0  0  0  0  0  0  0999 V2000
   44.7530   35.2010   45.5240 C   0  0  0  0  0  0  0  0  0  0  0  0
   44.2830   35.7270   44.3090 C   0  0  0  0  0  0  0  0  0  0  0  0
   44.6720   35.0750   43.1250 C   0  0  0  0  0  0  0  0  0  0  0  0
   45.4750   33.9810   43.2060 N   0  0  0  0  0  0  0  0  0  0  0  0
   45.9170   33.4950   44.4100 C   0  0  0  0  0  0  0  0  0  0  0  0
   45.5460   34.1120   45.5180 N   0  0  0  0  0  0  0  0  0  0  0  0
   46.7570   32.3600   44.4920 N   0  0  0  0  0  0  0  0  0  0  0  0
   47.4660   32.0460   43.3750 C   0  0  0  0  0  0  0  0  0  0  0  0
   48.1970   30.9130   43.7380 C   0  0  0  0  0  0  0  0  0  0  0  0
   47.9360   30.5770   44.9970 N   0  0  0  0  0  0  0  0  0  0  0  0
   47.0410   31.4650   45.4870 C   0  0  0  0  0  0  0  0  0  0  0  0
   46.4580   31.4990   46.7990 C   0  0  0  0  0  0  0  0  0  0  0  0
   45.5840   30.4740   47.0950 C   0  0  0  0  0  0  0  0  0  0  0  0
   44.9170   30.3090   48.2820 C   0  0  0  0  0  0  0  0  0  0  0  0
   45.1220   31.2290   49.2660 N   0  0  0  0  0  0  0  0  0  0  0  0
   45.9690   32.2400   49.0080 C   0  0  0  0  0  0  0  0  0  0  0  0
   46.5850   32.3380   47.8290 N   0  0  0  0  0  0  0  0  0  0  0  0
   44.4747   35.6763   46.4761 H   0  0  0  0  0  0  0  0  0  0  0  0
   43.6350   36.6155   44.2846 H   0  0  0  0  0  0  0  0  0  0  0  0
   44.3312   35.4452   42.1469 H   0  0  0  0  0  0  0  0  0  0  0  0
   47.4641   32.5662   42.4058 H   0  0  0  0  0  0  0  0  0  0  0  0
   48.8908   30.3747   43.0755 H   0  0  0  0  0  0  0  0  0  0  0  0
   45.4064   29.7234   46.3107 H   0  0  0  0  0  0  0  0  0  0  0  0
   44.2363   29.4586   48.4352 H   0  0  0  0  0  0  0  0  0  0  0  0
   46.1573   32.9990   49.7816 H   0  0  0  0  0  0  0  0  0  0  0  0
  2  1  2  0
  3  4  2  0
  3  2  1  0
  4  5  1  0
  5  7  1  0
  5  6  2  0
  6  1  1  0
  7 11  1  0
  8  9  2  0
  8  7  1  0
  9 10  1  0
 10 11  2  0
 11 12  1  0
 12 13  2  0
 12 17  1  0
 13 14  1  0
 14 15  2  0
 16 15  1  0
 17 16  2  0
  1 18  1  0
  2 19  1  0
  3 20  1  0
  8 21  1  0
  9 22  1  0
 13 23  1  0
 14 24  1  0
 16 25  1  0
M  ISO  8  18  14  19  14  20  14  21  14  22  14  23  14  24  14  25  14
M  END
>  <minimizedAffinity>  (1) 
-4.78356123

>  <minimizedRMSD>  (1) 
3.27327991

$$$$
