
     RDKit          3D

 39 41  0  0  0  0  0  0  0  0999 V2000
   46.5090   34.6230   42.1040 C   0  0  0  0  0  0  0  0  0  0  0  0
   47.7390   35.2020   41.9170 C   0  0  0  0  0  0  0  0  0  0  0  0
   48.4470   35.0470   40.7170 C   0  0  0  0  0  0  0  0  0  0  0  0
   47.8810   34.2810   39.6910 C   0  0  0  0  0  0  0  0  0  0  0  0
   46.6380   33.7000   39.8920 C   0  0  0  0  0  0  0  0  0  0  0  0
   45.9760   33.8810   41.0910 C   0  0  0  0  0  0  0  0  0  0  0  0
   44.7030   33.2710   41.2610 N   0  0  0  0  0  0  0  0  0  0  0  0
   44.4430   32.0370   41.7560 C   0  0  0  0  0  0  0  0  0  0  0  0
   43.1520   31.5970   41.8540 C   0  0  0  0  0  0  0  0  0  0  0  0
   42.0940   32.3860   41.4580 C   0  0  0  0  0  0  0  0  0  0  0  0
   40.9240   31.9400   41.5670 O   0  0  0  0  0  0  0  0  0  0  0  0
   42.3920   33.6220   40.9650 N   0  0  0  0  0  0  0  0  0  0  0  0
   43.6510   34.0470   40.8690 C   0  0  0  0  0  0  0  0  0  0  0  0
   43.7830   35.2080   40.3960 O   0  0  0  0  0  0  0  0  0  0  0  0
   41.2550   34.4470   40.5470 C   0  0  0  0  0  0  0  0  0  0  0  0
   41.0980   35.6620   41.4160 C   0  0  0  0  0  0  0  0  0  0  0  0
   41.3180   34.7440   39.0790 C   0  0  0  0  0  0  0  0  0  0  0  0
   44.4420   36.0320   44.9300 C   0  0  0  0  0  0  0  0  0  0  0  0
   45.0310   35.9210   43.6650 C   0  0  0  0  0  0  0  0  0  0  0  0
   45.8480   34.8380   43.3790 C   0  0  0  0  0  0  0  0  0  0  0  0
   46.0550   33.9030   44.3600 N   0  0  0  0  0  0  0  0  0  0  0  0
   45.4640   34.0430   45.5840 C   0  0  0  0  0  0  0  0  0  0  0  0
   44.6800   35.0740   45.8680 N   0  0  0  0  0  0  0  0  0  0  0  0
   48.1795   35.8015   42.7273 H   0  0  0  0  0  0  0  0  0  0  0  0
   49.4313   35.5196   40.5838 H   0  0  0  0  0  0  0  0  0  0  0  0
   48.4145   34.1420   38.7391 H   0  0  0  0  0  0  0  0  0  0  0  0
   46.1789   33.0948   39.0964 H   0  0  0  0  0  0  0  0  0  0  0  0
   45.2708   31.3887   42.0792 H   0  0  0  0  0  0  0  0  0  0  0  0
   42.9541   30.5929   42.2571 H   0  0  0  0  0  0  0  0  0  0  0  0
   40.3299   33.8710   40.6968 H   0  0  0  0  0  0  0  0  0  0  0  0
   41.1366   35.3635   42.4740 H   0  0  0  0  0  0  0  0  0  0  0  0
   41.9120   36.3712   41.2052 H   0  0  0  0  0  0  0  0  0  0  0  0
   40.1305   36.1410   41.2052 H   0  0  0  0  0  0  0  0  0  0  0  0
   41.5442   35.8101   38.9300 H   0  0  0  0  0  0  0  0  0  0  0  0
   42.1066   34.1335   38.6149 H   0  0  0  0  0  0  0  0  0  0  0  0
   40.3494   34.5063   38.6149 H   0  0  0  0  0  0  0  0  0  0  0  0
   43.7913   36.8873   45.1647 H   0  0  0  0  0  0  0  0  0  0  0  0
   44.8463   36.6902   42.9007 H   0  0  0  0  0  0  0  0  0  0  0  0
   45.6436   33.2793   46.3551 H   0  0  0  0  0  0  0  0  0  0  0  0
  1 20  1  0
  2  1  2  0
  3  2  1  0
  4  5  1  0
  4  3  2  0
  5  6  2  0
  6  7  1  0
  6  1  1  0
  7  8  1  0
  8  9  2  0
 10 11  2  0
 10  9  1  0
 12 10  1  0
 13 12  1  0
 13  7  1  0
 14 13  2  0
 15 12  1  0
 15 16  1  0
 17 15  1  0
 18 23  2  0
 19 18  1  0
 20 19  2  0
 20 21  1  0
 21 22  2  0
 22 23  1  0
  2 24  1  0
  3 25  1  0
  4 26  1  0
  5 27  1  0
  8 28  1  0
  9 29  1  0
 15 30  1  0
 16 31  1  0
 16 32  1  0
 16 33  1  0
 17 34  1  0
 17 35  1  0
 17 36  1  0
 18 37  1  0
 19 38  1  0
 22 39  1  0
M  ISO  8  24  14  25  14  26  14  27  14  28  14  29  14  30   8  31   8
M  ISO  8  32   8  33   8  34   8  35   8  36   8  37  14  38  14  39  14
M  END
>  <minimizedAffinity>  (1) 
-6.52532959

>  <minimizedRMSD>  (1) 
0.129855111

$$$$
