
     RDKit          3D

 37 40  0  0  0  0  0  0  0  0999 V2000
   46.5820   34.6660   42.1560 C   0  0  0  0  0  0  0  0  0  0  0  0
   47.7880   35.2890   41.9880 C   0  0  0  0  0  0  0  0  0  0  0  0
   48.5250   35.1630   40.7950 C   0  0  0  0  0  0  0  0  0  0  0  0
   47.9930   34.3740   39.7560 C   0  0  0  0  0  0  0  0  0  0  0  0
   46.7660   33.7440   39.9310 C   0  0  0  0  0  0  0  0  0  0  0  0
   46.0940   33.9060   41.1230 C   0  0  0  0  0  0  0  0  0  0  0  0
   44.8330   33.2480   41.2810 N   0  0  0  0  0  0  0  0  0  0  0  0
   44.6080   31.9910   41.7290 C   0  0  0  0  0  0  0  0  0  0  0  0
   43.3260   31.5150   41.8190 C   0  0  0  0  0  0  0  0  0  0  0  0
   42.2490   32.2860   41.4640 C   0  0  0  0  0  0  0  0  0  0  0  0
   41.0810   31.8060   41.5620 O   0  0  0  0  0  0  0  0  0  0  0  0
   42.5060   33.5450   41.0170 N   0  0  0  0  0  0  0  0  0  0  0  0
   43.7550   34.0080   40.9300 C   0  0  0  0  0  0  0  0  0  0  0  0
   43.8620   35.1970   40.4990 O   0  0  0  0  0  0  0  0  0  0  0  0
   41.3660   34.3170   40.6570 C   0  0  0  0  0  0  0  0  0  0  0  0
   41.3230   35.6520   41.0060 C   0  0  0  0  0  0  0  0  0  0  0  0
   40.1120   36.1730   40.5400 C   0  0  0  0  0  0  0  0  0  0  0  0
   39.4700   35.1350   39.9280 N   0  0  0  0  0  0  0  0  0  0  0  0
   40.2160   34.0540   40.0030 N   0  0  0  0  0  0  0  0  0  0  0  0
   44.4560   35.9900   44.9780 C   0  0  0  0  0  0  0  0  0  0  0  0
   45.0620   35.9070   43.7240 C   0  0  0  0  0  0  0  0  0  0  0  0
   45.8980   34.8570   43.4240 C   0  0  0  0  0  0  0  0  0  0  0  0
   46.1150   33.9050   44.3920 N   0  0  0  0  0  0  0  0  0  0  0  0
   45.5090   34.0080   45.6160 C   0  0  0  0  0  0  0  0  0  0  0  0
   44.6950   35.0350   45.9010 N   0  0  0  0  0  0  0  0  0  0  0  0
   48.1923   35.9040   42.8055 H   0  0  0  0  0  0  0  0  0  0  0  0
   49.4944   35.6692   40.6768 H   0  0  0  0  0  0  0  0  0  0  0  0
   48.5452   34.2571   38.8119 H   0  0  0  0  0  0  0  0  0  0  0  0
   46.3376   33.1248   39.1290 H   0  0  0  0  0  0  0  0  0  0  0  0
   45.4540   31.3514   42.0209 H   0  0  0  0  0  0  0  0  0  0  0  0
   43.1571   30.4913   42.1843 H   0  0  0  0  0  0  0  0  0  0  0  0
   42.1009   36.2058   41.5520 H   0  0  0  0  0  0  0  0  0  0  0  0
   39.7508   37.2067   40.6449 H   0  0  0  0  0  0  0  0  0  0  0  0
   38.5453   35.1898   39.4776 H   0  0  0  0  0  0  0  0  0  0  0  0
   43.7863   36.8303   45.2133 H   0  0  0  0  0  0  0  0  0  0  0  0
   44.8701   36.6857   42.9711 H   0  0  0  0  0  0  0  0  0  0  0  0
   45.6930   33.2359   46.3776 H   0  0  0  0  0  0  0  0  0  0  0  0
  1 22  1  0
  2  1  2  0
  3  2  1  0
  4  5  1  0
  4  3  2  0
  5  6  2  0
  6  7  1  0
  6  1  1  0
  7  8  1  0
  8  9  2  0
 10 11  2  0
 10  9  1  0
 12 10  1  0
 13 12  1  0
 13  7  1  0
 14 13  2  0
 15 16  1  0
 15 12  1  0
 17 16  2  0
 18 19  1  0
 18 17  1  0
 19 15  2  0
 20 25  2  0
 21 20  1  0
 22 21  2  0
 22 23  1  0
 23 24  2  0
 24 25  1  0
  2 26  1  0
  3 27  1  0
  4 28  1  0
  5 29  1  0
  8 30  1  0
  9 31  1  0
 16 32  1  0
 17 33  1  0
 18 34  1  0
 20 35  1  0
 21 36  1  0
 24 37  1  0
M  ISO  8  26  14  27  14  28  14  29  14  30  14  31  14  32  14  33  14
M  ISO  4  34   9  35  14  36  14  37  14
M  END
>  <minimizedAffinity>  (1) 
-7.5645957

>  <minimizedRMSD>  (1) 
0.111732356

$$$$
