
     RDKit          3D

 37 39  0  0  1  0  0  0  0  0999 V2000
   47.8460   34.8910   41.3920 C   0  0  2  0  0  0  0  0  0  0  0  0
   49.0010   35.7010   41.6860 C   0  0  0  0  0  0  0  0  0  0  0  0
   50.0200   34.7920   42.3930 C   0  0  0  0  0  0  0  0  0  0  0  0
   49.4750   33.3990   42.3900 C   0  0  0  0  0  0  0  0  0  0  0  0
   48.0000   33.6170   42.2940 C   0  0  1  0  0  0  0  0  0  0  0  0
   47.6550   34.3540   40.0280 C   0  0  0  0  0  0  0  0  0  0  0  0
   48.4950   34.8000   39.0110 C   0  0  0  0  0  0  0  0  0  0  0  0
   48.3510   34.3090   37.7260 C   0  0  0  0  0  0  0  0  0  0  0  0
   47.3590   33.3900   37.5420 N   0  0  0  0  0  0  0  0  0  0  0  0
   46.5590   32.9730   38.5350 C   0  0  0  0  0  0  0  0  0  0  0  0
   46.7110   33.4580   39.7830 N   0  0  0  0  0  0  0  0  0  0  0  0
   47.4270   33.9490   43.6440 C   0  0  0  0  0  0  0  0  0  0  0  0
   46.2480   33.1120   43.9500 C   0  0  0  0  0  0  0  0  0  0  0  0
   45.9830   32.6950   45.3120 C   0  0  0  0  0  0  0  0  0  0  0  0
   45.6840   33.2710   46.5150 C   0  0  0  0  0  0  0  0  0  0  0  0
   45.4440   32.6080   47.6940 C   0  0  0  0  0  0  0  0  0  0  0  0
   45.5030   31.2670   47.6840 N   0  0  0  0  0  0  0  0  0  0  0  0
   45.7930   30.6490   46.5250 C   0  0  0  0  0  0  0  0  0  0  0  0
   46.0220   31.3270   45.3910 N   0  0  0  0  0  0  0  0  0  0  0  0
   46.9944   35.5689   41.5507 H   0  0  0  0  0  0  0  0  0  0  0  0
   49.4312   36.0976   40.7545 H   0  0  0  0  0  0  0  0  0  0  0  0
   48.7291   36.5555   42.3231 H   0  0  0  0  0  0  0  0  0  0  0  0
   50.9798   34.8187   41.8564 H   0  0  0  0  0  0  0  0  0  0  0  0
   50.1878   35.1351   43.4246 H   0  0  0  0  0  0  0  0  0  0  0  0
   49.8479   32.8301   41.5255 H   0  0  0  0  0  0  0  0  0  0  0  0
   49.7709   32.8152   43.2741 H   0  0  0  0  0  0  0  0  0  0  0  0
   47.4888   32.7243   41.9045 H   0  0  0  0  0  0  0  0  0  0  0  0
   49.2747   35.5444   39.2300 H   0  0  0  0  0  0  0  0  0  0  0  0
   48.9983   34.6399   36.9005 H   0  0  0  0  0  0  0  0  0  0  0  0
   45.7740   32.2305   38.3291 H   0  0  0  0  0  0  0  0  0  0  0  0
   48.1964   33.7778   44.4113 H   0  0  0  0  0  0  0  0  0  0  0  0
   47.1110   35.0026   43.6364 H   0  0  0  0  0  0  0  0  0  0  0  0
   45.3646   33.6747   43.6138 H   0  0  0  0  0  0  0  0  0  0  0  0
   46.4736   32.1651   43.4378 H   0  0  0  0  0  0  0  0  0  0  0  0
   45.6305   34.3694   46.5416 H   0  0  0  0  0  0  0  0  0  0  0  0
   45.2108   33.1587   48.6172 H   0  0  0  0  0  0  0  0  0  0  0  0
   45.8440   29.5503   46.5068 H   0  0  0  0  0  0  0  0  0  0  0  0
  1  2  1  0
  1  5  1  0
  2  3  1  0
  4  3  1  0
  5  4  1  0
  5 12  1  0
  6  1  1  0
  7  6  2  0
  8  7  1  0
  9  8  2  0
  9 10  1  0
 10 11  2  0
 11  6  1  0
 12 13  1  0
 13 14  1  0
 14 19  1  0
 14 15  2  0
 15 16  1  0
 17 16  2  0
 18 17  1  0
 19 18  2  0
  1 20  1  1
  2 21  1  0
  2 22  1  0
  3 23  1  0
  3 24  1  0
  4 25  1  0
  4 26  1  0
  5 27  1  6
  7 28  1  0
  8 29  1  0
 10 30  1  0
 12 31  1  0
 12 32  1  0
 13 33  1  0
 13 34  1  0
 15 35  1  0
 16 36  1  0
 18 37  1  0
M  ISO  8  20  13  21  13  22  13  23  13  24  13  25  13  26  13  27  13
M  ISO  8  28  14  29  14  30  14  31   8  32   8  33   8  34   8  35  14
M  ISO  2  36  14  37  14
M  END
>  <minimizedAffinity>  (1) 
-5.18425941

>  <minimizedRMSD>  (1) 
2.95906258

$$$$
