
     RDKit          3D

 53 57  0  0  0  0  0  0  0  0999 V2000
   46.6130   34.5810   42.2930 C   0  0  0  0  0  0  0  0  0  0  0  0
   47.8190   35.2090   42.1480 C   0  0  0  0  0  0  0  0  0  0  0  0
   48.5350   35.1620   40.9370 C   0  0  0  0  0  0  0  0  0  0  0  0
   47.9780   34.4450   39.8610 C   0  0  0  0  0  0  0  0  0  0  0  0
   46.7550   33.8100   40.0150 C   0  0  0  0  0  0  0  0  0  0  0  0
   46.1060   33.8930   41.2240 C   0  0  0  0  0  0  0  0  0  0  0  0
   44.8400   33.2270   41.3600 N   0  0  0  0  0  0  0  0  0  0  0  0
   44.6060   31.9680   41.7780 C   0  0  0  0  0  0  0  0  0  0  0  0
   43.3320   31.4800   41.8520 C   0  0  0  0  0  0  0  0  0  0  0  0
   42.2550   32.2550   41.5040 C   0  0  0  0  0  0  0  0  0  0  0  0
   41.0880   31.7690   41.5840 O   0  0  0  0  0  0  0  0  0  0  0  0
   42.5100   33.5270   41.0810 N   0  0  0  0  0  0  0  0  0  0  0  0
   43.7650   33.9980   41.0120 C   0  0  0  0  0  0  0  0  0  0  0  0
   43.8740   35.1920   40.6060 O   0  0  0  0  0  0  0  0  0  0  0  0
   41.3740   34.3060   40.7260 C   0  0  0  0  0  0  0  0  0  0  0  0
   41.3250   35.6330   41.0990 C   0  0  0  0  0  0  0  0  0  0  0  0
   40.1200   36.1570   40.6320 C   0  0  0  0  0  0  0  0  0  0  0  0
   39.4840   35.1370   39.9960 N   0  0  0  0  0  0  0  0  0  0  0  0
   40.2290   34.0500   40.0560 N   0  0  0  0  0  0  0  0  0  0  0  0
   44.4740   35.6680   45.2140 C   0  0  0  0  0  0  0  0  0  0  0  0
   45.0440   35.6710   43.9370 C   0  0  0  0  0  0  0  0  0  0  0  0
   45.9510   34.6880   43.5890 C   0  0  0  0  0  0  0  0  0  0  0  0
   46.2680   33.7280   44.5180 N   0  0  0  0  0  0  0  0  0  0  0  0
   45.6870   33.7570   45.7610 C   0  0  0  0  0  0  0  0  0  0  0  0
   44.8130   34.7000   46.1070 N   0  0  0  0  0  0  0  0  0  0  0  0
   46.0280   32.7190   46.7710 C   0  0  0  0  0  0  0  0  0  0  0  0
   46.0840   31.3270   46.1890 C   0  0  0  0  0  0  0  0  0  0  0  0
   45.3930   30.2880   46.9930 C   0  0  0  0  0  0  0  0  0  0  0  0
   45.4930   30.4270   48.4770 C   0  0  0  0  0  0  0  0  0  0  0  0
   45.6620   31.8170   48.9870 C   0  0  0  0  0  0  0  0  0  0  0  0
   45.1090   32.7790   47.9750 C   0  0  0  0  0  0  0  0  0  0  0  0
   48.2401   35.7647   42.9988 H   0  0  0  0  0  0  0  0  0  0  0  0
   49.5042   35.6720   40.8341 H   0  0  0  0  0  0  0  0  0  0  0  0
   48.5116   34.3887   38.9007 H   0  0  0  0  0  0  0  0  0  0  0  0
   46.3101   33.2474   39.1810 H   0  0  0  0  0  0  0  0  0  0  0  0
   45.4514   31.3246   42.0634 H   0  0  0  0  0  0  0  0  0  0  0  0
   43.1672   30.4484   42.1964 H   0  0  0  0  0  0  0  0  0  0  0  0
   42.0962   36.1787   41.6624 H   0  0  0  0  0  0  0  0  0  0  0  0
   39.7569   37.1882   40.7536 H   0  0  0  0  0  0  0  0  0  0  0  0
   38.5635   35.2029   39.5385 H   0  0  0  0  0  0  0  0  0  0  0  0
   43.7518   36.4483   45.4960 H   0  0  0  0  0  0  0  0  0  0  0  0
   44.7716   36.4526   43.2125 H   0  0  0  0  0  0  0  0  0  0  0  0
   47.0458   32.9546   47.1152 H   0  0  0  0  0  0  0  0  0  0  0  0
   45.6192   31.3538   45.1924 H   0  0  0  0  0  0  0  0  0  0  0  0
   47.1467   31.0440   46.1648 H   0  0  0  0  0  0  0  0  0  0  0  0
   44.3264   30.3106   46.7250 H   0  0  0  0  0  0  0  0  0  0  0  0
   45.9010   29.3428   46.7512 H   0  0  0  0  0  0  0  0  0  0  0  0
   44.5731   30.0151   48.9176 H   0  0  0  0  0  0  0  0  0  0  0  0
   46.4072   29.8885   48.7672 H   0  0  0  0  0  0  0  0  0  0  0  0
   45.1201   31.9296   49.9376 H   0  0  0  0  0  0  0  0  0  0  0  0
   46.7293   32.0249   49.1534 H   0  0  0  0  0  0  0  0  0  0  0  0
   45.0929   33.7978   48.3894 H   0  0  0  0  0  0  0  0  0  0  0  0
   44.0774   32.5146   47.6995 H   0  0  0  0  0  0  0  0  0  0  0  0
  1 22  1  0
  2  1  2  0
  3  2  1  0
  4  5  1  0
  4  3  2  0
  5  6  2  0
  6  7  1  0
  6  1  1  0
  7  8  1  0
  8  9  2  0
 10 11  2  0
 10  9  1  0
 12 10  1  0
 13 12  1  0
 13  7  1  0
 14 13  2  0
 15 12  1  0
 15 16  1  0
 17 16  2  0
 18 19  1  0
 18 17  1  0
 19 15  2  0
 20 25  2  0
 21 20  1  0
 22 21  2  0
 22 23  1  0
 23 24  2  0
 24 25  1  0
 24 26  1  0
 26 31  1  0
 27 26  1  0
 27 28  1  0
 28 29  1  0
 29 30  1  0
 31 30  1  0
  2 32  1  0
  3 33  1  0
  4 34  1  0
  5 35  1  0
  8 36  1  0
  9 37  1  0
 16 38  1  0
 17 39  1  0
 18 40  1  0
 20 41  1  0
 21 42  1  0
 26 43  1  0
 27 44  1  0
 27 45  1  0
 28 46  1  0
 28 47  1  0
 29 48  1  0
 29 49  1  0
 30 50  1  0
 30 51  1  0
 31 52  1  0
 31 53  1  0
M  ISO  8  32  14  33  14  34  14  35  14  36  14  37  14  38  14  39  14
M  ISO  8  40   9  41  14  42  14  43  13  44  13  45  13  46  13  47  13
M  ISO  6  48  13  49  13  50  13  51  13  52  13  53  13
M  END
>  <minimizedAffinity>  (1) 
-9.05667496

>  <minimizedRMSD>  (1) 
0.344198167

$$$$
