
     RDKit          3D

 49 53  0  0  0  0  0  0  0  0999 V2000
   46.5800   34.6560   42.1630 C   0  0  0  0  0  0  0  0  0  0  0  0
   47.7900   35.2780   41.9880 C   0  0  0  0  0  0  0  0  0  0  0  0
   48.5230   35.1580   40.7980 C   0  0  0  0  0  0  0  0  0  0  0  0
   47.9920   34.3720   39.7600 C   0  0  0  0  0  0  0  0  0  0  0  0
   46.7620   33.7390   39.9360 C   0  0  0  0  0  0  0  0  0  0  0  0
   46.0940   33.8990   41.1290 C   0  0  0  0  0  0  0  0  0  0  0  0
   44.8350   33.2410   41.2900 N   0  0  0  0  0  0  0  0  0  0  0  0
   44.6060   31.9890   41.7440 C   0  0  0  0  0  0  0  0  0  0  0  0
   43.3290   31.5100   41.8360 C   0  0  0  0  0  0  0  0  0  0  0  0
   42.2500   32.2810   41.4730 C   0  0  0  0  0  0  0  0  0  0  0  0
   41.0880   31.7990   41.5740 O   0  0  0  0  0  0  0  0  0  0  0  0
   42.5110   33.5330   41.0210 N   0  0  0  0  0  0  0  0  0  0  0  0
   43.7600   34.0000   40.9310 C   0  0  0  0  0  0  0  0  0  0  0  0
   43.8660   35.1870   40.4930 O   0  0  0  0  0  0  0  0  0  0  0  0
   41.3720   34.3030   40.6540 C   0  0  0  0  0  0  0  0  0  0  0  0
   41.3200   35.6360   40.9970 C   0  0  0  0  0  0  0  0  0  0  0  0
   40.1120   36.1590   40.5260 C   0  0  0  0  0  0  0  0  0  0  0  0
   39.4770   35.1170   39.9130 N   0  0  0  0  0  0  0  0  0  0  0  0
   40.2220   34.0440   39.9950 N   0  0  0  0  0  0  0  0  0  0  0  0
   44.4340   35.9490   44.9850 C   0  0  0  0  0  0  0  0  0  0  0  0
   45.0320   35.8620   43.7230 C   0  0  0  0  0  0  0  0  0  0  0  0
   45.9070   34.8440   43.4270 C   0  0  0  0  0  0  0  0  0  0  0  0
   46.1670   33.9210   44.4210 N   0  0  0  0  0  0  0  0  0  0  0  0
   45.5730   34.0280   45.6380 C   0  0  0  0  0  0  0  0  0  0  0  0
   44.7230   35.0170   45.9250 N   0  0  0  0  0  0  0  0  0  0  0  0
   45.9010   33.0310   46.6000 N   0  0  0  0  0  0  0  0  0  0  0  0
   45.1180   32.8190   47.8280 C   0  0  0  0  0  0  0  0  0  0  0  0
   45.6330   31.5360   48.4170 C   0  0  0  0  0  0  0  0  0  0  0  0
   47.0770   31.5330   47.9660 C   0  0  0  0  0  0  0  0  0  0  0  0
   46.9960   32.0790   46.5810 C   0  0  0  0  0  0  0  0  0  0  0  0
   48.1981   35.8898   42.8060 H   0  0  0  0  0  0  0  0  0  0  0  0
   49.4909   35.6671   40.6796 H   0  0  0  0  0  0  0  0  0  0  0  0
   48.5434   34.2572   38.8151 H   0  0  0  0  0  0  0  0  0  0  0  0
   46.3321   33.1212   39.1338 H   0  0  0  0  0  0  0  0  0  0  0  0
   45.4519   31.3517   42.0412 H   0  0  0  0  0  0  0  0  0  0  0  0
   43.1615   30.4883   42.2075 H   0  0  0  0  0  0  0  0  0  0  0  0
   42.0941   36.1922   41.5459 H   0  0  0  0  0  0  0  0  0  0  0  0
   39.7493   37.1925   40.6278 H   0  0  0  0  0  0  0  0  0  0  0  0
   38.5549   35.1676   39.4569 H   0  0  0  0  0  0  0  0  0  0  0  0
   43.7350   36.7674   45.2121 H   0  0  0  0  0  0  0  0  0  0  0  0
   44.7990   36.6176   42.9583 H   0  0  0  0  0  0  0  0  0  0  0  0
   45.2704   33.6524   48.5296 H   0  0  0  0  0  0  0  0  0  0  0  0
   44.0391   32.7680   47.6199 H   0  0  0  0  0  0  0  0  0  0  0  0
   45.5581   31.5428   49.5144 H   0  0  0  0  0  0  0  0  0  0  0  0
   45.0694   30.6467   48.0982 H   0  0  0  0  0  0  0  0  0  0  0  0
   47.6937   32.1774   48.6097 H   0  0  0  0  0  0  0  0  0  0  0  0
   47.5443   30.5383   48.0136 H   0  0  0  0  0  0  0  0  0  0  0  0
   46.7910   31.2724   45.8617 H   0  0  0  0  0  0  0  0  0  0  0  0
   47.9407   32.5515   46.2740 H   0  0  0  0  0  0  0  0  0  0  0  0
  1 22  1  0
  2  1  2  0
  3  2  1  0
  4  5  1  0
  4  3  2  0
  5  6  2  0
  6  7  1  0
  6  1  1  0
  7  8  1  0
  8  9  2  0
 10 11  2  0
 10  9  1  0
 12 10  1  0
 13 12  1  0
 13  7  1  0
 14 13  2  0
 15 16  1  0
 15 12  1  0
 17 16  2  0
 18 19  1  0
 18 17  1  0
 19 15  2  0
 20 25  2  0
 21 20  1  0
 22 21  2  0
 22 23  1  0
 23 24  2  0
 24 25  1  0
 24 26  1  0
 26 27  1  0
 27 28  1  0
 29 28  1  0
 30 26  1  0
 30 29  1  0
  2 31  1  0
  3 32  1  0
  4 33  1  0
  5 34  1  0
  8 35  1  0
  9 36  1  0
 16 37  1  0
 17 38  1  0
 18 39  1  0
 20 40  1  0
 21 41  1  0
 27 42  1  0
 27 43  1  0
 28 44  1  0
 28 45  1  0
 29 46  1  0
 29 47  1  0
 30 48  1  0
 30 49  1  0
M  ISO  8  31  14  32  14  33  14  34  14  35  14  36  14  37  14  38  14
M  ISO  8  39   9  40  14  41  14  42  13  43  13  44  13  45  13  46  13
M  ISO  3  47  13  48  13  49  13
M  END
>  <minimizedAffinity>  (1) 
-9.02113247

>  <minimizedRMSD>  (1) 
0.0730934441

$$$$
