
     RDKit          3D

 42 44  0  0  1  0  0  0  0  0999 V2000
   48.0020   34.3490   41.0330 C   0  0  2  0  0  0  0  0  0  0  0  0
   48.6150   35.5900   41.4360 C   0  0  0  0  0  0  0  0  0  0  0  0
   49.7700   35.2480   42.3890 C   0  0  0  0  0  0  0  0  0  0  0  0
   49.8740   33.7430   42.4530 C   0  0  0  0  0  0  0  0  0  0  0  0
   48.4950   33.3240   42.0770 C   0  0  1  0  0  0  0  0  0  0  0  0
   48.3550   33.7510   39.7200 C   0  0  0  0  0  0  0  0  0  0  0  0
   48.3390   34.5720   38.5930 C   0  0  0  0  0  0  0  0  0  0  0  0
   48.6680   34.0500   37.3530 C   0  0  0  0  0  0  0  0  0  0  0  0
   48.9920   32.7240   37.3320 N   0  0  0  0  0  0  0  0  0  0  0  0
   49.0000   31.9460   38.4320 C   0  0  0  0  0  0  0  0  0  0  0  0
   48.6810   32.4570   39.6340 N   0  0  0  0  0  0  0  0  0  0  0  0
   47.6060   33.3420   43.2780 C   0  0  0  0  0  0  0  0  0  0  0  0
   46.3000   32.7030   42.9410 C   0  0  0  0  0  0  0  0  0  0  0  0
   45.1250   33.6360   43.2940 C   0  0  0  0  0  0  0  0  0  0  0  0
   45.7550   34.8480   43.9470 C   0  0  0  0  0  0  0  0  0  0  0  0
   44.9830   36.0500   43.4740 C   0  0  0  0  0  0  0  0  0  0  0  0
   44.2780   35.6500   42.2160 C   0  0  0  0  0  0  0  0  0  0  0  0
   44.5680   34.1980   42.0140 C   0  0  0  0  0  0  0  0  0  0  0  0
   46.9281   34.5739   40.9545 H   0  0  0  0  0  0  0  0  0  0  0  0
   49.0012   36.1217   40.5539 H   0  0  0  0  0  0  0  0  0  0  0  0
   47.8811   36.2398   41.9352 H   0  0  0  0  0  0  0  0  0  0  0  0
   50.7100   35.6737   42.0080 H   0  0  0  0  0  0  0  0  0  0  0  0
   49.5845   35.6668   43.3891 H   0  0  0  0  0  0  0  0  0  0  0  0
   50.6171   33.3624   41.7368 H   0  0  0  0  0  0  0  0  0  0  0  0
   50.2038   33.3612   43.4305 H   0  0  0  0  0  0  0  0  0  0  0  0
   48.4826   32.3016   41.6712 H   0  0  0  0  0  0  0  0  0  0  0  0
   48.0654   35.6331   38.6887 H   0  0  0  0  0  0  0  0  0  0  0  0
   48.6682   34.6658   36.4415 H   0  0  0  0  0  0  0  0  0  0  0  0
   49.2700   30.8831   38.3459 H   0  0  0  0  0  0  0  0  0  0  0  0
   48.0854   32.7861   44.0972 H   0  0  0  0  0  0  0  0  0  0  0  0
   47.4347   34.3824   43.5913 H   0  0  0  0  0  0  0  0  0  0  0  0
   46.2740   32.4827   41.8636 H   0  0  0  0  0  0  0  0  0  0  0  0
   46.2008   31.7760   43.5247 H   0  0  0  0  0  0  0  0  0  0  0  0
   44.3728   33.1068   43.8974 H   0  0  0  0  0  0  0  0  0  0  0  0
   45.6908   34.7640   45.0419 H   0  0  0  0  0  0  0  0  0  0  0  0
   46.8183   34.9321   43.6781 H   0  0  0  0  0  0  0  0  0  0  0  0
   44.2511   36.3532   44.2372 H   0  0  0  0  0  0  0  0  0  0  0  0
   45.6550   36.9020   43.2935 H   0  0  0  0  0  0  0  0  0  0  0  0
   43.1947   35.8109   42.3192 H   0  0  0  0  0  0  0  0  0  0  0  0
   44.6207   36.2484   41.3590 H   0  0  0  0  0  0  0  0  0  0  0  0
   43.6409   33.6684   41.7495 H   0  0  0  0  0  0  0  0  0  0  0  0
   45.2965   34.0705   41.1997 H   0  0  0  0  0  0  0  0  0  0  0  0
  1  2  1  0
  1  5  1  0
  2  3  1  0
  3  4  1  0
  5  4  1  0
  5 12  1  0
  6  1  1  0
  7  6  2  0
  8  7  1  0
  9  8  2  0
  9 10  1  0
 10 11  2  0
 11  6  1  0
 13 12  1  0
 13 14  1  0
 14 15  1  0
 16 15  1  0
 17 16  1  0
 18 17  1  0
 18 14  1  0
  1 19  1  6
  2 20  1  0
  2 21  1  0
  3 22  1  0
  3 23  1  0
  4 24  1  0
  4 25  1  0
  5 26  1  6
  7 27  1  0
  8 28  1  0
 10 29  1  0
 12 30  1  0
 12 31  1  0
 13 32  1  0
 13 33  1  0
 14 34  1  0
 15 35  1  0
 15 36  1  0
 16 37  1  0
 16 38  1  0
 17 39  1  0
 17 40  1  0
 18 41  1  0
 18 42  1  0
M  ISO  8  19  13  20  13  21  13  22  13  23  13  24  13  25  13  26  13
M  ISO  8  27  14  28  14  29  14  30   8  31   8  32   8  33   8  34  13
M  ISO  8  35  13  36  13  37  13  38  13  39  13  40  13  41  13  42  13
M  END
>  <minimizedAffinity>  (1) 
-5.0159359

>  <minimizedRMSD>  (1) 
1.80211055

$$$$
