
     RDKit          3D

 18 19  0  0  0  0  0  0  0  0999 V2000
   44.4410   35.9590   44.7750 C   0  0  0  0  0  0  0  0  0  0  0  0
   44.6850   35.6830   43.4160 C   0  0  0  0  0  0  0  0  0  0  0  0
   45.3110   34.4630   43.1300 C   0  0  0  0  0  0  0  0  0  0  0  0
   45.6540   33.6130   44.1320 N   0  0  0  0  0  0  0  0  0  0  0  0
   45.3990   33.9230   45.4310 C   0  0  0  0  0  0  0  0  0  0  0  0
   44.7900   35.1020   45.7430 N   0  0  0  0  0  0  0  0  0  0  0  0
   45.6200   34.0560   41.7580 C   0  0  0  0  0  0  0  0  0  0  0  0
   45.0370   33.3560   40.7840 N   0  0  0  0  0  0  0  0  0  0  0  0
   45.8060   33.3180   39.7330 O   0  0  0  0  0  0  0  0  0  0  0  0
   46.9090   33.9950   40.0050 C   0  0  0  0  0  0  0  0  0  0  0  0
   46.8170   34.4690   41.2670 N   0  0  0  0  0  0  0  0  0  0  0  0
   48.1000   34.2390   39.1140 C   0  0  0  0  0  0  0  0  0  0  0  0
   47.7140   34.3640   37.7880 F   0  0  0  0  0  0  0  0  0  0  0  0
   48.9980   33.1900   39.1610 F   0  0  0  0  0  0  0  0  0  0  0  0
   48.7450   35.3880   39.4480 F   0  0  0  0  0  0  0  0  0  0  0  0
   43.9502   36.9045   45.0491 H   0  0  0  0  0  0  0  0  0  0  0  0
   44.3993   36.3878   42.6213 H   0  0  0  0  0  0  0  0  0  0  0  0
   45.6840   33.2227   46.2299 H   0  0  0  0  0  0  0  0  0  0  0  0
  1  6  2  0
  2  1  1  0
  3  2  2  0
  3  4  1  0
  4  5  2  0
  5  6  1  0
  7  3  1  0
  8  7  2  0
  9 10  1  0
  9  8  1  0
 10 11  2  0
 11  7  1  0
 12 14  1  0
 12 15  1  0
 12 10  1  0
 13 12  1  0
  1 16  1  0
  2 17  1  0
  5 18  1  0
M  ISO  3  16  14  17  14  18  14
M  END
>  <minimizedAffinity>  (1) 
-4.38539791

>  <minimizedRMSD>  (1) 
1.71814489

$$$$
