
     RDKit          3D

 16 17  0  0  0  0  0  0  0  0999 V2000
   44.5190   35.7250   44.8730 C   0  0  0  0  0  0  0  0  0  0  0  0
   45.2710   35.5830   43.6840 C   0  0  0  0  0  0  0  0  0  0  0  0
   46.1780   34.5200   43.6480 C   0  0  0  0  0  0  0  0  0  0  0  0
   46.3000   33.6900   44.7180 N   0  0  0  0  0  0  0  0  0  0  0  0
   45.5500   33.8720   45.8370 C   0  0  0  0  0  0  0  0  0  0  0  0
   44.6660   34.8920   45.9000 N   0  0  0  0  0  0  0  0  0  0  0  0
   47.0210   34.2570   42.4790 C   0  0  0  0  0  0  0  0  0  0  0  0
   47.4330   33.2020   41.7800 N   0  0  0  0  0  0  0  0  0  0  0  0
   48.1980   33.5650   40.8020 O   0  0  0  0  0  0  0  0  0  0  0  0
   48.3040   34.8830   40.8430 C   0  0  0  0  0  0  0  0  0  0  0  0
   47.5760   35.3450   41.8860 N   0  0  0  0  0  0  0  0  0  0  0  0
   49.0380   35.7100   39.9710 O   0  0  0  0  0  0  0  0  0  0  0  0
   43.7922   36.5470   44.9511 H   0  0  0  0  0  0  0  0  0  0  0  0
   45.1490   36.2710   42.8344 H   0  0  0  0  0  0  0  0  0  0  0  0
   45.6628   33.1886   46.6916 H   0  0  0  0  0  0  0  0  0  0  0  0
   49.0406   36.6910   40.1042 H   0  0  0  0  0  0  0  0  0  0  0  0
  1  6  2  0
  2  1  1  0
  3  2  2  0
  3  4  1  0
  4  5  2  0
  5  6  1  0
  7  3  1  0
  8  7  2  0
  9 10  1  0
  9  8  1  0
 10 11  2  0
 11  7  1  0
 12 10  1  0
  1 13  1  0
  2 14  1  0
  5 15  1  0
 12 16  1  0
M  ISO  4  13  14  14  14  15  14  16   3
M  END
>  <minimizedAffinity>  (1) 
-4.37397575

>  <minimizedRMSD>  (1) 
0.79927963

$$$$
