
     RDKit          3D

 18 19  0  0  0  0  0  0  0  0999 V2000
   44.4630   36.0130   44.7330 C   0  0  0  0  0  0  0  0  0  0  0  0
   44.7390   35.7770   43.3730 C   0  0  0  0  0  0  0  0  0  0  0  0
   45.3710   34.5860   43.0390 C   0  0  0  0  0  0  0  0  0  0  0  0
   45.6930   33.7090   44.0250 N   0  0  0  0  0  0  0  0  0  0  0  0
   45.4160   33.9600   45.3300 C   0  0  0  0  0  0  0  0  0  0  0  0
   44.8030   35.1120   45.6660 N   0  0  0  0  0  0  0  0  0  0  0  0
   45.7090   34.2280   41.6650 C   0  0  0  0  0  0  0  0  0  0  0  0
   45.0450   33.7890   40.5770 N   0  0  0  0  0  0  0  0  0  0  0  0
   45.8860   33.6320   39.5950 O   0  0  0  0  0  0  0  0  0  0  0  0
   47.0740   33.9580   40.0190 C   0  0  0  0  0  0  0  0  0  0  0  0
   47.0140   34.3390   41.3140 N   0  0  0  0  0  0  0  0  0  0  0  0
   48.2720   33.9070   39.1870 C   0  0  0  0  0  0  0  0  0  0  0  0
   48.3100   34.5900   38.1320 O   0  0  0  0  0  0  0  0  0  0  0  0
   49.3780   33.1350   39.5090 O   0  0  0  0  0  0  0  0  0  0  0  0
   43.9634   36.9459   45.0333 H   0  0  0  0  0  0  0  0  0  0  0  0
   44.4636   36.5107   42.6011 H   0  0  0  0  0  0  0  0  0  0  0  0
   45.6894   33.2298   46.1059 H   0  0  0  0  0  0  0  0  0  0  0  0
   50.1693   33.1314   38.9141 H   0  0  0  0  0  0  0  0  0  0  0  0
  1  6  2  0
  2  1  1  0
  3  2  2  0
  3  4  1  0
  4  5  2  0
  5  6  1  0
  7  3  1  0
  8  7  2  0
  9 10  1  0
  9  8  1  0
 10 11  2  0
 11  7  1  0
 12 14  1  0
 12 10  1  0
 13 12  2  0
  1 15  1  0
  2 16  1  0
  5 17  1  0
 14 18  1  0
M  ISO  4  15  14  16  14  17  14  18   3
M  END
>  <minimizedAffinity>  (1) 
-4.17264366

>  <minimizedRMSD>  (1) 
1.53997707

$$$$
