
     RDKit          3D

 22 24  0  0  0  0  0  0  0  0999 V2000
   44.4600   35.9730   44.7720 C   0  0  0  0  0  0  0  0  0  0  0  0
   44.7470   35.7350   43.4230 C   0  0  0  0  0  0  0  0  0  0  0  0
   45.3890   34.5540   43.0850 C   0  0  0  0  0  0  0  0  0  0  0  0
   45.7160   33.6770   44.0690 N   0  0  0  0  0  0  0  0  0  0  0  0
   45.4290   33.9270   45.3670 C   0  0  0  0  0  0  0  0  0  0  0  0
   44.8060   35.0680   45.7090 N   0  0  0  0  0  0  0  0  0  0  0  0
   45.7370   34.2020   41.7130 C   0  0  0  0  0  0  0  0  0  0  0  0
   45.1330   33.5890   40.6730 N   0  0  0  0  0  0  0  0  0  0  0  0
   45.9590   33.5540   39.6580 O   0  0  0  0  0  0  0  0  0  0  0  0
   47.0780   34.1250   40.0070 C   0  0  0  0  0  0  0  0  0  0  0  0
   46.9850   34.5520   41.3010 N   0  0  0  0  0  0  0  0  0  0  0  0
   48.3140   34.3160   39.1660 C   0  0  0  0  0  0  0  0  0  0  0  0
   48.6580   33.0680   38.3450 C   0  0  0  0  0  0  0  0  0  0  0  0
   48.2140   34.3080   37.6970 C   0  0  0  0  0  0  0  0  0  0  0  0
   43.9504   36.9017   45.0685 H   0  0  0  0  0  0  0  0  0  0  0  0
   44.4699   36.4671   42.6501 H   0  0  0  0  0  0  0  0  0  0  0  0
   45.7052   33.1971   46.1422 H   0  0  0  0  0  0  0  0  0  0  0  0
   48.7967   35.0043   39.8754 H   0  0  0  0  0  0  0  0  0  0  0  0
   49.7031   32.7379   38.2511 H   0  0  0  0  0  0  0  0  0  0  0  0
   48.3309   32.0178   38.3382 H   0  0  0  0  0  0  0  0  0  0  0  0
   48.9293   34.8947   37.1019 H   0  0  0  0  0  0  0  0  0  0  0  0
   47.4083   34.5495   36.9881 H   0  0  0  0  0  0  0  0  0  0  0  0
  1  6  2  0
  2  1  1  0
  3  2  2  0
  3  4  1  0
  4  5  2  0
  5  6  1  0
  7  3  1  0
  8  7  2  0
  9 10  1  0
  9  8  1  0
 10 11  2  0
 11  7  1  0
 12 10  1  0
 13 12  1  0
 14 13  1  0
 14 12  1  0
  1 15  1  0
  2 16  1  0
  5 17  1  0
 12 18  1  0
 13 19  1  0
 13 20  1  0
 14 21  1  0
 14 22  1  0
M  ISO  8  15  14  16  14  17  14  18  13  19  13  20  13  21  13  22  13
M  END
>  <minimizedAffinity>  (1) 
-4.15433025

>  <minimizedRMSD>  (1) 
1.64073694

$$$$
