
     RDKit          3D

 21 22  0  0  0  0  0  0  0  0999 V2000
   44.5330   36.0900   44.4800 C   0  0  0  0  0  0  0  0  0  0  0  0
   45.3040   35.8340   43.3290 C   0  0  0  0  0  0  0  0  0  0  0  0
   46.1220   34.7090   43.3610 C   0  0  0  0  0  0  0  0  0  0  0  0
   46.1520   33.9050   44.4820 N   0  0  0  0  0  0  0  0  0  0  0  0
   45.3780   34.2120   45.5650 C   0  0  0  0  0  0  0  0  0  0  0  0
   44.5810   35.2970   45.5510 N   0  0  0  0  0  0  0  0  0  0  0  0
   46.9750   34.3180   42.2470 C   0  0  0  0  0  0  0  0  0  0  0  0
   46.9950   34.4860   40.9210 N   0  0  0  0  0  0  0  0  0  0  0  0
   48.0420   33.8870   40.4140 O   0  0  0  0  0  0  0  0  0  0  0  0
   48.7100   33.3290   41.3880 C   0  0  0  0  0  0  0  0  0  0  0  0
   48.0640   33.5810   42.5470 N   0  0  0  0  0  0  0  0  0  0  0  0
   49.9770   32.5440   41.2140 C   0  0  0  0  0  0  0  0  0  0  0  0
   50.9800   33.0360   42.2470 C   0  0  0  0  0  0  0  0  0  0  0  0
   43.8724   36.9694   44.4957 H   0  0  0  0  0  0  0  0  0  0  0  0
   45.2614   36.4914   42.4481 H   0  0  0  0  0  0  0  0  0  0  0  0
   45.4062   33.5674   46.4559 H   0  0  0  0  0  0  0  0  0  0  0  0
   49.7770   31.4734   41.3681 H   0  0  0  0  0  0  0  0  0  0  0  0
   50.3757   32.6818   40.1981 H   0  0  0  0  0  0  0  0  0  0  0  0
   50.5896   32.8445   43.2574 H   0  0  0  0  0  0  0  0  0  0  0  0
   51.9333   32.5032   42.1152 H   0  0  0  0  0  0  0  0  0  0  0  0
   51.1422   34.1160   42.1152 H   0  0  0  0  0  0  0  0  0  0  0  0
  1  6  2  0
  2  3  2  0
  2  1  1  0
  3  4  1  0
  4  5  2  0
  6  5  1  0
  7 11  1  0
  7  3  1  0
  8  7  2  0
  9  8  1  0
  9 10  1  0
 10 11  2  0
 12 10  1  0
 12 13  1  0
  1 14  1  0
  2 15  1  0
  5 16  1  0
 12 17  1  0
 12 18  1  0
 13 19  1  0
 13 20  1  0
 13 21  1  0
M  ISO  8  14  14  15  14  16  14  17   8  18   8  19   8  20   8  21   8
M  END
>  <minimizedAffinity>  (1) 
-4.10192394

>  <minimizedRMSD>  (1) 
1.31748307

$$$$
