
     RDKit          3D

 17 18  0  0  0  0  0  0  0  0999 V2000
   44.4750   35.9490   44.7380 C   0  0  0  0  0  0  0  0  0  0  0  0
   44.8690   35.7470   43.4130 C   0  0  0  0  0  0  0  0  0  0  0  0
   45.5880   34.5880   43.1220 C   0  0  0  0  0  0  0  0  0  0  0  0
   45.8860   33.6980   44.1160 N   0  0  0  0  0  0  0  0  0  0  0  0
   45.4790   33.9400   45.3960 C   0  0  0  0  0  0  0  0  0  0  0  0
   44.7740   35.0680   45.6920 N   0  0  0  0  0  0  0  0  0  0  0  0
   46.0550   34.2670   41.7700 C   0  0  0  0  0  0  0  0  0  0  0  0
   45.6100   33.5780   40.7140 N   0  0  0  0  0  0  0  0  0  0  0  0
   46.4740   33.6360   39.7470 O   0  0  0  0  0  0  0  0  0  0  0  0
   47.4990   34.3600   40.1460 C   0  0  0  0  0  0  0  0  0  0  0  0
   47.2560   34.7690   41.4190 N   0  0  0  0  0  0  0  0  0  0  0  0
   48.6980   34.7020   39.4200 N   0  0  0  0  0  0  0  0  0  0  0  0
   43.9064   36.8537   44.9991 H   0  0  0  0  0  0  0  0  0  0  0  0
   44.6210   36.4760   42.6274 H   0  0  0  0  0  0  0  0  0  0  0  0
   45.7212   33.2211   46.1926 H   0  0  0  0  0  0  0  0  0  0  0  0
   49.4221   35.2830   39.8661 H   0  0  0  0  0  0  0  0  0  0  0  0
   48.8298   34.3652   38.4556 H   0  0  0  0  0  0  0  0  0  0  0  0
  1  6  2  0
  2  1  1  0
  3  2  2  0
  3  4  1  0
  4  5  2  0
  5  6  1  0
  7  3  1  0
  8  7  2  0
  9 10  1  0
  9  8  1  0
 10 11  2  0
 11  7  1  0
 12 10  1  0
  1 13  1  0
  2 14  1  0
  5 15  1  0
 12 16  1  0
 12 17  1  0
M  ISO  3  13  14  14  14  15  14
M  END
>  <minimizedAffinity>  (1) 
-4.0859623

>  <minimizedRMSD>  (1) 
0.906582594

$$$$
