
     RDKit          3D

 24 25  0  0  0  0  0  0  0  0999 V2000
   44.5090   36.1180   44.5810 C   0  0  0  0  0  0  0  0  0  0  0  0
   44.7750   35.8640   43.2320 C   0  0  0  0  0  0  0  0  0  0  0  0
   45.3490   34.6350   42.9200 C   0  0  0  0  0  0  0  0  0  0  0  0
   45.6300   33.7350   43.9130 N   0  0  0  0  0  0  0  0  0  0  0  0
   45.3480   34.0380   45.2100 C   0  0  0  0  0  0  0  0  0  0  0  0
   44.7900   35.2270   45.5300 N   0  0  0  0  0  0  0  0  0  0  0  0
   45.6790   34.2420   41.5520 C   0  0  0  0  0  0  0  0  0  0  0  0
   45.0220   33.8040   40.4650 N   0  0  0  0  0  0  0  0  0  0  0  0
   45.8430   33.6010   39.4850 O   0  0  0  0  0  0  0  0  0  0  0  0
   47.0610   33.9020   39.9070 C   0  0  0  0  0  0  0  0  0  0  0  0
   46.9880   34.3050   41.1930 N   0  0  0  0  0  0  0  0  0  0  0  0
   48.3560   33.8340   39.1440 C   0  0  0  0  0  0  0  0  0  0  0  0
   48.0030   34.1940   37.7140 C   0  0  0  0  0  0  0  0  0  0  0  0
   48.9870   32.4720   39.2150 C   0  0  0  0  0  0  0  0  0  0  0  0
   44.0558   37.0790   44.8658 H   0  0  0  0  0  0  0  0  0  0  0  0
   44.5409   36.6030   42.4516 H   0  0  0  0  0  0  0  0  0  0  0  0
   45.5757   33.3104   46.0029 H   0  0  0  0  0  0  0  0  0  0  0  0
   49.0992   34.5222   39.5729 H   0  0  0  0  0  0  0  0  0  0  0  0
   47.2329   34.9794   37.7131 H   0  0  0  0  0  0  0  0  0  0  0  0
   48.9013   34.5607   37.1958 H   0  0  0  0  0  0  0  0  0  0  0  0
   47.6187   33.3031   37.1958 H   0  0  0  0  0  0  0  0  0  0  0  0
   49.1204   32.1841   40.2683 H   0  0  0  0  0  0  0  0  0  0  0  0
   48.3363   31.7399   38.7144 H   0  0  0  0  0  0  0  0  0  0  0  0
   49.9662   32.4950   38.7144 H   0  0  0  0  0  0  0  0  0  0  0  0
  1  6  2  0
  2  1  1  0
  3  2  2  0
  3  4  1  0
  4  5  2  0
  5  6  1  0
  7  3  1  0
  8  7  2  0
  9 10  1  0
  9  8  1  0
 10 11  2  0
 11  7  1  0
 12 14  1  0
 12 10  1  0
 13 12  1  0
  1 15  1  0
  2 16  1  0
  5 17  1  0
 12 18  1  0
 13 19  1  0
 13 20  1  0
 13 21  1  0
 14 22  1  0
 14 23  1  0
 14 24  1  0
M  ISO  8  15  14  16  14  17  14  18   8  19   8  20   8  21   8  22   8
M  ISO  2  23   8  24   8
M  END
>  <minimizedAffinity>  (1) 
-4.03230906

>  <minimizedRMSD>  (1) 
1.70241916

$$$$
