
     RDKit          3D

 27 28  0  0  0  0  0  0  0  0999 V2000
   44.5090   36.0820   44.5470 C   0  0  0  0  0  0  0  0  0  0  0  0
   44.6940   35.7870   43.1780 C   0  0  0  0  0  0  0  0  0  0  0  0
   45.2220   34.5470   42.8670 C   0  0  0  0  0  0  0  0  0  0  0  0
   45.5380   33.6650   43.8760 N   0  0  0  0  0  0  0  0  0  0  0  0
   45.3470   33.9820   45.1750 C   0  0  0  0  0  0  0  0  0  0  0  0
   44.8280   35.2000   45.5040 N   0  0  0  0  0  0  0  0  0  0  0  0
   45.4650   34.1130   41.4870 C   0  0  0  0  0  0  0  0  0  0  0  0
   44.7020   33.8380   40.4050 N   0  0  0  0  0  0  0  0  0  0  0  0
   45.4580   33.4860   39.4170 O   0  0  0  0  0  0  0  0  0  0  0  0
   46.7130   33.5260   39.8340 C   0  0  0  0  0  0  0  0  0  0  0  0
   46.7470   33.9190   41.1400 N   0  0  0  0  0  0  0  0  0  0  0  0
   47.8660   33.1810   38.9580 C   0  0  0  0  0  0  0  0  0  0  0  0
   48.9760   32.5020   39.7390 C   0  0  0  0  0  0  0  0  0  0  0  0
   47.4270   32.1800   37.8870 C   0  0  0  0  0  0  0  0  0  0  0  0
   48.3530   34.4560   38.3040 C   0  0  0  0  0  0  0  0  0  0  0  0
   44.0932   37.0590   44.8343 H   0  0  0  0  0  0  0  0  0  0  0  0
   44.4298   36.5116   42.3937 H   0  0  0  0  0  0  0  0  0  0  0  0
   45.6087   33.2615   45.9639 H   0  0  0  0  0  0  0  0  0  0  0  0
   48.7889   32.6165   40.8169 H   0  0  0  0  0  0  0  0  0  0  0  0
   49.0032   31.4325   39.4831 H   0  0  0  0  0  0  0  0  0  0  0  0
   49.9405   32.9649   39.4831 H   0  0  0  0  0  0  0  0  0  0  0  0
   47.0303   31.2754   38.3711 H   0  0  0  0  0  0  0  0  0  0  0  0
   46.6450   32.6332   37.2600 H   0  0  0  0  0  0  0  0  0  0  0  0
   48.2901   31.9118   37.2600 H   0  0  0  0  0  0  0  0  0  0  0  0
   48.6309   35.1836   39.0808 H   0  0  0  0  0  0  0  0  0  0  0  0
   49.2301   34.2351   37.6779 H   0  0  0  0  0  0  0  0  0  0  0  0
   47.5520   34.8760   37.6779 H   0  0  0  0  0  0  0  0  0  0  0  0
  1  6  2  0
  2  1  1  0
  3  2  2  0
  3  4  1  0
  4  5  2  0
  5  6  1  0
  7  3  1  0
  8  7  2  0
  9 10  1  0
  9  8  1  0
 10 11  2  0
 11  7  1  0
 12 13  1  0
 12 10  1  0
 14 12  1  0
 15 12  1  0
  1 16  1  0
  2 17  1  0
  5 18  1  0
 13 19  1  0
 13 20  1  0
 13 21  1  0
 14 22  1  0
 14 23  1  0
 14 24  1  0
 15 25  1  0
 15 26  1  0
 15 27  1  0
M  ISO  8  16  14  17  14  18  14  19   8  20   8  21   8  22   8  23   8
M  ISO  4  24   8  25   8  26   8  27   8
M  END
>  <minimizedAffinity>  (1) 
-3.96425939

>  <minimizedRMSD>  (1) 
2.16562009

$$$$
