
     RDKit          3D

 41 43  0  0  1  0  0  0  0  0999 V2000
   48.0090   34.7630   40.9440 C   0  0  2  0  0  0  0  0  0  0  0  0
   48.9820   35.7660   41.3060 C   0  0  0  0  0  0  0  0  0  0  0  0
   49.8720   35.1820   42.4170 C   0  0  0  0  0  0  0  0  0  0  0  0
   49.4480   33.7470   42.6270 C   0  0  0  0  0  0  0  0  0  0  0  0
   48.0390   33.7730   42.1250 C   0  0  1  0  0  0  0  0  0  0  0  0
   48.2420   33.9190   39.7410 C   0  0  0  0  0  0  0  0  0  0  0  0
   48.3590   34.5540   38.5010 C   0  0  0  0  0  0  0  0  0  0  0  0
   48.5790   33.8020   37.3600 C   0  0  0  0  0  0  0  0  0  0  0  0
   48.6690   32.4410   37.5460 N   0  0  0  0  0  0  0  0  0  0  0  0
   48.5510   31.8570   38.7490 C   0  0  0  0  0  0  0  0  0  0  0  0
   48.3370   32.5890   39.8590 N   0  0  0  0  0  0  0  0  0  0  0  0
   47.1320   34.2340   43.2190 C   0  0  0  0  0  0  0  0  0  0  0  0
   46.1090   35.1600   42.6280 C   0  0  0  0  0  0  0  0  0  0  0  0
   44.8050   34.6380   43.1360 N   0  0  0  0  0  0  0  0  0  0  0  0
   43.7060   35.4380   42.6100 C   0  0  0  0  0  0  0  0  0  0  0  0
   43.9200   35.3430   41.1280 C   0  0  0  0  0  0  0  0  0  0  0  0
   44.2230   33.8640   40.9860 C   0  0  0  0  0  0  0  0  0  0  0  0
   44.5060   33.3790   42.4200 C   0  0  0  0  0  0  0  0  0  0  0  0
   47.0881   35.3206   40.7182 H   0  0  0  0  0  0  0  0  0  0  0  0
   49.5969   36.0232   40.4310 H   0  0  0  0  0  0  0  0  0  0  0  0
   48.4788   36.6786   41.6580 H   0  0  0  0  0  0  0  0  0  0  0  0
   50.9283   35.2214   42.1125 H   0  0  0  0  0  0  0  0  0  0  0  0
   49.7626   35.7597   43.3467 H   0  0  0  0  0  0  0  0  0  0  0  0
   50.0702   33.0547   42.0408 H   0  0  0  0  0  0  0  0  0  0  0  0
   49.5466   33.3987   43.6658 H   0  0  0  0  0  0  0  0  0  0  0  0
   47.7024   32.7765   41.8030 H   0  0  0  0  0  0  0  0  0  0  0  0
   48.2764   35.6487   38.4323 H   0  0  0  0  0  0  0  0  0  0  0  0
   48.6759   34.2633   36.3661 H   0  0  0  0  0  0  0  0  0  0  0  0
   48.6304   30.7628   38.8294 H   0  0  0  0  0  0  0  0  0  0  0  0
   46.6298   33.3680   43.6749 H   0  0  0  0  0  0  0  0  0  0  0  0
   47.7110   34.7563   43.9949 H   0  0  0  0  0  0  0  0  0  0  0  0
   46.1411   35.1264   41.5290 H   0  0  0  0  0  0  0  0  0  0  0  0
   46.2800   36.2101   42.9074 H   0  0  0  0  0  0  0  0  0  0  0  0
   42.7323   35.0160   42.8995 H   0  0  0  0  0  0  0  0  0  0  0  0
   43.6941   36.4712   42.9874 H   0  0  0  0  0  0  0  0  0  0  0  0
   43.0169   35.6280   40.5683 H   0  0  0  0  0  0  0  0  0  0  0  0
   44.7007   36.0104   40.7342 H   0  0  0  0  0  0  0  0  0  0  0  0
   43.3600   33.3311   40.5603 H   0  0  0  0  0  0  0  0  0  0  0  0
   45.0709   33.6776   40.3105 H   0  0  0  0  0  0  0  0  0  0  0  0
   43.6264   32.8775   42.8499 H   0  0  0  0  0  0  0  0  0  0  0  0
   45.3187   32.6400   42.4784 H   0  0  0  0  0  0  0  0  0  0  0  0
  1  2  1  0
  1  5  1  0
  2  3  1  0
  3  4  1  0
  5  4  1  0
  5 12  1  0
  6 11  1  0
  6  1  1  0
  7  6  2  0
  8  9  2  0
  8  7  1  0
  9 10  1  0
 10 11  2  0
 13 14  1  0
 13 12  1  0
 15 14  1  0
 16 15  1  0
 17 16  1  0
 17 18  1  0
 18 14  1  0
  1 19  1  6
  2 20  1  0
  2 21  1  0
  3 22  1  0
  3 23  1  0
  4 24  1  0
  4 25  1  0
  5 26  1  6
  7 27  1  0
  8 28  1  0
 10 29  1  0
 12 30  1  0
 12 31  1  0
 13 32  1  0
 13 33  1  0
 15 34  1  0
 15 35  1  0
 16 36  1  0
 16 37  1  0
 17 38  1  0
 17 39  1  0
 18 40  1  0
 18 41  1  0
M  ISO  8  19  13  20  13  21  13  22  13  23  13  24  13  25  13  26  13
M  ISO  8  27  14  28  14  29  14  30   8  31   8  32   8  33   8  34  13
M  ISO  7  35  13  36  13  37  13  38  13  39  13  40  13  41  13
M  END
>  <minimizedAffinity>  (1) 
-4.98430395

>  <minimizedRMSD>  (1) 
1.7070483

$$$$
