
     RDKit          3D

 25 26  0  0  0  0  0  0  0  0999 V2000
   47.3530   34.3190   42.3570 C   0  0  0  0  0  0  0  0  0  0  0  0
   47.5260   34.5030   41.0260 N   0  0  0  0  0  0  0  0  0  0  0  0
   48.6260   33.9160   40.6500 O   0  0  0  0  0  0  0  0  0  0  0  0
   49.1860   33.3470   41.7050 C   0  0  0  0  0  0  0  0  0  0  0  0
   48.4060   33.5920   42.7680 N   0  0  0  0  0  0  0  0  0  0  0  0
   44.6310   36.0520   44.2650 C   0  0  0  0  0  0  0  0  0  0  0  0
   45.5270   35.8050   43.2180 C   0  0  0  0  0  0  0  0  0  0  0  0
   46.3730   34.6960   43.3630 C   0  0  0  0  0  0  0  0  0  0  0  0
   46.3050   33.9050   44.4890 N   0  0  0  0  0  0  0  0  0  0  0  0
   45.4010   34.2130   45.4690 C   0  0  0  0  0  0  0  0  0  0  0  0
   44.5780   35.2830   45.3400 N   0  0  0  0  0  0  0  0  0  0  0  0
   50.4690   32.5600   41.7490 C   0  0  0  0  0  0  0  0  0  0  0  0
   50.8740   32.1180   40.4310 N   0  0  0  0  0  0  0  0  0  0  0  0
   52.1940   31.6190   40.2160 C   0  0  0  0  0  0  0  0  0  0  0  0
   52.7790   30.9790   41.1960 N   0  0  0  0  0  0  0  0  0  0  0  0
   52.8730   31.7990   38.9820 N   0  0  0  0  0  0  0  0  0  0  0  0
   53.7470   30.6070   41.0540 H   0  0  0  0  0  0  0  0  0  0  0  0
   43.9497   36.9125   44.1914 H   0  0  0  0  0  0  0  0  0  0  0  0
   45.5655   36.4484   42.3266 H   0  0  0  0  0  0  0  0  0  0  0  0
   45.3413   33.5861   46.3709 H   0  0  0  0  0  0  0  0  0  0  0  0
   51.2620   33.1950   42.1709 H   0  0  0  0  0  0  0  0  0  0  0  0
   50.3025   31.6691   42.3723 H   0  0  0  0  0  0  0  0  0  0  0  0
   50.2080   32.1638   39.6466 H   0  0  0  0  0  0  0  0  0  0  0  0
   53.8254   31.4265   38.8591 H   0  0  0  0  0  0  0  0  0  0  0  0
   52.4132   32.3021   38.2098 H   0  0  0  0  0  0  0  0  0  0  0  0
  1  5  1  0
  1  8  1  0
  2  1  2  0
  3  2  1  0
  3  4  1  0
  4 12  1  0
  4  5  2  0
  6 11  2  0
  7  8  2  0
  7  6  1  0
  8  9  1  0
  9 10  2  0
 11 10  1  0
 13 12  1  0
 14 13  1  0
 14 15  2  0
 16 14  1  0
 17 15  1  0
  6 18  1  0
  7 19  1  0
 10 20  1  0
 12 21  1  0
 12 22  1  0
 13 23  1  0
 16 24  1  0
 16 25  1  0
M  ISO  5  18  14  19  14  20  14  21   8  22   8
M  END
>  <minimizedAffinity>  (1) 
-4.88476849

>  <minimizedRMSD>  (1) 
3.48768044

$$$$
