
     RDKit          3D

 29 32  0  0  0  0  0  0  0  0999 V2000
   45.7820   34.1010   41.7090 C   0  0  0  0  0  0  0  0  0  0  0  0
   45.2440   33.3800   40.7170 N   0  0  0  0  0  0  0  0  0  0  0  0
   46.0380   33.3800   39.6830 O   0  0  0  0  0  0  0  0  0  0  0  0
   47.1100   34.1010   39.9820 C   0  0  0  0  0  0  0  0  0  0  0  0
   46.9430   34.5430   41.2370 N   0  0  0  0  0  0  0  0  0  0  0  0
   44.4750   35.9210   44.7210 C   0  0  0  0  0  0  0  0  0  0  0  0
   44.7590   35.6850   43.3570 C   0  0  0  0  0  0  0  0  0  0  0  0
   45.4220   34.4800   43.0680 C   0  0  0  0  0  0  0  0  0  0  0  0
   45.7640   33.6030   44.0750 N   0  0  0  0  0  0  0  0  0  0  0  0
   45.4560   33.9010   45.3630 C   0  0  0  0  0  0  0  0  0  0  0  0
   44.8110   35.0630   45.6770 N   0  0  0  0  0  0  0  0  0  0  0  0
   48.2910   34.3810   39.1040 C   0  0  0  0  0  0  0  0  0  0  0  0
   48.7620   33.0690   38.6760 N   0  0  0  0  0  0  0  0  0  0  0  0
   49.2170   32.0300   39.3790 C   0  0  0  0  0  0  0  0  0  0  0  0
   49.5420   31.0150   38.5460 N   0  0  0  0  0  0  0  0  0  0  0  0
   49.2790   31.4380   37.2850 C   0  0  0  0  0  0  0  0  0  0  0  0
   49.4320   30.7910   36.0600 C   0  0  0  0  0  0  0  0  0  0  0  0
   49.0830   31.4610   34.9320 N   0  0  0  0  0  0  0  0  0  0  0  0
   48.6050   32.7320   35.0650 C   0  0  0  0  0  0  0  0  0  0  0  0
   48.4540   33.3650   36.2420 N   0  0  0  0  0  0  0  0  0  0  0  0
   48.7890   32.7270   37.3650 C   0  0  0  0  0  0  0  0  0  0  0  0
   43.9564   36.8498   45.0011 H   0  0  0  0  0  0  0  0  0  0  0  0
   44.4784   36.4004   42.5699 H   0  0  0  0  0  0  0  0  0  0  0  0
   45.7293   33.1979   46.1636 H   0  0  0  0  0  0  0  0  0  0  0  0
   47.9924   34.9868   38.2358 H   0  0  0  0  0  0  0  0  0  0  0  0
   49.0721   34.9491   39.6305 H   0  0  0  0  0  0  0  0  0  0  0  0
   49.3135   32.0029   40.4744 H   0  0  0  0  0  0  0  0  0  0  0  0
   49.8250   29.7649   36.0085 H   0  0  0  0  0  0  0  0  0  0  0  0
   48.3249   33.2743   34.1499 H   0  0  0  0  0  0  0  0  0  0  0  0
  1  8  1  0
  2  1  2  0
  3  4  1  0
  3  2  1  0
  4  5  2  0
  5  1  1  0
  6 11  2  0
  7  6  1  0
  8  7  2  0
  8  9  1  0
  9 10  2  0
 10 11  1  0
 12  4  1  0
 13 12  1  0
 13 14  1  0
 15 14  2  0
 16 21  2  0
 16 15  1  0
 17 16  1  0
 18 19  1  0
 18 17  2  0
 19 20  2  0
 20 21  1  0
 21 13  1  0
  6 22  1  0
  7 23  1  0
 10 24  1  0
 12 25  1  0
 12 26  1  0
 14 27  1  0
 17 28  1  0
 19 29  1  0
M  ISO  8  22  14  23  14  24  14  25   8  26   8  27  14  28  14  29  14
M  END
>  <minimizedAffinity>  (1) 
-4.71752453

>  <minimizedRMSD>  (1) 
2.23207378

$$$$
