
     RDKit          3D

 31 33  0  0  0  0  0  0  0  0999 V2000
   45.7980   34.1550   41.7150 C   0  0  0  0  0  0  0  0  0  0  0  0
   45.2590   33.4780   40.6930 N   0  0  0  0  0  0  0  0  0  0  0  0
   46.0790   33.4760   39.6770 O   0  0  0  0  0  0  0  0  0  0  0  0
   47.1600   34.1480   40.0180 C   0  0  0  0  0  0  0  0  0  0  0  0
   46.9960   34.5780   41.2910 N   0  0  0  0  0  0  0  0  0  0  0  0
   44.4650   35.9430   44.7420 C   0  0  0  0  0  0  0  0  0  0  0  0
   44.7600   35.7230   43.3780 C   0  0  0  0  0  0  0  0  0  0  0  0
   45.4260   34.5220   43.0870 C   0  0  0  0  0  0  0  0  0  0  0  0
   45.7520   33.6470   44.0770 N   0  0  0  0  0  0  0  0  0  0  0  0
   45.4410   33.9180   45.3700 C   0  0  0  0  0  0  0  0  0  0  0  0
   44.7910   35.0810   45.6830 N   0  0  0  0  0  0  0  0  0  0  0  0
   48.3770   34.4150   39.1810 C   0  0  0  0  0  0  0  0  0  0  0  0
   48.5900   33.3470   38.2240 N   0  0  0  0  0  0  0  0  0  0  0  0
   48.1700   33.4660   36.9500 C   0  0  0  0  0  0  0  0  0  0  0  0
   48.4360   32.3740   36.1440 C   0  0  0  0  0  0  0  0  0  0  0  0
   48.0190   32.3890   34.7110 C   0  0  0  0  0  0  0  0  0  0  0  0
   49.0800   31.2570   36.6240 C   0  0  0  0  0  0  0  0  0  0  0  0
   49.3430   30.2400   35.9250 O   0  0  0  0  0  0  0  0  0  0  0  0
   49.4820   31.1910   37.9180 N   0  0  0  0  0  0  0  0  0  0  0  0
   49.2200   32.2670   38.7140 C   0  0  0  0  0  0  0  0  0  0  0  0
   49.6010   32.1910   39.9230 O   0  0  0  0  0  0  0  0  0  0  0  0
   43.9438   36.8683   45.0287 H   0  0  0  0  0  0  0  0  0  0  0  0
   44.4858   36.4455   42.5952 H   0  0  0  0  0  0  0  0  0  0  0  0
   45.7104   33.2054   46.1635 H   0  0  0  0  0  0  0  0  0  0  0  0
   48.2409   35.3625   38.6391 H   0  0  0  0  0  0  0  0  0  0  0  0
   49.2534   34.4741   39.8431 H   0  0  0  0  0  0  0  0  0  0  0  0
   47.6544   34.3638   36.5785 H   0  0  0  0  0  0  0  0  0  0  0  0
   46.9215   32.4285   34.6489 H   0  0  0  0  0  0  0  0  0  0  0  0
   48.4464   33.2724   34.2140 H   0  0  0  0  0  0  0  0  0  0  0  0
   48.3818   31.4772   34.2140 H   0  0  0  0  0  0  0  0  0  0  0  0
   49.9667   30.3598   38.2854 H   0  0  0  0  0  0  0  0  0  0  0  0
  1  8  1  0
  2  1  2  0
  3  4  1  0
  3  2  1  0
  4  5  2  0
  5  1  1  0
  6 11  2  0
  7  6  1  0
  8  7  2  0
  8  9  1  0
  9 10  2  0
 10 11  1  0
 12  4  1  0
 13 20  1  0
 13 12  1  0
 14 13  1  0
 15 17  1  0
 15 14  2  0
 16 15  1  0
 17 19  1  0
 18 17  2  0
 19 20  1  0
 20 21  2  0
  6 22  1  0
  7 23  1  0
 10 24  1  0
 12 25  1  0
 12 26  1  0
 14 27  1  0
 16 28  1  0
 16 29  1  0
 16 30  1  0
 19 31  1  0
M  ISO  8  22  14  23  14  24  14  25   8  26   8  27  14  28   8  29   8
M  ISO  2  30   8  31   9
M  END
>  <minimizedAffinity>  (1) 
-4.66239309

>  <minimizedRMSD>  (1) 
2.18422556

$$$$
