
     RDKit          3D

 31 33  0  0  0  0  0  0  0  0999 V2000
   45.8080   34.9750   42.4960 C   0  0  0  0  0  0  0  0  0  0  0  0
   44.9210   35.3680   43.4170 N   0  0  0  0  0  0  0  0  0  0  0  0
   43.7630   35.5880   42.8640 O   0  0  0  0  0  0  0  0  0  0  0  0
   43.8750   35.3410   41.5620 C   0  0  0  0  0  0  0  0  0  0  0  0
   45.1520   34.9570   41.3280 N   0  0  0  0  0  0  0  0  0  0  0  0
   49.5370   34.9770   42.0430 C   0  0  0  0  0  0  0  0  0  0  0  0
   48.2220   35.4530   42.0220 C   0  0  0  0  0  0  0  0  0  0  0  0
   47.2140   34.5920   42.4700 C   0  0  0  0  0  0  0  0  0  0  0  0
   47.5390   33.3400   42.9030 N   0  0  0  0  0  0  0  0  0  0  0  0
   48.8410   32.9330   42.8990 C   0  0  0  0  0  0  0  0  0  0  0  0
   49.8220   33.7610   42.4670 N   0  0  0  0  0  0  0  0  0  0  0  0
   42.8240   35.4480   40.5000 C   0  0  0  0  0  0  0  0  0  0  0  0
   42.2800   34.0520   40.2110 C   0  0  0  0  0  0  0  0  0  0  0  0
   41.4910   34.1040   38.8950 C   0  0  0  0  0  0  0  0  0  0  0  0
   40.1290   34.5330   39.4140 C   0  0  0  0  0  0  0  0  0  0  0  0
   39.9380   33.5190   40.5260 C   0  0  0  0  0  0  0  0  0  0  0  0
   41.2620   33.6700   41.2630 C   0  0  0  0  0  0  0  0  0  0  0  0
   50.3514   35.6312   41.6983 H   0  0  0  0  0  0  0  0  0  0  0  0
   47.9886   36.4674   41.6662 H   0  0  0  0  0  0  0  0  0  0  0  0
   49.0967   31.9224   43.2501 H   0  0  0  0  0  0  0  0  0  0  0  0
   42.0087   36.0984   40.8497 H   0  0  0  0  0  0  0  0  0  0  0  0
   43.2566   35.8795   39.5853 H   0  0  0  0  0  0  0  0  0  0  0  0
   43.1226   33.3454   40.1830 H   0  0  0  0  0  0  0  0  0  0  0  0
   41.4490   33.1195   38.4062 H   0  0  0  0  0  0  0  0  0  0  0  0
   41.9200   34.7632   38.1259 H   0  0  0  0  0  0  0  0  0  0  0  0
   40.1452   35.5631   39.7995 H   0  0  0  0  0  0  0  0  0  0  0  0
   39.3295   34.5476   38.6586 H   0  0  0  0  0  0  0  0  0  0  0  0
   39.0830   33.7760   41.1686 H   0  0  0  0  0  0  0  0  0  0  0  0
   39.7155   32.4974   40.1841 H   0  0  0  0  0  0  0  0  0  0  0  0
   41.5441   32.7206   41.7417 H   0  0  0  0  0  0  0  0  0  0  0  0
   41.1981   34.4279   42.0577 H   0  0  0  0  0  0  0  0  0  0  0  0
  1  2  2  0
  3  2  1  0
  4  3  1  0
  5  4  2  0
  5  1  1  0
  6 11  2  0
  7  6  1  0
  7  8  2  0
  8  1  1  0
  8  9  1  0
 10  9  2  0
 11 10  1  0
 12  4  1  0
 13 12  1  0
 13 17  1  0
 14 15  1  0
 14 13  1  0
 15 16  1  0
 16 17  1  0
  6 18  1  0
  7 19  1  0
 10 20  1  0
 12 21  1  0
 12 22  1  0
 13 23  1  0
 14 24  1  0
 14 25  1  0
 15 26  1  0
 15 27  1  0
 16 28  1  0
 16 29  1  0
 17 30  1  0
 17 31  1  0
M  ISO  8  18  14  19  14  20  14  21   8  22   8  23  13  24  13  25  13
M  ISO  6  26  13  27  13  28  13  29  13  30  13  31  13
M  END
>  <minimizedAffinity>  (1) 
-4.47780609

>  <minimizedRMSD>  (1) 
5.97678375

$$$$
