
     RDKit          3D

 34 36  0  0  1  0  0  0  0  0999 V2000
   47.8420   34.8760   41.4010 C   0  0  2  0  0  0  0  0  0  0  0  0
   48.9880   35.6950   41.7010 C   0  0  0  0  0  0  0  0  0  0  0  0
   50.0330   34.7890   42.3770 C   0  0  0  0  0  0  0  0  0  0  0  0
   49.4770   33.3890   42.3920 C   0  0  0  0  0  0  0  0  0  0  0  0
   48.0220   33.6140   42.2990 C   0  0  1  0  0  0  0  0  0  0  0  0
   47.6450   34.3440   40.0470 C   0  0  0  0  0  0  0  0  0  0  0  0
   48.4900   34.8030   39.0270 C   0  0  0  0  0  0  0  0  0  0  0  0
   48.3510   34.3270   37.7340 C   0  0  0  0  0  0  0  0  0  0  0  0
   47.3600   33.4060   37.5280 N   0  0  0  0  0  0  0  0  0  0  0  0
   46.5600   32.9820   38.5280 C   0  0  0  0  0  0  0  0  0  0  0  0
   46.7060   33.4520   39.7770 N   0  0  0  0  0  0  0  0  0  0  0  0
   47.4610   33.9280   43.6550 C   0  0  0  0  0  0  0  0  0  0  0  0
   46.2260   33.1270   43.9040 C   0  0  0  0  0  0  0  0  0  0  0  0
   45.9110   32.9120   45.3400 C   0  0  0  0  0  0  0  0  0  0  0  0
   45.3900   33.6850   46.3070 N   0  0  0  0  0  0  0  0  0  0  0  0
   45.3060   33.0400   47.4250 O   0  0  0  0  0  0  0  0  0  0  0  0
   45.7660   31.8390   47.2260 C   0  0  0  0  0  0  0  0  0  0  0  0
   46.1510   31.7350   45.9270 N   0  0  0  0  0  0  0  0  0  0  0  0
   46.9815   35.5439   41.5540 H   0  0  0  0  0  0  0  0  0  0  0  0
   49.4008   36.1191   40.7738 H   0  0  0  0  0  0  0  0  0  0  0  0
   48.7089   36.5286   42.3622 H   0  0  0  0  0  0  0  0  0  0  0  0
   50.9746   34.8130   41.8088 H   0  0  0  0  0  0  0  0  0  0  0  0
   50.2407   35.1342   43.4006 H   0  0  0  0  0  0  0  0  0  0  0  0
   49.8437   32.8078   41.5331 H   0  0  0  0  0  0  0  0  0  0  0  0
   49.7725   32.8126   43.2811 H   0  0  0  0  0  0  0  0  0  0  0  0
   47.5121   32.7255   41.8982 H   0  0  0  0  0  0  0  0  0  0  0  0
   49.2684   35.5460   39.2551 H   0  0  0  0  0  0  0  0  0  0  0  0
   49.0020   34.6707   36.9166 H   0  0  0  0  0  0  0  0  0  0  0  0
   45.7761   32.2398   38.3168 H   0  0  0  0  0  0  0  0  0  0  0  0
   48.2109   33.6864   44.4226 H   0  0  0  0  0  0  0  0  0  0  0  0
   47.2080   34.9976   43.6982 H   0  0  0  0  0  0  0  0  0  0  0  0
   45.3771   33.6512   43.4407 H   0  0  0  0  0  0  0  0  0  0  0  0
   46.4053   32.1321   43.4704 H   0  0  0  0  0  0  0  0  0  0  0  0
   45.8320   31.0425   47.9818 H   0  0  0  0  0  0  0  0  0  0  0  0
  1  2  1  0
  1  5  1  0
  2  3  1  0
  3  4  1  0
  5  4  1  0
  5 12  1  0
  6  1  1  0
  7  6  2  0
  8  7  1  0
  9  8  2  0
  9 10  1  0
 10 11  2  0
 11  6  1  0
 12 13  1  0
 13 14  1  0
 14 18  1  0
 14 15  2  0
 15 16  1  0
 17 16  1  0
 18 17  2  0
  1 19  1  1
  2 20  1  0
  2 21  1  0
  3 22  1  0
  3 23  1  0
  4 24  1  0
  4 25  1  0
  5 26  1  6
  7 27  1  0
  8 28  1  0
 10 29  1  0
 12 30  1  0
 12 31  1  0
 13 32  1  0
 13 33  1  0
 17 34  1  0
M  ISO  8  19  13  20  13  21  13  22  13  23  13  24  13  25  13  26  13
M  ISO  8  27  14  28  14  29  14  30   8  31   8  32   8  33   8  34  14
M  END
>  <minimizedAffinity>  (1) 
-4.98386955

>  <minimizedRMSD>  (1) 
2.54555941

$$$$
