
     RDKit          3D

 32 34  0  0  0  0  0  0  0  0999 V2000
   45.4370   34.1060   41.6250 C   0  0  0  0  0  0  0  0  0  0  0  0
   44.7070   33.6270   40.6080 N   0  0  0  0  0  0  0  0  0  0  0  0
   45.4800   33.4640   39.5640 O   0  0  0  0  0  0  0  0  0  0  0  0
   46.7020   33.8270   39.8820 C   0  0  0  0  0  0  0  0  0  0  0  0
   46.7010   34.2340   41.1700 N   0  0  0  0  0  0  0  0  0  0  0  0
   44.4590   35.9640   44.7330 C   0  0  0  0  0  0  0  0  0  0  0  0
   44.6170   35.7190   43.3660 C   0  0  0  0  0  0  0  0  0  0  0  0
   45.2090   34.4950   43.0190 C   0  0  0  0  0  0  0  0  0  0  0  0
   45.5960   33.6160   43.9850 N   0  0  0  0  0  0  0  0  0  0  0  0
   45.4110   33.9190   45.3060 C   0  0  0  0  0  0  0  0  0  0  0  0
   44.8370   35.1060   45.6600 N   0  0  0  0  0  0  0  0  0  0  0  0
   47.9130   33.8110   39.0040 C   0  0  0  0  0  0  0  0  0  0  0  0
   48.0890   32.5180   38.3750 N   0  0  0  0  0  0  0  0  0  0  0  0
   49.4960   32.1710   38.3550 C   0  0  0  0  0  0  0  0  0  0  0  0
   49.9090   31.4340   37.1030 C   0  0  0  0  0  0  0  0  0  0  0  0
   49.6240   32.1860   35.8940 N   0  0  0  0  0  0  0  0  0  0  0  0
   48.6470   33.2280   36.1310 C   0  0  0  0  0  0  0  0  0  0  0  0
   47.5810   32.6290   37.0180 C   0  0  0  0  0  0  0  0  0  0  0  0
   44.0000   36.9125   45.0487 H   0  0  0  0  0  0  0  0  0  0  0  0
   44.2953   36.4450   42.6048 H   0  0  0  0  0  0  0  0  0  0  0  0
   45.7247   33.2063   46.0830 H   0  0  0  0  0  0  0  0  0  0  0  0
   47.7996   34.5772   38.2229 H   0  0  0  0  0  0  0  0  0  0  0  0
   48.7962   34.0179   39.6262 H   0  0  0  0  0  0  0  0  0  0  0  0
   50.0855   33.0969   38.4262 H   0  0  0  0  0  0  0  0  0  0  0  0
   49.6790   31.4983   39.2059 H   0  0  0  0  0  0  0  0  0  0  0  0
   50.9904   31.2383   37.1497 H   0  0  0  0  0  0  0  0  0  0  0  0
   49.3297   30.4999   37.0593 H   0  0  0  0  0  0  0  0  0  0  0  0
   49.2584   31.5418   35.1783 H   0  0  0  0  0  0  0  0  0  0  0  0
   49.1205   34.0848   36.6328 H   0  0  0  0  0  0  0  0  0  0  0  0
   48.2175   33.5906   35.1854 H   0  0  0  0  0  0  0  0  0  0  0  0
   46.6914   33.2759   37.0109 H   0  0  0  0  0  0  0  0  0  0  0  0
   47.3100   31.6306   36.6441 H   0  0  0  0  0  0  0  0  0  0  0  0
  1  8  1  0
  2  1  2  0
  3  4  1  0
  3  2  1  0
  4  5  2  0
  5  1  1  0
  6 11  2  0
  7  6  1  0
  8  7  2  0
  8  9  1  0
  9 10  2  0
 10 11  1  0
 12  4  1  0
 13 12  1  0
 14 13  1  0
 15 14  1  0
 16 17  1  0
 16 15  1  0
 17 18  1  0
 18 13  1  0
  6 19  1  0
  7 20  1  0
 10 21  1  0
 12 22  1  0
 12 23  1  0
 14 24  1  0
 14 25  1  0
 15 26  1  0
 15 27  1  0
 16 28  1  0
 17 29  1  0
 17 30  1  0
 18 31  1  0
 18 32  1  0
M  ISO  8  19  14  20  14  21  14  22   8  23   8  24  13  25  13  26  13
M  ISO  6  27  13  28   5  29  13  30  13  31  13  32  13
M  END
>  <minimizedAffinity>  (1) 
-4.3494854

>  <minimizedRMSD>  (1) 
1.26264334

$$$$
