
     RDKit          3D

 33 35  0  0  0  0  0  0  0  0999 V2000
   45.6390   34.1310   41.6850 C   0  0  0  0  0  0  0  0  0  0  0  0
   45.0030   33.5280   40.6670 N   0  0  0  0  0  0  0  0  0  0  0  0
   45.7840   33.4420   39.6390 O   0  0  0  0  0  0  0  0  0  0  0  0
   46.9500   33.9880   39.9620 C   0  0  0  0  0  0  0  0  0  0  0  0
   46.8620   34.4160   41.2280 N   0  0  0  0  0  0  0  0  0  0  0  0
   44.4610   35.9740   44.7280 C   0  0  0  0  0  0  0  0  0  0  0  0
   44.7010   35.7290   43.3750 C   0  0  0  0  0  0  0  0  0  0  0  0
   45.3300   34.5150   43.0540 C   0  0  0  0  0  0  0  0  0  0  0  0
   45.6730   33.6430   44.0420 N   0  0  0  0  0  0  0  0  0  0  0  0
   45.4100   33.9450   45.3520 C   0  0  0  0  0  0  0  0  0  0  0  0
   44.8080   35.1070   45.6730 N   0  0  0  0  0  0  0  0  0  0  0  0
   48.1740   34.1220   39.0930 C   0  0  0  0  0  0  0  0  0  0  0  0
   48.6890   32.8450   38.7290 N   0  0  0  0  0  0  0  0  0  0  0  0
   49.3480   32.7740   37.4660 C   0  0  0  0  0  0  0  0  0  0  0  0
   49.3220   31.2810   37.1220 C   0  0  0  0  0  0  0  0  0  0  0  0
   50.2320   30.6050   38.0910 C   0  0  0  0  0  0  0  0  0  0  0  0
   50.0330   30.9410   39.5300 C   0  0  0  0  0  0  0  0  0  0  0  0
   49.3990   32.2430   39.8230 C   0  0  0  0  0  0  0  0  0  0  0  0
   43.9696   36.9136   45.0208 H   0  0  0  0  0  0  0  0  0  0  0  0
   44.4115   36.4517   42.5979 H   0  0  0  0  0  0  0  0  0  0  0  0
   45.6913   33.2363   46.1448 H   0  0  0  0  0  0  0  0  0  0  0  0
   47.9073   34.6749   38.1802 H   0  0  0  0  0  0  0  0  0  0  0  0
   48.9471   34.6607   39.6606 H   0  0  0  0  0  0  0  0  0  0  0  0
   48.8069   33.3599   36.7084 H   0  0  0  0  0  0  0  0  0  0  0  0
   50.3677   33.1856   37.4951 H   0  0  0  0  0  0  0  0  0  0  0  0
   48.3002   30.8862   37.2219 H   0  0  0  0  0  0  0  0  0  0  0  0
   49.6461   31.1069   36.0854 H   0  0  0  0  0  0  0  0  0  0  0  0
   50.0946   29.5194   37.9783 H   0  0  0  0  0  0  0  0  0  0  0  0
   51.2421   30.9634   37.8434 H   0  0  0  0  0  0  0  0  0  0  0  0
   49.4024   30.1556   39.9721 H   0  0  0  0  0  0  0  0  0  0  0  0
   51.0453   31.0088   39.9551 H   0  0  0  0  0  0  0  0  0  0  0  0
   50.1883   32.9407   40.1397 H   0  0  0  0  0  0  0  0  0  0  0  0
   48.6454   32.0442   40.5993 H   0  0  0  0  0  0  0  0  0  0  0  0
  1  8  1  0
  2  1  2  0
  3  4  1  0
  3  2  1  0
  4  5  2  0
  5  1  1  0
  6 11  2  0
  7  6  1  0
  8  7  2  0
  8  9  1  0
  9 10  2  0
 10 11  1  0
 12  4  1  0
 13 12  1  0
 13 18  1  0
 14 13  1  0
 15 14  1  0
 15 16  1  0
 16 17  1  0
 17 18  1  0
  6 19  1  0
  7 20  1  0
 10 21  1  0
 12 22  1  0
 12 23  1  0
 14 24  1  0
 14 25  1  0
 15 26  1  0
 15 27  1  0
 16 28  1  0
 16 29  1  0
 17 30  1  0
 17 31  1  0
 18 32  1  0
 18 33  1  0
M  ISO  8  19  14  20  14  21  14  22   8  23   8  24  13  25  13  26  13
M  ISO  7  27  13  28  13  29  13  30  13  31  13  32  13  33  13
M  END
>  <minimizedAffinity>  (1) 
-4.13852501

>  <minimizedRMSD>  (1) 
1.03092659

$$$$
