
     RDKit          3D

 24 26  0  0  0  0  0  0  0  0999 V2000
   45.7440   34.1150   41.7110 C   0  0  0  0  0  0  0  0  0  0  0  0
   45.1810   33.3940   40.7190 N   0  0  0  0  0  0  0  0  0  0  0  0
   45.9700   33.3730   39.6850 O   0  0  0  0  0  0  0  0  0  0  0  0
   47.0440   34.0660   39.9700 C   0  0  0  0  0  0  0  0  0  0  0  0
   46.9170   34.5380   41.2370 N   0  0  0  0  0  0  0  0  0  0  0  0
   44.4740   35.9320   44.7270 C   0  0  0  0  0  0  0  0  0  0  0  0
   44.7400   35.7100   43.3560 C   0  0  0  0  0  0  0  0  0  0  0  0
   45.3920   34.5050   43.0680 C   0  0  0  0  0  0  0  0  0  0  0  0
   45.7220   33.6460   44.0710 N   0  0  0  0  0  0  0  0  0  0  0  0
   45.4390   33.9160   45.3710 C   0  0  0  0  0  0  0  0  0  0  0  0
   44.8020   35.0850   45.6850 N   0  0  0  0  0  0  0  0  0  0  0  0
   48.2380   34.3300   39.0970 C   0  0  0  0  0  0  0  0  0  0  0  0
   48.8080   33.0080   38.6630 C   0  0  0  0  0  0  0  0  0  0  0  0
   49.2050   32.0410   39.6510 C   0  0  0  0  0  0  0  0  0  0  0  0
   49.7980   30.6760   38.6630 S   0  0  0  0  0  0  0  0  0  0  0  0
   49.4270   31.6070   37.0280 C   0  0  0  0  0  0  0  0  0  0  0  0
   48.9010   32.8330   37.3650 N   0  0  0  0  0  0  0  0  0  0  0  0
   43.9643   36.8643   45.0117 H   0  0  0  0  0  0  0  0  0  0  0  0
   44.4559   36.4301   42.5744 H   0  0  0  0  0  0  0  0  0  0  0  0
   45.7183   33.2039   46.1615 H   0  0  0  0  0  0  0  0  0  0  0  0
   47.9321   34.9108   38.2143 H   0  0  0  0  0  0  0  0  0  0  0  0
   48.9939   34.9042   39.6528 H   0  0  0  0  0  0  0  0  0  0  0  0
   49.1556   32.1222   40.7469 H   0  0  0  0  0  0  0  0  0  0  0  0
   49.6022   31.2306   36.0094 H   0  0  0  0  0  0  0  0  0  0  0  0
  1  8  1  0
  2  1  2  0
  3  4  1  0
  3  2  1  0
  4  5  2  0
  5  1  1  0
  6 11  2  0
  7  6  1  0
  8  7  2  0
  8  9  1  0
  9 10  2  0
 10 11  1  0
 12  4  1  0
 13 12  1  0
 13 14  2  0
 15 14  1  0
 16 17  2  0
 16 15  1  0
 17 13  1  0
  6 18  1  0
  7 19  1  0
 10 20  1  0
 12 21  1  0
 12 22  1  0
 14 23  1  0
 16 24  1  0
M  ISO  7  18  14  19  14  20  14  21   8  22   8  23  14  24  14
M  END
>  <minimizedAffinity>  (1) 
-4.08147001

>  <minimizedRMSD>  (1) 
0.9803316

$$$$
