
     RDKit          3D

 23 25  0  0  0  0  0  0  0  0999 V2000
   45.6520   34.0610   41.7190 C   0  0  0  0  0  0  0  0  0  0  0  0
   45.0790   33.3340   40.7550 N   0  0  0  0  0  0  0  0  0  0  0  0
   45.8650   33.3000   39.7110 O   0  0  0  0  0  0  0  0  0  0  0  0
   46.9490   33.9980   39.9780 C   0  0  0  0  0  0  0  0  0  0  0  0
   46.8300   34.4810   41.2320 N   0  0  0  0  0  0  0  0  0  0  0  0
   44.4550   35.9650   44.7280 C   0  0  0  0  0  0  0  0  0  0  0  0
   44.7060   35.6840   43.3840 C   0  0  0  0  0  0  0  0  0  0  0  0
   45.3290   34.4830   43.0820 C   0  0  0  0  0  0  0  0  0  0  0  0
   45.6800   33.6120   44.0920 N   0  0  0  0  0  0  0  0  0  0  0  0
   45.4050   33.9480   45.3910 C   0  0  0  0  0  0  0  0  0  0  0  0
   44.8000   35.1130   45.6990 N   0  0  0  0  0  0  0  0  0  0  0  0
   48.1190   34.2320   39.0750 C   0  0  0  0  0  0  0  0  0  0  0  0
   48.9000   32.9660   39.0660 C   0  0  0  0  0  0  0  0  0  0  0  0
   49.2910   32.2960   37.9540 N   0  0  0  0  0  0  0  0  0  0  0  0
   49.9570   31.2300   38.2900 O   0  0  0  0  0  0  0  0  0  0  0  0
   50.0160   31.1810   39.6190 C   0  0  0  0  0  0  0  0  0  0  0  0
   49.3570   32.2660   40.1210 N   0  0  0  0  0  0  0  0  0  0  0  0
   43.9611   36.9109   44.9950 H   0  0  0  0  0  0  0  0  0  0  0  0
   44.4193   36.3912   42.5917 H   0  0  0  0  0  0  0  0  0  0  0  0
   45.6829   33.2544   46.1982 H   0  0  0  0  0  0  0  0  0  0  0  0
   47.7735   34.4735   38.0590 H   0  0  0  0  0  0  0  0  0  0  0  0
   48.7310   35.0765   39.4247 H   0  0  0  0  0  0  0  0  0  0  0  0
   50.5119   30.3986   40.2123 H   0  0  0  0  0  0  0  0  0  0  0  0
  1  8  1  0
  2  1  2  0
  3  4  1  0
  3  2  1  0
  4  5  2  0
  5  1  1  0
  6 11  2  0
  7  6  1  0
  8  7  2  0
  8  9  1  0
  9 10  2  0
 10 11  1  0
 12  4  1  0
 13 12  1  0
 13 17  1  0
 14 15  1  0
 14 13  2  0
 15 16  1  0
 16 17  2  0
  6 18  1  0
  7 19  1  0
 10 20  1  0
 12 21  1  0
 12 22  1  0
 16 23  1  0
M  ISO  6  18  14  19  14  20  14  21   8  22   8  23  14
M  END
>  <minimizedAffinity>  (1) 
-4.04842329

>  <minimizedRMSD>  (1) 
0.516131759

$$$$
