
     RDKit          3D

 35 38  0  0  0  0  0  0  0  0999 V2000
   42.9930   33.5630   40.1140 C   0  0  0  0  0  0  0  0  0  0  0  0
   42.9650   32.9090   41.3010 N   0  0  0  0  0  0  0  0  0  0  0  0
   44.1750   32.6460   41.6910 O   0  0  0  0  0  0  0  0  0  0  0  0
   45.0060   33.1150   40.7810 C   0  0  0  0  0  0  0  0  0  0  0  0
   44.2670   33.6850   39.8010 N   0  0  0  0  0  0  0  0  0  0  0  0
   41.1500   35.7880   37.7130 C   0  0  0  0  0  0  0  0  0  0  0  0
   42.1690   35.3600   38.5880 C   0  0  0  0  0  0  0  0  0  0  0  0
   42.0020   34.1120   39.1900 C   0  0  0  0  0  0  0  0  0  0  0  0
   40.9090   33.3610   38.9360 N   0  0  0  0  0  0  0  0  0  0  0  0
   39.9520   33.8070   38.0890 C   0  0  0  0  0  0  0  0  0  0  0  0
   40.0780   35.0300   37.4770 N   0  0  0  0  0  0  0  0  0  0  0  0
   46.5140   33.0630   40.7700 C   0  0  0  0  0  0  0  0  0  0  0  0
   47.0870   34.5590   41.6550 S   0  0  0  0  0  0  0  0  0  0  0  0
   46.1760   34.7450   43.1910 C   0  0  0  0  0  0  0  0  0  0  0  0
   45.3460   35.8520   43.1740 C   0  0  0  0  0  0  0  0  0  0  0  0
   44.5550   36.1590   44.2840 C   0  0  0  0  0  0  0  0  0  0  0  0
   44.6460   35.3110   45.3800 C   0  0  0  0  0  0  0  0  0  0  0  0
   45.4790   34.1920   45.4090 C   0  0  0  0  0  0  0  0  0  0  0  0
   45.5860   33.3420   46.4730 C   0  0  0  0  0  0  0  0  0  0  0  0
   46.4430   32.2450   46.4210 C   0  0  0  0  0  0  0  0  0  0  0  0
   47.1970   32.0130   45.2740 C   0  0  0  0  0  0  0  0  0  0  0  0
   47.1160   32.8470   44.1800 C   0  0  0  0  0  0  0  0  0  0  0  0
   46.2460   33.9170   44.2990 C   0  0  0  0  0  0  0  0  0  0  0  0
   41.2405   36.7650   37.2157 H   0  0  0  0  0  0  0  0  0  0  0  0
   43.0549   35.9810   38.7871 H   0  0  0  0  0  0  0  0  0  0  0  0
   39.0668   33.1853   37.8894 H   0  0  0  0  0  0  0  0  0  0  0  0
   46.8675   32.1574   41.2846 H   0  0  0  0  0  0  0  0  0  0  0  0
   46.9052   33.0324   39.7424 H   0  0  0  0  0  0  0  0  0  0  0  0
   45.3087   36.4939   42.2815 H   0  0  0  0  0  0  0  0  0  0  0  0
   43.8890   37.0345   44.2896 H   0  0  0  0  0  0  0  0  0  0  0  0
   44.0330   35.5317   46.2663 H   0  0  0  0  0  0  0  0  0  0  0  0
   44.9900   33.5255   47.3791 H   0  0  0  0  0  0  0  0  0  0  0  0
   46.5235   31.5653   47.2821 H   0  0  0  0  0  0  0  0  0  0  0  0
   47.8721   31.1452   45.2402 H   0  0  0  0  0  0  0  0  0  0  0  0
   47.7064   32.6731   43.2683 H   0  0  0  0  0  0  0  0  0  0  0  0
  1  2  2  0
  2  3  1  0
  4  3  1  0
  5  1  1  0
  5  4  2  0
  6  7  2  0
  7  8  1  0
  8  1  1  0
  9  8  2  0
 10  9  1  0
 11  6  1  0
 11 10  2  0
 12  4  1  0
 12 13  1  0
 13 14  1  0
 14 23  1  0
 15 14  2  0
 15 16  1  0
 16 17  2  0
 17 18  1  0
 18 19  2  0
 20 19  1  0
 21 20  2  0
 22 23  2  0
 22 21  1  0
 23 18  1  0
  6 24  1  0
  7 25  1  0
 10 26  1  0
 12 27  1  0
 12 28  1  0
 15 29  1  0
 16 30  1  0
 17 31  1  0
 19 32  1  0
 20 33  1  0
 21 34  1  0
 22 35  1  0
M  ISO  8  24  14  25  14  26  14  27   8  28   8  29  14  30  14  31  14
M  ISO  4  32  14  33  14  34  14  35  14
M  END
>  <minimizedAffinity>  (1) 
-5.88315058

>  <minimizedRMSD>  (1) 
5.51198483

$$$$
