
     RDKit          3D

 30 33  0  0  0  0  0  0  0  0999 V2000
   47.3450   34.2310   42.0770 C   0  0  0  0  0  0  0  0  0  0  0  0
   48.5420   33.6230   42.0430 N   0  0  0  0  0  0  0  0  0  0  0  0
   48.9460   33.5070   40.8150 O   0  0  0  0  0  0  0  0  0  0  0  0
   48.0150   34.0400   40.0230 C   0  0  0  0  0  0  0  0  0  0  0  0
   47.0300   34.4840   40.8250 N   0  0  0  0  0  0  0  0  0  0  0  0
   44.7150   36.0290   44.0600 C   0  0  0  0  0  0  0  0  0  0  0  0
   45.5780   35.7730   42.9670 C   0  0  0  0  0  0  0  0  0  0  0  0
   46.4010   34.6360   43.1090 C   0  0  0  0  0  0  0  0  0  0  0  0
   46.3240   33.8910   44.2260 N   0  0  0  0  0  0  0  0  0  0  0  0
   45.4870   34.1720   45.2420 C   0  0  0  0  0  0  0  0  0  0  0  0
   44.6670   35.2720   45.1420 N   0  0  0  0  0  0  0  0  0  0  0  0
   48.0200   34.1470   38.5290 C   0  0  0  0  0  0  0  0  0  0  0  0
   48.3490   32.4700   37.8770 S   0  0  0  0  0  0  0  0  0  0  0  0
   47.5200   32.3170   32.9390 N   0  0  0  0  0  0  0  0  0  0  0  0
   48.7850   32.6120   33.2910 C   0  0  0  0  0  0  0  0  0  0  0  0
   48.8980   32.6260   34.6320 N   0  0  0  0  0  0  0  0  0  0  0  0
   47.6920   32.3360   35.1880 C   0  0  0  0  0  0  0  0  0  0  0  0
   47.2450   32.2170   36.4850 C   0  0  0  0  0  0  0  0  0  0  0  0
   45.9420   31.9090   36.6050 N   0  0  0  0  0  0  0  0  0  0  0  0
   45.1050   31.7210   35.5800 C   0  0  0  0  0  0  0  0  0  0  0  0
   45.5410   31.8370   34.2920 N   0  0  0  0  0  0  0  0  0  0  0  0
   46.8460   32.1470   34.0890 C   0  0  0  0  0  0  0  0  0  0  0  0
   44.0500   36.9035   44.0056 H   0  0  0  0  0  0  0  0  0  0  0  0
   45.6047   36.4135   42.0731 H   0  0  0  0  0  0  0  0  0  0  0  0
   45.4592   33.5330   46.1369 H   0  0  0  0  0  0  0  0  0  0  0  0
   47.0436   34.5067   38.1723 H   0  0  0  0  0  0  0  0  0  0  0  0
   48.7858   34.8592   38.1879 H   0  0  0  0  0  0  0  0  0  0  0  0
   47.1449   32.2377   31.9830 H   0  0  0  0  0  0  0  0  0  0  0  0
   49.6057   32.8122   32.5865 H   0  0  0  0  0  0  0  0  0  0  0  0
   44.0523   31.4698   35.7769 H   0  0  0  0  0  0  0  0  0  0  0  0
  1  8  1  0
  2  1  2  0
  3  2  1  0
  4  3  1  0
  4  5  2  0
  5  1  1  0
  6 11  2  0
  7  8  2  0
  7  6  1  0
  8  9  1  0
  9 10  2  0
 11 10  1  0
 12  4  1  0
 13 12  1  0
 14 15  1  0
 14 22  1  0
 15 16  2  0
 16 17  1  0
 17 18  2  0
 18 19  1  0
 18 13  1  0
 20 19  2  0
 21 20  1  0
 22 21  2  0
 22 17  1  0
  6 23  1  0
  7 24  1  0
 10 25  1  0
 12 26  1  0
 12 27  1  0
 14 28  1  0
 15 29  1  0
 20 30  1  0
M  ISO  8  23  14  24  14  25  14  26   8  27   8  28   9  29  14  30  14
M  END
>  <minimizedAffinity>  (1) 
-5.37388897

>  <minimizedRMSD>  (1) 
3.04124165

$$$$
