
     RDKit          3D

 33 36  0  0  0  0  0  0  0  0999 V2000
   46.3210   34.9170   42.3140 C   0  0  0  0  0  0  0  0  0  0  0  0
   45.6650   33.8610   45.6930 C   0  0  0  0  0  0  0  0  0  0  0  0
   44.8350   34.9160   45.5560 N   0  0  0  0  0  0  0  0  0  0  0  0
   44.9520   35.4250   44.3660 O   0  0  0  0  0  0  0  0  0  0  0  0
   45.8540   34.7100   43.7160 C   0  0  0  0  0  0  0  0  0  0  0  0
   46.2980   33.7360   44.5440 N   0  0  0  0  0  0  0  0  0  0  0  0
   45.6100   31.7950   48.8300 C   0  0  0  0  0  0  0  0  0  0  0  0
   45.1760   32.7590   47.8830 C   0  0  0  0  0  0  0  0  0  0  0  0
   45.9800   32.9100   46.7530 C   0  0  0  0  0  0  0  0  0  0  0  0
   47.1120   32.1640   46.5930 N   0  0  0  0  0  0  0  0  0  0  0  0
   47.4820   31.2550   47.5290 C   0  0  0  0  0  0  0  0  0  0  0  0
   46.7180   31.0780   48.6520 N   0  0  0  0  0  0  0  0  0  0  0  0
   46.1010   33.3640   41.4110 S   0  0  0  0  0  0  0  0  0  0  0  0
   47.6080   32.8060   40.6440 C   0  0  0  0  0  0  0  0  0  0  0  0
   48.4760   32.2110   41.5030 N   0  0  0  0  0  0  0  0  0  0  0  0
   49.6690   31.7260   41.0950 C   0  0  0  0  0  0  0  0  0  0  0  0
   49.9880   31.8460   39.8030 N   0  0  0  0  0  0  0  0  0  0  0  0
   49.1710   32.4230   38.9140 C   0  0  0  0  0  0  0  0  0  0  0  0
   49.4380   32.5760   37.5670 C   0  0  0  0  0  0  0  0  0  0  0  0
   48.5760   33.1750   36.6770 C   0  0  0  0  0  0  0  0  0  0  0  0
   47.3700   33.6460   37.1690 C   0  0  0  0  0  0  0  0  0  0  0  0
   47.0100   33.5410   38.5020 C   0  0  0  0  0  0  0  0  0  0  0  0
   47.9430   32.9270   39.3110 C   0  0  0  0  0  0  0  0  0  0  0  0
   45.7287   35.7121   41.8376 H   0  0  0  0  0  0  0  0  0  0  0  0
   47.3798   35.2151   42.3058 H   0  0  0  0  0  0  0  0  0  0  0  0
   45.0124   31.6351   49.7395 H   0  0  0  0  0  0  0  0  0  0  0  0
   44.2610   33.3513   48.0311 H   0  0  0  0  0  0  0  0  0  0  0  0
   48.3959   30.6597   47.3863 H   0  0  0  0  0  0  0  0  0  0  0  0
   50.3579   31.2462   41.8058 H   0  0  0  0  0  0  0  0  0  0  0  0
   50.3965   32.1965   37.1832 H   0  0  0  0  0  0  0  0  0  0  0  0
   48.8355   33.2761   35.6129 H   0  0  0  0  0  0  0  0  0  0  0  0
   46.6676   34.1243   36.4705 H   0  0  0  0  0  0  0  0  0  0  0  0
   46.0514   33.9191   38.8869 H   0  0  0  0  0  0  0  0  0  0  0  0
  1  5  1  0
  2  9  1  0
  3  2  2  0
  4  3  1  0
  5  4  1  0
  5  6  2  0
  6  2  1  0
  8  7  2  0
  9  8  1  0
 10  9  2  0
 10 11  1  0
 11 12  2  0
 12  7  1  0
 13  1  1  0
 14 13  1  0
 14 15  2  0
 16 15  1  0
 17 16  2  0
 18 23  2  0
 18 17  1  0
 19 18  1  0
 20 21  1  0
 20 19  2  0
 21 22  2  0
 22 23  1  0
 23 14  1  0
  1 24  1  0
  1 25  1  0
  7 26  1  0
  8 27  1  0
 11 28  1  0
 16 29  1  0
 19 30  1  0
 20 31  1  0
 21 32  1  0
 22 33  1  0
M  ISO  8  24   8  25   8  26  14  27  14  28  14  29  14  30  14  31  14
M  ISO  2  32  14  33  14
M  END
>  <minimizedAffinity>  (1) 
-5.3329668

>  <minimizedRMSD>  (1) 
4.30247498

$$$$
