
     RDKit          3D

 29 31  0  0  0  0  0  0  0  0999 V2000
   44.7410   34.3540   42.3670 C   0  0  0  0  0  0  0  0  0  0  0  0
   45.8550   35.1050   42.1800 N   0  0  0  0  0  0  0  0  0  0  0  0
   46.7870   34.7240   43.0010 O   0  0  0  0  0  0  0  0  0  0  0  0
   46.3080   33.7380   43.7240 C   0  0  0  0  0  0  0  0  0  0  0  0
   45.0270   33.5000   43.3320 N   0  0  0  0  0  0  0  0  0  0  0  0
   41.4250   35.2830   40.8730 C   0  0  0  0  0  0  0  0  0  0  0  0
   42.7040   35.4770   41.4430 C   0  0  0  0  0  0  0  0  0  0  0  0
   43.4080   34.2980   41.7730 C   0  0  0  0  0  0  0  0  0  0  0  0
   42.8830   33.0700   41.5550 N   0  0  0  0  0  0  0  0  0  0  0  0
   41.6400   32.9610   41.0010 C   0  0  0  0  0  0  0  0  0  0  0  0
   40.9220   34.0790   40.6660 N   0  0  0  0  0  0  0  0  0  0  0  0
   47.0030   32.9620   44.8130 C   0  0  0  0  0  0  0  0  0  0  0  0
   46.1250   31.3830   45.0080 S   0  0  0  0  0  0  0  0  0  0  0  0
   45.7800   31.2130   46.7610 C   0  0  0  0  0  0  0  0  0  0  0  0
   45.3050   30.0630   47.3600 C   0  0  0  0  0  0  0  0  0  0  0  0
   45.0830   30.0800   48.7340 C   0  0  0  0  0  0  0  0  0  0  0  0
   45.3270   31.2060   49.4940 C   0  0  0  0  0  0  0  0  0  0  0  0
   45.8050   32.3690   48.9000 C   0  0  0  0  0  0  0  0  0  0  0  0
   46.0250   32.3450   47.5220 C   0  0  0  0  0  0  0  0  0  0  0  0
   40.8287   36.1638   40.5925 H   0  0  0  0  0  0  0  0  0  0  0  0
   43.1228   36.4790   41.6178 H   0  0  0  0  0  0  0  0  0  0  0  0
   41.2100   31.9645   40.8215 H   0  0  0  0  0  0  0  0  0  0  0  0
   48.0502   32.7767   44.5318 H   0  0  0  0  0  0  0  0  0  0  0  0
   46.9947   33.5278   45.7563 H   0  0  0  0  0  0  0  0  0  0  0  0
   45.1074   29.1577   46.7672 H   0  0  0  0  0  0  0  0  0  0  0  0
   44.7034   29.1728   49.2268 H   0  0  0  0  0  0  0  0  0  0  0  0
   45.1419   31.1833   50.5781 H   0  0  0  0  0  0  0  0  0  0  0  0
   46.0023   33.2737   49.4938 H   0  0  0  0  0  0  0  0  0  0  0  0
   46.4038   33.2507   47.0257 H   0  0  0  0  0  0  0  0  0  0  0  0
  1  5  1  0
  2  1  2  0
  2  3  1  0
  3  4  1  0
  4 12  1  0
  5  4  2  0
  6  7  2  0
  7  8  1  0
  8  1  1  0
  9  8  2  0
 10  9  1  0
 11  6  1  0
 11 10  2  0
 12 13  1  0
 13 14  1  0
 14 15  2  0
 14 19  1  0
 15 16  1  0
 16 17  2  0
 18 17  1  0
 19 18  2  0
  6 20  1  0
  7 21  1  0
 10 22  1  0
 12 23  1  0
 12 24  1  0
 15 25  1  0
 16 26  1  0
 17 27  1  0
 18 28  1  0
 19 29  1  0
M  ISO  8  20  14  21  14  22  14  23   8  24   8  25  14  26  14  27  14
M  ISO  2  28  14  29  14
M  END
>  <minimizedAffinity>  (1) 
-4.94678259

>  <minimizedRMSD>  (1) 
7.87473154

$$$$
