
     RDKit          3D

 32 34  0  0  0  0  0  0  0  0999 V2000
   45.7160   34.1230   41.5340 C   0  0  0  0  0  0  0  0  0  0  0  0
   45.0820   33.5030   40.5240 N   0  0  0  0  0  0  0  0  0  0  0  0
   45.8940   33.3960   39.5050 O   0  0  0  0  0  0  0  0  0  0  0  0
   47.0450   33.9350   39.8350 C   0  0  0  0  0  0  0  0  0  0  0  0
   46.9500   34.3980   41.1120 N   0  0  0  0  0  0  0  0  0  0  0  0
   44.5070   36.0410   44.5350 C   0  0  0  0  0  0  0  0  0  0  0  0
   44.7820   35.7530   43.1860 C   0  0  0  0  0  0  0  0  0  0  0  0
   45.3830   34.5310   42.8890 C   0  0  0  0  0  0  0  0  0  0  0  0
   45.6820   33.6670   43.9010 N   0  0  0  0  0  0  0  0  0  0  0  0
   45.3970   33.9890   45.1910 C   0  0  0  0  0  0  0  0  0  0  0  0
   44.8110   35.1710   45.5060 N   0  0  0  0  0  0  0  0  0  0  0  0
   48.2600   34.0370   38.9840 C   0  0  0  0  0  0  0  0  0  0  0  0
   48.9870   32.3900   38.8090 S   0  0  0  0  0  0  0  0  0  0  0  0
   49.2050   31.8630   34.2710 C   0  0  0  0  0  0  0  0  0  0  0  0
   48.3720   32.7820   34.9190 C   0  0  0  0  0  0  0  0  0  0  0  0
   48.3360   32.9110   36.3130 C   0  0  0  0  0  0  0  0  0  0  0  0
   49.1750   32.0760   37.0570 C   0  0  0  0  0  0  0  0  0  0  0  0
   50.0000   31.1660   36.4340 C   0  0  0  0  0  0  0  0  0  0  0  0
   50.0080   31.0680   35.0590 C   0  0  0  0  0  0  0  0  0  0  0  0
   49.1800   31.7760   32.5250 S   0  0  0  0  0  0  0  0  0  0  0  0
   50.5200   31.3760   32.0240 O   0  0  0  0  0  0  0  0  0  0  0  0
   48.8010   33.0980   31.9180 O   0  0  0  0  0  0  0  0  0  0  0  0
   44.0335   36.9987   44.7969 H   0  0  0  0  0  0  0  0  0  0  0  0
   44.5306   36.4697   42.3903 H   0  0  0  0  0  0  0  0  0  0  0  0
   45.6460   33.2785   45.9930 H   0  0  0  0  0  0  0  0  0  0  0  0
   47.9858   34.4276   37.9929 H   0  0  0  0  0  0  0  0  0  0  0  0
   48.9866   34.7194   39.4492 H   0  0  0  0  0  0  0  0  0  0  0  0
   47.7211   33.4272   34.3106 H   0  0  0  0  0  0  0  0  0  0  0  0
   47.6740   33.6402   36.8030 H   0  0  0  0  0  0  0  0  0  0  0  0
   50.6536   30.5163   37.0346 H   0  0  0  0  0  0  0  0  0  0  0  0
   50.6732   30.3356   34.5783 H   0  0  0  0  0  0  0  0  0  0  0  0
   48.2429   30.8450   32.1616 H   0  0  0  0  0  0  0  0  0  0  0  0
  1  8  1  0
  2  1  2  0
  3  4  1  0
  3  2  1  0
  4  5  2  0
  5  1  1  0
  6 11  2  0
  7  6  1  0
  8  7  2  0
  8  9  1  0
  9 10  2  0
 10 11  1  0
 12  4  1  0
 13 12  1  0
 14 15  2  0
 14 19  1  0
 15 16  1  0
 16 17  2  0
 17 13  1  0
 18 17  1  0
 19 18  2  0
 20 14  1  0
 21 20  2  0
 22 20  2  0
  6 23  1  0
  7 24  1  0
 10 25  1  0
 12 26  1  0
 12 27  1  0
 15 28  1  0
 16 29  1  0
 18 30  1  0
 19 31  1  0
 20 32  1  0
M  ISO  8  23  14  24  14  25  14  26   8  27   8  28  14  29  14  30  14
M  ISO  2  31  14  32  11
M  END
>  <minimizedAffinity>  (1) 
-4.79250908

>  <minimizedRMSD>  (1) 
3.22259641

$$$$
