
     RDKit          3D

 28 29  0  0  0  0  0  0  0  0999 V2000
   45.8550   35.0160   42.1790 C   0  0  0  0  0  0  0  0  0  0  0  0
   44.9280   35.6560   42.9010 N   0  0  0  0  0  0  0  0  0  0  0  0
   43.7870   35.6680   42.2810 O   0  0  0  0  0  0  0  0  0  0  0  0
   43.9450   35.0330   41.1400 C   0  0  0  0  0  0  0  0  0  0  0  0
   45.2280   34.6330   41.0840 N   0  0  0  0  0  0  0  0  0  0  0  0
   49.6050   35.1230   42.1170 C   0  0  0  0  0  0  0  0  0  0  0  0
   48.2830   35.5840   41.9420 C   0  0  0  0  0  0  0  0  0  0  0  0
   47.2730   34.6700   42.3070 C   0  0  0  0  0  0  0  0  0  0  0  0
   47.5810   33.4500   42.7850 N   0  0  0  0  0  0  0  0  0  0  0  0
   48.8720   33.0600   42.9300 C   0  0  0  0  0  0  0  0  0  0  0  0
   49.8800   33.9080   42.5920 N   0  0  0  0  0  0  0  0  0  0  0  0
   42.9360   34.7650   40.0520 C   0  0  0  0  0  0  0  0  0  0  0  0
   41.5180   33.9430   40.8150 S   0  0  0  0  0  0  0  0  0  0  0  0
   40.0260   34.8680   40.3590 C   0  0  0  0  0  0  0  0  0  0  0  0
   39.8340   34.6370   38.8550 C   0  0  0  0  0  0  0  0  0  0  0  0
   40.2290   36.3410   40.6300 C   0  0  0  0  0  0  0  0  0  0  0  0
   50.4386   35.7900   41.8520 H   0  0  0  0  0  0  0  0  0  0  0  0
   48.0561   36.5859   41.5485 H   0  0  0  0  0  0  0  0  0  0  0  0
   49.1035   32.0582   43.3208 H   0  0  0  0  0  0  0  0  0  0  0  0
   43.3775   34.1147   39.2824 H   0  0  0  0  0  0  0  0  0  0  0  0
   42.6262   35.7047   39.5714 H   0  0  0  0  0  0  0  0  0  0  0  0
   39.1508   34.5376   40.9377 H   0  0  0  0  0  0  0  0  0  0  0  0
   39.1380   33.7997   38.6986 H   0  0  0  0  0  0  0  0  0  0  0  0
   39.4224   35.5469   38.3939 H   0  0  0  0  0  0  0  0  0  0  0  0
   40.8038   34.3987   38.3939 H   0  0  0  0  0  0  0  0  0  0  0  0
   40.2529   36.5141   41.7160 H   0  0  0  0  0  0  0  0  0  0  0  0
   41.1807   36.6678   40.1856 H   0  0  0  0  0  0  0  0  0  0  0  0
   39.4012   36.9131   40.1856 H   0  0  0  0  0  0  0  0  0  0  0  0
  1  8  1  0
  1  2  2  0
  3  2  1  0
  4  3  1  0
  5  4  2  0
  5  1  1  0
  6 11  2  0
  7  6  1  0
  7  8  2  0
  8  9  1  0
  9 10  2  0
 11 10  1  0
 12 13  1  0
 12  4  1  0
 14 16  1  0
 14 13  1  0
 15 14  1  0
  6 17  1  0
  7 18  1  0
 10 19  1  0
 12 20  1  0
 12 21  1  0
 14 22  1  0
 15 23  1  0
 15 24  1  0
 15 25  1  0
 16 26  1  0
 16 27  1  0
 16 28  1  0
M  ISO  8  17  14  18  14  19  14  20   8  21   8  22   8  23   8  24   8
M  ISO  4  25   8  26   8  27   8  28   8
M  END
>  <minimizedAffinity>  (1) 
-4.51762629

>  <minimizedRMSD>  (1) 
6.32553673

$$$$
