
     RDKit          3D

 27 29  0  0  0  0  0  0  0  0999 V2000
   45.6600   34.1090   41.4790 C   0  0  0  0  0  0  0  0  0  0  0  0
   45.0160   33.4740   40.4790 N   0  0  0  0  0  0  0  0  0  0  0  0
   45.7980   33.3780   39.4390 O   0  0  0  0  0  0  0  0  0  0  0  0
   46.9580   33.9520   39.7560 C   0  0  0  0  0  0  0  0  0  0  0  0
   46.8700   34.4030   41.0170 N   0  0  0  0  0  0  0  0  0  0  0  0
   44.5170   36.0300   44.4950 C   0  0  0  0  0  0  0  0  0  0  0  0
   44.7600   35.7560   43.1380 C   0  0  0  0  0  0  0  0  0  0  0  0
   45.3530   34.5180   42.8510 C   0  0  0  0  0  0  0  0  0  0  0  0
   45.6620   33.6570   43.8400 N   0  0  0  0  0  0  0  0  0  0  0  0
   45.4040   33.9750   45.1330 C   0  0  0  0  0  0  0  0  0  0  0  0
   44.8260   35.1750   45.4540 N   0  0  0  0  0  0  0  0  0  0  0  0
   48.1420   34.0690   38.8610 C   0  0  0  0  0  0  0  0  0  0  0  0
   48.4690   32.4360   38.1380 S   0  0  0  0  0  0  0  0  0  0  0  0
   47.8420   32.3230   36.4650 C   0  0  0  0  0  0  0  0  0  0  0  0
   46.5600   32.0390   36.0410 C   0  0  0  0  0  0  0  0  0  0  0  0
   46.3190   32.0090   34.6840 C   0  0  0  0  0  0  0  0  0  0  0  0
   47.2760   32.2450   33.7680 N   0  0  0  0  0  0  0  0  0  0  0  0
   48.5230   32.5220   34.2130 C   0  0  0  0  0  0  0  0  0  0  0  0
   48.8210   32.5640   35.5450 N   0  0  0  0  0  0  0  0  0  0  0  0
   44.0535   36.9895   44.7682 H   0  0  0  0  0  0  0  0  0  0  0  0
   44.4995   36.4727   42.3452 H   0  0  0  0  0  0  0  0  0  0  0  0
   45.6611   33.2631   45.9311 H   0  0  0  0  0  0  0  0  0  0  0  0
   47.9343   34.7955   38.0616 H   0  0  0  0  0  0  0  0  0  0  0  0
   49.0170   34.4146   39.4311 H   0  0  0  0  0  0  0  0  0  0  0  0
   45.7546   31.8425   36.7640 H   0  0  0  0  0  0  0  0  0  0  0  0
   45.3007   31.7824   34.3351 H   0  0  0  0  0  0  0  0  0  0  0  0
   49.3199   32.7191   33.4809 H   0  0  0  0  0  0  0  0  0  0  0  0
  1  8  1  0
  2  1  2  0
  3  4  1  0
  3  2  1  0
  4  5  2  0
  5  1  1  0
  6 11  2  0
  7  6  1  0
  8  7  2  0
  8  9  1  0
  9 10  2  0
 10 11  1  0
 12  4  1  0
 13 12  1  0
 14 13  1  0
 15 14  2  0
 16 15  1  0
 17 18  1  0
 17 16  2  0
 18 19  2  0
 19 14  1  0
  6 20  1  0
  7 21  1  0
 10 22  1  0
 12 23  1  0
 12 24  1  0
 15 25  1  0
 16 26  1  0
 18 27  1  0
M  ISO  8  20  14  21  14  22  14  23   8  24   8  25  14  26  14  27  14
M  END
>  <minimizedAffinity>  (1) 
-4.38290405

>  <minimizedRMSD>  (1) 
1.92323852

$$$$
