
     RDKit          3D

 35 37  0  0  1  0  0  0  0  0999 V2000
   47.8020   34.9950   41.0990 C   0  0  2  0  0  0  0  0  0  0  0  0
   49.0040   35.6900   41.4820 C   0  0  0  0  0  0  0  0  0  0  0  0
   49.8040   34.7630   42.4100 C   0  0  0  0  0  0  0  0  0  0  0  0
   49.0590   33.4490   42.4840 C   0  0  0  0  0  0  0  0  0  0  0  0
   47.6600   33.8300   42.1310 C   0  0  1  0  0  0  0  0  0  0  0  0
   47.7420   34.3210   39.7860 C   0  0  0  0  0  0  0  0  0  0  0  0
   48.5640   34.7720   38.7580 C   0  0  0  0  0  0  0  0  0  0  0  0
   48.5270   34.1590   37.5150 C   0  0  0  0  0  0  0  0  0  0  0  0
   47.6540   33.1180   37.3830 N   0  0  0  0  0  0  0  0  0  0  0  0
   46.8540   32.6840   38.3960 C   0  0  0  0  0  0  0  0  0  0  0  0
   46.9270   33.3090   39.5780 N   0  0  0  0  0  0  0  0  0  0  0  0
   46.9610   34.4060   43.3340 C   0  0  0  0  0  0  0  0  0  0  0  0
   45.8250   35.2580   42.9550 C   0  0  0  0  0  0  0  0  0  0  0  0
   44.6760   34.7310   42.3190 N   0  0  0  0  0  0  0  0  0  0  0  0
   44.0730   33.5520   42.1450 C   0  0  0  0  0  0  0  0  0  0  0  0
   42.9010   33.6690   41.4690 N   0  0  0  0  0  0  0  0  0  0  0  0
   42.7730   35.0030   41.2070 C   0  0  0  0  0  0  0  0  0  0  0  0
   43.8430   35.6070   41.7240 N   0  0  0  0  0  0  0  0  0  0  0  0
   47.0336   35.7811   41.0582 H   0  0  0  0  0  0  0  0  0  0  0  0
   49.5990   35.9298   40.5884 H   0  0  0  0  0  0  0  0  0  0  0  0
   48.7579   36.6308   41.9961 H   0  0  0  0  0  0  0  0  0  0  0  0
   50.8127   34.6014   42.0022 H   0  0  0  0  0  0  0  0  0  0  0  0
   49.9080   35.2086   43.4103 H   0  0  0  0  0  0  0  0  0  0  0  0
   49.4645   32.7245   41.7625 H   0  0  0  0  0  0  0  0  0  0  0  0
   49.1386   32.9627   43.4675 H   0  0  0  0  0  0  0  0  0  0  0  0
   47.0983   32.9611   41.7575 H   0  0  0  0  0  0  0  0  0  0  0  0
   49.2455   35.6177   38.9320 H   0  0  0  0  0  0  0  0  0  0  0  0
   49.1646   34.4924   36.6829 H   0  0  0  0  0  0  0  0  0  0  0  0
   46.1643   31.8402   38.2468 H   0  0  0  0  0  0  0  0  0  0  0  0
   46.5922   33.5799   43.9598 H   0  0  0  0  0  0  0  0  0  0  0  0
   47.6843   35.0279   43.8819 H   0  0  0  0  0  0  0  0  0  0  0  0
   45.4735   35.7342   43.8822 H   0  0  0  0  0  0  0  0  0  0  0  0
   46.2600   35.8878   42.1650 H   0  0  0  0  0  0  0  0  0  0  0  0
   44.4790   32.5961   42.5076 H   0  0  0  0  0  0  0  0  0  0  0  0
   41.9438   35.4876   40.6707 H   0  0  0  0  0  0  0  0  0  0  0  0
  1  2  1  0
  1  5  1  0
  2  3  1  0
  3  4  1  0
  5  4  1  0
  5 12  1  0
  6  1  1  0
  7  6  2  0
  8  7  1  0
  9  8  2  0
  9 10  1  0
 10 11  2  0
 11  6  1  0
 13 12  1  0
 14 13  1  0
 15 14  1  0
 16 15  2  0
 17 16  1  0
 17 18  2  0
 18 14  1  0
  1 19  1  6
  2 20  1  0
  2 21  1  0
  3 22  1  0
  3 23  1  0
  4 24  1  0
  4 25  1  0
  5 26  1  6
  7 27  1  0
  8 28  1  0
 10 29  1  0
 12 30  1  0
 12 31  1  0
 13 32  1  0
 13 33  1  0
 15 34  1  0
 17 35  1  0
M  ISO  8  19  13  20  13  21  13  22  13  23  13  24  13  25  13  26  13
M  ISO  8  27  14  28  14  29  14  30   8  31   8  32   8  33   8  34  14
M  ISO  1  35  14
M  END
>  <minimizedAffinity>  (1) 
-4.85710049

>  <minimizedRMSD>  (1) 
0.831535816

$$$$
