
     RDKit          3D

 34 37  0  0  0  0  0  0  0  0999 V2000
   46.8770   33.5330   39.9420 C   0  0  0  0  0  0  0  0  0  0  0  0
   43.3380   33.6100   40.6670 C   0  0  0  0  0  0  0  0  0  0  0  0
   43.7210   32.4150   41.1960 N   0  0  0  0  0  0  0  0  0  0  0  0
   44.9840   32.2190   41.0230 O   0  0  0  0  0  0  0  0  0  0  0  0
   45.4680   33.2710   40.3800 C   0  0  0  0  0  0  0  0  0  0  0  0
   44.4350   34.1180   40.1690 N   0  0  0  0  0  0  0  0  0  0  0  0
   40.6160   36.1400   41.0930 C   0  0  0  0  0  0  0  0  0  0  0  0
   41.8680   35.5140   41.2780 C   0  0  0  0  0  0  0  0  0  0  0  0
   42.0950   34.3490   40.5550 C   0  0  0  0  0  0  0  0  0  0  0  0
   41.1550   33.8480   39.7130 N   0  0  0  0  0  0  0  0  0  0  0  0
   39.9710   34.4860   39.5690 C   0  0  0  0  0  0  0  0  0  0  0  0
   39.7000   35.6280   40.2560 N   0  0  0  0  0  0  0  0  0  0  0  0
   47.6720   34.5730   41.2030 S   0  0  0  0  0  0  0  0  0  0  0  0
   47.2570   34.0330   42.8480 C   0  0  0  0  0  0  0  0  0  0  0  0
   47.9760   33.0080   43.4060 C   0  0  0  0  0  0  0  0  0  0  0  0
   47.4820   32.7700   44.6520 N   0  0  0  0  0  0  0  0  0  0  0  0
   46.4550   33.6380   44.8840 C   0  0  0  0  0  0  0  0  0  0  0  0
   45.5650   33.9000   45.9310 C   0  0  0  0  0  0  0  0  0  0  0  0
   44.6100   34.8960   45.8200 C   0  0  0  0  0  0  0  0  0  0  0  0
   44.5190   35.6490   44.6730 C   0  0  0  0  0  0  0  0  0  0  0  0
   45.3740   35.4380   43.5960 C   0  0  0  0  0  0  0  0  0  0  0  0
   46.2940   34.4450   43.7590 C   0  0  0  0  0  0  0  0  0  0  0  0
   45.2790   36.1890   42.4600 O   0  0  0  0  0  0  0  0  0  0  0  0
   47.4210   32.5818   39.8453 H   0  0  0  0  0  0  0  0  0  0  0  0
   46.8860   34.0408   38.9663 H   0  0  0  0  0  0  0  0  0  0  0  0
   40.3872   37.0638   41.6446 H   0  0  0  0  0  0  0  0  0  0  0  0
   42.6255   35.9275   41.9600 H   0  0  0  0  0  0  0  0  0  0  0  0
   39.2146   34.0742   38.8847 H   0  0  0  0  0  0  0  0  0  0  0  0
   48.8088   32.4703   42.9291 H   0  0  0  0  0  0  0  0  0  0  0  0
   47.8256   32.0551   45.3090 H   0  0  0  0  0  0  0  0  0  0  0  0
   45.6248   33.3064   46.8552 H   0  0  0  0  0  0  0  0  0  0  0  0
   43.9194   35.0863   46.6548 H   0  0  0  0  0  0  0  0  0  0  0  0
   43.7531   36.4357   44.6055 H   0  0  0  0  0  0  0  0  0  0  0  0
   44.5924   36.8990   42.3920 H   0  0  0  0  0  0  0  0  0  0  0  0
  1  5  1  0
  1 13  1  0
  2  3  2  0
  4  3  1  0
  5  4  1  0
  6  5  2  0
  6  2  1  0
  7  8  2  0
  9  2  1  0
  9  8  1  0
 10  9  2  0
 11 10  1  0
 11 12  2  0
 12  7  1  0
 13 14  1  0
 14 15  2  0
 14 22  1  0
 15 16  1  0
 16 17  1  0
 17 18  2  0
 19 18  1  0
 20 19  2  0
 21 22  2  0
 21 20  1  0
 22 17  1  0
 23 21  1  0
  1 24  1  0
  1 25  1  0
  7 26  1  0
  8 27  1  0
 11 28  1  0
 15 29  1  0
 16 30  1  0
 18 31  1  0
 19 32  1  0
 20 33  1  0
 23 34  1  0
M  ISO  8  24   8  25   8  26  14  27  14  28  14  29  14  30   9  31  14
M  ISO  3  32  14  33  14  34   3
M  END
>  <minimizedAffinity>  (1) 
-5.52602243

>  <minimizedRMSD>  (1) 
0.3887631

$$$$
