
     RDKit          3D

 35 38  0  0  0  0  0  0  0  0999 V2000
   47.6370   34.6030   41.2480 S   0  0  0  0  0  0  0  0  0  0  0  0
   47.2390   34.0390   42.8800 C   0  0  0  0  0  0  0  0  0  0  0  0
   47.9700   33.0050   43.4110 C   0  0  0  0  0  0  0  0  0  0  0  0
   47.4850   32.7420   44.6680 N   0  0  0  0  0  0  0  0  0  0  0  0
   46.4540   33.6110   44.9180 C   0  0  0  0  0  0  0  0  0  0  0  0
   45.5830   33.8450   45.9730 C   0  0  0  0  0  0  0  0  0  0  0  0
   44.6220   34.8400   45.8920 C   0  0  0  0  0  0  0  0  0  0  0  0
   44.5150   35.6140   44.7600 C   0  0  0  0  0  0  0  0  0  0  0  0
   45.3660   35.4220   43.6670 C   0  0  0  0  0  0  0  0  0  0  0  0
   46.2990   34.4260   43.7980 C   0  0  0  0  0  0  0  0  0  0  0  0
   45.2660   36.2380   42.5100 N   0  0  0  0  0  0  0  0  0  0  0  0
   46.8710   33.5630   39.9640 C   0  0  0  0  0  0  0  0  0  0  0  0
   43.3180   33.6010   40.6670 C   0  0  0  0  0  0  0  0  0  0  0  0
   43.6970   32.4000   41.1860 N   0  0  0  0  0  0  0  0  0  0  0  0
   44.9760   32.2220   41.0150 O   0  0  0  0  0  0  0  0  0  0  0  0
   45.4570   33.2800   40.3910 C   0  0  0  0  0  0  0  0  0  0  0  0
   44.4220   34.1120   40.1880 N   0  0  0  0  0  0  0  0  0  0  0  0
   40.5960   36.1380   41.0730 C   0  0  0  0  0  0  0  0  0  0  0  0
   41.8520   35.5050   41.2690 C   0  0  0  0  0  0  0  0  0  0  0  0
   42.0750   34.3380   40.5510 C   0  0  0  0  0  0  0  0  0  0  0  0
   41.1370   33.8270   39.7040 N   0  0  0  0  0  0  0  0  0  0  0  0
   39.9520   34.4790   39.5590 C   0  0  0  0  0  0  0  0  0  0  0  0
   39.6860   35.6190   40.2350 N   0  0  0  0  0  0  0  0  0  0  0  0
   48.7995   32.4792   42.9156 H   0  0  0  0  0  0  0  0  0  0  0  0
   47.8347   32.0178   45.3116 H   0  0  0  0  0  0  0  0  0  0  0  0
   45.6565   33.2333   46.8843 H   0  0  0  0  0  0  0  0  0  0  0  0
   43.9405   35.0119   46.7382 H   0  0  0  0  0  0  0  0  0  0  0  0
   43.7456   36.3988   44.7136 H   0  0  0  0  0  0  0  0  0  0  0  0
   44.5472   36.9740   42.4595 H   0  0  0  0  0  0  0  0  0  0  0  0
   45.9122   36.0941   41.7209 H   0  0  0  0  0  0  0  0  0  0  0  0
   47.4282   32.6199   39.8635 H   0  0  0  0  0  0  0  0  0  0  0  0
   46.8851   34.0770   38.9916 H   0  0  0  0  0  0  0  0  0  0  0  0
   40.3661   37.0667   41.6158 H   0  0  0  0  0  0  0  0  0  0  0  0
   42.6080   35.9175   41.9534 H   0  0  0  0  0  0  0  0  0  0  0  0
   39.1930   34.0693   38.8762 H   0  0  0  0  0  0  0  0  0  0  0  0
  1  2  1  0
  2  3  2  0
  2 10  1  0
  3  4  1  0
  4  5  1  0
  5  6  2  0
  7  6  1  0
  8  7  2  0
  9 10  2  0
  9  8  1  0
 10  5  1  0
 11  9  1  0
 12 16  1  0
 12  1  1  0
 13 14  2  0
 15 14  1  0
 16 15  1  0
 17 16  2  0
 17 13  1  0
 18 19  2  0
 20 13  1  0
 20 19  1  0
 21 20  2  0
 22 21  1  0
 22 23  2  0
 23 18  1  0
  3 24  1  0
  4 25  1  0
  6 26  1  0
  7 27  1  0
  8 28  1  0
 11 29  1  0
 11 30  1  0
 12 31  1  0
 12 32  1  0
 18 33  1  0
 19 34  1  0
 22 35  1  0
M  ISO  8  24  14  25   9  26  14  27  14  28  14  31   8  32   8  33  14
M  ISO  2  34  14  35  14
M  END
>  <minimizedAffinity>  (1) 
-5.46800137

>  <minimizedRMSD>  (1) 
0.429390669

$$$$
