
     RDKit          3D

 34 37  0  0  0  0  0  0  0  0999 V2000
   46.5600   33.7250   40.1660 C   0  0  0  0  0  0  0  0  0  0  0  0
   43.0000   33.5810   40.8160 C   0  0  0  0  0  0  0  0  0  0  0  0
   43.4600   32.5280   41.5390 N   0  0  0  0  0  0  0  0  0  0  0  0
   44.7510   32.4270   41.4170 O   0  0  0  0  0  0  0  0  0  0  0  0
   45.1660   33.3970   40.6230 C   0  0  0  0  0  0  0  0  0  0  0  0
   44.0680   34.0870   40.2700 N   0  0  0  0  0  0  0  0  0  0  0  0
   40.1450   35.9920   40.5460 C   0  0  0  0  0  0  0  0  0  0  0  0
   41.4500   35.5210   40.8480 C   0  0  0  0  0  0  0  0  0  0  0  0
   41.7100   34.1870   40.5580 C   0  0  0  0  0  0  0  0  0  0  0  0
   40.7530   33.3830   40.0130 N   0  0  0  0  0  0  0  0  0  0  0  0
   39.5220   33.8990   39.7490 C   0  0  0  0  0  0  0  0  0  0  0  0
   39.2210   35.1960   40.0150 N   0  0  0  0  0  0  0  0  0  0  0  0
   47.3620   34.6920   41.4890 S   0  0  0  0  0  0  0  0  0  0  0  0
   47.1690   33.9240   43.0780 C   0  0  0  0  0  0  0  0  0  0  0  0
   47.9780   32.8580   43.3980 C   0  0  0  0  0  0  0  0  0  0  0  0
   47.6440   32.4290   44.6520 N   0  0  0  0  0  0  0  0  0  0  0  0
   46.6280   33.2240   45.1220 C   0  0  0  0  0  0  0  0  0  0  0  0
   45.8750   33.2940   46.2900 C   0  0  0  0  0  0  0  0  0  0  0  0
   44.8890   34.2590   46.4330 C   0  0  0  0  0  0  0  0  0  0  0  0
   44.6410   35.1630   45.4230 C   0  0  0  0  0  0  0  0  0  0  0  0
   45.3710   35.1400   44.2210 C   0  0  0  0  0  0  0  0  0  0  0  0
   46.3300   34.1640   44.1350 C   0  0  0  0  0  0  0  0  0  0  0  0
   45.0850   36.3830   42.9740 S   0  0  0  0  0  0  0  0  0  0  0  0
   47.1233   32.7976   39.9853 H   0  0  0  0  0  0  0  0  0  0  0  0
   46.5336   34.3006   39.2290 H   0  0  0  0  0  0  0  0  0  0  0  0
   39.8917   37.0416   40.7564 H   0  0  0  0  0  0  0  0  0  0  0  0
   42.2149   36.1775   41.2883 H   0  0  0  0  0  0  0  0  0  0  0  0
   38.7513   33.2491   39.3090 H   0  0  0  0  0  0  0  0  0  0  0  0
   48.7590   32.4256   42.7553 H   0  0  0  0  0  0  0  0  0  0  0  0
   48.0795   31.6443   45.1575 H   0  0  0  0  0  0  0  0  0  0  0  0
   46.0629   32.5796   47.1050 H   0  0  0  0  0  0  0  0  0  0  0  0
   44.2998   34.3031   47.3609 H   0  0  0  0  0  0  0  0  0  0  0  0
   43.8544   35.9197   45.5599 H   0  0  0  0  0  0  0  0  0  0  0  0
   44.8093   37.5812   43.5783 H   0  0  0  0  0  0  0  0  0  0  0  0
  1  5  1  0
  1 13  1  0
  2  3  2  0
  4  3  1  0
  5  4  1  0
  6  5  2  0
  6  2  1  0
  7  8  2  0
  9  2  1  0
  9  8  1  0
 10  9  2  0
 11 10  1  0
 11 12  2  0
 12  7  1  0
 13 14  1  0
 14 15  2  0
 14 22  1  0
 15 16  1  0
 16 17  1  0
 17 18  2  0
 18 19  1  0
 20 19  2  0
 21 20  1  0
 22 21  2  0
 22 17  1  0
 23 21  1  0
  1 24  1  0
  1 25  1  0
  7 26  1  0
  8 27  1  0
 11 28  1  0
 15 29  1  0
 16 30  1  0
 18 31  1  0
 19 32  1  0
 20 33  1  0
 23 34  1  0
M  ISO  8  24   8  25   8  26  14  27  14  28  14  29  14  30   9  31  14
M  ISO  3  32  14  33  14  34  11
M  END
>  <minimizedAffinity>  (1) 
-5.17687798

>  <minimizedRMSD>  (1) 
0.945995331

$$$$
