
     RDKit          3D

 19 20  0  0  0  0  0  0  0  0999 V2000
   46.3320   34.6180   41.3000 C   0  0  0  0  0  0  0  0  0  0  0  0
   46.3780   35.1640   42.5840 C   0  0  0  0  0  0  0  0  0  0  0  0
   45.1600   35.3360   43.2490 C   0  0  0  0  0  0  0  0  0  0  0  0
   44.0190   34.9550   42.5910 N   0  0  0  0  0  0  0  0  0  0  0  0
   44.0300   34.4300   41.3460 C   0  0  0  0  0  0  0  0  0  0  0  0
   45.1910   34.2650   40.7070 N   0  0  0  0  0  0  0  0  0  0  0  0
   47.6210   34.4740   40.6840 C   0  0  0  0  0  0  0  0  0  0  0  0
   47.8730   34.4320   39.4340 O   0  0  0  0  0  0  0  0  0  0  0  0
   50.5090   34.8500   42.8440 N   0  0  0  0  0  0  0  0  0  0  0  0
   49.4350   35.3420   42.2050 N   0  0  0  0  0  0  0  0  0  0  0  0
   48.8200   34.3600   41.5100 C   0  0  0  0  0  0  0  0  0  0  0  0
   49.5660   33.2260   41.7460 C   0  0  0  0  0  0  0  0  0  0  0  0
   50.6290   33.5500   42.5900 C   0  0  0  0  0  0  0  0  0  0  0  0
   47.3320   35.4469   43.0528 H   0  0  0  0  0  0  0  0  0  0  0  0
   45.1188   35.7613   44.2626 H   0  0  0  0  0  0  0  0  0  0  0  0
   43.0865   34.1397   40.8608 H   0  0  0  0  0  0  0  0  0  0  0  0
   51.1447   35.3976   43.4414 H   0  0  0  0  0  0  0  0  0  0  0  0
   49.3574   32.2270   41.3356 H   0  0  0  0  0  0  0  0  0  0  0  0
   51.4066   32.8698   42.9677 H   0  0  0  0  0  0  0  0  0  0  0  0
  1  2  2  0
  2  3  1  0
  4  3  2  0
  5  4  1  0
  6  1  1  0
  6  5  2  0
  7  1  1  0
  7 11  1  0
  8  7  2  0
 10  9  1  0
 11 12  1  0
 11 10  2  0
 12 13  2  0
 13  9  1  0
  2 14  1  0
  3 15  1  0
  5 16  1  0
  9 17  1  0
 12 18  1  0
 13 19  1  0
M  ISO  6  14  14  15  14  16  14  17   9  18  14  19  14
M  END
>  <minimizedAffinity>  (1) 
-4.44428205

>  <minimizedRMSD>  (1) 
6.21126509

$$$$
