
     RDKit          3D

 30 31  0  0  1  0  0  0  0  0999 V2000
   47.8570   34.9000   41.3990 C   0  0  2  0  0  0  0  0  0  0  0  0
   49.0240   35.6790   41.7040 C   0  0  0  0  0  0  0  0  0  0  0  0
   50.0290   34.7450   42.4020 C   0  0  0  0  0  0  0  0  0  0  0  0
   49.4250   33.3610   42.4120 C   0  0  0  0  0  0  0  0  0  0  0  0
   47.9800   33.6330   42.3050 C   0  0  1  0  0  0  0  0  0  0  0  0
   47.6560   34.3730   40.0440 C   0  0  0  0  0  0  0  0  0  0  0  0
   48.5040   34.8070   39.0240 C   0  0  0  0  0  0  0  0  0  0  0  0
   48.3550   34.3230   37.7340 C   0  0  0  0  0  0  0  0  0  0  0  0
   47.3500   33.4210   37.5340 N   0  0  0  0  0  0  0  0  0  0  0  0
   46.5360   33.0110   38.5320 C   0  0  0  0  0  0  0  0  0  0  0  0
   46.7030   33.4970   39.7840 N   0  0  0  0  0  0  0  0  0  0  0  0
   47.3980   33.9430   43.6430 C   0  0  0  0  0  0  0  0  0  0  0  0
   45.9660   34.3700   43.5280 C   0  0  0  0  0  0  0  0  0  0  0  0
   44.8020   33.1320   42.9940 S   0  0  0  0  0  0  0  0  0  0  0  0
   47.0187   35.5972   41.5445 H   0  0  0  0  0  0  0  0  0  0  0  0
   49.4624   36.0786   40.7777 H   0  0  0  0  0  0  0  0  0  0  0  0
   48.7661   36.5284   42.3536 H   0  0  0  0  0  0  0  0  0  0  0  0
   50.9805   34.7363   41.8502 H   0  0  0  0  0  0  0  0  0  0  0  0
   50.2320   35.0883   43.4271 H   0  0  0  0  0  0  0  0  0  0  0  0
   49.7806   32.7676   41.5568 H   0  0  0  0  0  0  0  0  0  0  0  0
   49.6926   32.7761   43.3043 H   0  0  0  0  0  0  0  0  0  0  0  0
   47.4460   32.7617   41.8980 H   0  0  0  0  0  0  0  0  0  0  0  0
   49.2957   35.5379   39.2454 H   0  0  0  0  0  0  0  0  0  0  0  0
   49.0121   34.6486   36.9141 H   0  0  0  0  0  0  0  0  0  0  0  0
   45.7379   32.2824   38.3267 H   0  0  0  0  0  0  0  0  0  0  0  0
   47.4544   33.0446   44.2752 H   0  0  0  0  0  0  0  0  0  0  0  0
   47.9720   34.7689   44.0885 H   0  0  0  0  0  0  0  0  0  0  0  0
   45.6437   34.7255   44.5178 H   0  0  0  0  0  0  0  0  0  0  0  0
   45.9555   35.1360   42.7386 H   0  0  0  0  0  0  0  0  0  0  0  0
   44.2383   32.5325   44.0893 H   0  0  0  0  0  0  0  0  0  0  0  0
  1  2  1  0
  1  5  1  0
  2  3  1  0
  3  4  1  0
  5  4  1  0
  5 12  1  0
  6  1  1  0
  7  6  2  0
  8  7  1  0
  9  8  2  0
  9 10  1  0
 10 11  2  0
 11  6  1  0
 13 12  1  0
 14 13  1  0
  1 15  1  1
  2 16  1  0
  2 17  1  0
  3 18  1  0
  3 19  1  0
  4 20  1  0
  4 21  1  0
  5 22  1  6
  7 23  1  0
  8 24  1  0
 10 25  1  0
 12 26  1  0
 12 27  1  0
 13 28  1  0
 13 29  1  0
 14 30  1  0
M  ISO  8  15  13  16  13  17  13  18  13  19  13  20  13  21  13  22  13
M  ISO  8  23  14  24  14  25  14  26   8  27   8  28   8  29   8  30  11
M  END
>  <minimizedAffinity>  (1) 
-4.23096132

>  <minimizedRMSD>  (1) 
0.221743539

$$$$
