
     RDKit          3D

 20 21  0  0  0  0  0  0  0  0999 V2000
   48.1040   34.0470   42.0910 C   0  0  0  0  0  0  0  0  0  0  0  0
   48.4260   32.7380   41.6690 C   0  0  0  0  0  0  0  0  0  0  0  0
   49.7630   32.3790   41.7280 C   0  0  0  0  0  0  0  0  0  0  0  0
   50.6740   33.2790   42.1780 N   0  0  0  0  0  0  0  0  0  0  0  0
   50.3150   34.5280   42.5760 C   0  0  0  0  0  0  0  0  0  0  0  0
   49.0290   34.9060   42.5290 N   0  0  0  0  0  0  0  0  0  0  0  0
   46.6940   34.3810   42.0110 C   0  0  0  0  0  0  0  0  0  0  0  0
   46.0240   34.4390   40.9470 O   0  0  0  0  0  0  0  0  0  0  0  0
   45.9930   34.6690   43.2590 C   0  0  0  0  0  0  0  0  0  0  0  0
   46.0760   33.8340   44.3570 C   0  0  0  0  0  0  0  0  0  0  0  0
   45.4110   34.0940   45.5590 C   0  0  0  0  0  0  0  0  0  0  0  0
   44.6540   35.2020   45.6710 N   0  0  0  0  0  0  0  0  0  0  0  0
   44.5780   36.0100   44.5960 C   0  0  0  0  0  0  0  0  0  0  0  0
   45.2240   35.7630   43.4200 N   0  0  0  0  0  0  0  0  0  0  0  0
   47.6549   32.0395   41.3119 H   0  0  0  0  0  0  0  0  0  0  0  0
   50.0829   31.3747   41.4133 H   0  0  0  0  0  0  0  0  0  0  0  0
   51.0807   35.2302   42.9374 H   0  0  0  0  0  0  0  0  0  0  0  0
   46.6918   32.9256   44.2820 H   0  0  0  0  0  0  0  0  0  0  0  0
   45.5054   33.3990   46.4064 H   0  0  0  0  0  0  0  0  0  0  0  0
   43.9617   36.9181   44.6703 H   0  0  0  0  0  0  0  0  0  0  0  0
  1  6  2  0
  2  3  2  0
  2  1  1  0
  3  4  1  0
  4  5  2  0
  6  5  1  0
  7  1  1  0
  7  9  1  0
  8  7  2  0
  9 14  1  0
  9 10  2  0
 10 11  1  0
 11 12  2  0
 13 12  1  0
 14 13  2  0
  2 15  1  0
  3 16  1  0
  5 17  1  0
 10 18  1  0
 11 19  1  0
 13 20  1  0
M  ISO  6  15  14  16  14  17  14  18  14  19  14  20  14
M  END
>  <minimizedAffinity>  (1) 
-4.29827166

>  <minimizedRMSD>  (1) 
4.19800377

$$$$
