
     RDKit          3D

 23 25  0  0  0  0  0  0  0  0999 V2000
   46.3180   31.8040   44.6770 C   0  0  0  0  0  0  0  0  0  0  0  0
   45.3610   31.1180   44.2140 O   0  0  0  0  0  0  0  0  0  0  0  0
   45.4930   36.1280   43.0500 N   0  0  0  0  0  0  0  0  0  0  0  0
   44.5540   35.6570   43.8830 C   0  0  0  0  0  0  0  0  0  0  0  0
   44.8890   34.4180   44.2860 N   0  0  0  0  0  0  0  0  0  0  0  0
   46.0410   34.0900   43.7150 C   0  0  0  0  0  0  0  0  0  0  0  0
   46.7660   32.9240   43.8350 C   0  0  0  0  0  0  0  0  0  0  0  0
   47.9330   32.8370   43.1360 N   0  0  0  0  0  0  0  0  0  0  0  0
   48.3280   33.8710   42.3700 C   0  0  0  0  0  0  0  0  0  0  0  0
   47.6190   35.0020   42.2590 N   0  0  0  0  0  0  0  0  0  0  0  0
   46.4400   35.1570   42.9300 C   0  0  0  0  0  0  0  0  0  0  0  0
   46.9750   31.5670   45.9340 C   0  0  0  0  0  0  0  0  0  0  0  0
   46.8680   32.5900   46.8780 C   0  0  0  0  0  0  0  0  0  0  0  0
   47.4820   32.4180   48.1100 C   0  0  0  0  0  0  0  0  0  0  0  0
   48.1620   31.2420   48.3280 N   0  0  0  0  0  0  0  0  0  0  0  0
   48.2390   30.2840   47.3900 C   0  0  0  0  0  0  0  0  0  0  0  0
   47.6560   30.4300   46.2000 N   0  0  0  0  0  0  0  0  0  0  0  0
   45.4972   37.0489   42.5887 H   0  0  0  0  0  0  0  0  0  0  0  0
   43.6482   36.2005   44.1900 H   0  0  0  0  0  0  0  0  0  0  0  0
   49.2720   33.7836   41.8122 H   0  0  0  0  0  0  0  0  0  0  0  0
   46.3102   33.5103   46.6503 H   0  0  0  0  0  0  0  0  0  0  0  0
   47.4271   33.1954   48.8863 H   0  0  0  0  0  0  0  0  0  0  0  0
   48.7945   29.3599   47.6080 H   0  0  0  0  0  0  0  0  0  0  0  0
  1 12  1  0
  2  1  2  0
  3  4  1  0
  4  5  2  0
  6  7  2  0
  6  5  1  0
  7  1  1  0
  8  7  1  0
  9  8  2  0
 10  9  1  0
 10 11  2  0
 11  3  1  0
 11  6  1  0
 12 17  1  0
 12 13  2  0
 13 14  1  0
 14 15  2  0
 16 15  1  0
 17 16  2  0
  3 18  1  0
  4 19  1  0
  9 20  1  0
 13 21  1  0
 14 22  1  0
 16 23  1  0
M  ISO  6  18   9  19  14  20  14  21  14  22  14  23  14
M  END
>  <minimizedAffinity>  (1) 
-4.17005396

>  <minimizedRMSD>  (1) 
5.06868267

$$$$
