
     RDKit          3D

 17 18  0  0  0  0  0  0  0  0999 V2000
   45.5590   33.9420   44.6980 C   0  0  0  0  0  0  0  0  0  0  0  0
   46.0790   34.1990   43.4310 C   0  0  0  0  0  0  0  0  0  0  0  0
   45.8370   35.4240   42.8270 C   0  0  0  0  0  0  0  0  0  0  0  0
   45.0840   36.3230   43.5320 N   0  0  0  0  0  0  0  0  0  0  0  0
   44.5890   36.0540   44.7620 C   0  0  0  0  0  0  0  0  0  0  0  0
   44.8310   34.8660   45.3360 N   0  0  0  0  0  0  0  0  0  0  0  0
   45.8610   32.6500   45.2450 C   0  0  0  0  0  0  0  0  0  0  0  0
   45.8800   31.5630   44.5830 O   0  0  0  0  0  0  0  0  0  0  0  0
   46.1750   32.5160   46.6640 C   0  0  0  0  0  0  0  0  0  0  0  0
   45.2880   32.6220   47.6890 N   0  0  0  0  0  0  0  0  0  0  0  0
   45.8920   32.4500   48.8230 O   0  0  0  0  0  0  0  0  0  0  0  0
   47.1860   32.2250   48.6170 C   0  0  0  0  0  0  0  0  0  0  0  0
   47.3370   32.2680   47.2980 N   0  0  0  0  0  0  0  0  0  0  0  0
   46.6776   33.4352   42.9131 H   0  0  0  0  0  0  0  0  0  0  0  0
   46.2319   35.6616   41.8282 H   0  0  0  0  0  0  0  0  0  0  0  0
   43.9886   36.8088   45.2909 H   0  0  0  0  0  0  0  0  0  0  0  0
   47.9628   32.0428   49.3743 H   0  0  0  0  0  0  0  0  0  0  0  0
  1  7  1  0
  1  6  1  0
  2  1  2  0
  3  2  1  0
  3  4  2  0
  4  5  1  0
  5  6  2  0
  7  9  1  0
  8  7  2  0
  9 13  1  0
  9 10  2  0
 10 11  1  0
 12 11  1  0
 13 12  2  0
  2 14  1  0
  3 15  1  0
  5 16  1  0
 12 17  1  0
M  ISO  4  14  14  15  14  16  14  17  14
M  END
>  <minimizedAffinity>  (1) 
-4.09110975

>  <minimizedRMSD>  (1) 
4.94587183

$$$$
