
     RDKit          3D

 18 19  0  0  0  0  0  0  0  0999 V2000
   45.9050   34.9320   43.3460 C   0  0  0  0  0  0  0  0  0  0  0  0
   46.1660   33.8810   44.2520 C   0  0  0  0  0  0  0  0  0  0  0  0
   45.5360   33.9560   45.4840 C   0  0  0  0  0  0  0  0  0  0  0  0
   44.7170   35.0140   45.7540 N   0  0  0  0  0  0  0  0  0  0  0  0
   44.4930   35.9950   44.8660 C   0  0  0  0  0  0  0  0  0  0  0  0
   45.0810   35.9540   43.6760 N   0  0  0  0  0  0  0  0  0  0  0  0
   46.5620   34.8590   42.0540 C   0  0  0  0  0  0  0  0  0  0  0  0
   47.7260   35.3600   41.8670 O   0  0  0  0  0  0  0  0  0  0  0  0
   45.9120   34.1990   40.8930 C   0  0  0  0  0  0  0  0  0  0  0  0
   46.7770   33.5450   39.9670 C   0  0  0  0  0  0  0  0  0  0  0  0
   45.5210   32.9030   38.7450 S   0  0  0  0  0  0  0  0  0  0  0  0
   44.0800   33.6510   39.7360 C   0  0  0  0  0  0  0  0  0  0  0  0
   44.6230   34.1760   40.6630 N   0  0  0  0  0  0  0  0  0  0  0  0
   46.8344   33.0465   43.9935 H   0  0  0  0  0  0  0  0  0  0  0  0
   45.6945   33.1702   46.2373 H   0  0  0  0  0  0  0  0  0  0  0  0
   43.8247   36.8301   45.1230 H   0  0  0  0  0  0  0  0  0  0  0  0
   47.8726   33.4469   39.9716 H   0  0  0  0  0  0  0  0  0  0  0  0
   43.0042   33.6103   39.5103 H   0  0  0  0  0  0  0  0  0  0  0  0
  1  6  1  0
  1  2  2  0
  2  3  1  0
  3  4  2  0
  5  4  1  0
  6  5  2  0
  7  1  1  0
  8  7  2  0
  9  7  1  0
 10  9  2  0
 11 12  1  0
 11 10  1  0
 12 13  2  0
 13  9  1  0
  2 14  1  0
  3 15  1  0
  5 16  1  0
 10 17  1  0
 12 18  1  0
M  ISO  5  14  14  15  14  16  14  17  14  18  14
M  END
>  <minimizedAffinity>  (1) 
-3.94139528

>  <minimizedRMSD>  (1) 
4.30047131

$$$$
