
     RDKit          3D

 20 21  0  0  0  0  0  0  0  0999 V2000
   47.8830   33.8440   41.0000 C   0  0  0  0  0  0  0  0  0  0  0  0
   47.3590   32.5390   40.8850 C   0  0  0  0  0  0  0  0  0  0  0  0
   47.1700   32.0510   39.6020 C   0  0  0  0  0  0  0  0  0  0  0  0
   47.4970   32.8540   38.5470 N   0  0  0  0  0  0  0  0  0  0  0  0
   47.9950   34.0930   38.6960 C   0  0  0  0  0  0  0  0  0  0  0  0
   48.1870   34.5860   39.9160 N   0  0  0  0  0  0  0  0  0  0  0  0
   48.0710   34.3260   42.3500 C   0  0  0  0  0  0  0  0  0  0  0  0
   49.2000   34.5720   42.8590 O   0  0  0  0  0  0  0  0  0  0  0  0
   46.9100   34.5530   43.2090 C   0  0  0  0  0  0  0  0  0  0  0  0
   45.9750   35.5190   42.9070 C   0  0  0  0  0  0  0  0  0  0  0  0
   44.8570   35.7620   43.7020 C   0  0  0  0  0  0  0  0  0  0  0  0
   44.6830   35.0090   44.8250 N   0  0  0  0  0  0  0  0  0  0  0  0
   45.5980   34.0660   45.1170 C   0  0  0  0  0  0  0  0  0  0  0  0
   46.6760   33.8470   44.3310 N   0  0  0  0  0  0  0  0  0  0  0  0
   47.1121   31.9373   41.7722 H   0  0  0  0  0  0  0  0  0  0  0  0
   46.7663   31.0411   39.4373 H   0  0  0  0  0  0  0  0  0  0  0  0
   48.2432   34.6978   37.8113 H   0  0  0  0  0  0  0  0  0  0  0  0
   46.1174   36.1241   41.9995 H   0  0  0  0  0  0  0  0  0  0  0  0
   44.1318   36.5431   43.4300 H   0  0  0  0  0  0  0  0  0  0  0  0
   45.4647   33.4553   46.0221 H   0  0  0  0  0  0  0  0  0  0  0  0
  1  7  1  0
  2  1  2  0
  3  2  1  0
  4  5  1  0
  4  3  2  0
  5  6  2  0
  6  1  1  0
  7  8  2  0
  7  9  1  0
  9 14  1  0
 10  9  2  0
 10 11  1  0
 11 12  2  0
 12 13  1  0
 14 13  2  0
  2 15  1  0
  3 16  1  0
  5 17  1  0
 10 18  1  0
 11 19  1  0
 13 20  1  0
M  ISO  6  15  14  16  14  17  14  18  14  19  14  20  14
M  END
>  <minimizedAffinity>  (1) 
-3.73966193

>  <minimizedRMSD>  (1) 
5.00306511

$$$$
