
     RDKit          3D

 24 25  0  0  0  0  0  0  0  0999 V2000
   48.5620   33.4510   41.6450 C   0  0  0  0  0  0  0  0  0  0  0  0
   48.6910   33.1290   40.2940 C   0  0  0  0  0  0  0  0  0  0  0  0
   49.3260   31.9340   39.9590 C   0  0  0  0  0  0  0  0  0  0  0  0
   49.7850   31.1510   40.9790 N   0  0  0  0  0  0  0  0  0  0  0  0
   49.6420   31.4990   42.2870 C   0  0  0  0  0  0  0  0  0  0  0  0
   49.0350   32.6390   42.5950 N   0  0  0  0  0  0  0  0  0  0  0  0
   47.8990   34.6930   41.9140 C   0  0  0  0  0  0  0  0  0  0  0  0
   48.4060   35.8540   41.7550 O   0  0  0  0  0  0  0  0  0  0  0  0
   46.5590   34.6420   42.3990 N   0  0  0  0  0  0  0  0  0  0  0  0
   45.3110   34.6340   41.6320 C   0  0  0  0  0  0  0  0  0  0  0  0
   44.5900   35.7570   42.3890 C   0  0  0  0  0  0  0  0  0  0  0  0
   44.7100   35.1760   43.7840 C   0  0  0  0  0  0  0  0  0  0  0  0
   46.1020   34.5850   43.7910 C   0  0  0  0  0  0  0  0  0  0  0  0
   48.3021   33.7999   39.5139 H   0  0  0  0  0  0  0  0  0  0  0  0
   49.4529   31.6322   38.9088 H   0  0  0  0  0  0  0  0  0  0  0  0
   50.0257   30.8420   43.0815 H   0  0  0  0  0  0  0  0  0  0  0  0
   44.7811   33.6730   41.7079 H   0  0  0  0  0  0  0  0  0  0  0  0
   45.4108   34.7703   40.5451 H   0  0  0  0  0  0  0  0  0  0  0  0
   45.1068   36.7233   42.2935 H   0  0  0  0  0  0  0  0  0  0  0  0
   43.5710   35.9937   42.0489 H   0  0  0  0  0  0  0  0  0  0  0  0
   44.6103   35.9607   44.5484 H   0  0  0  0  0  0  0  0  0  0  0  0
   43.9264   34.4392   44.0143 H   0  0  0  0  0  0  0  0  0  0  0  0
   46.0757   33.5437   44.1446 H   0  0  0  0  0  0  0  0  0  0  0  0
   46.7755   35.1353   44.4644 H   0  0  0  0  0  0  0  0  0  0  0  0
  1  7  1  0
  1  6  1  0
  2  1  2  0
  3  2  1  0
  3  4  2  0
  4  5  1  0
  5  6  2  0
  7  9  1  0
  8  7  2  0
  9 13  1  0
 10 11  1  0
 10  9  1  0
 11 12  1  0
 12 13  1  0
  2 14  1  0
  3 15  1  0
  5 16  1  0
 10 17  1  0
 10 18  1  0
 11 19  1  0
 11 20  1  0
 12 21  1  0
 12 22  1  0
 13 23  1  0
 13 24  1  0
M  ISO  8  14  14  15  14  16  14  17  13  18  13  19  13  20  13  21  13
M  ISO  3  22  13  23  13  24  13
M  END
>  <minimizedAffinity>  (1) 
-3.29162383

>  <minimizedRMSD>  (1) 
4.4145689

$$$$
