
     RDKit          3D

 30 31  0  0  1  0  0  0  0  0999 V2000
   47.8030   34.8970   41.4240 C   0  0  2  0  0  0  0  0  0  0  0  0
   49.0360   35.5890   41.7140 C   0  0  0  0  0  0  0  0  0  0  0  0
   49.9750   34.5960   42.4210 C   0  0  0  0  0  0  0  0  0  0  0  0
   49.2750   33.2560   42.4530 C   0  0  0  0  0  0  0  0  0  0  0  0
   47.8540   33.6340   42.3430 C   0  0  1  0  0  0  0  0  0  0  0  0
   47.5740   34.3580   40.0620 C   0  0  0  0  0  0  0  0  0  0  0  0
   48.4550   34.7220   39.0450 C   0  0  0  0  0  0  0  0  0  0  0  0
   48.2820   34.2270   37.7630 C   0  0  0  0  0  0  0  0  0  0  0  0
   47.2210   33.3880   37.5870 N   0  0  0  0  0  0  0  0  0  0  0  0
   46.3810   33.0470   38.5770 C   0  0  0  0  0  0  0  0  0  0  0  0
   46.5630   33.5370   39.8220 N   0  0  0  0  0  0  0  0  0  0  0  0
   47.3170   34.0300   43.6880 C   0  0  0  0  0  0  0  0  0  0  0  0
   45.8970   34.4740   43.5670 C   0  0  0  0  0  0  0  0  0  0  0  0
   45.0790   33.6400   42.8240 O   0  0  0  0  0  0  0  0  0  0  0  0
   47.0101   35.6464   41.5644 H   0  0  0  0  0  0  0  0  0  0  0  0
   49.4973   35.9401   40.7792 H   0  0  0  0  0  0  0  0  0  0  0  0
   48.8459   36.4624   42.3551 H   0  0  0  0  0  0  0  0  0  0  0  0
   50.9210   34.5128   41.8659 H   0  0  0  0  0  0  0  0  0  0  0  0
   50.2055   34.9382   43.4407 H   0  0  0  0  0  0  0  0  0  0  0  0
   49.5850   32.6255   41.6066 H   0  0  0  0  0  0  0  0  0  0  0  0
   49.5025   32.6644   43.3520 H   0  0  0  0  0  0  0  0  0  0  0  0
   47.2633   32.7938   41.9491 H   0  0  0  0  0  0  0  0  0  0  0  0
   49.2902   35.4044   39.2612 H   0  0  0  0  0  0  0  0  0  0  0  0
   48.9585   34.4940   36.9377 H   0  0  0  0  0  0  0  0  0  0  0  0
   45.5415   32.3660   38.3733 H   0  0  0  0  0  0  0  0  0  0  0  0
   47.3711   33.1677   44.3689 H   0  0  0  0  0  0  0  0  0  0  0  0
   47.9197   34.8605   44.0842 H   0  0  0  0  0  0  0  0  0  0  0  0
   45.4763   34.5482   44.5807 H   0  0  0  0  0  0  0  0  0  0  0  0
   45.9224   35.4336   43.0299 H   0  0  0  0  0  0  0  0  0  0  0  0
   44.5333   33.0836   43.4345 H   0  0  0  0  0  0  0  0  0  0  0  0
  1  2  1  0
  1  5  1  0
  2  3  1  0
  3  4  1  0
  5  4  1  0
  5 12  1  0
  6  1  1  0
  7  6  2  0
  8  7  1  0
  9  8  2  0
  9 10  1  0
 10 11  2  0
 11  6  1  0
 13 12  1  0
 14 13  1  0
  1 15  1  1
  2 16  1  0
  2 17  1  0
  3 18  1  0
  3 19  1  0
  4 20  1  0
  4 21  1  0
  5 22  1  6
  7 23  1  0
  8 24  1  0
 10 25  1  0
 12 26  1  0
 12 27  1  0
 13 28  1  0
 13 29  1  0
 14 30  1  0
M  ISO  8  15  13  16  13  17  13  18  13  19  13  20  13  21  13  22  13
M  ISO  8  23  14  24  14  25  14  26   8  27   8  28   8  29   8  30   3
M  END
>  <minimizedAffinity>  (1) 
-4.16204548

>  <minimizedRMSD>  (1) 
0.113305852

$$$$
