
     RDKit          3D

 13 13  0  0  0  0  0  0  0  0999 V2000
   45.4400   34.6270   44.5480 C   0  0  0  0  0  0  0  0  0  0  0  0
   46.4120   34.1350   43.6770 C   0  0  0  0  0  0  0  0  0  0  0  0
   47.2200   33.0900   44.1370 C   0  0  0  0  0  0  0  0  0  0  0  0
   47.0010   32.6250   45.4080 N   0  0  0  0  0  0  0  0  0  0  0  0
   46.0420   33.1420   46.2100 C   0  0  0  0  0  0  0  0  0  0  0  0
   45.2570   34.1470   45.7770 N   0  0  0  0  0  0  0  0  0  0  0  0
   44.6610   35.6960   43.9880 C   0  0  0  0  0  0  0  0  0  0  0  0
   45.1100   36.7240   43.3720 O   0  0  0  0  0  0  0  0  0  0  0  0
   43.2780   35.8010   44.0170 O   0  0  0  0  0  0  0  0  0  0  0  0
   46.5383   34.5527   42.6673 H   0  0  0  0  0  0  0  0  0  0  0  0
   48.0049   32.6558   43.5003 H   0  0  0  0  0  0  0  0  0  0  0  0
   45.9023   32.7384   47.2237 H   0  0  0  0  0  0  0  0  0  0  0  0
   42.8319   36.5806   43.6007 H   0  0  0  0  0  0  0  0  0  0  0  0
  1  6  2  0
  2  3  2  0
  2  1  1  0
  3  4  1  0
  4  5  2  0
  6  5  1  0
  7  9  1  0
  7  1  1  0
  8  7  2  0
  2 10  1  0
  3 11  1  0
  5 12  1  0
  9 13  1  0
M  ISO  4  10  14  11  14  12  14  13   3
M  END
>  <minimizedAffinity>  (1) 
-3.67844033

>  <minimizedRMSD>  (1) 
0.170562848

$$$$
