
     RDKit          3D

 21 22  0  0  0  0  0  0  0  0999 V2000
   44.7990   35.5430   43.4600 C   0  0  0  0  0  0  0  0  0  0  0  0
   45.2920   36.6620   43.0520 O   0  0  0  0  0  0  0  0  0  0  0  0
   45.5030   34.5670   44.2460 C   0  0  0  0  0  0  0  0  0  0  0  0
   46.5590   33.9460   43.5620 C   0  0  0  0  0  0  0  0  0  0  0  0
   47.2940   32.9860   44.2510 C   0  0  0  0  0  0  0  0  0  0  0  0
   46.9420   32.7150   45.5410 N   0  0  0  0  0  0  0  0  0  0  0  0
   45.9180   33.3380   46.1560 C   0  0  0  0  0  0  0  0  0  0  0  0
   45.1830   34.2770   45.5130 N   0  0  0  0  0  0  0  0  0  0  0  0
   43.4870   35.4340   43.0200 O   0  0  0  0  0  0  0  0  0  0  0  0
   43.1910   35.1000   41.6920 C   0  0  0  0  0  0  0  0  0  0  0  0
   44.0560   34.2120   41.0470 C   0  0  0  0  0  0  0  0  0  0  0  0
   43.7820   33.8720   39.7380 C   0  0  0  0  0  0  0  0  0  0  0  0
   42.7030   34.3800   39.0910 N   0  0  0  0  0  0  0  0  0  0  0  0
   41.8950   35.2420   39.7720 C   0  0  0  0  0  0  0  0  0  0  0  0
   42.1210   35.6100   41.0620 N   0  0  0  0  0  0  0  0  0  0  0  0
   46.7969   34.2081   42.5205 H   0  0  0  0  0  0  0  0  0  0  0  0
   48.1331   32.4617   43.7703 H   0  0  0  0  0  0  0  0  0  0  0  0
   45.6747   33.0800   47.1973 H   0  0  0  0  0  0  0  0  0  0  0  0
   44.9307   33.7957   41.5681 H   0  0  0  0  0  0  0  0  0  0  0  0
   44.4505   33.1765   39.2095 H   0  0  0  0  0  0  0  0  0  0  0  0
   41.0191   35.6595   39.2537 H   0  0  0  0  0  0  0  0  0  0  0  0
  1  3  1  0
  2  1  2  0
  3  8  1  0
  4  3  2  0
  4  5  1  0
  5  6  2  0
  6  7  1  0
  8  7  2  0
  9  1  1  0
 10  9  1  0
 11 10  2  0
 12 11  1  0
 13 12  2  0
 13 14  1  0
 14 15  2  0
 15 10  1  0
  4 16  1  0
  5 17  1  0
  7 18  1  0
 11 19  1  0
 12 20  1  0
 14 21  1  0
M  ISO  6  16  14  17  14  18  14  19  14  20  14  21  14
M  END
>  <minimizedAffinity>  (1) 
-3.94009447

>  <minimizedRMSD>  (1) 
2.79495287

$$$$
