
     RDKit          3D

 16 16  0  0  0  0  0  0  0  0999 V2000
   46.0880   34.9080   43.1810 C   0  0  0  0  0  0  0  0  0  0  0  0
   46.2790   33.9050   44.1380 C   0  0  0  0  0  0  0  0  0  0  0  0
   45.5580   34.0280   45.3300 C   0  0  0  0  0  0  0  0  0  0  0  0
   44.7270   35.1030   45.4800 N   0  0  0  0  0  0  0  0  0  0  0  0
   44.5840   36.0350   44.5230 C   0  0  0  0  0  0  0  0  0  0  0  0
   45.2680   35.9300   43.3780 N   0  0  0  0  0  0  0  0  0  0  0  0
   46.8640   34.7100   41.9840 C   0  0  0  0  0  0  0  0  0  0  0  0
   46.4170   34.4660   40.8180 O   0  0  0  0  0  0  0  0  0  0  0  0
   48.2390   34.7550   41.9030 O   0  0  0  0  0  0  0  0  0  0  0  0
   49.0180   35.8590   41.5380 C   0  0  0  0  0  0  0  0  0  0  0  0
   46.9625   33.0614   43.9614 H   0  0  0  0  0  0  0  0  0  0  0  0
   45.6572   33.2774   46.1280 H   0  0  0  0  0  0  0  0  0  0  0  0
   43.9040   36.8851   44.6810 H   0  0  0  0  0  0  0  0  0  0  0  0
   49.3780   36.3692   42.4436 H   0  0  0  0  0  0  0  0  0  0  0  0
   49.8780   35.5199   40.9418 H   0  0  0  0  0  0  0  0  0  0  0  0
   48.4103   36.5555   40.9418 H   0  0  0  0  0  0  0  0  0  0  0  0
  1  6  2  0
  1  2  1  0
  2  3  2  0
  3  4  1  0
  5  4  2  0
  6  5  1  0
  7  1  1  0
  8  7  2  0
  9  7  1  0
 10  9  1  0
  2 11  1  0
  3 12  1  0
  5 13  1  0
 10 14  1  0
 10 15  1  0
 10 16  1  0
M  ISO  6  11  14  12  14  13  14  14   8  15   8  16   8
M  END
>  <minimizedAffinity>  (1) 
-3.56910419

>  <minimizedRMSD>  (1) 
3.7629199

$$$$
