
     RDKit          3D

 21 22  0  0  0  0  0  0  0  0999 V2000
   46.7780   34.8200   42.8330 C   0  0  0  0  0  0  0  0  0  0  0  0
   47.7390   35.3050   42.1250 O   0  0  0  0  0  0  0  0  0  0  0  0
   46.8720   33.7170   43.7390 C   0  0  0  0  0  0  0  0  0  0  0  0
   47.5830   32.6310   43.2210 C   0  0  0  0  0  0  0  0  0  0  0  0
   47.7320   31.5050   44.0280 C   0  0  0  0  0  0  0  0  0  0  0  0
   47.1720   31.5440   45.2670 N   0  0  0  0  0  0  0  0  0  0  0  0
   46.4860   32.6270   45.7300 C   0  0  0  0  0  0  0  0  0  0  0  0
   46.3380   33.7230   44.9550 N   0  0  0  0  0  0  0  0  0  0  0  0
   45.6610   35.5690   42.5430 O   0  0  0  0  0  0  0  0  0  0  0  0
   44.6600   35.0650   41.7030 C   0  0  0  0  0  0  0  0  0  0  0  0
   43.3250   35.4170   41.7990 C   0  0  0  0  0  0  0  0  0  0  0  0
   42.3710   34.8980   40.9520 C   0  0  0  0  0  0  0  0  0  0  0  0
   42.7600   34.0230   40.0080 N   0  0  0  0  0  0  0  0  0  0  0  0
   44.0610   33.6700   39.9060 C   0  0  0  0  0  0  0  0  0  0  0  0
   44.9850   34.1740   40.7260 N   0  0  0  0  0  0  0  0  0  0  0  0
   48.0114   32.6641   42.2084 H   0  0  0  0  0  0  0  0  0  0  0  0
   48.2812   30.6189   43.6768 H   0  0  0  0  0  0  0  0  0  0  0  0
   46.0507   32.6082   46.7400 H   0  0  0  0  0  0  0  0  0  0  0  0
   43.0166   36.1329   42.5752 H   0  0  0  0  0  0  0  0  0  0  0  0
   41.3153   35.1925   41.0456 H   0  0  0  0  0  0  0  0  0  0  0  0
   44.3644   32.9517   39.1301 H   0  0  0  0  0  0  0  0  0  0  0  0
  1  3  1  0
  2  1  2  0
  3  8  1  0
  4  3  2  0
  4  5  1  0
  5  6  2  0
  6  7  1  0
  8  7  2  0
  9  1  1  0
 10 11  2  0
 10  9  1  0
 12 11  1  0
 13 12  2  0
 14 13  1  0
 14 15  2  0
 15 10  1  0
  4 16  1  0
  5 17  1  0
  7 18  1  0
 11 19  1  0
 12 20  1  0
 14 21  1  0
M  ISO  6  16  14  17  14  18  14  19  14  20  14  21  14
M  END
>  <minimizedAffinity>  (1) 
-3.56150675

>  <minimizedRMSD>  (1) 
3.28272152

$$$$
