
     RDKit          3D

 19 19  0  0  0  0  0  0  0  0999 V2000
   46.3490   34.8430   43.0900 C   0  0  0  0  0  0  0  0  0  0  0  0
   45.4350   35.8960   43.1680 C   0  0  0  0  0  0  0  0  0  0  0  0
   44.6410   35.9670   44.3140 C   0  0  0  0  0  0  0  0  0  0  0  0
   44.8130   35.0070   45.2730 N   0  0  0  0  0  0  0  0  0  0  0  0
   45.7120   34.0110   45.1430 C   0  0  0  0  0  0  0  0  0  0  0  0
   46.4780   33.9360   44.0480 N   0  0  0  0  0  0  0  0  0  0  0  0
   47.1190   34.8530   41.8790 C   0  0  0  0  0  0  0  0  0  0  0  0
   46.8200   34.3110   40.7700 O   0  0  0  0  0  0  0  0  0  0  0  0
   48.3520   35.4760   41.7170 O   0  0  0  0  0  0  0  0  0  0  0  0
   49.4890   35.2820   42.4930 C   0  0  0  0  0  0  0  0  0  0  0  0
   49.9580   33.8540   42.2980 C   0  0  0  0  0  0  0  0  0  0  0  0
   45.3446   36.6378   42.3608 H   0  0  0  0  0  0  0  0  0  0  0  0
   43.9001   36.7700   44.4418 H   0  0  0  0  0  0  0  0  0  0  0  0
   45.8163   33.2584   45.9384 H   0  0  0  0  0  0  0  0  0  0  0  0
   50.2787   35.9796   42.1773 H   0  0  0  0  0  0  0  0  0  0  0  0
   49.2609   35.4654   43.5534 H   0  0  0  0  0  0  0  0  0  0  0  0
   50.1131   33.3818   43.2793 H   0  0  0  0  0  0  0  0  0  0  0  0
   49.1973   33.2917   41.7366 H   0  0  0  0  0  0  0  0  0  0  0  0
   50.9039   33.8522   41.7366 H   0  0  0  0  0  0  0  0  0  0  0  0
  1  2  2  0
  1  6  1  0
  2  3  1  0
  3  4  2  0
  5  4  1  0
  6  5  2  0
  7  1  1  0
  8  7  2  0
  9  7  1  0
  9 10  1  0
 11 10  1  0
  2 12  1  0
  3 13  1  0
  5 14  1  0
 10 15  1  0
 10 16  1  0
 11 17  1  0
 11 18  1  0
 11 19  1  0
M  ISO  8  12  14  13  14  14  14  15   8  16   8  17   8  18   8  19   8
M  END
>  <minimizedAffinity>  (1) 
-3.76853251

>  <minimizedRMSD>  (1) 
4.65740299

$$$$
