
     RDKit          3D

 29 30  0  0  0  0  0  0  0  0999 V2000
   45.6330   33.3670   45.0030 C   0  0  0  0  0  0  0  0  0  0  0  0
   46.5890   33.1390   46.1370 C   0  0  0  0  0  0  0  0  0  0  0  0
   46.0900   32.2690   47.2220 C   0  0  0  0  0  0  0  0  0  0  0  0
   45.8080   32.4240   48.5460 C   0  0  0  0  0  0  0  0  0  0  0  0
   45.3140   31.4180   49.3290 C   0  0  0  0  0  0  0  0  0  0  0  0
   45.0650   30.1590   48.8260 C   0  0  0  0  0  0  0  0  0  0  0  0
   45.3350   29.9560   47.4910 C   0  0  0  0  0  0  0  0  0  0  0  0
   45.8390   30.9870   46.6990 C   0  0  0  0  0  0  0  0  0  0  0  0
   45.6450   34.6340   44.5650 O   0  0  0  0  0  0  0  0  0  0  0  0
   45.4650   35.1500   43.3010 C   0  0  0  0  0  0  0  0  0  0  0  0
   44.4500   35.8520   43.3880 O   0  0  0  0  0  0  0  0  0  0  0  0
   46.3220   34.8810   42.1720 C   0  0  0  0  0  0  0  0  0  0  0  0
   45.6890   34.1320   41.2020 C   0  0  0  0  0  0  0  0  0  0  0  0
   46.5120   33.8160   40.1050 C   0  0  0  0  0  0  0  0  0  0  0  0
   47.7980   34.2380   40.0730 N   0  0  0  0  0  0  0  0  0  0  0  0
   48.3340   34.9740   41.0810 C   0  0  0  0  0  0  0  0  0  0  0  0
   47.5900   35.3060   42.1540 N   0  0  0  0  0  0  0  0  0  0  0  0
   45.9098   32.7038   44.1702 H   0  0  0  0  0  0  0  0  0  0  0  0
   44.6197   33.1523   45.3734 H   0  0  0  0  0  0  0  0  0  0  0  0
   47.5000   32.6797   45.7257 H   0  0  0  0  0  0  0  0  0  0  0  0
   46.7583   34.1254   46.5934 H   0  0  0  0  0  0  0  0  0  0  0  0
   45.9865   33.4065   49.0074 H   0  0  0  0  0  0  0  0  0  0  0  0
   45.1094   31.6191   50.3909 H   0  0  0  0  0  0  0  0  0  0  0  0
   44.6688   29.3535   49.4618 H   0  0  0  0  0  0  0  0  0  0  0  0
   45.1508   28.9681   47.0438 H   0  0  0  0  0  0  0  0  0  0  0  0
   46.0461   30.7929   45.6363 H   0  0  0  0  0  0  0  0  0  0  0  0
   44.6394   33.8117   41.2787 H   0  0  0  0  0  0  0  0  0  0  0  0
   46.1088   33.2238   39.2703 H   0  0  0  0  0  0  0  0  0  0  0  0
   49.3825   35.3011   41.0208 H   0  0  0  0  0  0  0  0  0  0  0  0
  1  2  1  0
  2  3  1  0
  3  4  2  0
  4  5  1  0
  6  5  2  0
  7  6  1  0
  8  3  1  0
  8  7  2  0
  9  1  1  0
 10 11  2  0
 10  9  1  0
 12 10  1  0
 13 12  2  0
 14 13  1  0
 15 14  2  0
 15 16  1  0
 16 17  2  0
 17 12  1  0
  1 18  1  0
  1 19  1  0
  2 20  1  0
  2 21  1  0
  4 22  1  0
  5 23  1  0
  6 24  1  0
  7 25  1  0
  8 26  1  0
 13 27  1  0
 14 28  1  0
 16 29  1  0
M  ISO  8  18   8  19   8  20   8  21   8  22  14  23  14  24  14  25  14
M  ISO  4  26  14  27  14  28  14  29  14
M  END
>  <minimizedAffinity>  (1) 
-4.81207609

>  <minimizedRMSD>  (1) 
6.83950424

$$$$
