
     RDKit          3D

 30 31  0  0  0  0  0  0  0  0999 V2000
   46.6750   33.1920   44.5640 C   0  0  0  0  0  0  0  0  0  0  0  0
   45.9410   32.1480   45.3370 C   0  0  0  0  0  0  0  0  0  0  0  0
   46.4640   31.8850   46.6380 N   0  0  0  0  0  0  0  0  0  0  0  0
   47.5250   31.0270   46.4540 C   0  0  0  0  0  0  0  0  0  0  0  0
   48.2660   30.4900   47.4960 C   0  0  0  0  0  0  0  0  0  0  0  0
   47.9300   30.8280   48.8110 C   0  0  0  0  0  0  0  0  0  0  0  0
   48.5710   30.3770   49.9970 N   0  0  0  0  0  0  0  0  0  0  0  0
   46.9080   31.6570   48.9760 N   0  0  0  0  0  0  0  0  0  0  0  0
   46.2540   32.1240   47.9160 C   0  0  0  0  0  0  0  0  0  0  0  0
   45.2950   32.9130   48.0670 O   0  0  0  0  0  0  0  0  0  0  0  0
   45.9330   34.2720   44.2880 O   0  0  0  0  0  0  0  0  0  0  0  0
   45.9540   35.1100   43.2040 C   0  0  0  0  0  0  0  0  0  0  0  0
   45.1690   36.0120   43.5190 O   0  0  0  0  0  0  0  0  0  0  0  0
   46.7320   34.9270   42.0030 C   0  0  0  0  0  0  0  0  0  0  0  0
   46.0820   34.1520   41.0680 C   0  0  0  0  0  0  0  0  0  0  0  0
   46.8160   33.9000   39.8960 C   0  0  0  0  0  0  0  0  0  0  0  0
   48.0800   34.4260   39.7770 N   0  0  0  0  0  0  0  0  0  0  0  0
   48.6380   35.1830   40.7600 C   0  0  0  0  0  0  0  0  0  0  0  0
   47.9500   35.4350   41.8870 N   0  0  0  0  0  0  0  0  0  0  0  0
   47.5487   33.5106   45.1516 H   0  0  0  0  0  0  0  0  0  0  0  0
   46.9612   32.7414   43.6022 H   0  0  0  0  0  0  0  0  0  0  0  0
   44.8970   32.4761   45.4483 H   0  0  0  0  0  0  0  0  0  0  0  0
   46.0451   31.2125   44.7678 H   0  0  0  0  0  0  0  0  0  0  0  0
   47.7998   30.7526   45.4248 H   0  0  0  0  0  0  0  0  0  0  0  0
   49.1051   29.8087   47.2915 H   0  0  0  0  0  0  0  0  0  0  0  0
   48.2344   30.6948   50.9171 H   0  0  0  0  0  0  0  0  0  0  0  0
   49.3721   29.7324   49.9362 H   0  0  0  0  0  0  0  0  0  0  0  0
   45.0664   33.7603   41.2263 H   0  0  0  0  0  0  0  0  0  0  0  0
   46.3855   33.2915   39.0870 H   0  0  0  0  0  0  0  0  0  0  0  0
   49.6524   35.5890   40.6326 H   0  0  0  0  0  0  0  0  0  0  0  0
  1  2  1  0
  2  3  1  0
  3  9  1  0
  4  3  1  0
  4  5  2  0
  5  6  1  0
  6  8  2  0
  6  7  1  0
  9 10  2  0
  9  8  1  0
 11  1  1  0
 12 13  2  0
 12 11  1  0
 14 12  1  0
 15 14  2  0
 16 15  1  0
 17 16  2  0
 17 18  1  0
 18 19  2  0
 19 14  1  0
  1 20  1  0
  1 21  1  0
  2 22  1  0
  2 23  1  0
  4 24  1  0
  5 25  1  0
  7 26  1  0
  7 27  1  0
 15 28  1  0
 16 29  1  0
 18 30  1  0
M  ISO  8  20   8  21   8  22   8  23   8  24  14  25  14  28  14  29  14
M  ISO  1  30  14
M  END
>  <minimizedAffinity>  (1) 
-4.7666173

>  <minimizedRMSD>  (1) 
6.98893213

$$$$
