
     RDKit          3D

 27 28  0  0  0  0  0  0  0  0999 V2000
   49.1890   35.0590   42.3220 C   0  0  0  0  0  0  0  0  0  0  0  0
   49.3310   33.5910   42.5900 C   0  0  0  0  0  0  0  0  0  0  0  0
   50.0560   32.7910   41.6230 C   0  0  0  0  0  0  0  0  0  0  0  0
   51.3230   32.2720   41.5310 C   0  0  0  0  0  0  0  0  0  0  0  0
   51.7920   31.5470   40.4580 C   0  0  0  0  0  0  0  0  0  0  0  0
   50.9880   31.2990   39.3880 N   0  0  0  0  0  0  0  0  0  0  0  0
   49.7400   31.8100   39.4720 C   0  0  0  0  0  0  0  0  0  0  0  0
   49.2910   32.5130   40.5190 N   0  0  0  0  0  0  0  0  0  0  0  0
   47.9960   35.3920   41.7790 O   0  0  0  0  0  0  0  0  0  0  0  0
   46.7510   34.8580   41.9930 C   0  0  0  0  0  0  0  0  0  0  0  0
   46.4360   34.3730   40.8980 O   0  0  0  0  0  0  0  0  0  0  0  0
   46.0290   34.8930   43.2390 C   0  0  0  0  0  0  0  0  0  0  0  0
   45.2200   36.0040   43.3450 C   0  0  0  0  0  0  0  0  0  0  0  0
   44.5280   36.1010   44.5660 C   0  0  0  0  0  0  0  0  0  0  0  0
   44.7000   35.1270   45.5190 N   0  0  0  0  0  0  0  0  0  0  0  0
   45.5240   34.0660   45.3150 C   0  0  0  0  0  0  0  0  0  0  0  0
   46.2010   33.9420   44.1600 N   0  0  0  0  0  0  0  0  0  0  0  0
   49.3026   35.5999   43.2731 H   0  0  0  0  0  0  0  0  0  0  0  0
   49.9659   35.3331   41.5931 H   0  0  0  0  0  0  0  0  0  0  0  0
   49.8458   33.4829   43.5561 H   0  0  0  0  0  0  0  0  0  0  0  0
   48.3022   33.2034   42.5520 H   0  0  0  0  0  0  0  0  0  0  0  0
   52.0108   32.4469   42.3714 H   0  0  0  0  0  0  0  0  0  0  0  0
   52.8237   31.1656   40.4658 H   0  0  0  0  0  0  0  0  0  0  0  0
   49.0526   31.6383   38.6306 H   0  0  0  0  0  0  0  0  0  0  0  0
   45.1237   36.7510   42.5433 H   0  0  0  0  0  0  0  0  0  0  0  0
   43.8547   36.9499   44.7559 H   0  0  0  0  0  0  0  0  0  0  0  0
   45.6379   33.3037   46.0998 H   0  0  0  0  0  0  0  0  0  0  0  0
  1  2  1  0
  3  2  1  0
  4  3  2  0
  5  4  1  0
  6  7  1  0
  6  5  2  0
  7  8  2  0
  8  3  1  0
  9 10  1  0
  9  1  1  0
 10 12  1  0
 11 10  2  0
 12 13  2  0
 12 17  1  0
 13 14  1  0
 14 15  2  0
 16 15  1  0
 17 16  2  0
  1 18  1  0
  1 19  1  0
  2 20  1  0
  2 21  1  0
  4 22  1  0
  5 23  1  0
  7 24  1  0
 13 25  1  0
 14 26  1  0
 16 27  1  0
M  ISO  8  18   8  19   8  20   8  21   8  22  14  23  14  24  14  25  14
M  ISO  2  26  14  27  14
M  END
>  <minimizedAffinity>  (1) 
-4.48565865

>  <minimizedRMSD>  (1) 
0.793239653

$$$$
