
     RDKit          3D

 26 27  0  0  0  0  0  0  0  0999 V2000
   47.7550   34.8100   41.1760 O   0  0  0  0  0  0  0  0  0  0  0  0
   48.6790   35.6290   41.7160 C   0  0  0  0  0  0  0  0  0  0  0  0
   49.6490   34.9300   42.5890 C   0  0  0  0  0  0  0  0  0  0  0  0
   49.9530   33.5310   42.4490 C   0  0  0  0  0  0  0  0  0  0  0  0
   51.0410   32.8040   41.9440 C   0  0  0  0  0  0  0  0  0  0  0  0
   50.8120   31.4500   42.0560 C   0  0  0  0  0  0  0  0  0  0  0  0
   49.5600   31.3930   42.6400 C   0  0  0  0  0  0  0  0  0  0  0  0
   49.1080   32.5790   42.8470 O   0  0  0  0  0  0  0  0  0  0  0  0
   46.4450   34.5780   41.5300 C   0  0  0  0  0  0  0  0  0  0  0  0
   45.9030   34.2490   40.4670 O   0  0  0  0  0  0  0  0  0  0  0  0
   45.9030   34.7100   42.8590 C   0  0  0  0  0  0  0  0  0  0  0  0
   45.1760   35.8690   43.0150 C   0  0  0  0  0  0  0  0  0  0  0  0
   44.6610   36.0560   44.3100 C   0  0  0  0  0  0  0  0  0  0  0  0
   44.9000   35.1320   45.2740 N   0  0  0  0  0  0  0  0  0  0  0  0
   45.6300   34.0180   45.0280 C   0  0  0  0  0  0  0  0  0  0  0  0
   46.1240   33.8270   43.8020 N   0  0  0  0  0  0  0  0  0  0  0  0
   49.2329   36.1155   40.8996 H   0  0  0  0  0  0  0  0  0  0  0  0
   48.1412   36.3538   42.3449 H   0  0  0  0  0  0  0  0  0  0  0  0
   50.6042   35.4625   42.4704 H   0  0  0  0  0  0  0  0  0  0  0  0
   49.1309   34.9499   43.5592 H   0  0  0  0  0  0  0  0  0  0  0  0
   51.9505   33.2525   41.5178 H   0  0  0  0  0  0  0  0  0  0  0  0
   51.4653   30.6180   41.7546 H   0  0  0  0  0  0  0  0  0  0  0  0
   49.0262   30.4647   42.8918 H   0  0  0  0  0  0  0  0  0  0  0  0
   45.0123   36.5864   42.1974 H   0  0  0  0  0  0  0  0  0  0  0  0
   44.0647   36.9510   44.5412 H   0  0  0  0  0  0  0  0  0  0  0  0
   45.8130   33.2824   45.8251 H   0  0  0  0  0  0  0  0  0  0  0  0
  1  9  1  0
  1  2  1  0
  2  3  1  0
  4  3  1  0
  4  8  1  0
  5  6  1  0
  5  4  2  0
  6  7  2  0
  7  8  1  0
  9 11  1  0
 10  9  2  0
 11 12  2  0
 11 16  1  0
 12 13  1  0
 13 14  2  0
 15 14  1  0
 16 15  2  0
  2 17  1  0
  2 18  1  0
  3 19  1  0
  3 20  1  0
  5 21  1  0
  6 22  1  0
  7 23  1  0
 12 24  1  0
 13 25  1  0
 15 26  1  0
M  ISO  8  17   8  18   8  19   8  20   8  21  14  22  14  23  14  24  14
M  ISO  2  25  14  26  14
M  END
>  <minimizedAffinity>  (1) 
-4.37956047

>  <minimizedRMSD>  (1) 
1.37719679

$$$$
