
     RDKit          3D

 30 32  0  0  0  0  0  0  0  0999 V2000
   49.3710   34.9620   42.7190 C   0  0  0  0  0  0  0  0  0  0  0  0
   50.3500   33.9350   42.2910 C   0  0  0  0  0  0  0  0  0  0  0  0
   50.0210   32.5610   42.2360 N   0  0  0  0  0  0  0  0  0  0  0  0
   49.0190   31.8110   42.7510 C   0  0  0  0  0  0  0  0  0  0  0  0
   49.1740   30.5220   42.3440 N   0  0  0  0  0  0  0  0  0  0  0  0
   50.2820   30.4530   41.5640 C   0  0  0  0  0  0  0  0  0  0  0  0
   50.8500   29.3570   40.9180 C   0  0  0  0  0  0  0  0  0  0  0  0
   51.9780   29.5800   40.1930 N   0  0  0  0  0  0  0  0  0  0  0  0
   52.4970   30.8060   40.1210 C   0  0  0  0  0  0  0  0  0  0  0  0
   51.9440   31.8560   40.7480 N   0  0  0  0  0  0  0  0  0  0  0  0
   50.8090   31.7160   41.4970 C   0  0  0  0  0  0  0  0  0  0  0  0
   48.3550   35.1360   41.8530 O   0  0  0  0  0  0  0  0  0  0  0  0
   47.0310   34.7830   41.9390 C   0  0  0  0  0  0  0  0  0  0  0  0
   46.7300   34.4390   40.7870 O   0  0  0  0  0  0  0  0  0  0  0  0
   46.2340   34.8300   43.1400 C   0  0  0  0  0  0  0  0  0  0  0  0
   45.3990   35.9220   43.1690 C   0  0  0  0  0  0  0  0  0  0  0  0
   44.6240   36.0410   44.3360 C   0  0  0  0  0  0  0  0  0  0  0  0
   44.7590   35.0890   45.3210 N   0  0  0  0  0  0  0  0  0  0  0  0
   45.6050   34.0510   45.2050 C   0  0  0  0  0  0  0  0  0  0  0  0
   46.3410   33.9380   44.0950 N   0  0  0  0  0  0  0  0  0  0  0  0
   48.9517   34.6588   43.6897 H   0  0  0  0  0  0  0  0  0  0  0  0
   49.9122   35.9180   42.7755 H   0  0  0  0  0  0  0  0  0  0  0  0
   50.6668   34.2163   41.2759 H   0  0  0  0  0  0  0  0  0  0  0  0
   51.0853   33.9631   43.1086 H   0  0  0  0  0  0  0  0  0  0  0  0
   48.2091   32.1838   43.3953 H   0  0  0  0  0  0  0  0  0  0  0  0
   50.4046   28.3539   40.9915 H   0  0  0  0  0  0  0  0  0  0  0  0
   53.4098   30.9623   39.5273 H   0  0  0  0  0  0  0  0  0  0  0  0
   45.3418   36.6464   42.3432 H   0  0  0  0  0  0  0  0  0  0  0  0
   43.9227   36.8794   44.4596 H   0  0  0  0  0  0  0  0  0  0  0  0
   45.6903   33.3067   46.0104 H   0  0  0  0  0  0  0  0  0  0  0  0
  2  1  1  0
  3  2  1  0
  3  4  1  0
  5  4  2  0
  6  5  1  0
  7  6  2  0
  8  7  1  0
  9  8  2  0
  9 10  1  0
 10 11  2  0
 11  6  1  0
 11  3  1  0
 12 13  1  0
 12  1  1  0
 13 15  1  0
 14 13  2  0
 15 16  2  0
 15 20  1  0
 16 17  1  0
 17 18  2  0
 19 18  1  0
 20 19  2  0
  1 21  1  0
  1 22  1  0
  2 23  1  0
  2 24  1  0
  4 25  1  0
  7 26  1  0
  9 27  1  0
 16 28  1  0
 17 29  1  0
 19 30  1  0
M  ISO  8  21   8  22   8  23   8  24   8  25  14  26  14  27  14  28  14
M  ISO  2  29  14  30  14
M  END
>  <minimizedAffinity>  (1) 
-4.3784318

>  <minimizedRMSD>  (1) 
1.62971151

$$$$
