
     RDKit          3D

 32 33  0  0  0  0  0  0  0  0999 V2000
   48.0670   35.4490   41.7260 O   0  0  0  0  0  0  0  0  0  0  0  0
   49.2330   35.2270   42.4000 C   0  0  0  0  0  0  0  0  0  0  0  0
   49.5100   33.7890   42.6380 C   0  0  0  0  0  0  0  0  0  0  0  0
   50.2760   32.9950   41.6840 C   0  0  0  0  0  0  0  0  0  0  0  0
   49.4530   32.3790   40.5530 C   0  0  0  0  0  0  0  0  0  0  0  0
   50.4920   31.5460   39.8130 C   0  0  0  0  0  0  0  0  0  0  0  0
   51.7030   31.4410   40.7260 C   0  0  0  0  0  0  0  0  0  0  0  0
   51.2100   31.9370   42.1090 C   0  0  0  0  0  0  0  0  0  0  0  0
   46.8290   34.8610   41.9520 C   0  0  0  0  0  0  0  0  0  0  0  0
   46.5430   34.3400   40.8680 O   0  0  0  0  0  0  0  0  0  0  0  0
   46.0870   34.8830   43.1920 C   0  0  0  0  0  0  0  0  0  0  0  0
   45.2620   35.9820   43.2850 C   0  0  0  0  0  0  0  0  0  0  0  0
   44.5560   36.0740   44.4990 C   0  0  0  0  0  0  0  0  0  0  0  0
   44.7400   35.1050   45.4470 N   0  0  0  0  0  0  0  0  0  0  0  0
   45.5780   34.0540   45.2650 C   0  0  0  0  0  0  0  0  0  0  0  0
   46.2690   33.9350   44.1170 N   0  0  0  0  0  0  0  0  0  0  0  0
   50.0615   35.6493   41.8124 H   0  0  0  0  0  0  0  0  0  0  0  0
   49.1358   35.7069   43.3850 H   0  0  0  0  0  0  0  0  0  0  0  0
   50.0493   33.7305   43.5950 H   0  0  0  0  0  0  0  0  0  0  0  0
   48.5082   33.3397   42.5709 H   0  0  0  0  0  0  0  0  0  0  0  0
   50.9090   33.8438   41.3859 H   0  0  0  0  0  0  0  0  0  0  0  0
   48.6434   31.7475   40.9476 H   0  0  0  0  0  0  0  0  0  0  0  0
   48.9507   33.1232   39.9175 H   0  0  0  0  0  0  0  0  0  0  0  0
   50.0914   30.5442   39.5988 H   0  0  0  0  0  0  0  0  0  0  0  0
   50.7606   32.0120   38.8535 H   0  0  0  0  0  0  0  0  0  0  0  0
   52.0489   30.3988   40.7903 H   0  0  0  0  0  0  0  0  0  0  0  0
   52.5520   32.0334   40.3543 H   0  0  0  0  0  0  0  0  0  0  0  0
   52.0344   32.3399   42.7157 H   0  0  0  0  0  0  0  0  0  0  0  0
   50.7684   31.1593   42.7494 H   0  0  0  0  0  0  0  0  0  0  0  0
   45.1634   36.7243   42.4793 H   0  0  0  0  0  0  0  0  0  0  0  0
   43.8672   36.9117   44.6827 H   0  0  0  0  0  0  0  0  0  0  0  0
   45.6926   33.2987   46.0565 H   0  0  0  0  0  0  0  0  0  0  0  0
  1  9  1  0
  1  2  1  0
  2  3  1  0
  4  8  1  0
  4  3  1  0
  5  4  1  0
  6  5  1  0
  6  7  1  0
  7  8  1  0
  9 11  1  0
 10  9  2  0
 11 12  2  0
 11 16  1  0
 12 13  1  0
 13 14  2  0
 15 14  1  0
 16 15  2  0
  2 17  1  0
  2 18  1  0
  3 19  1  0
  3 20  1  0
  4 21  1  0
  5 22  1  0
  5 23  1  0
  6 24  1  0
  6 25  1  0
  7 26  1  0
  7 27  1  0
  8 28  1  0
  8 29  1  0
 12 30  1  0
 13 31  1  0
 15 32  1  0
M  ISO  8  17   8  18   8  19   8  20   8  21  13  22  13  23  13  24  13
M  ISO  8  25  13  26  13  27  13  28  13  29  13  30  14  31  14  32  14
M  END
>  <minimizedAffinity>  (1) 
-4.3013463

>  <minimizedRMSD>  (1) 
0.964492619

$$$$
