
     RDKit          3D

 25 26  0  0  0  0  0  0  0  0999 V2000
   48.0430   35.3920   41.6950 O   0  0  0  0  0  0  0  0  0  0  0  0
   49.2380   35.1090   42.2430 C   0  0  0  0  0  0  0  0  0  0  0  0
   49.3450   33.6530   42.6650 C   0  0  0  0  0  0  0  0  0  0  0  0
   49.8060   32.8720   41.5360 N   0  0  0  0  0  0  0  0  0  0  0  0
   51.0920   32.4140   41.6600 C   0  0  0  0  0  0  0  0  0  0  0  0
   51.4300   31.6950   40.5770 N   0  0  0  0  0  0  0  0  0  0  0  0
   50.3330   31.7250   39.8010 C   0  0  0  0  0  0  0  0  0  0  0  0
   49.3580   32.4330   40.3780 N   0  0  0  0  0  0  0  0  0  0  0  0
   46.8040   34.8250   41.9120 C   0  0  0  0  0  0  0  0  0  0  0  0
   46.5090   34.2770   40.8410 O   0  0  0  0  0  0  0  0  0  0  0  0
   46.0680   34.8990   43.1500 C   0  0  0  0  0  0  0  0  0  0  0  0
   45.2990   36.0360   43.2380 C   0  0  0  0  0  0  0  0  0  0  0  0
   44.5920   36.1790   44.4440 C   0  0  0  0  0  0  0  0  0  0  0  0
   44.7170   35.2070   45.4100 N   0  0  0  0  0  0  0  0  0  0  0  0
   45.5070   34.1130   45.2270 C   0  0  0  0  0  0  0  0  0  0  0  0
   46.1870   33.9600   44.0840 N   0  0  0  0  0  0  0  0  0  0  0  0
   50.0256   35.3230   41.5055 H   0  0  0  0  0  0  0  0  0  0  0  0
   49.3529   35.7310   43.1429 H   0  0  0  0  0  0  0  0  0  0  0  0
   50.0606   33.5605   43.4953 H   0  0  0  0  0  0  0  0  0  0  0  0
   48.3620   33.2868   42.9960 H   0  0  0  0  0  0  0  0  0  0  0  0
   51.7503   32.6069   42.5199 H   0  0  0  0  0  0  0  0  0  0  0  0
   50.2491   31.2322   38.8212 H   0  0  0  0  0  0  0  0  0  0  0  0
   45.2418   36.7765   42.4266 H   0  0  0  0  0  0  0  0  0  0  0  0
   43.9483   37.0548   44.6133 H   0  0  0  0  0  0  0  0  0  0  0  0
   45.5865   33.3541   46.0193 H   0  0  0  0  0  0  0  0  0  0  0  0
  1  9  1  0
  1  2  1  0
  2  3  1  0
  4  5  1  0
  4  3  1  0
  6  5  2  0
  7  8  2  0
  7  6  1  0
  8  4  1  0
  9 11  1  0
 10  9  2  0
 11 12  2  0
 11 16  1  0
 12 13  1  0
 13 14  2  0
 15 14  1  0
 16 15  2  0
  2 17  1  0
  2 18  1  0
  3 19  1  0
  3 20  1  0
  5 21  1  0
  7 22  1  0
 12 23  1  0
 13 24  1  0
 15 25  1  0
M  ISO  8  17   8  18   8  19   8  20   8  21  14  22  14  23  14  24  14
M  ISO  1  25  14
M  END
>  <minimizedAffinity>  (1) 
-4.2322979

>  <minimizedRMSD>  (1) 
0.88163799

$$$$
