
     RDKit          3D

 32 33  0  0  0  0  0  0  0  0999 V2000
   48.0290   35.3230   41.7920 O   0  0  0  0  0  0  0  0  0  0  0  0
   49.1840   34.9740   42.3800 C   0  0  0  0  0  0  0  0  0  0  0  0
   49.3350   33.4620   42.5100 C   0  0  0  0  0  0  0  0  0  0  0  0
   49.9600   32.8400   41.3980 N   0  0  0  0  0  0  0  0  0  0  0  0
   51.2520   32.3040   41.5770 C   0  0  0  0  0  0  0  0  0  0  0  0
   51.4020   30.8200   41.4370 C   0  0  0  0  0  0  0  0  0  0  0  0
   50.4240   30.1940   40.6980 O   0  0  0  0  0  0  0  0  0  0  0  0
   49.1480   30.6250   41.1240 C   0  0  0  0  0  0  0  0  0  0  0  0
   49.0330   32.0710   40.6510 C   0  0  0  0  0  0  0  0  0  0  0  0
   46.7410   34.8330   41.9720 C   0  0  0  0  0  0  0  0  0  0  0  0
   46.4000   34.3940   40.8650 O   0  0  0  0  0  0  0  0  0  0  0  0
   46.0300   34.8740   43.2280 C   0  0  0  0  0  0  0  0  0  0  0  0
   45.2150   35.9790   43.3540 C   0  0  0  0  0  0  0  0  0  0  0  0
   44.5320   36.0880   44.5560 C   0  0  0  0  0  0  0  0  0  0  0  0
   44.7200   35.1060   45.5030 N   0  0  0  0  0  0  0  0  0  0  0  0
   45.5260   34.0580   45.3140 C   0  0  0  0  0  0  0  0  0  0  0  0
   46.2020   33.9330   44.1470 N   0  0  0  0  0  0  0  0  0  0  0  0
   50.0187   35.3621   41.7778 H   0  0  0  0  0  0  0  0  0  0  0  0
   49.1870   35.4004   43.3940 H   0  0  0  0  0  0  0  0  0  0  0  0
   49.9375   33.2517   43.4060 H   0  0  0  0  0  0  0  0  0  0  0  0
   48.3178   33.0479   42.5721 H   0  0  0  0  0  0  0  0  0  0  0  0
   51.9118   32.7751   40.8336 H   0  0  0  0  0  0  0  0  0  0  0  0
   51.5051   32.5173   42.6260 H   0  0  0  0  0  0  0  0  0  0  0  0
   52.3707   30.6210   40.9553 H   0  0  0  0  0  0  0  0  0  0  0  0
   51.3212   30.4103   42.4547 H   0  0  0  0  0  0  0  0  0  0  0  0
   48.3605   30.0068   40.6684 H   0  0  0  0  0  0  0  0  0  0  0  0
   49.0290   30.5394   42.2142 H   0  0  0  0  0  0  0  0  0  0  0  0
   49.2700   32.1351   39.5788 H   0  0  0  0  0  0  0  0  0  0  0  0
   48.0099   32.4466   40.8001 H   0  0  0  0  0  0  0  0  0  0  0  0
   45.1131   36.7258   42.5528 H   0  0  0  0  0  0  0  0  0  0  0  0
   43.8582   36.9360   44.7478 H   0  0  0  0  0  0  0  0  0  0  0  0
   45.6403   33.2997   46.1026 H   0  0  0  0  0  0  0  0  0  0  0  0
  1 10  1  0
  1  2  1  0
  2  3  1  0
  4  5  1  0
  4  3  1  0
  6  5  1  0
  7  8  1  0
  7  6  1  0
  9  8  1  0
  9  4  1  0
 10 12  1  0
 11 10  2  0
 12 13  2  0
 12 17  1  0
 13 14  1  0
 14 15  2  0
 16 15  1  0
 17 16  2  0
  2 18  1  0
  2 19  1  0
  3 20  1  0
  3 21  1  0
  5 22  1  0
  5 23  1  0
  6 24  1  0
  6 25  1  0
  8 26  1  0
  8 27  1  0
  9 28  1  0
  9 29  1  0
 13 30  1  0
 14 31  1  0
 16 32  1  0
M  ISO  8  18   8  19   8  20   8  21   8  22  13  23  13  24  13  25  13
M  ISO  7  26  13  27  13  28  13  29  13  30  14  31  14  32  14
M  END
>  <minimizedAffinity>  (1) 
-4.05772686

>  <minimizedRMSD>  (1) 
0.766777396

$$$$
