
     RDKit          3D

 20 20  0  0  0  0  0  0  0  0999 V2000
   47.0790   34.8700   41.9270 C   0  0  0  0  0  0  0  0  0  0  0  0
   46.8640   34.3700   40.8140 O   0  0  0  0  0  0  0  0  0  0  0  0
   46.2790   34.8580   43.1290 C   0  0  0  0  0  0  0  0  0  0  0  0
   45.3690   35.8920   43.1730 C   0  0  0  0  0  0  0  0  0  0  0  0
   44.5990   35.9340   44.3480 C   0  0  0  0  0  0  0  0  0  0  0  0
   44.8090   34.9820   45.3130 N   0  0  0  0  0  0  0  0  0  0  0  0
   45.7170   34.0080   45.1900 C   0  0  0  0  0  0  0  0  0  0  0  0
   46.4500   33.9640   44.0750 N   0  0  0  0  0  0  0  0  0  0  0  0
   48.3140   35.4980   41.8210 O   0  0  0  0  0  0  0  0  0  0  0  0
   49.4680   35.2430   42.4760 C   0  0  0  0  0  0  0  0  0  0  0  0
   49.9590   33.8340   42.2520 C   0  0  0  0  0  0  0  0  0  0  0  0
   49.1260   32.8400   42.6600 O   0  0  0  0  0  0  0  0  0  0  0  0
   45.2550   36.6221   42.3581 H   0  0  0  0  0  0  0  0  0  0  0  0
   43.8403   36.7175   44.4914 H   0  0  0  0  0  0  0  0  0  0  0  0
   45.8563   33.2625   45.9867 H   0  0  0  0  0  0  0  0  0  0  0  0
   50.2372   35.9453   42.1223 H   0  0  0  0  0  0  0  0  0  0  0  0
   49.2756   35.3633   43.5523 H   0  0  0  0  0  0  0  0  0  0  0  0
   50.1328   33.7058   41.1734 H   0  0  0  0  0  0  0  0  0  0  0  0
   50.8641   33.7340   42.8692 H   0  0  0  0  0  0  0  0  0  0  0  0
   49.1037   32.8134   43.6494 H   0  0  0  0  0  0  0  0  0  0  0  0
  1  3  1  0
  2  1  2  0
  3  4  2  0
  3  8  1  0
  4  5  1  0
  5  6  2  0
  7  6  1  0
  8  7  2  0
  9  1  1  0
  9 10  1  0
 11 10  1  0
 11 12  1  0
  4 13  1  0
  5 14  1  0
  7 15  1  0
 10 16  1  0
 10 17  1  0
 11 18  1  0
 11 19  1  0
 12 20  1  0
M  ISO  8  13  14  14  14  15  14  16   8  17   8  18   8  19   8  20   3
M  END
>  <minimizedAffinity>  (1) 
-3.70224333

>  <minimizedRMSD>  (1) 
0.0783043951

$$$$
