
     RDKit          3D

 20 20  0  0  0  0  0  0  0  0999 V2000
   46.5230   34.8920   42.0710 C   0  0  0  0  0  0  0  0  0  0  0  0
   46.1110   34.5320   40.9620 O   0  0  0  0  0  0  0  0  0  0  0  0
   45.8990   34.8640   43.3700 C   0  0  0  0  0  0  0  0  0  0  0  0
   45.0670   35.9440   43.5790 C   0  0  0  0  0  0  0  0  0  0  0  0
   44.4690   35.9680   44.8540 C   0  0  0  0  0  0  0  0  0  0  0  0
   44.7460   34.9670   45.7480 N   0  0  0  0  0  0  0  0  0  0  0  0
   45.5720   33.9570   45.4480 C   0  0  0  0  0  0  0  0  0  0  0  0
   46.1630   33.9000   44.2340 N   0  0  0  0  0  0  0  0  0  0  0  0
   47.8090   35.3790   41.8400 O   0  0  0  0  0  0  0  0  0  0  0  0
   49.0070   34.8840   42.1940 C   0  0  0  0  0  0  0  0  0  0  0  0
   49.2400   33.4810   41.6370 C   0  0  0  0  0  0  0  0  0  0  0  0
   50.8760   32.9720   42.2450 S   0  0  0  0  0  0  0  0  0  0  0  0
   44.8866   36.7175   42.8179 H   0  0  0  0  0  0  0  0  0  0  0  0
   43.7849   36.7840   45.1300 H   0  0  0  0  0  0  0  0  0  0  0  0
   45.7702   33.1712   46.1918 H   0  0  0  0  0  0  0  0  0  0  0  0
   49.7930   35.5518   41.8117 H   0  0  0  0  0  0  0  0  0  0  0  0
   49.0345   34.8200   43.2918 H   0  0  0  0  0  0  0  0  0  0  0  0
   48.4645   32.7908   42.0006 H   0  0  0  0  0  0  0  0  0  0  0  0
   49.1948   33.4691   40.5380 H   0  0  0  0  0  0  0  0  0  0  0  0
   50.8745   32.9725   43.6150 H   0  0  0  0  0  0  0  0  0  0  0  0
  1  3  1  0
  2  1  2  0
  3  4  2  0
  3  8  1  0
  4  5  1  0
  5  6  2  0
  7  6  1  0
  8  7  2  0
  9  1  1  0
  9 10  1  0
 11 10  1  0
 11 12  1  0
  4 13  1  0
  5 14  1  0
  7 15  1  0
 10 16  1  0
 10 17  1  0
 11 18  1  0
 11 19  1  0
 12 20  1  0
M  ISO  8  13  14  14  14  15  14  16   8  17   8  18   8  19   8  20  11
M  END
>  <minimizedAffinity>  (1) 
-3.66936398

>  <minimizedRMSD>  (1) 
0.722162962

$$$$
