
     RDKit          3D

 31 32  0  0  0  0  0  0  0  0999 V2000
   47.0640   35.3930   42.1990 O   0  0  0  0  0  0  0  0  0  0  0  0
   47.9270   34.6450   41.4980 C   0  0  0  0  0  0  0  0  0  0  0  0
   47.3430   34.1900   40.1870 C   0  0  0  0  0  0  0  0  0  0  0  0
   48.2920   33.9260   39.1470 N   0  0  0  0  0  0  0  0  0  0  0  0
   48.8700   32.6290   39.2090 C   0  0  0  0  0  0  0  0  0  0  0  0
   49.1700   32.2390   37.7800 C   0  0  0  0  0  0  0  0  0  0  0  0
   48.9200   33.5170   36.9710 C   0  0  0  0  0  0  0  0  0  0  0  0
   47.8660   34.1570   37.8380 C   0  0  0  0  0  0  0  0  0  0  0  0
   46.0270   35.0150   43.0510 C   0  0  0  0  0  0  0  0  0  0  0  0
   45.3300   36.0320   43.1960 O   0  0  0  0  0  0  0  0  0  0  0  0
   45.8860   33.6860   43.5950 C   0  0  0  0  0  0  0  0  0  0  0  0
   46.5530   33.5260   44.7960 C   0  0  0  0  0  0  0  0  0  0  0  0
   46.4920   32.2450   45.3470 C   0  0  0  0  0  0  0  0  0  0  0  0
   45.7990   31.2750   44.6830 N   0  0  0  0  0  0  0  0  0  0  0  0
   45.1710   31.5130   43.5100 C   0  0  0  0  0  0  0  0  0  0  0  0
   45.2150   32.7360   42.9580 N   0  0  0  0  0  0  0  0  0  0  0  0
   48.8305   35.2394   41.2971 H   0  0  0  0  0  0  0  0  0  0  0  0
   48.1634   33.7508   42.0934 H   0  0  0  0  0  0  0  0  0  0  0  0
   46.7764   33.2654   40.3713 H   0  0  0  0  0  0  0  0  0  0  0  0
   46.7245   35.0250   39.8262 H   0  0  0  0  0  0  0  0  0  0  0  0
   49.7963   32.6511   39.8018 H   0  0  0  0  0  0  0  0  0  0  0  0
   48.1926   31.9081   39.6901 H   0  0  0  0  0  0  0  0  0  0  0  0
   50.2155   31.9126   37.6776 H   0  0  0  0  0  0  0  0  0  0  0  0
   48.5479   31.3992   37.4369 H   0  0  0  0  0  0  0  0  0  0  0  0
   49.8240   34.1393   36.8969 H   0  0  0  0  0  0  0  0  0  0  0  0
   48.6305   33.3582   35.9217 H   0  0  0  0  0  0  0  0  0  0  0  0
   47.8015   35.2364   37.6364 H   0  0  0  0  0  0  0  0  0  0  0  0
   46.8648   33.7428   37.6482 H   0  0  0  0  0  0  0  0  0  0  0  0
   47.0939   34.3508   45.2830 H   0  0  0  0  0  0  0  0  0  0  0  0
   46.9939   32.0213   46.2999 H   0  0  0  0  0  0  0  0  0  0  0  0
   44.6228   30.7030   43.0067 H   0  0  0  0  0  0  0  0  0  0  0  0
  1  9  1  0
  2  1  1  0
  3  2  1  0
  4  5  1  0
  4  3  1  0
  6  5  1  0
  7  6  1  0
  7  8  1  0
  8  4  1  0
  9 10  2  0
  9 11  1  0
 11 12  2  0
 12 13  1  0
 14 13  2  0
 15 14  1  0
 16 15  2  0
 16 11  1  0
  2 17  1  0
  2 18  1  0
  3 19  1  0
  3 20  1  0
  5 21  1  0
  5 22  1  0
  6 23  1  0
  6 24  1  0
  7 25  1  0
  7 26  1  0
  8 27  1  0
  8 28  1  0
 12 29  1  0
 13 30  1  0
 15 31  1  0
M  ISO  8  17   8  18   8  19   8  20   8  21  13  22  13  23  13  24  13
M  ISO  7  25  13  26  13  27  13  28  13  29  14  30  14  31  14
M  END
>  <minimizedAffinity>  (1) 
-3.3595705

>  <minimizedRMSD>  (1) 
4.49165773

$$$$
