
     RDKit          3D

 40 43  0  0  0  0  0  0  0  0999 V2000
   46.0840   34.8860   43.1740 C   0  0  0  0  0  0  0  0  0  0  0  0
   45.2670   35.9950   43.2140 C   0  0  0  0  0  0  0  0  0  0  0  0
   44.5660   36.1110   44.4270 C   0  0  0  0  0  0  0  0  0  0  0  0
   44.7240   35.1950   45.4030 N   0  0  0  0  0  0  0  0  0  0  0  0
   45.5570   34.1330   45.2610 C   0  0  0  0  0  0  0  0  0  0  0  0
   46.2400   33.9870   44.1270 N   0  0  0  0  0  0  0  0  0  0  0  0
   45.7440   33.1290   46.3040 C   0  0  0  0  0  0  0  0  0  0  0  0
   45.2200   33.1300   47.6020 C   0  0  0  0  0  0  0  0  0  0  0  0
   45.6390   32.0240   48.2220 N   0  0  0  0  0  0  0  0  0  0  0  0
   46.4180   31.3030   47.3680 C   0  0  0  0  0  0  0  0  0  0  0  0
   47.0700   30.0850   47.5740 C   0  0  0  0  0  0  0  0  0  0  0  0
   47.8270   29.5170   46.5450 C   0  0  0  0  0  0  0  0  0  0  0  0
   47.9070   30.1900   45.3330 C   0  0  0  0  0  0  0  0  0  0  0  0
   47.2540   31.3960   45.1490 C   0  0  0  0  0  0  0  0  0  0  0  0
   46.5050   31.9650   46.1580 C   0  0  0  0  0  0  0  0  0  0  0  0
   46.8260   34.8130   41.9300 C   0  0  0  0  0  0  0  0  0  0  0  0
   46.5980   34.2900   40.8640 O   0  0  0  0  0  0  0  0  0  0  0  0
   48.0510   35.3940   41.7330 O   0  0  0  0  0  0  0  0  0  0  0  0
   49.2600   35.1300   42.2410 C   0  0  0  0  0  0  0  0  0  0  0  0
   49.4210   33.7010   42.6520 C   0  0  0  0  0  0  0  0  0  0  0  0
   49.9420   32.8530   41.6030 N   0  0  0  0  0  0  0  0  0  0  0  0
   51.2210   32.4670   41.6900 N   0  0  0  0  0  0  0  0  0  0  0  0
   51.5560   31.6790   40.6710 C   0  0  0  0  0  0  0  0  0  0  0  0
   50.4470   31.5340   39.8670 C   0  0  0  0  0  0  0  0  0  0  0  0
   49.5020   32.2820   40.5040 C   0  0  0  0  0  0  0  0  0  0  0  0
   45.1734   36.7126   42.3856 H   0  0  0  0  0  0  0  0  0  0  0  0
   43.8814   36.9581   44.5812 H   0  0  0  0  0  0  0  0  0  0  0  0
   44.5745   33.9076   48.0363 H   0  0  0  0  0  0  0  0  0  0  0  0
   45.4100   31.7586   49.1905 H   0  0  0  0  0  0  0  0  0  0  0  0
   46.9880   29.5735   48.5444 H   0  0  0  0  0  0  0  0  0  0  0  0
   48.3473   28.5590   46.6921 H   0  0  0  0  0  0  0  0  0  0  0  0
   48.4962   29.7595   44.5098 H   0  0  0  0  0  0  0  0  0  0  0  0
   47.3337   31.9106   44.1800 H   0  0  0  0  0  0  0  0  0  0  0  0
   50.0189   35.3636   41.4797 H   0  0  0  0  0  0  0  0  0  0  0  0
   49.3803   35.7478   43.1432 H   0  0  0  0  0  0  0  0  0  0  0  0
   50.1116   33.6606   43.5072 H   0  0  0  0  0  0  0  0  0  0  0  0
   48.4195   33.3230   42.9054 H   0  0  0  0  0  0  0  0  0  0  0  0
   52.5431   31.2243   40.5011 H   0  0  0  0  0  0  0  0  0  0  0  0
   50.3480   30.9552   38.9368 H   0  0  0  0  0  0  0  0  0  0  0  0
   48.4723   32.3965   40.1345 H   0  0  0  0  0  0  0  0  0  0  0  0
  1  2  2  0
  1  6  1  0
  2  3  1  0
  3  4  2  0
  5  4  1  0
  5  7  1  0
  6  5  2  0
  7  8  2  0
  8  9  1  0
 10 11  2  0
 10  9  1  0
 12 11  1  0
 13 12  2  0
 14 13  1  0
 14 15  2  0
 15  7  1  0
 15 10  1  0
 16  1  1  0
 17 16  2  0
 18 16  1  0
 18 19  1  0
 19 20  1  0
 21 22  1  0
 21 20  1  0
 23 22  2  0
 24 25  2  0
 24 23  1  0
 25 21  1  0
  2 26  1  0
  3 27  1  0
  8 28  1  0
  9 29  1  0
 11 30  1  0
 12 31  1  0
 13 32  1  0
 14 33  1  0
 19 34  1  0
 19 35  1  0
 20 36  1  0
 20 37  1  0
 23 38  1  0
 24 39  1  0
 25 40  1  0
M  ISO  8  26  14  27  14  28  14  29   9  30  14  31  14  32  14  33  14
M  ISO  7  34   8  35   8  36   8  37   8  38  14  39  14  40  14
M  END
>  <minimizedAffinity>  (1) 
-5.80810881

>  <minimizedRMSD>  (1) 
0.257813454

$$$$
