
     RDKit          3D

 36 38  0  0  0  0  0  0  0  0999 V2000
   46.6900   34.8620   42.2140 C   0  0  0  0  0  0  0  0  0  0  0  0
   46.5390   34.2740   41.1690 O   0  0  0  0  0  0  0  0  0  0  0  0
   46.0290   34.7800   43.4990 C   0  0  0  0  0  0  0  0  0  0  0  0
   45.1090   35.7860   43.6600 C   0  0  0  0  0  0  0  0  0  0  0  0
   44.4790   35.7550   44.9190 C   0  0  0  0  0  0  0  0  0  0  0  0
   44.7960   34.8070   45.8220 N   0  0  0  0  0  0  0  0  0  0  0  0
   45.7270   33.8520   45.5600 C   0  0  0  0  0  0  0  0  0  0  0  0
   46.3410   33.8520   44.3790 N   0  0  0  0  0  0  0  0  0  0  0  0
   46.0240   32.8530   46.5830 C   0  0  0  0  0  0  0  0  0  0  0  0
   45.2510   32.8250   47.7260 C   0  0  0  0  0  0  0  0  0  0  0  0
   45.4800   31.9080   48.7280 C   0  0  0  0  0  0  0  0  0  0  0  0
   46.5160   31.0200   48.5360 C   0  0  0  0  0  0  0  0  0  0  0  0
   47.3000   31.0320   47.4000 C   0  0  0  0  0  0  0  0  0  0  0  0
   47.0640   31.9650   46.3830 C   0  0  0  0  0  0  0  0  0  0  0  0
   47.7240   35.7260   41.9330 O   0  0  0  0  0  0  0  0  0  0  0  0
   49.0190   35.5160   41.6740 C   0  0  0  0  0  0  0  0  0  0  0  0
   49.6150   34.4310   42.5180 C   0  0  0  0  0  0  0  0  0  0  0  0
   50.0140   33.2590   41.7670 N   0  0  0  0  0  0  0  0  0  0  0  0
   51.2280   32.7490   41.9940 N   0  0  0  0  0  0  0  0  0  0  0  0
   51.4510   31.6720   41.2590 C   0  0  0  0  0  0  0  0  0  0  0  0
   50.3270   31.4410   40.4940 C   0  0  0  0  0  0  0  0  0  0  0  0
   49.4920   32.4550   40.8620 C   0  0  0  0  0  0  0  0  0  0  0  0
   44.8874   36.5369   42.8873 H   0  0  0  0  0  0  0  0  0  0  0  0
   43.7207   36.5122   45.1675 H   0  0  0  0  0  0  0  0  0  0  0  0
   44.4331   33.5518   47.8394 H   0  0  0  0  0  0  0  0  0  0  0  0
   44.8643   31.8856   49.6393 H   0  0  0  0  0  0  0  0  0  0  0  0
   46.7260   30.2741   49.3167 H   0  0  0  0  0  0  0  0  0  0  0  0
   48.1166   30.3028   47.2928 H   0  0  0  0  0  0  0  0  0  0  0  0
   47.6764   31.9900   45.4696 H   0  0  0  0  0  0  0  0  0  0  0  0
   49.1240   35.2348   40.6157 H   0  0  0  0  0  0  0  0  0  0  0  0
   49.5568   36.4471   41.9061 H   0  0  0  0  0  0  0  0  0  0  0  0
   50.5023   34.8354   43.0270 H   0  0  0  0  0  0  0  0  0  0  0  0
   48.8350   34.1091   43.2237 H   0  0  0  0  0  0  0  0  0  0  0  0
   52.3701   31.0677   41.2581 H   0  0  0  0  0  0  0  0  0  0  0  0
   50.1478   30.6364   39.7657 H   0  0  0  0  0  0  0  0  0  0  0  0
   48.4830   32.5886   40.4449 H   0  0  0  0  0  0  0  0  0  0  0  0
  1  3  1  0
  2  1  2  0
  3  4  2  0
  3  8  1  0
  4  5  1  0
  5  6  2  0
  7  6  1  0
  7  9  1  0
  8  7  2  0
  9 10  2  0
 10 11  1  0
 12 11  2  0
 13 12  1  0
 14  9  1  0
 14 13  2  0
 15  1  1  0
 16 15  1  0
 16 17  1  0
 18 19  1  0
 18 17  1  0
 20 19  2  0
 21 22  2  0
 21 20  1  0
 22 18  1  0
  4 23  1  0
  5 24  1  0
 10 25  1  0
 11 26  1  0
 12 27  1  0
 13 28  1  0
 14 29  1  0
 16 30  1  0
 16 31  1  0
 17 32  1  0
 17 33  1  0
 20 34  1  0
 21 35  1  0
 22 36  1  0
M  ISO  8  23  14  24  14  25  14  26  14  27  14  28  14  29  14  30   8
M  ISO  6  31   8  32   8  33   8  34  14  35  14  36  14
M  END
>  <minimizedAffinity>  (1) 
-5.69714451

>  <minimizedRMSD>  (1) 
0.566450059

$$$$
