
     RDKit          3D

 34 36  0  0  0  0  0  0  0  0999 V2000
   46.7910   34.7760   42.1040 C   0  0  0  0  0  0  0  0  0  0  0  0
   46.5650   34.2490   41.0410 O   0  0  0  0  0  0  0  0  0  0  0  0
   46.0940   34.7770   43.3760 C   0  0  0  0  0  0  0  0  0  0  0  0
   45.1790   35.8050   43.4380 C   0  0  0  0  0  0  0  0  0  0  0  0
   44.5070   35.8580   44.6790 C   0  0  0  0  0  0  0  0  0  0  0  0
   44.7900   34.9600   45.6420 N   0  0  0  0  0  0  0  0  0  0  0  0
   45.7140   33.9830   45.4760 C   0  0  0  0  0  0  0  0  0  0  0  0
   46.3670   33.9060   44.3170 N   0  0  0  0  0  0  0  0  0  0  0  0
   46.0130   33.0180   46.5240 C   0  0  0  0  0  0  0  0  0  0  0  0
   45.2090   32.9220   47.6580 C   0  0  0  0  0  0  0  0  0  0  0  0
   45.5490   31.9750   48.6280 C   0  0  0  0  0  0  0  0  0  0  0  0
   46.6200   31.1720   48.4870 N   0  0  0  0  0  0  0  0  0  0  0  0
   47.3960   31.2780   47.3730 C   0  0  0  0  0  0  0  0  0  0  0  0
   47.0550   32.1830   46.4660 N   0  0  0  0  0  0  0  0  0  0  0  0
   47.9620   35.4530   41.8640 O   0  0  0  0  0  0  0  0  0  0  0  0
   49.2320   35.1770   42.1830 C   0  0  0  0  0  0  0  0  0  0  0  0
   49.4350   33.7660   42.6320 C   0  0  0  0  0  0  0  0  0  0  0  0
   49.9410   32.8910   41.6020 N   0  0  0  0  0  0  0  0  0  0  0  0
   51.2050   32.4790   41.6830 N   0  0  0  0  0  0  0  0  0  0  0  0
   51.5310   31.6710   40.6880 C   0  0  0  0  0  0  0  0  0  0  0  0
   50.4220   31.5310   39.8910 C   0  0  0  0  0  0  0  0  0  0  0  0
   49.4920   32.3070   40.5160 C   0  0  0  0  0  0  0  0  0  0  0  0
   44.9924   36.5071   42.6120 H   0  0  0  0  0  0  0  0  0  0  0  0
   43.7499   36.6353   44.8597 H   0  0  0  0  0  0  0  0  0  0  0  0
   44.3317   33.5730   47.7861 H   0  0  0  0  0  0  0  0  0  0  0  0
   44.9255   31.8836   49.5296 H   0  0  0  0  0  0  0  0  0  0  0  0
   48.2765   30.6342   47.2304 H   0  0  0  0  0  0  0  0  0  0  0  0
   49.8610   35.3560   41.2985 H   0  0  0  0  0  0  0  0  0  0  0  0
   49.5059   35.8297   43.0250 H   0  0  0  0  0  0  0  0  0  0  0  0
   50.1510   33.7680   43.4671 H   0  0  0  0  0  0  0  0  0  0  0  0
   48.4474   33.3786   42.9229 H   0  0  0  0  0  0  0  0  0  0  0  0
   52.5111   31.1979   40.5283 H   0  0  0  0  0  0  0  0  0  0  0  0
   50.3110   30.9371   38.9718 H   0  0  0  0  0  0  0  0  0  0  0  0
   48.4638   32.4318   40.1456 H   0  0  0  0  0  0  0  0  0  0  0  0
  1  3  1  0
  2  1  2  0
  3  4  2  0
  3  8  1  0
  4  5  1  0
  5  6  2  0
  7  6  1  0
  7  9  1  0
  8  7  2  0
  9 10  2  0
 10 11  1  0
 12 11  2  0
 13 12  1  0
 14  9  1  0
 14 13  2  0
 15  1  1  0
 15 16  1  0
 16 17  1  0
 18 19  1  0
 18 17  1  0
 20 19  2  0
 21 22  2  0
 21 20  1  0
 22 18  1  0
  4 23  1  0
  5 24  1  0
 10 25  1  0
 11 26  1  0
 13 27  1  0
 16 28  1  0
 16 29  1  0
 17 30  1  0
 17 31  1  0
 20 32  1  0
 21 33  1  0
 22 34  1  0
M  ISO  8  23  14  24  14  25  14  26  14  27  14  28   8  29   8  30   8
M  ISO  4  31   8  32  14  33  14  34  14
M  END
>  <minimizedAffinity>  (1) 
-5.53378487

>  <minimizedRMSD>  (1) 
0.583412588

$$$$
