
     RDKit          3D

 42 44  0  0  0  0  0  0  0  0999 V2000
   46.5390   34.7410   42.4530 C   0  0  0  0  0  0  0  0  0  0  0  0
   46.2860   34.2320   41.3860 O   0  0  0  0  0  0  0  0  0  0  0  0
   46.0540   34.5200   43.7990 C   0  0  0  0  0  0  0  0  0  0  0  0
   45.0520   35.4060   44.1170 C   0  0  0  0  0  0  0  0  0  0  0  0
   44.5830   35.2450   45.4350 C   0  0  0  0  0  0  0  0  0  0  0  0
   45.1080   34.3010   46.2400 N   0  0  0  0  0  0  0  0  0  0  0  0
   46.1000   33.4710   45.8220 C   0  0  0  0  0  0  0  0  0  0  0  0
   46.5660   33.5980   44.5800 N   0  0  0  0  0  0  0  0  0  0  0  0
   46.5990   32.4680   46.8010 C   0  0  0  0  0  0  0  0  0  0  0  0
   46.7200   31.1200   46.1580 C   0  0  0  0  0  0  0  0  0  0  0  0
   45.5660   30.1920   46.4040 C   0  0  0  0  0  0  0  0  0  0  0  0
   45.4140   30.1100   47.9290 C   0  0  0  0  0  0  0  0  0  0  0  0
   44.8540   31.4590   48.3260 C   0  0  0  0  0  0  0  0  0  0  0  0
   45.9020   32.5070   48.1130 C   0  0  0  0  0  0  0  0  0  0  0  0
   47.4880   35.6810   42.1210 O   0  0  0  0  0  0  0  0  0  0  0  0
   48.7390   35.5700   41.6690 C   0  0  0  0  0  0  0  0  0  0  0  0
   49.5780   34.6320   42.4810 C   0  0  0  0  0  0  0  0  0  0  0  0
   49.9500   33.4210   41.7780 N   0  0  0  0  0  0  0  0  0  0  0  0
   51.1600   32.9030   42.0140 N   0  0  0  0  0  0  0  0  0  0  0  0
   51.3620   31.7910   41.3250 C   0  0  0  0  0  0  0  0  0  0  0  0
   50.2300   31.5470   40.5830 C   0  0  0  0  0  0  0  0  0  0  0  0
   49.4120   32.5880   40.9150 C   0  0  0  0  0  0  0  0  0  0  0  0
   44.6593   36.1589   43.4178 H   0  0  0  0  0  0  0  0  0  0  0  0
   43.7802   35.8963   45.8109 H   0  0  0  0  0  0  0  0  0  0  0  0
   47.6223   32.7497   47.0900 H   0  0  0  0  0  0  0  0  0  0  0  0
   47.6318   30.6395   46.5425 H   0  0  0  0  0  0  0  0  0  0  0  0
   46.7437   31.2989   45.0729 H   0  0  0  0  0  0  0  0  0  0  0  0
   44.6484   30.5925   45.9485 H   0  0  0  0  0  0  0  0  0  0  0  0
   45.7415   29.2008   45.9605 H   0  0  0  0  0  0  0  0  0  0  0  0
   44.7201   29.3034   48.2080 H   0  0  0  0  0  0  0  0  0  0  0  0
   46.3658   29.8869   48.4333 H   0  0  0  0  0  0  0  0  0  0  0  0
   43.9731   31.6883   47.7084 H   0  0  0  0  0  0  0  0  0  0  0  0
   44.5589   31.4403   49.3855 H   0  0  0  0  0  0  0  0  0  0  0  0
   46.6602   32.3911   48.9015 H   0  0  0  0  0  0  0  0  0  0  0  0
   45.3711   33.4700   48.1405 H   0  0  0  0  0  0  0  0  0  0  0  0
   48.7052   35.2014   40.6331 H   0  0  0  0  0  0  0  0  0  0  0  0
   49.2014   36.5657   41.7380 H   0  0  0  0  0  0  0  0  0  0  0  0
   50.4979   35.1575   42.7769 H   0  0  0  0  0  0  0  0  0  0  0  0
   48.9705   34.3263   43.3456 H   0  0  0  0  0  0  0  0  0  0  0  0
   52.2718   31.1730   41.3427 H   0  0  0  0  0  0  0  0  0  0  0  0
   50.0321   30.7155   39.8906 H   0  0  0  0  0  0  0  0  0  0  0  0
   48.4012   32.7173   40.5008 H   0  0  0  0  0  0  0  0  0  0  0  0
  1  3  1  0
  2  1  2  0
  3  4  2  0
  3  8  1  0
  4  5  1  0
  5  6  2  0
  7  6  1  0
  7  9  1  0
  8  7  2  0
  9 14  1  0
 10 11  1  0
 10  9  1  0
 11 12  1  0
 12 13  1  0
 14 13  1  0
 15  1  1  0
 16 15  1  0
 16 17  1  0
 18 19  1  0
 18 17  1  0
 20 19  2  0
 21 22  2  0
 21 20  1  0
 22 18  1  0
  4 23  1  0
  5 24  1  0
  9 25  1  0
 10 26  1  0
 10 27  1  0
 11 28  1  0
 11 29  1  0
 12 30  1  0
 12 31  1  0
 13 32  1  0
 13 33  1  0
 14 34  1  0
 14 35  1  0
 16 36  1  0
 16 37  1  0
 17 38  1  0
 17 39  1  0
 20 40  1  0
 21 41  1  0
 22 42  1  0
M  ISO  8  23  14  24  14  25  13  26  13  27  13  28  13  29  13  30  13
M  ISO  8  31  13  32  13  33  13  34  13  35  13  36   8  37   8  38   8
M  ISO  4  39   8  40  14  41  14  42  14
M  END
>  <minimizedAffinity>  (1) 
-5.483531

>  <minimizedRMSD>  (1) 
1.55837595

$$$$
