
     RDKit          3D

 33 35  0  0  0  0  0  0  0  0999 V2000
   46.8800   34.7790   41.8140 C   0  0  0  0  0  0  0  0  0  0  0  0
   46.6650   34.2240   40.7620 O   0  0  0  0  0  0  0  0  0  0  0  0
   46.1350   34.8840   43.0530 C   0  0  0  0  0  0  0  0  0  0  0  0
   45.2280   35.9140   43.0180 C   0  0  0  0  0  0  0  0  0  0  0  0
   44.5130   36.0690   44.2090 C   0  0  0  0  0  0  0  0  0  0  0  0
   44.7450   35.2490   45.2530 N   0  0  0  0  0  0  0  0  0  0  0  0
   45.6650   34.2540   45.1910 C   0  0  0  0  0  0  0  0  0  0  0  0
   46.3620   34.0810   44.0700 N   0  0  0  0  0  0  0  0  0  0  0  0
   45.8260   33.4320   46.3860 C   0  0  0  0  0  0  0  0  0  0  0  0
   46.7320   32.4530   46.7720 C   0  0  0  0  0  0  0  0  0  0  0  0
   46.3510   32.0350   48.0510 C   0  0  0  0  0  0  0  0  0  0  0  0
   45.2610   32.7490   48.3900 N   0  0  0  0  0  0  0  0  0  0  0  0
   44.9320   33.5940   47.4010 N   0  0  0  0  0  0  0  0  0  0  0  0
   48.1040   35.3610   41.6020 O   0  0  0  0  0  0  0  0  0  0  0  0
   49.3040   35.1620   42.1610 C   0  0  0  0  0  0  0  0  0  0  0  0
   49.5080   33.7520   42.6160 C   0  0  0  0  0  0  0  0  0  0  0  0
   50.0120   32.8720   41.5830 N   0  0  0  0  0  0  0  0  0  0  0  0
   51.2800   32.4670   41.6620 N   0  0  0  0  0  0  0  0  0  0  0  0
   51.6010   31.6510   40.6710 C   0  0  0  0  0  0  0  0  0  0  0  0
   50.4810   31.4970   39.8740 C   0  0  0  0  0  0  0  0  0  0  0  0
   49.5590   32.2760   40.5020 C   0  0  0  0  0  0  0  0  0  0  0  0
   45.0783   36.5557   42.1372 H   0  0  0  0  0  0  0  0  0  0  0  0
   43.7575   36.8639   44.2945 H   0  0  0  0  0  0  0  0  0  0  0  0
   47.5841   32.0788   46.1855 H   0  0  0  0  0  0  0  0  0  0  0  0
   46.8476   31.2683   48.6638 H   0  0  0  0  0  0  0  0  0  0  0  0
   44.7524   32.6594   49.2812 H   0  0  0  0  0  0  0  0  0  0  0  0
   50.0806   35.4080   41.4218 H   0  0  0  0  0  0  0  0  0  0  0  0
   49.3651   35.8075   43.0496 H   0  0  0  0  0  0  0  0  0  0  0  0
   50.2268   33.7568   43.4486 H   0  0  0  0  0  0  0  0  0  0  0  0
   48.5220   33.3654   42.9133 H   0  0  0  0  0  0  0  0  0  0  0  0
   52.5819   31.1799   40.5100 H   0  0  0  0  0  0  0  0  0  0  0  0
   50.3648   30.8951   38.9606 H   0  0  0  0  0  0  0  0  0  0  0  0
   48.5279   32.3963   40.1383 H   0  0  0  0  0  0  0  0  0  0  0  0
  1  3  1  0
  2  1  2  0
  3  8  1  0
  4  3  2  0
  4  5  1  0
  5  6  2  0
  7  6  1  0
  7  9  1  0
  8  7  2  0
  9 10  1  0
  9 13  2  0
 10 11  2  0
 11 12  1  0
 13 12  1  0
 14  1  1  0
 14 15  1  0
 15 16  1  0
 17 18  1  0
 17 16  1  0
 19 18  2  0
 20 21  2  0
 20 19  1  0
 21 17  1  0
  4 22  1  0
  5 23  1  0
 10 24  1  0
 11 25  1  0
 12 26  1  0
 15 27  1  0
 15 28  1  0
 16 29  1  0
 16 30  1  0
 19 31  1  0
 20 32  1  0
 21 33  1  0
M  ISO  8  22  14  23  14  24  14  25  14  26   9  27   8  28   8  29   8
M  ISO  4  30   8  31  14  32  14  33  14
M  END
>  <minimizedAffinity>  (1) 
-5.4582653

>  <minimizedRMSD>  (1) 
0.458304316

$$$$
