
     RDKit          3D

 35 36  0  0  0  0  0  0  0  0999 V2000
   48.9990   35.5650   41.6240 C   0  0  0  0  0  0  0  0  0  0  0  0
   49.6650   34.5390   42.4890 C   0  0  0  0  0  0  0  0  0  0  0  0
   49.9990   33.3120   41.7950 N   0  0  0  0  0  0  0  0  0  0  0  0
   51.2140   32.7910   41.9800 N   0  0  0  0  0  0  0  0  0  0  0  0
   51.3740   31.6640   41.3100 C   0  0  0  0  0  0  0  0  0  0  0  0
   50.2090   31.4100   40.6390 C   0  0  0  0  0  0  0  0  0  0  0  0
   49.4030   32.4580   40.9780 C   0  0  0  0  0  0  0  0  0  0  0  0
   47.7280   35.7870   41.9630 O   0  0  0  0  0  0  0  0  0  0  0  0
   46.6780   34.9280   42.2140 C   0  0  0  0  0  0  0  0  0  0  0  0
   46.4720   34.4370   41.1290 O   0  0  0  0  0  0  0  0  0  0  0  0
   46.0650   34.7560   43.5160 C   0  0  0  0  0  0  0  0  0  0  0  0
   45.0970   35.7000   43.7480 C   0  0  0  0  0  0  0  0  0  0  0  0
   44.5110   35.5840   45.0240 C   0  0  0  0  0  0  0  0  0  0  0  0
   44.9110   34.6180   45.8740 N   0  0  0  0  0  0  0  0  0  0  0  0
   45.8840   33.7280   45.5440 C   0  0  0  0  0  0  0  0  0  0  0  0
   46.4530   33.8160   44.3430 N   0  0  0  0  0  0  0  0  0  0  0  0
   46.2870   32.6810   46.5210 C   0  0  0  0  0  0  0  0  0  0  0  0
   46.2070   31.2930   45.9180 C   0  0  0  0  0  0  0  0  0  0  0  0
   45.3490   32.6720   47.7280 C   0  0  0  0  0  0  0  0  0  0  0  0
   49.0278   35.2163   40.5811 H   0  0  0  0  0  0  0  0  0  0  0  0
   49.5447   36.5109   41.7560 H   0  0  0  0  0  0  0  0  0  0  0  0
   50.5927   34.9736   42.8897 H   0  0  0  0  0  0  0  0  0  0  0  0
   48.9469   34.2732   43.2788 H   0  0  0  0  0  0  0  0  0  0  0  0
   52.2808   31.0416   41.2943 H   0  0  0  0  0  0  0  0  0  0  0  0
   49.9764   30.5601   39.9805 H   0  0  0  0  0  0  0  0  0  0  0  0
   48.3725   32.5794   40.6128 H   0  0  0  0  0  0  0  0  0  0  0  0
   44.8085   36.4673   43.0145 H   0  0  0  0  0  0  0  0  0  0  0  0
   43.7215   36.2869   45.3284 H   0  0  0  0  0  0  0  0  0  0  0  0
   47.3199   32.9213   46.8131 H   0  0  0  0  0  0  0  0  0  0  0  0
   46.1639   30.5452   46.7236 H   0  0  0  0  0  0  0  0  0  0  0  0
   45.3029   31.2148   45.2964 H   0  0  0  0  0  0  0  0  0  0  0  0
   47.0962   31.1115   45.2964 H   0  0  0  0  0  0  0  0  0  0  0  0
   45.9428   32.6777   48.6539 H   0  0  0  0  0  0  0  0  0  0  0  0
   44.7060   33.5640   47.6993 H   0  0  0  0  0  0  0  0  0  0  0  0
   44.7232   31.7678   47.6993 H   0  0  0  0  0  0  0  0  0  0  0  0
  1  8  1  0
  1  2  1  0
  3  4  1  0
  3  2  1  0
  5  4  2  0
  6  7  2  0
  6  5  1  0
  7  3  1  0
  8  9  1  0
  9 11  1  0
 10  9  2  0
 11 12  2  0
 11 16  1  0
 12 13  1  0
 13 14  2  0
 15 14  1  0
 15 17  1  0
 16 15  2  0
 17 19  1  0
 18 17  1  0
  1 20  1  0
  1 21  1  0
  2 22  1  0
  2 23  1  0
  5 24  1  0
  6 25  1  0
  7 26  1  0
 12 27  1  0
 13 28  1  0
 17 29  1  0
 18 30  1  0
 18 31  1  0
 18 32  1  0
 19 33  1  0
 19 34  1  0
 19 35  1  0
M  ISO  8  20   8  21   8  22   8  23   8  24  14  25  14  26  14  27  14
M  ISO  8  28  14  29   8  30   8  31   8  32   8  33   8  34   8  35   8
M  END
>  <minimizedAffinity>  (1) 
-4.82566452

>  <minimizedRMSD>  (1) 
0.659901679

$$$$
