
     RDKit          3D

 33 35  0  0  0  0  0  0  0  0999 V2000
   49.1100   35.5560   41.6940 C   0  0  0  0  0  0  0  0  0  0  0  0
   49.6660   34.4410   42.5200 C   0  0  0  0  0  0  0  0  0  0  0  0
   50.0270   33.2680   41.7550 N   0  0  0  0  0  0  0  0  0  0  0  0
   51.2430   32.7470   41.9420 N   0  0  0  0  0  0  0  0  0  0  0  0
   51.4330   31.6630   41.2070 C   0  0  0  0  0  0  0  0  0  0  0  0
   50.2790   31.4400   40.4820 C   0  0  0  0  0  0  0  0  0  0  0  0
   49.4710   32.4650   40.8740 C   0  0  0  0  0  0  0  0  0  0  0  0
   47.8130   35.7880   41.9330 O   0  0  0  0  0  0  0  0  0  0  0  0
   46.7540   34.9440   42.1380 C   0  0  0  0  0  0  0  0  0  0  0  0
   46.5790   34.4690   41.0380 O   0  0  0  0  0  0  0  0  0  0  0  0
   46.0910   34.7580   43.4130 C   0  0  0  0  0  0  0  0  0  0  0  0
   45.2290   35.8000   43.6870 C   0  0  0  0  0  0  0  0  0  0  0  0
   44.5890   35.6750   44.9340 C   0  0  0  0  0  0  0  0  0  0  0  0
   44.8540   34.6090   45.7150 N   0  0  0  0  0  0  0  0  0  0  0  0
   45.7200   33.6320   45.3580 C   0  0  0  0  0  0  0  0  0  0  0  0
   46.3420   33.7210   44.1830 N   0  0  0  0  0  0  0  0  0  0  0  0
   45.9960   32.4650   46.2380 C   0  0  0  0  0  0  0  0  0  0  0  0
   45.5870   32.5250   47.6890 C   0  0  0  0  0  0  0  0  0  0  0  0
   47.0400   32.6620   47.3490 C   0  0  0  0  0  0  0  0  0  0  0  0
   49.2300   35.2985   40.6313 H   0  0  0  0  0  0  0  0  0  0  0  0
   49.6621   36.4695   41.9601 H   0  0  0  0  0  0  0  0  0  0  0  0
   50.5653   34.8078   43.0365 H   0  0  0  0  0  0  0  0  0  0  0  0
   48.8729   34.1350   43.2182 H   0  0  0  0  0  0  0  0  0  0  0  0
   52.3459   31.0499   41.1787 H   0  0  0  0  0  0  0  0  0  0  0  0
   50.0648   30.6338   39.7649 H   0  0  0  0  0  0  0  0  0  0  0  0
   48.4501   32.6074   40.4899 H   0  0  0  0  0  0  0  0  0  0  0  0
   45.0594   36.6426   43.0006 H   0  0  0  0  0  0  0  0  0  0  0  0
   43.8765   36.4430   45.2695 H   0  0  0  0  0  0  0  0  0  0  0  0
   45.8291   31.7506   45.4184 H   0  0  0  0  0  0  0  0  0  0  0  0
   45.0295   33.3962   48.0634 H   0  0  0  0  0  0  0  0  0  0  0  0
   45.0118   31.8638   48.3538 H   0  0  0  0  0  0  0  0  0  0  0  0
   47.7424   31.8520   47.5952 H   0  0  0  0  0  0  0  0  0  0  0  0
   47.8241   33.4040   47.5602 H   0  0  0  0  0  0  0  0  0  0  0  0
  1  8  1  0
  1  2  1  0
  3  4  1  0
  3  2  1  0
  5  4  2  0
  6  7  2  0
  6  5  1  0
  7  3  1  0
  8  9  1  0
  9 11  1  0
 10  9  2  0
 11 12  2  0
 11 16  1  0
 12 13  1  0
 13 14  2  0
 15 14  1  0
 15 17  1  0
 16 15  2  0
 17 19  1  0
 17 18  1  0
 19 18  1  0
  1 20  1  0
  1 21  1  0
  2 22  1  0
  2 23  1  0
  5 24  1  0
  6 25  1  0
  7 26  1  0
 12 27  1  0
 13 28  1  0
 17 29  1  0
 18 30  1  0
 18 31  1  0
 19 32  1  0
 19 33  1  0
M  ISO  8  20   8  21   8  22   8  23   8  24  14  25  14  26  14  27  14
M  ISO  6  28  14  29  13  30  13  31  13  32  13  33  13
M  END
>  <minimizedAffinity>  (1) 
-4.82492733

>  <minimizedRMSD>  (1) 
0.577084482

$$$$
