
     RDKit          3D

 38 39  0  0  0  0  0  0  0  0999 V2000
   47.2670   35.5110   42.2000 O   0  0  0  0  0  0  0  0  0  0  0  0
   48.5020   35.4540   41.6930 C   0  0  0  0  0  0  0  0  0  0  0  0
   49.4260   34.5970   42.4980 C   0  0  0  0  0  0  0  0  0  0  0  0
   49.8880   33.4150   41.7990 N   0  0  0  0  0  0  0  0  0  0  0  0
   51.1130   32.9620   42.0900 N   0  0  0  0  0  0  0  0  0  0  0  0
   51.3940   31.8620   41.3920 C   0  0  0  0  0  0  0  0  0  0  0  0
   50.2990   31.5720   40.5980 C   0  0  0  0  0  0  0  0  0  0  0  0
   49.4230   32.5680   40.9060 C   0  0  0  0  0  0  0  0  0  0  0  0
   46.3970   34.5250   42.6080 C   0  0  0  0  0  0  0  0  0  0  0  0
   46.2440   33.8780   41.5970 O   0  0  0  0  0  0  0  0  0  0  0  0
   45.8690   34.4040   43.9520 C   0  0  0  0  0  0  0  0  0  0  0  0
   45.0340   35.4500   44.2530 C   0  0  0  0  0  0  0  0  0  0  0  0
   44.5280   35.3940   45.5660 C   0  0  0  0  0  0  0  0  0  0  0  0
   44.8790   34.3780   46.3770 N   0  0  0  0  0  0  0  0  0  0  0  0
   45.7180   33.3820   45.9830 C   0  0  0  0  0  0  0  0  0  0  0  0
   46.2060   33.4180   44.7450 N   0  0  0  0  0  0  0  0  0  0  0  0
   46.1050   32.2600   46.8800 C   0  0  0  0  0  0  0  0  0  0  0  0
   46.0480   30.9450   46.1460 C   0  0  0  0  0  0  0  0  0  0  0  0
   47.4190   32.4940   47.5850 C   0  0  0  0  0  0  0  0  0  0  0  0
   45.0400   32.1910   47.9830 C   0  0  0  0  0  0  0  0  0  0  0  0
   48.4437   35.0449   40.6736 H   0  0  0  0  0  0  0  0  0  0  0  0
   48.9090   36.4759   41.7032 H   0  0  0  0  0  0  0  0  0  0  0  0
   50.3030   35.1997   42.7766 H   0  0  0  0  0  0  0  0  0  0  0  0
   48.8578   34.2490   43.3732 H   0  0  0  0  0  0  0  0  0  0  0  0
   52.3304   31.2868   41.4389 H   0  0  0  0  0  0  0  0  0  0  0  0
   50.1679   30.7400   39.8905 H   0  0  0  0  0  0  0  0  0  0  0  0
   48.4246   32.6558   40.4527 H   0  0  0  0  0  0  0  0  0  0  0  0
   44.7851   36.2509   43.5412 H   0  0  0  0  0  0  0  0  0  0  0  0
   43.8475   36.1786   45.9283 H   0  0  0  0  0  0  0  0  0  0  0  0
   46.0123   30.1204   46.8732 H   0  0  0  0  0  0  0  0  0  0  0  0
   45.1478   30.9163   45.5145 H   0  0  0  0  0  0  0  0  0  0  0  0
   46.9424   30.8385   45.5145 H   0  0  0  0  0  0  0  0  0  0  0  0
   47.2613   32.4659   48.6733 H   0  0  0  0  0  0  0  0  0  0  0  0
   48.1341   31.7091   47.2977 H   0  0  0  0  0  0  0  0  0  0  0  0
   47.8192   33.4775   47.2977 H   0  0  0  0  0  0  0  0  0  0  0  0
   45.5293   32.2227   48.9677 H   0  0  0  0  0  0  0  0  0  0  0  0
   44.3556   33.0467   47.8859 H   0  0  0  0  0  0  0  0  0  0  0  0
   44.4718   31.2542   47.8859 H   0  0  0  0  0  0  0  0  0  0  0  0
  1  9  1  0
  2  1  1  0
  2  3  1  0
  4  5  1  0
  4  3  1  0
  6  5  2  0
  7  8  2  0
  7  6  1  0
  8  4  1  0
  9 11  1  0
 10  9  2  0
 11 12  2  0
 11 16  1  0
 12 13  1  0
 13 14  2  0
 15 14  1  0
 15 17  1  0
 16 15  2  0
 17 19  1  0
 17 20  1  0
 18 17  1  0
  2 21  1  0
  2 22  1  0
  3 23  1  0
  3 24  1  0
  6 25  1  0
  7 26  1  0
  8 27  1  0
 12 28  1  0
 13 29  1  0
 18 30  1  0
 18 31  1  0
 18 32  1  0
 19 33  1  0
 19 34  1  0
 19 35  1  0
 20 36  1  0
 20 37  1  0
 20 38  1  0
M  ISO  8  21   8  22   8  23   8  24   8  25  14  26  14  27  14  28  14
M  ISO  8  29  14  30   8  31   8  32   8  33   8  34   8  35   8  36   8
M  ISO  2  37   8  38   8
M  END
>  <minimizedAffinity>  (1) 
-4.75347567

>  <minimizedRMSD>  (1) 
0.985444903

$$$$
