
     RDKit          3D

 27 28  0  0  0  0  0  0  0  0999 V2000
   49.2070   35.1050   42.2730 C   0  0  0  0  0  0  0  0  0  0  0  0
   49.3760   33.6680   42.6560 C   0  0  0  0  0  0  0  0  0  0  0  0
   49.9210   32.8410   41.6030 N   0  0  0  0  0  0  0  0  0  0  0  0
   51.1980   32.4670   41.6880 N   0  0  0  0  0  0  0  0  0  0  0  0
   51.5540   31.6980   40.6730 C   0  0  0  0  0  0  0  0  0  0  0  0
   50.4510   31.5490   39.8570 C   0  0  0  0  0  0  0  0  0  0  0  0
   49.4930   32.2790   40.4950 C   0  0  0  0  0  0  0  0  0  0  0  0
   48.0190   35.3610   41.7190 O   0  0  0  0  0  0  0  0  0  0  0  0
   46.7770   34.8050   41.9220 C   0  0  0  0  0  0  0  0  0  0  0  0
   46.5500   34.2750   40.8590 O   0  0  0  0  0  0  0  0  0  0  0  0
   46.0260   34.9060   43.1590 C   0  0  0  0  0  0  0  0  0  0  0  0
   45.3190   36.0800   43.2210 C   0  0  0  0  0  0  0  0  0  0  0  0
   44.6050   36.2350   44.4210 C   0  0  0  0  0  0  0  0  0  0  0  0
   44.6660   35.2730   45.3650 N   0  0  0  0  0  0  0  0  0  0  0  0
   45.3980   34.1400   45.2100 C   0  0  0  0  0  0  0  0  0  0  0  0
   46.0800   33.9760   44.0800 N   0  0  0  0  0  0  0  0  0  0  0  0
   45.3830   33.2200   46.2540 O   0  0  0  0  0  0  0  0  0  0  0  0
   49.3130   35.7234   43.1765 H   0  0  0  0  0  0  0  0  0  0  0  0
   49.9771   35.3385   41.5230 H   0  0  0  0  0  0  0  0  0  0  0  0
   50.0531   33.6176   43.5214 H   0  0  0  0  0  0  0  0  0  0  0  0
   48.3726   33.2777   42.8814 H   0  0  0  0  0  0  0  0  0  0  0  0
   52.5484   31.2572   40.5089 H   0  0  0  0  0  0  0  0  0  0  0  0
   50.3658   30.9796   38.9197 H   0  0  0  0  0  0  0  0  0  0  0  0
   48.4646   32.3869   40.1199 H   0  0  0  0  0  0  0  0  0  0  0  0
   45.3118   36.8254   42.4121 H   0  0  0  0  0  0  0  0  0  0  0  0
   43.9987   37.1371   44.5902 H   0  0  0  0  0  0  0  0  0  0  0  0
   45.9031   32.3807   46.1817 H   0  0  0  0  0  0  0  0  0  0  0  0
  1  2  1  0
  3  4  1  0
  3  2  1  0
  5  4  2  0
  6  7  2  0
  6  5  1  0
  7  3  1  0
  8  9  1  0
  8  1  1  0
  9 11  1  0
 10  9  2  0
 11 12  2  0
 11 16  1  0
 12 13  1  0
 13 14  2  0
 15 14  1  0
 15 17  1  0
 16 15  2  0
  1 18  1  0
  1 19  1  0
  2 20  1  0
  2 21  1  0
  5 22  1  0
  6 23  1  0
  7 24  1  0
 12 25  1  0
 13 26  1  0
 17 27  1  0
M  ISO  8  18   8  19   8  20   8  21   8  22  14  23  14  24  14  25  14
M  ISO  2  26  14  27   3
M  END
>  <minimizedAffinity>  (1) 
-4.60839987

>  <minimizedRMSD>  (1) 
0.120317638

$$$$
