
     RDKit          3D

 27 28  0  0  0  0  0  0  0  0999 V2000
   49.4350   35.1740   42.1750 C   0  0  0  0  0  0  0  0  0  0  0  0
   49.5560   33.7460   42.6020 C   0  0  0  0  0  0  0  0  0  0  0  0
   50.0310   32.8630   41.5580 N   0  0  0  0  0  0  0  0  0  0  0  0
   51.2950   32.4310   41.6250 N   0  0  0  0  0  0  0  0  0  0  0  0
   51.5910   31.6160   40.6260 C   0  0  0  0  0  0  0  0  0  0  0  0
   50.4640   31.4920   39.8400 C   0  0  0  0  0  0  0  0  0  0  0  0
   49.5570   32.2840   40.4770 C   0  0  0  0  0  0  0  0  0  0  0  0
   48.2010   35.5030   41.7780 O   0  0  0  0  0  0  0  0  0  0  0  0
   46.9900   34.8760   41.9310 C   0  0  0  0  0  0  0  0  0  0  0  0
   46.7940   34.4160   40.8290 O   0  0  0  0  0  0  0  0  0  0  0  0
   46.2320   34.8490   43.1650 C   0  0  0  0  0  0  0  0  0  0  0  0
   45.3160   35.8830   43.2130 C   0  0  0  0  0  0  0  0  0  0  0  0
   44.5870   35.9050   44.4150 C   0  0  0  0  0  0  0  0  0  0  0  0
   44.8200   34.9800   45.3660 N   0  0  0  0  0  0  0  0  0  0  0  0
   45.7440   34.0030   45.2210 C   0  0  0  0  0  0  0  0  0  0  0  0
   46.4550   33.9470   44.0960 N   0  0  0  0  0  0  0  0  0  0  0  0
   45.9370   32.8500   46.5710 S   0  0  0  0  0  0  0  0  0  0  0  0
   49.7123   35.8171   43.0232 H   0  0  0  0  0  0  0  0  0  0  0  0
   50.1038   35.3150   41.3132 H   0  0  0  0  0  0  0  0  0  0  0  0
   50.2592   33.6947   43.4463 H   0  0  0  0  0  0  0  0  0  0  0  0
   48.5460   33.4061   42.8746 H   0  0  0  0  0  0  0  0  0  0  0  0
   52.5604   31.1258   40.4532 H   0  0  0  0  0  0  0  0  0  0  0  0
   50.3305   30.8988   38.9233 H   0  0  0  0  0  0  0  0  0  0  0  0
   48.5260   32.4256   40.1208 H   0  0  0  0  0  0  0  0  0  0  0  0
   45.1730   36.6095   42.3995 H   0  0  0  0  0  0  0  0  0  0  0  0
   43.8239   36.6801   44.5793 H   0  0  0  0  0  0  0  0  0  0  0  0
   45.8252   33.5182   47.7618 H   0  0  0  0  0  0  0  0  0  0  0  0
  1  2  1  0
  3  4  1  0
  3  2  1  0
  5  4  2  0
  6  7  2  0
  6  5  1  0
  7  3  1  0
  8  9  1  0
  8  1  1  0
  9 11  1  0
 10  9  2  0
 11 12  2  0
 11 16  1  0
 12 13  1  0
 13 14  2  0
 15 14  1  0
 15 17  1  0
 16 15  2  0
  1 18  1  0
  1 19  1  0
  2 20  1  0
  2 21  1  0
  5 22  1  0
  6 23  1  0
  7 24  1  0
 12 25  1  0
 13 26  1  0
 17 27  1  0
M  ISO  8  18   8  19   8  20   8  21   8  22  14  23  14  24  14  25  14
M  ISO  2  26  14  27  11
M  END
>  <minimizedAffinity>  (1) 
-4.58172703

>  <minimizedRMSD>  (1) 
0.158173501

$$$$
