
     RDKit          3D

 36 38  0  0  1  0  0  0  0  0999 V2000
   47.8890   34.4880   41.1770 C   0  0  2  0  0  0  0  0  0  0  0  0
   48.6750   35.6280   41.5560 C   0  0  0  0  0  0  0  0  0  0  0  0
   49.9010   35.1140   42.3230 C   0  0  0  0  0  0  0  0  0  0  0  0
   49.8380   33.5970   42.3110 C   0  0  0  0  0  0  0  0  0  0  0  0
   48.3950   33.3480   42.1010 C   0  0  1  0  0  0  0  0  0  0  0  0
   47.9950   33.9420   39.8010 C   0  0  0  0  0  0  0  0  0  0  0  0
   48.4730   34.7730   38.7900 C   0  0  0  0  0  0  0  0  0  0  0  0
   48.5820   34.2850   37.4970 C   0  0  0  0  0  0  0  0  0  0  0  0
   48.2010   32.9900   37.3020 N   0  0  0  0  0  0  0  0  0  0  0  0
   47.7420   32.2100   38.2990 C   0  0  0  0  0  0  0  0  0  0  0  0
   47.6340   32.6760   39.5570 N   0  0  0  0  0  0  0  0  0  0  0  0
   47.6690   33.3990   43.4090 C   0  0  0  0  0  0  0  0  0  0  0  0
   46.1970   33.1910   43.1860 C   0  0  0  0  0  0  0  0  0  0  0  0
   45.5170   34.3280   43.9410 C   0  0  0  0  0  0  0  0  0  0  0  0
   45.2620   35.6280   43.5430 C   0  0  0  0  0  0  0  0  0  0  0  0
   44.6320   36.2340   44.5890 N   0  0  0  0  0  0  0  0  0  0  0  0
   44.5030   35.3570   45.5780 C   0  0  0  0  0  0  0  0  0  0  0  0
   45.0310   34.1980   45.2100 N   0  0  0  0  0  0  0  0  0  0  0  0
   46.8457   34.8283   41.2519 H   0  0  0  0  0  0  0  0  0  0  0  0
   48.9972   36.1763   40.6585 H   0  0  0  0  0  0  0  0  0  0  0  0
   48.0853   36.3113   42.1848 H   0  0  0  0  0  0  0  0  0  0  0  0
   50.8234   35.4563   41.8311 H   0  0  0  0  0  0  0  0  0  0  0  0
   49.9029   35.4955   43.3547 H   0  0  0  0  0  0  0  0  0  0  0  0
   50.4389   33.1790   41.4899 H   0  0  0  0  0  0  0  0  0  0  0  0
   50.2394   33.1303   43.2226 H   0  0  0  0  0  0  0  0  0  0  0  0
   48.2211   32.3571   41.6562 H   0  0  0  0  0  0  0  0  0  0  0  0
   48.7621   35.8099   39.0164 H   0  0  0  0  0  0  0  0  0  0  0  0
   48.9560   34.9092   36.6720 H   0  0  0  0  0  0  0  0  0  0  0  0
   47.4497   31.1722   38.0811 H   0  0  0  0  0  0  0  0  0  0  0  0
   48.0530   32.6082   44.0703 H   0  0  0  0  0  0  0  0  0  0  0  0
   47.8292   34.3830   43.8738 H   0  0  0  0  0  0  0  0  0  0  0  0
   45.9578   33.2420   42.1135 H   0  0  0  0  0  0  0  0  0  0  0  0
   45.8620   32.2040   43.5377 H   0  0  0  0  0  0  0  0  0  0  0  0
   45.5171   36.0827   42.5744 H   0  0  0  0  0  0  0  0  0  0  0  0
   44.0316   35.5606   46.5508 H   0  0  0  0  0  0  0  0  0  0  0  0
   45.0682   33.3439   45.7844 H   0  0  0  0  0  0  0  0  0  0  0  0
  1  2  1  0
  1  5  1  0
  2  3  1  0
  4  3  1  0
  5  4  1  0
  5 12  1  0
  6  1  1  0
  7  6  2  0
  8  7  1  0
  9  8  2  0
  9 10  1  0
 10 11  2  0
 11  6  1  0
 13 12  1  0
 13 14  1  0
 14 18  1  0
 15 14  2  0
 15 16  1  0
 16 17  2  0
 18 17  1  0
  1 19  1  1
  2 20  1  0
  2 21  1  0
  3 22  1  0
  3 23  1  0
  4 24  1  0
  4 25  1  0
  5 26  1  6
  7 27  1  0
  8 28  1  0
 10 29  1  0
 12 30  1  0
 12 31  1  0
 13 32  1  0
 13 33  1  0
 15 34  1  0
 17 35  1  0
 18 36  1  0
M  ISO  8  19  13  20  13  21  13  22  13  23  13  24  13  25  13  26  13
M  ISO  8  27  14  28  14  29  14  30   8  31   8  32   8  33   8  34  14
M  ISO  2  35  14  36   9
M  END
>  <minimizedAffinity>  (1) 
-5.218328

>  <minimizedRMSD>  (1) 
1.33169425

$$$$
