
     RDKit          3D

 35 36  0  0  0  0  0  0  0  0999 V2000
   46.1330   34.4610   43.6700 C   0  0  0  0  0  0  0  0  0  0  0  0
   45.9270   35.6510   43.0340 C   0  0  0  0  0  0  0  0  0  0  0  0
   45.1000   36.5320   43.7290 C   0  0  0  0  0  0  0  0  0  0  0  0
   44.5990   36.1310   44.9290 N   0  0  0  0  0  0  0  0  0  0  0  0
   44.8550   34.9300   45.4850 C   0  0  0  0  0  0  0  0  0  0  0  0
   45.6400   34.1060   44.8180 N   0  0  0  0  0  0  0  0  0  0  0  0
   44.2670   34.6420   46.7480 N   0  0  0  0  0  0  0  0  0  0  0  0
   44.7480   37.8280   43.2730 N   0  0  0  0  0  0  0  0  0  0  0  0
   45.2720   39.0300   43.8170 C   0  0  0  0  0  0  0  0  0  0  0  0
   45.2990   39.0720   45.1280 N   0  0  0  0  0  0  0  0  0  0  0  0
   45.7110   40.0660   42.9160 N   0  0  0  0  0  0  0  0  0  0  0  0
   45.6870   39.9600   45.5090 H   0  0  0  0  0  0  0  0  0  0  0  0
   47.0230   33.5970   42.9070 C   0  0  0  0  0  0  0  0  0  0  0  0
   47.1570   32.4220   42.7630 O   0  0  0  0  0  0  0  0  0  0  0  0
   48.0180   34.0810   42.0930 O   0  0  0  0  0  0  0  0  0  0  0  0
   49.2820   34.4240   42.3010 C   0  0  0  0  0  0  0  0  0  0  0  0
   50.1750   33.2520   42.5190 C   0  0  0  0  0  0  0  0  0  0  0  0
   50.4240   32.4930   41.3030 N   0  0  0  0  0  0  0  0  0  0  0  0
   51.6490   32.0310   41.0630 N   0  0  0  0  0  0  0  0  0  0  0  0
   51.7120   31.3600   39.9370 C   0  0  0  0  0  0  0  0  0  0  0  0
   50.4450   31.3660   39.3730 C   0  0  0  0  0  0  0  0  0  0  0  0
   49.7210   32.0850   40.2820 C   0  0  0  0  0  0  0  0  0  0  0  0
   46.3743   35.8935   42.0587 H   0  0  0  0  0  0  0  0  0  0  0  0
   44.4411   33.7341   47.2021 H   0  0  0  0  0  0  0  0  0  0  0  0
   43.6672   35.3414   47.2083 H   0  0  0  0  0  0  0  0  0  0  0  0
   44.0711   37.9016   42.5002 H   0  0  0  0  0  0  0  0  0  0  0  0
   46.0943   40.9457   43.2903 H   0  0  0  0  0  0  0  0  0  0  0  0
   45.6414   39.9266   41.8979 H   0  0  0  0  0  0  0  0  0  0  0  0
   49.6428   34.9812   41.4239 H   0  0  0  0  0  0  0  0  0  0  0  0
   49.3110   35.0342   43.2157 H   0  0  0  0  0  0  0  0  0  0  0  0
   51.1377   33.6128   42.9103 H   0  0  0  0  0  0  0  0  0  0  0  0
   49.6692   32.5804   43.2283 H   0  0  0  0  0  0  0  0  0  0  0  0
   52.6078   30.8796   39.5165 H   0  0  0  0  0  0  0  0  0  0  0  0
   50.1079   30.9077   38.4316 H   0  0  0  0  0  0  0  0  0  0  0  0
   48.6485   32.2993   40.1644 H   0  0  0  0  0  0  0  0  0  0  0  0
  1  6  1  0
  2  1  2  0
  2  3  1  0
  3  4  2  0
  4  5  1  0
  5  7  1  0
  6  5  2  0
  8  3  1  0
  8  9  1  0
  9 10  2  0
 10 12  1  0
 11  9  1  0
 13  1  1  0
 14 13  2  0
 15 16  1  0
 15 13  1  0
 16 17  1  0
 18 17  1  0
 19 18  1  0
 20 19  2  0
 21 20  1  0
 21 22  2  0
 22 18  1  0
  2 23  1  0
  7 24  1  0
  7 25  1  0
  8 26  1  0
 11 27  1  0
 11 28  1  0
 16 29  1  0
 16 30  1  0
 17 31  1  0
 17 32  1  0
 20 33  1  0
 21 34  1  0
 22 35  1  0
M  ISO  8  23  14  29   8  30   8  31   8  32   8  33  14  34  14  35  14
M  END
>  <minimizedAffinity>  (1) 
-5.49979639

>  <minimizedRMSD>  (1) 
1.47669303

$$$$
