
     RDKit          3D

 29 30  0  0  0  0  0  0  0  0999 V2000
   48.1610   35.3490   41.5610 O   0  0  0  0  0  0  0  0  0  0  0  0
   49.3640   35.1510   42.0790 C   0  0  0  0  0  0  0  0  0  0  0  0
   49.5650   33.7620   42.5730 C   0  0  0  0  0  0  0  0  0  0  0  0
   50.0720   32.8600   41.5540 N   0  0  0  0  0  0  0  0  0  0  0  0
   51.3280   32.4380   41.6190 N   0  0  0  0  0  0  0  0  0  0  0  0
   51.6320   31.6190   40.6420 C   0  0  0  0  0  0  0  0  0  0  0  0
   50.5020   31.4750   39.8570 C   0  0  0  0  0  0  0  0  0  0  0  0
   49.5960   32.2720   40.4930 C   0  0  0  0  0  0  0  0  0  0  0  0
   46.9550   34.7060   41.6980 C   0  0  0  0  0  0  0  0  0  0  0  0
   46.7630   34.3180   40.5890 O   0  0  0  0  0  0  0  0  0  0  0  0
   46.2370   34.6270   42.9630 C   0  0  0  0  0  0  0  0  0  0  0  0
   45.5360   35.7770   43.1940 C   0  0  0  0  0  0  0  0  0  0  0  0
   44.8540   35.7320   44.4280 C   0  0  0  0  0  0  0  0  0  0  0  0
   44.9410   34.6470   45.2240 N   0  0  0  0  0  0  0  0  0  0  0  0
   45.6730   33.5580   44.8860 C   0  0  0  0  0  0  0  0  0  0  0  0
   46.3180   33.5770   43.7380 N   0  0  0  0  0  0  0  0  0  0  0  0
   45.6970   32.4720   45.8020 N   0  0  0  0  0  0  0  0  0  0  0  0
   44.0730   36.7800   44.8900 O   0  0  0  0  0  0  0  0  0  0  0  0
   50.1172   35.3598   41.3050 H   0  0  0  0  0  0  0  0  0  0  0  0
   49.4641   35.8243   42.9431 H   0  0  0  0  0  0  0  0  0  0  0  0
   50.2832   33.7877   43.4058 H   0  0  0  0  0  0  0  0  0  0  0  0
   48.5818   33.3812   42.8867 H   0  0  0  0  0  0  0  0  0  0  0  0
   52.6060   31.1353   40.4767 H   0  0  0  0  0  0  0  0  0  0  0  0
   50.3679   30.8698   38.9483 H   0  0  0  0  0  0  0  0  0  0  0  0
   48.5616   32.4057   40.1434 H   0  0  0  0  0  0  0  0  0  0  0  0
   45.5071   36.6323   42.5029 H   0  0  0  0  0  0  0  0  0  0  0  0
   46.2414   31.6255   45.5830 H   0  0  0  0  0  0  0  0  0  0  0  0
   45.1700   32.5313   46.6850 H   0  0  0  0  0  0  0  0  0  0  0  0
   43.6115   36.7061   45.7627 H   0  0  0  0  0  0  0  0  0  0  0  0
  1  9  1  0
  1  2  1  0
  2  3  1  0
  4  5  1  0
  4  3  1  0
  6  5  2  0
  7  8  2  0
  7  6  1  0
  8  4  1  0
  9 11  1  0
 10  9  2  0
 11 12  2  0
 11 16  1  0
 12 13  1  0
 13 18  1  0
 13 14  2  0
 15 14  1  0
 15 17  1  0
 16 15  2  0
  2 19  1  0
  2 20  1  0
  3 21  1  0
  3 22  1  0
  6 23  1  0
  7 24  1  0
  8 25  1  0
 12 26  1  0
 17 27  1  0
 17 28  1  0
 18 29  1  0
M  ISO  8  19   8  20   8  21   8  22   8  23  14  24  14  25  14  26  14
M  ISO  1  29   3
M  END
>  <minimizedAffinity>  (1) 
-4.41372538

>  <minimizedRMSD>  (1) 
0.424865425

$$$$
