
     RDKit          3D

 24 26  0  0  0  0  0  0  0  0999 V2000
   44.8240   35.1100   45.6610 C   0  0  0  0  0  0  0  0  0  0  0  0
   44.3560   35.4690   44.3940 C   0  0  0  0  0  0  0  0  0  0  0  0
   44.7030   34.6240   43.3190 C   0  0  0  0  0  0  0  0  0  0  0  0
   45.4590   33.5230   43.5650 N   0  0  0  0  0  0  0  0  0  0  0  0
   45.8980   33.2070   44.8210 C   0  0  0  0  0  0  0  0  0  0  0  0
   45.5730   34.0010   45.8350 N   0  0  0  0  0  0  0  0  0  0  0  0
   46.6930   32.0620   45.0920 N   0  0  0  0  0  0  0  0  0  0  0  0
   47.4090   31.5790   44.0370 C   0  0  0  0  0  0  0  0  0  0  0  0
   48.1010   30.4790   44.5250 C   0  0  0  0  0  0  0  0  0  0  0  0
   47.8050   30.3220   45.8100 N   0  0  0  0  0  0  0  0  0  0  0  0
   46.9380   31.2920   46.1700 C   0  0  0  0  0  0  0  0  0  0  0  0
   46.3220   31.5420   47.4550 C   0  0  0  0  0  0  0  0  0  0  0  0
   45.1780   30.8710   47.8480 C   0  0  0  0  0  0  0  0  0  0  0  0
   44.7510   31.2520   49.1030 C   0  0  0  0  0  0  0  0  0  0  0  0
   45.6480   32.1580   49.4690 N   0  0  0  0  0  0  0  0  0  0  0  0
   46.5490   32.3220   48.5190 N   0  0  0  0  0  0  0  0  0  0  0  0
   44.5784   35.7402   46.5285 H   0  0  0  0  0  0  0  0  0  0  0  0
   43.7442   36.3704   44.2418 H   0  0  0  0  0  0  0  0  0  0  0  0
   44.3664   34.8534   42.2972 H   0  0  0  0  0  0  0  0  0  0  0  0
   47.4333   31.9780   43.0122 H   0  0  0  0  0  0  0  0  0  0  0  0
   48.7828   29.8418   43.9427 H   0  0  0  0  0  0  0  0  0  0  0  0
   44.6666   30.1186   47.2296 H   0  0  0  0  0  0  0  0  0  0  0  0
   43.8769   30.8913   49.6651 H   0  0  0  0  0  0  0  0  0  0  0  0
   45.6421   32.6620   50.3673 H   0  0  0  0  0  0  0  0  0  0  0  0
  1  6  2  0
  2  1  1  0
  3  4  1  0
  3  2  2  0
  4  5  2  0
  5  7  1  0
  5  6  1  0
  7 11  1  0
  8  9  2  0
  8  7  1  0
  9 10  1  0
 10 11  2  0
 11 12  1  0
 12 13  1  0
 12 16  2  0
 13 14  2  0
 14 15  1  0
 16 15  1  0
  1 17  1  0
  2 18  1  0
  3 19  1  0
  8 20  1  0
  9 21  1  0
 13 22  1  0
 14 23  1  0
 15 24  1  0
M  ISO  8  17  14  18  14  19  14  20  14  21  14  22  14  23  14  24   9
M  END
>  <minimizedAffinity>  (1) 
-4.74831533

>  <minimizedRMSD>  (1) 
2.85151815

$$$$
