
     RDKit          3D

 43 46  0  0  0  0  0  0  0  0999 V2000
   46.3400   33.9260   43.8420 C   0  0  0  0  0  0  0  0  0  0  0  0
   47.1120   32.9690   44.4310 C   0  0  0  0  0  0  0  0  0  0  0  0
   46.8110   32.8200   45.7890 C   0  0  0  0  0  0  0  0  0  0  0  0
   45.8480   33.5810   46.3660 N   0  0  0  0  0  0  0  0  0  0  0  0
   45.1450   34.5060   45.6750 C   0  0  0  0  0  0  0  0  0  0  0  0
   45.4280   34.6420   44.4100 N   0  0  0  0  0  0  0  0  0  0  0  0
   44.1480   35.2400   46.3590 N   0  0  0  0  0  0  0  0  0  0  0  0
   46.6690   34.0230   42.4200 C   0  0  0  0  0  0  0  0  0  0  0  0
   47.0620   34.8470   41.6880 O   0  0  0  0  0  0  0  0  0  0  0  0
   46.5460   32.9670   41.5650 O   0  0  0  0  0  0  0  0  0  0  0  0
   45.7860   32.6990   40.5350 C   0  0  0  0  0  0  0  0  0  0  0  0
   44.3780   32.4300   40.8590 C   0  0  0  0  0  0  0  0  0  0  0  0
   43.5460   33.6350   40.7630 N   0  0  0  0  0  0  0  0  0  0  0  0
   43.1070   34.0420   39.5870 N   0  0  0  0  0  0  0  0  0  0  0  0
   42.3750   35.1140   39.6550 C   0  0  0  0  0  0  0  0  0  0  0  0
   42.3100   35.4700   41.0010 C   0  0  0  0  0  0  0  0  0  0  0  0
   43.0620   34.4970   41.5930 C   0  0  0  0  0  0  0  0  0  0  0  0
   47.4460   31.9220   46.6290 O   0  0  0  0  0  0  0  0  0  0  0  0
   46.6840   31.0690   47.3990 C   0  0  0  0  0  0  0  0  0  0  0  0
   46.4010   31.1080   48.7490 C   0  0  0  0  0  0  0  0  0  0  0  0
   45.6110   30.0600   49.0490 N   0  0  0  0  0  0  0  0  0  0  0  0
   45.3970   29.3700   47.9120 C   0  0  0  0  0  0  0  0  0  0  0  0
   44.6290   28.2290   47.8060 C   0  0  0  0  0  0  0  0  0  0  0  0
   44.4830   27.6170   46.5780 C   0  0  0  0  0  0  0  0  0  0  0  0
   45.1240   28.1870   45.4960 C   0  0  0  0  0  0  0  0  0  0  0  0
   45.8830   29.3180   45.6060 C   0  0  0  0  0  0  0  0  0  0  0  0
   46.0510   29.9620   46.8360 C   0  0  0  0  0  0  0  0  0  0  0  0
   47.8792   32.3844   43.9021 H   0  0  0  0  0  0  0  0  0  0  0  0
   43.5969   35.9512   45.8575 H   0  0  0  0  0  0  0  0  0  0  0  0
   43.9731   35.0634   47.3585 H   0  0  0  0  0  0  0  0  0  0  0  0
   46.1958   31.8122   40.0293 H   0  0  0  0  0  0  0  0  0  0  0  0
   45.7910   33.6005   39.9047 H   0  0  0  0  0  0  0  0  0  0  0  0
   43.9912   31.6759   40.1578 H   0  0  0  0  0  0  0  0  0  0  0  0
   44.3336   32.0715   41.8980 H   0  0  0  0  0  0  0  0  0  0  0  0
   41.8991   35.6386   38.8134 H   0  0  0  0  0  0  0  0  0  0  0  0
   41.7866   36.3180   41.4668 H   0  0  0  0  0  0  0  0  0  0  0  0
   43.2393   34.4515   42.6777 H   0  0  0  0  0  0  0  0  0  0  0  0
   46.7601   31.8669   49.4597 H   0  0  0  0  0  0  0  0  0  0  0  0
   45.2374   29.8276   49.9803 H   0  0  0  0  0  0  0  0  0  0  0  0
   44.1359   27.8095   48.6953 H   0  0  0  0  0  0  0  0  0  0  0  0
   43.8767   26.7062   46.4649 H   0  0  0  0  0  0  0  0  0  0  0  0
   45.0198   27.7131   44.5088 H   0  0  0  0  0  0  0  0  0  0  0  0
   46.3710   29.7296   44.7102 H   0  0  0  0  0  0  0  0  0  0  0  0
  1  6  1  0
  1  2  2  0
  2  3  1  0
  3  4  2  0
  3 18  1  0
  5  7  1  0
  5  4  1  0
  6  5  2  0
  8  1  1  0
  9  8  2  0
 10  8  1  0
 11 12  1  0
 11 10  1  0
 13 12  1  0
 13 17  1  0
 14 15  2  0
 14 13  1  0
 15 16  1  0
 16 17  2  0
 18 19  1  0
 19 20  2  0
 20 21  1  0
 22 21  1  0
 23 22  2  0
 24 23  1  0
 25 26  1  0
 25 24  2  0
 26 27  2  0
 27 19  1  0
 27 22  1  0
  2 28  1  0
  7 29  1  0
  7 30  1  0
 11 31  1  0
 11 32  1  0
 12 33  1  0
 12 34  1  0
 15 35  1  0
 16 36  1  0
 17 37  1  0
 20 38  1  0
 21 39  1  0
 23 40  1  0
 24 41  1  0
 25 42  1  0
 26 43  1  0
M  ISO  8  28  14  31   8  32   8  33   8  34   8  35  14  36  14  37  14
M  ISO  6  38  14  39   9  40  14  41  14  42  14  43  14
M  END
>  <minimizedAffinity>  (1) 
-5.51253319

>  <minimizedRMSD>  (1) 
7.53478479

$$$$
