
     RDKit          3D

 32 33  0  0  0  0  0  0  0  0999 V2000
   46.8230   33.5670   42.8260 C   0  0  0  0  0  0  0  0  0  0  0  0
   46.8760   32.4070   42.7030 O   0  0  0  0  0  0  0  0  0  0  0  0
   46.0020   34.5290   43.5590 C   0  0  0  0  0  0  0  0  0  0  0  0
   45.9100   35.6980   42.8460 C   0  0  0  0  0  0  0  0  0  0  0  0
   45.1510   36.6600   43.5520 C   0  0  0  0  0  0  0  0  0  0  0  0
   44.6240   36.3850   44.7590 N   0  0  0  0  0  0  0  0  0  0  0  0
   44.7920   35.1780   45.3580 C   0  0  0  0  0  0  0  0  0  0  0  0
   45.4890   34.2830   44.7180 N   0  0  0  0  0  0  0  0  0  0  0  0
   44.2190   34.9850   46.6420 N   0  0  0  0  0  0  0  0  0  0  0  0
   44.9040   37.9380   43.0470 O   0  0  0  0  0  0  0  0  0  0  0  0
   45.2700   39.0610   43.8060 C   0  0  0  0  0  0  0  0  0  0  0  0
   45.3050   39.1960   45.0610 O   0  0  0  0  0  0  0  0  0  0  0  0
   45.6380   40.1600   43.0300 O   0  0  0  0  0  0  0  0  0  0  0  0
   47.8530   33.9520   42.0160 O   0  0  0  0  0  0  0  0  0  0  0  0
   49.0970   34.3170   42.2080 C   0  0  0  0  0  0  0  0  0  0  0  0
   50.0190   33.2090   42.4950 C   0  0  0  0  0  0  0  0  0  0  0  0
   50.3720   32.4480   41.2910 N   0  0  0  0  0  0  0  0  0  0  0  0
   51.6150   32.0430   41.1010 N   0  0  0  0  0  0  0  0  0  0  0  0
   51.7730   31.3770   40.0000 C   0  0  0  0  0  0  0  0  0  0  0  0
   50.5370   31.3190   39.3780 C   0  0  0  0  0  0  0  0  0  0  0  0
   49.7410   32.0080   40.2540 C   0  0  0  0  0  0  0  0  0  0  0  0
   46.3652   35.8643   41.8585 H   0  0  0  0  0  0  0  0  0  0  0  0
   44.3279   34.0813   47.1240 H   0  0  0  0  0  0  0  0  0  0  0  0
   43.6943   35.7487   47.0919 H   0  0  0  0  0  0  0  0  0  0  0  0
   45.9140   41.0044   43.4670 H   0  0  0  0  0  0  0  0  0  0  0  0
   49.4485   34.8305   41.3009 H   0  0  0  0  0  0  0  0  0  0  0  0
   49.0997   34.9650   43.0969 H   0  0  0  0  0  0  0  0  0  0  0  0
   50.9393   33.6204   42.9352 H   0  0  0  0  0  0  0  0  0  0  0  0
   49.5120   32.5223   43.1888 H   0  0  0  0  0  0  0  0  0  0  0  0
   52.7121   30.9402   39.6296 H   0  0  0  0  0  0  0  0  0  0  0  0
   50.2645   30.8420   38.4250 H   0  0  0  0  0  0  0  0  0  0  0  0
   48.6657   32.1711   40.0896 H   0  0  0  0  0  0  0  0  0  0  0  0
  1  3  1  0
  2  1  2  0
  3  8  2  0
  4  5  2  0
  4  3  1  0
  5  6  1  0
  6  7  2  0
  7  9  1  0
  8  7  1  0
 10  5  1  0
 10 11  1  0
 11 12  2  0
 13 11  1  0
 14 15  1  0
 14  1  1  0
 15 16  1  0
 17 16  1  0
 18 17  1  0
 19 18  2  0
 20 19  1  0
 20 21  2  0
 21 17  1  0
  4 22  1  0
  9 23  1  0
  9 24  1  0
 13 25  1  0
 15 26  1  0
 15 27  1  0
 16 28  1  0
 16 29  1  0
 19 30  1  0
 20 31  1  0
 21 32  1  0
M  ISO  8  22  14  25   3  26   8  27   8  28   8  29   8  30  14  31  14
M  ISO  1  32  14
M  END
>  <minimizedAffinity>  (1) 
-4.88976431

>  <minimizedRMSD>  (1) 
1.72364521

$$$$
