
     RDKit          3D

 36 38  0  0  0  0  0  0  0  0999 V2000
   46.9860   34.4780   41.3410 C   0  0  0  0  0  0  0  0  0  0  0  0
   46.7850   34.1640   40.2310 O   0  0  0  0  0  0  0  0  0  0  0  0
   46.3090   34.3400   42.6320 C   0  0  0  0  0  0  0  0  0  0  0  0
   45.7700   35.5240   43.0120 C   0  0  0  0  0  0  0  0  0  0  0  0
   45.1350   35.4240   44.2540 C   0  0  0  0  0  0  0  0  0  0  0  0
   45.1060   34.2720   44.9300 N   0  0  0  0  0  0  0  0  0  0  0  0
   45.6860   33.1430   44.4490 C   0  0  0  0  0  0  0  0  0  0  0  0
   46.2760   33.2310   43.2910 N   0  0  0  0  0  0  0  0  0  0  0  0
   45.6050   31.9710   45.2430 N   0  0  0  0  0  0  0  0  0  0  0  0
   44.4960   36.5210   44.8500 O   0  0  0  0  0  0  0  0  0  0  0  0
   44.9210   37.7740   44.4320 C   0  0  0  0  0  0  0  0  0  0  0  0
   45.3350   38.4600   43.3050 C   0  0  0  0  0  0  0  0  0  0  0  0
   45.6120   39.7340   43.6460 N   0  0  0  0  0  0  0  0  0  0  0  0
   45.3840   39.8660   44.9550 C   0  0  0  0  0  0  0  0  0  0  0  0
   44.9590   38.6730   45.4570 N   0  0  0  0  0  0  0  0  0  0  0  0
   48.1840   35.1150   41.2020 O   0  0  0  0  0  0  0  0  0  0  0  0
   49.3270   35.0830   41.8430 C   0  0  0  0  0  0  0  0  0  0  0  0
   49.6380   33.7880   42.4740 C   0  0  0  0  0  0  0  0  0  0  0  0
   50.1770   32.8140   41.5210 N   0  0  0  0  0  0  0  0  0  0  0  0
   51.4410   32.4510   41.5910 N   0  0  0  0  0  0  0  0  0  0  0  0
   51.7830   31.5860   40.6840 C   0  0  0  0  0  0  0  0  0  0  0  0
   50.6440   31.3340   39.9200 C   0  0  0  0  0  0  0  0  0  0  0  0
   49.7120   32.1400   40.5200 C   0  0  0  0  0  0  0  0  0  0  0  0
   45.8251   36.4481   42.4178 H   0  0  0  0  0  0  0  0  0  0  0  0
   46.0328   31.0943   44.9123 H   0  0  0  0  0  0  0  0  0  0  0  0
   45.1184   31.9963   46.1505 H   0  0  0  0  0  0  0  0  0  0  0  0
   45.4238   38.0349   42.2944 H   0  0  0  0  0  0  0  0  0  0  0  0
   45.5180   40.7907   45.5355 H   0  0  0  0  0  0  0  0  0  0  0  0
   44.7101   38.4832   46.4383 H   0  0  0  0  0  0  0  0  0  0  0  0
   50.1288   35.3179   41.1275 H   0  0  0  0  0  0  0  0  0  0  0  0
   49.2491   35.8174   42.6582 H   0  0  0  0  0  0  0  0  0  0  0  0
   50.3807   33.9522   43.2686 H   0  0  0  0  0  0  0  0  0  0  0  0
   48.6995   33.3782   42.8757 H   0  0  0  0  0  0  0  0  0  0  0  0
   52.7785   31.1389   40.5455 H   0  0  0  0  0  0  0  0  0  0  0  0
   50.5244   30.6615   39.0578 H   0  0  0  0  0  0  0  0  0  0  0  0
   48.6673   32.2073   40.1821 H   0  0  0  0  0  0  0  0  0  0  0  0
  1  3  1  0
  2  1  2  0
  3  4  2  0
  3  8  1  0
  4  5  1  0
  5 10  1  0
  5  6  2  0
  7  6  1  0
  7  9  1  0
  8  7  2  0
 11 10  1  0
 11 15  1  0
 12 13  1  0
 12 11  2  0
 13 14  2  0
 14 15  1  0
 16  1  1  0
 16 17  1  0
 17 18  1  0
 19 20  1  0
 19 18  1  0
 21 20  2  0
 22 23  2  0
 22 21  1  0
 23 19  1  0
  4 24  1  0
  9 25  1  0
  9 26  1  0
 12 27  1  0
 14 28  1  0
 15 29  1  0
 17 30  1  0
 17 31  1  0
 18 32  1  0
 18 33  1  0
 21 34  1  0
 22 35  1  0
 23 36  1  0
M  ISO  8  24  14  27  14  28  14  29   9  30   8  31   8  32   8  33   8
M  ISO  3  34  14  35  14  36  14
M  END
>  <minimizedAffinity>  (1) 
-4.37033653

>  <minimizedRMSD>  (1) 
0.850472987

$$$$
