
     RDKit          3D

 32 33  0  0  0  0  0  0  0  0999 V2000
   48.8000   34.5260   42.3850 O   0  0  0  0  0  0  0  0  0  0  0  0
   50.1000   34.3560   42.3820 C   0  0  0  0  0  0  0  0  0  0  0  0
   50.5310   32.9570   42.5120 C   0  0  0  0  0  0  0  0  0  0  0  0
   50.6540   32.2920   41.2140 N   0  0  0  0  0  0  0  0  0  0  0  0
   51.8380   31.8800   40.7960 N   0  0  0  0  0  0  0  0  0  0  0  0
   51.7960   31.3040   39.6330 C   0  0  0  0  0  0  0  0  0  0  0  0
   50.4660   31.3240   39.2210 C   0  0  0  0  0  0  0  0  0  0  0  0
   49.8420   31.9550   40.2670 C   0  0  0  0  0  0  0  0  0  0  0  0
   47.8800   34.9450   41.4630 C   0  0  0  0  0  0  0  0  0  0  0  0
   48.5880   35.3030   40.6050 O   0  0  0  0  0  0  0  0  0  0  0  0
   46.4400   34.8690   41.7010 C   0  0  0  0  0  0  0  0  0  0  0  0
   46.1500   35.4010   42.9370 C   0  0  0  0  0  0  0  0  0  0  0  0
   44.7660   35.3070   43.2170 C   0  0  0  0  0  0  0  0  0  0  0  0
   43.9190   34.7510   42.3240 N   0  0  0  0  0  0  0  0  0  0  0  0
   44.3370   34.2650   41.1420 C   0  0  0  0  0  0  0  0  0  0  0  0
   45.6090   34.3430   40.8650 N   0  0  0  0  0  0  0  0  0  0  0  0
   43.3730   33.6750   40.2770 N   0  0  0  0  0  0  0  0  0  0  0  0
   44.2170   35.7730   44.3990 O   0  0  0  0  0  0  0  0  0  0  0  0
   44.5940   35.2790   45.6590 C   0  0  0  0  0  0  0  0  0  0  0  0
   50.4962   34.7512   41.4350 H   0  0  0  0  0  0  0  0  0  0  0  0
   50.4874   34.8864   43.2644 H   0  0  0  0  0  0  0  0  0  0  0  0
   51.5085   32.9331   43.0160 H   0  0  0  0  0  0  0  0  0  0  0  0
   49.7665   32.4215   43.0940 H   0  0  0  0  0  0  0  0  0  0  0  0
   52.6475   30.8814   39.0795 H   0  0  0  0  0  0  0  0  0  0  0  0
   50.0267   30.9327   38.2915 H   0  0  0  0  0  0  0  0  0  0  0  0
   48.7605   32.1539   40.2966 H   0  0  0  0  0  0  0  0  0  0  0  0
   46.8949   35.8407   43.6166 H   0  0  0  0  0  0  0  0  0  0  0  0
   43.6638   33.2943   39.3652 H   0  0  0  0  0  0  0  0  0  0  0  0
   42.3845   33.6287   40.5628 H   0  0  0  0  0  0  0  0  0  0  0  0
   44.1281   35.8895   46.4466 H   0  0  0  0  0  0  0  0  0  0  0  0
   44.2606   34.2355   45.7585 H   0  0  0  0  0  0  0  0  0  0  0  0
   45.6885   35.3253   45.7585 H   0  0  0  0  0  0  0  0  0  0  0  0
  2  1  1  0
  2  3  1  0
  4  3  1  0
  5  4  1  0
  6  5  2  0
  7  6  1  0
  7  8  2  0
  8  4  1  0
  9 11  1  0
  9  1  1  0
 10  9  2  0
 11 12  2  0
 12 13  1  0
 13 18  1  0
 14 13  2  0
 15 14  1  0
 16 15  2  0
 16 11  1  0
 17 15  1  0
 18 19  1  0
  2 20  1  0
  2 21  1  0
  3 22  1  0
  3 23  1  0
  6 24  1  0
  7 25  1  0
  8 26  1  0
 12 27  1  0
 17 28  1  0
 17 29  1  0
 19 30  1  0
 19 31  1  0
 19 32  1  0
M  ISO  8  20   8  21   8  22   8  23   8  24  14  25  14  26  14  27  14
M  ISO  3  30   8  31   8  32   8
M  END
>  <minimizedAffinity>  (1) 
-4.36793995

>  <minimizedRMSD>  (1) 
2.23595834

$$$$
