
     RDKit          3D

 29 31  0  0  0  0  0  0  0  0999 V2000
   45.4040   34.5270   44.4590 C   0  0  0  0  0  0  0  0  0  0  0  0
   46.4340   34.3710   43.5370 C   0  0  0  0  0  0  0  0  0  0  0  0
   47.3550   33.3570   43.7570 C   0  0  0  0  0  0  0  0  0  0  0  0
   47.2060   32.5820   44.8460 N   0  0  0  0  0  0  0  0  0  0  0  0
   46.2280   32.7320   45.7230 C   0  0  0  0  0  0  0  0  0  0  0  0
   45.3360   33.7020   45.5210 N   0  0  0  0  0  0  0  0  0  0  0  0
   45.9210   31.9860   46.9480 C   0  0  0  0  0  0  0  0  0  0  0  0
   45.9620   32.5290   48.2200 C   0  0  0  0  0  0  0  0  0  0  0  0
   45.6790   31.8490   49.3740 C   0  0  0  0  0  0  0  0  0  0  0  0
   45.3260   30.5390   49.3260 C   0  0  0  0  0  0  0  0  0  0  0  0
   45.2620   29.9290   48.0950 C   0  0  0  0  0  0  0  0  0  0  0  0
   44.9000   28.6000   48.0900 C   0  0  0  0  0  0  0  0  0  0  0  0
   44.8120   27.9120   46.9000 C   0  0  0  0  0  0  0  0  0  0  0  0
   45.0990   28.6090   45.7420 C   0  0  0  0  0  0  0  0  0  0  0  0
   45.4560   29.9360   45.8170 C   0  0  0  0  0  0  0  0  0  0  0  0
   45.5570   30.6620   46.9730 C   0  0  0  0  0  0  0  0  0  0  0  0
   46.4660   35.3080   42.3920 C   0  0  0  0  0  0  0  0  0  0  0  0
   45.7820   36.4830   42.7340 F   0  0  0  0  0  0  0  0  0  0  0  0
   45.8630   34.7930   41.2580 F   0  0  0  0  0  0  0  0  0  0  0  0
   47.7370   35.7050   42.0620 F   0  0  0  0  0  0  0  0  0  0  0  0
   44.6516   35.3175   44.3216 H   0  0  0  0  0  0  0  0  0  0  0  0
   48.1874   33.1909   43.0573 H   0  0  0  0  0  0  0  0  0  0  0  0
   46.2436   33.5884   48.3110 H   0  0  0  0  0  0  0  0  0  0  0  0
   45.7378   32.3658   50.3433 H   0  0  0  0  0  0  0  0  0  0  0  0
   45.0975   29.9810   50.2460 H   0  0  0  0  0  0  0  0  0  0  0  0
   44.6808   28.0872   49.0381 H   0  0  0  0  0  0  0  0  0  0  0  0
   44.5248   26.8505   46.8726 H   0  0  0  0  0  0  0  0  0  0  0  0
   45.0424   28.1059   44.7654 H   0  0  0  0  0  0  0  0  0  0  0  0
   45.6779   30.4546   44.8726 H   0  0  0  0  0  0  0  0  0  0  0  0
  1  6  2  0
  2  3  2  0
  2  1  1  0
  3  4  1  0
  4  5  2  0
  5  7  1  0
  6  5  1  0
  7 16  1  0
  7  8  2  0
  8  9  1  0
 10  9  2  0
 11 10  1  0
 12 11  2  0
 13 12  1  0
 14 15  1  0
 14 13  2  0
 15 16  2  0
 16 11  1  0
 17 18  1  0
 17  2  1  0
 19 17  1  0
 20 17  1  0
  1 21  1  0
  3 22  1  0
  8 23  1  0
  9 24  1  0
 10 25  1  0
 12 26  1  0
 13 27  1  0
 14 28  1  0
 15 29  1  0
M  ISO  8  21  14  22  14  23  14  24  14  25  14  26  14  27  14  28  14
M  ISO  1  29  14
M  END
>  <minimizedAffinity>  (1) 
-6.05195999

>  <minimizedRMSD>  (1) 
3.05809474

$$$$
