
     RDKit          3D

 24 25  0  0  0  0  0  0  0  0999 V2000
   44.4370   35.5840   44.4600 C   0  0  0  0  0  0  0  0  0  0  0  0
   44.5480   34.9620   43.2200 C   0  0  0  0  0  0  0  0  0  0  0  0
   45.1190   33.6760   43.1620 C   0  0  0  0  0  0  0  0  0  0  0  0
   45.5250   33.1280   44.3340 N   0  0  0  0  0  0  0  0  0  0  0  0
   45.4050   33.7500   45.5130 C   0  0  0  0  0  0  0  0  0  0  0  0
   44.8580   34.9890   45.5880 N   0  0  0  0  0  0  0  0  0  0  0  0
   45.9050   32.9640   46.5910 N   0  0  0  0  0  0  0  0  0  0  0  0
   45.4550   33.0080   47.8360 C   0  0  0  0  0  0  0  0  0  0  0  0
   45.9890   32.2160   48.8350 C   0  0  0  0  0  0  0  0  0  0  0  0
   47.0210   31.3410   48.5660 C   0  0  0  0  0  0  0  0  0  0  0  0
   47.5260   30.5450   49.6570 N   0  0  0  0  0  0  0  0  0  0  0  0
   47.4710   31.3010   47.3000 N   0  0  0  0  0  0  0  0  0  0  0  0
   46.9200   32.0860   46.3800 C   0  0  0  0  0  0  0  0  0  0  0  0
   47.4520   31.9370   45.2290 O   0  0  0  0  0  0  0  0  0  0  0  0
   44.0580   35.6930   42.0370 C   0  0  0  0  0  0  0  0  0  0  0  0
   44.5510   35.1320   40.8740 F   0  0  0  0  0  0  0  0  0  0  0  0
   44.4080   37.0290   42.0320 F   0  0  0  0  0  0  0  0  0  0  0  0
   42.6710   35.6220   41.9250 F   0  0  0  0  0  0  0  0  0  0  0  0
   43.9930   36.5888   44.5177 H   0  0  0  0  0  0  0  0  0  0  0  0
   45.2307   33.1397   42.2081 H   0  0  0  0  0  0  0  0  0  0  0  0
   44.6320   33.6951   48.0821 H   0  0  0  0  0  0  0  0  0  0  0  0
   45.5864   32.2842   49.8564 H   0  0  0  0  0  0  0  0  0  0  0  0
   48.2960   29.8801   49.4961 H   0  0  0  0  0  0  0  0  0  0  0  0
   47.1167   30.6412   50.5973 H   0  0  0  0  0  0  0  0  0  0  0  0
  1  6  2  0
  2  1  1  0
  3  2  2  0
  3  4  1  0
  4  5  2  0
  5  6  1  0
  5  7  1  0
  7  8  1  0
  8  9  2  0
 10  9  1  0
 10 11  1  0
 12 10  2  0
 13  7  1  0
 13 12  1  0
 14 13  2  0
 15  2  1  0
 16 15  1  0
 17 15  1  0
 18 15  1  0
  1 19  1  0
  3 20  1  0
  8 21  1  0
  9 22  1  0
 11 23  1  0
 11 24  1  0
M  ISO  4  19  14  20  14  21  14  22  14
M  END
>  <minimizedAffinity>  (1) 
-5.73502159

>  <minimizedRMSD>  (1) 
1.59056437

$$$$
