
     RDKit          3D

 28 29  0  0  0  0  0  0  0  0999 V2000
   45.3300   34.5320   44.8260 C   0  0  0  0  0  0  0  0  0  0  0  0
   46.2030   34.4380   43.7280 C   0  0  0  0  0  0  0  0  0  0  0  0
   47.1620   33.4270   43.7080 C   0  0  0  0  0  0  0  0  0  0  0  0
   47.2020   32.5720   44.7730 N   0  0  0  0  0  0  0  0  0  0  0  0
   46.3620   32.6810   45.8060 C   0  0  0  0  0  0  0  0  0  0  0  0
   45.4320   33.6440   45.8460 N   0  0  0  0  0  0  0  0  0  0  0  0
   46.4470   31.7610   46.8880 N   0  0  0  0  0  0  0  0  0  0  0  0
   45.9660   30.3970   46.7740 C   0  0  0  0  0  0  0  0  0  0  0  0
   45.4030   29.9950   48.1270 C   0  0  0  0  0  0  0  0  0  0  0  0
   44.7910   31.2550   48.7480 C   0  0  0  0  0  0  0  0  0  0  0  0
   45.8920   32.1980   49.1670 C   0  0  0  0  0  0  0  0  0  0  0  0
   47.0230   32.1490   48.1620 C   0  0  0  0  0  0  0  0  0  0  0  0
   46.0300   35.4440   42.6550 C   0  0  0  0  0  0  0  0  0  0  0  0
   47.2680   35.7640   42.1070 F   0  0  0  0  0  0  0  0  0  0  0  0
   45.4620   36.6260   43.0930 F   0  0  0  0  0  0  0  0  0  0  0  0
   45.2760   34.9780   41.6060 F   0  0  0  0  0  0  0  0  0  0  0  0
   44.5666   35.3233   44.8577 H   0  0  0  0  0  0  0  0  0  0  0  0
   47.8613   33.3212   42.8655 H   0  0  0  0  0  0  0  0  0  0  0  0
   45.1788   30.3394   46.0078 H   0  0  0  0  0  0  0  0  0  0  0  0
   46.7830   29.7221   46.4790 H   0  0  0  0  0  0  0  0  0  0  0  0
   44.6304   29.2223   48.0005 H   0  0  0  0  0  0  0  0  0  0  0  0
   46.1908   29.5809   48.7734 H   0  0  0  0  0  0  0  0  0  0  0  0
   44.1455   31.7513   48.0084 H   0  0  0  0  0  0  0  0  0  0  0  0
   44.1941   30.9756   49.6287 H   0  0  0  0  0  0  0  0  0  0  0  0
   45.4946   33.2224   49.2191 H   0  0  0  0  0  0  0  0  0  0  0  0
   46.2715   31.8956   50.1542 H   0  0  0  0  0  0  0  0  0  0  0  0
   47.7751   31.4104   48.4764 H   0  0  0  0  0  0  0  0  0  0  0  0
   47.5199   33.1273   48.0846 H   0  0  0  0  0  0  0  0  0  0  0  0
  1  6  2  0
  2  1  1  0
  3  2  2  0
  3  4  1  0
  4  5  2  0
  5  6  1  0
  5  7  1  0
  7 12  1  0
  8  7  1  0
  8  9  1  0
  9 10  1  0
 10 11  1  0
 12 11  1  0
 13 15  1  0
 13  2  1  0
 14 13  1  0
 16 13  1  0
  1 17  1  0
  3 18  1  0
  8 19  1  0
  8 20  1  0
  9 21  1  0
  9 22  1  0
 10 23  1  0
 10 24  1  0
 11 25  1  0
 11 26  1  0
 12 27  1  0
 12 28  1  0
M  ISO  8  17  14  18  14  19  13  20  13  21  13  22  13  23  13  24  13
M  ISO  4  25  13  26  13  27  13  28  13
M  END
>  <minimizedAffinity>  (1) 
-5.51860428

>  <minimizedRMSD>  (1) 
0.811846972

$$$$
