
     RDKit          3D

 23 24  0  0  0  0  0  0  0  0999 V2000
   44.6550   35.2620   45.1130 C   0  0  0  0  0  0  0  0  0  0  0  0
   45.3420   35.0490   43.9190 C   0  0  0  0  0  0  0  0  0  0  0  0
   46.2680   34.0100   43.8690 C   0  0  0  0  0  0  0  0  0  0  0  0
   46.4480   33.2610   44.9970 N   0  0  0  0  0  0  0  0  0  0  0  0
   45.7730   33.4890   46.1290 C   0  0  0  0  0  0  0  0  0  0  0  0
   44.8730   34.4920   46.1930 N   0  0  0  0  0  0  0  0  0  0  0  0
   46.0410   32.6290   47.2750 C   0  0  0  0  0  0  0  0  0  0  0  0
   45.0510   32.2330   48.1550 C   0  0  0  0  0  0  0  0  0  0  0  0
   45.4060   31.4150   49.2130 C   0  0  0  0  0  0  0  0  0  0  0  0
   46.7240   30.9960   49.3940 C   0  0  0  0  0  0  0  0  0  0  0  0
   47.7210   31.3810   48.5250 C   0  0  0  0  0  0  0  0  0  0  0  0
   47.3330   32.1980   47.4810 C   0  0  0  0  0  0  0  0  0  0  0  0
   45.0300   35.9530   42.7890 C   0  0  0  0  0  0  0  0  0  0  0  0
   45.8230   35.6040   41.6890 F   0  0  0  0  0  0  0  0  0  0  0  0
   45.2750   37.2820   43.0740 F   0  0  0  0  0  0  0  0  0  0  0  0
   43.7300   35.8310   42.3590 F   0  0  0  0  0  0  0  0  0  0  0  0
   43.9190   36.0773   45.1727 H   0  0  0  0  0  0  0  0  0  0  0  0
   46.8360   33.7993   42.9509 H   0  0  0  0  0  0  0  0  0  0  0  0
   44.0095   32.5593   48.0178 H   0  0  0  0  0  0  0  0  0  0  0  0
   44.6338   31.0888   49.9252 H   0  0  0  0  0  0  0  0  0  0  0  0
   46.9718   30.3462   50.2463 H   0  0  0  0  0  0  0  0  0  0  0  0
   48.7642   31.0571   48.6547 H   0  0  0  0  0  0  0  0  0  0  0  0
   48.1048   32.5253   46.7688 H   0  0  0  0  0  0  0  0  0  0  0  0
  1  6  2  0
  2  1  1  0
  3  2  2  0
  3  4  1  0
  4  5  2  0
  5  6  1  0
  5  7  1  0
  7 12  1  0
  7  8  2  0
  8  9  1  0
  9 10  2  0
 11 10  1  0
 12 11  2  0
 13 15  1  0
 13  2  1  0
 14 13  1  0
 16 13  1  0
  1 17  1  0
  3 18  1  0
  8 19  1  0
  9 20  1  0
 10 21  1  0
 11 22  1  0
 12 23  1  0
M  ISO  7  17  14  18  14  19  14  20  14  21  14  22  14  23  14
M  END
>  <minimizedAffinity>  (1) 
-5.46833658

>  <minimizedRMSD>  (1) 
0.737451017

$$$$
