
     RDKit          3D

 24 26  0  0  0  0  0  0  0  0999 V2000
   45.0000   35.0340   45.0150 C   0  0  0  0  0  0  0  0  0  0  0  0
   45.8440   34.7050   43.9440 C   0  0  0  0  0  0  0  0  0  0  0  0
   46.6290   33.5420   44.0110 C   0  0  0  0  0  0  0  0  0  0  0  0
   46.5110   32.7960   45.1460 N   0  0  0  0  0  0  0  0  0  0  0  0
   45.6990   33.1280   46.1570 C   0  0  0  0  0  0  0  0  0  0  0  0
   44.9390   34.2410   46.1040 N   0  0  0  0  0  0  0  0  0  0  0  0
   45.6350   32.2920   47.3090 N   0  0  0  0  0  0  0  0  0  0  0  0
   45.7820   32.6850   48.5880 C   0  0  0  0  0  0  0  0  0  0  0  0
   45.6520   31.5930   49.3760 N   0  0  0  0  0  0  0  0  0  0  0  0
   45.4230   30.5120   48.6110 C   0  0  0  0  0  0  0  0  0  0  0  0
   45.2110   29.1610   48.7790 C   0  0  0  0  0  0  0  0  0  0  0  0
   45.0040   28.3240   47.7310 N   0  0  0  0  0  0  0  0  0  0  0  0
   45.0000   28.7950   46.4660 C   0  0  0  0  0  0  0  0  0  0  0  0
   45.2060   30.1100   46.2740 N   0  0  0  0  0  0  0  0  0  0  0  0
   45.4120   30.9510   47.3050 C   0  0  0  0  0  0  0  0  0  0  0  0
   45.8420   35.6410   42.7840 C   0  0  0  0  0  0  0  0  0  0  0  0
   47.1350   35.7330   42.2590 F   0  0  0  0  0  0  0  0  0  0  0  0
   45.4400   36.9120   43.0950 F   0  0  0  0  0  0  0  0  0  0  0  0
   45.0640   35.1680   41.7450 F   0  0  0  0  0  0  0  0  0  0  0  0
   44.3843   35.9442   44.9663 H   0  0  0  0  0  0  0  0  0  0  0  0
   47.3024   33.2491   43.1921 H   0  0  0  0  0  0  0  0  0  0  0  0
   45.9739   33.7122   48.9316 H   0  0  0  0  0  0  0  0  0  0  0  0
   45.2095   28.7465   49.7979 H   0  0  0  0  0  0  0  0  0  0  0  0
   44.8325   28.1202   45.6136 H   0  0  0  0  0  0  0  0  0  0  0  0
  1  6  2  0
  2  3  2  0
  2  1  1  0
  3  4  1  0
  4  5  2  0
  5  7  1  0
  6  5  1  0
  7  8  1  0
  8  9  2  0
 10 11  2  0
 10  9  1  0
 12 11  1  0
 13 12  2  0
 14 13  1  0
 14 15  2  0
 15  7  1  0
 15 10  1  0
 16 18  1  0
 16  2  1  0
 17 16  1  0
 19 16  1  0
  1 20  1  0
  3 21  1  0
  8 22  1  0
 11 23  1  0
 13 24  1  0
M  ISO  5  20  14  21  14  22  14  23  14  24  14
M  END
>  <minimizedAffinity>  (1) 
-5.42050934

>  <minimizedRMSD>  (1) 
0.496878445

$$$$
