
     RDKit          3D

 26 27  0  0  0  0  0  0  0  0999 V2000
   44.9820   34.8880   45.0830 C   0  0  0  0  0  0  0  0  0  0  0  0
   45.8450   34.6210   44.0230 C   0  0  0  0  0  0  0  0  0  0  0  0
   46.8030   33.6150   44.1670 C   0  0  0  0  0  0  0  0  0  0  0  0
   46.8270   32.9560   45.3460 N   0  0  0  0  0  0  0  0  0  0  0  0
   45.9900   33.2230   46.3550 C   0  0  0  0  0  0  0  0  0  0  0  0
   45.0670   34.1860   46.2300 N   0  0  0  0  0  0  0  0  0  0  0  0
   46.1200   32.4560   47.5450 N   0  0  0  0  0  0  0  0  0  0  0  0
   47.4430   32.2190   48.0890 C   0  0  0  0  0  0  0  0  0  0  0  0
   47.3660   30.8320   48.7350 C   0  0  0  0  0  0  0  0  0  0  0  0
   46.5270   30.0410   47.9630 O   0  0  0  0  0  0  0  0  0  0  0  0
   45.2090   30.3720   48.2460 C   0  0  0  0  0  0  0  0  0  0  0  0
   44.9870   31.8910   48.2520 C   0  0  0  0  0  0  0  0  0  0  0  0
   45.6740   35.4450   42.8030 C   0  0  0  0  0  0  0  0  0  0  0  0
   46.8910   35.5490   42.1250 F   0  0  0  0  0  0  0  0  0  0  0  0
   45.2130   36.7220   43.0520 F   0  0  0  0  0  0  0  0  0  0  0  0
   44.8180   34.8650   41.8980 F   0  0  0  0  0  0  0  0  0  0  0  0
   44.2242   35.6790   44.9830 H   0  0  0  0  0  0  0  0  0  0  0  0
   47.5061   33.3704   43.3572 H   0  0  0  0  0  0  0  0  0  0  0  0
   48.1975   32.2309   47.2887 H   0  0  0  0  0  0  0  0  0  0  0  0
   47.7366   32.9946   48.8116 H   0  0  0  0  0  0  0  0  0  0  0  0
   48.3694   30.3830   48.7741 H   0  0  0  0  0  0  0  0  0  0  0  0
   46.9765   30.9113   49.7607 H   0  0  0  0  0  0  0  0  0  0  0  0
   44.5577   29.9208   47.4830 H   0  0  0  0  0  0  0  0  0  0  0  0
   44.9701   29.9894   49.2493 H   0  0  0  0  0  0  0  0  0  0  0  0
   44.9516   32.2694   49.2843 H   0  0  0  0  0  0  0  0  0  0  0  0
   44.0339   32.1639   47.7754 H   0  0  0  0  0  0  0  0  0  0  0  0
  1  6  2  0
  2  3  2  0
  2  1  1  0
  3  4  1  0
  4  5  2  0
  5  7  1  0
  6  5  1  0
  7  8  1  0
  7 12  1  0
  8  9  1  0
 10 11  1  0
 10  9  1  0
 11 12  1  0
 13 15  1  0
 13  2  1  0
 14 13  1  0
 16 13  1  0
  1 17  1  0
  3 18  1  0
  8 19  1  0
  8 20  1  0
  9 21  1  0
  9 22  1  0
 11 23  1  0
 11 24  1  0
 12 25  1  0
 12 26  1  0
M  ISO  8  17  14  18  14  19  13  20  13  21  13  22  13  23  13  24  13
M  ISO  2  25  13  26  13
M  END
>  <minimizedAffinity>  (1) 
-5.37994289

>  <minimizedRMSD>  (1) 
0.18587698

$$$$
