
     RDKit          3D

 23 24  0  0  0  0  0  0  0  0999 V2000
   44.8830   35.1030   44.9800 C   0  0  0  0  0  0  0  0  0  0  0  0
   45.7080   34.9000   43.8570 C   0  0  0  0  0  0  0  0  0  0  0  0
   46.6560   33.8740   43.8910 C   0  0  0  0  0  0  0  0  0  0  0  0
   46.7250   33.1300   45.0130 N   0  0  0  0  0  0  0  0  0  0  0  0
   45.9380   33.3280   46.0760 C   0  0  0  0  0  0  0  0  0  0  0  0
   45.0210   34.3090   46.0640 N   0  0  0  0  0  0  0  0  0  0  0  0
   46.0720   32.4830   47.2560 C   0  0  0  0  0  0  0  0  0  0  0  0
   44.9680   32.1270   47.9940 C   0  0  0  0  0  0  0  0  0  0  0  0
   45.0320   31.3230   49.1290 C   0  0  0  0  0  0  0  0  0  0  0  0
   46.2830   30.8620   49.5220 C   0  0  0  0  0  0  0  0  0  0  0  0
   47.3800   31.2260   48.7720 C   0  0  0  0  0  0  0  0  0  0  0  0
   47.3180   32.0210   47.6510 C   0  0  0  0  0  0  0  0  0  0  0  0
   45.4870   35.8170   42.7140 C   0  0  0  0  0  0  0  0  0  0  0  0
   46.5750   35.7320   41.8410 F   0  0  0  0  0  0  0  0  0  0  0  0
   45.3600   37.1410   43.0820 F   0  0  0  0  0  0  0  0  0  0  0  0
   44.4000   35.4680   41.9500 F   0  0  0  0  0  0  0  0  0  0  0  0
   44.1296   35.9045   44.9745 H   0  0  0  0  0  0  0  0  0  0  0  0
   47.3201   33.6810   43.0356 H   0  0  0  0  0  0  0  0  0  0  0  0
   43.9834   32.4964   47.6712 H   0  0  0  0  0  0  0  0  0  0  0  0
   44.1252   31.0621   49.6943 H   0  0  0  0  0  0  0  0  0  0  0  0
   46.3945   30.2223   50.4099 H   0  0  0  0  0  0  0  0  0  0  0  0
   48.3668   30.8580   49.0894 H   0  0  0  0  0  0  0  0  0  0  0  0
   48.2260   32.2812   47.0873 H   0  0  0  0  0  0  0  0  0  0  0  0
  1  6  2  0
  2  3  2  0
  2  1  1  0
  3  4  1  0
  4  5  2  0
  5  7  1  0
  6  5  1  0
  7 12  1  0
  7  8  2  0
  8  9  1  0
  9 10  2  0
 11 10  1  0
 12 11  2  0
 13 15  1  0
 13  2  1  0
 14 13  1  0
 16 13  1  0
  1 17  1  0
  3 18  1  0
  8 19  1  0
  9 20  1  0
 10 21  1  0
 11 22  1  0
 12 23  1  0
M  ISO  7  17  14  18  14  19  14  20  14  21  14  22  14  23  14
M  END
>  <minimizedAffinity>  (1) 
-5.36645174

>  <minimizedRMSD>  (1) 
0.647483289

$$$$
