
     RDKit          3D

 26 27  0  0  0  0  0  0  0  0999 V2000
   45.1800   34.2770   45.7880 C   0  0  0  0  0  0  0  0  0  0  0  0
   45.5940   34.6690   44.5050 C   0  0  0  0  0  0  0  0  0  0  0  0
   46.6000   33.9290   43.8790 C   0  0  0  0  0  0  0  0  0  0  0  0
   47.1120   32.8780   44.5520 N   0  0  0  0  0  0  0  0  0  0  0  0
   46.7090   32.5140   45.7760 C   0  0  0  0  0  0  0  0  0  0  0  0
   45.7400   33.2210   46.3900 N   0  0  0  0  0  0  0  0  0  0  0  0
   47.2410   31.4070   46.4980 N   0  0  0  0  0  0  0  0  0  0  0  0
   47.8770   30.4050   45.8650 C   0  0  0  0  0  0  0  0  0  0  0  0
   48.4320   29.2860   46.4510 C   0  0  0  0  0  0  0  0  0  0  0  0
   49.1130   28.2330   45.6720 C   0  0  0  0  0  0  0  0  0  0  0  0
   48.3090   29.2050   47.8430 C   0  0  0  0  0  0  0  0  0  0  0  0
   48.7980   28.2110   48.3980 O   0  0  0  0  0  0  0  0  0  0  0  0
   47.6690   30.2200   48.4520 N   0  0  0  0  0  0  0  0  0  0  0  0
   47.1450   31.2880   47.8460 C   0  0  0  0  0  0  0  0  0  0  0  0
   46.5560   32.2070   48.4760 O   0  0  0  0  0  0  0  0  0  0  0  0
   44.9240   35.8510   43.9090 C   0  0  0  0  0  0  0  0  0  0  0  0
   45.6480   36.3010   42.8150 F   0  0  0  0  0  0  0  0  0  0  0  0
   44.7840   36.9050   44.7920 F   0  0  0  0  0  0  0  0  0  0  0  0
   43.6820   35.5400   43.4040 F   0  0  0  0  0  0  0  0  0  0  0  0
   44.3890   34.8423   46.3025 H   0  0  0  0  0  0  0  0  0  0  0  0
   46.9613   34.1936   42.8743 H   0  0  0  0  0  0  0  0  0  0  0  0
   47.9632   30.4857   44.7714 H   0  0  0  0  0  0  0  0  0  0  0  0
   49.5793   27.5119   46.3595 H   0  0  0  0  0  0  0  0  0  0  0  0
   48.3794   27.7135   45.0380 H   0  0  0  0  0  0  0  0  0  0  0  0
   49.8877   28.6890   45.0380 H   0  0  0  0  0  0  0  0  0  0  0  0
   47.5751   30.1684   49.4764 H   0  0  0  0  0  0  0  0  0  0  0  0
  1  6  2  0
  2  1  1  0
  3  2  2  0
  3  4  1  0
  4  5  2  0
  5  6  1  0
  5  7  1  0
  7 14  1  0
  8  9  2  0
  8  7  1  0
  9 11  1  0
 10  9  1  0
 11 12  2  0
 11 13  1  0
 14 13  1  0
 14 15  2  0
 16  2  1  0
 16 18  1  0
 17 16  1  0
 19 16  1  0
  1 20  1  0
  3 21  1  0
  8 22  1  0
 10 23  1  0
 10 24  1  0
 10 25  1  0
 13 26  1  0
M  ISO  7  20  14  21  14  22  14  23   8  24   8  25   8  26   9
M  END
>  <minimizedAffinity>  (1) 
-5.26925898

>  <minimizedRMSD>  (1) 
2.30824447

$$$$
