
     RDKit          3D

 26 27  0  0  0  0  0  0  0  0999 V2000
   45.2190   34.5540   45.1600 C   0  0  0  0  0  0  0  0  0  0  0  0
   46.0280   34.4410   44.0320 C   0  0  0  0  0  0  0  0  0  0  0  0
   47.0030   33.4300   43.9900 C   0  0  0  0  0  0  0  0  0  0  0  0
   47.0930   32.6200   45.0660 N   0  0  0  0  0  0  0  0  0  0  0  0
   46.3070   32.7420   46.1440 C   0  0  0  0  0  0  0  0  0  0  0  0
   45.3640   33.7100   46.1990 N   0  0  0  0  0  0  0  0  0  0  0  0
   46.4060   31.8500   47.3290 C   0  0  0  0  0  0  0  0  0  0  0  0
   45.6680   30.5440   47.1540 C   0  0  0  0  0  0  0  0  0  0  0  0
   45.1250   30.1770   48.5160 C   0  0  0  0  0  0  0  0  0  0  0  0
   45.2440   31.3650   49.4090 C   0  0  0  0  0  0  0  0  0  0  0  0
   45.7430   32.4640   48.5250 C   0  0  0  0  0  0  0  0  0  0  0  0
   45.7930   35.4200   42.9320 C   0  0  0  0  0  0  0  0  0  0  0  0
   46.9770   35.6740   42.2680 F   0  0  0  0  0  0  0  0  0  0  0  0
   45.2690   36.6040   43.3500 F   0  0  0  0  0  0  0  0  0  0  0  0
   44.9490   34.8860   41.9580 F   0  0  0  0  0  0  0  0  0  0  0  0
   44.4526   35.3420   45.2026 H   0  0  0  0  0  0  0  0  0  0  0  0
   47.6633   33.3043   43.1193 H   0  0  0  0  0  0  0  0  0  0  0  0
   47.4875   31.6929   47.4539 H   0  0  0  0  0  0  0  0  0  0  0  0
   44.8439   30.6656   46.4357 H   0  0  0  0  0  0  0  0  0  0  0  0
   46.3323   29.7588   46.7639 H   0  0  0  0  0  0  0  0  0  0  0  0
   44.0685   29.8838   48.4275 H   0  0  0  0  0  0  0  0  0  0  0  0
   45.6940   29.3333   48.9336 H   0  0  0  0  0  0  0  0  0  0  0  0
   44.2650   31.6270   49.8368 H   0  0  0  0  0  0  0  0  0  0  0  0
   45.9183   31.1785   50.2579 H   0  0  0  0  0  0  0  0  0  0  0  0
   46.4684   33.0817   49.0748 H   0  0  0  0  0  0  0  0  0  0  0  0
   44.9044   33.1001   48.2053 H   0  0  0  0  0  0  0  0  0  0  0  0
  1  6  2  0
  2  1  1  0
  3  2  2  0
  3  4  1  0
  4  5  2  0
  5  6  1  0
  5  7  1  0
  7 11  1  0
  8  7  1  0
  8  9  1  0
  9 10  1  0
 11 10  1  0
 12 14  1  0
 12  2  1  0
 13 12  1  0
 15 12  1  0
  1 16  1  0
  3 17  1  0
  7 18  1  0
  8 19  1  0
  8 20  1  0
  9 21  1  0
  9 22  1  0
 10 23  1  0
 10 24  1  0
 11 25  1  0
 11 26  1  0
M  ISO  8  16  14  17  14  18  13  19  13  20  13  21  13  22  13  23  13
M  ISO  3  24  13  25  13  26  13
M  END
>  <minimizedAffinity>  (1) 
-5.26795244

>  <minimizedRMSD>  (1) 
0.850577116

$$$$
