
     RDKit          3D

 20 21  0  0  0  0  0  0  0  0999 V2000
   44.9770   34.9360   45.1160 C   0  0  0  0  0  0  0  0  0  0  0  0
   45.8350   34.6600   44.0340 C   0  0  0  0  0  0  0  0  0  0  0  0
   46.7530   33.6150   44.1440 C   0  0  0  0  0  0  0  0  0  0  0  0
   46.7650   32.9170   45.3010 N   0  0  0  0  0  0  0  0  0  0  0  0
   45.9440   33.1870   46.3260 C   0  0  0  0  0  0  0  0  0  0  0  0
   45.0580   34.1880   46.2330 N   0  0  0  0  0  0  0  0  0  0  0  0
   46.0380   32.3880   47.5020 N   0  0  0  0  0  0  0  0  0  0  0  0
   45.0120   31.8430   48.1840 C   0  0  0  0  0  0  0  0  0  0  0  0
   45.5590   31.1480   49.2620 C   0  0  0  0  0  0  0  0  0  0  0  0
   46.9040   31.3090   49.1790 N   0  0  0  0  0  0  0  0  0  0  0  0
   47.2040   32.0700   48.0980 C   0  0  0  0  0  0  0  0  0  0  0  0
   45.6870   35.5320   42.8320 C   0  0  0  0  0  0  0  0  0  0  0  0
   46.8890   35.5880   42.1420 F   0  0  0  0  0  0  0  0  0  0  0  0
   45.2770   36.8060   43.1160 F   0  0  0  0  0  0  0  0  0  0  0  0
   44.7900   34.9950   41.9200 F   0  0  0  0  0  0  0  0  0  0  0  0
   44.2466   35.7558   45.0494 H   0  0  0  0  0  0  0  0  0  0  0  0
   47.4401   33.3690   43.3210 H   0  0  0  0  0  0  0  0  0  0  0  0
   43.9436   31.9299   47.9369 H   0  0  0  0  0  0  0  0  0  0  0  0
   45.0092   30.5814   50.0280 H   0  0  0  0  0  0  0  0  0  0  0  0
   48.2096   32.3711   47.7693 H   0  0  0  0  0  0  0  0  0  0  0  0
  1  6  2  0
  2  3  2  0
  2  1  1  0
  3  4  1  0
  4  5  2  0
  5  7  1  0
  6  5  1  0
  7 11  1  0
  7  8  1  0
  8  9  2  0
 10  9  1  0
 11 10  2  0
 12 14  1  0
 12  2  1  0
 13 12  1  0
 15 12  1  0
  1 16  1  0
  3 17  1  0
  8 18  1  0
  9 19  1  0
 11 20  1  0
M  ISO  5  16  14  17  14  18  14  19  14  20  14
M  END
>  <minimizedAffinity>  (1) 
-5.26390505

>  <minimizedRMSD>  (1) 
0.0815744847

$$$$
