
     RDKit          3D

 20 21  0  0  0  0  0  0  0  0999 V2000
   44.9490   34.9800   45.0870 C   0  0  0  0  0  0  0  0  0  0  0  0
   45.8230   34.6840   44.0370 C   0  0  0  0  0  0  0  0  0  0  0  0
   46.6980   33.6140   44.1690 C   0  0  0  0  0  0  0  0  0  0  0  0
   46.6530   32.9060   45.3310 N   0  0  0  0  0  0  0  0  0  0  0  0
   45.8060   33.2060   46.3300 C   0  0  0  0  0  0  0  0  0  0  0  0
   44.9590   34.2390   46.2050 N   0  0  0  0  0  0  0  0  0  0  0  0
   45.8430   32.3770   47.5350 C   0  0  0  0  0  0  0  0  0  0  0  0
   44.8800   31.8150   48.3500 C   0  0  0  0  0  0  0  0  0  0  0  0
   45.5920   31.1460   49.3240 C   0  0  0  0  0  0  0  0  0  0  0  0
   46.9330   31.3420   49.0410 C   0  0  0  0  0  0  0  0  0  0  0  0
   47.0490   32.0820   47.9670 O   0  0  0  0  0  0  0  0  0  0  0  0
   45.7380   35.5600   42.8430 C   0  0  0  0  0  0  0  0  0  0  0  0
   47.0070   35.6850   42.2710 F   0  0  0  0  0  0  0  0  0  0  0  0
   45.2840   36.8360   43.1170 F   0  0  0  0  0  0  0  0  0  0  0  0
   44.9710   35.0170   41.8410 F   0  0  0  0  0  0  0  0  0  0  0  0
   44.2499   35.8244   44.9960 H   0  0  0  0  0  0  0  0  0  0  0  0
   47.4007   33.3485   43.3654 H   0  0  0  0  0  0  0  0  0  0  0  0
   43.7872   31.8853   48.2456 H   0  0  0  0  0  0  0  0  0  0  0  0
   45.1752   30.5689   50.1626 H   0  0  0  0  0  0  0  0  0  0  0  0
   47.7714   30.9384   49.6277 H   0  0  0  0  0  0  0  0  0  0  0  0
  1  6  2  0
  2  3  2  0
  2  1  1  0
  3  4  1  0
  4  5  2  0
  5  7  1  0
  6  5  1  0
  7 11  1  0
  7  8  2  0
  8  9  1  0
 10  9  2  0
 11 10  1  0
 12 14  1  0
 12  2  1  0
 13 12  1  0
 15 12  1  0
  1 16  1  0
  3 17  1  0
  8 18  1  0
  9 19  1  0
 10 20  1  0
M  ISO  5  16  14  17  14  18  14  19  14  20  14
M  END
>  <minimizedAffinity>  (1) 
-5.22939539

>  <minimizedRMSD>  (1) 
0.294561714

$$$$
