
     RDKit          3D

 16 16  0  0  0  0  0  0  0  0999 V2000
   44.7930   35.2250   45.1080 C   0  0  0  0  0  0  0  0  0  0  0  0
   45.6680   34.8330   44.0890 C   0  0  0  0  0  0  0  0  0  0  0  0
   46.4640   33.7140   44.2930 C   0  0  0  0  0  0  0  0  0  0  0  0
   46.3530   33.0460   45.4780 N   0  0  0  0  0  0  0  0  0  0  0  0
   45.5050   33.4430   46.4370 C   0  0  0  0  0  0  0  0  0  0  0  0
   44.7310   34.5220   46.2560 N   0  0  0  0  0  0  0  0  0  0  0  0
   45.6810   35.6530   42.8580 C   0  0  0  0  0  0  0  0  0  0  0  0
   46.9490   35.6530   42.3030 F   0  0  0  0  0  0  0  0  0  0  0  0
   45.3120   36.9650   43.0570 F   0  0  0  0  0  0  0  0  0  0  0  0
   44.8480   35.1310   41.8760 F   0  0  0  0  0  0  0  0  0  0  0  0
   45.4630   32.6620   47.6630 C   0  0  0  0  0  0  0  0  0  0  0  0
   46.5650   32.4500   48.2620 O   0  0  0  0  0  0  0  0  0  0  0  0
   44.3420   32.1270   48.2420 O   0  0  0  0  0  0  0  0  0  0  0  0
   44.1537   36.1097   44.9716 H   0  0  0  0  0  0  0  0  0  0  0  0
   47.1671   33.3740   43.5184 H   0  0  0  0  0  0  0  0  0  0  0  0
   44.4182   31.6080   49.0816 H   0  0  0  0  0  0  0  0  0  0  0  0
  1  6  2  0
  2  3  2  0
  2  1  1  0
  3  4  1  0
  4  5  2  0
  5 11  1  0
  6  5  1  0
  7  9  1  0
  7  2  1  0
  8  7  1  0
 10  7  1  0
 11 13  1  0
 11 12  2  0
  1 14  1  0
  3 15  1  0
 13 16  1  0
M  ISO  3  14  14  15  14  16   3
M  END
>  <minimizedAffinity>  (1) 
-4.71414995

>  <minimizedRMSD>  (1) 
0.560618699

$$$$
