
     RDKit          3D

 16 16  0  0  0  0  0  0  0  0999 V2000
   44.9700   34.9660   45.0620 C   0  0  0  0  0  0  0  0  0  0  0  0
   45.8400   34.7170   43.9830 C   0  0  0  0  0  0  0  0  0  0  0  0
   46.7760   33.6970   44.0790 C   0  0  0  0  0  0  0  0  0  0  0  0
   46.8040   32.9810   45.2320 N   0  0  0  0  0  0  0  0  0  0  0  0
   45.9760   33.2200   46.2550 C   0  0  0  0  0  0  0  0  0  0  0  0
   45.0580   34.2130   46.1740 N   0  0  0  0  0  0  0  0  0  0  0  0
   45.6740   35.5950   42.7970 C   0  0  0  0  0  0  0  0  0  0  0  0
   46.9040   35.7380   42.1400 F   0  0  0  0  0  0  0  0  0  0  0  0
   45.2460   36.8730   43.1080 F   0  0  0  0  0  0  0  0  0  0  0  0
   44.8190   35.0700   41.8610 F   0  0  0  0  0  0  0  0  0  0  0  0
   46.1170   32.3480   47.4730 C   0  0  0  0  0  0  0  0  0  0  0  0
   45.3540   32.8420   48.4910 F   0  0  0  0  0  0  0  0  0  0  0  0
   45.8080   31.0360   47.1440 F   0  0  0  0  0  0  0  0  0  0  0  0
   47.4620   32.4110   47.8250 F   0  0  0  0  0  0  0  0  0  0  0  0
   44.2232   35.7709   44.9964 H   0  0  0  0  0  0  0  0  0  0  0  0
   47.4683   33.4772   43.2529 H   0  0  0  0  0  0  0  0  0  0  0  0
  1  6  2  0
  2  3  2  0
  2  1  1  0
  3  4  1  0
  4  5  2  0
  5 11  1  0
  6  5  1  0
  7  9  1  0
  7  2  1  0
  8  7  1  0
 10  7  1  0
 11 14  1  0
 11 12  1  0
 13 11  1  0
  1 15  1  0
  3 16  1  0
M  ISO  2  15  14  16  14
M  END
>  <minimizedAffinity>  (1) 
-4.63172674

>  <minimizedRMSD>  (1) 
0.0690578818

$$$$
