
     RDKit          3D

 14 14  0  0  0  0  0  0  0  0999 V2000
   44.8100   35.2050   45.0900 C   0  0  0  0  0  0  0  0  0  0  0  0
   45.6820   34.8240   44.0650 C   0  0  0  0  0  0  0  0  0  0  0  0
   46.4910   33.7110   44.2550 C   0  0  0  0  0  0  0  0  0  0  0  0
   46.3900   33.0490   45.4360 N   0  0  0  0  0  0  0  0  0  0  0  0
   45.5490   33.4260   46.4110 C   0  0  0  0  0  0  0  0  0  0  0  0
   44.7580   34.5050   46.2410 N   0  0  0  0  0  0  0  0  0  0  0  0
   45.6750   35.6490   42.8390 C   0  0  0  0  0  0  0  0  0  0  0  0
   46.9570   35.6690   42.2780 F   0  0  0  0  0  0  0  0  0  0  0  0
   45.3060   36.9630   43.0620 F   0  0  0  0  0  0  0  0  0  0  0  0
   44.8510   35.1450   41.8620 F   0  0  0  0  0  0  0  0  0  0  0  0
   45.5780   32.4050   47.8940 S   0  0  0  0  0  0  0  0  0  0  0  0
   44.1612   36.0831   44.9559 H   0  0  0  0  0  0  0  0  0  0  0  0
   47.1904   33.3770   43.4744 H   0  0  0  0  0  0  0  0  0  0  0  0
   45.5552   33.2094   49.0027 H   0  0  0  0  0  0  0  0  0  0  0  0
  1  6  2  0
  2  3  2  0
  2  1  1  0
  3  4  1  0
  4  5  2  0
  5 11  1  0
  6  5  1  0
  7  9  1  0
  7  2  1  0
  8  7  1  0
 10  7  1  0
  1 12  1  0
  3 13  1  0
 11 14  1  0
M  ISO  3  12  14  13  14  14  11
M  END
>  <minimizedAffinity>  (1) 
-3.90410376

>  <minimizedRMSD>  (1) 
0.356904864

$$$$
