
     RDKit          3D

 14 14  0  0  0  0  0  0  0  0999 V2000
   44.8920   35.0590   45.1300 C   0  0  0  0  0  0  0  0  0  0  0  0
   45.7760   34.7280   44.0840 C   0  0  0  0  0  0  0  0  0  0  0  0
   46.6300   33.6450   44.2540 C   0  0  0  0  0  0  0  0  0  0  0  0
   46.5680   32.9560   45.4250 N   0  0  0  0  0  0  0  0  0  0  0  0
   45.7150   33.2940   46.4070 C   0  0  0  0  0  0  0  0  0  0  0  0
   44.8820   34.3350   46.2650 N   0  0  0  0  0  0  0  0  0  0  0  0
   45.7240   35.5720   42.8700 C   0  0  0  0  0  0  0  0  0  0  0  0
   46.9780   35.6510   42.2930 F   0  0  0  0  0  0  0  0  0  0  0  0
   45.2640   36.8370   43.0870 F   0  0  0  0  0  0  0  0  0  0  0  0
   44.9210   35.0070   41.8870 F   0  0  0  0  0  0  0  0  0  0  0  0
   45.7410   32.5130   47.5660 O   0  0  0  0  0  0  0  0  0  0  0  0
   44.2071   35.9126   45.0188 H   0  0  0  0  0  0  0  0  0  0  0  0
   47.3367   33.3530   43.4632 H   0  0  0  0  0  0  0  0  0  0  0  0
   45.1315   32.7221   48.3176 H   0  0  0  0  0  0  0  0  0  0  0  0
  1  6  2  0
  2  3  2  0
  2  1  1  0
  3  4  1  0
  4  5  2  0
  5 11  1  0
  6  5  1  0
  7  9  1  0
  7  2  1  0
  8  7  1  0
 10  7  1  0
  1 12  1  0
  3 13  1  0
 11 14  1  0
M  ISO  3  12  14  13  14  14   3
M  END
>  <minimizedAffinity>  (1) 
-3.84309316

>  <minimizedRMSD>  (1) 
0.206270188

$$$$
