
     RDKit          3D

 29 31  0  0  0  0  0  0  0  0999 V2000
   44.5800   35.5970   44.7710 C   0  0  0  0  0  0  0  0  0  0  0  0
   45.3640   34.8550   43.8910 C   0  0  0  0  0  0  0  0  0  0  0  0
   46.0090   33.7150   44.3560 C   0  0  0  0  0  0  0  0  0  0  0  0
   45.8380   33.3780   45.6710 N   0  0  0  0  0  0  0  0  0  0  0  0
   45.0800   34.1040   46.4980 C   0  0  0  0  0  0  0  0  0  0  0  0
   44.4550   35.2030   46.0610 N   0  0  0  0  0  0  0  0  0  0  0  0
   45.0120   33.5850   47.8100 N   0  0  0  0  0  0  0  0  0  0  0  0
   46.8640   32.9340   43.4490 C   0  0  0  0  0  0  0  0  0  0  0  0
   46.3640   31.7080   42.9990 C   0  0  0  0  0  0  0  0  0  0  0  0
   47.3180   31.1280   42.2250 N   0  0  0  0  0  0  0  0  0  0  0  0
   48.4160   31.9370   42.1590 C   0  0  0  0  0  0  0  0  0  0  0  0
   49.6660   31.9070   41.5470 C   0  0  0  0  0  0  0  0  0  0  0  0
   50.5430   32.9800   41.7280 C   0  0  0  0  0  0  0  0  0  0  0  0
   50.2180   34.0900   42.5010 C   0  0  0  0  0  0  0  0  0  0  0  0
   48.9800   34.1500   43.1260 C   0  0  0  0  0  0  0  0  0  0  0  0
   48.1450   33.0700   42.9190 C   0  0  0  0  0  0  0  0  0  0  0  0
   45.4770   35.3380   42.4850 C   0  0  0  0  0  0  0  0  0  0  0  0
   46.7190   35.8830   42.2580 F   0  0  0  0  0  0  0  0  0  0  0  0
   44.5290   36.2910   42.1780 F   0  0  0  0  0  0  0  0  0  0  0  0
   45.3420   34.2990   41.5900 F   0  0  0  0  0  0  0  0  0  0  0  0
   44.0629   36.5018   44.4190 H   0  0  0  0  0  0  0  0  0  0  0  0
   44.4533   34.0693   48.5271 H   0  0  0  0  0  0  0  0  0  0  0  0
   45.5211   32.7222   48.0496 H   0  0  0  0  0  0  0  0  0  0  0  0
   45.3741   31.2879   43.2306 H   0  0  0  0  0  0  0  0  0  0  0  0
   47.2267   30.2146   41.7578 H   0  0  0  0  0  0  0  0  0  0  0  0
   49.9605   31.0473   40.9271 H   0  0  0  0  0  0  0  0  0  0  0  0
   51.5284   32.9455   41.2404 H   0  0  0  0  0  0  0  0  0  0  0  0
   50.9371   34.9144   42.6162 H   0  0  0  0  0  0  0  0  0  0  0  0
   48.6821   35.0064   43.7487 H   0  0  0  0  0  0  0  0  0  0  0  0
  1  6  2  0
  2  3  2  0
  2  1  1  0
  3  4  1  0
  4  5  2  0
  5  7  1  0
  6  5  1  0
  8  3  1  0
  9  8  2  0
 10  9  1  0
 11 10  1  0
 11 16  2  0
 12 13  2  0
 12 11  1  0
 13 14  1  0
 14 15  2  0
 16 15  1  0
 16  8  1  0
 17  2  1  0
 18 17  1  0
 19 17  1  0
 20 17  1  0
  1 21  1  0
  7 22  1  0
  7 23  1  0
  9 24  1  0
 10 25  1  0
 12 26  1  0
 13 27  1  0
 14 28  1  0
 15 29  1  0
M  ISO  7  21  14  24  14  25   9  26  14  27  14  28  14  29  14
M  END
>  <minimizedAffinity>  (1) 
-5.89533663

>  <minimizedRMSD>  (1) 
0.705891967

$$$$
