
     RDKit          3D

 28 29  0  0  0  0  0  0  0  0999 V2000
   44.5620   35.7310   44.9910 C   0  0  0  0  0  0  0  0  0  0  0  0
   45.3790   35.1980   43.9800 C   0  0  0  0  0  0  0  0  0  0  0  0
   46.0670   34.0100   44.2140 C   0  0  0  0  0  0  0  0  0  0  0  0
   45.9070   33.4160   45.4370 N   0  0  0  0  0  0  0  0  0  0  0  0
   45.1220   33.9430   46.3870 C   0  0  0  0  0  0  0  0  0  0  0  0
   44.4670   35.0760   46.1640 N   0  0  0  0  0  0  0  0  0  0  0  0
   45.0890   33.2020   47.5890 N   0  0  0  0  0  0  0  0  0  0  0  0
   49.0890   32.2050   41.8240 C   0  0  0  0  0  0  0  0  0  0  0  0
   47.8190   31.6800   41.7410 C   0  0  0  0  0  0  0  0  0  0  0  0
   46.7900   32.2240   42.4690 C   0  0  0  0  0  0  0  0  0  0  0  0
   46.9120   33.2940   43.3170 C   0  0  0  0  0  0  0  0  0  0  0  0
   48.2190   33.8090   43.3820 C   0  0  0  0  0  0  0  0  0  0  0  0
   49.2910   33.2840   42.6560 C   0  0  0  0  0  0  0  0  0  0  0  0
   50.3040   31.4180   40.8450 S   0  0  0  0  0  0  0  0  0  0  0  0
   51.6760   31.9650   41.0770 O   0  0  0  0  0  0  0  0  0  0  0  0
   49.9860   31.6350   39.3940 O   0  0  0  0  0  0  0  0  0  0  0  0
   45.4390   35.9200   42.6930 C   0  0  0  0  0  0  0  0  0  0  0  0
   46.7110   36.0840   42.2670 F   0  0  0  0  0  0  0  0  0  0  0  0
   44.8280   37.1490   42.7450 F   0  0  0  0  0  0  0  0  0  0  0  0
   44.8000   35.2180   41.6590 F   0  0  0  0  0  0  0  0  0  0  0  0
   44.0091   36.6677   44.8273 H   0  0  0  0  0  0  0  0  0  0  0  0
   44.5134   33.5272   48.3788 H   0  0  0  0  0  0  0  0  0  0  0  0
   45.6405   32.3364   47.6757 H   0  0  0  0  0  0  0  0  0  0  0  0
   47.6272   30.8174   41.0859 H   0  0  0  0  0  0  0  0  0  0  0  0
   45.7946   31.7677   42.3641 H   0  0  0  0  0  0  0  0  0  0  0  0
   48.4072   34.6708   44.0392 H   0  0  0  0  0  0  0  0  0  0  0  0
   50.2921   33.7304   42.7484 H   0  0  0  0  0  0  0  0  0  0  0  0
   50.2894   30.0926   41.1915 H   0  0  0  0  0  0  0  0  0  0  0  0
  1  6  2  0
  2  3  2  0
  2  1  1  0
  3  4  1  0
  4  5  2  0
  5  7  1  0
  6  5  1  0
  8 13  2  0
  9  8  1  0
  9 10  2  0
 10 11  1  0
 11 12  2  0
 11  3  1  0
 13 12  1  0
 14 15  2  0
 14  8  1  0
 16 14  2  0
 17 19  1  0
 17  2  1  0
 18 17  1  0
 20 17  1  0
  1 21  1  0
  7 22  1  0
  7 23  1  0
  9 24  1  0
 10 25  1  0
 12 26  1  0
 13 27  1  0
 14 28  1  0
M  ISO  6  21  14  24  14  25  14  26  14  27  14  28  11
M  END
>  <minimizedAffinity>  (1) 
-5.26818371

>  <minimizedRMSD>  (1) 
0.95384407

$$$$
