
     RDKit          3D

 24 25  0  0  0  0  0  0  0  0999 V2000
   44.5940   35.7070   44.9490 C   0  0  0  0  0  0  0  0  0  0  0  0
   45.3760   35.0750   43.9870 C   0  0  0  0  0  0  0  0  0  0  0  0
   45.9920   33.8640   44.3060 C   0  0  0  0  0  0  0  0  0  0  0  0
   45.8010   33.3550   45.5440 N   0  0  0  0  0  0  0  0  0  0  0  0
   45.0490   33.9740   46.4550 C   0  0  0  0  0  0  0  0  0  0  0  0
   44.4460   35.1450   46.1640 N   0  0  0  0  0  0  0  0  0  0  0  0
   44.9520   33.3100   47.6980 N   0  0  0  0  0  0  0  0  0  0  0  0
   46.8140   33.1880   43.3080 C   0  0  0  0  0  0  0  0  0  0  0  0
   48.1710   33.4190   43.3610 C   0  0  0  0  0  0  0  0  0  0  0  0
   49.0810   32.8600   42.4990 C   0  0  0  0  0  0  0  0  0  0  0  0
   48.6370   32.0060   41.5040 C   0  0  0  0  0  0  0  0  0  0  0  0
   47.2880   31.7940   41.4730 C   0  0  0  0  0  0  0  0  0  0  0  0
   46.4010   32.3430   42.3180 N   0  0  0  0  0  0  0  0  0  0  0  0
   45.5190   35.7320   42.6600 C   0  0  0  0  0  0  0  0  0  0  0  0
   46.8440   35.8530   42.3170 F   0  0  0  0  0  0  0  0  0  0  0  0
   44.9580   36.9830   42.6340 F   0  0  0  0  0  0  0  0  0  0  0  0
   44.9330   34.9890   41.6530 F   0  0  0  0  0  0  0  0  0  0  0  0
   44.0987   36.6617   44.7181 H   0  0  0  0  0  0  0  0  0  0  0  0
   44.3904   33.7195   48.4582 H   0  0  0  0  0  0  0  0  0  0  0  0
   45.4428   32.4164   47.8442 H   0  0  0  0  0  0  0  0  0  0  0  0
   48.5489   34.0938   44.1432 H   0  0  0  0  0  0  0  0  0  0  0  0
   50.1525   33.0883   42.5978 H   0  0  0  0  0  0  0  0  0  0  0  0
   49.3234   31.5309   40.7877 H   0  0  0  0  0  0  0  0  0  0  0  0
   46.8981   31.1211   40.6951 H   0  0  0  0  0  0  0  0  0  0  0  0
  1  6  2  0
  2  3  2  0
  2  1  1  0
  3  4  1  0
  4  5  2  0
  5  7  1  0
  6  5  1  0
  8  9  2  0
  8  3  1  0
 10  9  1  0
 11 10  2  0
 12 11  1  0
 12 13  2  0
 13  8  1  0
 14  2  1  0
 15 14  1  0
 16 14  1  0
 17 14  1  0
  1 18  1  0
  7 19  1  0
  7 20  1  0
  9 21  1  0
 10 22  1  0
 11 23  1  0
 12 24  1  0
M  ISO  5  18  14  21  14  22  14  23  14  24  14
M  END
>  <minimizedAffinity>  (1) 
-5.09870958

>  <minimizedRMSD>  (1) 
0.679382503

$$$$
