
     RDKit          3D

 25 26  0  0  0  0  0  0  0  0999 V2000
   44.5920   35.6300   44.9220 C   0  0  0  0  0  0  0  0  0  0  0  0
   45.4520   35.0100   44.0010 C   0  0  0  0  0  0  0  0  0  0  0  0
   46.1180   33.8440   44.3790 C   0  0  0  0  0  0  0  0  0  0  0  0
   45.8870   33.3660   45.6420 N   0  0  0  0  0  0  0  0  0  0  0  0
   45.0660   33.9740   46.4950 C   0  0  0  0  0  0  0  0  0  0  0  0
   44.4340   35.0840   46.1340 N   0  0  0  0  0  0  0  0  0  0  0  0
   44.9570   33.3280   47.7540 N   0  0  0  0  0  0  0  0  0  0  0  0
   47.0610   33.1250   43.5390 C   0  0  0  0  0  0  0  0  0  0  0  0
   48.3840   33.2690   43.2050 C   0  0  0  0  0  0  0  0  0  0  0  0
   49.0390   32.3970   42.3820 C   0  0  0  0  0  0  0  0  0  0  0  0
   48.4250   31.3090   41.8240 C   0  0  0  0  0  0  0  0  0  0  0  0
   47.0980   31.1210   42.1270 C   0  0  0  0  0  0  0  0  0  0  0  0
   46.4470   32.0060   42.9590 C   0  0  0  0  0  0  0  0  0  0  0  0
   45.6180   35.6310   42.6690 C   0  0  0  0  0  0  0  0  0  0  0  0
   46.9230   35.9310   42.4140 F   0  0  0  0  0  0  0  0  0  0  0  0
   44.8790   36.7870   42.5280 F   0  0  0  0  0  0  0  0  0  0  0  0
   45.2010   34.7780   41.6510 F   0  0  0  0  0  0  0  0  0  0  0  0
   44.0557   36.5514   44.6512 H   0  0  0  0  0  0  0  0  0  0  0  0
   44.3454   33.7214   48.4834 H   0  0  0  0  0  0  0  0  0  0  0  0
   45.4895   32.4658   47.9383 H   0  0  0  0  0  0  0  0  0  0  0  0
   48.9412   34.1231   43.6175 H   0  0  0  0  0  0  0  0  0  0  0  0
   50.1012   32.5766   42.1594 H   0  0  0  0  0  0  0  0  0  0  0  0
   48.9683   30.6171   41.1637 H   0  0  0  0  0  0  0  0  0  0  0  0
   46.5545   30.2629   41.7049 H   0  0  0  0  0  0  0  0  0  0  0  0
   45.3850   31.8240   43.1807 H   0  0  0  0  0  0  0  0  0  0  0  0
  1  6  2  0
  2  3  2  0
  2  1  1  0
  3  4  1  0
  4  5  2  0
  5  7  1  0
  6  5  1  0
  8  3  1  0
  9  8  2  0
 10  9  1  0
 11 12  1  0
 11 10  2  0
 12 13  2  0
 13  8  1  0
 14  2  1  0
 15 14  1  0
 16 14  1  0
 17 14  1  0
  1 18  1  0
  7 19  1  0
  7 20  1  0
  9 21  1  0
 10 22  1  0
 11 23  1  0
 12 24  1  0
 13 25  1  0
M  ISO  6  18  14  21  14  22  14  23  14  24  14  25  14
M  END
>  <minimizedAffinity>  (1) 
-5.05892134

>  <minimizedRMSD>  (1) 
0.319176823

$$$$
