
     RDKit          3D

 23 24  0  0  0  0  0  0  0  0999 V2000
   44.6070   35.7390   45.0070 C   0  0  0  0  0  0  0  0  0  0  0  0
   45.3370   35.0960   44.0050 C   0  0  0  0  0  0  0  0  0  0  0  0
   45.9070   33.8550   44.2850 C   0  0  0  0  0  0  0  0  0  0  0  0
   45.7350   33.3190   45.5130 N   0  0  0  0  0  0  0  0  0  0  0  0
   45.0220   33.9650   46.4630 C   0  0  0  0  0  0  0  0  0  0  0  0
   44.4640   35.1680   46.2070 N   0  0  0  0  0  0  0  0  0  0  0  0
   44.9540   33.2410   47.6870 N   0  0  0  0  0  0  0  0  0  0  0  0
   46.6720   33.1690   43.2500 C   0  0  0  0  0  0  0  0  0  0  0  0
   48.0270   33.3120   43.4470 C   0  0  0  0  0  0  0  0  0  0  0  0
   48.9400   32.7250   42.5620 C   0  0  0  0  0  0  0  0  0  0  0  0
   48.4510   32.0250   41.5210 N   0  0  0  0  0  0  0  0  0  0  0  0
   47.1170   31.8960   41.3420 C   0  0  0  0  0  0  0  0  0  0  0  0
   46.2650   32.4550   42.1860 N   0  0  0  0  0  0  0  0  0  0  0  0
   45.4660   35.7730   42.6960 C   0  0  0  0  0  0  0  0  0  0  0  0
   46.7820   35.8030   42.2790 F   0  0  0  0  0  0  0  0  0  0  0  0
   45.0080   37.0670   42.7110 F   0  0  0  0  0  0  0  0  0  0  0  0
   44.7790   35.1040   41.6990 F   0  0  0  0  0  0  0  0  0  0  0  0
   44.1481   36.7187   44.8080 H   0  0  0  0  0  0  0  0  0  0  0  0
   44.4373   33.6311   48.4881 H   0  0  0  0  0  0  0  0  0  0  0  0
   45.4215   32.3271   47.7714 H   0  0  0  0  0  0  0  0  0  0  0  0
   48.3954   33.8918   44.3061 H   0  0  0  0  0  0  0  0  0  0  0  0
   50.0243   32.8326   42.7129 H   0  0  0  0  0  0  0  0  0  0  0  0
   46.7360   31.3202   40.4856 H   0  0  0  0  0  0  0  0  0  0  0  0
  1  6  2  0
  2  3  2  0
  2  1  1  0
  3  4  1  0
  4  5  2  0
  5  7  1  0
  6  5  1  0
  8  9  2  0
  8  3  1  0
 10  9  1  0
 11 10  2  0
 12 11  1  0
 12 13  2  0
 13  8  1  0
 14 16  1  0
 14  2  1  0
 15 14  1  0
 17 14  1  0
  1 18  1  0
  7 19  1  0
  7 20  1  0
  9 21  1  0
 10 22  1  0
 12 23  1  0
M  ISO  4  18  14  21  14  22  14  23  14
M  END
>  <minimizedAffinity>  (1) 
-5.00545359

>  <minimizedRMSD>  (1) 
0.667160094

$$$$
