
     RDKit          3D

 22 23  0  0  0  0  0  0  0  0999 V2000
   44.6060   35.7020   44.9680 C   0  0  0  0  0  0  0  0  0  0  0  0
   45.3550   35.0380   44.0030 C   0  0  0  0  0  0  0  0  0  0  0  0
   45.9250   33.8130   44.3450 C   0  0  0  0  0  0  0  0  0  0  0  0
   45.7320   33.3200   45.5870 N   0  0  0  0  0  0  0  0  0  0  0  0
   44.9990   33.9900   46.5020 C   0  0  0  0  0  0  0  0  0  0  0  0
   44.4470   35.1640   46.1920 N   0  0  0  0  0  0  0  0  0  0  0  0
   44.9120   33.3080   47.7510 N   0  0  0  0  0  0  0  0  0  0  0  0
   46.7130   33.1040   43.3440 C   0  0  0  0  0  0  0  0  0  0  0  0
   48.0890   33.1910   43.4020 C   0  0  0  0  0  0  0  0  0  0  0  0
   48.6120   32.4380   42.3500 C   0  0  0  0  0  0  0  0  0  0  0  0
   47.5450   31.9250   41.6990 N   0  0  0  0  0  0  0  0  0  0  0  0
   46.4120   32.3170   42.2840 N   0  0  0  0  0  0  0  0  0  0  0  0
   45.5050   35.6660   42.6710 C   0  0  0  0  0  0  0  0  0  0  0  0
   46.8190   35.7580   42.3040 F   0  0  0  0  0  0  0  0  0  0  0  0
   44.9230   36.9060   42.5910 F   0  0  0  0  0  0  0  0  0  0  0  0
   44.8940   34.8830   41.6820 F   0  0  0  0  0  0  0  0  0  0  0  0
   44.1416   36.6705   44.7306 H   0  0  0  0  0  0  0  0  0  0  0  0
   44.3779   33.7226   48.5280 H   0  0  0  0  0  0  0  0  0  0  0  0
   45.3833   32.4007   47.8763 H   0  0  0  0  0  0  0  0  0  0  0  0
   48.6709   33.7545   44.1462 H   0  0  0  0  0  0  0  0  0  0  0  0
   49.6737   32.2922   42.1020 H   0  0  0  0  0  0  0  0  0  0  0  0
   47.5987   31.3175   40.8689 H   0  0  0  0  0  0  0  0  0  0  0  0
  1  6  2  0
  2  3  2  0
  2  1  1  0
  3  4  1  0
  4  5  2  0
  5  7  1  0
  6  5  1  0
  8  9  1  0
  8  3  1  0
 10  9  2  0
 11 12  1  0
 11 10  1  0
 12  8  2  0
 13  2  1  0
 14 13  1  0
 15 13  1  0
 16 13  1  0
  1 17  1  0
  7 18  1  0
  7 19  1  0
  9 20  1  0
 10 21  1  0
 11 22  1  0
M  ISO  4  17  14  20  14  21  14  22   9
M  END
>  <minimizedAffinity>  (1) 
-4.87134933

>  <minimizedRMSD>  (1) 
0.635578632

$$$$
