
     RDKit          3D

 27 28  0  0  0  0  0  0  0  0999 V2000
   44.6000   35.6170   45.0070 C   0  0  0  0  0  0  0  0  0  0  0  0
   45.4280   35.0320   44.0580 C   0  0  0  0  0  0  0  0  0  0  0  0
   46.0940   33.8500   44.3780 C   0  0  0  0  0  0  0  0  0  0  0  0
   45.9080   33.3030   45.6130 N   0  0  0  0  0  0  0  0  0  0  0  0
   45.0930   33.9040   46.5070 C   0  0  0  0  0  0  0  0  0  0  0  0
   44.4510   35.0320   46.2170 N   0  0  0  0  0  0  0  0  0  0  0  0
   44.9970   33.2200   47.7520 N   0  0  0  0  0  0  0  0  0  0  0  0
   46.9760   33.1530   43.4790 N   0  0  0  0  0  0  0  0  0  0  0  0
   48.3820   33.2050   43.0900 C   0  0  0  0  0  0  0  0  0  0  0  0
   48.7270   31.7530   42.9000 C   0  0  0  0  0  0  0  0  0  0  0  0
   47.4180   31.0020   42.8100 C   0  0  0  0  0  0  0  0  0  0  0  0
   46.4050   32.0890   42.6730 C   0  0  0  0  0  0  0  0  0  0  0  0
   45.5750   35.6920   42.7430 C   0  0  0  0  0  0  0  0  0  0  0  0
   46.8780   35.8760   42.3980 F   0  0  0  0  0  0  0  0  0  0  0  0
   44.9500   36.9210   42.6950 F   0  0  0  0  0  0  0  0  0  0  0  0
   45.0010   34.9330   41.7210 F   0  0  0  0  0  0  0  0  0  0  0  0
   44.0680   36.5516   44.7756 H   0  0  0  0  0  0  0  0  0  0  0  0
   44.4002   33.5970   48.5020 H   0  0  0  0  0  0  0  0  0  0  0  0
   45.5244   32.3482   47.9026 H   0  0  0  0  0  0  0  0  0  0  0  0
   48.5142   33.7696   42.1553 H   0  0  0  0  0  0  0  0  0  0  0  0
   49.0205   33.7122   43.8283 H   0  0  0  0  0  0  0  0  0  0  0  0
   49.3051   31.6190   41.9738 H   0  0  0  0  0  0  0  0  0  0  0  0
   49.3398   31.3802   43.7340 H   0  0  0  0  0  0  0  0  0  0  0  0
   47.4044   30.3383   41.9329 H   0  0  0  0  0  0  0  0  0  0  0  0
   47.2354   30.3514   43.6780 H   0  0  0  0  0  0  0  0  0  0  0  0
   46.2951   32.4002   41.6237 H   0  0  0  0  0  0  0  0  0  0  0  0
   45.3954   31.7906   42.9917 H   0  0  0  0  0  0  0  0  0  0  0  0
  1  6  2  0
  2  3  2  0
  2  1  1  0
  3  4  1  0
  4  5  2  0
  5  7  1  0
  6  5  1  0
  8  3  1  0
  9  8  1  0
 10  9  1  0
 11 10  1  0
 12 11  1  0
 12  8  1  0
 13  2  1  0
 14 13  1  0
 15 13  1  0
 16 13  1  0
  1 17  1  0
  7 18  1  0
  7 19  1  0
  9 20  1  0
  9 21  1  0
 10 22  1  0
 10 23  1  0
 11 24  1  0
 11 25  1  0
 12 26  1  0
 12 27  1  0
M  ISO  8  17  14  20  13  21  13  22  13  23  13  24  13  25  13  26  13
M  ISO  1  27  13
M  END
>  <minimizedAffinity>  (1) 
-4.83900881

>  <minimizedRMSD>  (1) 
0.500291884

$$$$
