
     RDKit          3D

 22 23  0  0  0  0  0  0  0  0999 V2000
   44.6010   35.6050   44.8860 C   0  0  0  0  0  0  0  0  0  0  0  0
   45.5080   34.9690   44.0130 C   0  0  0  0  0  0  0  0  0  0  0  0
   46.1940   33.8330   44.4320 C   0  0  0  0  0  0  0  0  0  0  0  0
   45.9160   33.4210   45.7140 N   0  0  0  0  0  0  0  0  0  0  0  0
   45.0640   34.0250   46.5170 C   0  0  0  0  0  0  0  0  0  0  0  0
   44.4130   35.1010   46.1150 N   0  0  0  0  0  0  0  0  0  0  0  0
   44.9340   33.3480   47.7430 N   0  0  0  0  0  0  0  0  0  0  0  0
   47.0940   33.0730   43.6310 C   0  0  0  0  0  0  0  0  0  0  0  0
   46.6210   31.8580   43.0830 C   0  0  0  0  0  0  0  0  0  0  0  0
   47.5480   31.1640   42.4080 N   0  0  0  0  0  0  0  0  0  0  0  0
   48.6760   31.8710   42.4680 C   0  0  0  0  0  0  0  0  0  0  0  0
   48.3310   32.9420   43.1800 N   0  0  0  0  0  0  0  0  0  0  0  0
   45.7150   35.5720   42.6670 C   0  0  0  0  0  0  0  0  0  0  0  0
   47.0300   35.8130   42.4190 F   0  0  0  0  0  0  0  0  0  0  0  0
   45.0620   36.7920   42.5220 F   0  0  0  0  0  0  0  0  0  0  0  0
   45.2100   34.7580   41.6790 F   0  0  0  0  0  0  0  0  0  0  0  0
   44.0544   36.5033   44.5631 H   0  0  0  0  0  0  0  0  0  0  0  0
   44.2982   33.7116   48.4672 H   0  0  0  0  0  0  0  0  0  0  0  0
   45.4746   32.4886   47.9166 H   0  0  0  0  0  0  0  0  0  0  0  0
   45.5832   31.5128   43.2005 H   0  0  0  0  0  0  0  0  0  0  0  0
   49.6569   31.6281   42.0335 H   0  0  0  0  0  0  0  0  0  0  0  0
   49.0300   33.6715   43.3805 H   0  0  0  0  0  0  0  0  0  0  0  0
  1  6  2  0
  2  3  2  0
  2  1  1  0
  3  4  1  0
  4  5  2  0
  5  7  1  0
  6  5  1  0
  8  3  1  0
  9  8  2  0
 10 11  2  0
 10  9  1  0
 11 12  1  0
 12  8  1  0
 13  2  1  0
 14 13  1  0
 15 13  1  0
 16 13  1  0
  1 17  1  0
  7 18  1  0
  7 19  1  0
  9 20  1  0
 11 21  1  0
 12 22  1  0
M  ISO  4  17  14  20  14  21  14  22   9
M  END
>  <minimizedAffinity>  (1) 
-4.80671692

>  <minimizedRMSD>  (1) 
0.707490146

$$$$
