
     RDKit          3D

 18 18  0  0  0  0  0  0  0  0999 V2000
   44.5580   35.6350   44.9960 C   0  0  0  0  0  0  0  0  0  0  0  0
   45.4360   35.0610   44.0740 C   0  0  0  0  0  0  0  0  0  0  0  0
   46.1220   33.9060   44.4310 C   0  0  0  0  0  0  0  0  0  0  0  0
   45.9020   33.3950   45.6700 N   0  0  0  0  0  0  0  0  0  0  0  0
   45.0630   33.9570   46.5330 C   0  0  0  0  0  0  0  0  0  0  0  0
   44.3990   35.0600   46.2040 N   0  0  0  0  0  0  0  0  0  0  0  0
   44.9770   33.2640   47.7690 N   0  0  0  0  0  0  0  0  0  0  0  0
   45.6040   35.7210   42.7540 C   0  0  0  0  0  0  0  0  0  0  0  0
   46.9210   35.8710   42.4310 F   0  0  0  0  0  0  0  0  0  0  0  0
   45.0300   36.9770   42.7280 F   0  0  0  0  0  0  0  0  0  0  0  0
   45.0150   34.9930   41.7420 F   0  0  0  0  0  0  0  0  0  0  0  0
   47.0310   33.2040   43.5400 C   0  0  0  0  0  0  0  0  0  0  0  0
   46.9370   32.3680   42.6480 O   0  0  0  0  0  0  0  0  0  0  0  0
   48.3800   33.4360   43.5950 O   0  0  0  0  0  0  0  0  0  0  0  0
   44.0014   36.5481   44.7383 H   0  0  0  0  0  0  0  0  0  0  0  0
   44.3552   33.6124   48.5126 H   0  0  0  0  0  0  0  0  0  0  0  0
   45.5364   32.4128   47.9222 H   0  0  0  0  0  0  0  0  0  0  0  0
   48.9907   32.9527   42.9838 H   0  0  0  0  0  0  0  0  0  0  0  0
  1  6  2  0
  2  3  2  0
  2  1  1  0
  3  4  1  0
  4  5  2  0
  5  7  1  0
  6  5  1  0
  8  2  1  0
  9  8  1  0
 10  8  1  0
 11  8  1  0
 12 14  1  0
 12  3  1  0
 13 12  2  0
  1 15  1  0
  7 16  1  0
  7 17  1  0
 14 18  1  0
M  ISO  2  15  14  18   3
M  END
>  <minimizedAffinity>  (1) 
-4.72894478

>  <minimizedRMSD>  (1) 
0.220231369

$$$$
