
     RDKit          3D

 22 22  0  0  0  0  0  0  0  0999 V2000
   44.6300   35.6580   44.9220 C   0  0  0  0  0  0  0  0  0  0  0  0
   45.4380   34.9730   44.0070 C   0  0  0  0  0  0  0  0  0  0  0  0
   46.0230   33.7710   44.4050 C   0  0  0  0  0  0  0  0  0  0  0  0
   45.7900   33.3170   45.6530 N   0  0  0  0  0  0  0  0  0  0  0  0
   45.0070   34.0000   46.5110 C   0  0  0  0  0  0  0  0  0  0  0  0
   44.4350   35.1480   46.1600 N   0  0  0  0  0  0  0  0  0  0  0  0
   44.8830   33.3590   47.7740 N   0  0  0  0  0  0  0  0  0  0  0  0
   46.8370   33.0210   43.5320 N   0  0  0  0  0  0  0  0  0  0  0  0
   47.5270   31.8720   44.0280 C   0  0  0  0  0  0  0  0  0  0  0  0
   47.2640   31.4920   45.2400 N   0  0  0  0  0  0  0  0  0  0  0  0
   48.4870   31.1250   43.2600 N   0  0  0  0  0  0  0  0  0  0  0  0
   47.7470   30.6630   45.6300 H   0  0  0  0  0  0  0  0  0  0  0  0
   45.6280   35.5610   42.6610 C   0  0  0  0  0  0  0  0  0  0  0  0
   46.9470   35.7100   42.3640 F   0  0  0  0  0  0  0  0  0  0  0  0
   45.0140   36.7860   42.5340 F   0  0  0  0  0  0  0  0  0  0  0  0
   45.0870   34.7430   41.6740 F   0  0  0  0  0  0  0  0  0  0  0  0
   44.1551   36.6079   44.6355 H   0  0  0  0  0  0  0  0  0  0  0  0
   44.3085   33.7865   48.5143 H   0  0  0  0  0  0  0  0  0  0  0  0
   45.3677   32.4671   47.9487 H   0  0  0  0  0  0  0  0  0  0  0  0
   46.9336   33.2988   42.5449 H   0  0  0  0  0  0  0  0  0  0  0  0
   48.9516   30.3044   43.6743 H   0  0  0  0  0  0  0  0  0  0  0  0
   48.7097   31.4108   42.2958 H   0  0  0  0  0  0  0  0  0  0  0  0
  1  6  2  0
  2  3  2  0
  2  1  1  0
  3  4  1  0
  4  5  2  0
  5  7  1  0
  6  5  1  0
  8  9  1  0
  8  3  1  0
  9 10  2  0
 10 12  1  0
 11  9  1  0
 13  2  1  0
 14 13  1  0
 15 13  1  0
 16 13  1  0
  1 17  1  0
  7 18  1  0
  7 19  1  0
  8 20  1  0
 11 21  1  0
 11 22  1  0
M  ISO  1  17  14
M  END
>  <minimizedAffinity>  (1) 
-4.67814922

>  <minimizedRMSD>  (1) 
0.321040273

$$$$
