
     RDKit          3D

 22 23  0  0  0  0  0  0  0  0999 V2000
   44.6270   35.6720   44.9020 C   0  0  0  0  0  0  0  0  0  0  0  0
   45.3740   34.9690   43.9520 C   0  0  0  0  0  0  0  0  0  0  0  0
   45.9400   33.7450   44.3230 C   0  0  0  0  0  0  0  0  0  0  0  0
   45.7310   33.3080   45.5860 N   0  0  0  0  0  0  0  0  0  0  0  0
   45.0080   34.0060   46.4780 C   0  0  0  0  0  0  0  0  0  0  0  0
   44.4550   35.1870   46.1370 N   0  0  0  0  0  0  0  0  0  0  0  0
   44.9160   33.3590   47.7330 N   0  0  0  0  0  0  0  0  0  0  0  0
   45.5150   35.5780   42.5950 C   0  0  0  0  0  0  0  0  0  0  0  0
   46.8300   35.8220   42.3190 F   0  0  0  0  0  0  0  0  0  0  0  0
   44.7820   36.7020   42.4270 F   0  0  0  0  0  0  0  0  0  0  0  0
   45.1220   34.6600   41.6120 F   0  0  0  0  0  0  0  0  0  0  0  0
   46.7320   33.0110   43.3020 C   0  0  0  0  0  0  0  0  0  0  0  0
   48.2170   33.1110   43.2940 C   0  0  0  0  0  0  0  0  0  0  0  0
   47.6110   31.8860   43.8660 C   0  0  0  0  0  0  0  0  0  0  0  0
   44.1745   36.6371   44.6303 H   0  0  0  0  0  0  0  0  0  0  0  0
   44.3865   33.7966   48.5004 H   0  0  0  0  0  0  0  0  0  0  0  0
   45.3786   32.4504   47.8791 H   0  0  0  0  0  0  0  0  0  0  0  0
   45.9637   33.1382   42.5251 H   0  0  0  0  0  0  0  0  0  0  0  0
   48.7606   33.0539   42.3394 H   0  0  0  0  0  0  0  0  0  0  0  0
   48.9350   33.8553   43.6688 H   0  0  0  0  0  0  0  0  0  0  0  0
   47.6489   31.7054   44.9504 H   0  0  0  0  0  0  0  0  0  0  0  0
   47.7110   30.8054   43.6861 H   0  0  0  0  0  0  0  0  0  0  0  0
  1  6  2  0
  2  3  2  0
  2  1  1  0
  3  4  1  0
  4  5  2  0
  5  7  1  0
  6  5  1  0
  8  2  1  0
  9  8  1  0
 10  8  1  0
 11  8  1  0
 12 14  1  0
 12  3  1  0
 13 12  1  0
 13 14  1  0
  1 15  1  0
  7 16  1  0
  7 17  1  0
 12 18  1  0
 13 19  1  0
 13 20  1  0
 14 21  1  0
 14 22  1  0
M  ISO  6  15  14  18  13  19  13  20  13  21  13  22  13
M  END
>  <minimizedAffinity>  (1) 
-4.65025139

>  <minimizedRMSD>  (1) 
0.354016364

$$$$
