
     RDKit          3D

 17 17  0  0  0  0  0  0  0  0999 V2000
   44.6080   35.4790   44.9850 C   0  0  0  0  0  0  0  0  0  0  0  0
   45.5020   34.9020   44.0950 C   0  0  0  0  0  0  0  0  0  0  0  0
   46.2360   33.8020   44.5270 C   0  0  0  0  0  0  0  0  0  0  0  0
   46.0540   33.3390   45.7880 N   0  0  0  0  0  0  0  0  0  0  0  0
   45.1860   33.9180   46.6160 C   0  0  0  0  0  0  0  0  0  0  0  0
   44.4780   34.9680   46.2170 N   0  0  0  0  0  0  0  0  0  0  0  0
   45.1270   33.3240   47.8940 N   0  0  0  0  0  0  0  0  0  0  0  0
   45.6380   35.4830   42.7420 C   0  0  0  0  0  0  0  0  0  0  0  0
   46.9430   35.7660   42.4480 F   0  0  0  0  0  0  0  0  0  0  0  0
   44.9050   36.6420   42.5960 F   0  0  0  0  0  0  0  0  0  0  0  0
   45.1900   34.6080   41.7610 F   0  0  0  0  0  0  0  0  0  0  0  0
   47.1730   33.1360   43.6830 C   0  0  0  0  0  0  0  0  0  0  0  0
   48.3350   33.0600   43.2810 O   0  0  0  0  0  0  0  0  0  0  0  0
   44.0095   36.3506   44.6814 H   0  0  0  0  0  0  0  0  0  0  0  0
   44.4856   33.6993   48.6072 H   0  0  0  0  0  0  0  0  0  0  0  0
   45.7253   32.5150   48.1140 H   0  0  0  0  0  0  0  0  0  0  0  0
   46.6135   32.3437   43.1640 H   0  0  0  0  0  0  0  0  0  0  0  0
  1  6  2  0
  2  3  2  0
  2  1  1  0
  3  4  1  0
  4  5  2  0
  5  7  1  0
  6  5  1  0
  8  2  1  0
  9  8  1  0
 10  8  1  0
 11  8  1  0
 12  3  1  0
 13 12  2  0
  1 14  1  0
  7 15  1  0
  7 16  1  0
 12 17  1  0
M  ISO  2  14  14  17   6
M  END
>  <minimizedAffinity>  (1) 
-4.44250011

>  <minimizedRMSD>  (1) 
0.360651791

$$$$
