
     RDKit          3D

 44 47  0  0  1  0  0  0  0  0999 V2000
   47.6130   34.0370   42.3720 C   0  0  1  0  0  0  0  0  0  0  0  0
   48.4380   35.3510   42.2370 C   0  0  0  0  0  0  0  0  0  0  0  0
   49.8700   34.9740   42.4160 C   0  0  0  0  0  0  0  0  0  0  0  0
   49.9620   33.5210   42.6490 C   0  0  0  0  0  0  0  0  0  0  0  0
   48.5920   32.9260   42.4080 C   0  0  2  0  0  0  0  0  0  0  0  0
   44.9120   34.5730   44.9270 C   0  0  0  0  0  0  0  0  0  0  0  0
   45.6310   34.6850   43.7540 C   0  0  0  0  0  0  0  0  0  0  0  0
   46.8570   34.0670   43.6400 C   0  0  0  0  0  0  0  0  0  0  0  0
   47.3180   33.3580   44.7100 N   0  0  0  0  0  0  0  0  0  0  0  0
   46.5960   33.2560   45.8540 C   0  0  0  0  0  0  0  0  0  0  0  0
   45.4150   33.8540   45.9580 N   0  0  0  0  0  0  0  0  0  0  0  0
   47.2360   32.4350   46.8160 N   0  0  0  0  0  0  0  0  0  0  0  0
   45.0620   35.5180   42.6690 C   0  0  0  0  0  0  0  0  0  0  0  0
   45.5720   36.8010   42.7060 F   0  0  0  0  0  0  0  0  0  0  0  0
   43.7040   35.6180   42.7330 F   0  0  0  0  0  0  0  0  0  0  0  0
   45.3870   35.0960   41.4230 F   0  0  0  0  0  0  0  0  0  0  0  0
   48.6740   32.0870   41.1990 C   0  0  0  0  0  0  0  0  0  0  0  0
   48.9130   30.7270   41.2080 C   0  0  0  0  0  0  0  0  0  0  0  0
   48.9920   29.9220   40.0920 C   0  0  0  0  0  0  0  0  0  0  0  0
   48.8240   30.4830   38.8540 C   0  0  0  0  0  0  0  0  0  0  0  0
   48.5830   31.8270   38.7590 C   0  0  0  0  0  0  0  0  0  0  0  0
   48.4210   32.3790   37.5080 C   0  0  0  0  0  0  0  0  0  0  0  0
   48.1820   33.7180   37.3510 C   0  0  0  0  0  0  0  0  0  0  0  0
   48.1110   34.4980   38.4990 C   0  0  0  0  0  0  0  0  0  0  0  0
   48.2750   33.9220   39.7170 C   0  0  0  0  0  0  0  0  0  0  0  0
   48.5160   32.5800   39.9120 C   0  0  0  0  0  0  0  0  0  0  0  0
   46.9037   33.9179   41.5397 H   0  0  0  0  0  0  0  0  0  0  0  0
   48.2838   35.7957   41.2428 H   0  0  0  0  0  0  0  0  0  0  0  0
   48.1264   36.0943   42.9856 H   0  0  0  0  0  0  0  0  0  0  0  0
   50.4362   35.2383   41.5107 H   0  0  0  0  0  0  0  0  0  0  0  0
   50.2901   35.5143   43.2772 H   0  0  0  0  0  0  0  0  0  0  0  0
   50.6904   33.0762   41.9551 H   0  0  0  0  0  0  0  0  0  0  0  0
   50.2937   33.3172   43.6778 H   0  0  0  0  0  0  0  0  0  0  0  0
   48.2418   32.2564   43.2074 H   0  0  0  0  0  0  0  0  0  0  0  0
   43.9336   35.0663   45.0237 H   0  0  0  0  0  0  0  0  0  0  0  0
   46.7931   32.2737   47.7318 H   0  0  0  0  0  0  0  0  0  0  0  0
   48.1440   31.9997   46.5992 H   0  0  0  0  0  0  0  0  0  0  0  0
   49.0519   30.2460   42.1875 H   0  0  0  0  0  0  0  0  0  0  0  0
   49.1872   28.8443   40.1942 H   0  0  0  0  0  0  0  0  0  0  0  0
   48.8820   29.8618   37.9481 H   0  0  0  0  0  0  0  0  0  0  0  0
   48.4847   31.7333   36.6197 H   0  0  0  0  0  0  0  0  0  0  0  0
   48.0509   34.1603   36.3524 H   0  0  0  0  0  0  0  0  0  0  0  0
   47.9225   35.5789   38.4208 H   0  0  0  0  0  0  0  0  0  0  0  0
   48.2114   34.5681   40.6050 H   0  0  0  0  0  0  0  0  0  0  0  0
  1  5  1  0
  1  8  1  0
  2  1  1  0
  2  3  1  0
  3  4  1  0
  5  4  1  0
  6 11  2  0
  7  6  1  0
  8  7  2  0
  8  9  1  0
  9 10  2  0
 10 11  1  0
 10 12  1  0
 13 14  1  0
 13 15  1  0
 13  7  1  0
 16 13  1  0
 17 18  2  0
 17  5  1  0
 19 18  1  0
 20 19  2  0
 21 20  1  0
 21 26  2  0
 22 21  1  0
 23 22  2  0
 23 24  1  0
 24 25  2  0
 25 26  1  0
 26 17  1  0
  1 27  1  6
  2 28  1  0
  2 29  1  0
  3 30  1  0
  3 31  1  0
  4 32  1  0
  4 33  1  0
  5 34  1  1
  6 35  1  0
 12 36  1  0
 12 37  1  0
 18 38  1  0
 19 39  1  0
 20 40  1  0
 22 41  1  0
 23 42  1  0
 24 43  1  0
 25 44  1  0
M  ISO  8  27  13  28  13  29  13  30  13  31  13  32  13  33  13  34  13
M  ISO  8  35  14  38  14  39  14  40  14  41  14  42  14  43  14  44  14
M  END
>  <minimizedAffinity>  (1) 
-6.32181358

>  <minimizedRMSD>  (1) 
0.608649075

$$$$
