
     RDKit          3D

 39 41  0  0  1  0  0  0  0  0999 V2000
   47.7180   34.3820   42.2470 C   0  0  1  0  0  0  0  0  0  0  0  0
   49.1620   34.8570   42.5930 C   0  0  0  0  0  0  0  0  0  0  0  0
   50.0850   33.7740   42.1600 C   0  0  0  0  0  0  0  0  0  0  0  0
   49.2850   32.6690   41.5540 C   0  0  0  0  0  0  0  0  0  0  0  0
   47.8570   33.1380   41.4550 C   0  0  2  0  0  0  0  0  0  0  0  0
   45.0990   34.2370   44.9370 C   0  0  0  0  0  0  0  0  0  0  0  0
   45.7800   34.6420   43.8040 C   0  0  0  0  0  0  0  0  0  0  0  0
   47.0010   34.0810   43.5030 C   0  0  0  0  0  0  0  0  0  0  0  0
   47.4970   33.1360   44.3540 N   0  0  0  0  0  0  0  0  0  0  0  0
   46.8140   32.7540   45.4590 C   0  0  0  0  0  0  0  0  0  0  0  0
   45.6350   33.2910   45.7510 N   0  0  0  0  0  0  0  0  0  0  0  0
   47.5030   31.7430   46.1880 N   0  0  0  0  0  0  0  0  0  0  0  0
   45.1750   35.7150   42.9830 C   0  0  0  0  0  0  0  0  0  0  0  0
   45.9370   36.8670   43.0290 F   0  0  0  0  0  0  0  0  0  0  0  0
   43.9140   36.0450   43.3850 F   0  0  0  0  0  0  0  0  0  0  0  0
   45.1270   35.4370   41.6590 F   0  0  0  0  0  0  0  0  0  0  0  0
   47.4160   33.2050   40.0780 N   0  0  0  0  0  0  0  0  0  0  0  0
   48.1540   33.6630   39.0290 C   0  0  0  0  0  0  0  0  0  0  0  0
   47.6540   33.6930   37.7520 C   0  0  0  0  0  0  0  0  0  0  0  0
   46.3730   33.2570   37.4690 C   0  0  0  0  0  0  0  0  0  0  0  0
   45.8160   33.2700   36.1590 N   0  0  0  0  0  0  0  0  0  0  0  0
   45.7020   32.8220   38.5350 N   0  0  0  0  0  0  0  0  0  0  0  0
   46.1730   32.7870   39.7790 C   0  0  0  0  0  0  0  0  0  0  0  0
   45.3490   32.3340   40.6150 O   0  0  0  0  0  0  0  0  0  0  0  0
   47.1624   35.1497   41.6885 H   0  0  0  0  0  0  0  0  0  0  0  0
   49.3931   35.7889   42.0562 H   0  0  0  0  0  0  0  0  0  0  0  0
   49.2648   35.0567   43.6698 H   0  0  0  0  0  0  0  0  0  0  0  0
   50.7930   34.1680   41.4160 H   0  0  0  0  0  0  0  0  0  0  0  0
   50.6467   33.3950   43.0265 H   0  0  0  0  0  0  0  0  0  0  0  0
   49.6719   32.4325   40.5518 H   0  0  0  0  0  0  0  0  0  0  0  0
   49.3504   31.7620   42.1729 H   0  0  0  0  0  0  0  0  0  0  0  0
   47.1616   32.4106   41.8991 H   0  0  0  0  0  0  0  0  0  0  0  0
   44.1223   34.6813   45.1794 H   0  0  0  0  0  0  0  0  0  0  0  0
   47.0930   31.3614   47.0524 H   0  0  0  0  0  0  0  0  0  0  0  0
   48.4113   31.3934   45.8508 H   0  0  0  0  0  0  0  0  0  0  0  0
   49.1790   34.0186   39.2107 H   0  0  0  0  0  0  0  0  0  0  0  0
   48.2860   34.0722   36.9354 H   0  0  0  0  0  0  0  0  0  0  0  0
   44.8550   32.9330   36.0046 H   0  0  0  0  0  0  0  0  0  0  0  0
   46.3740   33.6164   35.3655 H   0  0  0  0  0  0  0  0  0  0  0  0
  1  2  1  0
  1  8  1  0
  3  2  1  0
  4  3  1  0
  5  4  1  0
  5  1  1  0
  6 11  2  0
  7  6  1  0
  8  7  2  0
  8  9  1  0
  9 10  2  0
 10 11  1  0
 10 12  1  0
 13 14  1  0
 13 15  1  0
 13  7  1  0
 16 13  1  0
 17  5  1  0
 18 17  1  0
 19 18  2  0
 20 19  1  0
 20 22  2  0
 21 20  1  0
 22 23  1  0
 23 17  1  0
 23 24  2  0
  1 25  1  6
  2 26  1  0
  2 27  1  0
  3 28  1  0
  3 29  1  0
  4 30  1  0
  4 31  1  0
  5 32  1  1
  6 33  1  0
 12 34  1  0
 12 35  1  0
 18 36  1  0
 19 37  1  0
 21 38  1  0
 21 39  1  0
M  ISO  8  25  13  26  13  27  13  28  13  29  13  30  13  31  13  32  13
M  ISO  3  33  14  36  14  37  14
M  END
>  <minimizedAffinity>  (1) 
-5.79155254

>  <minimizedRMSD>  (1) 
2.30715775

$$$$
