
     RDKit          3D

 41 43  0  0  1  0  0  0  0  0999 V2000
   47.4360   34.1570   42.3130 C   0  0  1  0  0  0  0  0  0  0  0  0
   48.4040   35.3720   42.2580 C   0  0  0  0  0  0  0  0  0  0  0  0
   49.7910   34.8350   42.3250 C   0  0  0  0  0  0  0  0  0  0  0  0
   49.7200   33.3450   42.4020 C   0  0  0  0  0  0  0  0  0  0  0  0
   48.2740   32.9540   42.1560 C   0  0  2  0  0  0  0  0  0  0  0  0
   44.9000   34.6370   45.0430 C   0  0  0  0  0  0  0  0  0  0  0  0
   45.5570   34.7850   43.8370 C   0  0  0  0  0  0  0  0  0  0  0  0
   46.7520   34.1400   43.6240 C   0  0  0  0  0  0  0  0  0  0  0  0
   47.2520   33.3660   44.6310 N   0  0  0  0  0  0  0  0  0  0  0  0
   46.5890   33.2330   45.8080 C   0  0  0  0  0  0  0  0  0  0  0  0
   45.4380   33.8550   46.0140 N   0  0  0  0  0  0  0  0  0  0  0  0
   47.2670   32.3600   46.7020 N   0  0  0  0  0  0  0  0  0  0  0  0
   44.9550   35.6950   42.8300 C   0  0  0  0  0  0  0  0  0  0  0  0
   45.5250   36.9510   42.8940 F   0  0  0  0  0  0  0  0  0  0  0  0
   43.6110   35.8510   42.9930 F   0  0  0  0  0  0  0  0  0  0  0  0
   45.1800   35.3250   41.5470 F   0  0  0  0  0  0  0  0  0  0  0  0
   48.2590   32.2380   40.9500 N   0  0  0  0  0  0  0  0  0  0  0  0
   47.0410   31.5240   40.7300 C   0  0  0  0  0  0  0  0  0  0  0  0
   46.2980   32.0790   39.5320 C   0  0  0  0  0  0  0  0  0  0  0  0
   46.4060   33.4650   39.5190 O   0  0  0  0  0  0  0  0  0  0  0  0
   47.7130   33.9260   39.3850 C   0  0  0  0  0  0  0  0  0  0  0  0
   48.6820   32.8190   39.7470 C   0  0  0  0  0  0  0  0  0  0  0  0
   46.6675   34.2053   41.5275 H   0  0  0  0  0  0  0  0  0  0  0  0
   48.2597   35.9263   41.3189 H   0  0  0  0  0  0  0  0  0  0  0  0
   48.2121   36.0615   43.0933 H   0  0  0  0  0  0  0  0  0  0  0  0
   50.3483   35.1338   41.4249 H   0  0  0  0  0  0  0  0  0  0  0  0
   50.3068   35.2337   43.2110 H   0  0  0  0  0  0  0  0  0  0  0  0
   50.3680   32.8962   41.6348 H   0  0  0  0  0  0  0  0  0  0  0  0
   50.0608   32.9870   43.3847 H   0  0  0  0  0  0  0  0  0  0  0  0
   47.8163   32.2643   42.8804 H   0  0  0  0  0  0  0  0  0  0  0  0
   43.9433   35.1514   45.2164 H   0  0  0  0  0  0  0  0  0  0  0  0
   46.8724   32.1694   47.6341 H   0  0  0  0  0  0  0  0  0  0  0  0
   48.1528   31.9181   46.4176 H   0  0  0  0  0  0  0  0  0  0  0  0
   47.2724   30.4637   40.5507 H   0  0  0  0  0  0  0  0  0  0  0  0
   46.4040   31.6330   41.6201 H   0  0  0  0  0  0  0  0  0  0  0  0
   46.7333   31.6689   38.6088 H   0  0  0  0  0  0  0  0  0  0  0  0
   45.2371   31.7952   39.5957 H   0  0  0  0  0  0  0  0  0  0  0  0
   47.8862   34.2384   38.3446 H   0  0  0  0  0  0  0  0  0  0  0  0
   47.8690   34.7824   40.0574 H   0  0  0  0  0  0  0  0  0  0  0  0
   48.6930   32.0597   38.9512 H   0  0  0  0  0  0  0  0  0  0  0  0
   49.6973   33.2269   39.8603 H   0  0  0  0  0  0  0  0  0  0  0  0
  1  8  1  0
  2  1  1  0
  2  3  1  0
  3  4  1  0
  5  1  1  0
  5  4  1  0
  6 11  2  0
  7  6  1  0
  8  7  2  0
  8  9  1  0
  9 10  2  0
 10 11  1  0
 10 12  1  0
 13 14  1  0
 13 15  1  0
 13  7  1  0
 16 13  1  0
 17  5  1  0
 18 17  1  0
 19 18  1  0
 20 19  1  0
 21 20  1  0
 21 22  1  0
 22 17  1  0
  1 23  1  6
  2 24  1  0
  2 25  1  0
  3 26  1  0
  3 27  1  0
  4 28  1  0
  4 29  1  0
  5 30  1  1
  6 31  1  0
 12 32  1  0
 12 33  1  0
 18 34  1  0
 18 35  1  0
 19 36  1  0
 19 37  1  0
 21 38  1  0
 21 39  1  0
 22 40  1  0
 22 41  1  0
M  ISO  8  23  13  24  13  25  13  26  13  27  13  28  13  29  13  30  13
M  ISO  8  31  14  34  13  35  13  36  13  37  13  38  13  39  13  40  13
M  ISO  1  41  13
M  END
>  <minimizedAffinity>  (1) 
-5.70567703

>  <minimizedRMSD>  (1) 
0.642222643

$$$$
