
     RDKit          3D

 41 43  0  0  1  0  0  0  0  0999 V2000
   47.3100   34.1200   42.3170 C   0  0  1  0  0  0  0  0  0  0  0  0
   48.1430   35.4160   42.0930 C   0  0  0  0  0  0  0  0  0  0  0  0
   49.5760   35.0300   42.2350 C   0  0  0  0  0  0  0  0  0  0  0  0
   49.6590   33.5690   42.5440 C   0  0  0  0  0  0  0  0  0  0  0  0
   48.2760   33.0000   42.3650 C   0  0  2  0  0  0  0  0  0  0  0  0
   44.7000   34.8110   44.9290 C   0  0  0  0  0  0  0  0  0  0  0  0
   45.3720   34.8390   43.7220 C   0  0  0  0  0  0  0  0  0  0  0  0
   46.5960   34.2140   43.6060 C   0  0  0  0  0  0  0  0  0  0  0  0
   47.0970   33.5870   44.7110 N   0  0  0  0  0  0  0  0  0  0  0  0
   46.4320   33.5700   45.8750 C   0  0  0  0  0  0  0  0  0  0  0  0
   45.2480   34.1720   45.9880 N   0  0  0  0  0  0  0  0  0  0  0  0
   47.1250   32.8520   46.8920 N   0  0  0  0  0  0  0  0  0  0  0  0
   44.7580   35.6000   42.6120 C   0  0  0  0  0  0  0  0  0  0  0  0
   45.2040   36.9090   42.5940 F   0  0  0  0  0  0  0  0  0  0  0  0
   43.3980   35.6340   42.6770 F   0  0  0  0  0  0  0  0  0  0  0  0
   45.0980   35.1490   41.3830 F   0  0  0  0  0  0  0  0  0  0  0  0
   48.2350   32.0720   41.1640 C   0  0  0  0  0  0  0  0  0  0  0  0
   49.6860   31.6530   40.9130 C   0  0  0  0  0  0  0  0  0  0  0  0
   49.9730   31.8830   39.4620 C   0  0  0  0  0  0  0  0  0  0  0  0
   48.6200   32.0350   38.8420 C   0  0  0  0  0  0  0  0  0  0  0  0
   47.8560   32.7820   39.9250 C   0  0  0  0  0  0  0  0  0  0  0  0
   46.5698   33.9736   41.5166 H   0  0  0  0  0  0  0  0  0  0  0  0
   47.8773   36.1730   42.8456 H   0  0  0  0  0  0  0  0  0  0  0  0
   47.9448   35.8490   41.1014 H   0  0  0  0  0  0  0  0  0  0  0  0
   50.1090   35.2391   41.2957 H   0  0  0  0  0  0  0  0  0  0  0  0
   50.0376   35.6085   43.0488 H   0  0  0  0  0  0  0  0  0  0  0  0
   50.3617   33.0769   41.8554 H   0  0  0  0  0  0  0  0  0  0  0  0
   50.0202   33.4054   43.5700 H   0  0  0  0  0  0  0  0  0  0  0  0
   47.9876   32.3670   43.2171 H   0  0  0  0  0  0  0  0  0  0  0  0
   43.7230   35.3065   45.0284 H   0  0  0  0  0  0  0  0  0  0  0  0
   46.7152   32.7677   47.8332 H   0  0  0  0  0  0  0  0  0  0  0  0
   48.0358   32.4173   46.6860 H   0  0  0  0  0  0  0  0  0  0  0  0
   47.5226   31.2605   41.3738 H   0  0  0  0  0  0  0  0  0  0  0  0
   50.3647   32.2588   41.5313 H   0  0  0  0  0  0  0  0  0  0  0  0
   49.8363   30.5955   41.1761 H   0  0  0  0  0  0  0  0  0  0  0  0
   50.5713   32.7954   39.3221 H   0  0  0  0  0  0  0  0  0  0  0  0
   50.5542   31.0648   39.0117 H   0  0  0  0  0  0  0  0  0  0  0  0
   48.6702   32.6208   37.9123 H   0  0  0  0  0  0  0  0  0  0  0  0
   48.1565   31.0808   38.5511 H   0  0  0  0  0  0  0  0  0  0  0  0
   48.1633   33.8374   39.9666 H   0  0  0  0  0  0  0  0  0  0  0  0
   46.7696   32.7947   39.7528 H   0  0  0  0  0  0  0  0  0  0  0  0
  1  5  1  0
  1  8  1  0
  2  3  1  0
  2  1  1  0
  3  4  1  0
  5  4  1  0
  6 11  2  0
  7  6  1  0
  8  7  2  0
  8  9  1  0
  9 10  2  0
 10 11  1  0
 10 12  1  0
 13 15  1  0
 13  7  1  0
 14 13  1  0
 16 13  1  0
 17  5  1  0
 18 17  1  0
 19 18  1  0
 20 19  1  0
 20 21  1  0
 21 17  1  0
  1 22  1  6
  2 23  1  0
  2 24  1  0
  3 25  1  0
  3 26  1  0
  4 27  1  0
  4 28  1  0
  5 29  1  1
  6 30  1  0
 12 31  1  0
 12 32  1  0
 17 33  1  0
 18 34  1  0
 18 35  1  0
 19 36  1  0
 19 37  1  0
 20 38  1  0
 20 39  1  0
 21 40  1  0
 21 41  1  0
M  ISO  8  22  13  23  13  24  13  25  13  26  13  27  13  28  13  29  13
M  ISO  8  30  14  33  13  34  13  35  13  36  13  37  13  38  13  39  13
M  ISO  2  40  13  41  13
M  END
>  <minimizedAffinity>  (1) 
-5.58308268

>  <minimizedRMSD>  (1) 
0.249292389

$$$$
