
     RDKit          3D

 42 44  0  0  1  0  0  0  0  0999 V2000
   47.4480   34.2090   42.3070 C   0  0  1  0  0  0  0  0  0  0  0  0
   48.3160   35.4990   42.2280 C   0  0  0  0  0  0  0  0  0  0  0  0
   49.7390   35.0740   42.3300 C   0  0  0  0  0  0  0  0  0  0  0  0
   49.7890   33.5860   42.4190 C   0  0  0  0  0  0  0  0  0  0  0  0
   48.3790   33.0670   42.2110 C   0  0  2  0  0  0  0  0  0  0  0  0
   44.8740   34.6270   45.0160 C   0  0  0  0  0  0  0  0  0  0  0  0
   45.5380   34.7950   43.8100 C   0  0  0  0  0  0  0  0  0  0  0  0
   46.7510   34.1750   43.6120 C   0  0  0  0  0  0  0  0  0  0  0  0
   47.2590   33.4110   44.6240 N   0  0  0  0  0  0  0  0  0  0  0  0
   46.5920   33.2590   45.7930 C   0  0  0  0  0  0  0  0  0  0  0  0
   45.4210   33.8590   45.9830 N   0  0  0  0  0  0  0  0  0  0  0  0
   47.2800   32.3980   46.6920 N   0  0  0  0  0  0  0  0  0  0  0  0
   44.9250   35.6850   42.8060 C   0  0  0  0  0  0  0  0  0  0  0  0
   45.4640   36.9560   42.8640 F   0  0  0  0  0  0  0  0  0  0  0  0
   43.5760   35.8090   42.9600 F   0  0  0  0  0  0  0  0  0  0  0  0
   45.1650   35.3180   41.5240 F   0  0  0  0  0  0  0  0  0  0  0  0
   48.3980   32.2900   41.0370 N   0  0  0  0  0  0  0  0  0  0  0  0
   47.3100   31.4940   40.6640 C   0  0  0  0  0  0  0  0  0  0  0  0
   47.3900   31.0840   39.2320 C   0  0  0  0  0  0  0  0  0  0  0  0
   48.4890   31.5780   38.4880 N   0  0  0  0  0  0  0  0  0  0  0  0
   49.7150   31.7810   39.1750 C   0  0  0  0  0  0  0  0  0  0  0  0
   49.6330   31.6640   40.6790 C   0  0  0  0  0  0  0  0  0  0  0  0
   46.6966   34.1753   41.5043 H   0  0  0  0  0  0  0  0  0  0  0  0
   48.1430   36.0125   41.2707 H   0  0  0  0  0  0  0  0  0  0  0  0
   48.0561   36.1968   43.0376 H   0  0  0  0  0  0  0  0  0  0  0  0
   50.2904   35.4102   41.4395 H   0  0  0  0  0  0  0  0  0  0  0  0
   50.1994   35.5184   43.2247 H   0  0  0  0  0  0  0  0  0  0  0  0
   50.4548   33.1857   41.6402 H   0  0  0  0  0  0  0  0  0  0  0  0
   50.1765   33.2702   43.3988 H   0  0  0  0  0  0  0  0  0  0  0  0
   47.9981   32.3799   42.9809 H   0  0  0  0  0  0  0  0  0  0  0  0
   43.9042   35.1181   45.1845 H   0  0  0  0  0  0  0  0  0  0  0  0
   46.8805   32.1969   47.6198 H   0  0  0  0  0  0  0  0  0  0  0  0
   48.1777   31.9756   46.4152 H   0  0  0  0  0  0  0  0  0  0  0  0
   47.2967   30.5915   41.2927 H   0  0  0  0  0  0  0  0  0  0  0  0
   46.3916   32.0838   40.8004 H   0  0  0  0  0  0  0  0  0  0  0  0
   47.4346   29.9853   39.2022 H   0  0  0  0  0  0  0  0  0  0  0  0
   46.4998   31.5217   38.7566 H   0  0  0  0  0  0  0  0  0  0  0  0
   48.2070   32.4844   38.0882 H   0  0  0  0  0  0  0  0  0  0  0  0
   50.4361   31.0331   38.8137 H   0  0  0  0  0  0  0  0  0  0  0  0
   50.0168   32.8176   38.9640 H   0  0  0  0  0  0  0  0  0  0  0  0
   49.6325   30.6072   40.9842 H   0  0  0  0  0  0  0  0  0  0  0  0
   50.4929   32.1372   41.1757 H   0  0  0  0  0  0  0  0  0  0  0  0
  1  8  1  0
  2  1  1  0
  2  3  1  0
  3  4  1  0
  5  1  1  0
  5  4  1  0
  6 11  2  0
  7  6  1  0
  8  7  2  0
  8  9  1  0
  9 10  2  0
 10 11  1  0
 10 12  1  0
 13 14  1  0
 13 15  1  0
 13  7  1  0
 16 13  1  0
 17  5  1  0
 18 17  1  0
 19 18  1  0
 20 21  1  0
 20 19  1  0
 21 22  1  0
 22 17  1  0
  1 23  1  6
  2 24  1  0
  2 25  1  0
  3 26  1  0
  3 27  1  0
  4 28  1  0
  4 29  1  0
  5 30  1  1
  6 31  1  0
 12 32  1  0
 12 33  1  0
 18 34  1  0
 18 35  1  0
 19 36  1  0
 19 37  1  0
 20 38  1  0
 21 39  1  0
 21 40  1  0
 22 41  1  0
 22 42  1  0
M  ISO  8  23  13  24  13  25  13  26  13  27  13  28  13  29  13  30  13
M  ISO  8  31  14  34  13  35  13  36  13  37  13  38   5  39  13  40  13
M  ISO  2  41  13  42  13
M  END
>  <minimizedAffinity>  (1) 
-5.52574301

>  <minimizedRMSD>  (1) 
0.650384188

$$$$
