
     RDKit          3D

 34 36  0  0  1  0  0  0  0  0999 V2000
   47.5040   34.2030   42.2940 C   0  0  1  0  0  0  0  0  0  0  0  0
   48.3470   35.5080   42.2200 C   0  0  0  0  0  0  0  0  0  0  0  0
   49.7770   35.1130   42.3570 C   0  0  0  0  0  0  0  0  0  0  0  0
   49.8520   33.6210   42.4230 C   0  0  0  0  0  0  0  0  0  0  0  0
   48.4620   33.0760   42.2270 C   0  0  2  0  0  0  0  0  0  0  0  0
   44.8930   34.5970   44.9710 C   0  0  0  0  0  0  0  0  0  0  0  0
   45.5710   34.7740   43.7750 C   0  0  0  0  0  0  0  0  0  0  0  0
   46.7920   34.1630   43.5930 C   0  0  0  0  0  0  0  0  0  0  0  0
   47.2920   33.4010   44.6090 N   0  0  0  0  0  0  0  0  0  0  0  0
   46.6090   33.2430   45.7690 C   0  0  0  0  0  0  0  0  0  0  0  0
   45.4340   33.8290   45.9470 N   0  0  0  0  0  0  0  0  0  0  0  0
   47.2900   32.3870   46.6780 N   0  0  0  0  0  0  0  0  0  0  0  0
   44.9630   35.6590   42.7620 C   0  0  0  0  0  0  0  0  0  0  0  0
   45.4860   36.9350   42.8320 F   0  0  0  0  0  0  0  0  0  0  0  0
   43.6100   35.7660   42.8960 F   0  0  0  0  0  0  0  0  0  0  0  0
   45.2260   35.2960   41.4840 F   0  0  0  0  0  0  0  0  0  0  0  0
   48.4800   32.3180   40.9460 C   0  0  0  0  0  0  0  0  0  0  0  0
   47.1880   31.6760   40.4430 C   0  0  0  0  0  0  0  0  0  0  0  0
   47.8100   30.9040   38.8700 S   0  0  0  0  0  0  0  0  0  0  0  0
   49.4720   31.4850   39.1050 C   0  0  0  0  0  0  0  0  0  0  0  0
   49.5710   32.1630   40.2000 N   0  0  0  0  0  0  0  0  0  0  0  0
   46.7672   34.1501   41.4789 H   0  0  0  0  0  0  0  0  0  0  0  0
   48.1844   36.0082   41.2539 H   0  0  0  0  0  0  0  0  0  0  0  0
   48.0558   36.2084   43.0167 H   0  0  0  0  0  0  0  0  0  0  0  0
   50.3470   35.4753   41.4888 H   0  0  0  0  0  0  0  0  0  0  0  0
   50.2041   35.5530   43.2703 H   0  0  0  0  0  0  0  0  0  0  0  0
   50.5155   33.2452   41.6302 H   0  0  0  0  0  0  0  0  0  0  0  0
   50.2541   33.3013   43.3957 H   0  0  0  0  0  0  0  0  0  0  0  0
   48.1332   32.3755   43.0088 H   0  0  0  0  0  0  0  0  0  0  0  0
   43.9169   35.0795   45.1274 H   0  0  0  0  0  0  0  0  0  0  0  0
   46.8783   32.1826   47.5997 H   0  0  0  0  0  0  0  0  0  0  0  0
   48.1949   31.9715   46.4146 H   0  0  0  0  0  0  0  0  0  0  0  0
   46.1804   31.6717   40.8842 H   0  0  0  0  0  0  0  0  0  0  0  0
   50.3043   31.2934   38.4118 H   0  0  0  0  0  0  0  0  0  0  0  0
  1  8  1  0
  2  1  1  0
  2  3  1  0
  3  4  1  0
  5  1  1  0
  5  4  1  0
  6 11  2  0
  7  6  1  0
  8  7  2  0
  8  9  1  0
  9 10  2  0
 10 11  1  0
 10 12  1  0
 13 14  1  0
 13 15  1  0
 13  7  1  0
 16 13  1  0
 17  5  1  0
 18 17  2  0
 19 20  1  0
 19 18  1  0
 20 21  2  0
 21 17  1  0
  1 22  1  6
  2 23  1  0
  2 24  1  0
  3 25  1  0
  3 26  1  0
  4 27  1  0
  4 28  1  0
  5 29  1  1
  6 30  1  0
 12 31  1  0
 12 32  1  0
 18 33  1  0
 20 34  1  0
M  ISO  8  22  13  23  13  24  13  25  13  26  13  27  13  28  13  29  13
M  ISO  3  30  14  33  14  34  14
M  END
>  <minimizedAffinity>  (1) 
-5.49274778

>  <minimizedRMSD>  (1) 
0.754785359

$$$$
