
     RDKit          3D

 33 35  0  0  1  0  0  0  0  0999 V2000
   47.3530   34.1860   42.3050 C   0  0  1  0  0  0  0  0  0  0  0  0
   48.1710   35.4980   42.1150 C   0  0  0  0  0  0  0  0  0  0  0  0
   49.6070   35.1330   42.2610 C   0  0  0  0  0  0  0  0  0  0  0  0
   49.7110   33.6630   42.4990 C   0  0  0  0  0  0  0  0  0  0  0  0
   48.3310   33.0750   42.3430 C   0  0  2  0  0  0  0  0  0  0  0  0
   44.7180   34.7650   44.9150 C   0  0  0  0  0  0  0  0  0  0  0  0
   45.3960   34.8360   43.7140 C   0  0  0  0  0  0  0  0  0  0  0  0
   46.6330   34.2440   43.5910 C   0  0  0  0  0  0  0  0  0  0  0  0
   47.1470   33.6040   44.6810 N   0  0  0  0  0  0  0  0  0  0  0  0
   46.4630   33.5470   45.8520 C   0  0  0  0  0  0  0  0  0  0  0  0
   45.2670   34.1180   45.9710 N   0  0  0  0  0  0  0  0  0  0  0  0
   47.1840   32.8330   46.8540 N   0  0  0  0  0  0  0  0  0  0  0  0
   44.7720   35.6110   42.6150 C   0  0  0  0  0  0  0  0  0  0  0  0
   45.2140   36.9200   42.6190 F   0  0  0  0  0  0  0  0  0  0  0  0
   43.4110   35.6410   42.6930 F   0  0  0  0  0  0  0  0  0  0  0  0
   45.1060   35.1760   41.3790 F   0  0  0  0  0  0  0  0  0  0  0  0
   48.2820   32.1390   41.2010 C   0  0  0  0  0  0  0  0  0  0  0  0
   48.8820   32.4570   40.0390 N   0  0  0  0  0  0  0  0  0  0  0  0
   48.7260   31.5160   39.1780 O   0  0  0  0  0  0  0  0  0  0  0  0
   48.0210   30.5660   39.7570 C   0  0  0  0  0  0  0  0  0  0  0  0
   47.7440   30.9550   41.0180 N   0  0  0  0  0  0  0  0  0  0  0  0
   46.6232   34.0487   41.4935 H   0  0  0  0  0  0  0  0  0  0  0  0
   47.8877   36.2354   42.8805 H   0  0  0  0  0  0  0  0  0  0  0  0
   47.9754   35.9466   41.1298 H   0  0  0  0  0  0  0  0  0  0  0  0
   50.1504   35.3975   41.3419 H   0  0  0  0  0  0  0  0  0  0  0  0
   50.0459   35.6795   43.1087 H   0  0  0  0  0  0  0  0  0  0  0  0
   50.3956   33.2121   41.7654 H   0  0  0  0  0  0  0  0  0  0  0  0
   50.1038   33.4625   43.5067 H   0  0  0  0  0  0  0  0  0  0  0  0
   48.0569   32.4475   43.2039 H   0  0  0  0  0  0  0  0  0  0  0  0
   43.7287   35.2355   45.0145 H   0  0  0  0  0  0  0  0  0  0  0  0
   46.7790   32.7140   47.7936 H   0  0  0  0  0  0  0  0  0  0  0  0
   48.1097   32.4363   46.6382 H   0  0  0  0  0  0  0  0  0  0  0  0
   47.7115   29.6184   39.2919 H   0  0  0  0  0  0  0  0  0  0  0  0
  1  5  1  0
  1  8  1  0
  2  3  1  0
  2  1  1  0
  3  4  1  0
  5  4  1  0
  6 11  2  0
  7  6  1  0
  8  7  2  0
  8  9  1  0
  9 10  2  0
 10 11  1  0
 10 12  1  0
 13 14  1  0
 13 15  1  0
 13  7  1  0
 16 13  1  0
 17  5  1  0
 18 17  2  0
 19 20  1  0
 19 18  1  0
 20 21  2  0
 21 17  1  0
  1 22  1  6
  2 23  1  0
  2 24  1  0
  3 25  1  0
  3 26  1  0
  4 27  1  0
  4 28  1  0
  5 29  1  1
  6 30  1  0
 12 31  1  0
 12 32  1  0
 20 33  1  0
M  ISO  8  22  13  23  13  24  13  25  13  26  13  27  13  28  13  29  13
M  ISO  2  30  14  33  14
M  END
>  <minimizedAffinity>  (1) 
-5.40763617

>  <minimizedRMSD>  (1) 
0.231832787

$$$$
