
     RDKit          3D

 38 40  0  0  1  0  0  0  0  0999 V2000
   47.5230   34.3190   42.2930 C   0  0  1  0  0  0  0  0  0  0  0  0
   48.7650   35.2400   42.4690 C   0  0  0  0  0  0  0  0  0  0  0  0
   49.9640   34.3610   42.3790 C   0  0  0  0  0  0  0  0  0  0  0  0
   49.5070   32.9560   42.1130 C   0  0  0  0  0  0  0  0  0  0  0  0
   48.0260   32.9840   41.8880 C   0  0  2  0  0  0  0  0  0  0  0  0
   44.9230   34.5850   45.0040 C   0  0  0  0  0  0  0  0  0  0  0  0
   45.5970   34.8100   43.8080 C   0  0  0  0  0  0  0  0  0  0  0  0
   46.8140   34.2020   43.5840 C   0  0  0  0  0  0  0  0  0  0  0  0
   47.3170   33.3960   44.5580 N   0  0  0  0  0  0  0  0  0  0  0  0
   46.6490   33.1870   45.7150 C   0  0  0  0  0  0  0  0  0  0  0  0
   45.4790   33.7720   45.9270 N   0  0  0  0  0  0  0  0  0  0  0  0
   47.3460   32.2980   46.5830 N   0  0  0  0  0  0  0  0  0  0  0  0
   44.9870   35.7500   42.8460 C   0  0  0  0  0  0  0  0  0  0  0  0
   45.5470   37.0080   42.9580 F   0  0  0  0  0  0  0  0  0  0  0  0
   43.6420   35.8930   43.0200 F   0  0  0  0  0  0  0  0  0  0  0  0
   45.1980   35.4230   41.5520 F   0  0  0  0  0  0  0  0  0  0  0  0
   47.6280   32.5470   40.5260 C   0  0  0  0  0  0  0  0  0  0  0  0
   47.6560   31.2370   40.0680 C   0  0  0  0  0  0  0  0  0  0  0  0
   47.2660   30.9220   38.7800 C   0  0  0  0  0  0  0  0  0  0  0  0
   46.8340   31.9240   37.9130 C   0  0  0  0  0  0  0  0  0  0  0  0
   46.8040   33.2180   38.3580 C   0  0  0  0  0  0  0  0  0  0  0  0
   47.2000   33.5040   39.6500 C   0  0  0  0  0  0  0  0  0  0  0  0
   46.8309   34.7270   41.5416 H   0  0  0  0  0  0  0  0  0  0  0  0
   48.7904   35.9989   41.6731 H   0  0  0  0  0  0  0  0  0  0  0  0
   48.7328   35.7688   43.4330 H   0  0  0  0  0  0  0  0  0  0  0  0
   50.6128   34.7016   41.5586 H   0  0  0  0  0  0  0  0  0  0  0  0
   50.5312   34.4005   43.3206 H   0  0  0  0  0  0  0  0  0  0  0  0
   50.0127   32.5622   41.2191 H   0  0  0  0  0  0  0  0  0  0  0  0
   49.7509   32.3073   42.9673 H   0  0  0  0  0  0  0  0  0  0  0  0
   47.5366   32.2302   42.5223 H   0  0  0  0  0  0  0  0  0  0  0  0
   43.9508   35.0628   45.1948 H   0  0  0  0  0  0  0  0  0  0  0  0
   46.9453   32.0538   47.4999 H   0  0  0  0  0  0  0  0  0  0  0  0
   48.2506   31.8995   46.2937 H   0  0  0  0  0  0  0  0  0  0  0  0
   47.9943   30.4359   40.7416 H   0  0  0  0  0  0  0  0  0  0  0  0
   47.2967   29.8769   38.4381 H   0  0  0  0  0  0  0  0  0  0  0  0
   46.5220   31.6787   36.8871 H   0  0  0  0  0  0  0  0  0  0  0  0
   46.4667   34.0250   37.6910 H   0  0  0  0  0  0  0  0  0  0  0  0
   47.1694   34.5500   39.9890 H   0  0  0  0  0  0  0  0  0  0  0  0
  1  2  1  0
  1  8  1  0
  3  2  1  0
  4  3  1  0
  5  4  1  0
  5  1  1  0
  6 11  2  0
  7  6  1  0
  8  7  2  0
  8  9  1  0
  9 10  2  0
 10 11  1  0
 10 12  1  0
 13 14  1  0
 13 15  1  0
 13  7  1  0
 16 13  1  0
 17  5  1  0
 18 17  2  0
 19 18  1  0
 20 21  1  0
 20 19  2  0
 21 22  2  0
 22 17  1  0
  1 23  1  6
  2 24  1  0
  2 25  1  0
  3 26  1  0
  3 27  1  0
  4 28  1  0
  4 29  1  0
  5 30  1  1
  6 31  1  0
 12 32  1  0
 12 33  1  0
 18 34  1  0
 19 35  1  0
 20 36  1  0
 21 37  1  0
 22 38  1  0
M  ISO  8  23  13  24  13  25  13  26  13  27  13  28  13  29  13  30  13
M  ISO  6  31  14  34  14  35  14  36  14  37  14  38  14
M  END
>  <minimizedAffinity>  (1) 
-5.40592861

>  <minimizedRMSD>  (1) 
0.886415422

$$$$
