
     RDKit          3D

 35 37  0  0  1  0  0  0  0  0999 V2000
   47.5210   34.1760   42.3250 C   0  0  1  0  0  0  0  0  0  0  0  0
   48.3670   35.4780   42.2490 C   0  0  0  0  0  0  0  0  0  0  0  0
   49.7970   35.0690   42.3860 C   0  0  0  0  0  0  0  0  0  0  0  0
   49.8610   33.5760   42.4660 C   0  0  0  0  0  0  0  0  0  0  0  0
   48.4670   33.0380   42.2630 C   0  0  2  0  0  0  0  0  0  0  0  0
   44.8860   34.5980   44.9740 C   0  0  0  0  0  0  0  0  0  0  0  0
   45.5750   34.7580   43.7800 C   0  0  0  0  0  0  0  0  0  0  0  0
   46.7960   34.1420   43.6130 C   0  0  0  0  0  0  0  0  0  0  0  0
   47.2870   33.3920   44.6430 N   0  0  0  0  0  0  0  0  0  0  0  0
   46.5990   33.2500   45.7980 C   0  0  0  0  0  0  0  0  0  0  0  0
   45.4190   33.8430   45.9570 N   0  0  0  0  0  0  0  0  0  0  0  0
   47.2860   32.4180   46.7330 N   0  0  0  0  0  0  0  0  0  0  0  0
   44.9850   35.6480   42.7600 C   0  0  0  0  0  0  0  0  0  0  0  0
   45.5180   36.9240   42.8380 F   0  0  0  0  0  0  0  0  0  0  0  0
   43.6330   35.7720   42.8810 F   0  0  0  0  0  0  0  0  0  0  0  0
   45.2610   35.2830   41.4880 F   0  0  0  0  0  0  0  0  0  0  0  0
   48.4670   32.2490   41.0370 C   0  0  0  0  0  0  0  0  0  0  0  0
   49.3550   32.1200   39.9550 C   0  0  0  0  0  0  0  0  0  0  0  0
   49.0570   31.2780   38.9490 C   0  0  0  0  0  0  0  0  0  0  0  0
   47.8040   30.5570   39.0830 C   0  0  0  0  0  0  0  0  0  0  0  0
   47.1420   31.1530   40.6610 S   0  0  0  0  0  0  0  0  0  0  0  0
   46.7916   34.1273   41.5030 H   0  0  0  0  0  0  0  0  0  0  0  0
   48.2067   35.9784   41.2826 H   0  0  0  0  0  0  0  0  0  0  0  0
   48.0795   36.1837   43.0423 H   0  0  0  0  0  0  0  0  0  0  0  0
   50.3676   35.4181   41.5128 H   0  0  0  0  0  0  0  0  0  0  0  0
   50.2294   35.5129   43.2948 H   0  0  0  0  0  0  0  0  0  0  0  0
   50.5284   33.1885   41.6822 H   0  0  0  0  0  0  0  0  0  0  0  0
   50.2527   33.2623   43.4449 H   0  0  0  0  0  0  0  0  0  0  0  0
   48.1289   32.3470   43.0493 H   0  0  0  0  0  0  0  0  0  0  0  0
   43.9100   35.0844   45.1183 H   0  0  0  0  0  0  0  0  0  0  0  0
   46.8698   32.2276   47.6557 H   0  0  0  0  0  0  0  0  0  0  0  0
   48.1978   32.0082   46.4848 H   0  0  0  0  0  0  0  0  0  0  0  0
   50.2872   32.7035   39.9310 H   0  0  0  0  0  0  0  0  0  0  0  0
   49.7197   31.1445   38.0812 H   0  0  0  0  0  0  0  0  0  0  0  0
   47.3621   29.8241   38.3919 H   0  0  0  0  0  0  0  0  0  0  0  0
  1  8  1  0
  2  1  1  0
  2  3  1  0
  3  4  1  0
  5  1  1  0
  5  4  1  0
  6 11  2  0
  7  6  1  0
  8  7  2  0
  8  9  1  0
  9 10  2  0
 10 11  1  0
 10 12  1  0
 13 14  1  0
 13 15  1  0
 13  7  1  0
 16 13  1  0
 17  5  1  0
 18 17  2  0
 19 20  2  0
 19 18  1  0
 20 21  1  0
 21 17  1  0
  1 22  1  6
  2 23  1  0
  2 24  1  0
  3 25  1  0
  3 26  1  0
  4 27  1  0
  4 28  1  0
  5 29  1  1
  6 30  1  0
 12 31  1  0
 12 32  1  0
 18 33  1  0
 19 34  1  0
 20 35  1  0
M  ISO  8  22  13  23  13  24  13  25  13  26  13  27  13  28  13  29  13
M  ISO  4  30  14  33  14  34  14  35  14
M  END
>  <minimizedAffinity>  (1) 
-5.40447092

>  <minimizedRMSD>  (1) 
0.458879977

$$$$
