
     RDKit          3D

 35 37  0  0  1  0  0  0  0  0999 V2000
   47.3140   34.2220   42.2860 C   0  0  1  0  0  0  0  0  0  0  0  0
   48.1560   35.5210   42.1070 C   0  0  0  0  0  0  0  0  0  0  0  0
   49.5860   35.1300   42.2470 C   0  0  0  0  0  0  0  0  0  0  0  0
   49.6620   33.6580   42.4670 C   0  0  0  0  0  0  0  0  0  0  0  0
   48.2720   33.0950   42.3120 C   0  0  2  0  0  0  0  0  0  0  0  0
   44.6840   34.8000   44.9120 C   0  0  0  0  0  0  0  0  0  0  0  0
   45.3590   34.8720   43.7070 C   0  0  0  0  0  0  0  0  0  0  0  0
   46.5980   34.2820   43.5770 C   0  0  0  0  0  0  0  0  0  0  0  0
   47.1150   33.6430   44.6670 N   0  0  0  0  0  0  0  0  0  0  0  0
   46.4380   33.5840   45.8370 C   0  0  0  0  0  0  0  0  0  0  0  0
   45.2450   34.1530   45.9540 N   0  0  0  0  0  0  0  0  0  0  0  0
   47.1510   32.8500   46.8280 N   0  0  0  0  0  0  0  0  0  0  0  0
   44.7290   35.6400   42.6100 C   0  0  0  0  0  0  0  0  0  0  0  0
   45.1520   36.9560   42.6110 F   0  0  0  0  0  0  0  0  0  0  0  0
   43.3680   35.6540   42.6840 F   0  0  0  0  0  0  0  0  0  0  0  0
   45.0670   35.2040   41.3730 F   0  0  0  0  0  0  0  0  0  0  0  0
   48.1860   32.1470   41.1730 C   0  0  0  0  0  0  0  0  0  0  0  0
   48.9280   32.1640   39.9850 C   0  0  0  0  0  0  0  0  0  0  0  0
   48.4990   31.0860   39.2310 C   0  0  0  0  0  0  0  0  0  0  0  0
   47.5220   30.4580   39.9760 C   0  0  0  0  0  0  0  0  0  0  0  0
   47.3970   31.1330   41.0930 O   0  0  0  0  0  0  0  0  0  0  0  0
   46.5798   34.1047   41.4753 H   0  0  0  0  0  0  0  0  0  0  0  0
   47.8871   36.2560   42.8799 H   0  0  0  0  0  0  0  0  0  0  0  0
   47.9671   35.9815   41.1261 H   0  0  0  0  0  0  0  0  0  0  0  0
   50.1333   35.3956   41.3305 H   0  0  0  0  0  0  0  0  0  0  0  0
   50.0364   35.6591   43.0997 H   0  0  0  0  0  0  0  0  0  0  0  0
   50.3346   33.2032   41.7248 H   0  0  0  0  0  0  0  0  0  0  0  0
   50.0544   33.4400   43.4712 H   0  0  0  0  0  0  0  0  0  0  0  0
   47.9987   32.4679   43.1734 H   0  0  0  0  0  0  0  0  0  0  0  0
   43.6945   35.2681   45.0200 H   0  0  0  0  0  0  0  0  0  0  0  0
   46.7478   32.7278   47.7679 H   0  0  0  0  0  0  0  0  0  0  0  0
   48.0698   32.4415   46.6047 H   0  0  0  0  0  0  0  0  0  0  0  0
   49.7023   32.8936   39.7054 H   0  0  0  0  0  0  0  0  0  0  0  0
   48.8638   30.7891   38.2366 H   0  0  0  0  0  0  0  0  0  0  0  0
   46.9551   29.5606   39.6873 H   0  0  0  0  0  0  0  0  0  0  0  0
  1  5  1  0
  1  8  1  0
  2  3  1  0
  2  1  1  0
  3  4  1  0
  5  4  1  0
  6 11  2  0
  7  6  1  0
  8  7  2  0
  8  9  1  0
  9 10  2  0
 10 11  1  0
 10 12  1  0
 13 14  1  0
 13 15  1  0
 13  7  1  0
 16 13  1  0
 17  5  1  0
 18 17  2  0
 19 20  2  0
 19 18  1  0
 20 21  1  0
 21 17  1  0
  1 22  1  6
  2 23  1  0
  2 24  1  0
  3 25  1  0
  3 26  1  0
  4 27  1  0
  4 28  1  0
  5 29  1  1
  6 30  1  0
 12 31  1  0
 12 32  1  0
 18 33  1  0
 19 34  1  0
 20 35  1  0
M  ISO  8  22  13  23  13  24  13  25  13  26  13  27  13  28  13  29  13
M  ISO  4  30  14  33  14  34  14  35  14
M  END
>  <minimizedAffinity>  (1) 
-5.33349895

>  <minimizedRMSD>  (1) 
0.182589218

$$$$
