
     RDKit          3D

 40 41  0  0  1  0  0  0  0  0999 V2000
   47.5190   34.2010   42.3120 C   0  0  1  0  0  0  0  0  0  0  0  0
   48.4580   35.4390   42.2940 C   0  0  0  0  0  0  0  0  0  0  0  0
   49.8530   34.9180   42.3750 C   0  0  0  0  0  0  0  0  0  0  0  0
   49.8100   33.4240   42.4200 C   0  0  0  0  0  0  0  0  0  0  0  0
   48.3790   33.0030   42.1870 C   0  0  2  0  0  0  0  0  0  0  0  0
   44.9020   34.6050   44.9830 C   0  0  0  0  0  0  0  0  0  0  0  0
   45.5830   34.7760   43.7890 C   0  0  0  0  0  0  0  0  0  0  0  0
   46.7990   34.1540   43.6030 C   0  0  0  0  0  0  0  0  0  0  0  0
   47.2900   33.3870   44.6200 N   0  0  0  0  0  0  0  0  0  0  0  0
   46.6100   33.2330   45.7720 C   0  0  0  0  0  0  0  0  0  0  0  0
   45.4350   33.8330   45.9530 N   0  0  0  0  0  0  0  0  0  0  0  0
   47.2800   32.3670   46.6820 N   0  0  0  0  0  0  0  0  0  0  0  0
   44.9850   35.6700   42.7770 C   0  0  0  0  0  0  0  0  0  0  0  0
   45.5170   36.9430   42.8540 F   0  0  0  0  0  0  0  0  0  0  0  0
   43.6320   35.7860   42.9040 F   0  0  0  0  0  0  0  0  0  0  0  0
   45.2480   35.3060   41.4990 F   0  0  0  0  0  0  0  0  0  0  0  0
   48.2630   32.2330   40.8990 C   0  0  0  0  0  0  0  0  0  0  0  0
   47.2360   32.9510   40.0110 C   0  0  0  0  0  0  0  0  0  0  0  0
   49.5490   32.0570   40.1610 C   0  0  0  0  0  0  0  0  0  0  0  0
   47.6560   30.8840   41.1870 C   0  0  0  0  0  0  0  0  0  0  0  0
   46.7842   34.2479   41.4948 H   0  0  0  0  0  0  0  0  0  0  0  0
   48.3187   36.0073   41.3625 H   0  0  0  0  0  0  0  0  0  0  0  0
   48.2382   36.1154   43.1332 H   0  0  0  0  0  0  0  0  0  0  0  0
   50.4211   35.2446   41.4915 H   0  0  0  0  0  0  0  0  0  0  0  0
   50.3432   35.3043   43.2808 H   0  0  0  0  0  0  0  0  0  0  0  0
   50.4569   33.0060   41.6346 H   0  0  0  0  0  0  0  0  0  0  0  0
   50.1683   33.0556   43.3926 H   0  0  0  0  0  0  0  0  0  0  0  0
   48.0221   32.2925   42.9471 H   0  0  0  0  0  0  0  0  0  0  0  0
   43.9305   35.0966   45.1399 H   0  0  0  0  0  0  0  0  0  0  0  0
   46.8639   32.1656   47.6024 H   0  0  0  0  0  0  0  0  0  0  0  0
   48.1809   31.9419   46.4199 H   0  0  0  0  0  0  0  0  0  0  0  0
   46.4994   33.4660   40.6452 H   0  0  0  0  0  0  0  0  0  0  0  0
   47.7512   33.6867   39.3759 H   0  0  0  0  0  0  0  0  0  0  0  0
   46.7219   32.2145   39.3759 H   0  0  0  0  0  0  0  0  0  0  0  0
   50.3727   31.9443   40.8813 H   0  0  0  0  0  0  0  0  0  0  0  0
   49.4891   31.1587   39.5290 H   0  0  0  0  0  0  0  0  0  0  0  0
   49.7327   32.9384   39.5290 H   0  0  0  0  0  0  0  0  0  0  0  0
   47.5896   30.7365   42.2750 H   0  0  0  0  0  0  0  0  0  0  0  0
   46.6486   30.8340   40.7481 H   0  0  0  0  0  0  0  0  0  0  0  0
   48.2867   30.0969   40.7481 H   0  0  0  0  0  0  0  0  0  0  0  0
  1  8  1  0
  2  1  1  0
  2  3  1  0
  3  4  1  0
  5  1  1  0
  5  4  1  0
  6 11  2  0
  7  6  1  0
  8  7  2  0
  8  9  1  0
  9 10  2  0
 10 11  1  0
 10 12  1  0
 13 14  1  0
 13 15  1  0
 13  7  1  0
 16 13  1  0
 17 20  1  0
 17  5  1  0
 18 17  1  0
 19 17  1  0
  1 21  1  6
  2 22  1  0
  2 23  1  0
  3 24  1  0
  3 25  1  0
  4 26  1  0
  4 27  1  0
  5 28  1  1
  6 29  1  0
 12 30  1  0
 12 31  1  0
 18 32  1  0
 18 33  1  0
 18 34  1  0
 19 35  1  0
 19 36  1  0
 19 37  1  0
 20 38  1  0
 20 39  1  0
 20 40  1  0
M  ISO  8  21  13  22  13  23  13  24  13  25  13  26  13  27  13  28  13
M  ISO  8  29  14  32   8  33   8  34   8  35   8  36   8  37   8  38   8
M  ISO  2  39   8  40   8
M  END
>  <minimizedAffinity>  (1) 
-5.32836819

>  <minimizedRMSD>  (1) 
0.560781837

$$$$
