
     RDKit          3D

 37 38  0  0  1  0  0  0  0  0999 V2000
   47.5280   34.2070   42.2990 C   0  0  1  0  0  0  0  0  0  0  0  0
   48.4590   35.4510   42.2790 C   0  0  0  0  0  0  0  0  0  0  0  0
   49.8590   34.9570   42.3790 C   0  0  0  0  0  0  0  0  0  0  0  0
   49.8320   33.4630   42.4160 C   0  0  0  0  0  0  0  0  0  0  0  0
   48.4060   33.0250   42.1870 C   0  0  2  0  0  0  0  0  0  0  0  0
   44.9050   34.5890   44.9700 C   0  0  0  0  0  0  0  0  0  0  0  0
   45.5900   34.7710   43.7840 C   0  0  0  0  0  0  0  0  0  0  0  0
   46.8110   34.1630   43.5970 C   0  0  0  0  0  0  0  0  0  0  0  0
   47.3050   33.3930   44.6100 N   0  0  0  0  0  0  0  0  0  0  0  0
   46.6210   33.2250   45.7610 C   0  0  0  0  0  0  0  0  0  0  0  0
   45.4400   33.8140   45.9400 N   0  0  0  0  0  0  0  0  0  0  0  0
   47.2910   32.3530   46.6570 N   0  0  0  0  0  0  0  0  0  0  0  0
   44.9900   35.6680   42.7690 C   0  0  0  0  0  0  0  0  0  0  0  0
   45.5200   36.9400   42.8500 F   0  0  0  0  0  0  0  0  0  0  0  0
   43.6370   35.7830   42.8960 F   0  0  0  0  0  0  0  0  0  0  0  0
   45.2520   35.3040   41.4900 F   0  0  0  0  0  0  0  0  0  0  0  0
   48.3300   32.2370   40.9120 C   0  0  0  0  0  0  0  0  0  0  0  0
   49.7130   31.7950   40.5650 C   0  0  0  0  0  0  0  0  0  0  0  0
   47.6240   32.9030   39.7830 C   0  0  0  0  0  0  0  0  0  0  0  0
   46.7908   34.2377   41.4831 H   0  0  0  0  0  0  0  0  0  0  0  0
   48.3225   36.0084   41.3405 H   0  0  0  0  0  0  0  0  0  0  0  0
   48.2238   36.1271   43.1142 H   0  0  0  0  0  0  0  0  0  0  0  0
   50.4357   35.2964   41.5060 H   0  0  0  0  0  0  0  0  0  0  0  0
   50.3331   35.3486   43.2911 H   0  0  0  0  0  0  0  0  0  0  0  0
   50.4804   33.0567   41.6257 H   0  0  0  0  0  0  0  0  0  0  0  0
   50.1976   33.0946   43.3858 H   0  0  0  0  0  0  0  0  0  0  0  0
   48.0367   32.3279   42.9536 H   0  0  0  0  0  0  0  0  0  0  0  0
   43.9290   35.0724   45.1243 H   0  0  0  0  0  0  0  0  0  0  0  0
   46.8754   32.1390   47.5748 H   0  0  0  0  0  0  0  0  0  0  0  0
   48.1931   31.9338   46.3898 H   0  0  0  0  0  0  0  0  0  0  0  0
   47.6827   31.3664   41.0938 H   0  0  0  0  0  0  0  0  0  0  0  0
   50.2823   31.6130   41.4885 H   0  0  0  0  0  0  0  0  0  0  0  0
   49.6645   30.8676   39.9754 H   0  0  0  0  0  0  0  0  0  0  0  0
   50.2113   32.5786   39.9754 H   0  0  0  0  0  0  0  0  0  0  0  0
   46.8781   33.6067   40.1810 H   0  0  0  0  0  0  0  0  0  0  0  0
   48.3525   33.4505   39.1669 H   0  0  0  0  0  0  0  0  0  0  0  0
   47.1199   32.1439   39.1669 H   0  0  0  0  0  0  0  0  0  0  0  0
  1  8  1  0
  2  1  1  0
  2  3  1  0
  3  4  1  0
  5  1  1  0
  5  4  1  0
  6 11  2  0
  7  6  1  0
  8  7  2  0
  8  9  1  0
  9 10  2  0
 10 11  1  0
 10 12  1  0
 13 14  1  0
 13 15  1  0
 13  7  1  0
 16 13  1  0
 17  5  1  0
 18 17  1  0
 19 17  1  0
  1 20  1  6
  2 21  1  0
  2 22  1  0
  3 23  1  0
  3 24  1  0
  4 25  1  0
  4 26  1  0
  5 27  1  1
  6 28  1  0
 12 29  1  0
 12 30  1  0
 17 31  1  0
 18 32  1  0
 18 33  1  0
 18 34  1  0
 19 35  1  0
 19 36  1  0
 19 37  1  0
M  ISO  8  20  13  21  13  22  13  23  13  24  13  25  13  26  13  27  13
M  ISO  8  28  14  31   8  32   8  33   8  34   8  35   8  36   8  37   8
M  END
>  <minimizedAffinity>  (1) 
-5.21387815

>  <minimizedRMSD>  (1) 
0.761758447

$$$$
