
     RDKit          3D

 35 37  0  0  1  0  0  0  0  0999 V2000
   47.4780   34.2640   42.2600 C   0  0  1  0  0  0  0  0  0  0  0  0
   48.3200   35.5690   42.2080 C   0  0  0  0  0  0  0  0  0  0  0  0
   49.7500   35.1610   42.2780 C   0  0  0  0  0  0  0  0  0  0  0  0
   49.8280   33.6740   42.3940 C   0  0  0  0  0  0  0  0  0  0  0  0
   48.4350   33.1410   42.1530 C   0  0  2  0  0  0  0  0  0  0  0  0
   44.8770   34.5740   44.9530 C   0  0  0  0  0  0  0  0  0  0  0  0
   45.5460   34.7770   43.7560 C   0  0  0  0  0  0  0  0  0  0  0  0
   46.7790   34.1930   43.5620 C   0  0  0  0  0  0  0  0  0  0  0  0
   47.3030   33.4340   44.5680 N   0  0  0  0  0  0  0  0  0  0  0  0
   46.6290   33.2510   45.7280 C   0  0  0  0  0  0  0  0  0  0  0  0
   45.4440   33.8040   45.9220 N   0  0  0  0  0  0  0  0  0  0  0  0
   47.3430   32.4170   46.6370 N   0  0  0  0  0  0  0  0  0  0  0  0
   44.9230   35.6770   42.7640 C   0  0  0  0  0  0  0  0  0  0  0  0
   45.4470   36.9570   42.8530 F   0  0  0  0  0  0  0  0  0  0  0  0
   43.5730   35.7870   42.9180 F   0  0  0  0  0  0  0  0  0  0  0  0
   45.1750   35.3400   41.4800 F   0  0  0  0  0  0  0  0  0  0  0  0
   48.4750   32.4160   40.8450 C   0  0  0  0  0  0  0  0  0  0  0  0
   49.6210   31.5870   40.4830 C   0  0  0  0  0  0  0  0  0  0  0  0
   48.3940   30.8780   40.9290 C   0  0  0  0  0  0  0  0  0  0  0  0
   46.7313   34.2299   41.4529 H   0  0  0  0  0  0  0  0  0  0  0  0
   48.1255   36.1081   41.2691 H   0  0  0  0  0  0  0  0  0  0  0  0
   48.0598   36.2402   43.0398 H   0  0  0  0  0  0  0  0  0  0  0  0
   50.2714   35.4873   41.3660 H   0  0  0  0  0  0  0  0  0  0  0  0
   50.2262   35.6268   43.1533 H   0  0  0  0  0  0  0  0  0  0  0  0
   50.5223   33.2718   41.6415 H   0  0  0  0  0  0  0  0  0  0  0  0
   50.1975   33.3754   43.3861 H   0  0  0  0  0  0  0  0  0  0  0  0
   48.0845   32.4126   42.8990 H   0  0  0  0  0  0  0  0  0  0  0  0
   43.8915   35.0334   45.1193 H   0  0  0  0  0  0  0  0  0  0  0  0
   46.9404   32.1974   47.5593 H   0  0  0  0  0  0  0  0  0  0  0  0
   48.2615   32.0339   46.3716 H   0  0  0  0  0  0  0  0  0  0  0  0
   47.9430   33.2305   40.3317 H   0  0  0  0  0  0  0  0  0  0  0  0
   49.9307   31.5222   39.4295 H   0  0  0  0  0  0  0  0  0  0  0  0
   50.6720   31.5620   40.8068 H   0  0  0  0  0  0  0  0  0  0  0  0
   48.3664   30.3748   41.9068 H   0  0  0  0  0  0  0  0  0  0  0  0
   47.7380   30.0963   40.5183 H   0  0  0  0  0  0  0  0  0  0  0  0
  1  8  1  0
  2  1  1  0
  2  3  1  0
  3  4  1  0
  5  1  1  0
  5  4  1  0
  6 11  2  0
  7  6  1  0
  8  7  2  0
  8  9  1  0
  9 10  2  0
 10 11  1  0
 10 12  1  0
 13 14  1  0
 13 15  1  0
 13  7  1  0
 16 13  1  0
 17 19  1  0
 17  5  1  0
 18 17  1  0
 18 19  1  0
  1 20  1  6
  2 21  1  0
  2 22  1  0
  3 23  1  0
  3 24  1  0
  4 25  1  0
  4 26  1  0
  5 27  1  1
  6 28  1  0
 12 29  1  0
 12 30  1  0
 17 31  1  0
 18 32  1  0
 18 33  1  0
 19 34  1  0
 19 35  1  0
M  ISO  8  20  13  21  13  22  13  23  13  24  13  25  13  26  13  27  13
M  ISO  6  28  14  31  13  32  13  33  13  34  13  35  13
M  END
>  <minimizedAffinity>  (1) 
-5.13323879

>  <minimizedRMSD>  (1) 
0.643367171

$$$$
