
     RDKit          3D

 34 35  0  0  1  0  0  0  0  0999 V2000
   47.4340   34.1270   42.2990 C   0  0  1  0  0  0  0  0  0  0  0  0
   48.3950   35.3480   42.2380 C   0  0  0  0  0  0  0  0  0  0  0  0
   49.7830   34.8090   42.2980 C   0  0  0  0  0  0  0  0  0  0  0  0
   49.7230   33.3220   42.4240 C   0  0  0  0  0  0  0  0  0  0  0  0
   48.2810   32.9240   42.1720 C   0  0  2  0  0  0  0  0  0  0  0  0
   44.8890   34.6320   45.0240 C   0  0  0  0  0  0  0  0  0  0  0  0
   45.5500   34.7630   43.8160 C   0  0  0  0  0  0  0  0  0  0  0  0
   46.7490   34.1170   43.6130 C   0  0  0  0  0  0  0  0  0  0  0  0
   47.2480   33.3630   44.6350 N   0  0  0  0  0  0  0  0  0  0  0  0
   46.5860   33.2460   45.8110 C   0  0  0  0  0  0  0  0  0  0  0  0
   45.4300   33.8710   45.9960 N   0  0  0  0  0  0  0  0  0  0  0  0
   47.2720   32.3920   46.7230 N   0  0  0  0  0  0  0  0  0  0  0  0
   44.9490   35.6650   42.8010 C   0  0  0  0  0  0  0  0  0  0  0  0
   45.5130   36.9250   42.8620 F   0  0  0  0  0  0  0  0  0  0  0  0
   43.6040   35.8170   42.9570 F   0  0  0  0  0  0  0  0  0  0  0  0
   45.1830   35.2890   41.5240 F   0  0  0  0  0  0  0  0  0  0  0  0
   48.3080   32.2760   40.8090 C   0  0  0  0  0  0  0  0  0  0  0  0
   49.6200   31.6180   40.4880 C   0  0  0  0  0  0  0  0  0  0  0  0
   46.6736   34.1647   41.5050 H   0  0  0  0  0  0  0  0  0  0  0  0
   48.2116   36.0169   43.0918 H   0  0  0  0  0  0  0  0  0  0  0  0
   48.2371   35.9281   41.3168 H   0  0  0  0  0  0  0  0  0  0  0  0
   50.3236   35.0796   41.3790 H   0  0  0  0  0  0  0  0  0  0  0  0
   50.3093   35.2342   43.1653 H   0  0  0  0  0  0  0  0  0  0  0  0
   50.3824   32.8511   41.6800 H   0  0  0  0  0  0  0  0  0  0  0  0
   50.0570   32.9942   43.4195 H   0  0  0  0  0  0  0  0  0  0  0  0
   47.8464   32.2112   42.8883 H   0  0  0  0  0  0  0  0  0  0  0  0
   43.9300   35.1446   45.1899 H   0  0  0  0  0  0  0  0  0  0  0  0
   46.8782   32.2146   47.6581 H   0  0  0  0  0  0  0  0  0  0  0  0
   48.1616   31.9522   46.4470 H   0  0  0  0  0  0  0  0  0  0  0  0
   47.5164   31.5133   40.7696 H   0  0  0  0  0  0  0  0  0  0  0  0
   48.1539   33.0732   40.0669 H   0  0  0  0  0  0  0  0  0  0  0  0
   50.1382   31.3581   41.4228 H   0  0  0  0  0  0  0  0  0  0  0  0
   49.4385   30.7042   39.9031 H   0  0  0  0  0  0  0  0  0  0  0  0
   50.2438   32.3099   39.9031 H   0  0  0  0  0  0  0  0  0  0  0  0
  1  8  1  0
  2  3  1  0
  2  1  1  0
  3  4  1  0
  5  1  1  0
  5  4  1  0
  6 11  2  0
  7  6  1  0
  8  7  2  0
  8  9  1  0
  9 10  2  0
 10 11  1  0
 10 12  1  0
 13 14  1  0
 13 15  1  0
 13  7  1  0
 16 13  1  0
 17  5  1  0
 18 17  1  0
  1 19  1  6
  2 20  1  0
  2 21  1  0
  3 22  1  0
  3 23  1  0
  4 24  1  0
  4 25  1  0
  5 26  1  1
  6 27  1  0
 12 28  1  0
 12 29  1  0
 17 30  1  0
 17 31  1  0
 18 32  1  0
 18 33  1  0
 18 34  1  0
M  ISO  8  19  13  20  13  21  13  22  13  23  13  24  13  25  13  26  13
M  ISO  6  27  14  30   8  31   8  32   8  33   8  34   8
M  END
>  <minimizedAffinity>  (1) 
-5.09311819

>  <minimizedRMSD>  (1) 
0.499641716

$$$$
