
     RDKit          3D

 29 30  0  0  1  0  0  0  0  0999 V2000
   47.3000   34.1820   42.3580 C   0  0  1  0  0  0  0  0  0  0  0  0
   48.7910   34.5760   42.5550 C   0  0  0  0  0  0  0  0  0  0  0  0
   49.5910   33.3290   42.4110 C   0  0  0  0  0  0  0  0  0  0  0  0
   48.6650   32.1840   42.1560 C   0  0  0  0  0  0  0  0  0  0  0  0
   47.3040   32.7870   41.8750 C   0  0  1  0  0  0  0  0  0  0  0  0
   44.6920   34.8330   44.9840 C   0  0  0  0  0  0  0  0  0  0  0  0
   45.3710   34.8910   43.7820 C   0  0  0  0  0  0  0  0  0  0  0  0
   46.5970   34.2720   43.6590 C   0  0  0  0  0  0  0  0  0  0  0  0
   47.0910   33.6310   44.7300 N   0  0  0  0  0  0  0  0  0  0  0  0
   46.4170   33.5740   45.9120 C   0  0  0  0  0  0  0  0  0  0  0  0
   45.2360   34.1700   46.0320 N   0  0  0  0  0  0  0  0  0  0  0  0
   47.0940   32.7960   46.8850 N   0  0  0  0  0  0  0  0  0  0  0  0
   44.7570   35.6720   42.6840 C   0  0  0  0  0  0  0  0  0  0  0  0
   45.1480   36.9970   42.7350 F   0  0  0  0  0  0  0  0  0  0  0  0
   43.3940   35.6470   42.7070 F   0  0  0  0  0  0  0  0  0  0  0  0
   45.1550   35.2970   41.4470 F   0  0  0  0  0  0  0  0  0  0  0  0
   45.9820   31.7470   42.5510 S   0  0  0  0  0  0  0  0  0  0  0  0
   46.7877   34.8452   41.6455 H   0  0  0  0  0  0  0  0  0  0  0  0
   49.0925   35.3089   41.7921 H   0  0  0  0  0  0  0  0  0  0  0  0
   48.9499   35.0336   43.5426 H   0  0  0  0  0  0  0  0  0  0  0  0
   50.2890   33.4339   41.5673 H   0  0  0  0  0  0  0  0  0  0  0  0
   50.1635   33.1461   43.3323 H   0  0  0  0  0  0  0  0  0  0  0  0
   49.0096   31.6024   41.2883 H   0  0  0  0  0  0  0  0  0  0  0  0
   48.6280   31.5022   43.0184 H   0  0  0  0  0  0  0  0  0  0  0  0
   47.1009   32.8197   40.7944 H   0  0  0  0  0  0  0  0  0  0  0  0
   43.7131   35.3236   45.0892 H   0  0  0  0  0  0  0  0  0  0  0  0
   46.6860   32.6755   47.8230 H   0  0  0  0  0  0  0  0  0  0  0  0
   47.9938   32.3513   46.6538 H   0  0  0  0  0  0  0  0  0  0  0  0
   46.0275   31.7828   43.9198 H   0  0  0  0  0  0  0  0  0  0  0  0
  1  2  1  0
  1  8  1  0
  3  2  1  0
  4  3  1  0
  5  4  1  0
  5  1  1  0
  5 17  1  0
  6 11  2  0
  7  6  1  0
  8  7  2  0
  8  9  1  0
  9 10  2  0
 10 11  1  0
 10 12  1  0
 13 15  1  0
 13 14  1  0
 13  7  1  0
 16 13  1  0
  1 18  1  6
  2 19  1  0
  2 20  1  0
  3 21  1  0
  3 22  1  0
  4 23  1  0
  4 24  1  0
  5 25  1  6
  6 26  1  0
 12 27  1  0
 12 28  1  0
 17 29  1  0
M  ISO  8  18  13  19  13  20  13  21  13  22  13  23  13  24  13  25  13
M  ISO  2  26  14  29  11
M  END
>  <minimizedAffinity>  (1) 
-4.73852921

>  <minimizedRMSD>  (1) 
0.818711519

$$$$
