
     RDKit          3D

 39 41  0  0  1  0  0  0  0  0999 V2000
   47.4990   33.9810   42.4090 C   0  0  1  0  0  0  0  0  0  0  0  0
   48.4220   35.2400   42.3300 C   0  0  0  0  0  0  0  0  0  0  0  0
   49.8040   34.7480   42.3670 C   0  0  0  0  0  0  0  0  0  0  0  0
   49.7900   33.2750   42.5150 C   0  0  0  0  0  0  0  0  0  0  0  0
   48.3580   32.8200   42.3230 C   0  0  2  0  0  0  0  0  0  0  0  0
   44.9050   34.6580   45.0270 C   0  0  0  0  0  0  0  0  0  0  0  0
   45.5740   34.7190   43.8150 C   0  0  0  0  0  0  0  0  0  0  0  0
   46.7570   34.0250   43.6680 C   0  0  0  0  0  0  0  0  0  0  0  0
   47.2290   33.3090   44.7160 N   0  0  0  0  0  0  0  0  0  0  0  0
   46.5700   33.2600   45.8880 C   0  0  0  0  0  0  0  0  0  0  0  0
   45.4270   33.9260   46.0330 N   0  0  0  0  0  0  0  0  0  0  0  0
   47.2420   32.4490   46.8480 N   0  0  0  0  0  0  0  0  0  0  0  0
   44.9960   35.5690   42.7600 C   0  0  0  0  0  0  0  0  0  0  0  0
   45.5270   36.8520   42.8170 F   0  0  0  0  0  0  0  0  0  0  0  0
   43.6540   35.7030   42.8450 F   0  0  0  0  0  0  0  0  0  0  0  0
   45.2550   35.1410   41.5230 F   0  0  0  0  0  0  0  0  0  0  0  0
   48.1860   31.9210   41.1610 C   0  0  0  0  0  0  0  0  0  0  0  0
   48.2110   30.5220   41.2370 C   0  0  0  0  0  0  0  0  0  0  0  0
   47.9860   29.7480   40.1180 C   0  0  0  0  0  0  0  0  0  0  0  0
   47.7260   30.3890   38.8920 C   0  0  0  0  0  0  0  0  0  0  0  0
   47.7100   31.7850   38.8320 C   0  0  0  0  0  0  0  0  0  0  0  0
   47.9480   32.5090   39.9700 C   0  0  0  0  0  0  0  0  0  0  0  0
   48.0490   34.1830   39.2760 S   0  0  0  0  0  0  0  0  0  0  0  0
   46.7631   33.9450   41.5922 H   0  0  0  0  0  0  0  0  0  0  0  0
   48.2323   35.9043   43.1860 H   0  0  0  0  0  0  0  0  0  0  0  0
   48.2300   35.8165   41.4130 H   0  0  0  0  0  0  0  0  0  0  0  0
   50.3168   35.0194   41.4325 H   0  0  0  0  0  0  0  0  0  0  0  0
   50.3360   35.2008   43.2167 H   0  0  0  0  0  0  0  0  0  0  0  0
   50.4374   32.8135   41.7548 H   0  0  0  0  0  0  0  0  0  0  0  0
   50.1649   32.9781   43.5056 H   0  0  0  0  0  0  0  0  0  0  0  0
   48.0393   32.1495   43.1347 H   0  0  0  0  0  0  0  0  0  0  0  0
   43.9585   35.2006   45.1674 H   0  0  0  0  0  0  0  0  0  0  0  0
   46.8423   32.3272   47.7894 H   0  0  0  0  0  0  0  0  0  0  0  0
   48.1274   31.9847   46.6004 H   0  0  0  0  0  0  0  0  0  0  0  0
   48.4128   30.0346   42.2022 H   0  0  0  0  0  0  0  0  0  0  0  0
   48.0093   28.6501   40.1823 H   0  0  0  0  0  0  0  0  0  0  0  0
   47.5365   29.7943   37.9862 H   0  0  0  0  0  0  0  0  0  0  0  0
   47.5082   32.2976   37.8799 H   0  0  0  0  0  0  0  0  0  0  0  0
   48.1042   35.0972   40.2949 H   0  0  0  0  0  0  0  0  0  0  0  0
  1  8  1  0
  2  3  1  0
  2  1  1  0
  3  4  1  0
  5  1  1  0
  5  4  1  0
  6 11  2  0
  7  6  1  0
  8  7  2  0
  8  9  1  0
  9 10  2  0
 10 11  1  0
 10 12  1  0
 13 14  1  0
 13 15  1  0
 13  7  1  0
 16 13  1  0
 17 18  2  0
 17  5  1  0
 19 18  1  0
 20 19  2  0
 21 20  1  0
 21 22  2  0
 22 17  1  0
 23 22  1  0
  1 24  1  6
  2 25  1  0
  2 26  1  0
  3 27  1  0
  3 28  1  0
  4 29  1  0
  4 30  1  0
  5 31  1  1
  6 32  1  0
 12 33  1  0
 12 34  1  0
 18 35  1  0
 19 36  1  0
 20 37  1  0
 21 38  1  0
 23 39  1  0
M  ISO  8  24  13  25  13  26  13  27  13  28  13  29  13  30  13  31  13
M  ISO  6  32  14  35  14  36  14  37  14  38  14  39  11
M  END
>  <minimizedAffinity>  (1) 
-5.63069296

>  <minimizedRMSD>  (1) 
0.914320052

$$$$
