
     RDKit          3D

 39 41  0  0  1  0  0  0  0  0999 V2000
   47.7080   34.3930   42.3180 C   0  0  1  0  0  0  0  0  0  0  0  0
   49.0970   35.0310   42.6790 C   0  0  0  0  0  0  0  0  0  0  0  0
   50.1060   33.9860   42.4160 C   0  0  0  0  0  0  0  0  0  0  0  0
   49.4300   32.7870   41.8760 C   0  0  0  0  0  0  0  0  0  0  0  0
   47.9670   33.1360   41.6490 C   0  0  2  0  0  0  0  0  0  0  0  0
   44.9550   34.4690   44.8620 C   0  0  0  0  0  0  0  0  0  0  0  0
   45.6700   34.7580   43.7030 C   0  0  0  0  0  0  0  0  0  0  0  0
   46.9190   34.2080   43.5390 C   0  0  0  0  0  0  0  0  0  0  0  0
   47.4180   33.4050   44.5080 N   0  0  0  0  0  0  0  0  0  0  0  0
   46.7180   33.1330   45.6250 C   0  0  0  0  0  0  0  0  0  0  0  0
   45.5060   33.6610   45.7910 N   0  0  0  0  0  0  0  0  0  0  0  0
   47.4240   32.2620   46.5030 N   0  0  0  0  0  0  0  0  0  0  0  0
   45.0430   35.6730   42.7350 C   0  0  0  0  0  0  0  0  0  0  0  0
   45.5570   36.9550   42.8820 F   0  0  0  0  0  0  0  0  0  0  0  0
   43.6970   35.7670   42.8650 F   0  0  0  0  0  0  0  0  0  0  0  0
   45.2710   35.3540   41.4590 F   0  0  0  0  0  0  0  0  0  0  0  0
   47.5630   33.0240   40.2260 C   0  0  0  0  0  0  0  0  0  0  0  0
   46.7510   32.0150   39.7180 C   0  0  0  0  0  0  0  0  0  0  0  0
   46.3880   32.0040   38.3890 C   0  0  0  0  0  0  0  0  0  0  0  0
   46.8440   33.0270   37.5380 C   0  0  0  0  0  0  0  0  0  0  0  0
   47.6610   34.0310   38.0650 C   0  0  0  0  0  0  0  0  0  0  0  0
   48.0020   33.9960   39.3940 C   0  0  0  0  0  0  0  0  0  0  0  0
   48.8070   35.1420   39.4210 O   0  0  0  0  0  0  0  0  0  0  0  0
   47.1256   35.0460   41.6514 H   0  0  0  0  0  0  0  0  0  0  0  0
   49.2874   35.9130   42.0499 H   0  0  0  0  0  0  0  0  0  0  0  0
   49.1267   35.3649   43.7267 H   0  0  0  0  0  0  0  0  0  0  0  0
   50.8386   34.3570   41.6841 H   0  0  0  0  0  0  0  0  0  0  0  0
   50.6264   33.7292   43.3505 H   0  0  0  0  0  0  0  0  0  0  0  0
   49.8958   32.4925   40.9240 H   0  0  0  0  0  0  0  0  0  0  0  0
   49.5182   31.9477   42.5815 H   0  0  0  0  0  0  0  0  0  0  0  0
   47.2954   32.3946   42.1065 H   0  0  0  0  0  0  0  0  0  0  0  0
   43.9527   34.8945   45.0183 H   0  0  0  0  0  0  0  0  0  0  0  0
   46.9981   31.9747   47.3957 H   0  0  0  0  0  0  0  0  0  0  0  0
   48.3605   31.9193   46.2453 H   0  0  0  0  0  0  0  0  0  0  0  0
   46.3946   31.2165   40.3854 H   0  0  0  0  0  0  0  0  0  0  0  0
   45.7465   31.2013   37.9964 H   0  0  0  0  0  0  0  0  0  0  0  0
   46.5621   33.0366   36.4748 H   0  0  0  0  0  0  0  0  0  0  0  0
   48.0278   34.8428   37.4198 H   0  0  0  0  0  0  0  0  0  0  0  0
   49.2367   35.4253   40.2667 H   0  0  0  0  0  0  0  0  0  0  0  0
  1  2  1  0
  1  8  1  0
  3  2  1  0
  4  3  1  0
  5  4  1  0
  5  1  1  0
  6 11  2  0
  7  6  1  0
  8  7  2  0
  8  9  1  0
  9 10  2  0
 10 11  1  0
 10 12  1  0
 13 15  1  0
 13 14  1  0
 13  7  1  0
 16 13  1  0
 17  5  1  0
 18 17  2  0
 19 18  1  0
 20 21  1  0
 20 19  2  0
 21 22  2  0
 22 23  1  0
 22 17  1  0
  1 24  1  6
  2 25  1  0
  2 26  1  0
  3 27  1  0
  3 28  1  0
  4 29  1  0
  4 30  1  0
  5 31  1  1
  6 32  1  0
 12 33  1  0
 12 34  1  0
 18 35  1  0
 19 36  1  0
 20 37  1  0
 21 38  1  0
 23 39  1  0
M  ISO  8  24  13  25  13  26  13  27  13  28  13  29  13  30  13  31  13
M  ISO  6  32  14  35  14  36  14  37  14  38  14  39   3
M  END
>  <minimizedAffinity>  (1) 
-6.03631496

>  <minimizedRMSD>  (1) 
0.696494281

$$$$
