
     RDKit          3D

 48 50  0  0  1  0  0  0  0  0999 V2000
   47.4470   33.9820   42.4170 C   0  0  1  0  0  0  0  0  0  0  0  0
   47.9990   35.3670   42.0050 C   0  0  0  0  0  0  0  0  0  0  0  0
   49.4580   35.3030   42.1710 C   0  0  0  0  0  0  0  0  0  0  0  0
   49.8330   33.9630   42.6560 C   0  0  0  0  0  0  0  0  0  0  0  0
   48.5900   33.0870   42.6380 C   0  0  2  0  0  0  0  0  0  0  0  0
   44.7680   34.7840   44.9170 C   0  0  0  0  0  0  0  0  0  0  0  0
   45.4550   34.7530   43.7120 C   0  0  0  0  0  0  0  0  0  0  0  0
   46.6450   34.0910   43.6460 C   0  0  0  0  0  0  0  0  0  0  0  0
   47.1180   33.4850   44.7610 N   0  0  0  0  0  0  0  0  0  0  0  0
   46.4470   33.5210   45.9190 C   0  0  0  0  0  0  0  0  0  0  0  0
   45.2870   34.1650   45.9870 N   0  0  0  0  0  0  0  0  0  0  0  0
   47.1240   32.8240   46.9600 N   0  0  0  0  0  0  0  0  0  0  0  0
   44.8380   35.4550   42.5690 C   0  0  0  0  0  0  0  0  0  0  0  0
   45.2300   36.7850   42.5630 F   0  0  0  0  0  0  0  0  0  0  0  0
   43.4870   35.4500   42.5770 F   0  0  0  0  0  0  0  0  0  0  0  0
   45.1850   34.9750   41.3740 F   0  0  0  0  0  0  0  0  0  0  0  0
   48.7160   31.9460   41.6850 C   0  0  0  0  0  0  0  0  0  0  0  0
   48.7680   30.6100   42.1280 C   0  0  0  0  0  0  0  0  0  0  0  0
   48.8660   29.5650   41.2630 C   0  0  0  0  0  0  0  0  0  0  0  0
   48.9120   29.8510   39.8850 C   0  0  0  0  0  0  0  0  0  0  0  0
   48.8590   31.1780   39.4820 C   0  0  0  0  0  0  0  0  0  0  0  0
   48.7650   32.2190   40.3730 C   0  0  0  0  0  0  0  0  0  0  0  0
   48.7720   33.2950   39.5540 O   0  0  0  0  0  0  0  0  0  0  0  0
   47.9970   34.0640   38.8120 C   0  0  0  0  0  0  0  0  0  0  0  0
   46.5970   33.4150   38.7040 C   0  0  0  0  0  0  0  0  0  0  0  0
   48.4240   34.3090   37.3780 C   0  0  0  0  0  0  0  0  0  0  0  0
   46.7962   33.5851   41.6239 H   0  0  0  0  0  0  0  0  0  0  0  0
   47.5774   36.1512   42.6510 H   0  0  0  0  0  0  0  0  0  0  0  0
   47.7278   35.6097   40.9670 H   0  0  0  0  0  0  0  0  0  0  0  0
   49.9469   35.4944   41.2044 H   0  0  0  0  0  0  0  0  0  0  0  0
   49.7805   36.0625   42.8984 H   0  0  0  0  0  0  0  0  0  0  0  0
   50.6026   33.5311   41.9994 H   0  0  0  0  0  0  0  0  0  0  0  0
   50.2380   34.0276   43.6767 H   0  0  0  0  0  0  0  0  0  0  0  0
   48.4379   32.5685   43.5961 H   0  0  0  0  0  0  0  0  0  0  0  0
   43.8060   35.3118   44.9938 H   0  0  0  0  0  0  0  0  0  0  0  0
   46.7107   32.7777   47.9023 H   0  0  0  0  0  0  0  0  0  0  0  0
   48.0270   32.3662   46.7707 H   0  0  0  0  0  0  0  0  0  0  0  0
   48.7281   30.4052   43.2080 H   0  0  0  0  0  0  0  0  0  0  0  0
   48.9080   28.5284   41.6286 H   0  0  0  0  0  0  0  0  0  0  0  0
   48.9882   29.0410   39.1447 H   0  0  0  0  0  0  0  0  0  0  0  0
   48.8937   31.4051   38.4062 H   0  0  0  0  0  0  0  0  0  0  0  0
   48.0388   35.0314   39.3340 H   0  0  0  0  0  0  0  0  0  0  0  0
   46.1995   33.2307   39.7130 H   0  0  0  0  0  0  0  0  0  0  0  0
   45.9203   34.0912   38.1611 H   0  0  0  0  0  0  0  0  0  0  0  0
   46.6757   32.4615   38.1611 H   0  0  0  0  0  0  0  0  0  0  0  0
   49.3781   34.8564   37.3679 H   0  0  0  0  0  0  0  0  0  0  0  0
   48.5488   33.3451   36.8628 H   0  0  0  0  0  0  0  0  0  0  0  0
   47.6549   34.9032   36.8628 H   0  0  0  0  0  0  0  0  0  0  0  0
  1  5  1  0
  1  8  1  0
  2  3  1  0
  2  1  1  0
  3  4  1  0
  5  4  1  0
  6 11  2  0
  7  6  1  0
  8  7  2  0
  8  9  1  0
  9 10  2  0
 10 11  1  0
 10 12  1  0
 13 15  1  0
 13  7  1  0
 14 13  1  0
 16 13  1  0
 17 18  2  0
 17  5  1  0
 19 18  1  0
 20 19  2  0
 21 20  1  0
 21 22  2  0
 22 17  1  0
 23 22  1  0
 24 23  1  0
 25 24  1  0
 26 24  1  0
  1 27  1  6
  2 28  1  0
  2 29  1  0
  3 30  1  0
  3 31  1  0
  4 32  1  0
  4 33  1  0
  5 34  1  1
  6 35  1  0
 12 36  1  0
 12 37  1  0
 18 38  1  0
 19 39  1  0
 20 40  1  0
 21 41  1  0
 24 42  1  0
 25 43  1  0
 25 44  1  0
 25 45  1  0
 26 46  1  0
 26 47  1  0
 26 48  1  0
M  ISO  8  27  13  28  13  29  13  30  13  31  13  32  13  33  13  34  13
M  ISO  8  35  14  38  14  39  14  40  14  41  14  42   8  43   8  44   8
M  ISO  4  45   8  46   8  47   8  48   8
M  END
>  <minimizedAffinity>  (1) 
-6.11209011

>  <minimizedRMSD>  (1) 
2.10041308

$$$$
