
     RDKit          3D

 45 47  0  0  1  0  0  0  0  0999 V2000
   47.4010   34.0150   42.3880 C   0  0  1  0  0  0  0  0  0  0  0  0
   48.0770   35.3640   42.0470 C   0  0  0  0  0  0  0  0  0  0  0  0
   49.5230   35.1610   42.2290 C   0  0  0  0  0  0  0  0  0  0  0  0
   49.7760   33.7700   42.6200 C   0  0  0  0  0  0  0  0  0  0  0  0
   48.4560   33.0110   42.5600 C   0  0  2  0  0  0  0  0  0  0  0  0
   44.7450   34.8390   44.9080 C   0  0  0  0  0  0  0  0  0  0  0  0
   45.4240   34.8070   43.6940 C   0  0  0  0  0  0  0  0  0  0  0  0
   46.6070   34.1280   43.6260 C   0  0  0  0  0  0  0  0  0  0  0  0
   47.0810   33.5120   44.7340 N   0  0  0  0  0  0  0  0  0  0  0  0
   46.4200   33.5490   45.9000 C   0  0  0  0  0  0  0  0  0  0  0  0
   45.2650   34.2080   45.9730 N   0  0  0  0  0  0  0  0  0  0  0  0
   47.0980   32.8380   46.9330 N   0  0  0  0  0  0  0  0  0  0  0  0
   44.8110   35.5170   42.5600 C   0  0  0  0  0  0  0  0  0  0  0  0
   45.2150   36.8420   42.5590 F   0  0  0  0  0  0  0  0  0  0  0  0
   43.4610   35.5230   42.5770 F   0  0  0  0  0  0  0  0  0  0  0  0
   45.1460   35.0380   41.3610 F   0  0  0  0  0  0  0  0  0  0  0  0
   48.4820   31.9060   41.5600 C   0  0  0  0  0  0  0  0  0  0  0  0
   48.4900   30.5570   41.9160 C   0  0  0  0  0  0  0  0  0  0  0  0
   48.4980   29.5620   40.9820 C   0  0  0  0  0  0  0  0  0  0  0  0
   48.4950   29.9160   39.6330 C   0  0  0  0  0  0  0  0  0  0  0  0
   48.4870   31.2600   39.3070 C   0  0  0  0  0  0  0  0  0  0  0  0
   48.4870   32.2560   40.2520 C   0  0  0  0  0  0  0  0  0  0  0  0
   48.5120   33.3810   39.4740 O   0  0  0  0  0  0  0  0  0  0  0  0
   47.6690   33.9740   38.5960 C   0  0  0  0  0  0  0  0  0  0  0  0
   48.5010   34.5610   37.4570 C   0  0  0  0  0  0  0  0  0  0  0  0
   46.7189   33.7237   41.5757 H   0  0  0  0  0  0  0  0  0  0  0  0
   47.7153   36.1526   42.7233 H   0  0  0  0  0  0  0  0  0  0  0  0
   47.8444   35.6783   41.0188 H   0  0  0  0  0  0  0  0  0  0  0  0
   50.0453   35.3775   41.2854 H   0  0  0  0  0  0  0  0  0  0  0  0
   49.8919   35.8359   43.0154 H   0  0  0  0  0  0  0  0  0  0  0  0
   50.4994   33.3143   41.9278 H   0  0  0  0  0  0  0  0  0  0  0  0
   50.1909   33.7309   43.6380 H   0  0  0  0  0  0  0  0  0  0  0  0
   48.2517   32.4622   43.4912 H   0  0  0  0  0  0  0  0  0  0  0  0
   43.7895   35.3771   44.9946 H   0  0  0  0  0  0  0  0  0  0  0  0
   46.6918   32.7916   47.8784 H   0  0  0  0  0  0  0  0  0  0  0  0
   47.9940   32.3707   46.7340 H   0  0  0  0  0  0  0  0  0  0  0  0
   48.4899   30.2871   42.9824 H   0  0  0  0  0  0  0  0  0  0  0  0
   48.5066   28.5049   41.2862 H   0  0  0  0  0  0  0  0  0  0  0  0
   48.4989   29.1455   38.8480 H   0  0  0  0  0  0  0  0  0  0  0  0
   48.4803   31.5434   38.2442 H   0  0  0  0  0  0  0  0  0  0  0  0
   46.9636   33.2303   38.1968 H   0  0  0  0  0  0  0  0  0  0  0  0
   47.0964   34.7686   39.0967 H   0  0  0  0  0  0  0  0  0  0  0  0
   49.3324   35.1476   37.8748 H   0  0  0  0  0  0  0  0  0  0  0  0
   48.9026   33.7451   36.8380 H   0  0  0  0  0  0  0  0  0  0  0  0
   47.8670   35.2129   36.8380 H   0  0  0  0  0  0  0  0  0  0  0  0
  1  5  1  0
  1  8  1  0
  2  3  1  0
  2  1  1  0
  3  4  1  0
  5  4  1  0
  6 11  2  0
  7  6  1  0
  8  7  2  0
  8  9  1  0
  9 10  2  0
 10 11  1  0
 10 12  1  0
 13 15  1  0
 13  7  1  0
 14 13  1  0
 16 13  1  0
 17 18  2  0
 17  5  1  0
 19 18  1  0
 20 19  2  0
 21 20  1  0
 21 22  2  0
 22 17  1  0
 23 22  1  0
 24 23  1  0
 25 24  1  0
  1 26  1  6
  2 27  1  0
  2 28  1  0
  3 29  1  0
  3 30  1  0
  4 31  1  0
  4 32  1  0
  5 33  1  1
  6 34  1  0
 12 35  1  0
 12 36  1  0
 18 37  1  0
 19 38  1  0
 20 39  1  0
 21 40  1  0
 24 41  1  0
 24 42  1  0
 25 43  1  0
 25 44  1  0
 25 45  1  0
M  ISO  8  26  13  27  13  28  13  29  13  30  13  31  13  32  13  33  13
M  ISO  8  34  14  37  14  38  14  39  14  40  14  41   8  42   8  43   8
M  ISO  2  44   8  45   8
M  END
>  <minimizedAffinity>  (1) 
-5.88852072

>  <minimizedRMSD>  (1) 
1.88612676

$$$$
