
     RDKit          3D

 46 49  0  0  1  0  0  0  0  0999 V2000
   47.9700   34.6130   41.6240 C   0  0  2  0  0  0  0  0  0  0  0  0
   49.1110   35.4190   41.8750 C   0  0  0  0  0  0  0  0  0  0  0  0
   50.2500   34.4860   42.3260 C   0  0  0  0  0  0  0  0  0  0  0  0
   49.7240   33.0650   42.2640 C   0  0  0  0  0  0  0  0  0  0  0  0
   48.2740   33.2760   42.3740 C   0  0  1  0  0  0  0  0  0  0  0  0
   47.6070   34.1920   40.2500 C   0  0  0  0  0  0  0  0  0  0  0  0
   48.3880   34.6310   39.2010 C   0  0  0  0  0  0  0  0  0  0  0  0
   48.0990   34.2640   37.9040 C   0  0  0  0  0  0  0  0  0  0  0  0
   47.0030   33.4510   37.7420 N   0  0  0  0  0  0  0  0  0  0  0  0
   46.2640   33.0420   38.7770 C   0  0  0  0  0  0  0  0  0  0  0  0
   46.5480   33.4010   40.0380 N   0  0  0  0  0  0  0  0  0  0  0  0
   47.8730   33.3970   43.8060 C   0  0  0  0  0  0  0  0  0  0  0  0
   46.5360   32.7560   44.0370 C   0  0  0  0  0  0  0  0  0  0  0  0
   45.6770   33.8140   44.6710 C   0  0  0  0  0  0  0  0  0  0  0  0
   45.0290   34.8750   44.0900 C   0  0  0  0  0  0  0  0  0  0  0  0
   44.3870   35.5530   45.0740 N   0  0  0  0  0  0  0  0  0  0  0  0
   44.6270   34.9350   46.2300 C   0  0  0  0  0  0  0  0  0  0  0  0
   45.3990   33.8910   46.0090 N   0  0  0  0  0  0  0  0  0  0  0  0
   45.9020   32.9470   46.9730 C   0  0  0  0  0  0  0  0  0  0  0  0
   44.8520   32.4380   47.7290 C   0  0  0  0  0  0  0  0  0  0  0  0
   45.1230   31.4980   48.7300 C   0  0  0  0  0  0  0  0  0  0  0  0
   46.4230   31.0930   48.9500 C   0  0  0  0  0  0  0  0  0  0  0  0
   47.4430   31.6190   48.1800 C   0  0  0  0  0  0  0  0  0  0  0  0
   47.2020   32.5470   47.1880 C   0  0  0  0  0  0  0  0  0  0  0  0
   47.1274   35.2523   41.9262 H   0  0  0  0  0  0  0  0  0  0  0  0
   49.4032   35.9515   40.9579 H   0  0  0  0  0  0  0  0  0  0  0  0
   48.8928   36.1661   42.6524 H   0  0  0  0  0  0  0  0  0  0  0  0
   51.1145   34.5965   41.6548 H   0  0  0  0  0  0  0  0  0  0  0  0
   50.5751   34.7355   43.3468 H   0  0  0  0  0  0  0  0  0  0  0  0
   49.9873   32.5817   41.3116 H   0  0  0  0  0  0  0  0  0  0  0  0
   50.1378   32.4027   43.0387 H   0  0  0  0  0  0  0  0  0  0  0  0
   47.7165   32.4315   41.9427 H   0  0  0  0  0  0  0  0  0  0  0  0
   49.2518   35.2818   39.4019 H   0  0  0  0  0  0  0  0  0  0  0  0
   48.7077   34.6009   37.0520 H   0  0  0  0  0  0  0  0  0  0  0  0
   45.3969   32.3916   38.5897 H   0  0  0  0  0  0  0  0  0  0  0  0
   48.6257   32.8996   44.4353 H   0  0  0  0  0  0  0  0  0  0  0  0
   47.8040   34.4637   44.0656 H   0  0  0  0  0  0  0  0  0  0  0  0
   46.0983   32.4289   43.0823 H   0  0  0  0  0  0  0  0  0  0  0  0
   46.6198   31.8658   44.6777 H   0  0  0  0  0  0  0  0  0  0  0  0
   45.0300   35.1296   43.0199 H   0  0  0  0  0  0  0  0  0  0  0  0
   44.2419   35.2470   47.2120 H   0  0  0  0  0  0  0  0  0  0  0  0
   43.8201   32.7703   47.5426 H   0  0  0  0  0  0  0  0  0  0  0  0
   44.3043   31.0848   49.3375 H   0  0  0  0  0  0  0  0  0  0  0  0
   46.6468   30.3550   49.7344 H   0  0  0  0  0  0  0  0  0  0  0  0
   48.4760   31.2885   48.3632 H   0  0  0  0  0  0  0  0  0  0  0  0
   48.0260   32.9563   46.5851 H   0  0  0  0  0  0  0  0  0  0  0  0
  1  2  1  0
  1  5  1  0
  2  3  1  0
  4  3  1  0
  4  5  1  0
  5 12  1  0
  6  1  1  0
  7  6  2  0
  8  7  1  0
  9  8  2  0
  9 10  1  0
 10 11  2  0
 11  6  1  0
 12 13  1  0
 13 14  1  0
 14 18  1  0
 15 14  2  0
 15 16  1  0
 16 17  2  0
 18 17  1  0
 18 19  1  0
 19 24  1  0
 19 20  2  0
 20 21  1  0
 21 22  2  0
 23 22  1  0
 24 23  2  0
  1 25  1  1
  2 26  1  0
  2 27  1  0
  3 28  1  0
  3 29  1  0
  4 30  1  0
  4 31  1  0
  5 32  1  6
  7 33  1  0
  8 34  1  0
 10 35  1  0
 12 36  1  0
 12 37  1  0
 13 38  1  0
 13 39  1  0
 15 40  1  0
 17 41  1  0
 20 42  1  0
 21 43  1  0
 22 44  1  0
 23 45  1  0
 24 46  1  0
M  ISO  8  25  13  26  13  27  13  28  13  29  13  30  13  31  13  32  13
M  ISO  8  33  14  34  14  35  14  36   8  37   8  38   8  39   8  40  14
M  ISO  6  41  14  42  14  43  14  44  14  45  14  46  14
M  END
>  <minimizedAffinity>  (1) 
-6.31806755

>  <minimizedRMSD>  (1) 
1.18360603

$$$$
