
     RDKit          3D

 12 12  0  0  0  0  0  0  0  0999 V2000
   44.9460   35.0390   44.3700 C   0  0  0  0  0  0  0  0  0  0  0  0
   45.8730   34.9080   43.3230 C   0  0  0  0  0  0  0  0  0  0  0  0
   46.9570   34.0220   43.5170 C   0  0  0  0  0  0  0  0  0  0  0  0
   47.0380   33.3490   44.7060 N   0  0  0  0  0  0  0  0  0  0  0  0
   46.1200   33.5140   45.6750 C   0  0  0  0  0  0  0  0  0  0  0  0
   45.0840   34.3490   45.5100 N   0  0  0  0  0  0  0  0  0  0  0  0
   43.8080   35.8910   44.3160 N   0  0  0  0  0  0  0  0  0  0  0  0
   45.7596   35.4740   42.3866 H   0  0  0  0  0  0  0  0  0  0  0  0
   47.7152   33.8772   42.7334 H   0  0  0  0  0  0  0  0  0  0  0  0
   46.2207   32.9554   46.6172 H   0  0  0  0  0  0  0  0  0  0  0  0
   43.6279   36.4570   43.4745 H   0  0  0  0  0  0  0  0  0  0  0  0
   43.1642   35.9419   45.1184 H   0  0  0  0  0  0  0  0  0  0  0  0
  1  6  2  0
  2  3  2  0
  2  1  1  0
  3  4  1  0
  4  5  2  0
  6  5  1  0
  7  1  1  0
  2  8  1  0
  3  9  1  0
  5 10  1  0
  7 11  1  0
  7 12  1  0
M  ISO  3   8  14   9  14  10  14
M  END
>  <minimizedAffinity>  (1) 
-3.13355327

>  <minimizedRMSD>  (1) 
0.986944735

$$$$
