
     RDKit          3D

 26 27  0  0  0  0  0  0  0  0999 V2000
   45.0240   34.7860   44.7240 C   0  0  0  0  0  0  0  0  0  0  0  0
   45.8660   34.4390   43.6600 C   0  0  0  0  0  0  0  0  0  0  0  0
   46.8560   33.4620   43.9200 C   0  0  0  0  0  0  0  0  0  0  0  0
   46.9260   32.9260   45.1780 N   0  0  0  0  0  0  0  0  0  0  0  0
   46.0900   33.3040   46.1530 C   0  0  0  0  0  0  0  0  0  0  0  0
   45.1480   34.2210   45.9340 N   0  0  0  0  0  0  0  0  0  0  0  0
   43.9900   35.7460   44.6140 N   0  0  0  0  0  0  0  0  0  0  0  0
   46.2240   32.7020   47.4360 N   0  0  0  0  0  0  0  0  0  0  0  0
   47.5000   32.5220   48.0690 C   0  0  0  0  0  0  0  0  0  0  0  0
   47.7030   31.0790   48.5250 C   0  0  0  0  0  0  0  0  0  0  0  0
   46.5870   30.6670   49.3360 N   0  0  0  0  0  0  0  0  0  0  0  0
   45.3110   30.8160   48.7050 C   0  0  0  0  0  0  0  0  0  0  0  0
   45.1010   32.2280   48.1950 C   0  0  0  0  0  0  0  0  0  0  0  0
   45.7626   34.9042   42.6686 H   0  0  0  0  0  0  0  0  0  0  0  0
   47.5521   33.1411   43.1310 H   0  0  0  0  0  0  0  0  0  0  0  0
   43.8273   36.2273   43.7180 H   0  0  0  0  0  0  0  0  0  0  0  0
   43.4001   35.9634   45.4299 H   0  0  0  0  0  0  0  0  0  0  0  0
   48.2934   32.7854   47.3541 H   0  0  0  0  0  0  0  0  0  0  0  0
   47.5387   33.1716   48.9559 H   0  0  0  0  0  0  0  0  0  0  0  0
   47.7772   30.4239   47.6445 H   0  0  0  0  0  0  0  0  0  0  0  0
   48.6287   31.0093   49.1151 H   0  0  0  0  0  0  0  0  0  0  0  0
   46.7132   29.6736   49.5770 H   0  0  0  0  0  0  0  0  0  0  0  0
   45.2483   30.1175   47.8575 H   0  0  0  0  0  0  0  0  0  0  0  0
   44.5316   30.6006   49.4508 H   0  0  0  0  0  0  0  0  0  0  0  0
   44.9470   32.8963   49.0550 H   0  0  0  0  0  0  0  0  0  0  0  0
   44.2233   32.2211   47.5319 H   0  0  0  0  0  0  0  0  0  0  0  0
  1  6  2  0
  2  3  2  0
  2  1  1  0
  3  4  1  0
  4  5  2  0
  5  8  1  0
  6  5  1  0
  7  1  1  0
  8  9  1  0
  8 13  1  0
  9 10  1  0
 10 11  1  0
 12 11  1  0
 13 12  1  0
  2 14  1  0
  3 15  1  0
  7 16  1  0
  7 17  1  0
  9 18  1  0
  9 19  1  0
 10 20  1  0
 10 21  1  0
 11 22  1  0
 12 23  1  0
 12 24  1  0
 13 25  1  0
 13 26  1  0
M  ISO  8  14  14  15  14  18  13  19  13  20  13  21  13  22   5  23  13
M  ISO  3  24  13  25  13  26  13
M  END
>  <minimizedAffinity>  (1) 
-5.269032

>  <minimizedRMSD>  (1) 
0.62107259

$$$$
