
     RDKit          3D

 28 29  0  0  0  0  0  0  0  0999 V2000
   44.9400   35.0260   44.3530 C   0  0  0  0  0  0  0  0  0  0  0  0
   45.8340   34.8980   43.2820 C   0  0  0  0  0  0  0  0  0  0  0  0
   46.9380   34.0430   43.4440 C   0  0  0  0  0  0  0  0  0  0  0  0
   47.0800   33.3870   44.6300 N   0  0  0  0  0  0  0  0  0  0  0  0
   46.1970   33.5370   45.6370 C   0  0  0  0  0  0  0  0  0  0  0  0
   45.1350   34.3510   45.5010 N   0  0  0  0  0  0  0  0  0  0  0  0
   43.7840   35.8450   44.3460 N   0  0  0  0  0  0  0  0  0  0  0  0
   46.4610   32.7720   46.8720 C   0  0  0  0  0  0  0  0  0  0  0  0
   45.2680   32.5850   47.7520 C   0  0  0  0  0  0  0  0  0  0  0  0
   45.7810   32.1630   49.1220 C   0  0  0  0  0  0  0  0  0  0  0  0
   46.4880   30.8420   48.9570 C   0  0  0  0  0  0  0  0  0  0  0  0
   47.5930   30.9130   47.9270 C   0  0  0  0  0  0  0  0  0  0  0  0
   47.0610   31.4150   46.5960 C   0  0  0  0  0  0  0  0  0  0  0  0
   45.6769   35.4495   42.3433 H   0  0  0  0  0  0  0  0  0  0  0  0
   47.6692   33.9068   42.6335 H   0  0  0  0  0  0  0  0  0  0  0  0
   43.5514   36.4004   43.5103 H   0  0  0  0  0  0  0  0  0  0  0  0
   43.1762   35.8851   45.1766 H   0  0  0  0  0  0  0  0  0  0  0  0
   47.1841   33.4035   47.4089 H   0  0  0  0  0  0  0  0  0  0  0  0
   44.7081   33.5283   47.8334 H   0  0  0  0  0  0  0  0  0  0  0  0
   44.5918   31.8233   47.3366 H   0  0  0  0  0  0  0  0  0  0  0  0
   46.4816   32.9176   49.5089 H   0  0  0  0  0  0  0  0  0  0  0  0
   44.9480   32.0690   49.8342 H   0  0  0  0  0  0  0  0  0  0  0  0
   46.9228   30.5492   49.9241 H   0  0  0  0  0  0  0  0  0  0  0  0
   45.7497   30.1035   48.6114 H   0  0  0  0  0  0  0  0  0  0  0  0
   48.3750   31.5992   48.2843 H   0  0  0  0  0  0  0  0  0  0  0  0
   48.0048   29.9032   47.7829 H   0  0  0  0  0  0  0  0  0  0  0  0
   46.2931   30.7294   46.2084 H   0  0  0  0  0  0  0  0  0  0  0  0
   47.8580   31.4734   45.8401 H   0  0  0  0  0  0  0  0  0  0  0  0
  1  6  2  0
  2  3  2  0
  2  1  1  0
  3  4  1  0
  4  5  2  0
  5  8  1  0
  6  5  1  0
  7  1  1  0
  8  9  1  0
  9 10  1  0
 11 10  1  0
 12 11  1  0
 13  8  1  0
 13 12  1  0
  2 14  1  0
  3 15  1  0
  7 16  1  0
  7 17  1  0
  8 18  1  0
  9 19  1  0
  9 20  1  0
 10 21  1  0
 10 22  1  0
 11 23  1  0
 11 24  1  0
 12 25  1  0
 12 26  1  0
 13 27  1  0
 13 28  1  0
M  ISO  8  14  14  15  14  18  13  19  13  20  13  21  13  22  13  23  13
M  ISO  5  24  13  25  13  26  13  27  13  28  13
M  END
>  <minimizedAffinity>  (1) 
-5.18117046

>  <minimizedRMSD>  (1) 
0.501901388

$$$$
