
     RDKit          3D

 21 22  0  0  0  0  0  0  0  0999 V2000
   44.9590   35.0060   44.5060 C   0  0  0  0  0  0  0  0  0  0  0  0
   45.8670   34.8950   43.4500 C   0  0  0  0  0  0  0  0  0  0  0  0
   46.9430   33.9860   43.5990 C   0  0  0  0  0  0  0  0  0  0  0  0
   47.0230   33.2770   44.7650 N   0  0  0  0  0  0  0  0  0  0  0  0
   46.1190   33.4270   45.7430 C   0  0  0  0  0  0  0  0  0  0  0  0
   45.0890   34.2870   45.6210 N   0  0  0  0  0  0  0  0  0  0  0  0
   43.8420   35.8750   44.4870 N   0  0  0  0  0  0  0  0  0  0  0  0
   46.2820   32.6270   46.9580 C   0  0  0  0  0  0  0  0  0  0  0  0
   45.2260   32.5760   47.8730 C   0  0  0  0  0  0  0  0  0  0  0  0
   45.4160   31.8110   49.0060 C   0  0  0  0  0  0  0  0  0  0  0  0
   46.6290   31.1660   49.1330 C   0  0  0  0  0  0  0  0  0  0  0  0
   47.6760   31.2090   48.2360 C   0  0  0  0  0  0  0  0  0  0  0  0
   47.4470   31.9740   47.1330 N   0  0  0  0  0  0  0  0  0  0  0  0
   45.7503   35.4931   42.5342 H   0  0  0  0  0  0  0  0  0  0  0  0
   47.6900   33.8548   42.8023 H   0  0  0  0  0  0  0  0  0  0  0  0
   43.6649   36.4682   43.6638 H   0  0  0  0  0  0  0  0  0  0  0  0
   43.2062   35.9142   45.2964 H   0  0  0  0  0  0  0  0  0  0  0  0
   44.2866   33.1208   47.6979 H   0  0  0  0  0  0  0  0  0  0  0  0
   44.6342   31.7195   49.7744 H   0  0  0  0  0  0  0  0  0  0  0  0
   46.7755   30.5581   50.0380 H   0  0  0  0  0  0  0  0  0  0  0  0
   48.6202   30.6686   48.3986 H   0  0  0  0  0  0  0  0  0  0  0  0
  1  6  2  0
  2  3  2  0
  2  1  1  0
  3  4  1  0
  4  5  2  0
  5  8  1  0
  6  5  1  0
  7  1  1  0
  8 13  1  0
  8  9  2  0
  9 10  1  0
 10 11  2  0
 12 11  1  0
 13 12  2  0
  2 14  1  0
  3 15  1  0
  7 16  1  0
  7 17  1  0
  9 18  1  0
 10 19  1  0
 11 20  1  0
 12 21  1  0
M  ISO  6  14  14  15  14  18  14  19  14  20  14  21  14
M  END
>  <minimizedAffinity>  (1) 
-5.13036394

>  <minimizedRMSD>  (1) 
0.581289887

$$$$
