
     RDKit          3D

 19 20  0  0  0  0  0  0  0  0999 V2000
   45.0100   34.8360   44.7080 C   0  0  0  0  0  0  0  0  0  0  0  0
   45.9020   34.5590   43.6670 C   0  0  0  0  0  0  0  0  0  0  0  0
   46.9250   33.6230   43.8830 C   0  0  0  0  0  0  0  0  0  0  0  0
   46.9920   33.0280   45.1090 N   0  0  0  0  0  0  0  0  0  0  0  0
   46.1110   33.3280   46.0790 C   0  0  0  0  0  0  0  0  0  0  0  0
   45.1270   34.2160   45.8980 N   0  0  0  0  0  0  0  0  0  0  0  0
   43.9370   35.7590   44.6170 N   0  0  0  0  0  0  0  0  0  0  0  0
   46.2840   32.6290   47.3470 C   0  0  0  0  0  0  0  0  0  0  0  0
   45.1640   32.2180   48.0670 C   0  0  0  0  0  0  0  0  0  0  0  0
   45.5840   31.5970   49.2010 C   0  0  0  0  0  0  0  0  0  0  0  0
   46.9460   31.6250   49.1760 N   0  0  0  0  0  0  0  0  0  0  0  0
   47.3610   32.2430   48.0660 N   0  0  0  0  0  0  0  0  0  0  0  0
   45.8034   35.0660   42.6958 H   0  0  0  0  0  0  0  0  0  0  0  0
   47.6480   33.3775   43.0912 H   0  0  0  0  0  0  0  0  0  0  0  0
   43.7760   36.2769   43.7413 H   0  0  0  0  0  0  0  0  0  0  0  0
   43.3187   35.9114   45.4266 H   0  0  0  0  0  0  0  0  0  0  0  0
   44.1164   32.3704   47.7681 H   0  0  0  0  0  0  0  0  0  0  0  0
   44.9491   31.1581   49.9847 H   0  0  0  0  0  0  0  0  0  0  0  0
   47.5615   31.2303   49.9014 H   0  0  0  0  0  0  0  0  0  0  0  0
  1  6  2  0
  2  3  2  0
  2  1  1  0
  3  4  1  0
  4  5  2  0
  5  8  1  0
  6  5  1  0
  7  1  1  0
  8 12  2  0
  8  9  1  0
  9 10  2  0
 11 10  1  0
 12 11  1  0
  2 13  1  0
  3 14  1  0
  7 15  1  0
  7 16  1  0
  9 17  1  0
 10 18  1  0
 11 19  1  0
M  ISO  5  13  14  14  14  17  14  18  14  19   9
M  END
>  <minimizedAffinity>  (1) 
-4.90960407

>  <minimizedRMSD>  (1) 
0.561814308

$$$$
