
     RDKit          3D

 17 18  0  0  0  0  0  0  0  0999 V2000
   44.9370   35.0120   44.3900 C   0  0  0  0  0  0  0  0  0  0  0  0
   45.8450   34.8250   43.3330 C   0  0  0  0  0  0  0  0  0  0  0  0
   46.9220   33.9480   43.5570 C   0  0  0  0  0  0  0  0  0  0  0  0
   47.0240   33.3360   44.7770 N   0  0  0  0  0  0  0  0  0  0  0  0
   46.1230   33.5530   45.7540 C   0  0  0  0  0  0  0  0  0  0  0  0
   45.0940   34.3840   45.5540 N   0  0  0  0  0  0  0  0  0  0  0  0
   43.8020   35.8610   44.3240 N   0  0  0  0  0  0  0  0  0  0  0  0
   46.2940   32.8640   47.0300 C   0  0  0  0  0  0  0  0  0  0  0  0
   47.3620   32.3610   47.6770 N   0  0  0  0  0  0  0  0  0  0  0  0
   46.9900   31.8340   48.8070 O   0  0  0  0  0  0  0  0  0  0  0  0
   45.6720   31.9700   48.9480 C   0  0  0  0  0  0  0  0  0  0  0  0
   45.2170   32.6180   47.8340 N   0  0  0  0  0  0  0  0  0  0  0  0
   45.7186   35.3429   42.3708 H   0  0  0  0  0  0  0  0  0  0  0  0
   47.6657   33.7583   42.7690 H   0  0  0  0  0  0  0  0  0  0  0  0
   43.6018   36.3870   43.4614 H   0  0  0  0  0  0  0  0  0  0  0  0
   43.1783   35.9513   45.1387 H   0  0  0  0  0  0  0  0  0  0  0  0
   45.0656   31.6262   49.7990 H   0  0  0  0  0  0  0  0  0  0  0  0
  1  6  2  0
  2  3  2  0
  2  1  1  0
  3  4  1  0
  4  5  2  0
  5  8  1  0
  6  5  1  0
  7  1  1  0
  8  9  2  0
  8 12  1  0
  9 10  1  0
 10 11  1  0
 12 11  2  0
  2 13  1  0
  3 14  1  0
  7 15  1  0
  7 16  1  0
 11 17  1  0
M  ISO  3  13  14  14  14  17  14
M  END
>  <minimizedAffinity>  (1) 
-4.70502663

>  <minimizedRMSD>  (1) 
0.497681588

$$$$
