
     RDKit          3D

 18 19  0  0  0  0  0  0  0  0999 V2000
   44.9730   35.0030   44.4770 C   0  0  0  0  0  0  0  0  0  0  0  0
   45.9070   34.8240   43.4400 C   0  0  0  0  0  0  0  0  0  0  0  0
   46.9600   33.9180   43.6500 C   0  0  0  0  0  0  0  0  0  0  0  0
   47.0220   33.2540   44.8530 N   0  0  0  0  0  0  0  0  0  0  0  0
   46.1020   33.4680   45.8010 C   0  0  0  0  0  0  0  0  0  0  0  0
   45.0850   34.3260   45.6320 N   0  0  0  0  0  0  0  0  0  0  0  0
   43.8630   35.8820   44.4040 N   0  0  0  0  0  0  0  0  0  0  0  0
   46.2530   32.7070   47.0640 C   0  0  0  0  0  0  0  0  0  0  0  0
   45.1330   32.3540   47.7930 C   0  0  0  0  0  0  0  0  0  0  0  0
   45.8780   31.4460   49.2300 S   0  0  0  0  0  0  0  0  0  0  0  0
   47.6350   31.7400   48.5240 C   0  0  0  0  0  0  0  0  0  0  0  0
   47.4340   32.3190   47.5750 N   0  0  0  0  0  0  0  0  0  0  0  0
   45.8155   35.3768   42.4934 H   0  0  0  0  0  0  0  0  0  0  0  0
   47.7168   33.7438   42.8710 H   0  0  0  0  0  0  0  0  0  0  0  0
   43.7028   36.4397   43.5530 H   0  0  0  0  0  0  0  0  0  0  0  0
   43.2168   35.9629   45.2020 H   0  0  0  0  0  0  0  0  0  0  0  0
   44.0739   32.5584   47.5772 H   0  0  0  0  0  0  0  0  0  0  0  0
   48.6023   31.4227   48.9407 H   0  0  0  0  0  0  0  0  0  0  0  0
  1  6  2  0
  2  3  2  0
  2  1  1  0
  3  4  1  0
  4  5  2  0
  5  8  1  0
  6  5  1  0
  7  1  1  0
  8 12  1  0
  8  9  2  0
  9 10  1  0
 11 10  1  0
 12 11  2  0
  2 13  1  0
  3 14  1  0
  7 15  1  0
  7 16  1  0
  9 17  1  0
 11 18  1  0
M  ISO  4  13  14  14  14  17  14  18  14
M  END
>  <minimizedAffinity>  (1) 
-4.62930298

>  <minimizedRMSD>  (1) 
0.359469205

$$$$
