
     RDKit          3D

 24 24  0  0  0  0  0  0  0  0999 V2000
   44.7990   35.1610   45.3050 C   0  0  0  0  0  0  0  0  0  0  0  0
   44.5420   36.2210   44.4110 C   0  0  0  0  0  0  0  0  0  0  0  0
   45.2000   36.1840   43.1630 C   0  0  0  0  0  0  0  0  0  0  0  0
   46.0320   35.1370   42.9020 N   0  0  0  0  0  0  0  0  0  0  0  0
   46.2400   34.1540   43.7910 C   0  0  0  0  0  0  0  0  0  0  0  0
   45.6300   34.1670   44.9770 N   0  0  0  0  0  0  0  0  0  0  0  0
   44.2130   35.0560   46.5980 N   0  0  0  0  0  0  0  0  0  0  0  0
   47.1730   33.0580   43.3970 C   0  0  0  0  0  0  0  0  0  0  0  0
   46.5850   32.3760   42.1570 C   0  0  0  0  0  0  0  0  0  0  0  0
   48.4780   33.6890   43.0050 C   0  0  0  0  0  0  0  0  0  0  0  0
   47.3040   32.0520   44.5220 C   0  0  0  0  0  0  0  0  0  0  0  0
   43.8582   37.0412   44.6750 H   0  0  0  0  0  0  0  0  0  0  0  0
   45.0451   36.9801   42.4199 H   0  0  0  0  0  0  0  0  0  0  0  0
   44.4424   34.2553   47.2039 H   0  0  0  0  0  0  0  0  0  0  0  0
   43.5596   35.7808   46.9277 H   0  0  0  0  0  0  0  0  0  0  0  0
   45.8964   31.5773   42.4697 H   0  0  0  0  0  0  0  0  0  0  0  0
   46.0381   33.1171   41.5556 H   0  0  0  0  0  0  0  0  0  0  0  0
   47.3985   31.9441   41.5556 H   0  0  0  0  0  0  0  0  0  0  0  0
   49.0404   33.9609   43.9104 H   0  0  0  0  0  0  0  0  0  0  0  0
   49.0658   32.9756   42.4087 H   0  0  0  0  0  0  0  0  0  0  0  0
   48.2838   34.5927   42.4087 H   0  0  0  0  0  0  0  0  0  0  0  0
   47.2363   32.5722   45.4888 H   0  0  0  0  0  0  0  0  0  0  0  0
   46.4948   31.3107   44.4470 H   0  0  0  0  0  0  0  0  0  0  0  0
   48.2761   31.5426   44.4470 H   0  0  0  0  0  0  0  0  0  0  0  0
  1  7  1  0
  2  1  2  0
  3  2  1  0
  4  3  2  0
  4  5  1  0
  5  6  2  0
  6  1  1  0
  8  5  1  0
  8 11  1  0
  9  8  1  0
 10  8  1  0
  2 12  1  0
  3 13  1  0
  7 14  1  0
  7 15  1  0
  9 16  1  0
  9 17  1  0
  9 18  1  0
 10 19  1  0
 10 20  1  0
 10 21  1  0
 11 22  1  0
 11 23  1  0
 11 24  1  0
M  ISO  8  12  14  13  14  16   8  17   8  18   8  19   8  20   8  21   8
M  ISO  3  22   8  23   8  24   8
M  END
>  <minimizedAffinity>  (1) 
-4.26923609

>  <minimizedRMSD>  (1) 
3.13972735

$$$$
