
     RDKit          3D

 19 20  0  0  0  0  0  0  0  0999 V2000
   44.9850   34.9630   44.4830 C   0  0  0  0  0  0  0  0  0  0  0  0
   45.8650   34.8390   43.3980 C   0  0  0  0  0  0  0  0  0  0  0  0
   46.9550   33.9610   43.5350 C   0  0  0  0  0  0  0  0  0  0  0  0
   47.0980   33.2810   44.7080 N   0  0  0  0  0  0  0  0  0  0  0  0
   46.2180   33.4380   45.7240 C   0  0  0  0  0  0  0  0  0  0  0  0
   45.1780   34.2630   45.6180 N   0  0  0  0  0  0  0  0  0  0  0  0
   43.8410   35.8110   44.4880 N   0  0  0  0  0  0  0  0  0  0  0  0
   46.4550   32.6480   46.9810 C   0  0  0  0  0  0  0  0  0  0  0  0
   45.7440   31.3470   47.1070 C   0  0  0  0  0  0  0  0  0  0  0  0
   45.3420   32.5290   47.9250 C   0  0  0  0  0  0  0  0  0  0  0  0
   45.7079   35.4095   42.4707 H   0  0  0  0  0  0  0  0  0  0  0  0
   47.6755   33.8260   42.7148 H   0  0  0  0  0  0  0  0  0  0  0  0
   43.6194   36.3818   43.6598 H   0  0  0  0  0  0  0  0  0  0  0  0
   43.2351   35.8535   45.3199 H   0  0  0  0  0  0  0  0  0  0  0  0
   47.5034   32.9712   47.0612 H   0  0  0  0  0  0  0  0  0  0  0  0
   45.0947   30.9904   46.2938 H   0  0  0  0  0  0  0  0  0  0  0  0
   46.0392   30.3091   47.3204 H   0  0  0  0  0  0  0  0  0  0  0  0
   45.5370   32.5392   49.0075 H   0  0  0  0  0  0  0  0  0  0  0  0
   44.4014   33.0757   48.0876 H   0  0  0  0  0  0  0  0  0  0  0  0
  1  7  1  0
  1  6  2  0
  2  3  2  0
  2  1  1  0
  3  4  1  0
  4  5  2  0
  5  8  1  0
  6  5  1  0
  8  9  1  0
  8 10  1  0
  9 10  1  0
  2 11  1  0
  3 12  1  0
  7 13  1  0
  7 14  1  0
  8 15  1  0
  9 16  1  0
  9 17  1  0
 10 18  1  0
 10 19  1  0
M  ISO  7  11  14  12  14  15  13  16  13  17  13  18  13  19  13
M  END
>  <minimizedAffinity>  (1) 
-4.07041073

>  <minimizedRMSD>  (1) 
0.449235171

$$$$
