
     RDKit          3D

 18 18  0  0  0  0  0  0  0  0999 V2000
   44.9520   35.0320   44.3910 C   0  0  0  0  0  0  0  0  0  0  0  0
   45.8390   34.9920   43.2890 C   0  0  0  0  0  0  0  0  0  0  0  0
   46.9560   34.1460   43.3780 C   0  0  0  0  0  0  0  0  0  0  0  0
   47.1100   33.4120   44.5340 N   0  0  0  0  0  0  0  0  0  0  0  0
   46.2410   33.4870   45.5490 C   0  0  0  0  0  0  0  0  0  0  0  0
   45.1680   34.2860   45.4900 N   0  0  0  0  0  0  0  0  0  0  0  0
   43.7920   35.8430   44.4250 N   0  0  0  0  0  0  0  0  0  0  0  0
   46.4740   32.6660   46.7650 C   0  0  0  0  0  0  0  0  0  0  0  0
   45.3410   32.6560   47.7340 C   0  0  0  0  0  0  0  0  0  0  0  0
   45.6593   35.6034   42.3924 H   0  0  0  0  0  0  0  0  0  0  0  0
   47.6818   34.0718   42.5548 H   0  0  0  0  0  0  0  0  0  0  0  0
   43.5590   36.4426   43.6205 H   0  0  0  0  0  0  0  0  0  0  0  0
   43.1811   35.8334   45.2542 H   0  0  0  0  0  0  0  0  0  0  0  0
   46.6636   31.6298   46.4482 H   0  0  0  0  0  0  0  0  0  0  0  0
   47.3280   33.1203   47.2888 H   0  0  0  0  0  0  0  0  0  0  0  0
   45.7364   32.6595   48.7605 H   0  0  0  0  0  0  0  0  0  0  0  0
   44.7174   33.5487   47.5782 H   0  0  0  0  0  0  0  0  0  0  0  0
   44.7333   31.7525   47.5782 H   0  0  0  0  0  0  0  0  0  0  0  0
  1  7  1  0
  1  6  2  0
  2  3  2  0
  2  1  1  0
  3  4  1  0
  4  5  2  0
  5  8  1  0
  6  5  1  0
  8  9  1  0
  2 10  1  0
  3 11  1  0
  7 12  1  0
  7 13  1  0
  8 14  1  0
  8 15  1  0
  9 16  1  0
  9 17  1  0
  9 18  1  0
M  ISO  7  10  14  11  14  14   8  15   8  16   8  17   8  18   8
M  END
>  <minimizedAffinity>  (1) 
-3.78919792

>  <minimizedRMSD>  (1) 
0.188392565

$$$$
