
     RDKit          3D

 39 41  0  0  1  0  0  0  0  0999 V2000
   47.8780   34.6790   41.4150 C   0  0  2  0  0  0  0  0  0  0  0  0
   48.8500   35.6520   41.7650 C   0  0  0  0  0  0  0  0  0  0  0  0
   50.0830   34.9010   42.3110 C   0  0  0  0  0  0  0  0  0  0  0  0
   49.7910   33.4140   42.2110 C   0  0  0  0  0  0  0  0  0  0  0  0
   48.3240   33.3980   42.1900 C   0  0  1  0  0  0  0  0  0  0  0  0
   47.7040   34.2220   40.0160 C   0  0  0  0  0  0  0  0  0  0  0  0
   48.4800   34.8080   39.0350 C   0  0  0  0  0  0  0  0  0  0  0  0
   48.3650   34.4150   37.7170 C   0  0  0  0  0  0  0  0  0  0  0  0
   47.4470   33.4250   37.4670 N   0  0  0  0  0  0  0  0  0  0  0  0
   46.7080   32.8750   38.4350 C   0  0  0  0  0  0  0  0  0  0  0  0
   46.8210   33.2570   39.7140 N   0  0  0  0  0  0  0  0  0  0  0  0
   47.7720   33.4310   43.5800 C   0  0  0  0  0  0  0  0  0  0  0  0
   46.3540   32.9740   43.6110 C   0  0  0  0  0  0  0  0  0  0  0  0
   45.5670   34.0780   44.2580 C   0  0  0  0  0  0  0  0  0  0  0  0
   45.0130   35.1950   43.6890 C   0  0  0  0  0  0  0  0  0  0  0  0
   44.3960   35.9000   44.6810 N   0  0  0  0  0  0  0  0  0  0  0  0
   44.5680   35.2340   45.8210 C   0  0  0  0  0  0  0  0  0  0  0  0
   45.2640   34.1420   45.5900 N   0  0  0  0  0  0  0  0  0  0  0  0
   45.6830   33.1190   46.5510 C   0  0  0  0  0  0  0  0  0  0  0  0
   45.4680   31.8760   46.0360 F   0  0  0  0  0  0  0  0  0  0  0  0
   44.9850   33.2050   47.7400 F   0  0  0  0  0  0  0  0  0  0  0  0
   47.0320   33.2080   46.8320 F   0  0  0  0  0  0  0  0  0  0  0  0
   46.9224   35.1750   41.6405 H   0  0  0  0  0  0  0  0  0  0  0  0
   49.1302   36.2389   40.8778 H   0  0  0  0  0  0  0  0  0  0  0  0
   48.4510   36.3432   42.5220 H   0  0  0  0  0  0  0  0  0  0  0  0
   50.9710   35.1508   41.7118 H   0  0  0  0  0  0  0  0  0  0  0  0
   50.2818   35.1882   43.3541 H   0  0  0  0  0  0  0  0  0  0  0  0
   50.2096   32.9846   41.2889 H   0  0  0  0  0  0  0  0  0  0  0  0
   50.2318   32.8174   43.0233 H   0  0  0  0  0  0  0  0  0  0  0  0
   47.9527   32.4810   41.7090 H   0  0  0  0  0  0  0  0  0  0  0  0
   49.1973   35.5963   39.3071 H   0  0  0  0  0  0  0  0  0  0  0  0
   48.9706   34.8664   36.9173 H   0  0  0  0  0  0  0  0  0  0  0  0
   45.9867   32.0865   38.1743 H   0  0  0  0  0  0  0  0  0  0  0  0
   48.3752   32.7710   44.2207 H   0  0  0  0  0  0  0  0  0  0  0  0
   47.8103   34.4683   43.9440 H   0  0  0  0  0  0  0  0  0  0  0  0
   45.9893   32.7954   42.5887 H   0  0  0  0  0  0  0  0  0  0  0  0
   46.2508   32.0311   44.1681 H   0  0  0  0  0  0  0  0  0  0  0  0
   45.0577   35.4728   42.6256 H   0  0  0  0  0  0  0  0  0  0  0  0
   44.1870   35.5483   46.8039 H   0  0  0  0  0  0  0  0  0  0  0  0
  1  2  1  0
  1  5  1  0
  2  3  1  0
  4  3  1  0
  5  4  1  0
  5 12  1  0
  6  1  1  0
  7  6  2  0
  8  7  1  0
  9  8  2  0
  9 10  1  0
 10 11  2  0
 11  6  1  0
 12 13  1  0
 13 14  1  0
 14 18  1  0
 15 14  2  0
 15 16  1  0
 16 17  2  0
 18 17  1  0
 18 19  1  0
 19 22  1  0
 19 21  1  0
 20 19  1  0
  1 23  1  1
  2 24  1  0
  2 25  1  0
  3 26  1  0
  3 27  1  0
  4 28  1  0
  4 29  1  0
  5 30  1  6
  7 31  1  0
  8 32  1  0
 10 33  1  0
 12 34  1  0
 12 35  1  0
 13 36  1  0
 13 37  1  0
 15 38  1  0
 17 39  1  0
M  ISO  8  23  13  24  13  25  13  26  13  27  13  28  13  29  13  30  13
M  ISO  8  31  14  32  14  33  14  34   8  35   8  36   8  37   8  38  14
M  ISO  1  39  14
M  END
>  <minimizedAffinity>  (1) 
-6.03497505

>  <minimizedRMSD>  (1) 
0.775449991

$$$$
