
     RDKit          3D

 27 28  0  0  1  0  0  0  0  0999 V2000
   45.3270   34.1170   45.8540 C   0  0  0  0  0  0  0  0  0  0  0  0
   44.4870   35.2570   45.7480 C   0  0  0  0  0  0  0  0  0  0  0  0
   44.5390   35.9920   44.5550 C   0  0  0  0  0  0  0  0  0  0  0  0
   45.4030   35.5500   43.5790 N   0  0  0  0  0  0  0  0  0  0  0  0
   46.1640   34.4760   43.7360 C   0  0  0  0  0  0  0  0  0  0  0  0
   46.1600   33.7350   44.8480 N   0  0  0  0  0  0  0  0  0  0  0  0
   45.3740   33.2840   47.0020 N   0  0  0  0  0  0  0  0  0  0  0  0
   47.0180   34.1260   42.6640 N   0  0  0  0  0  0  0  0  0  0  0  0
   47.4790   32.7850   42.3100 C   0  0  0  0  0  0  0  0  0  0  0  0
   47.4100   32.7780   40.7950 C   0  0  0  0  0  0  0  0  0  0  0  0
   47.2430   34.2510   40.3950 C   0  0  0  0  0  0  0  0  0  0  0  0
   47.6540   34.9470   41.6540 C   0  0  2  0  0  0  0  0  0  0  0  0
   49.1020   35.1870   41.8280 C   0  0  0  0  0  0  0  0  0  0  0  0
   49.5910   35.0780   43.0920 F   0  0  0  0  0  0  0  0  0  0  0  0
   49.7640   34.2340   41.0670 F   0  0  0  0  0  0  0  0  0  0  0  0
   49.4080   36.3990   41.2360 F   0  0  0  0  0  0  0  0  0  0  0  0
   43.8201   35.5526   46.5714 H   0  0  0  0  0  0  0  0  0  0  0  0
   43.9148   36.8853   44.4053 H   0  0  0  0  0  0  0  0  0  0  0  0
   46.0039   32.4693   47.0217 H   0  0  0  0  0  0  0  0  0  0  0  0
   44.7782   33.4941   47.8155 H   0  0  0  0  0  0  0  0  0  0  0  0
   48.5092   32.6183   42.6579 H   0  0  0  0  0  0  0  0  0  0  0  0
   46.8767   31.9883   42.7710 H   0  0  0  0  0  0  0  0  0  0  0  0
   48.3357   32.3646   40.3682 H   0  0  0  0  0  0  0  0  0  0  0  0
   46.5841   32.1539   40.4231 H   0  0  0  0  0  0  0  0  0  0  0  0
   47.9014   34.5169   39.5549 H   0  0  0  0  0  0  0  0  0  0  0  0
   46.2324   34.5107   40.0469 H   0  0  0  0  0  0  0  0  0  0  0  0
   47.3324   35.9985   41.6861 H   0  0  0  0  0  0  0  0  0  0  0  0
  1  7  1  0
  2  1  2  0
  3  2  1  0
  4  5  1  0
  4  3  2  0
  5  6  2  0
  6  1  1  0
  8  5  1  0
  9  8  1  0
 10  9  1  0
 11 10  1  0
 11 12  1  0
 12 13  1  0
 12  8  1  0
 13 14  1  0
 15 13  1  0
 16 13  1  0
  2 17  1  0
  3 18  1  0
  7 19  1  0
  7 20  1  0
  9 21  1  0
  9 22  1  0
 10 23  1  0
 10 24  1  0
 11 25  1  0
 11 26  1  0
 12 27  1  6
M  ISO  8  17  14  18  14  21  13  22  13  23  13  24  13  25  13  26  13
M  ISO  1  27  13
M  END
>  <minimizedAffinity>  (1) 
-5.72552252

>  <minimizedRMSD>  (1) 
5.86436367

$$$$
