
     RDKit          3D

 27 28  0  0  1  0  0  0  0  0999 V2000
   45.1790   34.6510   45.2540 C   0  0  0  0  0  0  0  0  0  0  0  0
   44.4950   35.6690   44.5510 C   0  0  0  0  0  0  0  0  0  0  0  0
   44.9160   35.9630   43.2420 C   0  0  0  0  0  0  0  0  0  0  0  0
   45.9670   35.2460   42.7240 N   0  0  0  0  0  0  0  0  0  0  0  0
   46.5720   34.2900   43.4480 C   0  0  0  0  0  0  0  0  0  0  0  0
   46.1980   33.9920   44.6800 N   0  0  0  0  0  0  0  0  0  0  0  0
   44.8480   34.2690   46.5670 N   0  0  0  0  0  0  0  0  0  0  0  0
   47.6520   33.6000   42.8270 N   0  0  0  0  0  0  0  0  0  0  0  0
   48.0500   32.2340   43.0440 C   0  0  0  0  0  0  0  0  0  0  0  0
   48.3890   31.7120   41.6490 C   0  0  0  0  0  0  0  0  0  0  0  0
   48.4660   32.9810   40.7840 C   0  0  0  0  0  0  0  0  0  0  0  0
   48.6220   34.0240   41.8510 C   0  0  2  0  0  0  0  0  0  0  0  0
   49.9840   34.1540   42.3910 C   0  0  0  0  0  0  0  0  0  0  0  0
   50.9210   33.3760   42.0800 O   0  0  0  0  0  0  0  0  0  0  0  0
   50.2010   35.1980   43.2830 O   0  0  0  0  0  0  0  0  0  0  0  0
   43.6592   36.2143   45.0137 H   0  0  0  0  0  0  0  0  0  0  0  0
   44.4180   36.7448   42.6497 H   0  0  0  0  0  0  0  0  0  0  0  0
   45.3786   33.5203   47.0348 H   0  0  0  0  0  0  0  0  0  0  0  0
   44.0751   34.7380   47.0604 H   0  0  0  0  0  0  0  0  0  0  0  0
   48.9296   32.1846   43.7027 H   0  0  0  0  0  0  0  0  0  0  0  0
   47.2643   31.6408   43.5346 H   0  0  0  0  0  0  0  0  0  0  0  0
   49.3534   31.1830   41.6534 H   0  0  0  0  0  0  0  0  0  0  0  0
   47.6475   30.9903   41.2759 H   0  0  0  0  0  0  0  0  0  0  0  0
   49.3321   32.9595   40.1062 H   0  0  0  0  0  0  0  0  0  0  0  0
   47.6077   33.1336   40.1131 H   0  0  0  0  0  0  0  0  0  0  0  0
   48.4542   35.0435   41.4735 H   0  0  0  0  0  0  0  0  0  0  0  0
   51.0987   35.3332   43.6779 H   0  0  0  0  0  0  0  0  0  0  0  0
  1  7  1  0
  2  1  2  0
  3  2  1  0
  4  3  2  0
  4  5  1  0
  5  6  2  0
  6  1  1  0
  8  9  1  0
  8  5  1  0
 10  9  1  0
 11 10  1  0
 11 12  1  0
 12 13  1  0
 12  8  1  0
 13 15  1  0
 14 13  2  0
  2 16  1  0
  3 17  1  0
  7 18  1  0
  7 19  1  0
  9 20  1  0
  9 21  1  0
 10 22  1  0
 10 23  1  0
 11 24  1  0
 11 25  1  0
 12 26  1  6
 15 27  1  0
M  ISO  8  16  14  17  14  20  13  21  13  22  13  23  13  24  13  25  13
M  ISO  2  26  13  27   3
M  END
>  <minimizedAffinity>  (1) 
-5.66955423

>  <minimizedRMSD>  (1) 
5.25756645

$$$$
