
     RDKit          3D

 37 39  0  0  1  0  0  0  0  0999 V2000
   44.7530   35.2120   45.1500 C   0  0  0  0  0  0  0  0  0  0  0  0
   44.6380   36.4190   44.4340 C   0  0  0  0  0  0  0  0  0  0  0  0
   45.1290   36.4550   43.1200 C   0  0  0  0  0  0  0  0  0  0  0  0
   45.6910   35.3060   42.6190 N   0  0  0  0  0  0  0  0  0  0  0  0
   45.7770   34.1910   43.3320 C   0  0  0  0  0  0  0  0  0  0  0  0
   45.3170   34.1310   44.5840 N   0  0  0  0  0  0  0  0  0  0  0  0
   44.3000   35.0360   46.4770 N   0  0  0  0  0  0  0  0  0  0  0  0
   46.3760   33.0670   42.7190 N   0  0  0  0  0  0  0  0  0  0  0  0
   46.0880   31.6640   42.9910 C   0  0  0  0  0  0  0  0  0  0  0  0
   46.0930   31.0170   41.6210 C   0  0  0  0  0  0  0  0  0  0  0  0
   46.7420   32.0710   40.7010 C   0  0  0  0  0  0  0  0  0  0  0  0
   47.3880   32.9640   41.7060 C   0  0  2  0  0  0  0  0  0  0  0  0
   48.6790   32.4570   42.2770 C   0  0  0  0  0  0  0  0  0  0  0  0
   49.4100   33.6660   42.8380 C   0  0  0  0  0  0  0  0  0  0  0  0
   50.8380   33.5880   42.3570 C   0  0  0  0  0  0  0  0  0  0  0  0
   50.9670   32.3580   41.5030 C   0  0  0  0  0  0  0  0  0  0  0  0
   49.5770   31.8430   41.2580 C   0  0  0  0  0  0  0  0  0  0  0  0
   44.1771   37.3071   44.8910 H   0  0  0  0  0  0  0  0  0  0  0  0
   45.0662   37.3702   42.5130 H   0  0  0  0  0  0  0  0  0  0  0  0
   44.4150   34.1251   46.9439 H   0  0  0  0  0  0  0  0  0  0  0  0
   43.8548   35.8186   46.9773 H   0  0  0  0  0  0  0  0  0  0  0  0
   46.8636   31.2232   43.6345 H   0  0  0  0  0  0  0  0  0  0  0  0
   45.1355   31.5225   43.5228 H   0  0  0  0  0  0  0  0  0  0  0  0
   46.6859   30.0905   41.6303 H   0  0  0  0  0  0  0  0  0  0  0  0
   45.0837   30.7340   41.2874 H   0  0  0  0  0  0  0  0  0  0  0  0
   47.4838   31.6176   40.0271 H   0  0  0  0  0  0  0  0  0  0  0  0
   46.0380   32.5805   40.0267 H   0  0  0  0  0  0  0  0  0  0  0  0
   47.6938   33.9177   41.2511 H   0  0  0  0  0  0  0  0  0  0  0  0
   48.4404   31.6838   43.0222 H   0  0  0  0  0  0  0  0  0  0  0  0
   48.9403   34.5921   42.4750 H   0  0  0  0  0  0  0  0  0  0  0  0
   49.3684   33.6716   43.9372 H   0  0  0  0  0  0  0  0  0  0  0  0
   51.0832   34.4822   41.7651 H   0  0  0  0  0  0  0  0  0  0  0  0
   51.5296   33.5379   43.2110 H   0  0  0  0  0  0  0  0  0  0  0  0
   51.4496   32.6109   40.5474 H   0  0  0  0  0  0  0  0  0  0  0  0
   51.5842   31.5970   42.0030 H   0  0  0  0  0  0  0  0  0  0  0  0
   49.2456   32.1256   40.2479 H   0  0  0  0  0  0  0  0  0  0  0  0
   49.5538   30.7460   41.3356 H   0  0  0  0  0  0  0  0  0  0  0  0
  1  7  1  0
  2  1  2  0
  3  2  1  0
  4  3  2  0
  4  5  1  0
  5  6  2  0
  6  1  1  0
  8  9  1  0
  8  5  1  0
 10  9  1  0
 11 10  1  0
 11 12  1  0
 12 13  1  0
 12  8  1  0
 13 14  1  0
 15 14  1  0
 16 15  1  0
 17 16  1  0
 17 13  1  0
  2 18  1  0
  3 19  1  0
  7 20  1  0
  7 21  1  0
  9 22  1  0
  9 23  1  0
 10 24  1  0
 10 25  1  0
 11 26  1  0
 11 27  1  0
 12 28  1  6
 13 29  1  0
 14 30  1  0
 14 31  1  0
 15 32  1  0
 15 33  1  0
 16 34  1  0
 16 35  1  0
 17 36  1  0
 17 37  1  0
M  ISO  8  18  14  19  14  22  13  23  13  24  13  25  13  26  13  27  13
M  ISO  8  28  13  29  13  30  13  31  13  32  13  33  13  34  13  35  13
M  ISO  2  36  13  37  13
M  END
>  <minimizedAffinity>  (1) 
-5.2115922

>  <minimizedRMSD>  (1) 
5.62309837

$$$$
