
     RDKit          3D

 33 34  0  0  1  0  0  0  0  0999 V2000
   45.3730   34.4230   45.0400 C   0  0  0  0  0  0  0  0  0  0  0  0
   46.2970   34.0170   44.0700 C   0  0  0  0  0  0  0  0  0  0  0  0
   47.1480   32.9140   44.3690 C   0  0  0  0  0  0  0  0  0  0  0  0
   46.9950   32.3260   45.6020 N   0  0  0  0  0  0  0  0  0  0  0  0
   46.0870   32.7700   46.4820 C   0  0  0  0  0  0  0  0  0  0  0  0
   45.2830   33.7960   46.2200 N   0  0  0  0  0  0  0  0  0  0  0  0
   44.4910   35.5000   44.8360 N   0  0  0  0  0  0  0  0  0  0  0  0
   46.0150   32.0850   47.7250 N   0  0  0  0  0  0  0  0  0  0  0  0
   44.8430   31.9180   48.5630 C   0  0  0  0  0  0  0  0  0  0  0  0
   44.8920   30.4320   48.9830 C   0  0  0  0  0  0  0  0  0  0  0  0
   46.3440   30.0180   48.6560 C   0  0  0  0  0  0  0  0  0  0  0  0
   46.9610   31.3860   48.5220 C   0  0  1  0  0  0  0  0  0  0  0  0
   48.3660   31.3850   48.0740 C   0  0  0  0  0  0  0  0  0  0  0  0
   49.2540   31.6960   49.2590 C   0  0  0  0  0  0  0  0  0  0  0  0
   48.7290   29.9880   47.6080 C   0  0  0  0  0  0  0  0  0  0  0  0
   46.3643   34.5358   43.1024 H   0  0  0  0  0  0  0  0  0  0  0  0
   47.8931   32.5498   43.6464 H   0  0  0  0  0  0  0  0  0  0  0  0
   44.5121   36.0219   43.9483 H   0  0  0  0  0  0  0  0  0  0  0  0
   43.8242   35.7665   45.5744 H   0  0  0  0  0  0  0  0  0  0  0  0
   44.8952   32.5751   49.4436 H   0  0  0  0  0  0  0  0  0  0  0  0
   43.9099   32.1802   48.0428 H   0  0  0  0  0  0  0  0  0  0  0  0
   44.6823   30.3189   50.0569 H   0  0  0  0  0  0  0  0  0  0  0  0
   44.1418   29.8141   48.4678 H   0  0  0  0  0  0  0  0  0  0  0  0
   46.8005   29.4389   49.4722 H   0  0  0  0  0  0  0  0  0  0  0  0
   46.4607   29.3611   47.7814 H   0  0  0  0  0  0  0  0  0  0  0  0
   47.1127   31.9015   49.4818 H   0  0  0  0  0  0  0  0  0  0  0  0
   48.4967   32.1231   47.2689 H   0  0  0  0  0  0  0  0  0  0  0  0
   48.7026   31.5029   50.1910 H   0  0  0  0  0  0  0  0  0  0  0  0
   50.1493   31.0579   49.2237 H   0  0  0  0  0  0  0  0  0  0  0  0
   49.5556   32.7533   49.2237 H   0  0  0  0  0  0  0  0  0  0  0  0
   48.8969   29.3419   48.4823 H   0  0  0  0  0  0  0  0  0  0  0  0
   47.9074   29.5786   47.0019 H   0  0  0  0  0  0  0  0  0  0  0  0
   49.6460   30.0304   47.0019 H   0  0  0  0  0  0  0  0  0  0  0  0
  1  6  2  0
  2  3  2  0
  2  1  1  0
  3  4  1  0
  4  5  2  0
  5  8  1  0
  6  5  1  0
  7  1  1  0
  8 12  1  0
  8  9  1  0
  9 10  1  0
 11 10  1  0
 12 11  1  0
 13 12  1  0
 13 14  1  0
 15 13  1  0
  2 16  1  0
  3 17  1  0
  7 18  1  0
  7 19  1  0
  9 20  1  0
  9 21  1  0
 10 22  1  0
 10 23  1  0
 11 24  1  0
 11 25  1  0
 12 26  1  1
 13 27  1  0
 14 28  1  0
 14 29  1  0
 14 30  1  0
 15 31  1  0
 15 32  1  0
 15 33  1  0
M  ISO  8  16  14  17  14  20  13  21  13  22  13  23  13  24  13  25  13
M  ISO  8  26  13  27   8  28   8  29   8  30   8  31   8  32   8  33   8
M  END
>  <minimizedAffinity>  (1) 
-4.41822624

>  <minimizedRMSD>  (1) 
1.17599523

$$$$
