
     RDKit          3D

 26 27  0  0  1  0  0  0  0  0999 V2000
   45.3320   34.1950   45.6750 C   0  0  0  0  0  0  0  0  0  0  0  0
   44.5560   35.3580   45.5250 C   0  0  0  0  0  0  0  0  0  0  0  0
   44.6810   36.0890   44.3310 C   0  0  0  0  0  0  0  0  0  0  0  0
   45.5510   35.6290   43.3760 N   0  0  0  0  0  0  0  0  0  0  0  0
   46.2690   34.5090   43.5720 C   0  0  0  0  0  0  0  0  0  0  0  0
   46.1710   33.8020   44.6860 N   0  0  0  0  0  0  0  0  0  0  0  0
   45.2990   33.3760   46.8190 N   0  0  0  0  0  0  0  0  0  0  0  0
   47.1410   34.1120   42.5290 N   0  0  0  0  0  0  0  0  0  0  0  0
   47.5570   32.7610   42.1960 C   0  0  0  0  0  0  0  0  0  0  0  0
   47.4890   32.7210   40.6700 C   0  0  0  0  0  0  0  0  0  0  0  0
   47.3770   34.1870   40.2560 C   0  0  0  0  0  0  0  0  0  0  0  0
   47.8480   34.8760   41.5310 C   0  0  2  0  0  0  0  0  0  0  0  0
   49.3030   34.8500   41.6460 C   0  0  0  0  0  0  0  0  0  0  0  0
   49.7490   35.3910   42.6570 O   0  0  0  0  0  0  0  0  0  0  0  0
   43.8703   35.6865   46.3199 H   0  0  0  0  0  0  0  0  0  0  0  0
   44.0962   37.0061   44.1669 H   0  0  0  0  0  0  0  0  0  0  0  0
   45.8927   32.5358   46.8681 H   0  0  0  0  0  0  0  0  0  0  0  0
   44.6811   33.6168   47.6071 H   0  0  0  0  0  0  0  0  0  0  0  0
   48.5816   32.5692   42.5472 H   0  0  0  0  0  0  0  0  0  0  0  0
   46.9259   31.9941   42.6690 H   0  0  0  0  0  0  0  0  0  0  0  0
   48.3993   32.2669   40.2516 H   0  0  0  0  0  0  0  0  0  0  0  0
   46.6463   32.1164   40.3036 H   0  0  0  0  0  0  0  0  0  0  0  0
   48.0327   34.4189   39.4038 H   0  0  0  0  0  0  0  0  0  0  0  0
   46.3761   34.4906   39.9154 H   0  0  0  0  0  0  0  0  0  0  0  0
   47.6354   35.9529   41.6019 H   0  0  0  0  0  0  0  0  0  0  0  0
   49.9498   34.3834   40.8884 H   0  0  0  0  0  0  0  0  0  0  0  0
  1  7  1  0
  2  1  2  0
  3  2  1  0
  4  5  1  0
  4  3  2  0
  5  6  2  0
  6  1  1  0
  8  5  1  0
  9  8  1  0
 10  9  1  0
 11 10  1  0
 11 12  1  0
 12 13  1  0
 12  8  1  0
 13 14  2  0
  2 15  1  0
  3 16  1  0
  7 17  1  0
  7 18  1  0
  9 19  1  0
  9 20  1  0
 10 21  1  0
 10 22  1  0
 11 23  1  0
 11 24  1  0
 12 25  1  6
 13 26  1  0
M  ISO  8  15  14  16  14  19  13  20  13  21  13  22  13  23  13  24  13
M  ISO  2  25  13  26   6
M  END
>  <minimizedAffinity>  (1) 
-4.84947729

>  <minimizedRMSD>  (1) 
5.41667986

$$$$
