
     RDKit          3D

 43 46  0  0  1  0  0  0  0  0999 V2000
   47.8530   34.6590   41.4780 C   0  0  2  0  0  0  0  0  0  0  0  0
   48.8270   35.6300   41.8210 C   0  0  0  0  0  0  0  0  0  0  0  0
   50.0860   34.8720   42.2920 C   0  0  0  0  0  0  0  0  0  0  0  0
   49.8070   33.3890   42.1550 C   0  0  0  0  0  0  0  0  0  0  0  0
   48.3390   33.3530   42.1890 C   0  0  1  0  0  0  0  0  0  0  0  0
   47.6260   34.2410   40.0670 C   0  0  0  0  0  0  0  0  0  0  0  0
   48.4600   34.7630   39.0960 C   0  0  0  0  0  0  0  0  0  0  0  0
   48.3060   34.4090   37.7750 C   0  0  0  0  0  0  0  0  0  0  0  0
   47.2880   33.5250   37.5080 N   0  0  0  0  0  0  0  0  0  0  0  0
   46.4950   33.0350   38.4660 C   0  0  0  0  0  0  0  0  0  0  0  0
   46.6500   33.3830   39.7570 N   0  0  0  0  0  0  0  0  0  0  0  0
   47.8490   33.3340   43.5990 C   0  0  0  0  0  0  0  0  0  0  0  0
   46.4560   32.7860   43.6760 C   0  0  0  0  0  0  0  0  0  0  0  0
   45.6430   33.8320   44.3930 C   0  0  0  0  0  0  0  0  0  0  0  0
   44.9320   34.8850   43.8820 C   0  0  0  0  0  0  0  0  0  0  0  0
   44.3670   35.5500   44.9240 N   0  0  0  0  0  0  0  0  0  0  0  0
   44.7150   34.9290   46.0500 C   0  0  0  0  0  0  0  0  0  0  0  0
   45.4790   33.9010   45.7490 N   0  0  0  0  0  0  0  0  0  0  0  0
   46.0480   32.9910   46.7100 C   0  0  0  0  0  0  0  0  0  0  0  0
   47.1800   32.3460   46.9380 C   0  0  0  0  0  0  0  0  0  0  0  0
   47.3520   31.5360   48.0050 C   0  0  0  0  0  0  0  0  0  0  0  0
   46.1270   31.4620   48.8740 C   0  0  0  0  0  0  0  0  0  0  0  0
   44.9100   32.6020   47.9840 S   0  0  0  0  0  0  0  0  0  0  0  0
   46.9054   35.1416   41.7595 H   0  0  0  0  0  0  0  0  0  0  0  0
   49.0666   36.2488   40.9437 H   0  0  0  0  0  0  0  0  0  0  0  0
   48.4525   36.2932   42.6147 H   0  0  0  0  0  0  0  0  0  0  0  0
   50.9472   35.1508   41.6670 H   0  0  0  0  0  0  0  0  0  0  0  0
   50.3211   35.1256   43.3362 H   0  0  0  0  0  0  0  0  0  0  0  0
   50.2407   32.8213   42.9914 H   0  0  0  0  0  0  0  0  0  0  0  0
   50.2421   32.9362   41.2518 H   0  0  0  0  0  0  0  0  0  0  0  0
   47.9546   32.4505   41.6913 H   0  0  0  0  0  0  0  0  0  0  0  0
   49.2544   35.4681   39.3819 H   0  0  0  0  0  0  0  0  0  0  0  0
   48.9565   34.8083   36.9829 H   0  0  0  0  0  0  0  0  0  0  0  0
   45.6961   32.3300   38.1926 H   0  0  0  0  0  0  0  0  0  0  0  0
   48.5175   32.7036   44.2037 H   0  0  0  0  0  0  0  0  0  0  0  0
   47.8416   34.3653   43.9815 H   0  0  0  0  0  0  0  0  0  0  0  0
   46.0552   32.6150   42.6660 H   0  0  0  0  0  0  0  0  0  0  0  0
   46.4290   31.8207   44.2027 H   0  0  0  0  0  0  0  0  0  0  0  0
   44.8354   35.1461   42.8178 H   0  0  0  0  0  0  0  0  0  0  0  0
   44.4131   35.2268   47.0650 H   0  0  0  0  0  0  0  0  0  0  0  0
   48.0133   32.4742   46.2315 H   0  0  0  0  0  0  0  0  0  0  0  0
   48.2843   30.9912   48.2149 H   0  0  0  0  0  0  0  0  0  0  0  0
   45.9763   30.8865   49.7992 H   0  0  0  0  0  0  0  0  0  0  0  0
  1  2  1  0
  1  5  1  0
  2  3  1  0
  4  5  1  0
  4  3  1  0
  5 12  1  0
  6  1  1  0
  7  6  2  0
  8  7  1  0
  9  8  2  0
  9 10  1  0
 10 11  2  0
 11  6  1  0
 12 13  1  0
 13 14  1  0
 14 18  1  0
 15 14  2  0
 15 16  1  0
 16 17  2  0
 18 17  1  0
 18 19  1  0
 19 20  2  0
 19 23  1  0
 20 21  1  0
 21 22  2  0
 23 22  1  0
  1 24  1  1
  2 25  1  0
  2 26  1  0
  3 27  1  0
  3 28  1  0
  4 29  1  0
  4 30  1  0
  5 31  1  6
  7 32  1  0
  8 33  1  0
 10 34  1  0
 12 35  1  0
 12 36  1  0
 13 37  1  0
 13 38  1  0
 15 39  1  0
 17 40  1  0
 20 41  1  0
 21 42  1  0
 22 43  1  0
M  ISO  8  24  13  25  13  26  13  27  13  28  13  29  13  30  13  31  13
M  ISO  8  32  14  33  14  34  14  35   8  36   8  37   8  38   8  39  14
M  ISO  4  40  14  41  14  42  14  43  14
M  END
>  <minimizedAffinity>  (1) 
-5.9206953

>  <minimizedRMSD>  (1) 
1.0308727

$$$$
