
     RDKit          3D

 27 28  0  0  1  0  0  0  0  0999 V2000
   45.1650   34.4290   45.6640 C   0  0  0  0  0  0  0  0  0  0  0  0
   44.4990   35.5960   45.2190 C   0  0  0  0  0  0  0  0  0  0  0  0
   44.7960   36.0850   43.9460 C   0  0  0  0  0  0  0  0  0  0  0  0
   45.7160   35.4140   43.1840 N   0  0  0  0  0  0  0  0  0  0  0  0
   46.3270   34.2990   43.6530 C   0  0  0  0  0  0  0  0  0  0  0  0
   46.0690   33.8150   44.8460 N   0  0  0  0  0  0  0  0  0  0  0  0
   47.2540   33.6860   42.7920 N   0  0  0  0  0  0  0  0  0  0  0  0
   47.6060   32.2690   42.7400 C   0  0  0  0  0  0  0  0  0  0  0  0
   47.6740   31.9460   41.2590 C   0  0  0  0  0  0  0  0  0  0  0  0
   47.7220   33.3150   40.5790 C   0  0  0  0  0  0  0  0  0  0  0  0
   48.1100   34.1900   41.7510 C   0  0  2  0  0  0  0  0  0  0  0  0
   44.9620   33.8340   46.9130 N   0  0  0  0  0  0  0  0  0  0  0  0
   49.5360   34.1470   42.0070 C   0  0  0  0  0  0  0  0  0  0  0  0
   49.9880   35.0150   42.7730 O   0  0  0  0  0  0  0  0  0  0  0  0
   50.6190   33.3640   41.6190 O   0  0  0  0  0  0  0  0  0  0  0  0
   43.7651   36.1052   45.8610 H   0  0  0  0  0  0  0  0  0  0  0  0
   44.3019   36.9899   43.5626 H   0  0  0  0  0  0  0  0  0  0  0  0
   48.5794   32.0927   43.2211 H   0  0  0  0  0  0  0  0  0  0  0  0
   46.8782   31.6384   43.2716 H   0  0  0  0  0  0  0  0  0  0  0  0
   48.5780   31.3635   41.0277 H   0  0  0  0  0  0  0  0  0  0  0  0
   46.8228   31.3369   40.9208 H   0  0  0  0  0  0  0  0  0  0  0  0
   48.4783   33.3460   39.7809 H   0  0  0  0  0  0  0  0  0  0  0  0
   46.7899   33.6099   40.0749 H   0  0  0  0  0  0  0  0  0  0  0  0
   47.9606   35.2706   41.6094 H   0  0  0  0  0  0  0  0  0  0  0  0
   45.4835   32.9835   47.1692 H   0  0  0  0  0  0  0  0  0  0  0  0
   44.2910   34.2462   47.5769 H   0  0  0  0  0  0  0  0  0  0  0  0
   51.5252   33.5681   41.9613 H   0  0  0  0  0  0  0  0  0  0  0  0
  1 12  1  0
  2  1  2  0
  3  2  1  0
  4  5  1  0
  4  3  2  0
  5  6  2  0
  6  1  1  0
  7  5  1  0
  8  7  1  0
  9  8  1  0
 10  9  1  0
 10 11  1  0
 11 13  1  0
 11  7  1  0
 13 14  2  0
 15 13  1  0
  2 16  1  0
  3 17  1  0
  8 18  1  0
  8 19  1  0
  9 20  1  0
  9 21  1  0
 10 22  1  0
 10 23  1  0
 11 24  1  6
 12 25  1  0
 12 26  1  0
 15 27  1  0
M  ISO  8  16  14  17  14  18  13  19  13  20  13  21  13  22  13  23  13
M  ISO  2  24  13  27   3
M  END
>  <minimizedAffinity>  (1) 
-5.01887751

>  <minimizedRMSD>  (1) 
0.691812634

$$$$
