
     RDKit          3D

 48 50  0  0  1  0  0  0  0  0999 V2000
   47.9000   34.7290   41.5270 C   0  0  2  0  0  0  0  0  0  0  0  0
   48.9640   35.6210   41.8220 C   0  0  0  0  0  0  0  0  0  0  0  0
   50.1490   34.7770   42.3330 C   0  0  0  0  0  0  0  0  0  0  0  0
   49.7330   33.3210   42.2660 C   0  0  0  0  0  0  0  0  0  0  0  0
   48.2670   33.4240   42.3060 C   0  0  1  0  0  0  0  0  0  0  0  0
   47.6330   34.2670   40.1460 C   0  0  0  0  0  0  0  0  0  0  0  0
   48.4450   34.7360   39.1320 C   0  0  0  0  0  0  0  0  0  0  0  0
   48.2460   34.3340   37.8280 C   0  0  0  0  0  0  0  0  0  0  0  0
   47.2070   33.4600   37.6230 N   0  0  0  0  0  0  0  0  0  0  0  0
   46.4380   33.0250   38.6250 C   0  0  0  0  0  0  0  0  0  0  0  0
   46.6290   33.4110   39.8920 N   0  0  0  0  0  0  0  0  0  0  0  0
   47.7920   33.5300   43.7160 C   0  0  0  0  0  0  0  0  0  0  0  0
   46.4520   32.8860   43.8760 C   0  0  0  0  0  0  0  0  0  0  0  0
   45.6690   33.7740   44.8020 C   0  0  0  0  0  0  0  0  0  0  0  0
   45.0770   34.9910   44.5350 C   0  0  0  0  0  0  0  0  0  0  0  0
   44.4850   35.4160   45.6820 N   0  0  0  0  0  0  0  0  0  0  0  0
   44.6940   34.5160   46.6200 C   0  0  0  0  0  0  0  0  0  0  0  0
   45.4130   33.5070   46.1100 N   0  0  0  0  0  0  0  0  0  0  0  0
   45.8440   32.3100   46.8530 C   0  0  0  0  0  0  0  0  0  0  0  0
   47.2840   32.5480   47.3320 C   0  0  0  0  0  0  0  0  0  0  0  0
   45.9320   31.0850   45.9810 C   0  0  0  0  0  0  0  0  0  0  0  0
   45.0260   32.1090   48.1010 C   0  0  0  0  0  0  0  0  0  0  0  0
   47.0004   35.3089   41.7807 H   0  0  0  0  0  0  0  0  0  0  0  0
   49.2571   36.1690   40.9144 H   0  0  0  0  0  0  0  0  0  0  0  0
   48.6551   36.3544   42.5814 H   0  0  0  0  0  0  0  0  0  0  0  0
   51.0314   34.9452   41.6981 H   0  0  0  0  0  0  0  0  0  0  0  0
   50.4095   35.0587   43.3639 H   0  0  0  0  0  0  0  0  0  0  0  0
   50.1182   32.7546   43.1267 H   0  0  0  0  0  0  0  0  0  0  0  0
   50.1179   32.7883   41.3839 H   0  0  0  0  0  0  0  0  0  0  0  0
   47.7952   32.5361   41.8599 H   0  0  0  0  0  0  0  0  0  0  0  0
   49.2590   35.4376   39.3670 H   0  0  0  0  0  0  0  0  0  0  0  0
   48.8802   34.6913   37.0033 H   0  0  0  0  0  0  0  0  0  0  0  0
   45.6194   32.3253   38.4008 H   0  0  0  0  0  0  0  0  0  0  0  0
   48.5138   33.0294   44.3781 H   0  0  0  0  0  0  0  0  0  0  0  0
   47.7047   34.5945   43.9790 H   0  0  0  0  0  0  0  0  0  0  0  0
   45.9464   32.8102   42.9020 H   0  0  0  0  0  0  0  0  0  0  0  0
   46.5424   31.8664   44.2788 H   0  0  0  0  0  0  0  0  0  0  0  0
   45.0830   35.5203   43.5707 H   0  0  0  0  0  0  0  0  0  0  0  0
   44.3352   34.5820   47.6578 H   0  0  0  0  0  0  0  0  0  0  0  0
   47.3087   32.5521   48.4317 H   0  0  0  0  0  0  0  0  0  0  0  0
   47.9337   31.7451   46.9536 H   0  0  0  0  0  0  0  0  0  0  0  0
   47.6408   33.5173   46.9536 H   0  0  0  0  0  0  0  0  0  0  0  0
   45.9964   30.1879   46.6144 H   0  0  0  0  0  0  0  0  0  0  0  0
   45.0361   31.0219   45.3459 H   0  0  0  0  0  0  0  0  0  0  0  0
   46.8277   31.1506   45.3459 H   0  0  0  0  0  0  0  0  0  0  0  0
   45.6616   32.2652   48.9851 H   0  0  0  0  0  0  0  0  0  0  0  0
   44.1951   32.8297   48.1148 H   0  0  0  0  0  0  0  0  0  0  0  0
   44.6237   31.0853   48.1148 H   0  0  0  0  0  0  0  0  0  0  0  0
  1  2  1  0
  1  5  1  0
  2  3  1  0
  4  5  1  0
  4  3  1  0
  5 12  1  0
  6  1  1  0
  7  6  2  0
  8  7  1  0
  9  8  2  0
  9 10  1  0
 10 11  2  0
 11  6  1  0
 12 13  1  0
 13 14  1  0
 14 18  1  0
 15 14  2  0
 15 16  1  0
 16 17  2  0
 18 17  1  0
 18 19  1  0
 19 20  1  0
 19 22  1  0
 21 19  1  0
  1 23  1  1
  2 24  1  0
  2 25  1  0
  3 26  1  0
  3 27  1  0
  4 28  1  0
  4 29  1  0
  5 30  1  6
  7 31  1  0
  8 32  1  0
 10 33  1  0
 12 34  1  0
 12 35  1  0
 13 36  1  0
 13 37  1  0
 15 38  1  0
 17 39  1  0
 20 40  1  0
 20 41  1  0
 20 42  1  0
 21 43  1  0
 21 44  1  0
 21 45  1  0
 22 46  1  0
 22 47  1  0
 22 48  1  0
M  ISO  8  23  13  24  13  25  13  26  13  27  13  28  13  29  13  30  13
M  ISO  8  31  14  32  14  33  14  34   8  35   8  36   8  37   8  38  14
M  ISO  8  39  14  40   8  41   8  42   8  43   8  44   8  45   8  46   8
M  ISO  2  47   8  48   8
M  END
>  <minimizedAffinity>  (1) 
-5.71197701

>  <minimizedRMSD>  (1) 
1.0184356

$$$$
