
     RDKit          3D

 43 46  0  0  1  0  0  0  0  0999 V2000
   47.8210   34.6810   41.4610 C   0  0  2  0  0  0  0  0  0  0  0  0
   48.7920   35.6500   41.8240 C   0  0  0  0  0  0  0  0  0  0  0  0
   50.0380   34.8920   42.3280 C   0  0  0  0  0  0  0  0  0  0  0  0
   49.7580   33.4070   42.1850 C   0  0  0  0  0  0  0  0  0  0  0  0
   48.2890   33.3780   42.1890 C   0  0  1  0  0  0  0  0  0  0  0  0
   47.6270   34.2620   40.0530 C   0  0  0  0  0  0  0  0  0  0  0  0
   48.4700   34.7870   39.0930 C   0  0  0  0  0  0  0  0  0  0  0  0
   48.3400   34.4240   37.7670 C   0  0  0  0  0  0  0  0  0  0  0  0
   47.3380   33.5320   37.4880 N   0  0  0  0  0  0  0  0  0  0  0  0
   46.5350   33.0400   38.4360 C   0  0  0  0  0  0  0  0  0  0  0  0
   46.6580   33.3880   39.7260 N   0  0  0  0  0  0  0  0  0  0  0  0
   47.7670   33.3660   43.5890 C   0  0  0  0  0  0  0  0  0  0  0  0
   46.3510   32.9000   43.6320 C   0  0  0  0  0  0  0  0  0  0  0  0
   45.6220   33.8480   44.5410 C   0  0  0  0  0  0  0  0  0  0  0  0
   45.0660   35.0670   44.2570 C   0  0  0  0  0  0  0  0  0  0  0  0
   44.5180   35.5470   45.4070 N   0  0  0  0  0  0  0  0  0  0  0  0
   44.7270   34.6540   46.3680 C   0  0  0  0  0  0  0  0  0  0  0  0
   45.3870   33.6280   45.8710 N   0  0  0  0  0  0  0  0  0  0  0  0
   45.8040   32.4380   46.6240 C   0  0  0  0  0  0  0  0  0  0  0  0
   45.7410   32.4820   48.1240 C   0  0  0  0  0  0  0  0  0  0  0  0
   47.0660   32.5290   47.4670 C   0  0  0  0  0  0  0  0  0  0  0  0
   46.8672   35.1653   41.7172 H   0  0  0  0  0  0  0  0  0  0  0  0
   49.0542   36.2645   40.9502 H   0  0  0  0  0  0  0  0  0  0  0  0
   48.4007   36.3160   42.6071 H   0  0  0  0  0  0  0  0  0  0  0  0
   50.9153   35.1685   41.7247 H   0  0  0  0  0  0  0  0  0  0  0  0
   50.2484   35.1471   43.3771 H   0  0  0  0  0  0  0  0  0  0  0  0
   50.1724   32.8378   43.0302 H   0  0  0  0  0  0  0  0  0  0  0  0
   50.2107   32.9517   41.2919 H   0  0  0  0  0  0  0  0  0  0  0  0
   47.9131   32.4741   41.6873 H   0  0  0  0  0  0  0  0  0  0  0  0
   49.2528   35.5014   39.3877 H   0  0  0  0  0  0  0  0  0  0  0  0
   48.9996   34.8258   36.9837 H   0  0  0  0  0  0  0  0  0  0  0  0
   45.7479   32.3269   38.1497 H   0  0  0  0  0  0  0  0  0  0  0  0
   48.3860   32.6899   44.1971 H   0  0  0  0  0  0  0  0  0  0  0  0
   47.8088   34.3912   43.9854 H   0  0  0  0  0  0  0  0  0  0  0  0
   45.9112   32.9249   42.6241 H   0  0  0  0  0  0  0  0  0  0  0  0
   46.2820   31.8644   43.9964 H   0  0  0  0  0  0  0  0  0  0  0  0
   45.0628   35.5674   43.2774 H   0  0  0  0  0  0  0  0  0  0  0  0
   44.4005   34.7553   47.4135 H   0  0  0  0  0  0  0  0  0  0  0  0
   45.4254   31.7626   45.8427 H   0  0  0  0  0  0  0  0  0  0  0  0
   45.3492   33.3776   48.6283 H   0  0  0  0  0  0  0  0  0  0  0  0
   45.2859   31.8425   48.8947 H   0  0  0  0  0  0  0  0  0  0  0  0
   47.7447   31.6661   47.5357 H   0  0  0  0  0  0  0  0  0  0  0  0
   47.9285   33.2107   47.5043 H   0  0  0  0  0  0  0  0  0  0  0  0
  1  2  1  0
  1  5  1  0
  2  3  1  0
  4  5  1  0
  4  3  1  0
  5 12  1  0
  6  1  1  0
  7  6  2  0
  8  7  1  0
  9  8  2  0
  9 10  1  0
 10 11  2  0
 11  6  1  0
 12 13  1  0
 13 14  1  0
 14 18  1  0
 15 14  2  0
 15 16  1  0
 16 17  2  0
 18 17  1  0
 18 19  1  0
 19 21  1  0
 19 20  1  0
 21 20  1  0
  1 22  1  1
  2 23  1  0
  2 24  1  0
  3 25  1  0
  3 26  1  0
  4 27  1  0
  4 28  1  0
  5 29  1  6
  7 30  1  0
  8 31  1  0
 10 32  1  0
 12 33  1  0
 12 34  1  0
 13 35  1  0
 13 36  1  0
 15 37  1  0
 17 38  1  0
 19 39  1  0
 20 40  1  0
 20 41  1  0
 21 42  1  0
 21 43  1  0
M  ISO  8  22  13  23  13  24  13  25  13  26  13  27  13  28  13  29  13
M  ISO  8  30  14  31  14  32  14  33   8  34   8  35   8  36   8  37  14
M  ISO  6  38  14  39  13  40  13  41  13  42  13  43  13
M  END
>  <minimizedAffinity>  (1) 
-5.67144012

>  <minimizedRMSD>  (1) 
1.04808974

$$$$
