
     RDKit          3D

 45 47  0  0  1  0  0  0  0  0999 V2000
   47.8750   34.6920   41.5540 C   0  0  2  0  0  0  0  0  0  0  0  0
   48.9300   35.5950   41.8570 C   0  0  0  0  0  0  0  0  0  0  0  0
   50.1270   34.7560   42.3520 C   0  0  0  0  0  0  0  0  0  0  0  0
   49.7240   33.2930   42.2700 C   0  0  0  0  0  0  0  0  0  0  0  0
   48.2590   33.3820   42.3170 C   0  0  1  0  0  0  0  0  0  0  0  0
   47.6060   34.2440   40.1670 C   0  0  0  0  0  0  0  0  0  0  0  0
   48.4240   34.7150   39.1580 C   0  0  0  0  0  0  0  0  0  0  0  0
   48.2200   34.3200   37.8500 C   0  0  0  0  0  0  0  0  0  0  0  0
   47.1790   33.4570   37.6390 N   0  0  0  0  0  0  0  0  0  0  0  0
   46.4010   33.0160   38.6330 C   0  0  0  0  0  0  0  0  0  0  0  0
   46.6040   33.4020   39.9040 N   0  0  0  0  0  0  0  0  0  0  0  0
   47.7800   33.4660   43.7300 C   0  0  0  0  0  0  0  0  0  0  0  0
   46.4210   32.8680   43.8720 C   0  0  0  0  0  0  0  0  0  0  0  0
   45.6510   33.7870   44.7750 C   0  0  0  0  0  0  0  0  0  0  0  0
   45.0500   34.9860   44.4800 C   0  0  0  0  0  0  0  0  0  0  0  0
   44.4760   35.4490   45.6270 N   0  0  0  0  0  0  0  0  0  0  0  0
   44.7180   34.5600   46.5910 C   0  0  0  0  0  0  0  0  0  0  0  0
   45.4190   33.5580   46.1030 N   0  0  0  0  0  0  0  0  0  0  0  0
   45.8930   32.3830   46.8050 C   0  0  0  0  0  0  0  0  0  0  0  0
   47.2590   32.5400   47.3700 C   0  0  0  0  0  0  0  0  0  0  0  0
   44.9620   31.9700   47.9380 C   0  0  0  0  0  0  0  0  0  0  0  0
   46.9697   35.2586   41.8175 H   0  0  0  0  0  0  0  0  0  0  0  0
   49.2129   36.1588   40.9558 H   0  0  0  0  0  0  0  0  0  0  0  0
   48.6158   36.3156   42.6265 H   0  0  0  0  0  0  0  0  0  0  0  0
   51.0042   34.9403   41.7143 H   0  0  0  0  0  0  0  0  0  0  0  0
   50.3904   35.0282   43.3848 H   0  0  0  0  0  0  0  0  0  0  0  0
   50.1181   32.7206   43.1227 H   0  0  0  0  0  0  0  0  0  0  0  0
   50.1105   32.7736   41.3807 H   0  0  0  0  0  0  0  0  0  0  0  0
   47.7983   32.4925   41.8626 H   0  0  0  0  0  0  0  0  0  0  0  0
   49.2430   35.4090   39.3978 H   0  0  0  0  0  0  0  0  0  0  0  0
   48.8563   34.6778   37.0272 H   0  0  0  0  0  0  0  0  0  0  0  0
   45.5777   32.3228   38.4056 H   0  0  0  0  0  0  0  0  0  0  0  0
   48.4815   32.9226   44.3802 H   0  0  0  0  0  0  0  0  0  0  0  0
   47.7275   34.5261   44.0190 H   0  0  0  0  0  0  0  0  0  0  0  0
   45.9303   32.7991   42.8899 H   0  0  0  0  0  0  0  0  0  0  0  0
   46.4724   31.8501   44.2857 H   0  0  0  0  0  0  0  0  0  0  0  0
   45.0345   35.4820   43.4983 H   0  0  0  0  0  0  0  0  0  0  0  0
   44.3830   34.6501   47.6349 H   0  0  0  0  0  0  0  0  0  0  0  0
   45.9165   31.6014   46.0314 H   0  0  0  0  0  0  0  0  0  0  0  0
   47.2043   32.5337   48.4686 H   0  0  0  0  0  0  0  0  0  0  0  0
   47.8943   31.7090   47.0297 H   0  0  0  0  0  0  0  0  0  0  0  0
   47.6892   33.4935   47.0297 H   0  0  0  0  0  0  0  0  0  0  0  0
   45.4429   32.1834   48.9040 H   0  0  0  0  0  0  0  0  0  0  0  0
   44.0212   32.5352   47.8640 H   0  0  0  0  0  0  0  0  0  0  0  0
   44.7496   30.8932   47.8640 H   0  0  0  0  0  0  0  0  0  0  0  0
  1  2  1  0
  1  5  1  0
  2  3  1  0
  4  5  1  0
  4  3  1  0
  5 12  1  0
  6  1  1  0
  7  6  2  0
  8  7  1  0
  9  8  2  0
  9 10  1  0
 10 11  2  0
 11  6  1  0
 12 13  1  0
 13 14  1  0
 14 18  1  0
 15 14  2  0
 15 16  1  0
 16 17  2  0
 18 17  1  0
 18 19  1  0
 19 20  1  0
 19 21  1  0
  1 22  1  1
  2 23  1  0
  2 24  1  0
  3 25  1  0
  3 26  1  0
  4 27  1  0
  4 28  1  0
  5 29  1  6
  7 30  1  0
  8 31  1  0
 10 32  1  0
 12 33  1  0
 12 34  1  0
 13 35  1  0
 13 36  1  0
 15 37  1  0
 17 38  1  0
 19 39  1  0
 20 40  1  0
 20 41  1  0
 20 42  1  0
 21 43  1  0
 21 44  1  0
 21 45  1  0
M  ISO  8  22  13  23  13  24  13  25  13  26  13  27  13  28  13  29  13
M  ISO  8  30  14  31  14  32  14  33   8  34   8  35   8  36   8  37  14
M  ISO  8  38  14  39   8  40   8  41   8  42   8  43   8  44   8  45   8
M  END
>  <minimizedAffinity>  (1) 
-5.53167963

>  <minimizedRMSD>  (1) 
0.981797099

$$$$
