
     RDKit          3D

 46 48  0  0  1  0  0  0  0  0999 V2000
   45.2310   34.0700   45.5870 C   0  0  0  0  0  0  0  0  0  0  0  0
   44.6810   35.3490   45.6490 C   0  0  0  0  0  0  0  0  0  0  0  0
   44.4030   36.0180   44.4410 C   0  0  0  0  0  0  0  0  0  0  0  0
   44.6900   35.3710   43.2680 N   0  0  0  0  0  0  0  0  0  0  0  0
   45.2220   34.1350   43.2620 C   0  0  0  0  0  0  0  0  0  0  0  0
   45.4790   33.5160   44.3780 N   0  0  0  0  0  0  0  0  0  0  0  0
   45.4740   33.5340   42.0020 N   0  0  0  0  0  0  0  0  0  0  0  0
   45.4670   32.1280   41.6720 C   0  0  0  0  0  0  0  0  0  0  0  0
   44.7620   32.0680   40.3430 C   0  0  0  0  0  0  0  0  0  0  0  0
   44.7320   33.4580   39.8880 C   0  0  0  0  0  0  0  0  0  0  0  0
   45.7850   34.1420   40.6990 C   0  0  2  0  0  0  0  0  0  0  0  0
   45.5380   33.3190   46.7110 N   0  0  0  0  0  0  0  0  0  0  0  0
   47.1310   33.8820   40.2310 C   0  0  0  0  0  0  0  0  0  0  0  0
   48.0550   34.4690   40.7850 O   0  0  0  0  0  0  0  0  0  0  0  0
   47.7820   33.0680   39.2370 C   0  0  2  0  0  0  0  0  0  0  0  0
   49.0820   32.5510   39.7330 C   0  0  0  0  0  0  0  0  0  0  0  0
   49.5660   31.9560   38.4320 C   0  0  0  0  0  0  0  0  0  0  0  0
   49.2830   33.0300   37.4280 C   0  0  0  0  0  0  0  0  0  0  0  0
   48.1610   33.8850   38.0340 C   0  0  1  0  0  0  0  0  0  0  0  0
   47.0800   34.0450   37.0740 N   0  0  0  0  0  0  0  0  0  0  0  0
   46.1870   33.0190   36.6440 C   0  0  0  0  0  0  0  0  0  0  0  0
   46.4240   31.8290   37.0180 N   0  0  0  0  0  0  0  0  0  0  0  0
   45.0590   33.2930   35.8210 N   0  0  0  0  0  0  0  0  0  0  0  0
   45.8100   31.0430   36.7380 H   0  0  0  0  0  0  0  0  0  0  0  0
   44.4691   35.8246   46.6180 H   0  0  0  0  0  0  0  0  0  0  0  0
   43.9689   37.0287   44.4395 H   0  0  0  0  0  0  0  0  0  0  0  0
   46.4933   31.7413   41.5877 H   0  0  0  0  0  0  0  0  0  0  0  0
   44.9730   31.5157   42.4408 H   0  0  0  0  0  0  0  0  0  0  0  0
   45.3191   31.4377   39.6342 H   0  0  0  0  0  0  0  0  0  0  0  0
   43.7565   31.6286   40.4196 H   0  0  0  0  0  0  0  0  0  0  0  0
   44.9662   33.5207   38.8150 H   0  0  0  0  0  0  0  0  0  0  0  0
   43.7412   33.9182   40.0167 H   0  0  0  0  0  0  0  0  0  0  0  0
   45.7710   35.2417   40.6780 H   0  0  0  0  0  0  0  0  0  0  0  0
   45.9435   32.3779   46.6066 H   0  0  0  0  0  0  0  0  0  0  0  0
   45.3606   33.7020   47.6505 H   0  0  0  0  0  0  0  0  0  0  0  0
   47.0683   32.2650   39.0007 H   0  0  0  0  0  0  0  0  0  0  0  0
   49.7404   33.3534   40.0972 H   0  0  0  0  0  0  0  0  0  0  0  0
   49.0389   31.8691   40.5951 H   0  0  0  0  0  0  0  0  0  0  0  0
   50.6425   31.7346   38.4776 H   0  0  0  0  0  0  0  0  0  0  0  0
   49.0744   31.0025   38.1886 H   0  0  0  0  0  0  0  0  0  0  0  0
   48.9553   32.5873   36.4758 H   0  0  0  0  0  0  0  0  0  0  0  0
   50.1794   33.6309   37.2148 H   0  0  0  0  0  0  0  0  0  0  0  0
   48.4365   34.9165   38.2987 H   0  0  0  0  0  0  0  0  0  0  0  0
   46.9475   34.9825   36.6686 H   0  0  0  0  0  0  0  0  0  0  0  0
   44.8656   34.2579   35.5169 H   0  0  0  0  0  0  0  0  0  0  0  0
   44.4359   32.5264   35.5294 H   0  0  0  0  0  0  0  0  0  0  0  0
  1  2  2  0
  1 12  1  0
  3  2  1  0
  4  3  2  0
  5  4  1  0
  5  6  2  0
  6  1  1  0
  7  5  1  0
  8  7  1  0
  9  8  1  0
 10  9  1  0
 10 11  1  0
 11  7  1  0
 13 11  1  0
 13 14  2  0
 15 16  1  0
 15 13  1  0
 17 16  1  0
 18 19  1  0
 18 17  1  0
 19 15  1  0
 20 19  1  0
 21 22  2  0
 21 20  1  0
 23 21  1  0
 24 22  1  0
  2 25  1  0
  3 26  1  0
  8 27  1  0
  8 28  1  0
  9 29  1  0
  9 30  1  0
 10 31  1  0
 10 32  1  0
 11 33  1  1
 12 34  1  0
 12 35  1  0
 15 36  1  6
 16 37  1  0
 16 38  1  0
 17 39  1  0
 17 40  1  0
 18 41  1  0
 18 42  1  0
 19 43  1  1
 20 44  1  0
 23 45  1  0
 23 46  1  0
M  ISO  8  25  14  26  14  27  13  28  13  29  13  30  13  31  13  32  13
M  ISO  8  33  13  36  13  37  13  38  13  39  13  40  13  41  13  42  13
M  ISO  1  43  13
M  END
>  <minimizedAffinity>  (1) 
-5.95520353

>  <minimizedRMSD>  (1) 
4.8597827

$$$$
