
     RDKit          3D

 49 52  0  0  1  0  0  0  0  0999 V2000
   45.0530   32.4140   43.2080 C   0  0  0  0  0  0  0  0  0  0  0  0
   43.8880   32.3360   42.8340 O   0  0  0  0  0  0  0  0  0  0  0  0
   45.6380   30.3920   48.4910 C   0  0  0  0  0  0  0  0  0  0  0  0
   45.0590   29.1260   48.3820 C   0  0  0  0  0  0  0  0  0  0  0  0
   44.8790   28.5860   47.0950 C   0  0  0  0  0  0  0  0  0  0  0  0
   45.2830   29.3370   46.0210 N   0  0  0  0  0  0  0  0  0  0  0  0
   45.8360   30.5530   46.1810 C   0  0  0  0  0  0  0  0  0  0  0  0
   46.0020   31.0510   47.3720 N   0  0  0  0  0  0  0  0  0  0  0  0
   46.2340   31.2480   45.0120 N   0  0  0  0  0  0  0  0  0  0  0  0
   47.3050   32.2030   44.8760 C   0  0  0  0  0  0  0  0  0  0  0  0
   47.9560   31.8360   43.5620 C   0  0  0  0  0  0  0  0  0  0  0  0
   46.9970   30.9310   42.9260 C   0  0  0  0  0  0  0  0  0  0  0  0
   45.7080   31.1910   43.6350 C   0  0  2  0  0  0  0  0  0  0  0  0
   45.8680   31.0180   49.7100 N   0  0  0  0  0  0  0  0  0  0  0  0
   45.3760   33.8060   43.0880 C   0  0  2  0  0  0  0  0  0  0  0  0
   44.7410   34.6060   44.1650 C   0  0  0  0  0  0  0  0  0  0  0  0
   45.1190   35.9670   43.6360 C   0  0  0  0  0  0  0  0  0  0  0  0
   44.8090   35.8890   42.1820 C   0  0  0  0  0  0  0  0  0  0  0  0
   44.8450   34.3910   41.8270 C   0  0  1  0  0  0  0  0  0  0  0  0
   45.8520   34.2360   40.7930 N   0  0  0  0  0  0  0  0  0  0  0  0
   47.1420   34.6030   40.9750 C   0  0  0  0  0  0  0  0  0  0  0  0
   48.1350   34.4770   40.0250 C   0  0  0  0  0  0  0  0  0  0  0  0
   47.8080   33.9400   38.7970 C   0  0  0  0  0  0  0  0  0  0  0  0
   48.6650   33.8010   37.8950 O   0  0  0  0  0  0  0  0  0  0  0  0
   46.5270   33.5750   38.6110 N   0  0  0  0  0  0  0  0  0  0  0  0
   45.6120   33.7240   39.5730 C   0  0  0  0  0  0  0  0  0  0  0  0
   44.4470   33.3500   39.2930 O   0  0  0  0  0  0  0  0  0  0  0  0
   44.7520   28.5661   49.2777 H   0  0  0  0  0  0  0  0  0  0  0  0
   44.4283   27.5924   46.9548 H   0  0  0  0  0  0  0  0  0  0  0  0
   46.9118   33.2299   44.8445 H   0  0  0  0  0  0  0  0  0  0  0  0
   48.0090   32.1734   45.7207 H   0  0  0  0  0  0  0  0  0  0  0  0
   48.1172   32.7310   42.9432 H   0  0  0  0  0  0  0  0  0  0  0  0
   48.9453   31.3743   43.6966 H   0  0  0  0  0  0  0  0  0  0  0  0
   46.9028   31.1561   41.8534 H   0  0  0  0  0  0  0  0  0  0  0  0
   47.3070   29.8779   42.9958 H   0  0  0  0  0  0  0  0  0  0  0  0
   44.9086   30.4551   43.4636 H   0  0  0  0  0  0  0  0  0  0  0  0
   46.2985   31.9534   49.7355 H   0  0  0  0  0  0  0  0  0  0  0  0
   45.6080   30.5466   50.5881 H   0  0  0  0  0  0  0  0  0  0  0  0
   46.4744   33.8480   43.1295 H   0  0  0  0  0  0  0  0  0  0  0  0
   43.6516   34.4604   44.2099 H   0  0  0  0  0  0  0  0  0  0  0  0
   45.0513   34.3762   45.1950 H   0  0  0  0  0  0  0  0  0  0  0  0
   44.5228   36.7540   44.1209 H   0  0  0  0  0  0  0  0  0  0  0  0
   46.1720   36.2187   43.8308 H   0  0  0  0  0  0  0  0  0  0  0  0
   43.8119   36.3071   41.9797 H   0  0  0  0  0  0  0  0  0  0  0  0
   45.5289   36.4653   41.5823 H   0  0  0  0  0  0  0  0  0  0  0  0
   43.8943   33.9533   41.4886 H   0  0  0  0  0  0  0  0  0  0  0  0
   47.4185   35.0322   41.9493 H   0  0  0  0  0  0  0  0  0  0  0  0
   49.1646   34.7977   40.2421 H   0  0  0  0  0  0  0  0  0  0  0  0
   46.2450   33.1714   37.7063 H   0  0  0  0  0  0  0  0  0  0  0  0
  1 13  1  0
  2  1  2  0
  3 14  1  0
  4  3  2  0
  5  4  1  0
  6  7  1  0
  6  5  2  0
  7  8  2  0
  8  3  1  0
  9  7  1  0
 10  9  1  0
 11 10  1  0
 12 11  1  0
 12 13  1  0
 13  9  1  0
 15  1  1  0
 15 16  1  0
 17 16  1  0
 18 17  1  0
 19 18  1  0
 19 15  1  0
 20 21  1  0
 20 19  1  0
 22 21  2  0
 23 22  1  0
 24 23  2  0
 25 23  1  0
 25 26  1  0
 26 20  1  0
 27 26  2  0
  4 28  1  0
  5 29  1  0
 10 30  1  0
 10 31  1  0
 11 32  1  0
 11 33  1  0
 12 34  1  0
 12 35  1  0
 13 36  1  1
 14 37  1  0
 14 38  1  0
 15 39  1  6
 16 40  1  0
 16 41  1  0
 17 42  1  0
 17 43  1  0
 18 44  1  0
 18 45  1  0
 19 46  1  6
 21 47  1  0
 22 48  1  0
 25 49  1  0
M  ISO  8  28  14  29  14  30  13  31  13  32  13  33  13  34  13  35  13
M  ISO  8  36  13  39  13  40  13  41  13  42  13  43  13  44  13  45  13
M  ISO  4  46  13  47  14  48  14  49   9
M  END
>  <minimizedAffinity>  (1) 
-5.9393158

>  <minimizedRMSD>  (1) 
6.8122344

$$$$
