
     RDKit          3D

 42 44  0  0  1  0  0  0  0  0999 V2000
   41.3620   33.3740   41.4190 C   0  0  0  0  0  0  0  0  0  0  0  0
   40.9670   34.5370   40.7780 C   0  0  0  0  0  0  0  0  0  0  0  0
   41.9510   35.3410   40.1770 C   0  0  0  0  0  0  0  0  0  0  0  0
   43.2550   34.9220   40.2630 N   0  0  0  0  0  0  0  0  0  0  0  0
   43.5900   33.7840   40.8970 C   0  0  0  0  0  0  0  0  0  0  0  0
   42.6700   33.0460   41.4500 N   0  0  0  0  0  0  0  0  0  0  0  0
   44.9600   33.4320   40.9200 N   0  0  0  0  0  0  0  0  0  0  0  0
   45.5350   32.1060   40.9600 C   0  0  0  0  0  0  0  0  0  0  0  0
   46.6880   32.1830   39.9860 C   0  0  0  0  0  0  0  0  0  0  0  0
   46.8680   33.6140   39.7470 C   0  0  0  0  0  0  0  0  0  0  0  0
   46.1690   34.2720   40.8950 C   0  0  2  0  0  0  0  0  0  0  0  0
   40.4760   32.4990   42.0490 N   0  0  0  0  0  0  0  0  0  0  0  0
   46.9390   34.2420   42.1210 C   0  0  0  0  0  0  0  0  0  0  0  0
   48.1570   34.1570   42.0170 O   0  0  0  0  0  0  0  0  0  0  0  0
   46.7130   34.2920   43.5360 C   0  0  2  0  0  0  0  0  0  0  0  0
   47.1730   33.0320   44.1860 C   0  0  0  0  0  0  0  0  0  0  0  0
   46.6530   33.3330   45.5670 C   0  0  0  0  0  0  0  0  0  0  0  0
   45.2860   33.8530   45.3260 C   0  0  0  0  0  0  0  0  0  0  0  0
   45.2690   34.3740   43.8730 C   0  0  1  0  0  0  0  0  0  0  0  0
   44.7320   35.7880   43.8820 C   0  0  0  0  0  0  0  0  0  0  0  0
   45.5450   36.6760   43.1960 F   0  0  0  0  0  0  0  0  0  0  0  0
   44.6940   36.1490   45.2420 F   0  0  0  0  0  0  0  0  0  0  0  0
   43.4290   35.8430   43.4690 F   0  0  0  0  0  0  0  0  0  0  0  0
   39.9061   34.8250   40.7402 H   0  0  0  0  0  0  0  0  0  0  0  0
   41.6853   36.2728   39.6563 H   0  0  0  0  0  0  0  0  0  0  0  0
   45.8924   31.8643   41.9719 H   0  0  0  0  0  0  0  0  0  0  0  0
   44.8104   31.3203   40.6999 H   0  0  0  0  0  0  0  0  0  0  0  0
   47.5969   31.7442   40.4235 H   0  0  0  0  0  0  0  0  0  0  0  0
   46.4912   31.6248   39.0588 H   0  0  0  0  0  0  0  0  0  0  0  0
   47.9362   33.8763   39.7393 H   0  0  0  0  0  0  0  0  0  0  0  0
   46.4664   33.9310   38.7732 H   0  0  0  0  0  0  0  0  0  0  0  0
   45.9829   35.3514   40.7940 H   0  0  0  0  0  0  0  0  0  0  0  0
   39.4665   32.7034   42.0540 H   0  0  0  0  0  0  0  0  0  0  0  0
   40.8316   31.6488   42.5090 H   0  0  0  0  0  0  0  0  0  0  0  0
   47.2585   35.1812   43.8851 H   0  0  0  0  0  0  0  0  0  0  0  0
   46.7063   32.1380   43.7469 H   0  0  0  0  0  0  0  0  0  0  0  0
   48.2454   32.8008   44.1048 H   0  0  0  0  0  0  0  0  0  0  0  0
   46.6225   32.4211   46.1814 H   0  0  0  0  0  0  0  0  0  0  0  0
   47.2881   34.0452   46.1142 H   0  0  0  0  0  0  0  0  0  0  0  0
   44.5455   33.0492   45.4508 H   0  0  0  0  0  0  0  0  0  0  0  0
   45.0308   34.6507   46.0392 H   0  0  0  0  0  0  0  0  0  0  0  0
   44.6400   33.8313   43.1520 H   0  0  0  0  0  0  0  0  0  0  0  0
  1  6  2  0
  1 12  1  0
  2  1  1  0
  3  4  1  0
  3  2  2  0
  4  5  2  0
  5  7  1  0
  5  6  1  0
  7  8  1  0
  9  8  1  0
 10  9  1  0
 10 11  1  0
 11  7  1  0
 11 13  1  0
 13 15  1  0
 14 13  2  0
 15 19  1  0
 15 16  1  0
 16 17  1  0
 18 17  1  0
 19 20  1  0
 19 18  1  0
 20 22  1  0
 21 20  1  0
 23 20  1  0
  2 24  1  0
  3 25  1  0
  8 26  1  0
  8 27  1  0
  9 28  1  0
  9 29  1  0
 10 30  1  0
 10 31  1  0
 11 32  1  6
 12 33  1  0
 12 34  1  0
 15 35  1  1
 16 36  1  0
 16 37  1  0
 17 38  1  0
 17 39  1  0
 18 40  1  0
 18 41  1  0
 19 42  1  6
M  ISO  8  24  14  25  14  26  13  27  13  28  13  29  13  30  13  31  13
M  ISO  8  32  13  35  13  36  13  37  13  38  13  39  13  40  13  41  13
M  ISO  1  42  13
M  END
>  <minimizedAffinity>  (1) 
-5.83593893

>  <minimizedRMSD>  (1) 
5.64533806

$$$$
