
     RDKit          3D

 52 55  0  0  1  0  0  0  0  0999 V2000
   46.8960   32.3740   44.0320 C   0  0  0  0  0  0  0  0  0  0  0  0
   45.9120   31.7580   43.6360 O   0  0  0  0  0  0  0  0  0  0  0  0
   46.7260   27.5930   47.1020 C   0  0  0  0  0  0  0  0  0  0  0  0
   48.0670   27.4500   47.4910 C   0  0  0  0  0  0  0  0  0  0  0  0
   48.9120   28.5740   47.3900 C   0  0  0  0  0  0  0  0  0  0  0  0
   48.3720   29.7420   46.9170 N   0  0  0  0  0  0  0  0  0  0  0  0
   47.0770   29.8250   46.5570 C   0  0  0  0  0  0  0  0  0  0  0  0
   46.2980   28.7860   46.6510 N   0  0  0  0  0  0  0  0  0  0  0  0
   46.6080   31.0760   46.0910 N   0  0  0  0  0  0  0  0  0  0  0  0
   45.2690   31.6130   46.1930 C   0  0  0  0  0  0  0  0  0  0  0  0
   45.4870   33.0560   46.5720 C   0  0  0  0  0  0  0  0  0  0  0  0
   46.9120   33.2870   46.3170 C   0  0  0  0  0  0  0  0  0  0  0  0
   47.3110   32.1730   45.4050 C   0  0  2  0  0  0  0  0  0  0  0  0
   45.8100   26.5570   47.1680 N   0  0  0  0  0  0  0  0  0  0  0  0
   47.3090   33.1470   42.8920 C   0  0  2  0  0  0  0  0  0  0  0  0
   48.7900   33.2510   42.8220 C   0  0  0  0  0  0  0  0  0  0  0  0
   48.8620   34.2370   41.6860 C   0  0  0  0  0  0  0  0  0  0  0  0
   47.8320   35.2640   42.0420 C   0  0  0  0  0  0  0  0  0  0  0  0
   46.8620   34.5820   43.0150 C   0  0  1  0  0  0  0  0  0  0  0  0
   45.4910   34.8170   42.6610 N   0  0  0  0  0  0  0  0  0  0  0  0
   44.9710   34.4570   41.4490 C   0  0  0  0  0  0  0  0  0  0  0  0
   43.6890   34.6490   41.0490 C   0  0  0  0  0  0  0  0  0  0  0  0
   43.1810   34.2390   39.7260 C   0  0  0  0  0  0  0  0  0  0  0  0
   42.7980   35.2570   41.9080 C   0  0  0  0  0  0  0  0  0  0  0  0
   41.6160   35.4550   41.5880 O   0  0  0  0  0  0  0  0  0  0  0  0
   43.2810   35.6230   43.1080 N   0  0  0  0  0  0  0  0  0  0  0  0
   44.5650   35.4020   43.4390 C   0  0  0  0  0  0  0  0  0  0  0  0
   44.8870   35.7910   44.5890 O   0  0  0  0  0  0  0  0  0  0  0  0
   48.4480   26.4879   47.8642 H   0  0  0  0  0  0  0  0  0  0  0  0
   49.9711   28.5157   47.6815 H   0  0  0  0  0  0  0  0  0  0  0  0
   44.7418   31.5361   45.2306 H   0  0  0  0  0  0  0  0  0  0  0  0
   44.6482   31.0713   46.9218 H   0  0  0  0  0  0  0  0  0  0  0  0
   44.8675   33.7197   45.9509 H   0  0  0  0  0  0  0  0  0  0  0  0
   45.2083   33.2627   47.6158 H   0  0  0  0  0  0  0  0  0  0  0  0
   47.0677   34.2620   45.8320 H   0  0  0  0  0  0  0  0  0  0  0  0
   47.5063   33.3048   47.2425 H   0  0  0  0  0  0  0  0  0  0  0  0
   48.3929   32.0267   45.2703 H   0  0  0  0  0  0  0  0  0  0  0  0
   44.8359   26.7111   46.8707 H   0  0  0  0  0  0  0  0  0  0  0  0
   46.1026   25.6322   47.5144 H   0  0  0  0  0  0  0  0  0  0  0  0
   46.8739   32.6368   42.0200 H   0  0  0  0  0  0  0  0  0  0  0  0
   49.2266   33.6484   43.7502 H   0  0  0  0  0  0  0  0  0  0  0  0
   49.3399   32.3081   42.6859 H   0  0  0  0  0  0  0  0  0  0  0  0
   48.6180   33.7519   40.7294 H   0  0  0  0  0  0  0  0  0  0  0  0
   49.8663   34.6670   41.5576 H   0  0  0  0  0  0  0  0  0  0  0  0
   48.3087   36.1303   42.5240 H   0  0  0  0  0  0  0  0  0  0  0  0
   47.3081   35.6315   41.1473 H   0  0  0  0  0  0  0  0  0  0  0  0
   46.8904   34.9513   44.0508 H   0  0  0  0  0  0  0  0  0  0  0  0
   45.6516   33.9690   40.7358 H   0  0  0  0  0  0  0  0  0  0  0  0
   42.3310   33.5530   39.8561 H   0  0  0  0  0  0  0  0  0  0  0  0
   42.8525   35.1281   39.1677 H   0  0  0  0  0  0  0  0  0  0  0  0
   43.9807   33.7302   39.1677 H   0  0  0  0  0  0  0  0  0  0  0  0
   42.6557   36.0812   43.7863 H   0  0  0  0  0  0  0  0  0  0  0  0
  1 13  1  0
  2  1  2  0
  3 14  1  0
  3  4  2  0
  5  4  1  0
  6  5  2  0
  7  8  2  0
  7  6  1  0
  8  3  1  0
  9 10  1  0
  9  7  1  0
 10 11  1  0
 12 11  1  0
 13  9  1  0
 13 12  1  0
 15 19  1  0
 15  1  1  0
 16 15  1  0
 17 18  1  0
 17 16  1  0
 18 19  1  0
 20 19  1  0
 20 27  1  0
 21 20  1  0
 22 21  2  0
 22 24  1  0
 23 22  1  0
 24 26  1  0
 25 24  2  0
 26 27  1  0
 27 28  2  0
  4 29  1  0
  5 30  1  0
 10 31  1  0
 10 32  1  0
 11 33  1  0
 11 34  1  0
 12 35  1  0
 12 36  1  0
 13 37  1  6
 14 38  1  0
 14 39  1  0
 15 40  1  6
 16 41  1  0
 16 42  1  0
 17 43  1  0
 17 44  1  0
 18 45  1  0
 18 46  1  0
 19 47  1  1
 21 48  1  0
 23 49  1  0
 23 50  1  0
 23 51  1  0
 26 52  1  0
M  ISO  8  29  14  30  14  31  13  32  13  33  13  34  13  35  13  36  13
M  ISO  8  37  13  40  13  41  13  42  13  43  13  44  13  45  13  46  13
M  ISO  6  47  13  48  14  49   8  50   8  51   8  52   9
M  END
>  <minimizedAffinity>  (1) 
-5.69528818

>  <minimizedRMSD>  (1) 
7.53906155

$$$$
