
     RDKit          3D

 50 53  0  0  1  0  0  0  0  0999 V2000
   45.8680   31.9660   43.0120 C   0  0  0  0  0  0  0  0  0  0  0  0
   44.9230   31.3070   43.4350 O   0  0  0  0  0  0  0  0  0  0  0  0
   45.6980   31.5990   48.6830 C   0  0  0  0  0  0  0  0  0  0  0  0
   46.9020   30.9810   48.9710 C   0  0  0  0  0  0  0  0  0  0  0  0
   47.9070   30.9680   47.9740 C   0  0  0  0  0  0  0  0  0  0  0  0
   47.6210   31.5760   46.7770 N   0  0  0  0  0  0  0  0  0  0  0  0
   46.4290   32.1630   46.5530 C   0  0  0  0  0  0  0  0  0  0  0  0
   45.5120   32.1690   47.4750 N   0  0  0  0  0  0  0  0  0  0  0  0
   46.2340   32.7780   45.2940 N   0  0  0  0  0  0  0  0  0  0  0  0
   45.3950   33.9140   44.9820 C   0  0  0  0  0  0  0  0  0  0  0  0
   46.2380   34.7410   44.0440 C   0  0  0  0  0  0  0  0  0  0  0  0
   47.3250   33.8450   43.6500 C   0  0  0  0  0  0  0  0  0  0  0  0
   46.8210   32.4760   43.9780 C   0  0  2  0  0  0  0  0  0  0  0  0
   44.6500   31.6700   49.5920 N   0  0  0  0  0  0  0  0  0  0  0  0
   45.6560   31.9960   41.5870 C   0  0  2  0  0  0  0  0  0  0  0  0
   46.9240   31.6900   40.8600 C   0  0  0  0  0  0  0  0  0  0  0  0
   46.4370   31.9900   39.4700 C   0  0  0  0  0  0  0  0  0  0  0  0
   45.7130   33.2930   39.6340 C   0  0  0  0  0  0  0  0  0  0  0  0
   45.3150   33.3700   41.1140 C   0  0  1  0  0  0  0  0  0  0  0  0
   43.9020   33.7140   41.1410 N   0  0  0  0  0  0  0  0  0  0  0  0
   42.9680   32.7550   40.8530 C   0  0  0  0  0  0  0  0  0  0  0  0
   41.6180   32.9010   40.8320 C   0  0  0  0  0  0  0  0  0  0  0  0
   41.1330   34.1370   41.1290 C   0  0  0  0  0  0  0  0  0  0  0  0
   39.7270   34.3710   41.1280 N   0  0  0  0  0  0  0  0  0  0  0  0
   42.0260   35.0970   41.4150 N   0  0  0  0  0  0  0  0  0  0  0  0
   43.3590   34.9120   41.4260 C   0  0  0  0  0  0  0  0  0  0  0  0
   44.1610   35.8390   41.6990 O   0  0  0  0  0  0  0  0  0  0  0  0
   47.0741   30.5113   49.9507 H   0  0  0  0  0  0  0  0  0  0  0  0
   48.8809   30.4885   48.1519 H   0  0  0  0  0  0  0  0  0  0  0  0
   44.4654   33.5907   44.4907 H   0  0  0  0  0  0  0  0  0  0  0  0
   45.0861   34.4720   45.8782 H   0  0  0  0  0  0  0  0  0  0  0  0
   45.6527   35.0529   43.1665 H   0  0  0  0  0  0  0  0  0  0  0  0
   46.6048   35.6658   44.5132 H   0  0  0  0  0  0  0  0  0  0  0  0
   48.2391   34.0693   44.2193 H   0  0  0  0  0  0  0  0  0  0  0  0
   47.5882   33.9497   42.5871 H   0  0  0  0  0  0  0  0  0  0  0  0
   47.5723   31.6726   43.9695 H   0  0  0  0  0  0  0  0  0  0  0  0
   43.7723   32.1413   49.3303 H   0  0  0  0  0  0  0  0  0  0  0  0
   44.7506   31.2513   50.5277 H   0  0  0  0  0  0  0  0  0  0  0  0
   44.8531   31.2694   41.3934 H   0  0  0  0  0  0  0  0  0  0  0  0
   47.7500   32.3494   41.1648 H   0  0  0  0  0  0  0  0  0  0  0  0
   47.3458   30.6869   41.0207 H   0  0  0  0  0  0  0  0  0  0  0  0
   45.7567   31.2032   39.1120 H   0  0  0  0  0  0  0  0  0  0  0  0
   47.2490   32.0381   38.7295 H   0  0  0  0  0  0  0  0  0  0  0  0
   46.3728   34.1330   39.3711 H   0  0  0  0  0  0  0  0  0  0  0  0
   44.8336   33.3518   38.9758 H   0  0  0  0  0  0  0  0  0  0  0  0
   45.8071   34.1171   41.7541 H   0  0  0  0  0  0  0  0  0  0  0  0
   43.3546   31.7539   40.6115 H   0  0  0  0  0  0  0  0  0  0  0  0
   40.9501   32.0620   40.5871 H   0  0  0  0  0  0  0  0  0  0  0  0
   39.3605   35.3069   41.3529 H   0  0  0  0  0  0  0  0  0  0  0  0
   39.0774   33.6041   40.9023 H   0  0  0  0  0  0  0  0  0  0  0  0
  1  2  2  0
  1 13  1  0
  3  4  2  0
  3 14  1  0
  5  4  1  0
  6  5  2  0
  7  6  1  0
  7  8  2  0
  8  3  1  0
  9  7  1  0
 10  9  1  0
 11 10  1  0
 12 13  1  0
 12 11  1  0
 13  9  1  0
 15  1  1  0
 16 15  1  0
 17 18  1  0
 17 16  1  0
 18 19  1  0
 19 20  1  0
 19 15  1  0
 20 26  1  0
 21 20  1  0
 22 21  2  0
 22 23  1  0
 23 25  2  0
 24 23  1  0
 25 26  1  0
 26 27  2  0
  4 28  1  0
  5 29  1  0
 10 30  1  0
 10 31  1  0
 11 32  1  0
 11 33  1  0
 12 34  1  0
 12 35  1  0
 13 36  1  1
 14 37  1  0
 14 38  1  0
 15 39  1  1
 16 40  1  0
 16 41  1  0
 17 42  1  0
 17 43  1  0
 18 44  1  0
 18 45  1  0
 19 46  1  1
 21 47  1  0
 22 48  1  0
 24 49  1  0
 24 50  1  0
M  ISO  8  28  14  29  14  30  13  31  13  32  13  33  13  34  13  35  13
M  ISO  8  36  13  39  13  40  13  41  13  42  13  43  13  44  13  45  13
M  ISO  3  46  13  47  14  48  14
M  END
>  <minimizedAffinity>  (1) 
-5.68945074

>  <minimizedRMSD>  (1) 
7.59955454

$$$$
