
     RDKit          3D

 47 50  0  0  1  0  0  0  0  0999 V2000
   45.2540   34.1320   45.5690 C   0  0  0  0  0  0  0  0  0  0  0  0
   44.6240   35.3770   45.5310 C   0  0  0  0  0  0  0  0  0  0  0  0
   44.4520   36.0060   44.2840 C   0  0  0  0  0  0  0  0  0  0  0  0
   44.9160   35.3560   43.1690 N   0  0  0  0  0  0  0  0  0  0  0  0
   45.5180   34.1560   43.2550 C   0  0  0  0  0  0  0  0  0  0  0  0
   45.6760   33.5760   44.4100 N   0  0  0  0  0  0  0  0  0  0  0  0
   45.9530   33.5540   42.0490 N   0  0  0  0  0  0  0  0  0  0  0  0
   46.0700   32.1470   41.7510 C   0  0  0  0  0  0  0  0  0  0  0  0
   45.5330   32.0250   40.3460 C   0  0  0  0  0  0  0  0  0  0  0  0
   45.4740   33.4050   39.8610 C   0  0  0  0  0  0  0  0  0  0  0  0
   46.3830   34.1590   40.7780 C   0  0  2  0  0  0  0  0  0  0  0  0
   45.4740   33.4170   46.7360 N   0  0  0  0  0  0  0  0  0  0  0  0
   47.7870   33.9660   40.4740 C   0  0  0  0  0  0  0  0  0  0  0  0
   48.5900   34.0940   41.3930 O   0  0  0  0  0  0  0  0  0  0  0  0
   48.5940   33.6330   39.3370 C   0  0  2  0  0  0  0  0  0  0  0  0
   48.0570   34.2320   38.0910 C   0  0  0  0  0  0  0  0  0  0  0  0
   48.9990   33.5550   37.1300 C   0  0  0  0  0  0  0  0  0  0  0  0
   49.0190   32.1280   37.5950 C   0  0  0  0  0  0  0  0  0  0  0  0
   48.5970   32.1680   39.0690 C   0  0  1  0  0  0  0  0  0  0  0  0
   49.6490   31.5280   39.8950 C   0  0  0  0  0  0  0  0  0  0  0  0
   49.4460   30.6730   40.9560 C   0  0  0  0  0  0  0  0  0  0  0  0
   50.4460   30.0940   41.6950 C   0  0  0  0  0  0  0  0  0  0  0  0
   51.7220   30.3820   41.3610 N   0  0  0  0  0  0  0  0  0  0  0  0
   51.9480   31.2220   40.3200 C   0  0  0  0  0  0  0  0  0  0  0  0
   50.9500   31.7720   39.6140 N   0  0  0  0  0  0  0  0  0  0  0  0
   44.2697   35.8560   46.4557 H   0  0  0  0  0  0  0  0  0  0  0  0
   43.9612   36.9874   44.2060 H   0  0  0  0  0  0  0  0  0  0  0  0
   47.1204   31.8236   41.7975 H   0  0  0  0  0  0  0  0  0  0  0  0
   45.5253   31.5158   42.4685 H   0  0  0  0  0  0  0  0  0  0  0  0
   46.2079   31.4210   39.7218 H   0  0  0  0  0  0  0  0  0  0  0  0
   44.5538   31.5250   40.3120 H   0  0  0  0  0  0  0  0  0  0  0  0
   45.8292   33.4682   38.8218 H   0  0  0  0  0  0  0  0  0  0  0  0
   44.4500   33.8067   39.8611 H   0  0  0  0  0  0  0  0  0  0  0  0
   46.3113   35.2558   40.7356 H   0  0  0  0  0  0  0  0  0  0  0  0
   45.9452   32.5019   46.6982 H   0  0  0  0  0  0  0  0  0  0  0  0
   45.1663   33.8008   47.6409 H   0  0  0  0  0  0  0  0  0  0  0  0
   49.5973   34.0107   39.5836 H   0  0  0  0  0  0  0  0  0  0  0  0
   47.0069   33.9574   37.9124 H   0  0  0  0  0  0  0  0  0  0  0  0
   48.0244   35.3308   38.0513 H   0  0  0  0  0  0  0  0  0  0  0  0
   50.0034   33.9999   37.1867 H   0  0  0  0  0  0  0  0  0  0  0  0
   48.6830   33.6566   36.0813 H   0  0  0  0  0  0  0  0  0  0  0  0
   48.3109   31.5234   37.0092 H   0  0  0  0  0  0  0  0  0  0  0  0
   50.0124   31.6728   37.4685 H   0  0  0  0  0  0  0  0  0  0  0  0
   47.6462   31.6591   39.2858 H   0  0  0  0  0  0  0  0  0  0  0  0
   48.4071   30.4377   41.2303 H   0  0  0  0  0  0  0  0  0  0  0  0
   50.2161   29.4178   42.5316 H   0  0  0  0  0  0  0  0  0  0  0  0
   52.9863   31.4601   40.0457 H   0  0  0  0  0  0  0  0  0  0  0  0
  1 12  1  0
  2  1  2  0
  3  2  1  0
  4  5  1  0
  4  3  2  0
  5  6  2  0
  6  1  1  0
  7  5  1  0
  8  7  1  0
  9  8  1  0
 10  9  1  0
 10 11  1  0
 11  7  1  0
 13 11  1  0
 13 14  2  0
 15 13  1  0
 16 15  1  0
 17 18  1  0
 17 16  1  0
 18 19  1  0
 19 15  1  0
 19 20  1  0
 20 21  2  0
 21 22  1  0
 23 22  2  0
 24 23  1  0
 25 20  1  0
 25 24  2  0
  2 26  1  0
  3 27  1  0
  8 28  1  0
  8 29  1  0
  9 30  1  0
  9 31  1  0
 10 32  1  0
 10 33  1  0
 11 34  1  1
 12 35  1  0
 12 36  1  0
 15 37  1  1
 16 38  1  0
 16 39  1  0
 17 40  1  0
 17 41  1  0
 18 42  1  0
 18 43  1  0
 19 44  1  6
 21 45  1  0
 22 46  1  0
 24 47  1  0
M  ISO  8  26  14  27  14  28  13  29  13  30  13  31  13  32  13  33  13
M  ISO  8  34  13  37  13  38  13  39  13  40  13  41  13  42  13  43  13
M  ISO  4  44  13  45  14  46  14  47  14
M  END
>  <minimizedAffinity>  (1) 
-5.42742443

>  <minimizedRMSD>  (1) 
3.2971046

$$$$
