
     RDKit          3D

 51 54  0  0  1  0  0  0  0  0999 V2000
   45.3630   34.1540   45.5610 C   0  0  0  0  0  0  0  0  0  0  0  0
   44.6620   35.3550   45.5200 C   0  0  0  0  0  0  0  0  0  0  0  0
   44.4230   35.9470   44.2610 C   0  0  0  0  0  0  0  0  0  0  0  0
   44.9000   35.2970   43.1510 N   0  0  0  0  0  0  0  0  0  0  0  0
   45.5730   34.1340   43.2490 C   0  0  0  0  0  0  0  0  0  0  0  0
   45.7860   33.5990   44.4150 N   0  0  0  0  0  0  0  0  0  0  0  0
   46.0130   33.5390   42.0440 N   0  0  0  0  0  0  0  0  0  0  0  0
   46.2020   32.1320   41.7670 C   0  0  0  0  0  0  0  0  0  0  0  0
   45.6190   31.9580   40.3820 C   0  0  0  0  0  0  0  0  0  0  0  0
   45.4950   33.3210   39.8650 C   0  0  0  0  0  0  0  0  0  0  0  0
   46.3830   34.1380   40.7500 C   0  0  2  0  0  0  0  0  0  0  0  0
   45.6480   33.4870   46.7490 N   0  0  0  0  0  0  0  0  0  0  0  0
   47.7920   34.0140   40.4220 C   0  0  0  0  0  0  0  0  0  0  0  0
   48.5990   34.1390   41.3370 O   0  0  0  0  0  0  0  0  0  0  0  0
   48.6010   33.7620   39.2660 C   0  0  2  0  0  0  0  0  0  0  0  0
   47.9210   34.2050   38.0210 C   0  0  0  0  0  0  0  0  0  0  0  0
   48.9120   33.6470   37.0370 C   0  0  0  0  0  0  0  0  0  0  0  0
   49.2310   32.3010   37.5880 C   0  0  0  0  0  0  0  0  0  0  0  0
   48.7710   32.2680   39.0420 C   0  0  1  0  0  0  0  0  0  0  0  0
   49.6190   31.6170   39.9310 N   0  0  0  0  0  0  0  0  0  0  0  0
   51.0090   31.6700   39.8490 C   0  0  0  0  0  0  0  0  0  0  0  0
   51.4700   30.6290   40.8730 C   0  0  0  0  0  0  0  0  0  0  0  0
   50.2260   30.2070   41.6180 C   0  0  0  0  0  0  0  0  0  0  0  0
   49.1720   30.4200   40.5320 C   0  0  0  0  0  0  0  0  0  0  0  0
   44.3033   35.8309   46.4446 H   0  0  0  0  0  0  0  0  0  0  0  0
   43.8737   36.8960   44.1730 H   0  0  0  0  0  0  0  0  0  0  0  0
   47.2703   31.8699   41.7787 H   0  0  0  0  0  0  0  0  0  0  0  0
   45.7246   31.4822   42.5153 H   0  0  0  0  0  0  0  0  0  0  0  0
   46.2919   31.3613   39.7487 H   0  0  0  0  0  0  0  0  0  0  0  0
   44.6563   31.4260   40.3963 H   0  0  0  0  0  0  0  0  0  0  0  0
   45.8334   33.3729   38.8196 H   0  0  0  0  0  0  0  0  0  0  0  0
   44.4546   33.6782   39.8708 H   0  0  0  0  0  0  0  0  0  0  0  0
   46.2509   35.2281   40.6858 H   0  0  0  0  0  0  0  0  0  0  0  0
   46.1705   32.5996   46.7288 H   0  0  0  0  0  0  0  0  0  0  0  0
   45.3364   33.8808   47.6483 H   0  0  0  0  0  0  0  0  0  0  0  0
   49.5474   34.2911   39.4516 H   0  0  0  0  0  0  0  0  0  0  0  0
   46.9230   33.7564   37.9082 H   0  0  0  0  0  0  0  0  0  0  0  0
   47.7118   35.2819   37.9401 H   0  0  0  0  0  0  0  0  0  0  0  0
   49.8136   34.2753   36.9881 H   0  0  0  0  0  0  0  0  0  0  0  0
   48.5192   33.6069   36.0103 H   0  0  0  0  0  0  0  0  0  0  0  0
   48.7036   31.5267   37.0116 H   0  0  0  0  0  0  0  0  0  0  0  0
   50.3119   32.1072   37.5238 H   0  0  0  0  0  0  0  0  0  0  0  0
   47.8707   31.6644   39.2294 H   0  0  0  0  0  0  0  0  0  0  0  0
   51.3532   31.4058   38.8382 H   0  0  0  0  0  0  0  0  0  0  0  0
   51.4110   32.6741   40.0495 H   0  0  0  0  0  0  0  0  0  0  0  0
   51.9234   29.7656   40.3641 H   0  0  0  0  0  0  0  0  0  0  0  0
   52.2304   31.0393   41.5537 H   0  0  0  0  0  0  0  0  0  0  0  0
   50.2781   29.1546   41.9338 H   0  0  0  0  0  0  0  0  0  0  0  0
   50.0409   30.7557   42.5532 H   0  0  0  0  0  0  0  0  0  0  0  0
   48.1680   30.5394   40.9654 H   0  0  0  0  0  0  0  0  0  0  0  0
   49.0755   29.5773   39.8316 H   0  0  0  0  0  0  0  0  0  0  0  0
  1 12  1  0
  2  1  2  0
  3  2  1  0
  4  5  1  0
  4  3  2  0
  5  6  2  0
  6  1  1  0
  7  5  1  0
  8  7  1  0
  9  8  1  0
 10  9  1  0
 10 11  1  0
 11  7  1  0
 13 11  1  0
 13 14  2  0
 15 13  1  0
 16 15  1  0
 17 18  1  0
 17 16  1  0
 18 19  1  0
 19 15  1  0
 19 20  1  0
 20 21  1  0
 20 24  1  0
 21 22  1  0
 22 23  1  0
 24 23  1  0
  2 25  1  0
  3 26  1  0
  8 27  1  0
  8 28  1  0
  9 29  1  0
  9 30  1  0
 10 31  1  0
 10 32  1  0
 11 33  1  1
 12 34  1  0
 12 35  1  0
 15 36  1  1
 16 37  1  0
 16 38  1  0
 17 39  1  0
 17 40  1  0
 18 41  1  0
 18 42  1  0
 19 43  1  6
 21 44  1  0
 21 45  1  0
 22 46  1  0
 22 47  1  0
 23 48  1  0
 23 49  1  0
 24 50  1  0
 24 51  1  0
M  ISO  8  25  14  26  14  27  13  28  13  29  13  30  13  31  13  32  13
M  ISO  8  33  13  36  13  37  13  38  13  39  13  40  13  41  13  42  13
M  ISO  8  43  13  44  13  45  13  46  13  47  13  48  13  49  13  50  13
M  ISO  1  51  13
M  END
>  <minimizedAffinity>  (1) 
-5.24144268

>  <minimizedRMSD>  (1) 
3.20344567

$$$$
