
     RDKit          3D

 48 50  0  0  1  0  0  0  0  0999 V2000
   45.4440   34.1520   45.5180 C   0  0  0  0  0  0  0  0  0  0  0  0
   44.6560   35.3050   45.4890 C   0  0  0  0  0  0  0  0  0  0  0  0
   44.3420   35.8640   44.2470 C   0  0  0  0  0  0  0  0  0  0  0  0
   44.8260   35.2500   43.1190 N   0  0  0  0  0  0  0  0  0  0  0  0
   45.5820   34.1390   43.1930 C   0  0  0  0  0  0  0  0  0  0  0  0
   45.8720   33.6210   44.3530 N   0  0  0  0  0  0  0  0  0  0  0  0
   46.0210   33.5700   41.9750 N   0  0  0  0  0  0  0  0  0  0  0  0
   46.2870   32.1790   41.6930 C   0  0  0  0  0  0  0  0  0  0  0  0
   45.6850   31.9670   40.3230 C   0  0  0  0  0  0  0  0  0  0  0  0
   45.4450   33.3190   39.8170 C   0  0  0  0  0  0  0  0  0  0  0  0
   46.3110   34.1890   40.6710 C   0  0  2  0  0  0  0  0  0  0  0  0
   45.8200   33.5020   46.6870 N   0  0  0  0  0  0  0  0  0  0  0  0
   47.7080   34.1590   40.2930 C   0  0  0  0  0  0  0  0  0  0  0  0
   48.5080   34.5180   41.1370 O   0  0  0  0  0  0  0  0  0  0  0  0
   48.5260   33.8070   39.1610 C   0  0  2  0  0  0  0  0  0  0  0  0
   47.7980   34.1570   37.8970 C   0  0  0  0  0  0  0  0  0  0  0  0
   48.7780   33.5740   36.9310 C   0  0  0  0  0  0  0  0  0  0  0  0
   49.1120   32.2550   37.5490 C   0  0  0  0  0  0  0  0  0  0  0  0
   48.7720   32.3520   39.0540 C   0  0  1  0  0  0  0  0  0  0  0  0
   49.9700   31.7670   39.7040 C   0  0  0  0  0  0  0  0  0  0  0  0
   50.3640   30.5700   38.8110 C   0  0  0  0  0  0  0  0  0  0  0  0
   49.9040   31.2280   41.0670 C   0  0  0  0  0  0  0  0  0  0  0  0
   44.2915   35.7619   46.4209 H   0  0  0  0  0  0  0  0  0  0  0  0
   43.7239   36.7711   44.1756 H   0  0  0  0  0  0  0  0  0  0  0  0
   47.3691   31.9818   41.6803 H   0  0  0  0  0  0  0  0  0  0  0  0
   45.8658   31.5032   42.4518 H   0  0  0  0  0  0  0  0  0  0  0  0
   46.3852   31.4256   39.6698 H   0  0  0  0  0  0  0  0  0  0  0  0
   44.7661   31.3634   40.3579 H   0  0  0  0  0  0  0  0  0  0  0  0
   45.7361   33.3971   38.7591 H   0  0  0  0  0  0  0  0  0  0  0  0
   44.3838   33.6045   39.8643 H   0  0  0  0  0  0  0  0  0  0  0  0
   46.1114   35.2693   40.6145 H   0  0  0  0  0  0  0  0  0  0  0  0
   46.4033   32.6544   46.6402 H   0  0  0  0  0  0  0  0  0  0  0  0
   45.5154   33.8677   47.6004 H   0  0  0  0  0  0  0  0  0  0  0  0
   49.4741   34.3475   39.2989 H   0  0  0  0  0  0  0  0  0  0  0  0
   46.8122   33.6728   37.8351 H   0  0  0  0  0  0  0  0  0  0  0  0
   47.5532   35.2202   37.7570 H   0  0  0  0  0  0  0  0  0  0  0  0
   49.6727   34.2080   36.8438 H   0  0  0  0  0  0  0  0  0  0  0  0
   48.3808   33.4866   35.9089 H   0  0  0  0  0  0  0  0  0  0  0  0
   48.5168   31.4580   37.0794 H   0  0  0  0  0  0  0  0  0  0  0  0
   50.1761   32.0163   37.4052 H   0  0  0  0  0  0  0  0  0  0  0  0
   47.9188   31.8307   39.5126 H   0  0  0  0  0  0  0  0  0  0  0  0
   50.6538   32.6228   39.8040 H   0  0  0  0  0  0  0  0  0  0  0  0
   50.6450   29.7163   39.4452 H   0  0  0  0  0  0  0  0  0  0  0  0
   49.5107   30.2898   38.1759 H   0  0  0  0  0  0  0  0  0  0  0  0
   51.2169   30.8514   38.1759 H   0  0  0  0  0  0  0  0  0  0  0  0
   50.0046   32.0496   41.7915 H   0  0  0  0  0  0  0  0  0  0  0  0
   48.9375   30.7243   41.2157 H   0  0  0  0  0  0  0  0  0  0  0  0
   50.7204   30.5060   41.2157 H   0  0  0  0  0  0  0  0  0  0  0  0
  1 12  1  0
  2  1  2  0
  3  2  1  0
  4  5  1  0
  4  3  2  0
  5  6  2  0
  6  1  1  0
  7  5  1  0
  8  7  1  0
  9  8  1  0
 10  9  1  0
 10 11  1  0
 11  7  1  0
 13 11  1  0
 13 14  2  0
 15 13  1  0
 16 15  1  0
 17 18  1  0
 17 16  1  0
 18 19  1  0
 19 15  1  0
 19 20  1  0
 20 22  1  0
 21 20  1  0
  2 23  1  0
  3 24  1  0
  8 25  1  0
  8 26  1  0
  9 27  1  0
  9 28  1  0
 10 29  1  0
 10 30  1  0
 11 31  1  1
 12 32  1  0
 12 33  1  0
 15 34  1  1
 16 35  1  0
 16 36  1  0
 17 37  1  0
 17 38  1  0
 18 39  1  0
 18 40  1  0
 19 41  1  6
 20 42  1  0
 21 43  1  0
 21 44  1  0
 21 45  1  0
 22 46  1  0
 22 47  1  0
 22 48  1  0
M  ISO  8  23  14  24  14  25  13  26  13  27  13  28  13  29  13  30  13
M  ISO  8  31  13  34  13  35  13  36  13  37  13  38  13  39  13  40  13
M  ISO  8  41  13  42   8  43   8  44   8  45   8  46   8  47   8  48   8
M  END
>  <minimizedAffinity>  (1) 
-5.09635162

>  <minimizedRMSD>  (1) 
3.13596654

$$$$
