
     RDKit          3D

 49 47  0  0  1  0  0  0  0  0999 V2000
   45.2330   34.1520   45.5390 C   0  0  0  0  0  0  0  0  0  0  0  0
   44.6440   35.4220   45.5040 C   0  0  0  0  0  0  0  0  0  0  0  0
   44.4910   36.0380   44.2590 C   0  0  0  0  0  0  0  0  0  0  0  0
   44.9210   35.3700   43.1480 N   0  0  0  0  0  0  0  0  0  0  0  0
   45.4820   34.1470   43.2300 C   0  0  0  0  0  0  0  0  0  0  0  0
   45.6260   33.5720   44.3850 N   0  0  0  0  0  0  0  0  0  0  0  0
   45.8820   33.5330   42.0220 N   0  0  0  0  0  0  0  0  0  0  0  0
   45.9360   32.1260   41.7270 C   0  0  0  0  0  0  0  0  0  0  0  0
   45.4070   32.0140   40.3160 C   0  0  0  0  0  0  0  0  0  0  0  0
   45.3790   33.4180   39.8600 C   0  0  0  0  0  0  0  0  0  0  0  0
   46.3250   34.1270   40.7410 C   0  0  2  0  0  0  0  0  0  0  0  0
   45.4290   33.4380   46.7200 N   0  0  0  0  0  0  0  0  0  0  0  0
   47.7100   33.8820   40.4710 C   0  0  0  0  0  0  0  0  0  0  0  0
   48.5410   33.9690   41.3600 O   0  0  0  0  0  0  0  0  0  0  0  0
   48.5360   33.5030   39.3050 C   0  0  0  0  0  0  0  0  0  0  0  0
   48.1290   34.3700   38.0910 C   0  0  0  0  0  0  0  0  0  0  0  0
   48.9280   33.5810   37.0700 C   0  0  0  0  0  0  0  0  0  0  0  0
   48.7810   32.1410   37.4390 C   0  0  0  0  0  0  0  0  0  0  0  0
   48.3680   32.1010   38.9080 C   0  0  0  0  0  0  0  0  0  0  0  0
   49.4610   31.3410   39.6190 C   0  0  0  0  0  0  0  0  0  0  0  0
   50.5930   31.7830   39.7310 O   0  0  0  0  0  0  0  0  0  0  0  0
   44.3122   35.9191   46.4275 H   0  0  0  0  0  0  0  0  0  0  0  0
   44.0357   37.0359   44.1759 H   0  0  0  0  0  0  0  0  0  0  0  0
   46.9703   31.7561   41.7848 H   0  0  0  0  0  0  0  0  0  0  0  0
   45.3523   31.5265   42.4411 H   0  0  0  0  0  0  0  0  0  0  0  0
   46.0776   31.4079   39.6892 H   0  0  0  0  0  0  0  0  0  0  0  0
   44.4260   31.5197   40.2586 H   0  0  0  0  0  0  0  0  0  0  0  0
   45.7008   33.4897   38.8106 H   0  0  0  0  0  0  0  0  0  0  0  0
   44.3676   33.8476   39.9106 H   0  0  0  0  0  0  0  0  0  0  0  0
   46.2979   35.2235   40.6582 H   0  0  0  0  0  0  0  0  0  0  0  0
   45.8673   32.5064   46.6918 H   0  0  0  0  0  0  0  0  0  0  0  0
   45.1355   33.8420   47.6208 H   0  0  0  0  0  0  0  0  0  0  0  0
   48.0274   33.6129   39.4527 H   0  0  0  0  0  0  0  0  0  0  0  0
   48.5446   33.5748   40.4026 H   0  0  0  0  0  0  0  0  0  0  0  0
   49.4865   33.8860   38.9051 H   0  0  0  0  0  0  0  0  0  0  0  0
   47.7029   34.0997   38.9051 H   0  0  0  0  0  0  0  0  0  0  0  0
   48.4324   34.0704   39.1050 H   0  0  0  0  0  0  0  0  0  0  0  0
   48.3188   35.4448   37.9540 H   0  0  0  0  0  0  0  0  0  0  0  0
   47.0567   34.1667   37.9540 H   0  0  0  0  0  0  0  0  0  0  0  0
   49.9870   33.8764   37.1053 H   0  0  0  0  0  0  0  0  0  0  0  0
   48.5655   33.7694   36.0487 H   0  0  0  0  0  0  0  0  0  0  0  0
   48.7709   32.0424   38.5345 H   0  0  0  0  0  0  0  0  0  0  0  0
   47.8384   31.7513   37.0271 H   0  0  0  0  0  0  0  0  0  0  0  0
   49.6254   31.5689   37.0271 H   0  0  0  0  0  0  0  0  0  0  0  0
   48.2926   31.4718   39.8071 H   0  0  0  0  0  0  0  0  0  0  0  0
   47.4509   31.9967   38.3096 H   0  0  0  0  0  0  0  0  0  0  0  0
   49.2345   31.7830   38.3096 H   0  0  0  0  0  0  0  0  0  0  0  0
   48.8694   31.1100   40.5171 H   0  0  0  0  0  0  0  0  0  0  0  0
   49.0323   31.1736   38.6199 H   0  0  0  0  0  0  0  0  0  0  0  0
  1 12  1  0
  2  1  2  0
  3  2  1  0
  4  5  1  0
  4  3  2  0
  5  6  2  0
  6  1  1  0
  7  5  1  0
  8  7  1  0
  9  8  1  0
 10  9  1  0
 10 11  1  0
 11  7  1  0
 13 11  1  0
 13 14  2  0
 17 18  1  0
 17 16  1  0
 19 15  1  0
 20 21  2  0
  2 22  1  0
  3 23  1  0
  8 24  1  0
  8 25  1  0
  9 26  1  0
  9 27  1  0
 10 28  1  0
 10 29  1  0
 11 30  1  1
 12 31  1  0
 12 32  1  0
 13 33  1  0
 15 34  1  0
 15 35  1  0
 15 36  1  0
 16 37  1  0
 16 38  1  0
 16 39  1  0
 17 40  1  0
 17 41  1  0
 18 42  1  0
 18 43  1  0
 18 44  1  0
 19 45  1  0
 19 46  1  0
 19 47  1  0
 20 48  1  0
 20 49  1  0
M  ISO  8  22  14  23  14  24  13  25  13  26  13  27  13  28  13  29  13
M  ISO  8  30  13  33   6  34   8  35   8  36   8  37   8  38   8  39   8
M  ISO  8  40   8  41   8  42   8  43   8  44   8  45   8  46   8  47   8
M  ISO  2  48   6  49   6
M  END
>  <minimizedAffinity>  (1) 
-4.99509239

>  <minimizedRMSD>  (1) 
2.95728397

$$$$
