
     RDKit          3D

 40 42  0  0  1  0  0  0  0  0999 V2000
   45.1120   34.6130   45.2630 C   0  0  0  0  0  0  0  0  0  0  0  0
   44.6150   35.7410   44.6100 C   0  0  0  0  0  0  0  0  0  0  0  0
   44.9590   35.9370   43.2650 C   0  0  0  0  0  0  0  0  0  0  0  0
   45.7680   35.0070   42.6630 N   0  0  0  0  0  0  0  0  0  0  0  0
   46.2240   33.9330   43.3340 C   0  0  0  0  0  0  0  0  0  0  0  0
   45.9020   33.7550   44.5820 N   0  0  0  0  0  0  0  0  0  0  0  0
   47.0430   33.0220   42.6220 N   0  0  0  0  0  0  0  0  0  0  0  0
   47.1720   31.5990   42.8310 C   0  0  0  0  0  0  0  0  0  0  0  0
   47.1970   31.0280   41.4320 C   0  0  0  0  0  0  0  0  0  0  0  0
   47.4160   32.1900   40.5730 C   0  0  0  0  0  0  0  0  0  0  0  0
   47.9590   33.2400   41.4880 C   0  0  2  0  0  0  0  0  0  0  0  0
   44.8410   34.3090   46.5940 N   0  0  0  0  0  0  0  0  0  0  0  0
   49.3580   33.0460   41.8160 C   0  0  0  0  0  0  0  0  0  0  0  0
   49.7710   33.5370   42.8610 O   0  0  0  0  0  0  0  0  0  0  0  0
   50.5040   32.3920   41.2510 C   0  0  2  0  0  0  0  0  0  0  0  0
   50.2520   31.9690   39.8520 C   0  0  0  0  0  0  0  0  0  0  0  0
   51.5280   31.1930   39.6500 C   0  0  0  0  0  0  0  0  0  0  0  0
   51.6610   30.3940   40.9000 C   0  0  0  0  0  0  0  0  0  0  0  0
   50.8260   31.1250   41.9660 C   0  0  1  0  0  0  0  0  0  0  0  0
   51.6020   31.4250   43.0870 O   0  0  0  0  0  0  0  0  0  0  0  0
   43.9693   36.4588   45.1371 H   0  0  0  0  0  0  0  0  0  0  0  0
   44.5907   36.8114   42.7085 H   0  0  0  0  0  0  0  0  0  0  0  0
   48.1040   31.3648   43.3662 H   0  0  0  0  0  0  0  0  0  0  0  0
   46.3584   31.1844   43.4444 H   0  0  0  0  0  0  0  0  0  0  0  0
   48.0159   30.3018   41.3218 H   0  0  0  0  0  0  0  0  0  0  0  0
   46.2722   30.4877   41.1814 H   0  0  0  0  0  0  0  0  0  0  0  0
   48.1402   31.9548   39.7791 H   0  0  0  0  0  0  0  0  0  0  0  0
   46.4943   32.5140   40.0675 H   0  0  0  0  0  0  0  0  0  0  0  0
   47.9797   34.2648   41.0887 H   0  0  0  0  0  0  0  0  0  0  0  0
   45.2386   33.4594   47.0195 H   0  0  0  0  0  0  0  0  0  0  0  0
   44.2429   34.9336   47.1535 H   0  0  0  0  0  0  0  0  0  0  0  0
   51.3181   33.1279   41.3265 H   0  0  0  0  0  0  0  0  0  0  0  0
   49.3574   31.3355   39.7605 H   0  0  0  0  0  0  0  0  0  0  0  0
   50.0493   32.7721   39.1282 H   0  0  0  0  0  0  0  0  0  0  0  0
   51.4517   30.5357   38.7713 H   0  0  0  0  0  0  0  0  0  0  0  0
   52.3962   31.8431   39.4668 H   0  0  0  0  0  0  0  0  0  0  0  0
   51.2748   29.3758   40.7449 H   0  0  0  0  0  0  0  0  0  0  0  0
   52.7131   30.3022   41.2077 H   0  0  0  0  0  0  0  0  0  0  0  0
   49.9625   30.5475   42.3277 H   0  0  0  0  0  0  0  0  0  0  0  0
   51.0863   31.2256   43.9083 H   0  0  0  0  0  0  0  0  0  0  0  0
  1 12  1  0
  2  1  2  0
  3  2  1  0
  4  3  2  0
  4  5  1  0
  5  6  2  0
  6  1  1  0
  7  8  1  0
  7  5  1  0
  9  8  1  0
 10  9  1  0
 10 11  1  0
 11 13  1  0
 11  7  1  0
 13 14  2  0
 15 13  1  0
 15 19  1  0
 16 15  1  0
 17 16  1  0
 17 18  1  0
 18 19  1  0
 19 20  1  0
  2 21  1  0
  3 22  1  0
  8 23  1  0
  8 24  1  0
  9 25  1  0
  9 26  1  0
 10 27  1  0
 10 28  1  0
 11 29  1  6
 12 30  1  0
 12 31  1  0
 15 32  1  6
 16 33  1  0
 16 34  1  0
 17 35  1  0
 17 36  1  0
 18 37  1  0
 18 38  1  0
 19 39  1  1
 20 40  1  0
M  ISO  8  21  14  22  14  23  13  24  13  25  13  26  13  27  13  28  13
M  ISO  8  29  13  32  13  33  13  34  13  35  13  36  13  37  13  38  13
M  ISO  2  39  13  40   3
M  END
>  <minimizedAffinity>  (1) 
-4.82018614

>  <minimizedRMSD>  (1) 
0.371149212

$$$$
