
     RDKit          3D

 32 33  0  0  0  0  0  0  0  0999 V2000
   45.6770   33.5980   41.4600 C   0  0  0  0  0  0  0  0  0  0  0  0
   45.3720   34.3970   42.6820 C   0  0  0  0  0  0  0  0  0  0  0  0
   45.4340   33.6860   43.8760 C   0  0  0  0  0  0  0  0  0  0  0  0
   45.1570   34.3870   45.0690 C   0  0  0  0  0  0  0  0  0  0  0  0
   44.8480   35.7040   44.9880 N   0  0  0  0  0  0  0  0  0  0  0  0
   44.7960   36.3690   43.8000 C   0  0  0  0  0  0  0  0  0  0  0  0
   45.0570   35.7110   42.6750 N   0  0  0  0  0  0  0  0  0  0  0  0
   44.4770   33.4240   40.5880 C   0  0  0  0  0  0  0  0  0  0  0  0
   46.1630   32.1980   41.8350 C   0  0  0  0  0  0  0  0  0  0  0  0
   46.7670   34.2910   40.6970 C   0  0  0  0  0  0  0  0  0  0  0  0
   48.1000   34.1390   41.3060 C   0  0  0  0  0  0  0  0  0  0  0  0
   48.7420   35.0270   42.1470 C   0  0  0  0  0  0  0  0  0  0  0  0
   49.9960   34.7640   42.6520 C   0  0  0  0  0  0  0  0  0  0  0  0
   50.6690   33.5970   42.3410 C   0  0  0  0  0  0  0  0  0  0  0  0
   50.0970   32.6740   41.5170 C   0  0  0  0  0  0  0  0  0  0  0  0
   48.8280   32.9770   41.0260 C   0  0  0  0  0  0  0  0  0  0  0  0
   45.6897   32.6162   43.8897 H   0  0  0  0  0  0  0  0  0  0  0  0
   45.1911   33.8761   46.0425 H   0  0  0  0  0  0  0  0  0  0  0  0
   44.5408   37.4386   43.7722 H   0  0  0  0  0  0  0  0  0  0  0  0
   43.5832   33.2944   41.2159 H   0  0  0  0  0  0  0  0  0  0  0  0
   44.3531   34.3136   39.9529 H   0  0  0  0  0  0  0  0  0  0  0  0
   44.6109   32.5359   39.9529 H   0  0  0  0  0  0  0  0  0  0  0  0
   46.1961   32.1025   42.9303 H   0  0  0  0  0  0  0  0  0  0  0  0
   45.4728   31.4475   41.4222 H   0  0  0  0  0  0  0  0  0  0  0  0
   47.1698   32.0366   41.4222 H   0  0  0  0  0  0  0  0  0  0  0  0
   46.5281   35.3635   40.6456 H   0  0  0  0  0  0  0  0  0  0  0  0
   46.8114   33.8248   39.7016 H   0  0  0  0  0  0  0  0  0  0  0  0
   48.2396   35.9668   42.4199 H   0  0  0  0  0  0  0  0  0  0  0  0
   50.4727   35.4987   43.3175 H   0  0  0  0  0  0  0  0  0  0  0  0
   51.6693   33.4128   42.7599 H   0  0  0  0  0  0  0  0  0  0  0  0
   50.6106   31.7378   41.2530 H   0  0  0  0  0  0  0  0  0  0  0  0
   48.3578   32.2382   40.3603 H   0  0  0  0  0  0  0  0  0  0  0  0
  1  9  1  0
  1  2  1  0
  2  3  2  0
  3  4  1  0
  5  4  2  0
  6  5  1  0
  7  2  1  0
  7  6  2  0
  8  1  1  0
 10 11  1  0
 10  1  1  0
 11 12  2  0
 12 13  1  0
 14 13  2  0
 15 14  1  0
 16 11  1  0
 16 15  2  0
  3 17  1  0
  4 18  1  0
  6 19  1  0
  8 20  1  0
  8 21  1  0
  8 22  1  0
  9 23  1  0
  9 24  1  0
  9 25  1  0
 10 26  1  0
 10 27  1  0
 12 28  1  0
 13 29  1  0
 14 30  1  0
 15 31  1  0
 16 32  1  0
M  ISO  8  17  14  18  14  19  14  20   8  21   8  22   8  23   8  24   8
M  ISO  8  25   8  26   8  27   8  28  14  29  14  30  14  31  14  32  14
M  END
>  <minimizedAffinity>  (1) 
-4.6374898

>  <minimizedRMSD>  (1) 
3.11528468

$$$$
