
     RDKit          3D

 29 30  0  0  0  0  0  0  0  0999 V2000
   45.6770   33.5760   41.4480 C   0  0  0  0  0  0  0  0  0  0  0  0
   45.3720   34.3740   42.6700 C   0  0  0  0  0  0  0  0  0  0  0  0
   45.4800   33.6300   43.8550 C   0  0  0  0  0  0  0  0  0  0  0  0
   45.2160   34.2710   45.0790 C   0  0  0  0  0  0  0  0  0  0  0  0
   44.8680   35.5840   45.0360 N   0  0  0  0  0  0  0  0  0  0  0  0
   44.7720   36.2790   43.8730 C   0  0  0  0  0  0  0  0  0  0  0  0
   45.0210   35.6730   42.7170 N   0  0  0  0  0  0  0  0  0  0  0  0
   44.4620   33.4530   40.5660 C   0  0  0  0  0  0  0  0  0  0  0  0
   46.1340   32.1670   41.7640 C   0  0  0  0  0  0  0  0  0  0  0  0
   46.7600   34.3060   40.6980 C   0  0  0  0  0  0  0  0  0  0  0  0
   48.0370   34.3420   41.4310 C   0  0  0  0  0  0  0  0  0  0  0  0
   48.6590   35.5460   41.7230 C   0  0  0  0  0  0  0  0  0  0  0  0
   49.8200   35.1840   42.4100 C   0  0  0  0  0  0  0  0  0  0  0  0
   49.8400   33.8060   42.4970 C   0  0  0  0  0  0  0  0  0  0  0  0
   48.7710   33.3520   41.9060 O   0  0  0  0  0  0  0  0  0  0  0  0
   45.7651   32.5679   43.8273 H   0  0  0  0  0  0  0  0  0  0  0  0
   45.2884   33.7303   46.0342 H   0  0  0  0  0  0  0  0  0  0  0  0
   44.4886   37.3418   43.8881 H   0  0  0  0  0  0  0  0  0  0  0  0
   43.5621   33.3619   41.1921 H   0  0  0  0  0  0  0  0  0  0  0  0
   44.3779   34.3472   39.9309 H   0  0  0  0  0  0  0  0  0  0  0  0
   44.5588   32.5601   39.9309 H   0  0  0  0  0  0  0  0  0  0  0  0
   46.1779   32.0317   42.8548 H   0  0  0  0  0  0  0  0  0  0  0  0
   45.4237   31.4459   41.3334 H   0  0  0  0  0  0  0  0  0  0  0  0
   47.1323   32.0001   41.3334 H   0  0  0  0  0  0  0  0  0  0  0  0
   46.4282   35.3394   40.5190 H   0  0  0  0  0  0  0  0  0  0  0  0
   46.9337   33.7643   39.7565 H   0  0  0  0  0  0  0  0  0  0  0  0
   48.3151   36.5598   41.4702 H   0  0  0  0  0  0  0  0  0  0  0  0
   50.5802   35.8716   42.8092 H   0  0  0  0  0  0  0  0  0  0  0  0
   50.6201   33.1990   42.9797 H   0  0  0  0  0  0  0  0  0  0  0  0
  1  9  1  0
  1  2  1  0
  2  7  1  0
  2  3  2  0
  3  4  1  0
  5  4  2  0
  6  5  1  0
  7  6  2  0
  8  1  1  0
 10 11  1  0
 10  1  1  0
 11 12  2  0
 11 15  1  0
 12 13  1  0
 13 14  2  0
 15 14  1  0
  3 16  1  0
  4 17  1  0
  6 18  1  0
  8 19  1  0
  8 20  1  0
  8 21  1  0
  9 22  1  0
  9 23  1  0
  9 24  1  0
 10 25  1  0
 10 26  1  0
 12 27  1  0
 13 28  1  0
 14 29  1  0
M  ISO  8  16  14  17  14  18  14  19   8  20   8  21   8  22   8  23   8
M  ISO  6  24   8  25   8  26   8  27  14  28  14  29  14
M  END
>  <minimizedAffinity>  (1) 
-4.34468079

>  <minimizedRMSD>  (1) 
2.80550361

$$$$
