
     RDKit          3D

 23 23  0  0  0  0  0  0  0  0999 V2000
   48.4460   34.4950   41.7480 C   0  0  0  0  0  0  0  0  0  0  0  0
   47.2770   34.5790   42.6650 C   0  0  0  0  0  0  0  0  0  0  0  0
   47.2740   33.6400   43.6920 C   0  0  0  0  0  0  0  0  0  0  0  0
   46.2130   33.6520   44.6140 C   0  0  0  0  0  0  0  0  0  0  0  0
   45.2500   34.5890   44.4430 N   0  0  0  0  0  0  0  0  0  0  0  0
   45.2750   35.4930   43.4340 C   0  0  0  0  0  0  0  0  0  0  0  0
   46.2810   35.4770   42.5640 N   0  0  0  0  0  0  0  0  0  0  0  0
   48.0440   34.5990   40.3210 C   0  0  0  0  0  0  0  0  0  0  0  0
   49.1830   33.1610   41.9250 C   0  0  0  0  0  0  0  0  0  0  0  0
   49.4060   35.6030   42.1250 C   0  0  0  0  0  0  0  0  0  0  0  0
   50.2910   35.2060   43.1110 O   0  0  0  0  0  0  0  0  0  0  0  0
   48.0858   32.9030   43.7806 H   0  0  0  0  0  0  0  0  0  0  0  0
   46.1666   32.9290   45.4417 H   0  0  0  0  0  0  0  0  0  0  0  0
   44.4690   36.2350   43.3350 H   0  0  0  0  0  0  0  0  0  0  0  0
   46.9808   34.8741   40.2587 H   0  0  0  0  0  0  0  0  0  0  0  0
   48.6518   35.3695   39.8241 H   0  0  0  0  0  0  0  0  0  0  0  0
   48.2019   33.6304   39.8241 H   0  0  0  0  0  0  0  0  0  0  0  0
   49.3013   32.9469   42.9975 H   0  0  0  0  0  0  0  0  0  0  0  0
   48.6019   32.3555   41.4522 H   0  0  0  0  0  0  0  0  0  0  0  0
   50.1742   33.2242   41.4522 H   0  0  0  0  0  0  0  0  0  0  0  0
   49.9772   35.8976   41.2323 H   0  0  0  0  0  0  0  0  0  0  0  0
   48.8169   36.4460   42.5153 H   0  0  0  0  0  0  0  0  0  0  0  0
   49.8950   35.3836   44.0008 H   0  0  0  0  0  0  0  0  0  0  0  0
  1  9  1  0
  1 10  1  0
  1  2  1  0
  2  3  2  0
  3  4  1  0
  5  4  2  0
  6  5  1  0
  7  2  1  0
  7  6  2  0
  8  1  1  0
 10 11  1  0
  3 12  1  0
  4 13  1  0
  6 14  1  0
  8 15  1  0
  8 16  1  0
  8 17  1  0
  9 18  1  0
  9 19  1  0
  9 20  1  0
 10 21  1  0
 10 22  1  0
 11 23  1  0
M  ISO  8  12  14  13  14  14  14  15   8  16   8  17   8  18   8  19   8
M  ISO  4  20   8  21   8  22   8  23   3
M  END
>  <minimizedAffinity>  (1) 
-4.29254198

>  <minimizedRMSD>  (1) 
0.560916424

$$$$
