
     RDKit          3D

 28 29  0  0  0  0  0  0  0  0999 V2000
   45.7280   33.6190   41.4400 C   0  0  0  0  0  0  0  0  0  0  0  0
   45.4050   34.4040   42.6640 C   0  0  0  0  0  0  0  0  0  0  0  0
   45.4540   33.6910   43.8590 C   0  0  0  0  0  0  0  0  0  0  0  0
   45.1670   34.3650   45.0570 C   0  0  0  0  0  0  0  0  0  0  0  0
   44.8550   35.6830   44.9770 N   0  0  0  0  0  0  0  0  0  0  0  0
   44.8140   36.3540   43.8030 C   0  0  0  0  0  0  0  0  0  0  0  0
   45.0860   35.7200   42.6560 N   0  0  0  0  0  0  0  0  0  0  0  0
   44.5590   33.4730   40.5300 C   0  0  0  0  0  0  0  0  0  0  0  0
   46.1690   32.1980   41.8180 C   0  0  0  0  0  0  0  0  0  0  0  0
   46.8650   34.2830   40.7360 C   0  0  0  0  0  0  0  0  0  0  0  0
   48.1800   34.1380   41.3740 C   0  0  0  0  0  0  0  0  0  0  0  0
   49.0870   32.8960   41.1270 C   0  0  0  0  0  0  0  0  0  0  0  0
   50.5000   33.2280   42.1300 S   0  0  0  0  0  0  0  0  0  0  0  0
   49.7870   34.8800   42.7390 C   0  0  0  0  0  0  0  0  0  0  0  0
   48.7760   34.9620   42.2170 N   0  0  0  0  0  0  0  0  0  0  0  0
   45.7122   32.6218   43.8645 H   0  0  0  0  0  0  0  0  0  0  0  0
   45.1941   33.8434   46.0251 H   0  0  0  0  0  0  0  0  0  0  0  0
   44.5565   37.4234   43.7910 H   0  0  0  0  0  0  0  0  0  0  0  0
   43.6420   33.3585   41.1266 H   0  0  0  0  0  0  0  0  0  0  0  0
   44.4743   34.3675   39.8955 H   0  0  0  0  0  0  0  0  0  0  0  0
   44.6969   32.5851   39.8955 H   0  0  0  0  0  0  0  0  0  0  0  0
   46.1986   32.1025   42.9134 H   0  0  0  0  0  0  0  0  0  0  0  0
   45.4544   31.4704   41.4057 H   0  0  0  0  0  0  0  0  0  0  0  0
   47.1700   32.0029   41.4057 H   0  0  0  0  0  0  0  0  0  0  0  0
   46.6391   35.3574   40.6674 H   0  0  0  0  0  0  0  0  0  0  0  0
   46.9478   33.7818   39.7603 H   0  0  0  0  0  0  0  0  0  0  0  0
   48.8937   32.0246   40.4841 H   0  0  0  0  0  0  0  0  0  0  0  0
   50.2454   35.5958   43.4372 H   0  0  0  0  0  0  0  0  0  0  0  0
  1  9  1  0
  1  2  1  0
  2  3  2  0
  3  4  1  0
  5  4  2  0
  6  5  1  0
  7  2  1  0
  7  6  2  0
  8  1  1  0
 10 11  1  0
 10  1  1  0
 11 15  1  0
 12 11  2  0
 12 13  1  0
 13 14  1  0
 15 14  2  0
  3 16  1  0
  4 17  1  0
  6 18  1  0
  8 19  1  0
  8 20  1  0
  8 21  1  0
  9 22  1  0
  9 23  1  0
  9 24  1  0
 10 25  1  0
 10 26  1  0
 12 27  1  0
 14 28  1  0
M  ISO  8  16  14  17  14  18  14  19   8  20   8  21   8  22   8  23   8
M  ISO  5  24   8  25   8  26   8  27  14  28  14
M  END
>  <minimizedAffinity>  (1) 
-3.89793253

>  <minimizedRMSD>  (1) 
2.93991208

$$$$
