
     RDKit          3D

 43 45  0  0  0  0  0  0  0  0999 V2000
   46.1570   33.9780   41.8060 C   0  0  0  0  0  0  0  0  0  0  0  0
   45.6330   34.5120   43.0940 C   0  0  0  0  0  0  0  0  0  0  0  0
   45.8230   33.6770   44.1940 C   0  0  0  0  0  0  0  0  0  0  0  0
   45.3400   34.1420   45.4450 C   0  0  0  0  0  0  0  0  0  0  0  0
   44.7280   35.3600   45.4980 N   0  0  0  0  0  0  0  0  0  0  0  0
   44.5650   36.1380   44.4020 C   0  0  0  0  0  0  0  0  0  0  0  0
   45.0140   35.7150   43.2150 N   0  0  0  0  0  0  0  0  0  0  0  0
   45.1540   34.0770   40.7050 C   0  0  0  0  0  0  0  0  0  0  0  0
   46.5110   32.4870   41.9450 C   0  0  0  0  0  0  0  0  0  0  0  0
   47.3930   34.7120   41.4610 C   0  0  0  0  0  0  0  0  0  0  0  0
   48.6450   34.0370   41.6600 C   0  0  0  0  0  0  0  0  0  0  0  0
   49.7520   34.2040   42.5320 C   0  0  0  0  0  0  0  0  0  0  0  0
   50.8140   33.3860   42.4690 C   0  0  0  0  0  0  0  0  0  0  0  0
   50.8270   32.3310   41.5090 C   0  0  0  0  0  0  0  0  0  0  0  0
   49.1690   32.5900   40.6720 S   0  0  0  0  0  0  0  0  0  0  0  0
   51.6790   31.4030   41.2080 N   0  0  0  0  0  0  0  0  0  0  0  0
   52.3410   31.5470   39.9280 C   0  0  0  0  0  0  0  0  0  0  0  0
   53.2930   30.3910   39.6990 C   0  0  0  0  0  0  0  0  0  0  0  0
   52.7360   29.1200   40.0250 N   0  0  0  0  0  0  0  0  0  0  0  0
   51.9470   29.0470   41.2070 C   0  0  0  0  0  0  0  0  0  0  0  0
   51.9750   30.2770   42.0750 C   0  0  0  0  0  0  0  0  0  0  0  0
   46.3242   32.7026   44.0969 H   0  0  0  0  0  0  0  0  0  0  0  0
   45.4568   33.5326   46.3533 H   0  0  0  0  0  0  0  0  0  0  0  0
   44.0653   37.1142   44.4873 H   0  0  0  0  0  0  0  0  0  0  0  0
   44.1463   34.1765   41.1348 H   0  0  0  0  0  0  0  0  0  0  0  0
   45.3765   34.9576   40.0844 H   0  0  0  0  0  0  0  0  0  0  0  0
   45.2000   33.1699   40.0844 H   0  0  0  0  0  0  0  0  0  0  0  0
   46.5737   32.2229   43.0110 H   0  0  0  0  0  0  0  0  0  0  0  0
   45.7323   31.8787   41.4617 H   0  0  0  0  0  0  0  0  0  0  0  0
   47.4800   32.2936   41.4617 H   0  0  0  0  0  0  0  0  0  0  0  0
   47.4126   35.6279   42.0699 H   0  0  0  0  0  0  0  0  0  0  0  0
   47.3302   34.8692   40.3741 H   0  0  0  0  0  0  0  0  0  0  0  0
   49.7394   35.0177   43.2721 H   0  0  0  0  0  0  0  0  0  0  0  0
   51.6657   33.5276   43.1506 H   0  0  0  0  0  0  0  0  0  0  0  0
   51.5862   31.5602   39.1279 H   0  0  0  0  0  0  0  0  0  0  0  0
   52.9107   32.4880   39.9221 H   0  0  0  0  0  0  0  0  0  0  0  0
   53.5809   30.3826   38.6374 H   0  0  0  0  0  0  0  0  0  0  0  0
   54.1548   30.5460   40.3649 H   0  0  0  0  0  0  0  0  0  0  0  0
   52.1417   28.8290   39.2357 H   0  0  0  0  0  0  0  0  0  0  0  0
   50.9040   28.8649   40.9089 H   0  0  0  0  0  0  0  0  0  0  0  0
   52.3796   28.2369   41.8125 H   0  0  0  0  0  0  0  0  0  0  0  0
   52.9695   30.3987   42.5290 H   0  0  0  0  0  0  0  0  0  0  0  0
   51.2428   30.2025   42.8925 H   0  0  0  0  0  0  0  0  0  0  0  0
  1  9  1  0
  1  2  1  0
  2  7  1  0
  2  3  2  0
  3  4  1  0
  4  5  2  0
  6  5  1  0
  7  6  2  0
  8  1  1  0
 10 11  1  0
 10  1  1  0
 11 12  2  0
 13 12  1  0
 14 13  2  0
 15 14  1  0
 15 11  1  0
 16 14  1  0
 16 21  1  0
 17 16  1  0
 18 17  1  0
 18 19  1  0
 19 20  1  0
 20 21  1  0
  3 22  1  0
  4 23  1  0
  6 24  1  0
  8 25  1  0
  8 26  1  0
  8 27  1  0
  9 28  1  0
  9 29  1  0
  9 30  1  0
 10 31  1  0
 10 32  1  0
 12 33  1  0
 13 34  1  0
 17 35  1  0
 17 36  1  0
 18 37  1  0
 18 38  1  0
 19 39  1  0
 20 40  1  0
 20 41  1  0
 21 42  1  0
 21 43  1  0
M  ISO  8  22  14  23  14  24  14  25   8  26   8  27   8  28   8  29   8
M  ISO  8  30   8  31   8  32   8  33  14  34  14  35  13  36  13  37  13
M  ISO  6  38  13  39   5  40  13  41  13  42  13  43  13
M  END
>  <minimizedAffinity>  (1) 
-4.98885965

>  <minimizedRMSD>  (1) 
1.74724483

$$$$
