
     RDKit          3D

 32 33  0  0  0  0  0  0  0  0999 V2000
   45.9240   34.0010   41.8150 C   0  0  0  0  0  0  0  0  0  0  0  0
   45.4760   34.5030   43.1520 C   0  0  0  0  0  0  0  0  0  0  0  0
   45.7910   33.6340   44.2140 C   0  0  0  0  0  0  0  0  0  0  0  0
   45.3940   34.0510   45.5110 C   0  0  0  0  0  0  0  0  0  0  0  0
   44.7440   35.2420   45.6540 N   0  0  0  0  0  0  0  0  0  0  0  0
   44.4700   36.0390   44.5790 C   0  0  0  0  0  0  0  0  0  0  0  0
   44.8340   35.6660   43.3520 N   0  0  0  0  0  0  0  0  0  0  0  0
   44.8650   34.1610   40.7810 C   0  0  0  0  0  0  0  0  0  0  0  0
   46.2570   32.5080   41.8820 C   0  0  0  0  0  0  0  0  0  0  0  0
   47.1510   34.7310   41.4350 C   0  0  0  0  0  0  0  0  0  0  0  0
   48.4170   34.0650   41.6100 C   0  0  0  0  0  0  0  0  0  0  0  0
   49.4610   34.1630   42.5610 C   0  0  0  0  0  0  0  0  0  0  0  0
   50.5470   33.3980   42.4580 C   0  0  0  0  0  0  0  0  0  0  0  0
   50.6510   32.4740   41.3780 C   0  0  0  0  0  0  0  0  0  0  0  0
   49.0260   32.7800   40.4760 S   0  0  0  0  0  0  0  0  0  0  0  0
   51.6570   31.5700   41.0360 C   0  0  0  0  0  0  0  0  0  0  0  0
   51.6110   30.3240   41.2650 O   0  0  0  0  0  0  0  0  0  0  0  0
   52.7840   32.0770   40.4020 O   0  0  0  0  0  0  0  0  0  0  0  0
   46.3169   32.6824   44.0472 H   0  0  0  0  0  0  0  0  0  0  0  0
   45.6073   33.4230   46.3886 H   0  0  0  0  0  0  0  0  0  0  0  0
   43.9457   36.9946   44.7267 H   0  0  0  0  0  0  0  0  0  0  0  0
   43.8919   34.3080   41.2724 H   0  0  0  0  0  0  0  0  0  0  0  0
   45.0945   35.0347   40.1533 H   0  0  0  0  0  0  0  0  0  0  0  0
   44.8261   33.2585   40.1533 H   0  0  0  0  0  0  0  0  0  0  0  0
   46.3269   32.1948   42.9341 H   0  0  0  0  0  0  0  0  0  0  0  0
   45.4651   31.9328   41.3800 H   0  0  0  0  0  0  0  0  0  0  0  0
   47.2183   32.3238   41.3800 H   0  0  0  0  0  0  0  0  0  0  0  0
   47.1813   35.6534   42.0336 H   0  0  0  0  0  0  0  0  0  0  0  0
   47.0620   34.8697   40.3474 H   0  0  0  0  0  0  0  0  0  0  0  0
   49.3748   34.8775   43.3929 H   0  0  0  0  0  0  0  0  0  0  0  0
   51.3555   33.4788   43.1994 H   0  0  0  0  0  0  0  0  0  0  0  0
   52.8498   33.0458   40.2093 H   0  0  0  0  0  0  0  0  0  0  0  0
  1  9  1  0
  1  2  1  0
  2  7  1  0
  2  3  2  0
  3  4  1  0
  4  5  2  0
  6  5  1  0
  7  6  2  0
  8  1  1  0
 10 11  1  0
 10  1  1  0
 11 12  2  0
 13 12  1  0
 14 13  2  0
 15 14  1  0
 15 11  1  0
 16 17  2  0
 16 14  1  0
 18 16  1  0
  3 19  1  0
  4 20  1  0
  6 21  1  0
  8 22  1  0
  8 23  1  0
  8 24  1  0
  9 25  1  0
  9 26  1  0
  9 27  1  0
 10 28  1  0
 10 29  1  0
 12 30  1  0
 13 31  1  0
 18 32  1  0
M  ISO  8  19  14  20  14  21  14  22   8  23   8  24   8  25   8  26   8
M  ISO  6  27   8  28   8  29   8  30  14  31  14  32   3
M  END
>  <minimizedAffinity>  (1) 
-4.96178102

>  <minimizedRMSD>  (1) 
1.22651553

$$$$
