
     RDKit          3D

 43 45  0  0  1  0  0  0  0  0999 V2000
   45.4950   33.8770   41.3970 C   0  0  0  0  0  0  0  0  0  0  0  0
   45.2580   34.4980   42.7370 C   0  0  0  0  0  0  0  0  0  0  0  0
   45.4390   33.6300   43.8170 C   0  0  0  0  0  0  0  0  0  0  0  0
   45.2290   34.1620   45.1110 C   0  0  0  0  0  0  0  0  0  0  0  0
   44.8700   35.4640   45.2330 N   0  0  0  0  0  0  0  0  0  0  0  0
   44.7050   36.2750   44.1510 C   0  0  0  0  0  0  0  0  0  0  0  0
   44.9000   35.7840   42.9250 N   0  0  0  0  0  0  0  0  0  0  0  0
   44.3100   34.0070   40.4960 C   0  0  0  0  0  0  0  0  0  0  0  0
   45.7570   32.3760   41.5290 C   0  0  0  0  0  0  0  0  0  0  0  0
   46.6850   34.5170   40.7990 C   0  0  0  0  0  0  0  0  0  0  0  0
   47.9690   34.1900   41.3650 C   0  0  0  0  0  0  0  0  0  0  0  0
   48.8280   34.7930   42.3140 C   0  0  0  0  0  0  0  0  0  0  0  0
   49.9910   34.2290   42.6360 C   0  0  0  0  0  0  0  0  0  0  0  0
   50.3900   32.9980   42.0240 C   0  0  0  0  0  0  0  0  0  0  0  0
   48.9190   32.6810   40.9000 S   0  0  0  0  0  0  0  0  0  0  0  0
   51.4250   32.0680   42.0130 C   0  0  2  0  0  0  0  0  0  0  0  0
   51.8690   31.7330   40.6180 C   0  0  0  0  0  0  0  0  0  0  0  0
   52.9060   30.6850   40.5040 C   0  0  0  0  0  0  0  0  0  0  0  0
   53.0080   29.6890   41.6010 C   0  0  0  0  0  0  0  0  0  0  0  0
   52.2280   29.9470   42.8350 C   0  0  0  0  0  0  0  0  0  0  0  0
   50.9730   30.7410   42.6300 C   0  0  0  0  0  0  0  0  0  0  0  0
   45.7316   32.5802   43.6678 H   0  0  0  0  0  0  0  0  0  0  0  0
   45.3548   33.5304   46.0028 H   0  0  0  0  0  0  0  0  0  0  0  0
   44.4132   37.3269   44.2865 H   0  0  0  0  0  0  0  0  0  0  0  0
   43.3976   34.1071   41.1023 H   0  0  0  0  0  0  0  0  0  0  0  0
   44.4280   34.8976   39.8612 H   0  0  0  0  0  0  0  0  0  0  0  0
   44.2321   33.1120   39.8612 H   0  0  0  0  0  0  0  0  0  0  0  0
   45.8044   32.1043   42.5939 H   0  0  0  0  0  0  0  0  0  0  0  0
   44.9427   31.8176   41.0440 H   0  0  0  0  0  0  0  0  0  0  0  0
   46.7123   32.1265   41.0440 H   0  0  0  0  0  0  0  0  0  0  0  0
   46.5533   35.6055   40.8869 H   0  0  0  0  0  0  0  0  0  0  0  0
   46.7248   34.1305   39.7699 H   0  0  0  0  0  0  0  0  0  0  0  0
   48.5319   35.7387   42.7915 H   0  0  0  0  0  0  0  0  0  0  0  0
   50.6475   34.7112   43.3752 H   0  0  0  0  0  0  0  0  0  0  0  0
   52.2433   32.5316   42.5835 H   0  0  0  0  0  0  0  0  0  0  0  0
   50.9860   31.3960   40.0552 H   0  0  0  0  0  0  0  0  0  0  0  0
   52.3292   32.6510   40.2238 H   0  0  0  0  0  0  0  0  0  0  0  0
   53.5796   30.6444   39.6354 H   0  0  0  0  0  0  0  0  0  0  0  0
   53.6388   28.7933   41.5016 H   0  0  0  0  0  0  0  0  0  0  0  0
   51.9516   28.9772   43.2744 H   0  0  0  0  0  0  0  0  0  0  0  0
   52.8737   30.5511   43.4893 H   0  0  0  0  0  0  0  0  0  0  0  0
   50.4676   30.9163   43.5912 H   0  0  0  0  0  0  0  0  0  0  0  0
   50.2569   30.2130   41.9832 H   0  0  0  0  0  0  0  0  0  0  0  0
  1  9  1  0
  1  2  1  0
  2  7  1  0
  2  3  2  0
  3  4  1  0
  4  5  2  0
  6  5  1  0
  7  6  2  0
  8  1  1  0
 10 11  1  0
 10  1  1  0
 11 12  2  0
 12 13  1  0
 14 13  2  0
 15 11  1  0
 15 14  1  0
 16 14  1  0
 16 21  1  0
 17 16  1  0
 18 17  1  0
 18 19  2  0
 19 20  1  0
 21 20  1  0
  3 22  1  0
  4 23  1  0
  6 24  1  0
  8 25  1  0
  8 26  1  0
  8 27  1  0
  9 28  1  0
  9 29  1  0
  9 30  1  0
 10 31  1  0
 10 32  1  0
 12 33  1  0
 13 34  1  0
 16 35  1  1
 17 36  1  0
 17 37  1  0
 18 38  1  0
 19 39  1  0
 20 40  1  0
 20 41  1  0
 21 42  1  0
 21 43  1  0
M  ISO  8  22  14  23  14  24  14  25   8  26   8  27   8  28   8  29   8
M  ISO  8  30   8  31   8  32   8  33  14  34  14  35  13  36  13  37  13
M  ISO  6  38  13  39  13  40  13  41  13  42  13  43  13
M  END
>  <minimizedAffinity>  (1) 
-4.82640791

>  <minimizedRMSD>  (1) 
0.686640799

$$$$
