
     RDKit          3D

 39 41  0  0  0  0  0  0  0  0999 V2000
   46.9900   32.7060   41.6940 C   0  0  0  0  0  0  0  0  0  0  0  0
   45.5570   32.7430   41.6460 C   0  0  0  0  0  0  0  0  0  0  0  0
   44.5110   31.9960   42.2370 C   0  0  0  0  0  0  0  0  0  0  0  0
   43.2250   32.2680   41.9940 C   0  0  0  0  0  0  0  0  0  0  0  0
   42.8980   33.3380   41.1170 C   0  0  0  0  0  0  0  0  0  0  0  0
   44.6090   33.9630   40.6350 S   0  0  0  0  0  0  0  0  0  0  0  0
   41.7680   33.9520   40.5970 C   0  0  0  0  0  0  0  0  0  0  0  0
   41.0610   33.3650   39.5930 C   0  0  0  0  0  0  0  0  0  0  0  0
   39.9290   34.0370   39.1100 C   0  0  0  0  0  0  0  0  0  0  0  0
   39.5510   35.2680   39.6520 C   0  0  0  0  0  0  0  0  0  0  0  0
   40.2910   35.8550   40.6850 C   0  0  0  0  0  0  0  0  0  0  0  0
   41.4170   35.1640   41.1470 C   0  0  0  0  0  0  0  0  0  0  0  0
   47.6480   33.4340   42.8000 C   0  0  0  0  0  0  0  0  0  0  0  0
   47.2170   32.8130   44.0960 C   0  0  0  0  0  0  0  0  0  0  0  0
   46.4780   33.6650   44.9140 C   0  0  0  0  0  0  0  0  0  0  0  0
   46.0440   33.1330   46.1560 C   0  0  0  0  0  0  0  0  0  0  0  0
   46.3700   31.8440   46.4670 N   0  0  0  0  0  0  0  0  0  0  0  0
   47.0970   31.0530   45.6270 C   0  0  0  0  0  0  0  0  0  0  0  0
   47.5160   31.5350   44.4540 N   0  0  0  0  0  0  0  0  0  0  0  0
   49.1340   33.4130   42.6340 C   0  0  0  0  0  0  0  0  0  0  0  0
   47.2300   34.9010   42.7300 C   0  0  0  0  0  0  0  0  0  0  0  0
   47.3638   33.1298   40.7502 H   0  0  0  0  0  0  0  0  0  0  0  0
   47.2409   31.6482   41.8619 H   0  0  0  0  0  0  0  0  0  0  0  0
   44.7631   31.1679   42.9157 H   0  0  0  0  0  0  0  0  0  0  0  0
   42.4303   31.6718   42.4663 H   0  0  0  0  0  0  0  0  0  0  0  0
   41.3676   32.3952   39.1742 H   0  0  0  0  0  0  0  0  0  0  0  0
   39.3344   33.5918   38.2987 H   0  0  0  0  0  0  0  0  0  0  0  0
   38.6604   35.7825   39.2619 H   0  0  0  0  0  0  0  0  0  0  0  0
   39.9985   36.8232   41.1175 H   0  0  0  0  0  0  0  0  0  0  0  0
   42.0264   35.5929   41.9561 H   0  0  0  0  0  0  0  0  0  0  0  0
   46.2431   34.6965   44.6127 H   0  0  0  0  0  0  0  0  0  0  0  0
   45.4565   33.7470   46.8545 H   0  0  0  0  0  0  0  0  0  0  0  0
   47.3380   30.0192   45.9152 H   0  0  0  0  0  0  0  0  0  0  0  0
   49.6135   33.4062   43.6240 H   0  0  0  0  0  0  0  0  0  0  0  0
   49.4281   32.5106   42.0780 H   0  0  0  0  0  0  0  0  0  0  0  0
   49.4535   34.3067   42.0780 H   0  0  0  0  0  0  0  0  0  0  0  0
   47.1166   35.2990   43.7492 H   0  0  0  0  0  0  0  0  0  0  0  0
   47.9999   35.4765   42.1952 H   0  0  0  0  0  0  0  0  0  0  0  0
   46.2724   34.9843   42.1952 H   0  0  0  0  0  0  0  0  0  0  0  0
  1 13  1  0
  2  1  1  0
  2  3  2  0
  4  3  1  0
  5  4  2  0
  6  5  1  0
  6  2  1  0
  7  5  1  0
  7 12  1  0
  8  7  2  0
  9  8  1  0
  9 10  2  0
 10 11  1  0
 11 12  2  0
 13 14  1  0
 14 19  1  0
 14 15  2  0
 15 16  1  0
 16 17  2  0
 18 17  1  0
 19 18  2  0
 20 13  1  0
 21 13  1  0
  1 22  1  0
  1 23  1  0
  3 24  1  0
  4 25  1  0
  8 26  1  0
  9 27  1  0
 10 28  1  0
 11 29  1  0
 12 30  1  0
 15 31  1  0
 16 32  1  0
 18 33  1  0
 20 34  1  0
 20 35  1  0
 20 36  1  0
 21 37  1  0
 21 38  1  0
 21 39  1  0
M  ISO  8  22   8  23   8  24  14  25  14  26  14  27  14  28  14  29  14
M  ISO  8  30  14  31  14  32  14  33  14  34   8  35   8  36   8  37   8
M  ISO  2  38   8  39   8
M  END
>  <minimizedAffinity>  (1) 
-4.81700563

>  <minimizedRMSD>  (1) 
7.94427967

$$$$
