
     RDKit          3D

 37 39  0  0  0  0  0  0  0  0999 V2000
   45.6100   33.8880   41.4590 C   0  0  0  0  0  0  0  0  0  0  0  0
   45.3220   34.5090   42.7860 C   0  0  0  0  0  0  0  0  0  0  0  0
   45.4920   33.6510   43.8750 C   0  0  0  0  0  0  0  0  0  0  0  0
   45.2320   34.1870   45.1610 C   0  0  0  0  0  0  0  0  0  0  0  0
   44.8370   35.4840   45.2560 N   0  0  0  0  0  0  0  0  0  0  0  0
   44.6850   36.2840   44.1630 C   0  0  0  0  0  0  0  0  0  0  0  0
   44.9270   35.7910   42.9540 N   0  0  0  0  0  0  0  0  0  0  0  0
   44.4600   34.0200   40.5160 C   0  0  0  0  0  0  0  0  0  0  0  0
   45.8630   32.3820   41.6010 C   0  0  0  0  0  0  0  0  0  0  0  0
   46.8270   34.5150   40.9020 C   0  0  0  0  0  0  0  0  0  0  0  0
   48.0980   34.0030   41.3500 C   0  0  0  0  0  0  0  0  0  0  0  0
   49.0110   34.3240   42.3860 C   0  0  0  0  0  0  0  0  0  0  0  0
   50.1410   33.6410   42.5470 C   0  0  0  0  0  0  0  0  0  0  0  0
   50.4490   32.5650   41.6640 C   0  0  0  0  0  0  0  0  0  0  0  0
   48.9480   32.5890   40.5320 S   0  0  0  0  0  0  0  0  0  0  0  0
   51.4380   31.6450   41.4670 C   0  0  0  0  0  0  0  0  0  0  0  0
   51.6260   30.6020   42.3490 C   0  0  0  0  0  0  0  0  0  0  0  0
   52.6650   29.7010   42.0720 C   0  0  0  0  0  0  0  0  0  0  0  0
   53.4760   29.8230   40.9820 N   0  0  0  0  0  0  0  0  0  0  0  0
   53.2400   30.8630   40.1590 C   0  0  0  0  0  0  0  0  0  0  0  0
   52.2380   31.7620   40.3940 N   0  0  0  0  0  0  0  0  0  0  0  0
   45.8129   32.6074   43.7407 H   0  0  0  0  0  0  0  0  0  0  0  0
   45.3473   33.5670   46.0623 H   0  0  0  0  0  0  0  0  0  0  0  0
   44.3645   37.3296   44.2815 H   0  0  0  0  0  0  0  0  0  0  0  0
   43.5268   34.1271   41.0885 H   0  0  0  0  0  0  0  0  0  0  0  0
   44.6054   34.9074   39.8824 H   0  0  0  0  0  0  0  0  0  0  0  0
   44.4005   33.1228   39.8824 H   0  0  0  0  0  0  0  0  0  0  0  0
   45.9076   32.1167   42.6676 H   0  0  0  0  0  0  0  0  0  0  0  0
   45.0457   31.8258   41.1186 H   0  0  0  0  0  0  0  0  0  0  0  0
   46.8172   32.1234   41.1186 H   0  0  0  0  0  0  0  0  0  0  0  0
   46.7935   35.5848   41.1559 H   0  0  0  0  0  0  0  0  0  0  0  0
   46.7945   34.2887   39.8260 H   0  0  0  0  0  0  0  0  0  0  0  0
   48.7804   35.1540   43.0700 H   0  0  0  0  0  0  0  0  0  0  0  0
   50.8351   33.9054   43.3583 H   0  0  0  0  0  0  0  0  0  0  0  0
   50.9861   30.4811   43.2355 H   0  0  0  0  0  0  0  0  0  0  0  0
   52.8327   28.8613   42.7625 H   0  0  0  0  0  0  0  0  0  0  0  0
   53.8740   30.9927   39.2695 H   0  0  0  0  0  0  0  0  0  0  0  0
  1  9  1  0
  1  2  1  0
  2  7  1  0
  2  3  2  0
  3  4  1  0
  4  5  2  0
  6  5  1  0
  7  6  2  0
  8  1  1  0
 10 11  1  0
 10  1  1  0
 11 12  2  0
 12 13  1  0
 14 13  2  0
 15 11  1  0
 15 14  1  0
 16 14  1  0
 16 17  2  0
 18 17  1  0
 19 18  2  0
 20 21  2  0
 20 19  1  0
 21 16  1  0
  3 22  1  0
  4 23  1  0
  6 24  1  0
  8 25  1  0
  8 26  1  0
  8 27  1  0
  9 28  1  0
  9 29  1  0
  9 30  1  0
 10 31  1  0
 10 32  1  0
 12 33  1  0
 13 34  1  0
 17 35  1  0
 18 36  1  0
 20 37  1  0
M  ISO  8  22  14  23  14  24  14  25   8  26   8  27   8  28   8  29   8
M  ISO  8  30   8  31   8  32   8  33  14  34  14  35  14  36  14  37  14
M  END
>  <minimizedAffinity>  (1) 
-4.78345108

>  <minimizedRMSD>  (1) 
1.18122208

$$$$
