
     RDKit          3D

 36 38  0  0  0  0  0  0  0  0999 V2000
   45.5640   33.8920   41.4490 C   0  0  0  0  0  0  0  0  0  0  0  0
   45.2930   34.5010   42.7850 C   0  0  0  0  0  0  0  0  0  0  0  0
   45.4810   33.6400   43.8770 C   0  0  0  0  0  0  0  0  0  0  0  0
   45.2400   34.1690   45.1590 C   0  0  0  0  0  0  0  0  0  0  0  0
   44.8410   35.4690   45.2790 N   0  0  0  0  0  0  0  0  0  0  0  0
   44.6710   36.2650   44.1980 C   0  0  0  0  0  0  0  0  0  0  0  0
   44.8930   35.7880   42.9780 N   0  0  0  0  0  0  0  0  0  0  0  0
   44.4090   34.0440   40.5230 C   0  0  0  0  0  0  0  0  0  0  0  0
   45.8290   32.3870   41.5970 C   0  0  0  0  0  0  0  0  0  0  0  0
   46.7810   34.5200   40.8930 C   0  0  0  0  0  0  0  0  0  0  0  0
   48.0500   34.0230   41.3400 C   0  0  0  0  0  0  0  0  0  0  0  0
   48.9500   34.3510   42.3850 C   0  0  0  0  0  0  0  0  0  0  0  0
   50.1020   33.6840   42.5480 C   0  0  0  0  0  0  0  0  0  0  0  0
   50.4270   32.6220   41.6530 C   0  0  0  0  0  0  0  0  0  0  0  0
   48.9260   32.6300   40.5110 S   0  0  0  0  0  0  0  0  0  0  0  0
   51.4370   31.7280   41.4650 C   0  0  0  0  0  0  0  0  0  0  0  0
   52.2370   31.6060   40.3520 C   0  0  0  0  0  0  0  0  0  0  0  0
   53.1350   30.5790   40.5680 C   0  0  0  0  0  0  0  0  0  0  0  0
   52.8630   30.1030   41.7990 N   0  0  0  0  0  0  0  0  0  0  0  0
   51.8440   30.7930   42.3360 N   0  0  0  0  0  0  0  0  0  0  0  0
   45.8026   32.5974   43.7373 H   0  0  0  0  0  0  0  0  0  0  0  0
   45.3716   33.5424   46.0534 H   0  0  0  0  0  0  0  0  0  0  0  0
   44.3486   37.3084   44.3295 H   0  0  0  0  0  0  0  0  0  0  0  0
   43.4846   34.1657   41.1067 H   0  0  0  0  0  0  0  0  0  0  0  0
   44.5615   34.9298   39.8889 H   0  0  0  0  0  0  0  0  0  0  0  0
   44.3271   33.1489   39.8889 H   0  0  0  0  0  0  0  0  0  0  0  0
   45.8750   32.1260   42.6646 H   0  0  0  0  0  0  0  0  0  0  0  0
   45.0164   31.8226   41.1162 H   0  0  0  0  0  0  0  0  0  0  0  0
   46.7855   32.1341   41.1162 H   0  0  0  0  0  0  0  0  0  0  0  0
   46.7413   35.5908   41.1415 H   0  0  0  0  0  0  0  0  0  0  0  0
   46.7513   34.2826   39.8193 H   0  0  0  0  0  0  0  0  0  0  0  0
   48.6984   35.1690   43.0760 H   0  0  0  0  0  0  0  0  0  0  0  0
   50.7893   33.9532   43.3636 H   0  0  0  0  0  0  0  0  0  0  0  0
   52.1722   32.2225   39.4433 H   0  0  0  0  0  0  0  0  0  0  0  0
   53.9129   30.2226   39.8767 H   0  0  0  0  0  0  0  0  0  0  0  0
   53.3613   29.3274   42.2584 H   0  0  0  0  0  0  0  0  0  0  0  0
  1  9  1  0
  1  2  1  0
  2  7  1  0
  2  3  2  0
  3  4  1  0
  4  5  2  0
  6  5  1  0
  7  6  2  0
  8  1  1  0
 10 11  1  0
 10  1  1  0
 11 12  2  0
 12 13  1  0
 14 13  2  0
 15 11  1  0
 15 14  1  0
 16 14  1  0
 16 20  2  0
 17 18  2  0
 17 16  1  0
 18 19  1  0
 19 20  1  0
  3 21  1  0
  4 22  1  0
  6 23  1  0
  8 24  1  0
  8 25  1  0
  8 26  1  0
  9 27  1  0
  9 28  1  0
  9 29  1  0
 10 30  1  0
 10 31  1  0
 12 32  1  0
 13 33  1  0
 17 34  1  0
 18 35  1  0
 19 36  1  0
M  ISO  8  21  14  22  14  23  14  24   8  25   8  26   8  27   8  28   8
M  ISO  8  29   8  30   8  31   8  32  14  33  14  34  14  35  14  36   9
M  END
>  <minimizedAffinity>  (1) 
-4.70704222

>  <minimizedRMSD>  (1) 
1.06516314

$$$$
