
     RDKit          3D

 35 36  0  0  0  0  0  0  0  0999 V2000
   46.0540   33.9950   41.8610 C   0  0  0  0  0  0  0  0  0  0  0  0
   45.5650   34.4770   43.1830 C   0  0  0  0  0  0  0  0  0  0  0  0
   45.8500   33.6460   44.2640 C   0  0  0  0  0  0  0  0  0  0  0  0
   45.4020   34.0730   45.5380 C   0  0  0  0  0  0  0  0  0  0  0  0
   44.7310   35.2470   45.6390 N   0  0  0  0  0  0  0  0  0  0  0  0
   44.4760   36.0270   44.5610 C   0  0  0  0  0  0  0  0  0  0  0  0
   44.8930   35.6310   43.3640 N   0  0  0  0  0  0  0  0  0  0  0  0
   45.0180   34.1310   40.7980 C   0  0  0  0  0  0  0  0  0  0  0  0
   46.4130   32.4990   41.9360 C   0  0  0  0  0  0  0  0  0  0  0  0
   47.2820   34.7410   41.5100 C   0  0  0  0  0  0  0  0  0  0  0  0
   48.5430   34.0710   41.6530 C   0  0  0  0  0  0  0  0  0  0  0  0
   49.6140   34.1440   42.5730 C   0  0  0  0  0  0  0  0  0  0  0  0
   50.6900   33.3710   42.4370 C   0  0  0  0  0  0  0  0  0  0  0  0
   50.7740   32.4510   41.3500 C   0  0  0  0  0  0  0  0  0  0  0  0
   49.1170   32.7890   40.4930 S   0  0  0  0  0  0  0  0  0  0  0  0
   51.7660   31.5330   40.9680 C   0  0  0  0  0  0  0  0  0  0  0  0
   51.6920   31.3500   39.4600 C   0  0  0  0  0  0  0  0  0  0  0  0
   46.3981   32.7011   44.1341 H   0  0  0  0  0  0  0  0  0  0  0  0
   45.5954   33.4616   46.4318 H   0  0  0  0  0  0  0  0  0  0  0  0
   43.9309   36.9755   44.6757 H   0  0  0  0  0  0  0  0  0  0  0  0
   44.0298   34.2607   41.2635 H   0  0  0  0  0  0  0  0  0  0  0  0
   45.2467   35.0068   40.1730 H   0  0  0  0  0  0  0  0  0  0  0  0
   45.0129   33.2258   40.1730 H   0  0  0  0  0  0  0  0  0  0  0  0
   46.4867   32.1920   42.9897 H   0  0  0  0  0  0  0  0  0  0  0  0
   45.6310   31.9087   41.4359 H   0  0  0  0  0  0  0  0  0  0  0  0
   47.3777   32.3279   41.4359 H   0  0  0  0  0  0  0  0  0  0  0  0
   47.3137   35.6368   42.1476 H   0  0  0  0  0  0  0  0  0  0  0  0
   47.1909   34.9260   40.4295 H   0  0  0  0  0  0  0  0  0  0  0  0
   49.5577   34.8503   43.4144 H   0  0  0  0  0  0  0  0  0  0  0  0
   51.5137   33.4419   43.1626 H   0  0  0  0  0  0  0  0  0  0  0  0
   52.7574   31.9189   41.2477 H   0  0  0  0  0  0  0  0  0  0  0  0
   51.6066   30.5699   41.4749 H   0  0  0  0  0  0  0  0  0  0  0  0
   51.2887   30.3526   39.2310 H   0  0  0  0  0  0  0  0  0  0  0  0
   51.0343   32.1192   39.0291 H   0  0  0  0  0  0  0  0  0  0  0  0
   52.6996   31.4458   39.0291 H   0  0  0  0  0  0  0  0  0  0  0  0
  1  9  1  0
  1  2  1  0
  2  7  1  0
  2  3  2  0
  3  4  1  0
  4  5  2  0
  6  5  1  0
  7  6  2  0
  8  1  1  0
 10 11  1  0
 10  1  1  0
 11 12  2  0
 13 12  1  0
 14 13  2  0
 15 14  1  0
 15 11  1  0
 16 14  1  0
 17 16  1  0
  3 18  1  0
  4 19  1  0
  6 20  1  0
  8 21  1  0
  8 22  1  0
  8 23  1  0
  9 24  1  0
  9 25  1  0
  9 26  1  0
 10 27  1  0
 10 28  1  0
 12 29  1  0
 13 30  1  0
 16 31  1  0
 16 32  1  0
 17 33  1  0
 17 34  1  0
 17 35  1  0
M  ISO  8  18  14  19  14  20  14  21   8  22   8  23   8  24   8  25   8
M  ISO  8  26   8  27   8  28   8  29  14  30  14  31   8  32   8  33   8
M  ISO  2  34   8  35   8
M  END
>  <minimizedAffinity>  (1) 
-4.5792613

>  <minimizedRMSD>  (1) 
1.29093957

$$$$
