
     RDKit          3D

 36 37  0  0  0  0  0  0  0  0999 V2000
   45.9490   33.8600   41.5400 C   0  0  0  0  0  0  0  0  0  0  0  0
   45.5300   34.4910   42.8310 C   0  0  0  0  0  0  0  0  0  0  0  0
   45.6580   33.6720   43.9530 C   0  0  0  0  0  0  0  0  0  0  0  0
   45.2750   34.2210   45.1960 C   0  0  0  0  0  0  0  0  0  0  0  0
   44.8120   35.4970   45.2340 N   0  0  0  0  0  0  0  0  0  0  0  0
   44.7030   36.2640   44.1140 C   0  0  0  0  0  0  0  0  0  0  0  0
   45.0610   35.7580   42.9330 N   0  0  0  0  0  0  0  0  0  0  0  0
   44.8600   33.9100   40.5200 C   0  0  0  0  0  0  0  0  0  0  0  0
   46.2880   32.3850   41.7430 C   0  0  0  0  0  0  0  0  0  0  0  0
   47.1590   34.5560   41.0550 C   0  0  0  0  0  0  0  0  0  0  0  0
   48.4330   34.0290   41.4510 C   0  0  0  0  0  0  0  0  0  0  0  0
   49.4960   34.4680   42.2820 C   0  0  0  0  0  0  0  0  0  0  0  0
   50.5900   33.7300   42.4560 C   0  0  0  0  0  0  0  0  0  0  0  0
   50.6970   32.4670   41.7930 C   0  0  0  0  0  0  0  0  0  0  0  0
   49.0730   32.4160   40.8790 S   0  0  0  0  0  0  0  0  0  0  0  0
   51.5740   31.4840   41.7060 N   0  0  0  0  0  0  0  0  0  0  0  0
   52.4670   31.3920   40.6120 C   0  0  0  0  0  0  0  0  0  0  0  0
   52.0650   31.9130   39.4790 N   0  0  0  0  0  0  0  0  0  0  0  0
   53.7610   30.7740   40.6610 N   0  0  0  0  0  0  0  0  0  0  0  0
   52.6680   31.8830   38.6310 H   0  0  0  0  0  0  0  0  0  0  0  0
   46.0405   32.6438   43.8728 H   0  0  0  0  0  0  0  0  0  0  0  0
   45.3503   33.6254   46.1178 H   0  0  0  0  0  0  0  0  0  0  0  0
   44.3223   37.2937   44.1829 H   0  0  0  0  0  0  0  0  0  0  0  0
   43.8847   33.9548   41.0268 H   0  0  0  0  0  0  0  0  0  0  0  0
   44.9876   34.8032   39.8908 H   0  0  0  0  0  0  0  0  0  0  0  0
   44.9053   33.0088   39.8908 H   0  0  0  0  0  0  0  0  0  0  0  0
   46.3385   32.1652   42.8196 H   0  0  0  0  0  0  0  0  0  0  0  0
   45.5095   31.7625   41.2778 H   0  0  0  0  0  0  0  0  0  0  0  0
   47.2602   32.1648   41.2778 H   0  0  0  0  0  0  0  0  0  0  0  0
   47.1069   35.5947   41.4134 H   0  0  0  0  0  0  0  0  0  0  0  0
   47.1332   34.4316   39.9624 H   0  0  0  0  0  0  0  0  0  0  0  0
   49.4143   35.4386   42.7932 H   0  0  0  0  0  0  0  0  0  0  0  0
   51.4040   34.0879   43.1035 H   0  0  0  0  0  0  0  0  0  0  0  0
   51.6089   30.7707   42.4482 H   0  0  0  0  0  0  0  0  0  0  0  0
   54.3518   30.7486   39.8177 H   0  0  0  0  0  0  0  0  0  0  0  0
   54.0991   30.3558   41.5395 H   0  0  0  0  0  0  0  0  0  0  0  0
  1  9  1  0
  1  2  1  0
  2  7  1  0
  2  3  2  0
  3  4  1  0
  4  5  2  0
  6  5  1  0
  7  6  2  0
  8  1  1  0
 10 11  1  0
 10  1  1  0
 11 12  2  0
 12 13  1  0
 14 13  2  0
 15 11  1  0
 15 14  1  0
 16 14  1  0
 17 19  1  0
 17 16  1  0
 18 17  2  0
 20 18  1  0
  3 21  1  0
  4 22  1  0
  6 23  1  0
  8 24  1  0
  8 25  1  0
  8 26  1  0
  9 27  1  0
  9 28  1  0
  9 29  1  0
 10 30  1  0
 10 31  1  0
 12 32  1  0
 13 33  1  0
 16 34  1  0
 19 35  1  0
 19 36  1  0
M  ISO  8  21  14  22  14  23  14  24   8  25   8  26   8  27   8  28   8
M  ISO  5  29   8  30   8  31   8  32  14  33  14
M  END
>  <minimizedAffinity>  (1) 
-5.30471039

>  <minimizedRMSD>  (1) 
0.905480444

$$$$
