
     RDKit          3D

 39 40  0  0  0  0  0  0  0  0999 V2000
   46.2520   35.5560   42.8330 C   0  0  0  0  0  0  0  0  0  0  0  0
   47.1590   34.7220   42.0750 C   0  0  0  0  0  0  0  0  0  0  0  0
   48.4480   34.1860   42.2540 C   0  0  0  0  0  0  0  0  0  0  0  0
   49.0260   33.4340   41.3400 C   0  0  0  0  0  0  0  0  0  0  0  0
   48.3350   33.1550   40.1310 C   0  0  0  0  0  0  0  0  0  0  0  0
   46.7560   34.0830   40.4390 S   0  0  0  0  0  0  0  0  0  0  0  0
   48.5430   32.4770   39.0110 N   0  0  0  0  0  0  0  0  0  0  0  0
   49.1100   33.0960   37.8780 C   0  0  0  0  0  0  0  0  0  0  0  0
   48.9230   34.3760   37.7510 N   0  0  0  0  0  0  0  0  0  0  0  0
   49.8710   32.3890   36.8790 N   0  0  0  0  0  0  0  0  0  0  0  0
   49.3110   34.8960   36.9370 H   0  0  0  0  0  0  0  0  0  0  0  0
   50.3590   32.8670   41.5060 C   0  0  0  0  0  0  0  0  0  0  0  0
   51.0720   33.4110   42.3860 O   0  0  0  0  0  0  0  0  0  0  0  0
   50.8460   31.8010   40.7620 O   0  0  0  0  0  0  0  0  0  0  0  0
   45.1090   34.8870   43.4940 C   0  0  0  0  0  0  0  0  0  0  0  0
   45.6010   33.6590   44.1730 C   0  0  0  0  0  0  0  0  0  0  0  0
   45.2060   32.4750   43.5700 C   0  0  0  0  0  0  0  0  0  0  0  0
   45.6290   31.2590   44.1480 C   0  0  0  0  0  0  0  0  0  0  0  0
   46.4050   31.3190   45.2680 N   0  0  0  0  0  0  0  0  0  0  0  0
   46.7740   32.4980   45.8320 C   0  0  0  0  0  0  0  0  0  0  0  0
   46.3680   33.6410   45.2780 N   0  0  0  0  0  0  0  0  0  0  0  0
   44.4590   35.8340   44.4620 C   0  0  0  0  0  0  0  0  0  0  0  0
   44.0630   34.5860   42.4380 C   0  0  0  0  0  0  0  0  0  0  0  0
   45.8413   36.3090   42.1443 H   0  0  0  0  0  0  0  0  0  0  0  0
   46.8594   35.9588   43.6569 H   0  0  0  0  0  0  0  0  0  0  0  0
   48.9898   34.4019   43.1866 H   0  0  0  0  0  0  0  0  0  0  0  0
   48.2859   31.4805   38.9676 H   0  0  0  0  0  0  0  0  0  0  0  0
   50.2604   32.8978   36.0725 H   0  0  0  0  0  0  0  0  0  0  0  0
   50.0255   31.3749   36.9715 H   0  0  0  0  0  0  0  0  0  0  0  0
   51.7620   31.4621   40.9236 H   0  0  0  0  0  0  0  0  0  0  0  0
   44.5799   32.4830   42.6656 H   0  0  0  0  0  0  0  0  0  0  0  0
   45.3416   30.2924   43.7086 H   0  0  0  0  0  0  0  0  0  0  0  0
   47.4009   32.5100   46.7358 H   0  0  0  0  0  0  0  0  0  0  0  0
   44.6785   35.5141   45.4913 H   0  0  0  0  0  0  0  0  0  0  0  0
   44.8517   36.8489   44.3018 H   0  0  0  0  0  0  0  0  0  0  0  0
   43.3707   35.8324   44.3018 H   0  0  0  0  0  0  0  0  0  0  0  0
   43.1161   34.3135   42.9270 H   0  0  0  0  0  0  0  0  0  0  0  0
   43.9087   35.4762   41.8105 H   0  0  0  0  0  0  0  0  0  0  0  0
   44.4055   33.7500   41.8105 H   0  0  0  0  0  0  0  0  0  0  0  0
  1 15  1  0
  2  3  2  0
  2  1  1  0
  4 12  1  0
  4  3  1  0
  5  6  1  0
  5  4  2  0
  6  2  1  0
  7  5  1  0
  8  7  1  0
  9  8  2  0
 10  8  1  0
 11  9  1  0
 12 13  2  0
 14 12  1  0
 15 16  1  0
 15 22  1  0
 16 21  2  0
 17 18  2  0
 17 16  1  0
 18 19  1  0
 19 20  2  0
 21 20  1  0
 23 15  1  0
  1 24  1  0
  1 25  1  0
  3 26  1  0
  7 27  1  0
 10 28  1  0
 10 29  1  0
 14 30  1  0
 17 31  1  0
 18 32  1  0
 20 33  1  0
 22 34  1  0
 22 35  1  0
 22 36  1  0
 23 37  1  0
 23 38  1  0
 23 39  1  0
M  ISO  8  24   8  25   8  26  14  30   3  31  14  32  14  33  14  34   8
M  ISO  5  35   8  36   8  37   8  38   8  39   8
M  END
>  <minimizedAffinity>  (1) 
-5.12063694

>  <minimizedRMSD>  (1) 
3.38109684

$$$$
