
     RDKit          3D

 45 46  0  0  0  0  0  0  0  0999 V2000
   47.1400   35.2450   41.9970 C   0  0  0  0  0  0  0  0  0  0  0  0
   47.8380   34.1860   41.3040 C   0  0  0  0  0  0  0  0  0  0  0  0
   48.7960   33.2200   41.6540 C   0  0  0  0  0  0  0  0  0  0  0  0
   49.2630   32.3640   40.7620 C   0  0  0  0  0  0  0  0  0  0  0  0
   48.7800   32.4300   39.4290 C   0  0  0  0  0  0  0  0  0  0  0  0
   47.5870   33.8320   39.5440 S   0  0  0  0  0  0  0  0  0  0  0  0
   48.9900   31.7730   38.2920 N   0  0  0  0  0  0  0  0  0  0  0  0
   49.8410   32.2880   37.2860 C   0  0  0  0  0  0  0  0  0  0  0  0
   49.9460   33.6040   37.2290 N   0  0  0  0  0  0  0  0  0  0  0  0
   50.5700   31.4770   36.3560 N   0  0  0  0  0  0  0  0  0  0  0  0
   50.5860   34.0330   36.5330 H   0  0  0  0  0  0  0  0  0  0  0  0
   50.2830   31.3270   41.0620 C   0  0  0  0  0  0  0  0  0  0  0  0
   50.2150   31.0050   42.5310 C   0  0  0  0  0  0  0  0  0  0  0  0
   51.6910   31.8480   40.7760 C   0  0  0  0  0  0  0  0  0  0  0  0
   45.7990   34.9380   42.5440 C   0  0  0  0  0  0  0  0  0  0  0  0
   45.9290   33.8020   43.4910 C   0  0  0  0  0  0  0  0  0  0  0  0
   45.2800   32.6460   43.0890 C   0  0  0  0  0  0  0  0  0  0  0  0
   45.3510   31.5150   43.9320 C   0  0  0  0  0  0  0  0  0  0  0  0
   46.0570   31.6280   45.0940 N   0  0  0  0  0  0  0  0  0  0  0  0
   46.6820   32.7740   45.4580 C   0  0  0  0  0  0  0  0  0  0  0  0
   46.6040   33.8280   44.6540 N   0  0  0  0  0  0  0  0  0  0  0  0
   45.2430   36.1570   43.2200 C   0  0  0  0  0  0  0  0  0  0  0  0
   44.8780   34.6270   41.3850 C   0  0  0  0  0  0  0  0  0  0  0  0
   47.0241   36.0801   41.2905 H   0  0  0  0  0  0  0  0  0  0  0  0
   47.7603   35.4574   42.8803 H   0  0  0  0  0  0  0  0  0  0  0  0
   49.1642   33.1753   42.6896 H   0  0  0  0  0  0  0  0  0  0  0  0
   48.5221   30.8680   38.1402 H   0  0  0  0  0  0  0  0  0  0  0  0
   51.1725   31.9204   35.6480 H   0  0  0  0  0  0  0  0  0  0  0  0
   50.4914   30.4508   36.3956 H   0  0  0  0  0  0  0  0  0  0  0  0
   50.0808   30.4457   40.4355 H   0  0  0  0  0  0  0  0  0  0  0  0
   50.4075   31.9167   43.1155 H   0  0  0  0  0  0  0  0  0  0  0  0
   49.2151   30.6171   42.7754 H   0  0  0  0  0  0  0  0  0  0  0  0
   50.9726   30.2459   42.7754 H   0  0  0  0  0  0  0  0  0  0  0  0
   52.2108   32.0403   41.7262 H   0  0  0  0  0  0  0  0  0  0  0  0
   52.2495   31.0970   40.1980 H   0  0  0  0  0  0  0  0  0  0  0  0
   51.6261   32.7817   40.1980 H   0  0  0  0  0  0  0  0  0  0  0  0
   44.7250   32.6100   42.1400 H   0  0  0  0  0  0  0  0  0  0  0  0
   44.8528   30.5727   43.6602 H   0  0  0  0  0  0  0  0  0  0  0  0
   47.2436   32.8301   46.4021 H   0  0  0  0  0  0  0  0  0  0  0  0
   45.3010   36.0298   44.3111 H   0  0  0  0  0  0  0  0  0  0  0  0
   45.8274   37.0401   42.9222 H   0  0  0  0  0  0  0  0  0  0  0  0
   44.1931   36.2946   42.9222 H   0  0  0  0  0  0  0  0  0  0  0  0
   43.9019   34.2974   41.7705 H   0  0  0  0  0  0  0  0  0  0  0  0
   44.7438   35.5297   40.7708 H   0  0  0  0  0  0  0  0  0  0  0  0
   45.3185   33.8278   40.7708 H   0  0  0  0  0  0  0  0  0  0  0  0
  1 15  1  0
  2  3  2  0
  2  1  1  0
  4 12  1  0
  4  3  1  0
  5  6  1  0
  5  4  2  0
  6  2  1  0
  7  5  1  0
  8  7  1  0
  9  8  2  0
 10  8  1  0
 11  9  1  0
 12 13  1  0
 14 12  1  0
 15 22  1  0
 15 16  1  0
 16 21  1  0
 17 16  2  0
 17 18  1  0
 18 19  2  0
 19 20  1  0
 21 20  2  0
 23 15  1  0
  1 24  1  0
  1 25  1  0
  3 26  1  0
  7 27  1  0
 10 28  1  0
 10 29  1  0
 12 30  1  0
 13 31  1  0
 13 32  1  0
 13 33  1  0
 14 34  1  0
 14 35  1  0
 14 36  1  0
 17 37  1  0
 18 38  1  0
 20 39  1  0
 22 40  1  0
 22 41  1  0
 22 42  1  0
 23 43  1  0
 23 44  1  0
 23 45  1  0
M  ISO  8  24   8  25   8  26  14  30   8  31   8  32   8  33   8  34   8
M  ISO  8  35   8  36   8  37  14  38  14  39  14  40   8  41   8  42   8
M  ISO  3  43   8  44   8  45   8
M  END
>  <minimizedAffinity>  (1) 
-4.87210369

>  <minimizedRMSD>  (1) 
3.24237347

$$$$
