
     RDKit          3D

 42 43  0  0  0  0  0  0  0  0999 V2000
   45.4690   34.3550   40.7760 C   0  0  0  0  0  0  0  0  0  0  0  0
   46.7320   33.7030   40.5540 C   0  0  0  0  0  0  0  0  0  0  0  0
   47.9290   33.5280   41.2740 C   0  0  0  0  0  0  0  0  0  0  0  0
   48.9400   32.8520   40.7710 C   0  0  0  0  0  0  0  0  0  0  0  0
   48.8370   32.2830   39.4780 C   0  0  0  0  0  0  0  0  0  0  0  0
   47.1230   32.8110   39.0290 S   0  0  0  0  0  0  0  0  0  0  0  0
   49.5910   31.5640   38.6530 N   0  0  0  0  0  0  0  0  0  0  0  0
   50.3900   32.1860   37.6680 C   0  0  0  0  0  0  0  0  0  0  0  0
   49.9810   33.3440   37.2220 N   0  0  0  0  0  0  0  0  0  0  0  0
   51.6050   31.6140   37.1470 N   0  0  0  0  0  0  0  0  0  0  0  0
   50.5160   33.8450   36.4840 H   0  0  0  0  0  0  0  0  0  0  0  0
   50.2380   32.6170   41.4590 C   0  0  0  0  0  0  0  0  0  0  0  0
   50.5720   33.7190   42.4110 C   0  0  0  0  0  0  0  0  0  0  0  0
   44.4980   33.6810   41.6720 C   0  0  0  0  0  0  0  0  0  0  0  0
   44.6710   34.2050   43.0550 C   0  0  0  0  0  0  0  0  0  0  0  0
   45.2570   33.3130   43.9370 C   0  0  0  0  0  0  0  0  0  0  0  0
   45.4580   33.7350   45.2680 C   0  0  0  0  0  0  0  0  0  0  0  0
   45.0620   34.9990   45.6070 N   0  0  0  0  0  0  0  0  0  0  0  0
   44.4910   35.8390   44.7080 C   0  0  0  0  0  0  0  0  0  0  0  0
   44.3030   35.4380   43.4520 N   0  0  0  0  0  0  0  0  0  0  0  0
   43.1030   33.9020   41.1600 C   0  0  0  0  0  0  0  0  0  0  0  0
   44.7450   32.1880   41.5870 C   0  0  0  0  0  0  0  0  0  0  0  0
   44.9840   34.4759   39.7961 H   0  0  0  0  0  0  0  0  0  0  0  0
   45.7244   35.2914   41.2937 H   0  0  0  0  0  0  0  0  0  0  0  0
   48.0213   33.9658   42.2789 H   0  0  0  0  0  0  0  0  0  0  0  0
   49.5928   30.5371   38.7330 H   0  0  0  0  0  0  0  0  0  0  0  0
   52.1444   32.1174   36.4283 H   0  0  0  0  0  0  0  0  0  0  0  0
   51.9344   30.7016   37.4932 H   0  0  0  0  0  0  0  0  0  0  0  0
   50.1784   31.6709   42.0170 H   0  0  0  0  0  0  0  0  0  0  0  0
   51.0270   32.5772   40.6936 H   0  0  0  0  0  0  0  0  0  0  0  0
   50.4623   33.3570   43.4439 H   0  0  0  0  0  0  0  0  0  0  0  0
   51.6093   34.0451   42.2450 H   0  0  0  0  0  0  0  0  0  0  0  0
   49.8903   34.5662   42.2450 H   0  0  0  0  0  0  0  0  0  0  0  0
   45.5566   32.3064   43.6100 H   0  0  0  0  0  0  0  0  0  0  0  0
   45.9193   33.0674   46.0106 H   0  0  0  0  0  0  0  0  0  0  0  0
   44.1838   36.8494   45.0157 H   0  0  0  0  0  0  0  0  0  0  0  0
   42.4134   34.0112   42.0100 H   0  0  0  0  0  0  0  0  0  0  0  0
   43.0776   34.8154   40.5475 H   0  0  0  0  0  0  0  0  0  0  0  0
   42.7965   33.0412   40.5475 H   0  0  0  0  0  0  0  0  0  0  0  0
   44.8142   31.7694   42.6019 H   0  0  0  0  0  0  0  0  0  0  0  0
   43.9139   31.7089   41.0487 H   0  0  0  0  0  0  0  0  0  0  0  0
   45.6861   32.0021   41.0487 H   0  0  0  0  0  0  0  0  0  0  0  0
  1 14  1  0
  2  1  1  0
  2  3  2  0
  4  3  1  0
  4 12  1  0
  5  4  2  0
  6  5  1  0
  6  2  1  0
  7  5  1  0
  8  7  1  0
  9  8  2  0
 10  8  1  0
 11  9  1  0
 12 13  1  0
 14 15  1  0
 15 20  1  0
 15 16  2  0
 16 17  1  0
 17 18  2  0
 19 18  1  0
 20 19  2  0
 21 14  1  0
 22 14  1  0
  1 23  1  0
  1 24  1  0
  3 25  1  0
  7 26  1  0
 10 27  1  0
 10 28  1  0
 12 29  1  0
 12 30  1  0
 13 31  1  0
 13 32  1  0
 13 33  1  0
 16 34  1  0
 17 35  1  0
 19 36  1  0
 21 37  1  0
 21 38  1  0
 21 39  1  0
 22 40  1  0
 22 41  1  0
 22 42  1  0
M  ISO  8  23   8  24   8  25  14  29   8  30   8  31   8  32   8  33   8
M  ISO  8  34  14  35  14  36  14  37   8  38   8  39   8  40   8  41   8
M  ISO  1  42   8
M  END
>  <minimizedAffinity>  (1) 
-4.87014866

>  <minimizedRMSD>  (1) 
2.34143448

$$$$
