
     RDKit          3D

 38 39  0  0  0  0  0  0  0  0999 V2000
   44.7980   34.0500   40.4380 C   0  0  0  0  0  0  0  0  0  0  0  0
   46.1670   33.9410   40.8940 C   0  0  0  0  0  0  0  0  0  0  0  0
   47.1730   34.8380   41.3040 C   0  0  0  0  0  0  0  0  0  0  0  0
   48.3670   34.4100   41.6740 C   0  0  0  0  0  0  0  0  0  0  0  0
   48.6410   33.0200   41.6560 C   0  0  0  0  0  0  0  0  0  0  0  0
   47.0200   32.3630   41.0570 S   0  0  0  0  0  0  0  0  0  0  0  0
   49.6600   32.2120   41.9400 N   0  0  0  0  0  0  0  0  0  0  0  0
   50.7160   32.0060   41.0230 C   0  0  0  0  0  0  0  0  0  0  0  0
   50.4330   32.1680   39.7620 N   0  0  0  0  0  0  0  0  0  0  0  0
   52.0490   31.6360   41.4100 N   0  0  0  0  0  0  0  0  0  0  0  0
   51.1690   32.0600   39.0340 H   0  0  0  0  0  0  0  0  0  0  0  0
   49.4310   35.3100   42.1050 C   0  0  0  0  0  0  0  0  0  0  0  0
   49.3940   36.4670   41.6180 O   0  0  0  0  0  0  0  0  0  0  0  0
   43.7400   34.1030   41.4680 C   0  0  0  0  0  0  0  0  0  0  0  0
   42.4540   34.4600   40.8130 C   0  0  0  0  0  0  0  0  0  0  0  0
   41.7780   35.5070   41.4220 C   0  0  0  0  0  0  0  0  0  0  0  0
   40.5450   35.9150   40.8650 C   0  0  0  0  0  0  0  0  0  0  0  0
   40.0930   35.2490   39.7590 N   0  0  0  0  0  0  0  0  0  0  0  0
   40.7840   34.2260   39.1890 C   0  0  0  0  0  0  0  0  0  0  0  0
   41.9410   33.8540   39.7230 N   0  0  0  0  0  0  0  0  0  0  0  0
   43.6540   32.7760   42.1710 C   0  0  0  0  0  0  0  0  0  0  0  0
   44.1580   35.1090   42.5210 C   0  0  0  0  0  0  0  0  0  0  0  0
   44.7220   34.9697   39.8394 H   0  0  0  0  0  0  0  0  0  0  0  0
   44.6093   33.1156   39.8890 H   0  0  0  0  0  0  0  0  0  0  0  0
   46.9600   35.9171   41.3163 H   0  0  0  0  0  0  0  0  0  0  0  0
   49.6795   31.7261   42.8480 H   0  0  0  0  0  0  0  0  0  0  0  0
   52.7749   31.5006   40.6919 H   0  0  0  0  0  0  0  0  0  0  0  0
   52.2789   31.5061   42.4056 H   0  0  0  0  0  0  0  0  0  0  0  0
   50.2144   34.9958   42.8104 H   0  0  0  0  0  0  0  0  0  0  0  0
   42.1896   36.0050   42.3123 H   0  0  0  0  0  0  0  0  0  0  0  0
   39.9678   36.7409   41.3063 H   0  0  0  0  0  0  0  0  0  0  0  0
   40.3901   33.7142   38.2985 H   0  0  0  0  0  0  0  0  0  0  0  0
   43.6644   32.9362   43.2592 H   0  0  0  0  0  0  0  0  0  0  0  0
   42.7211   32.2688   41.8839 H   0  0  0  0  0  0  0  0  0  0  0  0
   44.5136   32.1526   41.8839 H   0  0  0  0  0  0  0  0  0  0  0  0
   43.9826   34.6869   43.5215 H   0  0  0  0  0  0  0  0  0  0  0  0
   45.2268   35.3406   42.4030 H   0  0  0  0  0  0  0  0  0  0  0  0
   43.5680   36.0299   42.4030 H   0  0  0  0  0  0  0  0  0  0  0  0
  1  2  1  0
  1 14  1  0
  2  6  1  0
  2  3  2  0
  3  4  1  0
  4 12  1  0
  5  4  2  0
  5  7  1  0
  6  5  1  0
  8 10  1  0
  8  7  1  0
  9  8  2  0
 11  9  1  0
 13 12  2  0
 14 21  1  0
 14 22  1  0
 15 16  2  0
 15 14  1  0
 17 16  1  0
 18 17  2  0
 19 20  2  0
 19 18  1  0
 20 15  1  0
  1 23  1  0
  1 24  1  0
  3 25  1  0
  7 26  1  0
 10 27  1  0
 10 28  1  0
 12 29  1  0
 16 30  1  0
 17 31  1  0
 19 32  1  0
 21 33  1  0
 21 34  1  0
 21 35  1  0
 22 36  1  0
 22 37  1  0
 22 38  1  0
M  ISO  8  23   8  24   8  25  14  29   6  30  14  31  14  32  14  33   8
M  ISO  5  34   8  35   8  36   8  37   8  38   8
M  END
>  <minimizedAffinity>  (1) 
-5.1246109

>  <minimizedRMSD>  (1) 
3.72396326

$$$$
