
     RDKit          3D

 28 30  0  0  0  0  0  0  0  0999 V2000
   46.1330   34.3480   41.5700 C   0  0  0  0  0  0  0  0  0  0  0  0
   47.2770   35.0350   41.9530 C   0  0  0  0  0  0  0  0  0  0  0  0
   48.3720   35.0900   41.0570 C   0  0  0  0  0  0  0  0  0  0  0  0
   48.2250   34.4500   39.8510 N   0  0  0  0  0  0  0  0  0  0  0  0
   47.0900   33.7980   39.5340 C   0  0  0  0  0  0  0  0  0  0  0  0
   46.0620   33.7570   40.3990 N   0  0  0  0  0  0  0  0  0  0  0  0
   46.9160   33.1080   38.2500 C   0  0  0  0  0  0  0  0  0  0  0  0
   46.0190   32.1620   37.8320 N   0  0  0  0  0  0  0  0  0  0  0  0
   46.2840   31.8650   36.5850 O   0  0  0  0  0  0  0  0  0  0  0  0
   47.3100   32.5600   36.1490 C   0  0  0  0  0  0  0  0  0  0  0  0
   47.7210   33.3490   37.1830 N   0  0  0  0  0  0  0  0  0  0  0  0
   47.8890   32.4910   34.8060 C   0  0  0  0  0  0  0  0  0  0  0  0
   47.3780   31.6960   33.7840 C   0  0  0  0  0  0  0  0  0  0  0  0
   48.1680   31.8890   32.6930 N   0  0  0  0  0  0  0  0  0  0  0  0
   49.1120   32.7700   33.0670 C   0  0  0  0  0  0  0  0  0  0  0  0
   48.9690   33.1610   34.3630 N   0  0  0  0  0  0  0  0  0  0  0  0
   45.0420   34.3160   42.5130 C   0  0  0  0  0  0  0  0  0  0  0  0
   43.8890   33.9180   42.1140 O   0  0  0  0  0  0  0  0  0  0  0  0
   45.2710   34.7230   43.8500 O   0  0  0  0  0  0  0  0  0  0  0  0
   44.5820   35.8310   44.3350 C   0  0  0  0  0  0  0  0  0  0  0  0
   43.2390   35.8210   43.9610 F   0  0  0  0  0  0  0  0  0  0  0  0
   44.6480   35.8670   45.7070 F   0  0  0  0  0  0  0  0  0  0  0  0
   45.1750   36.9520   43.7710 F   0  0  0  0  0  0  0  0  0  0  0  0
   47.3318   35.5278   42.9349 H   0  0  0  0  0  0  0  0  0  0  0  0
   49.2995   35.6219   41.3156 H   0  0  0  0  0  0  0  0  0  0  0  0
   46.5004   31.0358   33.8466 H   0  0  0  0  0  0  0  0  0  0  0  0
   49.9090   33.1334   32.4017 H   0  0  0  0  0  0  0  0  0  0  0  0
   49.5573   33.8233   34.8885 H   0  0  0  0  0  0  0  0  0  0  0  0
  1  2  2  0
  1 17  1  0
  3  2  1  0
  4  3  2  0
  5  4  1  0
  5  6  2  0
  6  1  1  0
  7  5  1  0
  8  7  2  0
  9  8  1  0
 10  9  1  0
 10 11  2  0
 11  7  1  0
 12 10  1  0
 13 12  2  0
 14 15  2  0
 14 13  1  0
 15 16  1  0
 16 12  1  0
 17 19  1  0
 18 17  2  0
 19 20  1  0
 20 22  1  0
 21 20  1  0
 23 20  1  0
  2 24  1  0
  3 25  1  0
 13 26  1  0
 15 27  1  0
 16 28  1  0
M  ISO  5  24  14  25  14  26  14  27  14  28   9
M  END
>  <minimizedAffinity>  (1) 
-5.43559313

>  <minimizedRMSD>  (1) 
2.15600252

$$$$
