
     RDKit          3D

 26 28  0  0  0  0  0  0  0  0999 V2000
   46.0900   34.3200   41.5630 C   0  0  0  0  0  0  0  0  0  0  0  0
   47.2540   35.0070   41.8850 C   0  0  0  0  0  0  0  0  0  0  0  0
   48.3180   35.0190   40.9540 C   0  0  0  0  0  0  0  0  0  0  0  0
   48.1260   34.3380   39.7740 N   0  0  0  0  0  0  0  0  0  0  0  0
   46.9670   33.6860   39.5150 C   0  0  0  0  0  0  0  0  0  0  0  0
   45.9670   33.6830   40.4060 N   0  0  0  0  0  0  0  0  0  0  0  0
   46.7600   32.9650   38.2640 C   0  0  0  0  0  0  0  0  0  0  0  0
   45.8930   31.9930   37.8850 N   0  0  0  0  0  0  0  0  0  0  0  0
   46.1070   31.6720   36.6500 O   0  0  0  0  0  0  0  0  0  0  0  0
   47.1040   32.3960   36.1550 C   0  0  0  0  0  0  0  0  0  0  0  0
   47.5230   33.2120   37.1580 N   0  0  0  0  0  0  0  0  0  0  0  0
   47.6850   32.3730   34.8140 C   0  0  0  0  0  0  0  0  0  0  0  0
   47.2160   31.9320   33.6320 N   0  0  0  0  0  0  0  0  0  0  0  0
   48.1100   32.1290   32.7060 O   0  0  0  0  0  0  0  0  0  0  0  0
   49.1880   32.6970   33.2270 C   0  0  0  0  0  0  0  0  0  0  0  0
   48.9310   32.8530   34.5410 N   0  0  0  0  0  0  0  0  0  0  0  0
   45.0270   34.3310   42.5370 C   0  0  0  0  0  0  0  0  0  0  0  0
   43.8580   33.9500   42.1740 O   0  0  0  0  0  0  0  0  0  0  0  0
   45.3100   34.7600   43.8570 O   0  0  0  0  0  0  0  0  0  0  0  0
   44.6000   35.8620   44.3530 C   0  0  0  0  0  0  0  0  0  0  0  0
   43.2570   35.8240   43.9650 F   0  0  0  0  0  0  0  0  0  0  0  0
   44.6500   35.8580   45.7270 F   0  0  0  0  0  0  0  0  0  0  0  0
   45.1760   36.9880   43.8170 F   0  0  0  0  0  0  0  0  0  0  0  0
   47.3461   35.5322   42.8471 H   0  0  0  0  0  0  0  0  0  0  0  0
   49.2584   35.5497   41.1639 H   0  0  0  0  0  0  0  0  0  0  0  0
   50.1070   32.9834   32.6946 H   0  0  0  0  0  0  0  0  0  0  0  0
  1  2  2  0
  1 17  1  0
  3  2  1  0
  4  3  2  0
  5  4  1  0
  5  6  2  0
  6  1  1  0
  7  5  1  0
  8  7  2  0
  9  8  1  0
 10  9  1  0
 10 11  2  0
 11  7  1  0
 12 10  1  0
 13 12  2  0
 14 15  1  0
 14 13  1  0
 15 16  2  0
 16 12  1  0
 17 19  1  0
 18 17  2  0
 19 20  1  0
 20 22  1  0
 21 20  1  0
 23 20  1  0
  2 24  1  0
  3 25  1  0
 15 26  1  0
M  ISO  3  24  14  25  14  26  14
M  END
>  <minimizedAffinity>  (1) 
-5.21324253

>  <minimizedRMSD>  (1) 
2.08451056

$$$$
