
     RDKit          3D

 24 25  0  0  0  0  0  0  0  0999 V2000
   46.5290   34.4190   41.7350 C   0  0  0  0  0  0  0  0  0  0  0  0
   47.6300   35.1750   42.1110 C   0  0  0  0  0  0  0  0  0  0  0  0
   48.6610   35.3930   41.1690 C   0  0  0  0  0  0  0  0  0  0  0  0
   48.5020   34.8320   39.9270 N   0  0  0  0  0  0  0  0  0  0  0  0
   47.4060   34.1020   39.6150 C   0  0  0  0  0  0  0  0  0  0  0  0
   46.4450   33.9110   40.5240 N   0  0  0  0  0  0  0  0  0  0  0  0
   47.2210   33.4980   38.2950 C   0  0  0  0  0  0  0  0  0  0  0  0
   46.1100   33.1480   37.5900 N   0  0  0  0  0  0  0  0  0  0  0  0
   46.4690   32.6400   36.4490 O   0  0  0  0  0  0  0  0  0  0  0  0
   47.7860   32.6300   36.3450 C   0  0  0  0  0  0  0  0  0  0  0  0
   48.2670   33.1640   37.4960 N   0  0  0  0  0  0  0  0  0  0  0  0
   48.6670   32.1560   35.2460 C   0  0  0  0  0  0  0  0  0  0  0  0
   49.9010   31.7210   35.7520 F   0  0  0  0  0  0  0  0  0  0  0  0
   48.9420   33.1540   34.3470 F   0  0  0  0  0  0  0  0  0  0  0  0
   48.1120   31.0390   34.6150 F   0  0  0  0  0  0  0  0  0  0  0  0
   45.5020   34.2210   42.7250 C   0  0  0  0  0  0  0  0  0  0  0  0
   44.5190   33.4410   42.4540 O   0  0  0  0  0  0  0  0  0  0  0  0
   45.5830   34.8750   43.9610 O   0  0  0  0  0  0  0  0  0  0  0  0
   44.7180   35.9350   44.2210 C   0  0  0  0  0  0  0  0  0  0  0  0
   43.4440   35.7010   43.6950 F   0  0  0  0  0  0  0  0  0  0  0  0
   44.5970   36.1170   45.5800 F   0  0  0  0  0  0  0  0  0  0  0  0
   45.2520   37.0520   43.6060 F   0  0  0  0  0  0  0  0  0  0  0  0
   47.6993   35.5973   43.1244 H   0  0  0  0  0  0  0  0  0  0  0  0
   49.5522   35.9867   41.4207 H   0  0  0  0  0  0  0  0  0  0  0  0
  1  2  2  0
  1 16  1  0
  3  2  1  0
  4  3  2  0
  5  4  1  0
  5  6  2  0
  6  1  1  0
  7  5  1  0
  8  7  2  0
  9  8  1  0
 10  9  1  0
 10 11  2  0
 11  7  1  0
 12 13  1  0
 12 10  1  0
 14 12  1  0
 15 12  1  0
 16 18  1  0
 17 16  2  0
 18 19  1  0
 19 21  1  0
 20 19  1  0
 22 19  1  0
  2 23  1  0
  3 24  1  0
M  ISO  2  23  14  24  14
M  END
>  <minimizedAffinity>  (1) 
-5.00660276

>  <minimizedRMSD>  (1) 
2.36759329

$$$$
