
     RDKit          3D

 23 24  0  0  0  0  0  0  0  0999 V2000
   45.9340   34.3160   40.9530 C   0  0  0  0  0  0  0  0  0  0  0  0
   47.1760   34.7670   41.3810 C   0  0  0  0  0  0  0  0  0  0  0  0
   48.3170   34.4600   40.6000 C   0  0  0  0  0  0  0  0  0  0  0  0
   48.1140   33.7280   39.4570 N   0  0  0  0  0  0  0  0  0  0  0  0
   46.8740   33.3140   39.0900 C   0  0  0  0  0  0  0  0  0  0  0  0
   45.8100   33.6140   39.8410 N   0  0  0  0  0  0  0  0  0  0  0  0
   46.6540   32.5340   37.8750 C   0  0  0  0  0  0  0  0  0  0  0  0
   46.9680   31.2610   37.5210 N   0  0  0  0  0  0  0  0  0  0  0  0
   46.5560   31.0260   36.3170 O   0  0  0  0  0  0  0  0  0  0  0  0
   45.9600   32.1020   35.8190 C   0  0  0  0  0  0  0  0  0  0  0  0
   46.0130   33.0620   36.7890 N   0  0  0  0  0  0  0  0  0  0  0  0
   45.3550   32.2560   34.4900 C   0  0  0  0  0  0  0  0  0  0  0  0
   44.8290   31.2550   33.9110 O   0  0  0  0  0  0  0  0  0  0  0  0
   44.7990   34.6480   41.7780 C   0  0  0  0  0  0  0  0  0  0  0  0
   43.7610   35.1610   41.2230 O   0  0  0  0  0  0  0  0  0  0  0  0
   44.8620   34.4020   43.1710 O   0  0  0  0  0  0  0  0  0  0  0  0
   44.6930   35.4820   44.0360 C   0  0  0  0  0  0  0  0  0  0  0  0
   43.3520   35.8570   44.1500 F   0  0  0  0  0  0  0  0  0  0  0  0
   45.1470   35.1310   45.2980 F   0  0  0  0  0  0  0  0  0  0  0  0
   45.4050   36.5380   43.5200 F   0  0  0  0  0  0  0  0  0  0  0  0
   47.2716   35.3511   42.3082 H   0  0  0  0  0  0  0  0  0  0  0  0
   49.3223   34.7938   40.8967 H   0  0  0  0  0  0  0  0  0  0  0  0
   45.3572   33.2386   33.9955 H   0  0  0  0  0  0  0  0  0  0  0  0
  1  2  2  0
  1 14  1  0
  3  2  1  0
  4  3  2  0
  5  4  1  0
  5  6  2  0
  6  1  1  0
  7  5  1  0
  8  7  2  0
  9  8  1  0
 10  9  1  0
 10 11  2  0
 11  7  1  0
 12 10  1  0
 13 12  2  0
 14 16  1  0
 15 14  2  0
 16 17  1  0
 17 18  1  0
 17 19  1  0
 20 17  1  0
  2 21  1  0
  3 22  1  0
 12 23  1  0
M  ISO  3  21  14  22  14  23   6
M  END
>  <minimizedAffinity>  (1) 
-4.30185366

>  <minimizedRMSD>  (1) 
0.6931355

$$$$
