
     RDKit          3D

 22 23  0  0  0  0  0  0  0  0999 V2000
   45.9120   34.4520   41.1190 C   0  0  0  0  0  0  0  0  0  0  0  0
   47.1490   34.8680   41.5970 C   0  0  0  0  0  0  0  0  0  0  0  0
   48.3090   34.4910   40.8880 C   0  0  0  0  0  0  0  0  0  0  0  0
   48.1380   33.7280   39.7560 N   0  0  0  0  0  0  0  0  0  0  0  0
   46.9060   33.3530   39.3370 C   0  0  0  0  0  0  0  0  0  0  0  0
   45.8200   33.7220   40.0270 N   0  0  0  0  0  0  0  0  0  0  0  0
   46.7170   32.5440   38.1370 C   0  0  0  0  0  0  0  0  0  0  0  0
   47.0470   31.2660   37.8240 N   0  0  0  0  0  0  0  0  0  0  0  0
   46.6670   30.9930   36.6200 O   0  0  0  0  0  0  0  0  0  0  0  0
   46.0760   32.0530   36.0820 C   0  0  0  0  0  0  0  0  0  0  0  0
   46.1010   33.0300   37.0240 N   0  0  0  0  0  0  0  0  0  0  0  0
   45.4030   32.0970   34.4280 S   0  0  0  0  0  0  0  0  0  0  0  0
   44.7490   34.8530   41.8670 C   0  0  0  0  0  0  0  0  0  0  0  0
   43.8750   35.6040   41.3010 O   0  0  0  0  0  0  0  0  0  0  0  0
   44.5990   34.4090   43.2020 O   0  0  0  0  0  0  0  0  0  0  0  0
   45.0550   35.2430   44.2280 C   0  0  0  0  0  0  0  0  0  0  0  0
   44.1070   35.3570   45.2490 F   0  0  0  0  0  0  0  0  0  0  0  0
   46.2040   34.7120   44.7760 F   0  0  0  0  0  0  0  0  0  0  0  0
   45.2790   36.4820   43.6770 F   0  0  0  0  0  0  0  0  0  0  0  0
   47.2221   35.4785   42.5091 H   0  0  0  0  0  0  0  0  0  0  0  0
   49.3104   34.7950   41.2268 H   0  0  0  0  0  0  0  0  0  0  0  0
   44.0375   32.1863   34.4928 H   0  0  0  0  0  0  0  0  0  0  0  0
  1  2  2  0
  1 13  1  0
  3  2  1  0
  4  3  2  0
  5  4  1  0
  5  6  2  0
  6  1  1  0
  7  5  1  0
  8  7  2  0
  9  8  1  0
 10  9  1  0
 10 11  2  0
 11  7  1  0
 12 10  1  0
 13 15  1  0
 14 13  2  0
 15 16  1  0
 16 18  1  0
 16 17  1  0
 19 16  1  0
  2 20  1  0
  3 21  1  0
 12 22  1  0
M  ISO  3  20  14  21  14  22  11
M  END
>  <minimizedAffinity>  (1) 
-4.25385475

>  <minimizedRMSD>  (1) 
0.346514046

$$$$
