
     RDKit          3D

 24 25  0  0  0  0  0  0  0  0999 V2000
   45.5320   34.2880   40.8290 C   0  0  0  0  0  0  0  0  0  0  0  0
   46.8450   34.5840   41.1740 C   0  0  0  0  0  0  0  0  0  0  0  0
   47.8920   34.0530   40.3850 C   0  0  0  0  0  0  0  0  0  0  0  0
   47.5340   33.2690   39.3160 N   0  0  0  0  0  0  0  0  0  0  0  0
   46.2340   33.0140   39.0290 C   0  0  0  0  0  0  0  0  0  0  0  0
   45.2490   33.5270   39.7880 N   0  0  0  0  0  0  0  0  0  0  0  0
   45.8510   32.1790   37.8900 C   0  0  0  0  0  0  0  0  0  0  0  0
   45.5870   30.8550   37.7610 N   0  0  0  0  0  0  0  0  0  0  0  0
   45.2880   30.5920   36.5270 O   0  0  0  0  0  0  0  0  0  0  0  0
   45.3370   31.6930   35.8020 C   0  0  0  0  0  0  0  0  0  0  0  0
   45.6910   32.7180   36.6360 N   0  0  0  0  0  0  0  0  0  0  0  0
   45.0680   31.8010   34.3940 C   0  0  0  0  0  0  0  0  0  0  0  0
   44.8320   30.7550   33.7340 O   0  0  0  0  0  0  0  0  0  0  0  0
   45.0660   33.0400   33.7660 O   0  0  0  0  0  0  0  0  0  0  0  0
   44.4950   34.8490   41.6580 C   0  0  0  0  0  0  0  0  0  0  0  0
   43.6610   35.6730   41.1340 O   0  0  0  0  0  0  0  0  0  0  0  0
   44.4220   34.4810   43.0180 O   0  0  0  0  0  0  0  0  0  0  0  0
   44.9930   35.3220   43.9710 C   0  0  0  0  0  0  0  0  0  0  0  0
   44.1070   35.6350   44.9970 F   0  0  0  0  0  0  0  0  0  0  0  0
   46.1050   34.7190   44.5200 F   0  0  0  0  0  0  0  0  0  0  0  0
   45.3290   36.4950   43.3160 F   0  0  0  0  0  0  0  0  0  0  0  0
   47.0661   35.2193   42.0443 H   0  0  0  0  0  0  0  0  0  0  0  0
   48.9472   34.2591   40.6176 H   0  0  0  0  0  0  0  0  0  0  0  0
   44.8795   33.1029   32.7958 H   0  0  0  0  0  0  0  0  0  0  0  0
  1  2  2  0
  1 15  1  0
  3  2  1  0
  4  3  2  0
  5  4  1  0
  5  6  2  0
  6  1  1  0
  7  5  1  0
  8  7  2  0
  9  8  1  0
 10  9  1  0
 10 11  2  0
 11  7  1  0
 12 10  1  0
 13 12  2  0
 14 12  1  0
 15 17  1  0
 16 15  2  0
 17 18  1  0
 18 20  1  0
 18 19  1  0
 21 18  1  0
  2 22  1  0
  3 23  1  0
 14 24  1  0
M  ISO  3  22  14  23  14  24   3
M  END
>  <minimizedAffinity>  (1) 
-5.34339571

>  <minimizedRMSD>  (1) 
0.819061518

$$$$
