
     RDKit          3D

 27 29  0  0  0  0  0  0  0  0999 V2000
   44.5750   35.9250   42.9410 S   0  0  0  0  0  0  0  0  0  0  0  0
   45.6910   34.6270   43.5200 C   0  0  0  0  0  0  0  0  0  0  0  0
   45.3070   33.7530   44.5150 C   0  0  0  0  0  0  0  0  0  0  0  0
   46.1850   32.7640   44.9430 C   0  0  0  0  0  0  0  0  0  0  0  0
   47.4590   32.6400   44.3770 C   0  0  0  0  0  0  0  0  0  0  0  0
   47.8530   33.5160   43.3760 C   0  0  0  0  0  0  0  0  0  0  0  0
   49.1130   33.3800   42.8290 C   0  0  0  0  0  0  0  0  0  0  0  0
   49.4900   34.2640   41.8290 C   0  0  0  0  0  0  0  0  0  0  0  0
   48.6290   35.2620   41.3860 C   0  0  0  0  0  0  0  0  0  0  0  0
   47.3820   35.3330   41.9840 C   0  0  0  0  0  0  0  0  0  0  0  0
   46.9510   34.4830   42.9820 C   0  0  0  0  0  0  0  0  0  0  0  0
   43.0520   34.1040   39.6470 C   0  0  0  0  0  0  0  0  0  0  0  0
   43.9700   34.5870   40.5910 C   0  0  0  0  0  0  0  0  0  0  0  0
   43.4910   35.2760   41.6920 C   0  0  0  0  0  0  0  0  0  0  0  0
   42.1220   35.4590   41.8140 N   0  0  0  0  0  0  0  0  0  0  0  0
   41.2680   34.9810   40.8850 C   0  0  0  0  0  0  0  0  0  0  0  0
   41.7190   34.3140   39.8180 N   0  0  0  0  0  0  0  0  0  0  0  0
   44.3086   33.8382   44.9688 H   0  0  0  0  0  0  0  0  0  0  0  0
   45.8743   32.0694   45.7373 H   0  0  0  0  0  0  0  0  0  0  0  0
   48.1441   31.8524   44.7239 H   0  0  0  0  0  0  0  0  0  0  0  0
   49.7985   32.5930   43.1763 H   0  0  0  0  0  0  0  0  0  0  0  0
   50.4891   34.1739   41.3777 H   0  0  0  0  0  0  0  0  0  0  0  0
   48.9259   35.9653   40.5940 H   0  0  0  0  0  0  0  0  0  0  0  0
   46.6908   36.1172   41.6416 H   0  0  0  0  0  0  0  0  0  0  0  0
   43.4113   33.5534   38.7651 H   0  0  0  0  0  0  0  0  0  0  0  0
   45.0495   34.4216   40.4591 H   0  0  0  0  0  0  0  0  0  0  0  0
   40.1868   35.1423   41.0073 H   0  0  0  0  0  0  0  0  0  0  0  0
  1  2  1  0
  2  3  2  0
  3  4  1  0
  5  4  2  0
  6  5  1  0
  7  6  2  0
  8  7  1  0
  9  8  2  0
  9 10  1  0
 10 11  2  0
 11  6  1  0
 11  2  1  0
 12 17  2  0
 12 13  1  0
 13 14  2  0
 14 15  1  0
 14  1  1  0
 16 15  2  0
 17 16  1  0
  3 18  1  0
  4 19  1  0
  5 20  1  0
  7 21  1  0
  8 22  1  0
  9 23  1  0
 10 24  1  0
 12 25  1  0
 13 26  1  0
 16 27  1  0
M  ISO  8  18  14  19  14  20  14  21  14  22  14  23  14  24  14  25  14
M  ISO  2  26  14  27  14
M  END
>  <minimizedAffinity>  (1) 
-5.07463217

>  <minimizedRMSD>  (1) 
4.08179808

$$$$
