
     RDKit          3D

 25 27  0  0  0  0  0  0  0  0999 V2000
   46.9710   34.7200   41.5330 S   0  0  0  0  0  0  0  0  0  0  0  0
   48.6610   34.2500   41.8980 C   0  0  0  0  0  0  0  0  0  0  0  0
   49.6050   34.8540   42.7160 C   0  0  0  0  0  0  0  0  0  0  0  0
   50.7360   34.1160   42.6570 N   0  0  0  0  0  0  0  0  0  0  0  0
   50.5600   33.0620   41.8350 C   0  0  0  0  0  0  0  0  0  0  0  0
   51.4230   32.0390   41.4620 C   0  0  0  0  0  0  0  0  0  0  0  0
   50.9940   31.0710   40.5960 C   0  0  0  0  0  0  0  0  0  0  0  0
   49.6960   31.1130   40.0890 C   0  0  0  0  0  0  0  0  0  0  0  0
   48.8610   32.1410   40.4770 C   0  0  0  0  0  0  0  0  0  0  0  0
   49.2700   33.1360   41.3540 C   0  0  0  0  0  0  0  0  0  0  0  0
   44.5450   36.0070   44.5330 C   0  0  0  0  0  0  0  0  0  0  0  0
   45.2050   35.9470   43.2850 C   0  0  0  0  0  0  0  0  0  0  0  0
   46.0870   34.8870   43.0780 C   0  0  0  0  0  0  0  0  0  0  0  0
   46.2660   33.9610   44.0980 N   0  0  0  0  0  0  0  0  0  0  0  0
   45.6180   34.0590   45.2650 C   0  0  0  0  0  0  0  0  0  0  0  0
   44.7680   35.0710   45.4790 N   0  0  0  0  0  0  0  0  0  0  0  0
   49.4591   35.7701   43.3072 H   0  0  0  0  0  0  0  0  0  0  0  0
   51.6059   34.3281   43.1661 H   0  0  0  0  0  0  0  0  0  0  0  0
   52.4474   32.0076   41.8616 H   0  0  0  0  0  0  0  0  0  0  0  0
   51.6738   30.2587   40.2993 H   0  0  0  0  0  0  0  0  0  0  0  0
   49.3432   30.3394   39.3911 H   0  0  0  0  0  0  0  0  0  0  0  0
   47.8365   32.1729   40.0777 H   0  0  0  0  0  0  0  0  0  0  0  0
   43.8405   36.8271   44.7359 H   0  0  0  0  0  0  0  0  0  0  0  0
   45.0301   36.7059   42.5081 H   0  0  0  0  0  0  0  0  0  0  0  0
   45.7842   33.3065   46.0499 H   0  0  0  0  0  0  0  0  0  0  0  0
  1  2  1  0
  1 13  1  0
  2  3  2  0
  4  3  1  0
  5  4  1  0
  6  5  2  0
  7  6  1  0
  8  9  1  0
  8  7  2  0
  9 10  2  0
 10  5  1  0
 10  2  1  0
 11 16  2  0
 12 11  1  0
 13 12  2  0
 13 14  1  0
 14 15  2  0
 15 16  1  0
  3 17  1  0
  4 18  1  0
  6 19  1  0
  7 20  1  0
  8 21  1  0
  9 22  1  0
 11 23  1  0
 12 24  1  0
 15 25  1  0
M  ISO  8  17  14  18   9  19  14  20  14  21  14  22  14  23  14  24  14
M  ISO  1  25  14
M  END
>  <minimizedAffinity>  (1) 
-5.03292036

>  <minimizedRMSD>  (1) 
1.59110224

$$$$
