
     RDKit          3D

 18 19  0  0  0  0  0  0  0  0999 V2000
   44.5170   36.0840   44.5360 C   0  0  0  0  0  0  0  0  0  0  0  0
   45.1850   35.9070   43.3090 C   0  0  0  0  0  0  0  0  0  0  0  0
   46.0040   34.7870   43.1650 C   0  0  0  0  0  0  0  0  0  0  0  0
   46.1230   33.9050   44.2200 N   0  0  0  0  0  0  0  0  0  0  0  0
   45.4600   34.1190   45.3770 C   0  0  0  0  0  0  0  0  0  0  0  0
   44.6720   35.1870   45.5330 N   0  0  0  0  0  0  0  0  0  0  0  0
   46.8990   34.4650   41.6500 S   0  0  0  0  0  0  0  0  0  0  0  0
   48.6250   34.1060   41.9920 C   0  0  0  0  0  0  0  0  0  0  0  0
   49.5470   33.0770   41.7750 C   0  0  0  0  0  0  0  0  0  0  0  0
   50.7290   33.5230   42.3380 C   0  0  0  0  0  0  0  0  0  0  0  0
   50.5330   34.7570   42.8690 N   0  0  0  0  0  0  0  0  0  0  0  0
   49.2540   35.0990   42.6500 N   0  0  0  0  0  0  0  0  0  0  0  0
   43.8653   36.9579   44.6829 H   0  0  0  0  0  0  0  0  0  0  0  0
   45.0646   36.6301   42.4889 H   0  0  0  0  0  0  0  0  0  0  0  0
   45.5704   33.4026   46.2044 H   0  0  0  0  0  0  0  0  0  0  0  0
   49.3700   32.1182   41.2656 H   0  0  0  0  0  0  0  0  0  0  0  0
   51.6775   32.9661   42.3531 H   0  0  0  0  0  0  0  0  0  0  0  0
   51.2398   35.3286   43.3534 H   0  0  0  0  0  0  0  0  0  0  0  0
  1  6  2  0
  2  1  1  0
  3  2  2  0
  3  4  1  0
  4  5  2  0
  5  6  1  0
  7  8  1  0
  7  3  1  0
  8 12  2  0
  9  8  1  0
  9 10  2  0
 10 11  1  0
 12 11  1  0
  1 13  1  0
  2 14  1  0
  5 15  1  0
  9 16  1  0
 10 17  1  0
 11 18  1  0
M  ISO  6  13  14  14  14  15  14  16  14  17  14  18   9
M  END
>  <minimizedAffinity>  (1) 
-4.6528244

>  <minimizedRMSD>  (1) 
1.27120817

$$$$
