
     RDKit          3D

 24 25  0  0  0  0  0  0  0  0999 V2000
   45.7790   34.6780   41.6910 S   0  0  0  0  0  0  0  0  0  0  0  0
   44.5870   35.3670   45.5090 C   0  0  0  0  0  0  0  0  0  0  0  0
   44.7700   35.5210   44.1260 C   0  0  0  0  0  0  0  0  0  0  0  0
   45.4990   34.5570   43.4490 C   0  0  0  0  0  0  0  0  0  0  0  0
   46.0050   33.4980   44.1710 N   0  0  0  0  0  0  0  0  0  0  0  0
   45.8120   33.3810   45.4880 C   0  0  0  0  0  0  0  0  0  0  0  0
   45.1080   34.3070   46.1540 N   0  0  0  0  0  0  0  0  0  0  0  0
   41.6760   34.2570   39.6730 C   0  0  0  0  0  0  0  0  0  0  0  0
   42.0020   35.4130   40.3540 C   0  0  0  0  0  0  0  0  0  0  0  0
   43.2660   35.4490   40.9320 C   0  0  0  0  0  0  0  0  0  0  0  0
   44.2040   34.4390   40.8810 C   0  0  0  0  0  0  0  0  0  0  0  0
   43.8380   33.2910   40.1860 C   0  0  0  0  0  0  0  0  0  0  0  0
   42.5850   33.2080   39.5910 C   0  0  0  0  0  0  0  0  0  0  0  0
   40.0900   34.1700   38.9270 S   0  0  0  0  0  0  0  0  0  0  0  0
   40.1040   34.7510   37.5380 O   0  0  0  0  0  0  0  0  0  0  0  0
   39.0930   34.8970   39.8040 O   0  0  0  0  0  0  0  0  0  0  0  0
   44.0130   36.1189   46.0703 H   0  0  0  0  0  0  0  0  0  0  0  0
   44.3455   36.3848   43.5934 H   0  0  0  0  0  0  0  0  0  0  0  0
   46.2330   32.5204   46.0284 H   0  0  0  0  0  0  0  0  0  0  0  0
   41.3016   36.2574   40.4347 H   0  0  0  0  0  0  0  0  0  0  0  0
   43.5422   36.3632   41.4779 H   0  0  0  0  0  0  0  0  0  0  0  0
   44.5408   32.4485   40.1074 H   0  0  0  0  0  0  0  0  0  0  0  0
   42.3068   32.2948   39.0445 H   0  0  0  0  0  0  0  0  0  0  0  0
   39.7245   32.8549   38.8093 H   0  0  0  0  0  0  0  0  0  0  0  0
  1  4  1  0
  2  7  2  0
  3  2  1  0
  4  3  2  0
  4  5  1  0
  5  6  2  0
  6  7  1  0
  8  9  2  0
  9 10  1  0
 11 10  2  0
 11  1  1  0
 12 11  1  0
 13  8  1  0
 13 12  2  0
 14  8  1  0
 14 16  2  0
 15 14  2  0
  2 17  1  0
  3 18  1  0
  6 19  1  0
  9 20  1  0
 10 21  1  0
 12 22  1  0
 13 23  1  0
 14 24  1  0
M  ISO  8  17  14  18  14  19  14  20  14  21  14  22  14  23  14  24  11
M  END
>  <minimizedAffinity>  (1) 
-4.46593189

>  <minimizedRMSD>  (1) 
3.57225752

$$$$
