
     RDKit          3D

 20 21  0  0  0  0  0  0  0  0999 V2000
   44.5380   36.1110   44.6000 C   0  0  0  0  0  0  0  0  0  0  0  0
   45.1340   35.9570   43.3370 C   0  0  0  0  0  0  0  0  0  0  0  0
   45.8930   34.8190   43.1020 C   0  0  0  0  0  0  0  0  0  0  0  0
   46.0350   33.8830   44.1170 N   0  0  0  0  0  0  0  0  0  0  0  0
   45.4500   34.0670   45.3120 C   0  0  0  0  0  0  0  0  0  0  0  0
   44.7120   35.1600   45.5580 N   0  0  0  0  0  0  0  0  0  0  0  0
   46.6870   34.5340   41.5340 S   0  0  0  0  0  0  0  0  0  0  0  0
   48.3060   33.8460   41.6710 C   0  0  0  0  0  0  0  0  0  0  0  0
   49.2070   34.6170   42.3910 C   0  0  0  0  0  0  0  0  0  0  0  0
   50.5210   34.2010   42.5810 C   0  0  0  0  0  0  0  0  0  0  0  0
   50.9050   32.9940   42.0310 C   0  0  0  0  0  0  0  0  0  0  0  0
   50.0030   32.2410   41.3210 C   0  0  0  0  0  0  0  0  0  0  0  0
   48.7260   32.6660   41.1480 N   0  0  0  0  0  0  0  0  0  0  0  0
   43.9296   37.0019   44.8150 H   0  0  0  0  0  0  0  0  0  0  0  0
   45.0024   36.7188   42.5545 H   0  0  0  0  0  0  0  0  0  0  0  0
   45.5779   33.3106   46.1003 H   0  0  0  0  0  0  0  0  0  0  0  0
   48.8765   35.5747   42.8195 H   0  0  0  0  0  0  0  0  0  0  0  0
   51.2327   34.8152   43.1522 H   0  0  0  0  0  0  0  0  0  0  0  0
   51.9364   32.6349   42.1621 H   0  0  0  0  0  0  0  0  0  0  0  0
   50.3194   31.2811   40.8869 H   0  0  0  0  0  0  0  0  0  0  0  0
  1  6  2  0
  2  1  1  0
  3  2  2  0
  3  4  1  0
  4  5  2  0
  5  6  1  0
  7  8  1  0
  7  3  1  0
  8  9  2  0
  9 10  1  0
 11 10  2  0
 12 11  1  0
 13 12  2  0
 13  8  1  0
  1 14  1  0
  2 15  1  0
  5 16  1  0
  9 17  1  0
 10 18  1  0
 11 19  1  0
 12 20  1  0
M  ISO  7  14  14  15  14  16  14  17  14  18  14  19  14  20  14
M  END
>  <minimizedAffinity>  (1) 
-4.44017124

>  <minimizedRMSD>  (1) 
1.33956456

$$$$
