
     RDKit          3D

 20 20  0  0  0  0  0  0  0  0999 V2000
   44.7000   36.0080   44.1890 C   0  0  0  0  0  0  0  0  0  0  0  0
   45.6290   35.5710   43.2100 C   0  0  0  0  0  0  0  0  0  0  0  0
   46.3870   34.4520   43.4990 C   0  0  0  0  0  0  0  0  0  0  0  0
   46.1980   33.8250   44.7220 N   0  0  0  0  0  0  0  0  0  0  0  0
   45.3160   34.2600   45.6230 C   0  0  0  0  0  0  0  0  0  0  0  0
   44.5610   35.3470   45.3750 N   0  0  0  0  0  0  0  0  0  0  0  0
   47.5780   33.8220   42.3380 S   0  0  0  0  0  0  0  0  0  0  0  0
   49.1290   34.7580   42.5400 C   0  0  0  0  0  0  0  0  0  0  0  0
   49.0640   35.8760   41.5030 C   0  0  0  0  0  0  0  0  0  0  0  0
   50.3360   33.8790   42.3750 C   0  0  0  0  0  0  0  0  0  0  0  0
   44.0809   36.8950   43.9888 H   0  0  0  0  0  0  0  0  0  0  0  0
   45.7421   36.1040   42.2544 H   0  0  0  0  0  0  0  0  0  0  0  0
   45.2043   33.7256   46.5779 H   0  0  0  0  0  0  0  0  0  0  0  0
   49.2305   35.1707   43.5546 H   0  0  0  0  0  0  0  0  0  0  0  0
   49.0075   36.8480   42.0148 H   0  0  0  0  0  0  0  0  0  0  0  0
   49.9655   35.8450   40.8734 H   0  0  0  0  0  0  0  0  0  0  0  0
   48.1722   35.7407   40.8734 H   0  0  0  0  0  0  0  0  0  0  0  0
   50.7227   33.5974   43.3655 H   0  0  0  0  0  0  0  0  0  0  0  0
   50.0558   32.9720   41.8193 H   0  0  0  0  0  0  0  0  0  0  0  0
   51.1133   34.4240   41.8193 H   0  0  0  0  0  0  0  0  0  0  0  0
  1  6  2  0
  2  3  2  0
  2  1  1  0
  3  4  1  0
  4  5  2  0
  6  5  1  0
  7  8  1  0
  7  3  1  0
  9  8  1  0
 10  8  1  0
  1 11  1  0
  2 12  1  0
  5 13  1  0
  8 14  1  0
  9 15  1  0
  9 16  1  0
  9 17  1  0
 10 18  1  0
 10 19  1  0
 10 20  1  0
M  ISO  8  11  14  12  14  13  14  14   8  15   8  16   8  17   8  18   8
M  ISO  2  19   8  20   8
M  END
>  <minimizedAffinity>  (1) 
-4.00041246

>  <minimizedRMSD>  (1) 
1.80246055

$$$$
