
     RDKit          3D

 14 14  0  0  0  0  0  0  0  0999 V2000
   44.5620   35.9850   44.4710 C   0  0  0  0  0  0  0  0  0  0  0  0
   45.3880   35.9090   43.3190 C   0  0  0  0  0  0  0  0  0  0  0  0
   46.3040   34.8760   43.2130 C   0  0  0  0  0  0  0  0  0  0  0  0
   46.3610   33.9700   44.2440 N   0  0  0  0  0  0  0  0  0  0  0  0
   45.5760   34.0570   45.3220 C   0  0  0  0  0  0  0  0  0  0  0  0
   44.6820   35.0530   45.4380 N   0  0  0  0  0  0  0  0  0  0  0  0
   47.3730   34.7220   41.7920 S   0  0  0  0  0  0  0  0  0  0  0  0
   46.5030   33.8810   40.4300 C   0  0  0  0  0  0  0  0  0  0  0  0
   47.1100   34.0540   39.2250 F   0  0  0  0  0  0  0  0  0  0  0  0
   46.4980   32.5270   40.7030 F   0  0  0  0  0  0  0  0  0  0  0  0
   45.1960   34.3230   40.4190 F   0  0  0  0  0  0  0  0  0  0  0  0
   43.8290   36.7987   44.5741 H   0  0  0  0  0  0  0  0  0  0  0  0
   45.3015   36.6610   42.5209 H   0  0  0  0  0  0  0  0  0  0  0  0
   45.6626   33.3064   46.1214 H   0  0  0  0  0  0  0  0  0  0  0  0
  1  6  2  0
  2  1  1  0
  3  2  2  0
  3  4  1  0
  4  5  2  0
  5  6  1  0
  7  3  1  0
  8 10  1  0
  8  7  1  0
  9  8  1  0
 11  8  1  0
  1 12  1  0
  2 13  1  0
  5 14  1  0
M  ISO  3  12  14  13  14  14  14
M  END
>  <minimizedAffinity>  (1) 
-3.45333767

>  <minimizedRMSD>  (1) 
0.471258044

$$$$
