
     RDKit          3D

 34 37  0  0  0  0  0  0  0  0999 V2000
   48.3910   33.9670   41.5720 C   0  0  0  0  0  0  0  0  0  0  0  0
   49.2380   34.6690   42.4380 C   0  0  0  0  0  0  0  0  0  0  0  0
   50.5190   34.1950   42.6720 C   0  0  0  0  0  0  0  0  0  0  0  0
   50.9890   33.0260   42.0630 C   0  0  0  0  0  0  0  0  0  0  0  0
   50.1440   32.3320   41.2020 C   0  0  0  0  0  0  0  0  0  0  0  0
   48.8830   32.8140   40.9820 C   0  0  0  0  0  0  0  0  0  0  0  0
   47.8920   32.2130   40.1230 N   0  0  0  0  0  0  0  0  0  0  0  0
   46.8880   31.3740   40.3630 C   0  0  0  0  0  0  0  0  0  0  0  0
   46.2440   31.1090   39.2010 N   0  0  0  0  0  0  0  0  0  0  0  0
   46.8760   31.8030   38.2520 C   0  0  0  0  0  0  0  0  0  0  0  0
   46.6730   31.9290   36.8810 C   0  0  0  0  0  0  0  0  0  0  0  0
   47.4720   32.7120   36.1370 N   0  0  0  0  0  0  0  0  0  0  0  0
   48.4910   33.3990   36.6830 C   0  0  0  0  0  0  0  0  0  0  0  0
   48.6950   33.2860   37.9990 N   0  0  0  0  0  0  0  0  0  0  0  0
   47.9390   32.5250   38.8000 C   0  0  0  0  0  0  0  0  0  0  0  0
   45.6120   31.2250   36.2510 N   0  0  0  0  0  0  0  0  0  0  0  0
   46.7890   34.6510   41.3420 S   0  0  0  0  0  0  0  0  0  0  0  0
   44.6150   36.1520   44.4230 C   0  0  0  0  0  0  0  0  0  0  0  0
   45.2320   36.0290   43.1610 C   0  0  0  0  0  0  0  0  0  0  0  0
   45.9820   34.8790   42.9080 C   0  0  0  0  0  0  0  0  0  0  0  0
   46.0690   33.9380   43.9090 N   0  0  0  0  0  0  0  0  0  0  0  0
   45.4720   34.0820   45.1000 C   0  0  0  0  0  0  0  0  0  0  0  0
   44.7440   35.1870   45.3610 N   0  0  0  0  0  0  0  0  0  0  0  0
   48.8894   35.5896   42.9288 H   0  0  0  0  0  0  0  0  0  0  0  0
   51.1816   34.7504   43.3521 H   0  0  0  0  0  0  0  0  0  0  0  0
   52.0080   32.6622   42.2612 H   0  0  0  0  0  0  0  0  0  0  0  0
   50.4847   31.4109   40.7065 H   0  0  0  0  0  0  0  0  0  0  0  0
   46.6230   30.9613   41.3476 H   0  0  0  0  0  0  0  0  0  0  0  0
   49.1389   34.0365   36.0634 H   0  0  0  0  0  0  0  0  0  0  0  0
   45.4626   31.3190   35.2362 H   0  0  0  0  0  0  0  0  0  0  0  0
   44.9921   30.6206   36.8090 H   0  0  0  0  0  0  0  0  0  0  0  0
   44.0186   37.0484   44.6481 H   0  0  0  0  0  0  0  0  0  0  0  0
   45.1256   36.8152   42.3991 H   0  0  0  0  0  0  0  0  0  0  0  0
   45.5757   33.2986   45.8652 H   0  0  0  0  0  0  0  0  0  0  0  0
  1  2  2  0
  2  3  1  0
  4  3  2  0
  5  4  1  0
  6  5  2  0
  6  1  1  0
  7  8  1  0
  7  6  1  0
  9  8  2  0
 10 15  2  0
 10  9  1  0
 11 10  1  0
 12 13  1  0
 12 11  2  0
 13 14  2  0
 14 15  1  0
 15  7  1  0
 16 11  1  0
 17  1  1  0
 17 20  1  0
 18 23  2  0
 19 18  1  0
 20 19  2  0
 20 21  1  0
 21 22  2  0
 22 23  1  0
  2 24  1  0
  3 25  1  0
  4 26  1  0
  5 27  1  0
  8 28  1  0
 13 29  1  0
 16 30  1  0
 16 31  1  0
 18 32  1  0
 19 33  1  0
 22 34  1  0
M  ISO  8  24  14  25  14  26  14  27  14  28  14  29  14  32  14  33  14
M  ISO  1  34  14
M  END
>  <minimizedAffinity>  (1) 
-5.56471062

>  <minimizedRMSD>  (1) 
0.772669435

$$$$
