
     RDKit          3D

 35 38  0  0  0  0  0  0  0  0999 V2000
   48.2720   33.9680   41.6270 C   0  0  0  0  0  0  0  0  0  0  0  0
   49.1650   34.7060   42.4170 C   0  0  0  0  0  0  0  0  0  0  0  0
   50.4510   34.2030   42.5950 C   0  0  0  0  0  0  0  0  0  0  0  0
   50.8770   33.0070   42.0210 C   0  0  0  0  0  0  0  0  0  0  0  0
   49.9880   32.2850   41.2430 C   0  0  0  0  0  0  0  0  0  0  0  0
   48.7070   32.7920   41.0710 C   0  0  0  0  0  0  0  0  0  0  0  0
   47.7500   32.0590   40.2230 C   0  0  0  0  0  0  0  0  0  0  0  0
   46.8810   31.1090   40.5850 N   0  0  0  0  0  0  0  0  0  0  0  0
   46.1140   30.5030   39.6830 C   0  0  0  0  0  0  0  0  0  0  0  0
   46.1660   30.8040   38.3620 N   0  0  0  0  0  0  0  0  0  0  0  0
   47.0440   31.7630   37.9730 C   0  0  0  0  0  0  0  0  0  0  0  0
   47.1210   32.0510   36.6340 C   0  0  0  0  0  0  0  0  0  0  0  0
   48.0140   33.0010   36.1390 C   0  0  0  0  0  0  0  0  0  0  0  0
   48.8170   33.6470   37.0210 C   0  0  0  0  0  0  0  0  0  0  0  0
   48.7390   33.3590   38.3690 C   0  0  0  0  0  0  0  0  0  0  0  0
   47.8630   32.4190   38.9020 C   0  0  0  0  0  0  0  0  0  0  0  0
   46.6500   34.6380   41.4380 S   0  0  0  0  0  0  0  0  0  0  0  0
   44.5590   36.0880   44.6260 C   0  0  0  0  0  0  0  0  0  0  0  0
   45.1230   35.9840   43.3530 C   0  0  0  0  0  0  0  0  0  0  0  0
   45.8840   34.8620   43.0380 C   0  0  0  0  0  0  0  0  0  0  0  0
   46.0330   33.9080   44.0210 N   0  0  0  0  0  0  0  0  0  0  0  0
   45.4870   34.0210   45.2410 C   0  0  0  0  0  0  0  0  0  0  0  0
   44.7460   35.1130   45.5490 N   0  0  0  0  0  0  0  0  0  0  0  0
   48.8585   35.6544   42.8824 H   0  0  0  0  0  0  0  0  0  0  0  0
   51.1595   34.7730   43.2140 H   0  0  0  0  0  0  0  0  0  0  0  0
   51.9021   32.6426   42.1832 H   0  0  0  0  0  0  0  0  0  0  0  0
   50.2882   31.3362   40.7743 H   0  0  0  0  0  0  0  0  0  0  0  0
   45.4106   29.7280   40.0217 H   0  0  0  0  0  0  0  0  0  0  0  0
   46.4614   31.5189   35.9327 H   0  0  0  0  0  0  0  0  0  0  0  0
   48.0658   33.2205   35.0624 H   0  0  0  0  0  0  0  0  0  0  0  0
   49.5318   34.4019   36.6615 H   0  0  0  0  0  0  0  0  0  0  0  0
   49.4041   33.9010   39.0573 H   0  0  0  0  0  0  0  0  0  0  0  0
   43.9559   36.9714   44.8829 H   0  0  0  0  0  0  0  0  0  0  0  0
   44.9679   36.7787   42.6085 H   0  0  0  0  0  0  0  0  0  0  0  0
   45.6403   33.2295   45.9893 H   0  0  0  0  0  0  0  0  0  0  0  0
  1  2  2  0
  2  3  1  0
  4  3  2  0
  5  4  1  0
  6  5  2  0
  6  1  1  0
  7  8  2  0
  7  6  1  0
  9  8  1  0
 10  9  2  0
 11 10  1  0
 11 16  2  0
 12 11  1  0
 13 12  2  0
 13 14  1  0
 14 15  2  0
 15 16  1  0
 16  7  1  0
 17  1  1  0
 17 20  1  0
 18 23  2  0
 19 18  1  0
 20 19  2  0
 20 21  1  0
 21 22  2  0
 22 23  1  0
  2 24  1  0
  3 25  1  0
  4 26  1  0
  5 27  1  0
  9 28  1  0
 12 29  1  0
 13 30  1  0
 14 31  1  0
 15 32  1  0
 18 33  1  0
 19 34  1  0
 22 35  1  0
M  ISO  8  24  14  25  14  26  14  27  14  28  14  29  14  30  14  31  14
M  ISO  4  32  14  33  14  34  14  35  14
M  END
>  <minimizedAffinity>  (1) 
-5.54234266

>  <minimizedRMSD>  (1) 
0.326902986

$$$$
