
     RDKit          3D

 32 35  0  0  0  0  0  0  0  0999 V2000
   48.4090   33.9810   41.5900 C   0  0  0  0  0  0  0  0  0  0  0  0
   49.2530   34.6780   42.4470 C   0  0  0  0  0  0  0  0  0  0  0  0
   50.5180   34.1980   42.6720 C   0  0  0  0  0  0  0  0  0  0  0  0
   50.9940   33.0210   42.0640 C   0  0  0  0  0  0  0  0  0  0  0  0
   50.1430   32.3260   41.2050 C   0  0  0  0  0  0  0  0  0  0  0  0
   48.8840   32.8170   40.9900 C   0  0  0  0  0  0  0  0  0  0  0  0
   47.8970   32.2100   40.1330 N   0  0  0  0  0  0  0  0  0  0  0  0
   46.9060   31.3580   40.3910 C   0  0  0  0  0  0  0  0  0  0  0  0
   46.2740   31.1080   39.2080 N   0  0  0  0  0  0  0  0  0  0  0  0
   46.9080   31.8270   38.2420 C   0  0  0  0  0  0  0  0  0  0  0  0
   46.6230   31.8910   36.8950 C   0  0  0  0  0  0  0  0  0  0  0  0
   47.3970   32.6800   36.1340 N   0  0  0  0  0  0  0  0  0  0  0  0
   48.4180   33.3790   36.6920 C   0  0  0  0  0  0  0  0  0  0  0  0
   48.6820   33.3060   38.0030 N   0  0  0  0  0  0  0  0  0  0  0  0
   47.9460   32.5360   38.8210 C   0  0  0  0  0  0  0  0  0  0  0  0
   46.7910   34.6510   41.3410 S   0  0  0  0  0  0  0  0  0  0  0  0
   44.6100   36.1470   44.4390 C   0  0  0  0  0  0  0  0  0  0  0  0
   45.2230   36.0270   43.1780 C   0  0  0  0  0  0  0  0  0  0  0  0
   45.9800   34.8900   42.8990 C   0  0  0  0  0  0  0  0  0  0  0  0
   46.0820   33.9310   43.8950 N   0  0  0  0  0  0  0  0  0  0  0  0
   45.4800   34.0770   45.0910 C   0  0  0  0  0  0  0  0  0  0  0  0
   44.7520   35.1700   45.3640 N   0  0  0  0  0  0  0  0  0  0  0  0
   48.9112   35.6013   42.9377 H   0  0  0  0  0  0  0  0  0  0  0  0
   51.1833   34.7517   43.3508 H   0  0  0  0  0  0  0  0  0  0  0  0
   52.0133   32.6579   42.2618 H   0  0  0  0  0  0  0  0  0  0  0  0
   50.4771   31.4020   40.7104 H   0  0  0  0  0  0  0  0  0  0  0  0
   46.6462   30.9356   41.3729 H   0  0  0  0  0  0  0  0  0  0  0  0
   45.7919   31.3166   36.4599 H   0  0  0  0  0  0  0  0  0  0  0  0
   49.0429   34.0201   36.0528 H   0  0  0  0  0  0  0  0  0  0  0  0
   44.0122   37.0400   44.6739 H   0  0  0  0  0  0  0  0  0  0  0  0
   45.1066   36.8188   42.4234 H   0  0  0  0  0  0  0  0  0  0  0  0
   45.5866   33.2907   45.8528 H   0  0  0  0  0  0  0  0  0  0  0  0
  1  2  2  0
  2  3  1  0
  4  3  2  0
  5  4  1  0
  6  5  2  0
  6  1  1  0
  7  8  1  0
  7  6  1  0
  9  8  2  0
 10 15  2  0
 10  9  1  0
 11 10  1  0
 12 13  1  0
 12 11  2  0
 13 14  2  0
 14 15  1  0
 15  7  1  0
 16  1  1  0
 16 19  1  0
 17 22  2  0
 18 17  1  0
 19 18  2  0
 19 20  1  0
 20 21  2  0
 21 22  1  0
  2 23  1  0
  3 24  1  0
  4 25  1  0
  5 26  1  0
  8 27  1  0
 11 28  1  0
 13 29  1  0
 17 30  1  0
 18 31  1  0
 21 32  1  0
M  ISO  8  23  14  24  14  25  14  26  14  27  14  28  14  29  14  30  14
M  ISO  2  31  14  32  14
M  END
>  <minimizedAffinity>  (1) 
-5.44905043

>  <minimizedRMSD>  (1) 
0.797438383

$$$$
