
     RDKit          3D

 24 26  0  0  0  0  0  0  0  0999 V2000
   44.6110   35.6460   44.8950 C   0  0  0  0  0  0  0  0  0  0  0  0
   44.2290   35.5620   43.5470 C   0  0  0  0  0  0  0  0  0  0  0  0
   44.5660   34.4060   42.8420 C   0  0  0  0  0  0  0  0  0  0  0  0
   45.2460   33.4150   43.4870 N   0  0  0  0  0  0  0  0  0  0  0  0
   45.6010   33.5200   44.7820 C   0  0  0  0  0  0  0  0  0  0  0  0
   45.2860   34.6340   45.4910 N   0  0  0  0  0  0  0  0  0  0  0  0
   46.3070   32.4070   45.3230 N   0  0  0  0  0  0  0  0  0  0  0  0
   47.1720   31.6190   44.6330 C   0  0  0  0  0  0  0  0  0  0  0  0
   47.6790   30.6620   45.3910 N   0  0  0  0  0  0  0  0  0  0  0  0
   47.1570   30.7890   46.6310 C   0  0  0  0  0  0  0  0  0  0  0  0
   47.3360   30.0740   47.7880 C   0  0  0  0  0  0  0  0  0  0  0  0
   48.1120   29.1090   47.7760 O   0  0  0  0  0  0  0  0  0  0  0  0
   46.6380   30.4780   48.8900 N   0  0  0  0  0  0  0  0  0  0  0  0
   45.8060   31.5510   48.8110 C   0  0  0  0  0  0  0  0  0  0  0  0
   45.1460   31.8590   50.0310 N   0  0  0  0  0  0  0  0  0  0  0  0
   45.6220   32.2690   47.6650 N   0  0  0  0  0  0  0  0  0  0  0  0
   46.3100   31.8770   46.5610 C   0  0  0  0  0  0  0  0  0  0  0  0
   44.3588   36.5458   45.4753 H   0  0  0  0  0  0  0  0  0  0  0  0
   43.6806   36.3825   43.0611 H   0  0  0  0  0  0  0  0  0  0  0  0
   44.2879   34.2957   41.7835 H   0  0  0  0  0  0  0  0  0  0  0  0
   47.4207   31.7603   43.5709 H   0  0  0  0  0  0  0  0  0  0  0  0
   46.7415   29.9705   49.7803 H   0  0  0  0  0  0  0  0  0  0  0  0
   44.4936   32.6547   50.0770 H   0  0  0  0  0  0  0  0  0  0  0  0
   45.3200   31.2866   50.8694 H   0  0  0  0  0  0  0  0  0  0  0  0
  1  6  2  0
  2  1  1  0
  3  4  1  0
  3  2  2  0
  4  5  2  0
  5  7  1  0
  5  6  1  0
  7 17  1  0
  8  7  1  0
  8  9  2  0
  9 10  1  0
 10 11  1  0
 11 13  1  0
 12 11  2  0
 14 13  1  0
 14 15  1  0
 16 14  2  0
 17 10  2  0
 17 16  1  0
  1 18  1  0
  2 19  1  0
  3 20  1  0
  8 21  1  0
 13 22  1  0
 15 23  1  0
 15 24  1  0
M  ISO  5  18  14  19  14  20  14  21  14  22   9
M  END
>  <minimizedAffinity>  (1) 
-5.56740713

>  <minimizedRMSD>  (1) 
2.60483909

$$$$
