
     RDKit          3D

 35 38  0  0  0  0  0  0  0  0999 V2000
   48.4120   34.1340   41.7690 C   0  0  0  0  0  0  0  0  0  0  0  0
   49.4300   34.7400   42.5150 C   0  0  0  0  0  0  0  0  0  0  0  0
   50.6510   34.1150   42.6170 C   0  0  0  0  0  0  0  0  0  0  0  0
   50.9040   32.8940   41.9980 C   0  0  0  0  0  0  0  0  0  0  0  0
   49.9040   32.2830   41.2570 C   0  0  0  0  0  0  0  0  0  0  0  0
   48.6890   32.9230   41.1650 C   0  0  0  0  0  0  0  0  0  0  0  0
   47.5750   32.3610   40.4090 C   0  0  0  0  0  0  0  0  0  0  0  0
   46.7620   31.3940   41.0110 C   0  0  0  0  0  0  0  0  0  0  0  0
   45.8140   31.0360   40.1200 N   0  0  0  0  0  0  0  0  0  0  0  0
   45.9640   31.7230   38.9590 C   0  0  0  0  0  0  0  0  0  0  0  0
   45.3250   31.7820   37.7380 C   0  0  0  0  0  0  0  0  0  0  0  0
   45.8000   32.6450   36.7720 C   0  0  0  0  0  0  0  0  0  0  0  0
   46.9090   33.4760   36.9610 C   0  0  0  0  0  0  0  0  0  0  0  0
   47.5360   33.4000   38.1970 C   0  0  0  0  0  0  0  0  0  0  0  0
   47.0570   32.5440   39.1420 C   0  0  0  0  0  0  0  0  0  0  0  0
   46.8640   34.9750   41.6680 S   0  0  0  0  0  0  0  0  0  0  0  0
   44.5130   35.8320   44.8770 C   0  0  0  0  0  0  0  0  0  0  0  0
   45.1200   35.9160   43.6210 C   0  0  0  0  0  0  0  0  0  0  0  0
   46.0460   34.9400   43.2490 C   0  0  0  0  0  0  0  0  0  0  0  0
   46.3150   33.9300   44.1540 N   0  0  0  0  0  0  0  0  0  0  0  0
   45.7200   33.8710   45.3510 C   0  0  0  0  0  0  0  0  0  0  0  0
   44.8170   34.8090   45.7330 N   0  0  0  0  0  0  0  0  0  0  0  0
   49.2554   35.7048   43.0138 H   0  0  0  0  0  0  0  0  0  0  0  0
   51.4493   34.5930   43.2037 H   0  0  0  0  0  0  0  0  0  0  0  0
   51.8905   32.4173   42.0961 H   0  0  0  0  0  0  0  0  0  0  0  0
   50.0762   31.3176   40.7586 H   0  0  0  0  0  0  0  0  0  0  0  0
   46.8757   30.9961   42.0302 H   0  0  0  0  0  0  0  0  0  0  0  0
   45.0779   30.3376   40.2966 H   0  0  0  0  0  0  0  0  0  0  0  0
   44.4480   31.1491   37.5371 H   0  0  0  0  0  0  0  0  0  0  0  0
   45.2798   32.6813   35.8035 H   0  0  0  0  0  0  0  0  0  0  0  0
   47.2655   34.1541   36.1717 H   0  0  0  0  0  0  0  0  0  0  0  0
   48.4139   34.0269   38.4119 H   0  0  0  0  0  0  0  0  0  0  0  0
   43.7829   36.5967   45.1806 H   0  0  0  0  0  0  0  0  0  0  0  0
   44.8716   36.7395   42.9353 H   0  0  0  0  0  0  0  0  0  0  0  0
   45.9672   33.0477   46.0374 H   0  0  0  0  0  0  0  0  0  0  0  0
  1  2  2  0
  2  3  1  0
  4  3  2  0
  5  4  1  0
  6  5  2  0
  6  1  1  0
  7  8  2  0
  7  6  1  0
  9  8  1  0
 10 15  2  0
 10  9  1  0
 11 10  1  0
 12 13  1  0
 12 11  2  0
 13 14  2  0
 14 15  1  0
 15  7  1  0
 16  1  1  0
 16 19  1  0
 17 22  2  0
 18 17  1  0
 19 18  2  0
 19 20  1  0
 20 21  2  0
 21 22  1  0
  2 23  1  0
  3 24  1  0
  4 25  1  0
  5 26  1  0
  8 27  1  0
  9 28  1  0
 11 29  1  0
 12 30  1  0
 13 31  1  0
 14 32  1  0
 17 33  1  0
 18 34  1  0
 21 35  1  0
M  ISO  8  23  14  24  14  25  14  26  14  27  14  28   9  29  14  30  14
M  ISO  5  31  14  32  14  33  14  34  14  35  14
M  END
>  <minimizedAffinity>  (1) 
-5.33985806

>  <minimizedRMSD>  (1) 
1.39492917

$$$$
