
     RDKit          3D

 32 34  0  0  0  0  0  0  0  0999 V2000
   48.6280   33.9610   41.4440 C   0  0  0  0  0  0  0  0  0  0  0  0
   49.6410   34.0600   42.3860 C   0  0  0  0  0  0  0  0  0  0  0  0
   50.7210   33.2150   42.3340 C   0  0  0  0  0  0  0  0  0  0  0  0
   50.8390   32.2390   41.3450 C   0  0  0  0  0  0  0  0  0  0  0  0
   49.8230   32.1350   40.3950 C   0  0  0  0  0  0  0  0  0  0  0  0
   48.7410   32.9890   40.4550 C   0  0  0  0  0  0  0  0  0  0  0  0
   47.6770   32.9290   39.5150 N   0  0  0  0  0  0  0  0  0  0  0  0
   46.6770   32.0800   39.8130 C   0  0  0  0  0  0  0  0  0  0  0  0
   45.5670   31.8950   39.0150 C   0  0  0  0  0  0  0  0  0  0  0  0
   45.4910   32.6260   37.8520 C   0  0  0  0  0  0  0  0  0  0  0  0
   44.3650   32.4600   37.0100 N   0  0  0  0  0  0  0  0  0  0  0  0
   46.5010   33.4770   37.5600 N   0  0  0  0  0  0  0  0  0  0  0  0
   47.5660   33.6250   38.3690 C   0  0  0  0  0  0  0  0  0  0  0  0
   48.5270   34.4120   38.1260 O   0  0  0  0  0  0  0  0  0  0  0  0
   47.2820   35.0900   41.5940 S   0  0  0  0  0  0  0  0  0  0  0  0
   44.7220   35.3820   44.7480 C   0  0  0  0  0  0  0  0  0  0  0  0
   45.3660   35.6500   43.5140 C   0  0  0  0  0  0  0  0  0  0  0  0
   46.4250   34.8260   43.1170 C   0  0  0  0  0  0  0  0  0  0  0  0
   46.7790   33.7910   43.9600 N   0  0  0  0  0  0  0  0  0  0  0  0
   46.1510   33.5600   45.1230 C   0  0  0  0  0  0  0  0  0  0  0  0
   45.1250   34.3370   45.5360 N   0  0  0  0  0  0  0  0  0  0  0  0
   49.5784   34.8198   43.1790 H   0  0  0  0  0  0  0  0  0  0  0  0
   51.5132   33.3099   43.0912 H   0  0  0  0  0  0  0  0  0  0  0  0
   51.7106   31.5686   41.3148 H   0  0  0  0  0  0  0  0  0  0  0  0
   49.8841   31.3756   39.6016 H   0  0  0  0  0  0  0  0  0  0  0  0
   46.7484   31.5007   40.7454 H   0  0  0  0  0  0  0  0  0  0  0  0
   44.7722   31.1892   39.2981 H   0  0  0  0  0  0  0  0  0  0  0  0
   44.2919   32.9993   36.1355 H   0  0  0  0  0  0  0  0  0  0  0  0
   43.6189   31.7999   37.2719 H   0  0  0  0  0  0  0  0  0  0  0  0
   43.8889   36.0208   45.0764 H   0  0  0  0  0  0  0  0  0  0  0  0
   45.0399   36.4887   42.8813 H   0  0  0  0  0  0  0  0  0  0  0  0
   46.4781   32.7203   45.7538 H   0  0  0  0  0  0  0  0  0  0  0  0
  1 15  1  0
  1  2  2  0
  3  2  1  0
  4  3  2  0
  5  6  2  0
  5  4  1  0
  6  1  1  0
  7  8  1  0
  7  6  1  0
  9  8  2  0
 10  9  1  0
 11 10  1  0
 12 10  2  0
 12 13  1  0
 13  7  1  0
 14 13  2  0
 15 18  1  0
 16 21  2  0
 17 16  1  0
 18 17  2  0
 18 19  1  0
 19 20  2  0
 20 21  1  0
  2 22  1  0
  3 23  1  0
  4 24  1  0
  5 25  1  0
  8 26  1  0
  9 27  1  0
 11 28  1  0
 11 29  1  0
 16 30  1  0
 17 31  1  0
 20 32  1  0
M  ISO  8  22  14  23  14  24  14  25  14  26  14  27  14  30  14  31  14
M  ISO  1  32  14
M  END
>  <minimizedAffinity>  (1) 
-5.23313141

>  <minimizedRMSD>  (1) 
1.85955274

$$$$
