
     RDKit          3D

 34 36  0  0  0  0  0  0  0  0999 V2000
   48.3610   34.0820   41.7010 C   0  0  0  0  0  0  0  0  0  0  0  0
   49.3310   34.7280   42.4820 C   0  0  0  0  0  0  0  0  0  0  0  0
   50.5660   34.1510   42.6220 C   0  0  0  0  0  0  0  0  0  0  0  0
   50.8880   32.9350   42.0080 C   0  0  0  0  0  0  0  0  0  0  0  0
   49.9230   32.3000   41.2350 C   0  0  0  0  0  0  0  0  0  0  0  0
   48.6850   32.8820   41.0980 C   0  0  0  0  0  0  0  0  0  0  0  0
   47.5940   32.3640   40.3460 N   0  0  0  0  0  0  0  0  0  0  0  0
   47.5790   32.5670   38.9080 C   0  0  0  0  0  0  0  0  0  0  0  0
   46.1260   32.9430   38.6100 C   0  0  0  0  0  0  0  0  0  0  0  0
   45.3450   31.6680   38.8430 C   0  0  0  0  0  0  0  0  0  0  0  0
   45.4470   31.1590   40.2430 C   0  0  0  0  0  0  0  0  0  0  0  0
   46.5700   31.6710   41.0440 C   0  0  0  0  0  0  0  0  0  0  0  0
   46.7950   34.9080   41.5820 S   0  0  0  0  0  0  0  0  0  0  0  0
   44.5100   35.9530   44.7700 C   0  0  0  0  0  0  0  0  0  0  0  0
   45.1120   35.9790   43.5070 C   0  0  0  0  0  0  0  0  0  0  0  0
   45.9950   34.9400   43.1680 C   0  0  0  0  0  0  0  0  0  0  0  0
   46.2260   33.9430   44.1000 N   0  0  0  0  0  0  0  0  0  0  0  0
   45.6270   33.9520   45.3070 C   0  0  0  0  0  0  0  0  0  0  0  0
   44.7790   34.9370   45.6490 N   0  0  0  0  0  0  0  0  0  0  0  0
   49.1033   35.6845   42.9752 H   0  0  0  0  0  0  0  0  0  0  0  0
   51.3262   34.6580   43.2345 H   0  0  0  0  0  0  0  0  0  0  0  0
   51.8861   32.4903   42.1349 H   0  0  0  0  0  0  0  0  0  0  0  0
   50.1470   31.3440   40.7392 H   0  0  0  0  0  0  0  0  0  0  0  0
   48.2616   33.3799   38.6194 H   0  0  0  0  0  0  0  0  0  0  0  0
   47.9133   31.6807   38.3488 H   0  0  0  0  0  0  0  0  0  0  0  0
   46.0180   33.2794   37.5683 H   0  0  0  0  0  0  0  0  0  0  0  0
   45.7716   33.7702   39.2425 H   0  0  0  0  0  0  0  0  0  0  0  0
   44.2857   31.8617   38.6185 H   0  0  0  0  0  0  0  0  0  0  0  0
   45.7748   30.8984   38.1850 H   0  0  0  0  0  0  0  0  0  0  0  0
   44.7221   30.4404   40.6532 H   0  0  0  0  0  0  0  0  0  0  0  0
   46.6142   31.5237   42.1332 H   0  0  0  0  0  0  0  0  0  0  0  0
   43.8150   36.7550   45.0595 H   0  0  0  0  0  0  0  0  0  0  0  0
   44.8993   36.7923   42.7976 H   0  0  0  0  0  0  0  0  0  0  0  0
   45.8349   33.1423   46.0220 H   0  0  0  0  0  0  0  0  0  0  0  0
  1  2  2  0
  2  3  1  0
  4  3  2  0
  5  4  1  0
  6  5  2  0
  6  1  1  0
  7 12  1  0
  7  6  1  0
  8  7  1  0
  9 10  1  0
  9  8  1  0
 10 11  1  0
 11 12  2  0
 13  1  1  0
 13 16  1  0
 14 19  2  0
 15 14  1  0
 16 15  2  0
 16 17  1  0
 17 18  2  0
 18 19  1  0
  2 20  1  0
  3 21  1  0
  4 22  1  0
  5 23  1  0
  8 24  1  0
  8 25  1  0
  9 26  1  0
  9 27  1  0
 10 28  1  0
 10 29  1  0
 11 30  1  0
 12 31  1  0
 14 32  1  0
 15 33  1  0
 18 34  1  0
M  ISO  8  20  14  21  14  22  14  23  14  24  13  25  13  26  13  27  13
M  ISO  7  28  13  29  13  30  13  31  13  32  14  33  14  34  14
M  END
>  <minimizedAffinity>  (1) 
-4.82999897

>  <minimizedRMSD>  (1) 
0.75327605

$$$$
