
     RDKit          3D

 33 35  0  0  0  0  0  0  0  0999 V2000
   48.3430   33.9790   41.6680 C   0  0  0  0  0  0  0  0  0  0  0  0
   49.2330   34.7200   42.4350 C   0  0  0  0  0  0  0  0  0  0  0  0
   50.5070   34.2400   42.6230 C   0  0  0  0  0  0  0  0  0  0  0  0
   50.9330   33.0280   42.0630 C   0  0  0  0  0  0  0  0  0  0  0  0
   50.0300   32.2840   41.2880 C   0  0  0  0  0  0  0  0  0  0  0  0
   48.7510   32.7890   41.1140 C   0  0  0  0  0  0  0  0  0  0  0  0
   47.8400   32.0310   40.3280 N   0  0  0  0  0  0  0  0  0  0  0  0
   46.9080   31.0330   40.8230 C   0  0  0  0  0  0  0  0  0  0  0  0
   46.1600   30.5810   39.5880 C   0  0  0  0  0  0  0  0  0  0  0  0
   46.2360   31.8210   38.7200 C   0  0  0  0  0  0  0  0  0  0  0  0
   47.7230   32.1620   38.8890 C   0  0  0  0  0  0  0  0  0  0  0  0
   46.7180   34.6430   41.4600 S   0  0  0  0  0  0  0  0  0  0  0  0
   44.5520   36.0840   44.5960 C   0  0  0  0  0  0  0  0  0  0  0  0
   45.1410   35.9860   43.3270 C   0  0  0  0  0  0  0  0  0  0  0  0
   45.9300   34.8610   43.0390 C   0  0  0  0  0  0  0  0  0  0  0  0
   46.0790   33.9150   44.0270 N   0  0  0  0  0  0  0  0  0  0  0  0
   45.5030   34.0340   45.2360 C   0  0  0  0  0  0  0  0  0  0  0  0
   44.7410   35.1100   45.5300 N   0  0  0  0  0  0  0  0  0  0  0  0
   48.9233   35.6750   42.8844 H   0  0  0  0  0  0  0  0  0  0  0  0
   51.2132   34.8244   43.2310 H   0  0  0  0  0  0  0  0  0  0  0  0
   51.9584   32.6657   42.2282 H   0  0  0  0  0  0  0  0  0  0  0  0
   50.3284   31.3284   40.8322 H   0  0  0  0  0  0  0  0  0  0  0  0
   47.4457   30.1912   41.2837 H   0  0  0  0  0  0  0  0  0  0  0  0
   46.2383   31.4298   41.6002 H   0  0  0  0  0  0  0  0  0  0  0  0
   46.6557   29.7238   39.1089 H   0  0  0  0  0  0  0  0  0  0  0  0
   45.1353   30.2333   39.7857 H   0  0  0  0  0  0  0  0  0  0  0  0
   45.5859   32.6248   39.0959 H   0  0  0  0  0  0  0  0  0  0  0  0
   45.9035   31.6843   37.6804 H   0  0  0  0  0  0  0  0  0  0  0  0
   48.3700   31.4479   38.3586 H   0  0  0  0  0  0  0  0  0  0  0  0
   48.0273   33.1379   38.4828 H   0  0  0  0  0  0  0  0  0  0  0  0
   43.9299   36.9577   44.8403 H   0  0  0  0  0  0  0  0  0  0  0  0
   44.9882   36.7732   42.5740 H   0  0  0  0  0  0  0  0  0  0  0  0
   45.6534   33.2490   45.9917 H   0  0  0  0  0  0  0  0  0  0  0  0
  1  2  2  0
  2  3  1  0
  4  3  2  0
  5  4  1  0
  6  5  2  0
  6  1  1  0
  7  8  1  0
  7  6  1  0
  9  8  1  0
 10 11  1  0
 10  9  1  0
 11  7  1  0
 12  1  1  0
 12 15  1  0
 13 18  2  0
 14 13  1  0
 15 14  2  0
 15 16  1  0
 16 17  2  0
 17 18  1  0
  2 19  1  0
  3 20  1  0
  4 21  1  0
  5 22  1  0
  8 23  1  0
  8 24  1  0
  9 25  1  0
  9 26  1  0
 10 27  1  0
 10 28  1  0
 11 29  1  0
 11 30  1  0
 13 31  1  0
 14 32  1  0
 17 33  1  0
M  ISO  8  19  14  20  14  21  14  22  14  23  13  24  13  25  13  26  13
M  ISO  7  27  13  28  13  29  13  30  13  31  14  32  14  33  14
M  END
>  <minimizedAffinity>  (1) 
-4.70967579

>  <minimizedRMSD>  (1) 
0.575377822

$$$$
