
     RDKit          3D

 28 30  0  0  0  0  0  0  0  0999 V2000
   48.3270   33.9690   41.6460 C   0  0  0  0  0  0  0  0  0  0  0  0
   49.2220   34.7070   42.4310 C   0  0  0  0  0  0  0  0  0  0  0  0
   50.5060   34.2340   42.6300 C   0  0  0  0  0  0  0  0  0  0  0  0
   50.9310   33.0350   42.0670 C   0  0  0  0  0  0  0  0  0  0  0  0
   50.0490   32.2980   41.2870 C   0  0  0  0  0  0  0  0  0  0  0  0
   48.7870   32.7930   41.1090 C   0  0  0  0  0  0  0  0  0  0  0  0
   47.8530   32.0240   40.2890 C   0  0  0  0  0  0  0  0  0  0  0  0
   47.0480   30.9520   40.6750 C   0  0  0  0  0  0  0  0  0  0  0  0
   46.3250   30.5310   39.5780 C   0  0  0  0  0  0  0  0  0  0  0  0
   46.7140   31.3590   38.5600 C   0  0  0  0  0  0  0  0  0  0  0  0
   47.5880   32.1970   39.0090 O   0  0  0  0  0  0  0  0  0  0  0  0
   46.7090   34.6360   41.4360 S   0  0  0  0  0  0  0  0  0  0  0  0
   44.5600   36.0740   44.5930 C   0  0  0  0  0  0  0  0  0  0  0  0
   45.1460   35.9750   43.3110 C   0  0  0  0  0  0  0  0  0  0  0  0
   45.9320   34.8440   43.0220 C   0  0  0  0  0  0  0  0  0  0  0  0
   46.0810   33.8920   44.0250 N   0  0  0  0  0  0  0  0  0  0  0  0
   45.5050   34.0280   45.2270 C   0  0  0  0  0  0  0  0  0  0  0  0
   44.7450   35.1080   45.5240 N   0  0  0  0  0  0  0  0  0  0  0  0
   48.9054   35.6570   42.8864 H   0  0  0  0  0  0  0  0  0  0  0  0
   51.2057   34.8178   43.2461 H   0  0  0  0  0  0  0  0  0  0  0  0
   51.9559   32.6739   42.2379 H   0  0  0  0  0  0  0  0  0  0  0  0
   50.3559   31.3469   40.8274 H   0  0  0  0  0  0  0  0  0  0  0  0
   46.9981   30.5160   41.6837 H   0  0  0  0  0  0  0  0  0  0  0  0
   45.5952   29.7093   39.5316 H   0  0  0  0  0  0  0  0  0  0  0  0
   46.3420   31.3174   37.5257 H   0  0  0  0  0  0  0  0  0  0  0  0
   43.9429   36.9508   44.8390 H   0  0  0  0  0  0  0  0  0  0  0  0
   44.9917   36.7620   42.5581 H   0  0  0  0  0  0  0  0  0  0  0  0
   45.6526   33.2468   45.9873 H   0  0  0  0  0  0  0  0  0  0  0  0
  1  2  2  0
  2  3  1  0
  4  3  2  0
  5  4  1  0
  6  5  2  0
  6  1  1  0
  7  8  2  0
  7  6  1  0
  9  8  1  0
 10 11  1  0
 10  9  2  0
 11  7  1  0
 12  1  1  0
 12 15  1  0
 13 18  2  0
 14 13  1  0
 15 14  2  0
 15 16  1  0
 16 17  2  0
 17 18  1  0
  2 19  1  0
  3 20  1  0
  4 21  1  0
  5 22  1  0
  8 23  1  0
  9 24  1  0
 10 25  1  0
 13 26  1  0
 14 27  1  0
 17 28  1  0
M  ISO  8  19  14  20  14  21  14  22  14  23  14  24  14  25  14  26  14
M  ISO  2  27  14  28  14
M  END
>  <minimizedAffinity>  (1) 
-4.689569

>  <minimizedRMSD>  (1) 
0.279870331

$$$$
