
     RDKit          3D

 28 30  0  0  0  0  0  0  0  0999 V2000
   48.3010   33.9160   41.6800 C   0  0  0  0  0  0  0  0  0  0  0  0
   49.1940   34.7190   42.3900 C   0  0  0  0  0  0  0  0  0  0  0  0
   50.4840   34.2980   42.6000 C   0  0  0  0  0  0  0  0  0  0  0  0
   50.9290   33.0650   42.1100 C   0  0  0  0  0  0  0  0  0  0  0  0
   50.0440   32.2680   41.4050 C   0  0  0  0  0  0  0  0  0  0  0  0
   48.7480   32.6970   41.1980 C   0  0  0  0  0  0  0  0  0  0  0  0
   47.6970   31.9500   40.4640 C   0  0  0  0  0  0  0  0  0  0  0  0
   47.7190   31.9140   38.9680 C   0  0  0  0  0  0  0  0  0  0  0  0
   48.0410   30.6810   39.7400 C   0  0  0  0  0  0  0  0  0  0  0  0
   46.6630   34.5580   41.4700 S   0  0  0  0  0  0  0  0  0  0  0  0
   44.5540   36.0930   44.5990 C   0  0  0  0  0  0  0  0  0  0  0  0
   45.1340   35.9550   43.3220 C   0  0  0  0  0  0  0  0  0  0  0  0
   45.8960   34.8080   43.0560 C   0  0  0  0  0  0  0  0  0  0  0  0
   46.0340   33.8690   44.0770 N   0  0  0  0  0  0  0  0  0  0  0  0
   45.4640   34.0480   45.2710 C   0  0  0  0  0  0  0  0  0  0  0  0
   44.7300   35.1310   45.5580 N   0  0  0  0  0  0  0  0  0  0  0  0
   48.8638   35.6920   42.7826 H   0  0  0  0  0  0  0  0  0  0  0  0
   51.1784   34.9398   43.1621 H   0  0  0  0  0  0  0  0  0  0  0  0
   51.9641   32.7350   42.2822 H   0  0  0  0  0  0  0  0  0  0  0  0
   50.3723   31.2951   41.0105 H   0  0  0  0  0  0  0  0  0  0  0  0
   46.9592   32.2336   41.2290 H   0  0  0  0  0  0  0  0  0  0  0  0
   48.5129   32.4403   38.4177 H   0  0  0  0  0  0  0  0  0  0  0  0
   46.9997   32.1673   38.1752 H   0  0  0  0  0  0  0  0  0  0  0  0
   47.3365   29.8363   39.7459 H   0  0  0  0  0  0  0  0  0  0  0  0
   48.8858   29.9769   39.7636 H   0  0  0  0  0  0  0  0  0  0  0  0
   43.9522   36.9847   44.8285 H   0  0  0  0  0  0  0  0  0  0  0  0
   44.9925   36.7282   42.5525 H   0  0  0  0  0  0  0  0  0  0  0  0
   45.6020   33.2795   46.0458 H   0  0  0  0  0  0  0  0  0  0  0  0
  1  2  2  0
  2  3  1  0
  4  3  2  0
  5  4  1  0
  6  5  2  0
  6  1  1  0
  7  6  1  0
  8  9  1  0
  8  7  1  0
  9  7  1  0
 10  1  1  0
 10 13  1  0
 11 16  2  0
 12 11  1  0
 13 12  2  0
 13 14  1  0
 14 15  2  0
 15 16  1  0
  2 17  1  0
  3 18  1  0
  4 19  1  0
  5 20  1  0
  7 21  1  0
  8 22  1  0
  8 23  1  0
  9 24  1  0
  9 25  1  0
 11 26  1  0
 12 27  1  0
 15 28  1  0
M  ISO  8  17  14  18  14  19  14  20  14  21  13  22  13  23  13  24  13
M  ISO  4  25  13  26  14  27  14  28  14
M  END
>  <minimizedAffinity>  (1) 
-4.54828072

>  <minimizedRMSD>  (1) 
0.837647259

$$$$
