
     RDKit          3D

 23 24  0  0  0  0  0  0  0  0999 V2000
   48.3050   34.0010   41.7510 C   0  0  0  0  0  0  0  0  0  0  0  0
   49.2260   34.7700   42.4410 C   0  0  0  0  0  0  0  0  0  0  0  0
   50.5020   34.3000   42.6080 C   0  0  0  0  0  0  0  0  0  0  0  0
   50.9050   33.0560   42.0990 C   0  0  0  0  0  0  0  0  0  0  0  0
   49.9820   32.2710   41.4020 C   0  0  0  0  0  0  0  0  0  0  0  0
   48.7220   32.7750   41.2570 C   0  0  0  0  0  0  0  0  0  0  0  0
   47.7190   31.9850   40.5320 C   0  0  0  0  0  0  0  0  0  0  0  0
   47.6720   31.9240   39.2590 O   0  0  0  0  0  0  0  0  0  0  0  0
   46.6700   34.6550   41.5650 S   0  0  0  0  0  0  0  0  0  0  0  0
   44.5020   35.9790   44.7560 C   0  0  0  0  0  0  0  0  0  0  0  0
   45.0710   35.9090   43.4800 C   0  0  0  0  0  0  0  0  0  0  0  0
   45.9070   34.8140   43.1720 C   0  0  0  0  0  0  0  0  0  0  0  0
   46.1130   33.8750   44.1600 N   0  0  0  0  0  0  0  0  0  0  0  0
   45.5560   33.9690   45.3690 C   0  0  0  0  0  0  0  0  0  0  0  0
   44.7490   35.0160   45.6780 N   0  0  0  0  0  0  0  0  0  0  0  0
   48.9364   35.7487   42.8512 H   0  0  0  0  0  0  0  0  0  0  0  0
   51.2308   34.9149   43.1563 H   0  0  0  0  0  0  0  0  0  0  0  0
   51.9361   32.7024   42.2469 H   0  0  0  0  0  0  0  0  0  0  0  0
   50.2591   31.2901   40.9885 H   0  0  0  0  0  0  0  0  0  0  0  0
   46.9748   31.4205   41.1128 H   0  0  0  0  0  0  0  0  0  0  0  0
   43.8472   36.8243   45.0141 H   0  0  0  0  0  0  0  0  0  0  0  0
   44.8712   36.6907   42.7324 H   0  0  0  0  0  0  0  0  0  0  0  0
   45.7525   33.1913   46.1218 H   0  0  0  0  0  0  0  0  0  0  0  0
  1  2  2  0
  2  3  1  0
  4  3  2  0
  5  4  1  0
  6  5  2  0
  6  1  1  0
  7  6  1  0
  8  7  2  0
  9  1  1  0
  9 12  1  0
 10 15  2  0
 11 10  1  0
 12 11  2  0
 12 13  1  0
 13 14  2  0
 14 15  1  0
  2 16  1  0
  3 17  1  0
  4 18  1  0
  5 19  1  0
  7 20  1  0
 10 21  1  0
 11 22  1  0
 14 23  1  0
M  ISO  8  16  14  17  14  18  14  19  14  20   6  21  14  22  14  23  14
M  END
>  <minimizedAffinity>  (1) 
-4.49245739

>  <minimizedRMSD>  (1) 
0.302848101

$$$$
