
     RDKit          3D

 55 58  0  0  1  0  0  0  0  0999 V2000
   47.9130   34.4960   41.2410 C   0  0  2  0  0  0  0  0  0  0  0  0
   48.6300   35.6400   41.6240 C   0  0  0  0  0  0  0  0  0  0  0  0
   49.9420   35.1600   42.3050 C   0  0  0  0  0  0  0  0  0  0  0  0
   49.9490   33.6450   42.2620 C   0  0  0  0  0  0  0  0  0  0  0  0
   48.5330   33.3380   42.1250 C   0  0  1  0  0  0  0  0  0  0  0  0
   47.9550   33.9500   39.8650 C   0  0  0  0  0  0  0  0  0  0  0  0
   48.4220   34.7620   38.8620 C   0  0  0  0  0  0  0  0  0  0  0  0
   48.4840   34.3110   37.5600 C   0  0  0  0  0  0  0  0  0  0  0  0
   48.0550   33.0210   37.3500 N   0  0  0  0  0  0  0  0  0  0  0  0
   47.6090   32.2630   38.3430 C   0  0  0  0  0  0  0  0  0  0  0  0
   47.5490   32.7070   39.6100 N   0  0  0  0  0  0  0  0  0  0  0  0
   47.8430   33.3410   43.4580 C   0  0  0  0  0  0  0  0  0  0  0  0
   46.4220   32.9120   43.3440 C   0  0  0  0  0  0  0  0  0  0  0  0
   45.6160   33.9400   44.0660 C   0  0  0  0  0  0  0  0  0  0  0  0
   44.7990   34.9060   43.5440 C   0  0  0  0  0  0  0  0  0  0  0  0
   44.2800   35.6100   44.5880 N   0  0  0  0  0  0  0  0  0  0  0  0
   44.7660   35.0900   45.7150 C   0  0  0  0  0  0  0  0  0  0  0  0
   45.5680   34.0900   45.4360 N   0  0  0  0  0  0  0  0  0  0  0  0
   46.3010   33.2570   46.3820 C   0  0  0  0  0  0  0  0  0  0  0  0
   45.4350   32.3640   47.2070 C   0  0  0  0  0  0  0  0  0  0  0  0
   45.8660   32.3740   48.6730 C   0  0  0  0  0  0  0  0  0  0  0  0
   45.1000   31.3420   49.4420 C   0  0  0  0  0  0  0  0  0  0  0  0
   45.1900   29.9550   48.8820 C   0  0  0  0  0  0  0  0  0  0  0  0
   46.0950   29.9750   47.6780 C   0  0  0  0  0  0  0  0  0  0  0  0
   45.5770   30.9650   46.6630 C   0  0  0  0  0  0  0  0  0  0  0  0
   46.8664   34.8163   41.3511 H   0  0  0  0  0  0  0  0  0  0  0  0
   48.8668   36.2491   40.7391 H   0  0  0  0  0  0  0  0  0  0  0  0
   48.0368   36.2568   42.3152 H   0  0  0  0  0  0  0  0  0  0  0  0
   50.8133   35.5553   41.7623 H   0  0  0  0  0  0  0  0  0  0  0  0
   49.9933   35.5186   43.3436 H   0  0  0  0  0  0  0  0  0  0  0  0
   50.5235   33.2725   41.4011 H   0  0  0  0  0  0  0  0  0  0  0  0
   50.4202   33.1792   43.1401 H   0  0  0  0  0  0  0  0  0  0  0  0
   48.4046   32.3413   41.6776 H   0  0  0  0  0  0  0  0  0  0  0  0
   48.7507   35.7846   39.0992 H   0  0  0  0  0  0  0  0  0  0  0  0
   48.8538   34.9440   36.7399 H   0  0  0  0  0  0  0  0  0  0  0  0
   47.2775   31.2376   38.1222 H   0  0  0  0  0  0  0  0  0  0  0  0
   48.3703   32.6516   44.1338 H   0  0  0  0  0  0  0  0  0  0  0  0
   47.8603   34.3684   43.8505 H   0  0  0  0  0  0  0  0  0  0  0  0
   46.1216   32.8657   42.2868 H   0  0  0  0  0  0  0  0  0  0  0  0
   46.2705   31.9106   43.7733 H   0  0  0  0  0  0  0  0  0  0  0  0
   44.5983   35.0816   42.4768 H   0  0  0  0  0  0  0  0  0  0  0  0
   44.5297   35.4464   46.7285 H   0  0  0  0  0  0  0  0  0  0  0  0
   47.0046   32.6289   45.8160 H   0  0  0  0  0  0  0  0  0  0  0  0
   46.8074   33.9402   47.0797 H   0  0  0  0  0  0  0  0  0  0  0  0
   44.3939   32.7157   47.1571 H   0  0  0  0  0  0  0  0  0  0  0  0
   46.9414   32.1518   48.7375 H   0  0  0  0  0  0  0  0  0  0  0  0
   45.6624   33.3666   49.1012 H   0  0  0  0  0  0  0  0  0  0  0  0
   45.4878   31.3227   50.4712 H   0  0  0  0  0  0  0  0  0  0  0  0
   44.0407   31.6333   49.3864 H   0  0  0  0  0  0  0  0  0  0  0  0
   45.6017   29.2753   49.6426 H   0  0  0  0  0  0  0  0  0  0  0  0
   44.1890   29.6039   48.5911 H   0  0  0  0  0  0  0  0  0  0  0  0
   47.1089   30.2676   47.9885 H   0  0  0  0  0  0  0  0  0  0  0  0
   46.1195   28.9723   47.2264 H   0  0  0  0  0  0  0  0  0  0  0  0
   44.5903   30.6243   46.3162 H   0  0  0  0  0  0  0  0  0  0  0  0
   46.3135   31.0079   45.8471 H   0  0  0  0  0  0  0  0  0  0  0  0
  1  2  1  0
  1  5  1  0
  2  3  1  0
  4  3  1  0
  5  4  1  0
  5 12  1  0
  6  1  1  0
  7  6  2  0
  8  7  1  0
  9  8  2  0
  9 10  1  0
 10 11  2  0
 11  6  1  0
 13 12  1  0
 13 14  1  0
 14 18  1  0
 15 14  2  0
 15 16  1  0
 16 17  2  0
 18 17  1  0
 18 19  1  0
 19 20  1  0
 20 21  1  0
 21 22  1  0
 23 22  1  0
 24 23  1  0
 25 20  1  0
 25 24  1  0
  1 26  1  1
  2 27  1  0
  2 28  1  0
  3 29  1  0
  3 30  1  0
  4 31  1  0
  4 32  1  0
  5 33  1  6
  7 34  1  0
  8 35  1  0
 10 36  1  0
 12 37  1  0
 12 38  1  0
 13 39  1  0
 13 40  1  0
 15 41  1  0
 17 42  1  0
 19 43  1  0
 19 44  1  0
 20 45  1  0
 21 46  1  0
 21 47  1  0
 22 48  1  0
 22 49  1  0
 23 50  1  0
 23 51  1  0
 24 52  1  0
 24 53  1  0
 25 54  1  0
 25 55  1  0
M  ISO  8  26  13  27  13  28  13  29  13  30  13  31  13  32  13  33  13
M  ISO  8  34  14  35  14  36  14  37   8  38   8  39   8  40   8  41  14
M  ISO  8  42  14  43   8  44   8  45  13  46  13  47  13  48  13  49  13
M  ISO  6  50  13  51  13  52  13  53  13  54  13  55  13
M  END
>  <minimizedAffinity>  (1) 
-6.47749996

>  <minimizedRMSD>  (1) 
0.922472179

$$$$
