
     RDKit          3D

 36 39  0  0  0  0  0  0  0  0999 V2000
   44.7670   35.5100   45.1670 C   0  0  0  0  0  0  0  0  0  0  0  0
   44.2430   35.5910   43.8710 C   0  0  0  0  0  0  0  0  0  0  0  0
   44.4780   34.5070   43.0200 C   0  0  0  0  0  0  0  0  0  0  0  0
   45.2040   33.4340   43.5030 N   0  0  0  0  0  0  0  0  0  0  0  0
   45.6890   33.4050   44.7590 C   0  0  0  0  0  0  0  0  0  0  0  0
   45.4750   34.4380   45.6000 N   0  0  0  0  0  0  0  0  0  0  0  0
   46.4280   32.3030   45.2370 N   0  0  0  0  0  0  0  0  0  0  0  0
   47.3440   31.5760   44.5720 C   0  0  0  0  0  0  0  0  0  0  0  0
   47.8530   30.5950   45.3400 N   0  0  0  0  0  0  0  0  0  0  0  0
   47.2580   30.6820   46.5310 C   0  0  0  0  0  0  0  0  0  0  0  0
   47.2970   30.0230   47.7420 C   0  0  0  0  0  0  0  0  0  0  0  0
   48.0870   29.0510   47.8460 O   0  0  0  0  0  0  0  0  0  0  0  0
   46.5820   30.3040   48.8240 N   0  0  0  0  0  0  0  0  0  0  0  0
   45.7200   31.3580   48.7210 C   0  0  0  0  0  0  0  0  0  0  0  0
   44.9160   31.7150   49.8580 N   0  0  0  0  0  0  0  0  0  0  0  0
   45.6360   32.0420   47.5660 N   0  0  0  0  0  0  0  0  0  0  0  0
   46.3630   31.7480   46.4790 C   0  0  0  0  0  0  0  0  0  0  0  0
   43.8650   34.4820   41.3460 S   0  0  0  0  0  0  0  0  0  0  0  0
   42.1710   33.9700   41.3150 C   0  0  0  0  0  0  0  0  0  0  0  0
   41.9290   32.6080   41.1650 C   0  0  0  0  0  0  0  0  0  0  0  0
   40.6340   32.1630   41.1360 C   0  0  0  0  0  0  0  0  0  0  0  0
   39.5390   33.0350   41.2510 C   0  0  0  0  0  0  0  0  0  0  0  0
   39.8070   34.3780   41.3980 C   0  0  0  0  0  0  0  0  0  0  0  0
   41.1120   34.8370   41.4290 C   0  0  0  0  0  0  0  0  0  0  0  0
   41.4790   36.1720   41.5740 O   0  0  0  0  0  0  0  0  0  0  0  0
   44.5978   36.3476   45.8597 H   0  0  0  0  0  0  0  0  0  0  0  0
   43.6713   36.4694   43.5370 H   0  0  0  0  0  0  0  0  0  0  0  0
   47.6405   31.7606   43.5289 H   0  0  0  0  0  0  0  0  0  0  0  0
   46.6722   29.7578   49.6926 H   0  0  0  0  0  0  0  0  0  0  0  0
   44.2608   32.5074   49.7970 H   0  0  0  0  0  0  0  0  0  0  0  0
   44.9952   31.1784   50.7336 H   0  0  0  0  0  0  0  0  0  0  0  0
   42.7651   31.8994   41.0711 H   0  0  0  0  0  0  0  0  0  0  0  0
   40.4451   31.0857   41.0186 H   0  0  0  0  0  0  0  0  0  0  0  0
   38.5055   32.6592   41.2246 H   0  0  0  0  0  0  0  0  0  0  0  0
   38.9758   35.0924   41.4916 H   0  0  0  0  0  0  0  0  0  0  0  0
   40.7826   36.8699   41.6634 H   0  0  0  0  0  0  0  0  0  0  0  0
  1  6  2  0
  2  1  1  0
  3  4  1  0
  3  2  2  0
  4  5  2  0
  5  7  1  0
  5  6  1  0
  7 17  1  0
  8  7  1  0
  8  9  2  0
  9 10  1  0
 10 11  1  0
 11 12  2  0
 11 13  1  0
 14 13  1  0
 14 15  1  0
 16 14  2  0
 17 10  2  0
 17 16  1  0
 18  3  1  0
 19 18  1  0
 19 24  1  0
 20 19  2  0
 21 20  1  0
 21 22  2  0
 22 23  1  0
 23 24  2  0
 24 25  1  0
  1 26  1  0
  2 27  1  0
  8 28  1  0
 13 29  1  0
 15 30  1  0
 15 31  1  0
 20 32  1  0
 21 33  1  0
 22 34  1  0
 23 35  1  0
 25 36  1  0
M  ISO  8  26  14  27  14  28  14  29   9  32  14  33  14  34  14  35  14
M  ISO  1  36   3
M  END
>  <minimizedAffinity>  (1) 
-6.98153448

>  <minimizedRMSD>  (1) 
5.20117235

$$$$
