
     RDKit          3D

 36 39  0  0  0  0  0  0  0  0999 V2000
   44.5280   36.2080   44.4410 C   0  0  0  0  0  0  0  0  0  0  0  0
   45.0960   35.9580   43.1910 C   0  0  0  0  0  0  0  0  0  0  0  0
   45.8460   34.7720   43.0260 C   0  0  0  0  0  0  0  0  0  0  0  0
   45.9650   33.9410   44.1070 N   0  0  0  0  0  0  0  0  0  0  0  0
   45.3990   34.2180   45.3020 C   0  0  0  0  0  0  0  0  0  0  0  0
   44.6900   35.3390   45.4630 N   0  0  0  0  0  0  0  0  0  0  0  0
   45.5600   33.2980   46.4170 C   0  0  0  0  0  0  0  0  0  0  0  0
   44.9800   33.3990   47.6570 C   0  0  0  0  0  0  0  0  0  0  0  0
   45.3460   32.3740   48.4460 N   0  0  0  0  0  0  0  0  0  0  0  0
   46.1790   31.5870   47.7200 C   0  0  0  0  0  0  0  0  0  0  0  0
   46.7860   30.4250   48.1510 C   0  0  0  0  0  0  0  0  0  0  0  0
   47.6050   29.7860   47.2160 C   0  0  0  0  0  0  0  0  0  0  0  0
   47.7650   30.3260   45.9440 C   0  0  0  0  0  0  0  0  0  0  0  0
   47.1250   31.5070   45.5620 C   0  0  0  0  0  0  0  0  0  0  0  0
   46.3160   32.1470   46.4710 C   0  0  0  0  0  0  0  0  0  0  0  0
   46.6150   34.3510   41.4760 S   0  0  0  0  0  0  0  0  0  0  0  0
   48.2850   33.8440   41.7410 C   0  0  0  0  0  0  0  0  0  0  0  0
   49.1430   34.7520   42.3660 C   0  0  0  0  0  0  0  0  0  0  0  0
   50.4440   34.4060   42.5940 C   0  0  0  0  0  0  0  0  0  0  0  0
   50.9440   33.1510   42.2120 C   0  0  0  0  0  0  0  0  0  0  0  0
   50.0980   32.2560   41.5970 C   0  0  0  0  0  0  0  0  0  0  0  0
   48.7740   32.6130   41.3670 C   0  0  0  0  0  0  0  0  0  0  0  0
   47.8270   31.7940   40.7550 O   0  0  0  0  0  0  0  0  0  0  0  0
   43.9405   37.1249   44.5964 H   0  0  0  0  0  0  0  0  0  0  0  0
   44.9636   36.6641   42.3580 H   0  0  0  0  0  0  0  0  0  0  0  0
   44.3050   34.2113   47.9644 H   0  0  0  0  0  0  0  0  0  0  0  0
   45.0494   32.2158   49.4196 H   0  0  0  0  0  0  0  0  0  0  0  0
   46.6349   30.0272   49.1654 H   0  0  0  0  0  0  0  0  0  0  0  0
   48.1239   28.8545   47.4864 H   0  0  0  0  0  0  0  0  0  0  0  0
   48.4125   29.8093   45.2202 H   0  0  0  0  0  0  0  0  0  0  0  0
   47.2657   31.9181   44.5514 H   0  0  0  0  0  0  0  0  0  0  0  0
   48.7723   35.7411   42.6730 H   0  0  0  0  0  0  0  0  0  0  0  0
   51.1142   35.1254   43.0872 H   0  0  0  0  0  0  0  0  0  0  0  0
   51.9950   32.8871   42.4011 H   0  0  0  0  0  0  0  0  0  0  0  0
   50.4665   31.2661   41.2899 H   0  0  0  0  0  0  0  0  0  0  0  0
   46.9009   32.1192   40.6256 H   0  0  0  0  0  0  0  0  0  0  0  0
  1  6  2  0
  2  1  1  0
  3  2  2  0
  3  4  1  0
  4  5  2  0
  5  6  1  0
  5  7  1  0
  7 15  1  0
  7  8  2  0
  8  9  1  0
 10 11  2  0
 10  9  1  0
 12 11  1  0
 13 12  2  0
 14 13  1  0
 14 15  2  0
 15 10  1  0
 16 17  1  0
 16  3  1  0
 17 18  2  0
 18 19  1  0
 20 19  2  0
 21 20  1  0
 22 21  2  0
 22 17  1  0
 23 22  1  0
  1 24  1  0
  2 25  1  0
  8 26  1  0
  9 27  1  0
 11 28  1  0
 12 29  1  0
 13 30  1  0
 14 31  1  0
 18 32  1  0
 19 33  1  0
 20 34  1  0
 21 35  1  0
 23 36  1  0
M  ISO  8  24  14  25  14  26  14  27   9  28  14  29  14  30  14  31  14
M  ISO  5  32  14  33  14  34  14  35  14  36   3
M  END
>  <minimizedAffinity>  (1) 
-6.44857311

>  <minimizedRMSD>  (1) 
0.978952706

$$$$
