
     RDKit          3D

 52 55  0  0  1  0  0  0  0  0999 V2000
   48.0900   34.4060   41.0560 C   0  0  2  0  0  0  0  0  0  0  0  0
   48.6400   35.6370   41.4530 C   0  0  0  0  0  0  0  0  0  0  0  0
   49.8930   35.3230   42.3160 C   0  0  0  0  0  0  0  0  0  0  0  0
   50.0490   33.8180   42.3660 C   0  0  0  0  0  0  0  0  0  0  0  0
   48.6950   33.3620   42.0760 C   0  0  1  0  0  0  0  0  0  0  0  0
   48.3560   33.7920   39.7260 C   0  0  0  0  0  0  0  0  0  0  0  0
   48.3760   34.6280   38.6390 C   0  0  0  0  0  0  0  0  0  0  0  0
   48.6210   34.1340   37.3760 C   0  0  0  0  0  0  0  0  0  0  0  0
   48.8390   32.7720   37.3010 N   0  0  0  0  0  0  0  0  0  0  0  0
   48.8130   31.9970   38.3770 C   0  0  0  0  0  0  0  0  0  0  0  0
   48.5730   32.4810   39.6060 N   0  0  0  0  0  0  0  0  0  0  0  0
   47.8540   33.3520   43.3180 C   0  0  0  0  0  0  0  0  0  0  0  0
   46.3960   33.2580   42.9870 C   0  0  0  0  0  0  0  0  0  0  0  0
   45.6900   34.1460   43.9530 C   0  0  0  0  0  0  0  0  0  0  0  0
   45.2260   35.4120   43.7690 C   0  0  0  0  0  0  0  0  0  0  0  0
   44.6510   35.8340   44.9220 N   0  0  0  0  0  0  0  0  0  0  0  0
   44.7640   34.8330   45.8060 C   0  0  0  0  0  0  0  0  0  0  0  0
   45.3860   33.8080   45.2440 N   0  0  0  0  0  0  0  0  0  0  0  0
   45.6970   32.5310   45.8710 C   0  0  0  0  0  0  0  0  0  0  0  0
   45.9240   32.6320   47.2860 N   0  0  0  0  0  0  0  0  0  0  0  0
   44.9920   31.9510   48.0950 C   0  0  0  0  0  0  0  0  0  0  0  0
   45.4900   31.5340   49.4400 C   0  0  0  0  0  0  0  0  0  0  0  0
   46.6470   30.7850   49.2120 O   0  0  0  0  0  0  0  0  0  0  0  0
   47.6180   31.6740   48.8040 C   0  0  0  0  0  0  0  0  0  0  0  0
   47.2960   32.4530   47.5690 C   0  0  0  0  0  0  0  0  0  0  0  0
   47.0135   34.6289   41.0168 H   0  0  0  0  0  0  0  0  0  0  0  0
   48.9289   36.2236   40.5684 H   0  0  0  0  0  0  0  0  0  0  0  0
   47.9082   36.2250   42.0263 H   0  0  0  0  0  0  0  0  0  0  0  0
   50.7853   35.7777   41.8610 H   0  0  0  0  0  0  0  0  0  0  0  0
   49.7763   35.7332   43.3300 H   0  0  0  0  0  0  0  0  0  0  0  0
   50.7610   33.4647   41.6056 H   0  0  0  0  0  0  0  0  0  0  0  0
   50.4469   33.4453   43.3214 H   0  0  0  0  0  0  0  0  0  0  0  0
   48.7107   32.3388   41.6724 H   0  0  0  0  0  0  0  0  0  0  0  0
   48.1946   35.7042   38.7767 H   0  0  0  0  0  0  0  0  0  0  0  0
   48.6416   34.7812   36.4868 H   0  0  0  0  0  0  0  0  0  0  0  0
   48.9947   30.9186   38.2581 H   0  0  0  0  0  0  0  0  0  0  0  0
   48.1377   32.4873   43.9359 H   0  0  0  0  0  0  0  0  0  0  0  0
   48.0267   34.2923   43.8620 H   0  0  0  0  0  0  0  0  0  0  0  0
   46.2167   33.5976   41.9562 H   0  0  0  0  0  0  0  0  0  0  0  0
   46.0355   32.2213   43.0597 H   0  0  0  0  0  0  0  0  0  0  0  0
   45.3044   35.9956   42.8399 H   0  0  0  0  0  0  0  0  0  0  0  0
   44.3956   34.8590   46.8421 H   0  0  0  0  0  0  0  0  0  0  0  0
   44.8546   31.8444   45.7008 H   0  0  0  0  0  0  0  0  0  0  0  0
   46.6295   32.1643   45.4172 H   0  0  0  0  0  0  0  0  0  0  0  0
   44.1262   32.6128   48.2447 H   0  0  0  0  0  0  0  0  0  0  0  0
   44.7522   31.0200   47.5604 H   0  0  0  0  0  0  0  0  0  0  0  0
   45.7225   32.4183   50.0516 H   0  0  0  0  0  0  0  0  0  0  0  0
   44.7340   30.9484   49.9836 H   0  0  0  0  0  0  0  0  0  0  0  0
   47.7883   32.3896   49.6219 H   0  0  0  0  0  0  0  0  0  0  0  0
   48.5011   31.0663   48.5574 H   0  0  0  0  0  0  0  0  0  0  0  0
   47.7498   31.9301   46.7142 H   0  0  0  0  0  0  0  0  0  0  0  0
   47.6950   33.4629   47.7449 H   0  0  0  0  0  0  0  0  0  0  0  0
  1  2  1  0
  1  5  1  0
  2  3  1  0
  3  4  1  0
  5  4  1  0
  5 12  1  0
  6  1  1  0
  7  6  2  0
  8  7  1  0
  9  8  2  0
  9 10  1  0
 10 11  2  0
 11  6  1  0
 13 12  1  0
 13 14  1  0
 14 18  1  0
 15 14  2  0
 15 16  1  0
 16 17  2  0
 18 17  1  0
 18 19  1  0
 19 20  1  0
 20 25  1  0
 20 21  1  0
 21 22  1  0
 23 22  1  0
 24 23  1  0
 25 24  1  0
  1 26  1  1
  2 27  1  0
  2 28  1  0
  3 29  1  0
  3 30  1  0
  4 31  1  0
  4 32  1  0
  5 33  1  6
  7 34  1  0
  8 35  1  0
 10 36  1  0
 12 37  1  0
 12 38  1  0
 13 39  1  0
 13 40  1  0
 15 41  1  0
 17 42  1  0
 19 43  1  0
 19 44  1  0
 21 45  1  0
 21 46  1  0
 22 47  1  0
 22 48  1  0
 24 49  1  0
 24 50  1  0
 25 51  1  0
 25 52  1  0
M  ISO  8  26  13  27  13  28  13  29  13  30  13  31  13  32  13  33  13
M  ISO  8  34  14  35  14  36  14  37   8  38   8  39   8  40   8  41  14
M  ISO  8  42  14  43   8  44   8  45  13  46  13  47  13  48  13  49  13
M  ISO  3  50  13  51  13  52  13
M  END
>  <minimizedAffinity>  (1) 
-6.3660202

>  <minimizedRMSD>  (1) 
1.23897409

$$$$
