
     RDKit          3D

 35 37  0  0  0  0  0  0  0  0999 V2000
   44.4620   35.9170   44.7570 C   0  0  0  0  0  0  0  0  0  0  0  0
   45.0000   35.8180   43.4750 C   0  0  0  0  0  0  0  0  0  0  0  0
   45.8750   34.7550   43.2100 C   0  0  0  0  0  0  0  0  0  0  0  0
   46.1500   33.8720   44.2410 N   0  0  0  0  0  0  0  0  0  0  0  0
   45.6030   34.0130   45.4630 C   0  0  0  0  0  0  0  0  0  0  0  0
   44.7630   35.0270   45.7290 N   0  0  0  0  0  0  0  0  0  0  0  0
   45.9420   33.0570   46.4630 N   0  0  0  0  0  0  0  0  0  0  0  0
   45.0950   33.0220   47.6640 C   0  0  0  0  0  0  0  0  0  0  0  0
   45.6750   32.1820   48.7520 C   0  0  0  0  0  0  0  0  0  0  0  0
   47.0340   31.9370   48.5840 O   0  0  0  0  0  0  0  0  0  0  0  0
   47.2320   31.2250   47.3990 C   0  0  0  0  0  0  0  0  0  0  0  0
   47.1010   32.1800   46.2320 C   0  0  0  0  0  0  0  0  0  0  0  0
   46.6260   34.5190   41.6170 S   0  0  0  0  0  0  0  0  0  0  0  0
   48.2820   33.9290   41.8020 C   0  0  0  0  0  0  0  0  0  0  0  0
   49.2020   34.7520   42.4240 C   0  0  0  0  0  0  0  0  0  0  0  0
   50.4980   34.3150   42.5790 C   0  0  0  0  0  0  0  0  0  0  0  0
   50.9120   33.0690   42.1310 C   0  0  0  0  0  0  0  0  0  0  0  0
   49.9910   32.2560   41.5130 C   0  0  0  0  0  0  0  0  0  0  0  0
   48.6840   32.6840   41.3520 C   0  0  0  0  0  0  0  0  0  0  0  0
   47.6700   31.9310   40.7360 O   0  0  0  0  0  0  0  0  0  0  0  0
   43.7725   36.7433   44.9844 H   0  0  0  0  0  0  0  0  0  0  0  0
   44.7460   36.5512   42.6953 H   0  0  0  0  0  0  0  0  0  0  0  0
   44.9731   34.0489   48.0390 H   0  0  0  0  0  0  0  0  0  0  0  0
   44.1306   32.5768   47.3781 H   0  0  0  0  0  0  0  0  0  0  0  0
   45.5283   32.7004   49.7110 H   0  0  0  0  0  0  0  0  0  0  0  0
   45.1601   31.2103   48.7273 H   0  0  0  0  0  0  0  0  0  0  0  0
   48.2366   30.7769   47.3998 H   0  0  0  0  0  0  0  0  0  0  0  0
   46.4835   30.4235   47.3135 H   0  0  0  0  0  0  0  0  0  0  0  0
   46.9536   31.6100   45.3029 H   0  0  0  0  0  0  0  0  0  0  0  0
   48.0148   32.7855   46.1409 H   0  0  0  0  0  0  0  0  0  0  0  0
   48.9019   35.7447   42.7909 H   0  0  0  0  0  0  0  0  0  0  0  0
   51.2275   34.9736   43.0730 H   0  0  0  0  0  0  0  0  0  0  0  0
   51.9525   32.7391   42.2669 H   0  0  0  0  0  0  0  0  0  0  0  0
   50.2931   31.2640   41.1460 H   0  0  0  0  0  0  0  0  0  0  0  0
   46.7561   32.3031   40.6564 H   0  0  0  0  0  0  0  0  0  0  0  0
  1  6  2  0
  2  1  1  0
  3  2  2  0
  3  4  1  0
  4  5  2  0
  5  6  1  0
  5  7  1  0
  7  8  1  0
  8  9  1  0
 10  9  1  0
 11 10  1  0
 12  7  1  0
 12 11  1  0
 13 14  1  0
 13  3  1  0
 14 15  2  0
 15 16  1  0
 17 16  2  0
 18 17  1  0
 19 18  2  0
 19 14  1  0
 20 19  1  0
  1 21  1  0
  2 22  1  0
  8 23  1  0
  8 24  1  0
  9 25  1  0
  9 26  1  0
 11 27  1  0
 11 28  1  0
 12 29  1  0
 12 30  1  0
 15 31  1  0
 16 32  1  0
 17 33  1  0
 18 34  1  0
 20 35  1  0
M  ISO  8  21  14  22  14  23  13  24  13  25  13  26  13  27  13  28  13
M  ISO  7  29  13  30  13  31  14  32  14  33  14  34  14  35   3
M  END
>  <minimizedAffinity>  (1) 
-6.2347827

>  <minimizedRMSD>  (1) 
0.303772122

$$$$
