
     RDKit          3D

 31 33  0  0  0  0  0  0  0  0999 V2000
   44.4700   35.9060   44.7520 C   0  0  0  0  0  0  0  0  0  0  0  0
   45.0240   35.8020   43.4740 C   0  0  0  0  0  0  0  0  0  0  0  0
   45.9010   34.7430   43.2150 C   0  0  0  0  0  0  0  0  0  0  0  0
   46.1750   33.8560   44.2350 N   0  0  0  0  0  0  0  0  0  0  0  0
   45.6260   33.9840   45.4570 C   0  0  0  0  0  0  0  0  0  0  0  0
   44.7770   35.0030   45.7180 N   0  0  0  0  0  0  0  0  0  0  0  0
   45.9550   33.0140   46.4980 C   0  0  0  0  0  0  0  0  0  0  0  0
   45.1840   32.9480   47.6430 C   0  0  0  0  0  0  0  0  0  0  0  0
   45.5280   32.0060   48.6190 C   0  0  0  0  0  0  0  0  0  0  0  0
   46.6200   31.1970   48.3770 C   0  0  0  0  0  0  0  0  0  0  0  0
   47.3880   31.2720   47.2240 C   0  0  0  0  0  0  0  0  0  0  0  0
   47.0120   32.2020   46.3080 N   0  0  0  0  0  0  0  0  0  0  0  0
   46.6510   34.5310   41.6160 S   0  0  0  0  0  0  0  0  0  0  0  0
   48.2950   33.9220   41.7840 C   0  0  0  0  0  0  0  0  0  0  0  0
   49.1990   34.7410   42.4560 C   0  0  0  0  0  0  0  0  0  0  0  0
   50.4990   34.3120   42.6160 C   0  0  0  0  0  0  0  0  0  0  0  0
   50.9350   33.0860   42.1250 C   0  0  0  0  0  0  0  0  0  0  0  0
   50.0340   32.2680   41.4540 C   0  0  0  0  0  0  0  0  0  0  0  0
   48.7340   32.7040   41.2980 C   0  0  0  0  0  0  0  0  0  0  0  0
   47.7290   31.9750   40.6420 O   0  0  0  0  0  0  0  0  0  0  0  0
   43.7767   36.7294   44.9784 H   0  0  0  0  0  0  0  0  0  0  0  0
   44.7771   36.5341   42.6910 H   0  0  0  0  0  0  0  0  0  0  0  0
   44.3230   33.6180   47.7834 H   0  0  0  0  0  0  0  0  0  0  0  0
   44.9472   31.9132   49.5486 H   0  0  0  0  0  0  0  0  0  0  0  0
   46.8960   30.4532   49.1390 H   0  0  0  0  0  0  0  0  0  0  0  0
   48.2543   30.6141   47.0605 H   0  0  0  0  0  0  0  0  0  0  0  0
   48.8802   35.7160   42.8532 H   0  0  0  0  0  0  0  0  0  0  0  0
   51.2128   34.9584   43.1477 H   0  0  0  0  0  0  0  0  0  0  0  0
   51.9786   32.7682   42.2658 H   0  0  0  0  0  0  0  0  0  0  0  0
   50.3506   31.2929   41.0553 H   0  0  0  0  0  0  0  0  0  0  0  0
   46.8155   32.3490   40.5663 H   0  0  0  0  0  0  0  0  0  0  0  0
  1  6  2  0
  2  1  1  0
  3  2  2  0
  3  4  1  0
  4  5  2  0
  5  6  1  0
  5  7  1  0
  7  8  2  0
  8  9  1  0
 10  9  2  0
 11 10  1  0
 12  7  1  0
 12 11  2  0
 13 14  1  0
 13  3  1  0
 14 15  2  0
 15 16  1  0
 17 16  2  0
 18 17  1  0
 19 18  2  0
 19 14  1  0
 20 19  1  0
  1 21  1  0
  2 22  1  0
  8 23  1  0
  9 24  1  0
 10 25  1  0
 11 26  1  0
 15 27  1  0
 16 28  1  0
 17 29  1  0
 18 30  1  0
 20 31  1  0
M  ISO  8  21  14  22  14  23  14  24  14  25  14  26  14  27  14  28  14
M  ISO  3  29  14  30  14  31   3
M  END
>  <minimizedAffinity>  (1) 
-6.1556344

>  <minimizedRMSD>  (1) 
0.333650798

$$$$
