
     RDKit          3D

 29 31  0  0  0  0  0  0  0  0999 V2000
   44.4190   36.1790   44.5610 C   0  0  0  0  0  0  0  0  0  0  0  0
   44.9710   35.9370   43.3010 C   0  0  0  0  0  0  0  0  0  0  0  0
   45.7660   34.7960   43.1360 C   0  0  0  0  0  0  0  0  0  0  0  0
   45.9570   33.9780   44.2300 N   0  0  0  0  0  0  0  0  0  0  0  0
   45.4070   34.2470   45.4280 C   0  0  0  0  0  0  0  0  0  0  0  0
   44.6430   35.3330   45.6090 N   0  0  0  0  0  0  0  0  0  0  0  0
   45.7330   33.2760   46.4120 N   0  0  0  0  0  0  0  0  0  0  0  0
   45.1390   32.9560   47.5250 N   0  0  0  0  0  0  0  0  0  0  0  0
   45.8200   31.9540   48.1530 C   0  0  0  0  0  0  0  0  0  0  0  0
   46.9000   31.6750   47.3240 C   0  0  0  0  0  0  0  0  0  0  0  0
   46.8310   32.5150   46.2330 C   0  0  0  0  0  0  0  0  0  0  0  0
   46.5220   34.3890   41.5670 S   0  0  0  0  0  0  0  0  0  0  0  0
   48.2010   33.9060   41.8090 C   0  0  0  0  0  0  0  0  0  0  0  0
   49.0520   34.8460   42.3980 C   0  0  0  0  0  0  0  0  0  0  0  0
   50.3680   34.5120   42.6050 C   0  0  0  0  0  0  0  0  0  0  0  0
   50.8910   33.2670   42.2490 C   0  0  0  0  0  0  0  0  0  0  0  0
   50.0410   32.3470   41.6680 C   0  0  0  0  0  0  0  0  0  0  0  0
   48.7240   32.6700   41.4570 C   0  0  0  0  0  0  0  0  0  0  0  0
   47.7650   31.8190   40.8750 O   0  0  0  0  0  0  0  0  0  0  0  0
   43.7910   37.0694   44.7121 H   0  0  0  0  0  0  0  0  0  0  0  0
   44.7864   36.6236   42.4616 H   0  0  0  0  0  0  0  0  0  0  0  0
   45.5685   31.4714   49.1089 H   0  0  0  0  0  0  0  0  0  0  0  0
   47.6750   30.9160   47.5066 H   0  0  0  0  0  0  0  0  0  0  0  0
   47.5317   32.5560   45.3860 H   0  0  0  0  0  0  0  0  0  0  0  0
   48.6738   35.8366   42.6907 H   0  0  0  0  0  0  0  0  0  0  0  0
   51.0354   35.2533   43.0688 H   0  0  0  0  0  0  0  0  0  0  0  0
   51.9496   33.0262   42.4263 H   0  0  0  0  0  0  0  0  0  0  0  0
   50.4190   31.3565   41.3747 H   0  0  0  0  0  0  0  0  0  0  0  0
   46.8326   32.1306   40.7583 H   0  0  0  0  0  0  0  0  0  0  0  0
  1  6  2  0
  2  1  1  0
  3  2  2  0
  3  4  1  0
  4  5  2  0
  5  6  1  0
  5  7  1  0
  7  8  1  0
  8  9  2  0
 10  9  1  0
 11  7  1  0
 11 10  2  0
 12 13  1  0
 12  3  1  0
 13 14  2  0
 14 15  1  0
 16 15  2  0
 17 16  1  0
 18 17  2  0
 18 13  1  0
 19 18  1  0
  1 20  1  0
  2 21  1  0
  9 22  1  0
 10 23  1  0
 11 24  1  0
 14 25  1  0
 15 26  1  0
 16 27  1  0
 17 28  1  0
 19 29  1  0
M  ISO  8  20  14  21  14  22  14  23  14  24  14  25  14  26  14  27  14
M  ISO  2  28  14  29   3
M  END
>  <minimizedAffinity>  (1) 
-6.07300711

>  <minimizedRMSD>  (1) 
0.333770961

$$$$
