
     RDKit          3D

 30 32  0  0  0  0  0  0  0  0999 V2000
   44.4680   35.9360   44.7350 C   0  0  0  0  0  0  0  0  0  0  0  0
   45.0110   35.8500   43.4550 C   0  0  0  0  0  0  0  0  0  0  0  0
   45.8830   34.7840   43.1860 C   0  0  0  0  0  0  0  0  0  0  0  0
   46.1420   33.8980   44.1980 N   0  0  0  0  0  0  0  0  0  0  0  0
   45.5940   34.0140   45.4280 C   0  0  0  0  0  0  0  0  0  0  0  0
   44.7620   35.0230   45.7060 N   0  0  0  0  0  0  0  0  0  0  0  0
   45.9500   33.0040   46.4210 C   0  0  0  0  0  0  0  0  0  0  0  0
   46.9860   32.1190   46.2150 C   0  0  0  0  0  0  0  0  0  0  0  0
   47.2180   31.2230   47.2200 C   0  0  0  0  0  0  0  0  0  0  0  0
   46.4930   31.1850   48.3560 N   0  0  0  0  0  0  0  0  0  0  0  0
   45.4770   32.0600   48.5470 C   0  0  0  0  0  0  0  0  0  0  0  0
   45.2520   32.9340   47.5630 N   0  0  0  0  0  0  0  0  0  0  0  0
   46.6390   34.5670   41.5950 S   0  0  0  0  0  0  0  0  0  0  0  0
   48.2820   33.9520   41.7730 C   0  0  0  0  0  0  0  0  0  0  0  0
   49.1950   34.7560   42.4580 C   0  0  0  0  0  0  0  0  0  0  0  0
   50.4950   34.3080   42.6190 C   0  0  0  0  0  0  0  0  0  0  0  0
   50.9230   33.0860   42.1220 C   0  0  0  0  0  0  0  0  0  0  0  0
   50.0160   32.3020   41.4500 C   0  0  0  0  0  0  0  0  0  0  0  0
   48.7150   32.7380   41.2830 C   0  0  0  0  0  0  0  0  0  0  0  0
   47.7080   32.0190   40.6140 O   0  0  0  0  0  0  0  0  0  0  0  0
   43.7825   36.7636   44.9699 H   0  0  0  0  0  0  0  0  0  0  0  0
   44.7646   36.5924   42.6816 H   0  0  0  0  0  0  0  0  0  0  0  0
   47.5903   32.1331   45.2960 H   0  0  0  0  0  0  0  0  0  0  0  0
   48.0357   30.4977   47.0963 H   0  0  0  0  0  0  0  0  0  0  0  0
   44.8695   32.0511   49.4640 H   0  0  0  0  0  0  0  0  0  0  0  0
   48.8861   35.7307   42.8636 H   0  0  0  0  0  0  0  0  0  0  0  0
   51.2127   34.9427   43.1594 H   0  0  0  0  0  0  0  0  0  0  0  0
   51.9619   32.7528   42.2621 H   0  0  0  0  0  0  0  0  0  0  0  0
   50.3255   31.3273   41.0449 H   0  0  0  0  0  0  0  0  0  0  0  0
   46.7973   32.3992   40.5354 H   0  0  0  0  0  0  0  0  0  0  0  0
  1  6  2  0
  2  1  1  0
  3  2  2  0
  3  4  1  0
  4  5  2  0
  5  6  1  0
  5  7  1  0
  7 12  1  0
  8  7  2  0
  8  9  1  0
  9 10  2  0
 10 11  1  0
 12 11  2  0
 13 14  1  0
 13  3  1  0
 14 15  2  0
 15 16  1  0
 17 16  2  0
 18 17  1  0
 19 18  2  0
 19 14  1  0
 20 19  1  0
  1 21  1  0
  2 22  1  0
  8 23  1  0
  9 24  1  0
 11 25  1  0
 15 26  1  0
 16 27  1  0
 17 28  1  0
 18 29  1  0
 20 30  1  0
M  ISO  8  21  14  22  14  23  14  24  14  25  14  26  14  27  14  28  14
M  ISO  2  29  14  30   3
M  END
>  <minimizedAffinity>  (1) 
-6.02962446

>  <minimizedRMSD>  (1) 
0.499173045

$$$$
