
     RDKit          3D

 27 29  0  0  0  0  0  0  0  0999 V2000
   44.4470   36.0490   44.5980 C   0  0  0  0  0  0  0  0  0  0  0  0
   45.0060   35.8890   43.3270 C   0  0  0  0  0  0  0  0  0  0  0  0
   45.8630   34.8060   43.1120 C   0  0  0  0  0  0  0  0  0  0  0  0
   46.1010   33.9580   44.1790 N   0  0  0  0  0  0  0  0  0  0  0  0
   45.5460   34.1420   45.3890 C   0  0  0  0  0  0  0  0  0  0  0  0
   44.7200   35.1810   45.6090 N   0  0  0  0  0  0  0  0  0  0  0  0
   45.8790   33.1700   46.4390 C   0  0  0  0  0  0  0  0  0  0  0  0
   46.9040   32.3130   46.5200 N   0  0  0  0  0  0  0  0  0  0  0  0
   46.8350   31.6230   47.6200 O   0  0  0  0  0  0  0  0  0  0  0  0
   45.7560   32.0340   48.2610 C   0  0  0  0  0  0  0  0  0  0  0  0
   45.1240   33.0060   47.5570 N   0  0  0  0  0  0  0  0  0  0  0  0
   46.6360   34.4930   41.5460 S   0  0  0  0  0  0  0  0  0  0  0  0
   48.2890   33.9250   41.7600 C   0  0  0  0  0  0  0  0  0  0  0  0
   49.1650   34.7910   42.4210 C   0  0  0  0  0  0  0  0  0  0  0  0
   50.4680   34.4060   42.6190 C   0  0  0  0  0  0  0  0  0  0  0  0
   50.9440   33.1650   42.1750 C   0  0  0  0  0  0  0  0  0  0  0  0
   50.0720   32.3160   41.5230 C   0  0  0  0  0  0  0  0  0  0  0  0
   48.7600   32.7110   41.3260 C   0  0  0  0  0  0  0  0  0  0  0  0
   47.7760   31.9420   40.6790 O   0  0  0  0  0  0  0  0  0  0  0  0
   43.7708   36.8963   44.7850 H   0  0  0  0  0  0  0  0  0  0  0  0
   44.7774   36.5971   42.5169 H   0  0  0  0  0  0  0  0  0  0  0  0
   45.4168   31.6424   49.2313 H   0  0  0  0  0  0  0  0  0  0  0  0
   48.8142   35.7703   42.7786 H   0  0  0  0  0  0  0  0  0  0  0  0
   51.1556   35.0890   43.1393 H   0  0  0  0  0  0  0  0  0  0  0  0
   51.9913   32.8732   42.3426 H   0  0  0  0  0  0  0  0  0  0  0  0
   50.4165   31.3351   41.1635 H   0  0  0  0  0  0  0  0  0  0  0  0
   46.8574   32.2971   40.5779 H   0  0  0  0  0  0  0  0  0  0  0  0
  1  6  2  0
  2  1  1  0
  3  2  2  0
  3  4  1  0
  4  5  2  0
  5  6  1  0
  5  7  1  0
  7  8  2  0
  7 11  1  0
  8  9  1  0
  9 10  1  0
 11 10  2  0
 12 13  1  0
 12  3  1  0
 13 14  2  0
 14 15  1  0
 16 15  2  0
 17 16  1  0
 18 17  2  0
 18 13  1  0
 19 18  1  0
  1 20  1  0
  2 21  1  0
 10 22  1  0
 14 23  1  0
 15 24  1  0
 16 25  1  0
 17 26  1  0
 19 27  1  0
M  ISO  8  20  14  21  14  22  14  23  14  24  14  25  14  26  14  27   3
M  END
>  <minimizedAffinity>  (1) 
-5.73642683

>  <minimizedRMSD>  (1) 
0.539721966

$$$$
