
     RDKit          3D

 25 26  0  0  0  0  0  0  0  0999 V2000
   46.6540   34.5990   41.5860 S   0  0  0  0  0  0  0  0  0  0  0  0
   48.2910   33.9680   41.7620 C   0  0  0  0  0  0  0  0  0  0  0  0
   49.2080   34.7550   42.4520 C   0  0  0  0  0  0  0  0  0  0  0  0
   50.4990   34.3010   42.6140 C   0  0  0  0  0  0  0  0  0  0  0  0
   50.9220   33.0730   42.1070 C   0  0  0  0  0  0  0  0  0  0  0  0
   50.0020   32.3130   41.4290 C   0  0  0  0  0  0  0  0  0  0  0  0
   48.7090   32.7580   41.2630 C   0  0  0  0  0  0  0  0  0  0  0  0
   47.7070   32.0540   40.5890 O   0  0  0  0  0  0  0  0  0  0  0  0
   44.4930   35.9530   44.7410 C   0  0  0  0  0  0  0  0  0  0  0  0
   45.0410   35.8830   43.4630 C   0  0  0  0  0  0  0  0  0  0  0  0
   45.8970   34.7920   43.1820 C   0  0  0  0  0  0  0  0  0  0  0  0
   46.1300   33.8780   44.1810 N   0  0  0  0  0  0  0  0  0  0  0  0
   45.5700   33.9960   45.4050 C   0  0  0  0  0  0  0  0  0  0  0  0
   44.7520   35.0270   45.6930 N   0  0  0  0  0  0  0  0  0  0  0  0
   45.8220   33.0080   46.4830 C   0  0  0  0  0  0  0  0  0  0  0  0
   44.9400   33.1550   47.5380 F   0  0  0  0  0  0  0  0  0  0  0  0
   47.1310   33.0890   46.9490 F   0  0  0  0  0  0  0  0  0  0  0  0
   45.6860   31.7060   46.0200 F   0  0  0  0  0  0  0  0  0  0  0  0
   48.9056   35.7292   42.8638 H   0  0  0  0  0  0  0  0  0  0  0  0
   51.2189   34.9276   43.1609 H   0  0  0  0  0  0  0  0  0  0  0  0
   51.9565   32.7256   42.2455 H   0  0  0  0  0  0  0  0  0  0  0  0
   50.3001   31.3389   41.0141 H   0  0  0  0  0  0  0  0  0  0  0  0
   46.7986   32.4395   40.5103 H   0  0  0  0  0  0  0  0  0  0  0  0
   43.8249   36.7919   44.9858 H   0  0  0  0  0  0  0  0  0  0  0  0
   44.8174   36.6454   42.7022 H   0  0  0  0  0  0  0  0  0  0  0  0
  1  2  1  0
  1 11  1  0
  2  3  2  0
  3  4  1  0
  5  4  2  0
  6  5  1  0
  7  6  2  0
  7  2  1  0
  8  7  1  0
  9 14  2  0
 10  9  1  0
 11 10  2  0
 11 12  1  0
 12 13  2  0
 13 14  1  0
 13 15  1  0
 15 17  1  0
 15 16  1  0
 18 15  1  0
  3 19  1  0
  4 20  1  0
  5 21  1  0
  6 22  1  0
  8 23  1  0
  9 24  1  0
 10 25  1  0
M  ISO  7  19  14  20  14  21  14  22  14  23   3  24  14  25  14
M  END
>  <minimizedAffinity>  (1) 
-5.6493845

>  <minimizedRMSD>  (1) 
0.324210018

$$$$
