
     RDKit          3D

 25 26  0  0  0  0  0  0  0  0999 V2000
   46.5490   34.3080   41.5190 S   0  0  0  0  0  0  0  0  0  0  0  0
   48.2320   33.8480   41.7780 C   0  0  0  0  0  0  0  0  0  0  0  0
   49.0680   34.7890   42.3840 C   0  0  0  0  0  0  0  0  0  0  0  0
   50.3910   34.4800   42.6090 C   0  0  0  0  0  0  0  0  0  0  0  0
   50.9180   33.2370   42.2400 C   0  0  0  0  0  0  0  0  0  0  0  0
   50.0890   32.3200   41.6450 C   0  0  0  0  0  0  0  0  0  0  0  0
   48.7700   32.6210   41.4180 C   0  0  0  0  0  0  0  0  0  0  0  0
   47.8320   31.7730   40.8210 O   0  0  0  0  0  0  0  0  0  0  0  0
   44.5090   36.2420   44.4590 C   0  0  0  0  0  0  0  0  0  0  0  0
   45.0650   35.9710   43.1980 C   0  0  0  0  0  0  0  0  0  0  0  0
   45.7960   34.7670   43.0660 C   0  0  0  0  0  0  0  0  0  0  0  0
   45.9080   33.9580   44.1640 N   0  0  0  0  0  0  0  0  0  0  0  0
   45.3560   34.2620   45.3530 C   0  0  0  0  0  0  0  0  0  0  0  0
   44.6600   35.3900   45.5160 N   0  0  0  0  0  0  0  0  0  0  0  0
   45.5420   33.3250   46.4550 C   0  0  0  0  0  0  0  0  0  0  0  0
   46.3920   32.4040   46.3610 O   0  0  0  0  0  0  0  0  0  0  0  0
   44.8080   33.4050   47.6270 O   0  0  0  0  0  0  0  0  0  0  0  0
   48.6716   35.7715   42.6799 H   0  0  0  0  0  0  0  0  0  0  0  0
   51.0454   35.2235   43.0874 H   0  0  0  0  0  0  0  0  0  0  0  0
   51.9764   32.9999   42.4235 H   0  0  0  0  0  0  0  0  0  0  0  0
   50.4844   31.3374   41.3481 H   0  0  0  0  0  0  0  0  0  0  0  0
   46.8979   32.0769   40.6975 H   0  0  0  0  0  0  0  0  0  0  0  0
   43.9341   37.1692   44.5998 H   0  0  0  0  0  0  0  0  0  0  0  0
   44.9380   36.6628   42.3523 H   0  0  0  0  0  0  0  0  0  0  0  0
   44.9625   32.7504   48.3535 H   0  0  0  0  0  0  0  0  0  0  0  0
  1  2  1  0
  1 11  1  0
  2  3  2  0
  3  4  1  0
  5  4  2  0
  6  5  1  0
  7  6  2  0
  7  2  1  0
  8  7  1  0
  9 14  2  0
 10  9  1  0
 11 10  2  0
 11 12  1  0
 12 13  2  0
 13 14  1  0
 13 15  1  0
 15 17  1  0
 16 15  2  0
  3 18  1  0
  4 19  1  0
  5 20  1  0
  6 21  1  0
  8 22  1  0
  9 23  1  0
 10 24  1  0
 17 25  1  0
M  ISO  8  18  14  19  14  20  14  21  14  22   3  23  14  24  14  25   3
M  END
>  <minimizedAffinity>  (1) 
-5.56102943

>  <minimizedRMSD>  (1) 
0.279624701

$$$$
