
     RDKit          3D

 24 25  0  0  0  0  0  0  0  0999 V2000
   48.2970   33.9550   41.7740 C   0  0  0  0  0  0  0  0  0  0  0  0
   49.1960   34.7610   42.4590 C   0  0  0  0  0  0  0  0  0  0  0  0
   50.4870   34.3170   42.6200 C   0  0  0  0  0  0  0  0  0  0  0  0
   50.9230   33.0830   42.1170 C   0  0  0  0  0  0  0  0  0  0  0  0
   50.0120   32.3090   41.4450 C   0  0  0  0  0  0  0  0  0  0  0  0
   48.7150   32.7370   41.2730 C   0  0  0  0  0  0  0  0  0  0  0  0
   47.7140   32.0200   40.6030 O   0  0  0  0  0  0  0  0  0  0  0  0
   46.6420   34.5640   41.5880 S   0  0  0  0  0  0  0  0  0  0  0  0
   44.4770   35.9630   44.7390 C   0  0  0  0  0  0  0  0  0  0  0  0
   45.0310   35.8590   43.4690 C   0  0  0  0  0  0  0  0  0  0  0  0
   45.8810   34.7880   43.1820 C   0  0  0  0  0  0  0  0  0  0  0  0
   46.1200   33.8880   44.1870 N   0  0  0  0  0  0  0  0  0  0  0  0
   45.5660   34.0160   45.4110 C   0  0  0  0  0  0  0  0  0  0  0  0
   44.7550   35.0330   45.6990 N   0  0  0  0  0  0  0  0  0  0  0  0
   45.9120   32.9900   46.3640 C   0  0  0  0  0  0  0  0  0  0  0  0
   45.2810   32.9050   47.4500 O   0  0  0  0  0  0  0  0  0  0  0  0
   48.8820   35.7342   42.8643 H   0  0  0  0  0  0  0  0  0  0  0  0
   51.2030   34.9520   43.1624 H   0  0  0  0  0  0  0  0  0  0  0  0
   51.9611   32.7470   42.2567 H   0  0  0  0  0  0  0  0  0  0  0  0
   50.3213   31.3347   41.0386 H   0  0  0  0  0  0  0  0  0  0  0  0
   46.8031   32.3992   40.5225 H   0  0  0  0  0  0  0  0  0  0  0  0
   43.8073   36.8036   44.9734 H   0  0  0  0  0  0  0  0  0  0  0  0
   44.8031   36.6107   42.6990 H   0  0  0  0  0  0  0  0  0  0  0  0
   46.7254   32.2834   46.1423 H   0  0  0  0  0  0  0  0  0  0  0  0
  1  2  2  0
  2  3  1  0
  4  3  2  0
  5  4  1  0
  6  5  2  0
  6  1  1  0
  7  6  1  0
  8  1  1  0
  8 11  1  0
  9 14  2  0
 10  9  1  0
 11 10  2  0
 11 12  1  0
 12 13  2  0
 13 14  1  0
 13 15  1  0
 15 16  2  0
  2 17  1  0
  3 18  1  0
  4 19  1  0
  5 20  1  0
  7 21  1  0
  9 22  1  0
 10 23  1  0
 15 24  1  0
M  ISO  8  17  14  18  14  19  14  20  14  21   3  22  14  23  14  24   6
M  END
>  <minimizedAffinity>  (1) 
-5.0220089

>  <minimizedRMSD>  (1) 
0.159924015

$$$$
