
     RDKit          3D

 24 26  0  0  0  0  0  0  0  0999 V2000
   44.5840   35.5640   45.2590 C   0  0  0  0  0  0  0  0  0  0  0  0
   44.3730   35.7020   43.8880 C   0  0  0  0  0  0  0  0  0  0  0  0
   44.8360   34.6610   43.0550 C   0  0  0  0  0  0  0  0  0  0  0  0
   45.4520   33.5940   43.6060 N   0  0  0  0  0  0  0  0  0  0  0  0
   45.6420   33.4930   44.9600 C   0  0  0  0  0  0  0  0  0  0  0  0
   45.2070   34.4730   45.7400 N   0  0  0  0  0  0  0  0  0  0  0  0
   46.2880   32.3800   45.5440 N   0  0  0  0  0  0  0  0  0  0  0  0
   47.1130   31.6530   44.7370 C   0  0  0  0  0  0  0  0  0  0  0  0
   47.6140   30.6410   45.5290 C   0  0  0  0  0  0  0  0  0  0  0  0
   47.1030   30.7570   46.7750 N   0  0  0  0  0  0  0  0  0  0  0  0
   46.2890   31.8220   46.7920 C   0  0  0  0  0  0  0  0  0  0  0  0
   45.4940   32.3550   47.9230 C   0  0  0  0  0  0  0  0  0  0  0  0
   45.7450   31.8900   49.3070 C   0  0  0  0  0  0  0  0  0  0  0  0
   44.6300   31.2640   48.5840 C   0  0  0  0  0  0  0  0  0  0  0  0
   44.2404   36.3488   45.9490 H   0  0  0  0  0  0  0  0  0  0  0  0
   43.8666   36.5857   43.4725 H   0  0  0  0  0  0  0  0  0  0  0  0
   44.6959   34.7188   41.9655 H   0  0  0  0  0  0  0  0  0  0  0  0
   47.3331   31.8359   43.6749 H   0  0  0  0  0  0  0  0  0  0  0  0
   48.3179   29.8628   45.1989 H   0  0  0  0  0  0  0  0  0  0  0  0
   45.3885   33.3593   47.4869 H   0  0  0  0  0  0  0  0  0  0  0  0
   46.6480   31.3008   49.5250 H   0  0  0  0  0  0  0  0  0  0  0  0
   45.8300   32.4017   50.2770 H   0  0  0  0  0  0  0  0  0  0  0  0
   43.5914   31.4813   48.8740 H   0  0  0  0  0  0  0  0  0  0  0  0
   44.3394   30.2337   48.3312 H   0  0  0  0  0  0  0  0  0  0  0  0
  1  6  2  0
  2  1  1  0
  3  4  1  0
  3  2  2  0
  4  5  2  0
  5  7  1  0
  5  6  1  0
  7 11  1  0
  8  9  2  0
  8  7  1  0
  9 10  1  0
 10 11  2  0
 11 12  1  0
 12 14  1  0
 12 13  1  0
 14 13  1  0
  1 15  1  0
  2 16  1  0
  3 17  1  0
  8 18  1  0
  9 19  1  0
 12 20  1  0
 13 21  1  0
 13 22  1  0
 14 23  1  0
 14 24  1  0
M  ISO  8  15  14  16  14  17  14  18  14  19  14  20  13  21  13  22  13
M  ISO  2  23  13  24  13
M  END
>  <minimizedAffinity>  (1) 
-4.50908518

>  <minimizedRMSD>  (1) 
2.02974725

$$$$
