
     RDKit          3D

 48 51  0  0  1  0  0  0  0  0999 V2000
   46.4690   31.5720   46.9240 C   0  0  2  0  0  0  0  0  0  0  0  0
   45.2630   30.6850   47.2390 C   0  0  0  0  0  0  0  0  0  0  0  0
   44.7780   31.2060   48.5510 C   0  0  0  0  0  0  0  0  0  0  0  0
   46.0300   31.5180   49.3070 C   0  0  0  0  0  0  0  0  0  0  0  0
   47.0050   32.0110   48.2680 C   0  0  1  0  0  0  0  0  0  0  0  0
   44.7190   34.7240   46.1360 C   0  0  0  0  0  0  0  0  0  0  0  0
   45.1210   35.0390   44.8360 C   0  0  0  0  0  0  0  0  0  0  0  0
   46.0190   34.1410   44.2140 C   0  0  0  0  0  0  0  0  0  0  0  0
   46.4330   33.0410   44.9070 N   0  0  0  0  0  0  0  0  0  0  0  0
   46.0180   32.7790   46.1600 C   0  0  0  0  0  0  0  0  0  0  0  0
   45.1620   33.6190   46.7720 N   0  0  0  0  0  0  0  0  0  0  0  0
   46.6040   34.4410   42.5510 S   0  0  0  0  0  0  0  0  0  0  0  0
   48.2440   33.8050   42.3510 C   0  0  0  0  0  0  0  0  0  0  0  0
   49.2850   34.6530   42.6470 C   0  0  0  0  0  0  0  0  0  0  0  0
   50.5820   34.2230   42.5140 C   0  0  0  0  0  0  0  0  0  0  0  0
   50.8760   32.9350   42.0830 C   0  0  0  0  0  0  0  0  0  0  0  0
   49.8240   32.0960   41.7900 C   0  0  0  0  0  0  0  0  0  0  0  0
   48.5170   32.5200   41.9210 C   0  0  0  0  0  0  0  0  0  0  0  0
   47.3760   31.7590   41.6540 O   0  0  0  0  0  0  0  0  0  0  0  0
   50.7810   30.0690   49.0370 C   0  0  0  0  0  0  0  0  0  0  0  0
   50.5090   31.2970   49.5770 C   0  0  0  0  0  0  0  0  0  0  0  0
   49.3190   31.9630   49.3640 C   0  0  0  0  0  0  0  0  0  0  0  0
   48.3260   31.3990   48.5740 C   0  0  0  0  0  0  0  0  0  0  0  0
   48.6120   30.1430   48.0250 C   0  0  0  0  0  0  0  0  0  0  0  0
   49.8110   29.4970   48.2520 C   0  0  0  0  0  0  0  0  0  0  0  0
   52.2620   29.2040   49.2810 S   0  0  0  0  0  0  0  0  0  0  0  0
   52.0200   27.8480   49.8960 O   0  0  0  0  0  0  0  0  0  0  0  0
   53.0850   29.9730   50.2750 O   0  0  0  0  0  0  0  0  0  0  0  0
   47.2233   31.0421   46.3238 H   0  0  0  0  0  0  0  0  0  0  0  0
   44.4878   30.7866   46.4652 H   0  0  0  0  0  0  0  0  0  0  0  0
   45.5159   29.6149   47.2709 H   0  0  0  0  0  0  0  0  0  0  0  0
   44.1709   32.1125   48.4105 H   0  0  0  0  0  0  0  0  0  0  0  0
   44.1353   30.4860   49.0788 H   0  0  0  0  0  0  0  0  0  0  0  0
   45.8420   32.2972   50.0604 H   0  0  0  0  0  0  0  0  0  0  0  0
   46.4137   30.6405   49.8481 H   0  0  0  0  0  0  0  0  0  0  0  0
   47.1253   33.1044   48.2617 H   0  0  0  0  0  0  0  0  0  0  0  0
   44.0210   35.3961   46.6567 H   0  0  0  0  0  0  0  0  0  0  0  0
   44.7572   35.9407   44.3216 H   0  0  0  0  0  0  0  0  0  0  0  0
   49.0784   35.6773   42.9908 H   0  0  0  0  0  0  0  0  0  0  0  0
   51.4053   34.9121   42.7535 H   0  0  0  0  0  0  0  0  0  0  0  0
   51.9173   32.5960   41.9790 H   0  0  0  0  0  0  0  0  0  0  0  0
   50.0286   31.0714   41.4460 H   0  0  0  0  0  0  0  0  0  0  0  0
   46.4770   32.1542   41.7790 H   0  0  0  0  0  0  0  0  0  0  0  0
   51.2727   31.7742   50.2087 H   0  0  0  0  0  0  0  0  0  0  0  0
   49.1558   32.9488   49.8239 H   0  0  0  0  0  0  0  0  0  0  0  0
   47.8564   29.6548   47.3919 H   0  0  0  0  0  0  0  0  0  0  0  0
   49.9912   28.5114   47.7980 H   0  0  0  0  0  0  0  0  0  0  0  0
   52.8745   29.0569   48.0644 H   0  0  0  0  0  0  0  0  0  0  0  0
  1  2  1  0
  1  5  1  0
  2  3  1  0
  3  4  1  0
  5 23  1  0
  5  4  1  0
  6 11  2  0
  7  6  1  0
  8  7  2  0
  8  9  1  0
  9 10  2  0
 10 11  1  0
 10  1  1  0
 12  8  1  0
 13 12  1  0
 13 14  2  0
 15 14  1  0
 16 15  2  0
 17 18  2  0
 17 16  1  0
 18 13  1  0
 19 18  1  0
 20 26  1  0
 20 21  2  0
 22 21  1  0
 23 22  2  0
 24 25  2  0
 24 23  1  0
 25 20  1  0
 26 27  2  0
 26 28  2  0
  1 29  1  6
  2 30  1  0
  2 31  1  0
  3 32  1  0
  3 33  1  0
  4 34  1  0
  4 35  1  0
  5 36  1  6
  6 37  1  0
  7 38  1  0
 14 39  1  0
 15 40  1  0
 16 41  1  0
 17 42  1  0
 19 43  1  0
 21 44  1  0
 22 45  1  0
 24 46  1  0
 25 47  1  0
 26 48  1  0
M  ISO  8  29  13  30  13  31  13  32  13  33  13  34  13  35  13  36  13
M  ISO  8  37  14  38  14  39  14  40  14  41  14  42  14  43   3  44  14
M  ISO  4  45  14  46  14  47  14  48  11
M  END
>  <minimizedAffinity>  (1) 
-6.30726671

>  <minimizedRMSD>  (1) 
0.945414364

$$$$
