
     RDKit          3D

 44 47  0  0  1  0  0  0  0  0999 V2000
   44.7170   34.7160   46.1420 C   0  0  0  0  0  0  0  0  0  0  0  0
   45.1120   35.0280   44.8450 C   0  0  0  0  0  0  0  0  0  0  0  0
   46.0280   34.1320   44.2290 C   0  0  0  0  0  0  0  0  0  0  0  0
   46.4530   33.0430   44.9350 N   0  0  0  0  0  0  0  0  0  0  0  0
   46.0350   32.7910   46.1910 C   0  0  0  0  0  0  0  0  0  0  0  0
   45.1690   33.6260   46.7940 N   0  0  0  0  0  0  0  0  0  0  0  0
   46.5110   31.5940   46.9540 C   0  0  2  0  0  0  0  0  0  0  0  0
   45.3180   30.6550   47.2270 C   0  0  0  0  0  0  0  0  0  0  0  0
   44.7420   31.1580   48.5110 C   0  0  0  0  0  0  0  0  0  0  0  0
   45.9390   31.5100   49.3240 C   0  0  0  0  0  0  0  0  0  0  0  0
   46.9610   32.0270   48.3240 C   0  0  1  0  0  0  0  0  0  0  0  0
   48.3050   31.4680   48.5730 C   0  0  0  0  0  0  0  0  0  0  0  0
   48.7150   30.2560   48.0470 C   0  0  0  0  0  0  0  0  0  0  0  0
   49.9550   29.6840   48.2440 C   0  0  0  0  0  0  0  0  0  0  0  0
   50.8650   30.3660   49.0260 C   0  0  0  0  0  0  0  0  0  0  0  0
   50.4680   31.5750   49.5570 C   0  0  0  0  0  0  0  0  0  0  0  0
   49.2500   32.0800   49.3290 N   0  0  0  0  0  0  0  0  0  0  0  0
   46.6060   34.4290   42.5640 S   0  0  0  0  0  0  0  0  0  0  0  0
   48.2440   33.7810   42.3610 C   0  0  0  0  0  0  0  0  0  0  0  0
   49.2730   34.6650   42.6500 C   0  0  0  0  0  0  0  0  0  0  0  0
   50.5750   34.2330   42.5140 C   0  0  0  0  0  0  0  0  0  0  0  0
   50.8730   32.9310   42.0940 C   0  0  0  0  0  0  0  0  0  0  0  0
   49.8230   32.0720   41.8130 C   0  0  0  0  0  0  0  0  0  0  0  0
   48.5260   32.4930   41.9450 C   0  0  0  0  0  0  0  0  0  0  0  0
   47.3980   31.7320   41.6950 O   0  0  0  0  0  0  0  0  0  0  0  0
   44.0092   35.3839   46.6548 H   0  0  0  0  0  0  0  0  0  0  0  0
   44.7356   35.9205   44.3238 H   0  0  0  0  0  0  0  0  0  0  0  0
   47.3101   31.1116   46.3719 H   0  0  0  0  0  0  0  0  0  0  0  0
   44.5777   30.7188   46.4159 H   0  0  0  0  0  0  0  0  0  0  0  0
   45.6182   29.5983   47.2852 H   0  0  0  0  0  0  0  0  0  0  0  0
   44.1120   32.0429   48.3377 H   0  0  0  0  0  0  0  0  0  0  0  0
   44.0947   30.4186   49.0052 H   0  0  0  0  0  0  0  0  0  0  0  0
   45.6904   32.2892   50.0595 H   0  0  0  0  0  0  0  0  0  0  0  0
   46.3187   30.6479   49.8920 H   0  0  0  0  0  0  0  0  0  0  0  0
   47.0273   33.1212   48.4149 H   0  0  0  0  0  0  0  0  0  0  0  0
   47.9961   29.7051   47.4228 H   0  0  0  0  0  0  0  0  0  0  0  0
   50.2104   28.7143   47.7918 H   0  0  0  0  0  0  0  0  0  0  0  0
   51.8692   29.9604   49.2184 H   0  0  0  0  0  0  0  0  0  0  0  0
   51.1721   32.1400   50.1855 H   0  0  0  0  0  0  0  0  0  0  0  0
   49.0544   35.6909   42.9813 H   0  0  0  0  0  0  0  0  0  0  0  0
   51.3982   34.9266   42.7405 H   0  0  0  0  0  0  0  0  0  0  0  0
   51.9162   32.5980   41.9896 H   0  0  0  0  0  0  0  0  0  0  0  0
   50.0323   31.0443   41.4814 H   0  0  0  0  0  0  0  0  0  0  0  0
   46.4980   32.1253   41.8193 H   0  0  0  0  0  0  0  0  0  0  0  0
  1  6  2  0
  2  1  1  0
  3  2  2  0
  3  4  1  0
  4  5  2  0
  5  6  1  0
  5  7  1  0
  7  8  1  0
  7 11  1  0
  8  9  1  0
  9 10  1  0
 11 12  1  0
 11 10  1  0
 12 17  2  0
 13 14  2  0
 13 12  1  0
 14 15  1  0
 15 16  2  0
 17 16  1  0
 18  3  1  0
 19 18  1  0
 19 20  2  0
 21 20  1  0
 22 21  2  0
 23 24  2  0
 23 22  1  0
 24 19  1  0
 25 24  1  0
  1 26  1  0
  2 27  1  0
  7 28  1  6
  8 29  1  0
  8 30  1  0
  9 31  1  0
  9 32  1  0
 10 33  1  0
 10 34  1  0
 11 35  1  6
 13 36  1  0
 14 37  1  0
 15 38  1  0
 16 39  1  0
 20 40  1  0
 21 41  1  0
 22 42  1  0
 23 43  1  0
 25 44  1  0
M  ISO  8  26  14  27  14  28  13  29  13  30  13  31  13  32  13  33  13
M  ISO  8  34  13  35  13  36  14  37  14  38  14  39  14  40  14  41  14
M  ISO  3  42  14  43  14  44   3
M  END
>  <minimizedAffinity>  (1) 
-6.21444654

>  <minimizedRMSD>  (1) 
0.810027421

$$$$
