
     RDKit          3D

 40 43  0  0  1  0  0  0  0  0999 V2000
   44.6960   34.8550   45.8910 C   0  0  0  0  0  0  0  0  0  0  0  0
   45.1180   35.1330   44.5960 C   0  0  0  0  0  0  0  0  0  0  0  0
   46.0730   34.2570   44.0300 C   0  0  0  0  0  0  0  0  0  0  0  0
   46.5130   33.2090   44.7810 N   0  0  0  0  0  0  0  0  0  0  0  0
   46.0810   32.9740   46.0310 C   0  0  0  0  0  0  0  0  0  0  0  0
   45.1720   33.7980   46.5850 N   0  0  0  0  0  0  0  0  0  0  0  0
   46.5720   31.8230   46.8460 C   0  0  2  0  0  0  0  0  0  0  0  0
   45.4040   30.8680   47.1510 C   0  0  0  0  0  0  0  0  0  0  0  0
   44.8030   31.4130   48.4020 C   0  0  0  0  0  0  0  0  0  0  0  0
   45.9900   31.8390   49.2080 C   0  0  0  0  0  0  0  0  0  0  0  0
   47.0220   32.3080   48.1940 C   0  0  1  0  0  0  0  0  0  0  0  0
   48.2910   31.6170   48.5550 C   0  0  0  0  0  0  0  0  0  0  0  0
   49.3210   31.9920   49.3360 N   0  0  0  0  0  0  0  0  0  0  0  0
   50.2340   31.0740   49.3750 O   0  0  0  0  0  0  0  0  0  0  0  0
   49.8670   30.0460   48.6300 C   0  0  0  0  0  0  0  0  0  0  0  0
   48.6600   30.3890   48.1230 N   0  0  0  0  0  0  0  0  0  0  0  0
   46.6800   34.5230   42.3700 S   0  0  0  0  0  0  0  0  0  0  0  0
   48.2950   33.8160   42.1890 C   0  0  0  0  0  0  0  0  0  0  0  0
   49.3470   34.5920   42.6120 C   0  0  0  0  0  0  0  0  0  0  0  0
   50.6280   34.1040   42.5000 C   0  0  0  0  0  0  0  0  0  0  0  0
   50.8900   32.8380   41.9680 C   0  0  0  0  0  0  0  0  0  0  0  0
   49.8060   32.0720   41.5480 C   0  0  0  0  0  0  0  0  0  0  0  0
   48.5270   32.5640   41.6610 C   0  0  0  0  0  0  0  0  0  0  0  0
   47.3850   31.8880   41.2760 O   0  0  0  0  0  0  0  0  0  0  0  0
   43.9534   35.5143   46.3642 H   0  0  0  0  0  0  0  0  0  0  0  0
   44.7267   35.9956   44.0367 H   0  0  0  0  0  0  0  0  0  0  0  0
   47.3811   31.3370   46.2811 H   0  0  0  0  0  0  0  0  0  0  0  0
   44.6707   30.8742   46.3311 H   0  0  0  0  0  0  0  0  0  0  0  0
   45.7314   29.8236   47.2611 H   0  0  0  0  0  0  0  0  0  0  0  0
   44.1496   32.2702   48.1824 H   0  0  0  0  0  0  0  0  0  0  0  0
   44.1716   30.6807   48.9264 H   0  0  0  0  0  0  0  0  0  0  0  0
   45.7185   32.6599   49.8880 H   0  0  0  0  0  0  0  0  0  0  0  0
   46.3747   31.0194   49.8328 H   0  0  0  0  0  0  0  0  0  0  0  0
   47.1479   33.4007   48.1826 H   0  0  0  0  0  0  0  0  0  0  0  0
   50.4230   29.1124   48.4588 H   0  0  0  0  0  0  0  0  0  0  0  0
   49.1669   35.5913   43.0350 H   0  0  0  0  0  0  0  0  0  0  0  0
   51.4693   34.7268   42.8382 H   0  0  0  0  0  0  0  0  0  0  0  0
   51.9193   32.4593   41.8840 H   0  0  0  0  0  0  0  0  0  0  0  0
   49.9731   31.0706   41.1247 H   0  0  0  0  0  0  0  0  0  0  0  0
   46.4972   32.3110   41.3900 H   0  0  0  0  0  0  0  0  0  0  0  0
  1  6  2  0
  2  1  1  0
  3  2  2  0
  3  4  1  0
  4  5  2  0
  5  6  1  0
  5  7  1  0
  7  8  1  0
  7 11  1  0
  8  9  1  0
  9 10  1  0
 11 12  1  0
 11 10  1  0
 12 13  2  0
 13 14  1  0
 15 14  1  0
 16 12  1  0
 16 15  2  0
 17  3  1  0
 18 17  1  0
 18 19  2  0
 20 19  1  0
 21 20  2  0
 22 23  2  0
 22 21  1  0
 23 18  1  0
 24 23  1  0
  1 25  1  0
  2 26  1  0
  7 27  1  6
  8 28  1  0
  8 29  1  0
  9 30  1  0
  9 31  1  0
 10 32  1  0
 10 33  1  0
 11 34  1  6
 15 35  1  0
 19 36  1  0
 20 37  1  0
 21 38  1  0
 22 39  1  0
 24 40  1  0
M  ISO  8  25  14  26  14  27  13  28  13  29  13  30  13  31  13  32  13
M  ISO  8  33  13  34  13  35  14  36  14  37  14  38  14  39  14  40   3
M  END
>  <minimizedAffinity>  (1) 
-6.16554785

>  <minimizedRMSD>  (1) 
0.507076979

$$$$
