
     RDKit          3D

 42 45  0  0  1  0  0  0  0  0999 V2000
   44.7200   34.7200   46.1360 C   0  0  0  0  0  0  0  0  0  0  0  0
   45.1160   35.0260   44.8380 C   0  0  0  0  0  0  0  0  0  0  0  0
   46.0290   34.1370   44.2220 C   0  0  0  0  0  0  0  0  0  0  0  0
   46.4500   33.0570   44.9340 N   0  0  0  0  0  0  0  0  0  0  0  0
   46.0390   32.7970   46.1930 C   0  0  0  0  0  0  0  0  0  0  0  0
   45.1770   33.6270   46.7900 N   0  0  0  0  0  0  0  0  0  0  0  0
   46.5200   31.6010   46.9560 C   0  0  2  0  0  0  0  0  0  0  0  0
   45.3300   30.6590   47.2310 C   0  0  0  0  0  0  0  0  0  0  0  0
   44.7540   31.1710   48.5100 C   0  0  0  0  0  0  0  0  0  0  0  0
   45.9670   31.5080   49.3180 C   0  0  0  0  0  0  0  0  0  0  0  0
   46.9840   32.0400   48.3180 C   0  0  1  0  0  0  0  0  0  0  0  0
   48.3200   31.5040   48.6350 C   0  0  0  0  0  0  0  0  0  0  0  0
   48.7600   30.2530   48.2250 C   0  0  0  0  0  0  0  0  0  0  0  0
   50.0500   30.1040   48.7080 C   0  0  0  0  0  0  0  0  0  0  0  0
   50.3550   31.2430   49.3840 N   0  0  0  0  0  0  0  0  0  0  0  0
   49.3140   32.0740   49.3360 N   0  0  0  0  0  0  0  0  0  0  0  0
   46.6060   34.4300   42.5600 S   0  0  0  0  0  0  0  0  0  0  0  0
   48.2540   33.7980   42.3610 C   0  0  0  0  0  0  0  0  0  0  0  0
   49.2790   34.6710   42.6480 C   0  0  0  0  0  0  0  0  0  0  0  0
   50.5730   34.2210   42.5060 C   0  0  0  0  0  0  0  0  0  0  0  0
   50.8780   32.9330   42.0890 C   0  0  0  0  0  0  0  0  0  0  0  0
   49.8240   32.0770   41.8070 C   0  0  0  0  0  0  0  0  0  0  0  0
   48.5210   32.5110   41.9430 C   0  0  0  0  0  0  0  0  0  0  0  0
   47.3960   31.7410   41.6880 O   0  0  0  0  0  0  0  0  0  0  0  0
   44.0120   35.3886   46.6476 H   0  0  0  0  0  0  0  0  0  0  0  0
   44.7375   35.9167   44.3151 H   0  0  0  0  0  0  0  0  0  0  0  0
   47.3159   31.1143   46.3731 H   0  0  0  0  0  0  0  0  0  0  0  0
   44.5905   30.7154   46.4186 H   0  0  0  0  0  0  0  0  0  0  0  0
   45.6311   29.6029   47.2944 H   0  0  0  0  0  0  0  0  0  0  0  0
   44.1356   32.0637   48.3351 H   0  0  0  0  0  0  0  0  0  0  0  0
   44.0916   30.4465   49.0063 H   0  0  0  0  0  0  0  0  0  0  0  0
   45.7281   32.2753   50.0691 H   0  0  0  0  0  0  0  0  0  0  0  0
   46.3499   30.6338   49.8650 H   0  0  0  0  0  0  0  0  0  0  0  0
   47.0606   33.1367   48.3545 H   0  0  0  0  0  0  0  0  0  0  0  0
   48.1935   29.5208   47.6309 H   0  0  0  0  0  0  0  0  0  0  0  0
   50.7033   29.2298   48.5705 H   0  0  0  0  0  0  0  0  0  0  0  0
   51.2491   31.4338   49.8583 H   0  0  0  0  0  0  0  0  0  0  0  0
   49.0706   35.6984   42.9812 H   0  0  0  0  0  0  0  0  0  0  0  0
   51.3990   34.9112   42.7325 H   0  0  0  0  0  0  0  0  0  0  0  0
   51.9218   32.6018   41.9855 H   0  0  0  0  0  0  0  0  0  0  0  0
   50.0272   31.0486   41.4738 H   0  0  0  0  0  0  0  0  0  0  0  0
   46.4931   32.1281   41.8103 H   0  0  0  0  0  0  0  0  0  0  0  0
  1  6  2  0
  2  1  1  0
  3  2  2  0
  3  4  1  0
  4  5  2  0
  5  6  1  0
  5  7  1  0
  7  8  1  0
  7 11  1  0
  8  9  1  0
  9 10  1  0
 11 12  1  0
 11 10  1  0
 12 16  2  0
 13 12  1  0
 13 14  2  0
 14 15  1  0
 16 15  1  0
 17  3  1  0
 18 17  1  0
 18 19  2  0
 20 19  1  0
 21 20  2  0
 22 23  2  0
 22 21  1  0
 23 18  1  0
 24 23  1  0
  1 25  1  0
  2 26  1  0
  7 27  1  6
  8 28  1  0
  8 29  1  0
  9 30  1  0
  9 31  1  0
 10 32  1  0
 10 33  1  0
 11 34  1  6
 13 35  1  0
 14 36  1  0
 15 37  1  0
 19 38  1  0
 20 39  1  0
 21 40  1  0
 22 41  1  0
 24 42  1  0
M  ISO  8  25  14  26  14  27  13  28  13  29  13  30  13  31  13  32  13
M  ISO  8  33  13  34  13  35  14  36  14  37   9  38  14  39  14  40  14
M  ISO  2  41  14  42   3
M  END
>  <minimizedAffinity>  (1) 
-6.03984833

>  <minimizedRMSD>  (1) 
0.786019444

$$$$
