
     RDKit          3D

 42 45  0  0  1  0  0  0  0  0999 V2000
   44.7150   34.8490   45.8710 C   0  0  0  0  0  0  0  0  0  0  0  0
   45.1250   35.1330   44.5710 C   0  0  0  0  0  0  0  0  0  0  0  0
   46.0760   34.2480   43.9900 C   0  0  0  0  0  0  0  0  0  0  0  0
   46.5190   33.1870   44.7420 N   0  0  0  0  0  0  0  0  0  0  0  0
   46.0770   32.9700   46.0070 C   0  0  0  0  0  0  0  0  0  0  0  0
   45.1890   33.7890   46.5600 N   0  0  0  0  0  0  0  0  0  0  0  0
   46.5760   31.8060   46.8100 C   0  0  2  0  0  0  0  0  0  0  0  0
   45.3970   30.8570   47.1140 C   0  0  0  0  0  0  0  0  0  0  0  0
   44.8150   31.4110   48.3780 C   0  0  0  0  0  0  0  0  0  0  0  0
   46.0270   31.8020   49.1760 C   0  0  0  0  0  0  0  0  0  0  0  0
   47.0360   32.2970   48.1470 C   0  0  1  0  0  0  0  0  0  0  0  0
   48.3820   31.7900   48.5560 C   0  0  0  0  0  0  0  0  0  0  0  0
   48.9060   30.4620   48.1740 C   0  0  0  0  0  0  0  0  0  0  0  0
   48.6140   30.8110   49.6200 C   0  0  0  0  0  0  0  0  0  0  0  0
   46.6710   34.5110   42.3340 S   0  0  0  0  0  0  0  0  0  0  0  0
   48.2850   33.8060   42.1410 C   0  0  0  0  0  0  0  0  0  0  0  0
   49.3320   34.5560   42.6250 C   0  0  0  0  0  0  0  0  0  0  0  0
   50.6150   34.0730   42.5110 C   0  0  0  0  0  0  0  0  0  0  0  0
   50.8830   32.8330   41.9150 C   0  0  0  0  0  0  0  0  0  0  0  0
   49.8040   32.0960   41.4350 C   0  0  0  0  0  0  0  0  0  0  0  0
   48.5240   32.5870   41.5530 C   0  0  0  0  0  0  0  0  0  0  0  0
   47.3880   31.9330   41.1100 O   0  0  0  0  0  0  0  0  0  0  0  0
   43.9801   35.5106   46.3530 H   0  0  0  0  0  0  0  0  0  0  0  0
   44.7326   36.0000   44.0194 H   0  0  0  0  0  0  0  0  0  0  0  0
   47.3785   31.3082   46.2459 H   0  0  0  0  0  0  0  0  0  0  0  0
   44.6575   30.8762   46.2999 H   0  0  0  0  0  0  0  0  0  0  0  0
   45.7084   29.8065   47.2116 H   0  0  0  0  0  0  0  0  0  0  0  0
   44.1817   32.2859   48.1696 H   0  0  0  0  0  0  0  0  0  0  0  0
   44.1673   30.6938   48.9035 H   0  0  0  0  0  0  0  0  0  0  0  0
   45.7785   32.6018   49.8891 H   0  0  0  0  0  0  0  0  0  0  0  0
   46.4197   30.9621   49.7679 H   0  0  0  0  0  0  0  0  0  0  0  0
   47.1126   33.3926   48.0857 H   0  0  0  0  0  0  0  0  0  0  0  0
   48.7090   32.8273   48.3916 H   0  0  0  0  0  0  0  0  0  0  0  0
   48.2654   29.7474   47.6364 H   0  0  0  0  0  0  0  0  0  0  0  0
   49.7782   30.0919   47.6152 H   0  0  0  0  0  0  0  0  0  0  0  0
   49.4413   30.9544   50.3307 H   0  0  0  0  0  0  0  0  0  0  0  0
   48.0042   30.3699   50.4223 H   0  0  0  0  0  0  0  0  0  0  0  0
   49.1452   35.5314   43.0980 H   0  0  0  0  0  0  0  0  0  0  0  0
   51.4511   34.6746   42.8970 H   0  0  0  0  0  0  0  0  0  0  0  0
   51.9123   32.4546   41.8294 H   0  0  0  0  0  0  0  0  0  0  0  0
   49.9751   31.1186   40.9602 H   0  0  0  0  0  0  0  0  0  0  0  0
   46.4982   32.3500   41.2301 H   0  0  0  0  0  0  0  0  0  0  0  0
  1  6  2  0
  2  1  1  0
  3  2  2  0
  3  4  1  0
  4  5  2  0
  5  6  1  0
  5  7  1  0
  7  8  1  0
  7 11  1  0
  8  9  1  0
  9 10  1  0
 11 12  1  0
 11 10  1  0
 12 14  1  0
 13 12  1  0
 13 14  1  0
 15  3  1  0
 16 15  1  0
 16 17  2  0
 18 17  1  0
 19 18  2  0
 20 21  2  0
 20 19  1  0
 21 16  1  0
 22 21  1  0
  1 23  1  0
  2 24  1  0
  7 25  1  6
  8 26  1  0
  8 27  1  0
  9 28  1  0
  9 29  1  0
 10 30  1  0
 10 31  1  0
 11 32  1  6
 12 33  1  0
 13 34  1  0
 13 35  1  0
 14 36  1  0
 14 37  1  0
 17 38  1  0
 18 39  1  0
 19 40  1  0
 20 41  1  0
 22 42  1  0
M  ISO  8  23  14  24  14  25  13  26  13  27  13  28  13  29  13  30  13
M  ISO  8  31  13  32  13  33  13  34  13  35  13  36  13  37  13  38  14
M  ISO  4  39  14  40  14  41  14  42   3
M  END
>  <minimizedAffinity>  (1) 
-5.93468428

>  <minimizedRMSD>  (1) 
0.612609208

$$$$
