
     RDKit          3D

 42 45  0  0  1  0  0  0  0  0999 V2000
   44.7220   34.5140   46.5030 C   0  0  0  0  0  0  0  0  0  0  0  0
   45.0770   34.8610   45.2030 C   0  0  0  0  0  0  0  0  0  0  0  0
   45.9310   33.9560   44.5140 C   0  0  0  0  0  0  0  0  0  0  0  0
   46.3350   32.8260   45.1680 N   0  0  0  0  0  0  0  0  0  0  0  0
   45.9600   32.5390   46.4280 C   0  0  0  0  0  0  0  0  0  0  0  0
   45.1560   33.3800   47.0910 N   0  0  0  0  0  0  0  0  0  0  0  0
   46.4060   31.3140   47.1360 C   0  0  2  0  0  0  0  0  0  0  0  0
   45.2020   30.3920   47.4120 C   0  0  0  0  0  0  0  0  0  0  0  0
   44.7100   30.8750   48.7450 C   0  0  0  0  0  0  0  0  0  0  0  0
   45.9800   31.1290   49.5090 C   0  0  0  0  0  0  0  0  0  0  0  0
   46.9470   31.6800   48.4920 C   0  0  1  0  0  0  0  0  0  0  0  0
   48.3380   31.2800   48.6930 C   0  0  0  0  0  0  0  0  0  0  0  0
   49.3580   31.8470   49.3780 C   0  0  0  0  0  0  0  0  0  0  0  0
   50.5830   31.2530   49.4040 C   0  0  0  0  0  0  0  0  0  0  0  0
   50.7100   30.0690   48.7050 C   0  0  0  0  0  0  0  0  0  0  0  0
   49.0130   29.7950   47.9850 S   0  0  0  0  0  0  0  0  0  0  0  0
   46.4530   34.2950   42.8460 S   0  0  0  0  0  0  0  0  0  0  0  0
   48.1430   33.7960   42.6230 C   0  0  0  0  0  0  0  0  0  0  0  0
   49.0800   34.7990   42.6410 C   0  0  0  0  0  0  0  0  0  0  0  0
   50.4070   34.4690   42.4730 C   0  0  0  0  0  0  0  0  0  0  0  0
   50.8220   33.1510   42.2860 C   0  0  0  0  0  0  0  0  0  0  0  0
   49.8540   32.1550   42.2710 C   0  0  0  0  0  0  0  0  0  0  0  0
   48.5350   32.4760   42.4380 C   0  0  0  0  0  0  0  0  0  0  0  0
   47.4810   31.5740   42.4430 O   0  0  0  0  0  0  0  0  0  0  0  0
   44.0643   35.1881   47.0713 H   0  0  0  0  0  0  0  0  0  0  0  0
   44.7158   35.7874   44.7325 H   0  0  0  0  0  0  0  0  0  0  0  0
   47.1613   30.8218   46.5057 H   0  0  0  0  0  0  0  0  0  0  0  0
   44.4286   30.5085   46.6385 H   0  0  0  0  0  0  0  0  0  0  0  0
   45.4623   29.3233   47.4057 H   0  0  0  0  0  0  0  0  0  0  0  0
   44.1229   31.7990   48.6375 H   0  0  0  0  0  0  0  0  0  0  0  0
   44.0427   30.1571   49.2443 H   0  0  0  0  0  0  0  0  0  0  0  0
   45.8074   31.8595   50.3131 H   0  0  0  0  0  0  0  0  0  0  0  0
   46.3622   30.2157   49.9883 H   0  0  0  0  0  0  0  0  0  0  0  0
   47.0076   32.7728   48.6020 H   0  0  0  0  0  0  0  0  0  0  0  0
   49.1967   32.7925   49.9165 H   0  0  0  0  0  0  0  0  0  0  0  0
   51.4279   31.6937   49.9535 H   0  0  0  0  0  0  0  0  0  0  0  0
   51.6032   29.4360   48.5982 H   0  0  0  0  0  0  0  0  0  0  0  0
   48.7771   35.8464   42.7868 H   0  0  0  0  0  0  0  0  0  0  0  0
   51.1617   35.2692   42.4868 H   0  0  0  0  0  0  0  0  0  0  0  0
   51.8864   32.9068   42.1540 H   0  0  0  0  0  0  0  0  0  0  0  0
   50.1489   31.1055   42.1244 H   0  0  0  0  0  0  0  0  0  0  0  0
   46.5539   31.8967   42.5711 H   0  0  0  0  0  0  0  0  0  0  0  0
  1  6  2  0
  2  1  1  0
  3  4  1  0
  3  2  2  0
  4  5  2  0
  5  6  1  0
  5  7  1  0
  7  8  1  0
  7 11  1  0
  8  9  1  0
  9 10  1  0
 11 12  1  0
 11 10  1  0
 12 13  2  0
 13 14  1  0
 15 14  2  0
 16 12  1  0
 16 15  1  0
 17  3  1  0
 18 19  2  0
 18 17  1  0
 20 19  1  0
 21 20  2  0
 22 21  1  0
 22 23  2  0
 23 24  1  0
 23 18  1  0
  1 25  1  0
  2 26  1  0
  7 27  1  6
  8 28  1  0
  8 29  1  0
  9 30  1  0
  9 31  1  0
 10 32  1  0
 10 33  1  0
 11 34  1  6
 13 35  1  0
 14 36  1  0
 15 37  1  0
 19 38  1  0
 20 39  1  0
 21 40  1  0
 22 41  1  0
 24 42  1  0
M  ISO  8  25  14  26  14  27  13  28  13  29  13  30  13  31  13  32  13
M  ISO  8  33  13  34  13  35  14  36  14  37  14  38  14  39  14  40  14
M  ISO  2  41  14  42   3
M  END
>  <minimizedAffinity>  (1) 
-5.92145681

>  <minimizedRMSD>  (1) 
1.27946794

$$$$
