
     RDKit          3D

 47 50  0  0  1  0  0  0  0  0999 V2000
   44.6820   34.5450   46.4800 C   0  0  0  0  0  0  0  0  0  0  0  0
   45.0480   34.9220   45.1970 C   0  0  0  0  0  0  0  0  0  0  0  0
   45.9110   34.0310   44.5030 C   0  0  0  0  0  0  0  0  0  0  0  0
   46.3130   32.8920   45.1300 N   0  0  0  0  0  0  0  0  0  0  0  0
   45.9240   32.5750   46.3850 C   0  0  0  0  0  0  0  0  0  0  0  0
   45.1140   33.4010   47.0510 N   0  0  0  0  0  0  0  0  0  0  0  0
   46.3680   31.3250   47.0680 C   0  0  2  0  0  0  0  0  0  0  0  0
   45.1420   30.5120   47.5070 C   0  0  0  0  0  0  0  0  0  0  0  0
   44.8330   31.0490   48.8680 C   0  0  0  0  0  0  0  0  0  0  0  0
   46.1810   31.2360   49.4740 C   0  0  0  0  0  0  0  0  0  0  0  0
   47.0790   31.6880   48.3450 C   0  0  1  0  0  0  0  0  0  0  0  0
   48.3860   31.1620   48.3700 N   0  0  0  0  0  0  0  0  0  0  0  0
   49.2440   31.6620   49.3980 C   0  0  0  0  0  0  0  0  0  0  0  0
   49.8550   30.4410   50.0040 C   0  0  0  0  0  0  0  0  0  0  0  0
   49.8980   29.4850   48.8280 C   0  0  0  0  0  0  0  0  0  0  0  0
   48.5510   29.7730   48.1940 C   0  0  0  0  0  0  0  0  0  0  0  0
   46.4580   34.4010   42.8390 S   0  0  0  0  0  0  0  0  0  0  0  0
   48.1210   33.8560   42.6060 C   0  0  0  0  0  0  0  0  0  0  0  0
   49.0960   34.8230   42.6470 C   0  0  0  0  0  0  0  0  0  0  0  0
   50.4140   34.4640   42.4710 C   0  0  0  0  0  0  0  0  0  0  0  0
   50.7880   33.1420   42.2530 C   0  0  0  0  0  0  0  0  0  0  0  0
   49.7900   32.1700   42.2130 C   0  0  0  0  0  0  0  0  0  0  0  0
   48.4680   32.5400   42.3900 C   0  0  0  0  0  0  0  0  0  0  0  0
   47.3850   31.6580   42.3700 O   0  0  0  0  0  0  0  0  0  0  0  0
   44.0139   35.2035   47.0545 H   0  0  0  0  0  0  0  0  0  0  0  0
   44.6908   35.8576   44.7420 H   0  0  0  0  0  0  0  0  0  0  0  0
   47.0086   30.7612   46.3739 H   0  0  0  0  0  0  0  0  0  0  0  0
   44.2978   30.6727   46.8204 H   0  0  0  0  0  0  0  0  0  0  0  0
   45.3259   29.4275   47.5070 H   0  0  0  0  0  0  0  0  0  0  0  0
   44.2942   32.0057   48.8016 H   0  0  0  0  0  0  0  0  0  0  0  0
   44.1836   30.3845   49.4568 H   0  0  0  0  0  0  0  0  0  0  0  0
   46.1435   32.0008   50.2637 H   0  0  0  0  0  0  0  0  0  0  0  0
   46.5489   30.3093   49.9387 H   0  0  0  0  0  0  0  0  0  0  0  0
   47.2434   32.7711   48.4439 H   0  0  0  0  0  0  0  0  0  0  0  0
   50.0205   32.3148   48.9727 H   0  0  0  0  0  0  0  0  0  0  0  0
   48.7004   32.2681   50.1377 H   0  0  0  0  0  0  0  0  0  0  0  0
   50.8654   30.6486   50.3860 H   0  0  0  0  0  0  0  0  0  0  0  0
   49.2974   30.0517   50.8686 H   0  0  0  0  0  0  0  0  0  0  0  0
   50.7276   29.7181   48.1443 H   0  0  0  0  0  0  0  0  0  0  0  0
   50.0638   28.4315   49.0974 H   0  0  0  0  0  0  0  0  0  0  0  0
   47.7510   29.2158   48.7035 H   0  0  0  0  0  0  0  0  0  0  0  0
   48.5048   29.4698   47.1376 H   0  0  0  0  0  0  0  0  0  0  0  0
   48.8262   35.8754   42.8190 H   0  0  0  0  0  0  0  0  0  0  0  0
   51.1906   35.2424   42.5036 H   0  0  0  0  0  0  0  0  0  0  0  0
   51.8451   32.8706   42.1156 H   0  0  0  0  0  0  0  0  0  0  0  0
   50.0513   31.1153   42.0418 H   0  0  0  0  0  0  0  0  0  0  0  0
   46.4657   31.9998   42.5048 H   0  0  0  0  0  0  0  0  0  0  0  0
  1  6  2  0
  2  1  1  0
  3  4  1  0
  3  2  2  0
  4  5  2  0
  5  6  1  0
  5  7  1  0
  7  8  1  0
  7 11  1  0
  8  9  1  0
  9 10  1  0
 11 12  1  0
 11 10  1  0
 12 13  1  0
 13 14  1  0
 15 14  1  0
 16 12  1  0
 16 15  1  0
 17  3  1  0
 18 19  2  0
 18 17  1  0
 20 19  1  0
 21 20  2  0
 22 21  1  0
 22 23  2  0
 23 18  1  0
 24 23  1  0
  1 25  1  0
  2 26  1  0
  7 27  1  6
  8 28  1  0
  8 29  1  0
  9 30  1  0
  9 31  1  0
 10 32  1  0
 10 33  1  0
 11 34  1  6
 13 35  1  0
 13 36  1  0
 14 37  1  0
 14 38  1  0
 15 39  1  0
 15 40  1  0
 16 41  1  0
 16 42  1  0
 19 43  1  0
 20 44  1  0
 21 45  1  0
 22 46  1  0
 24 47  1  0
M  ISO  8  25  14  26  14  27  13  28  13  29  13  30  13  31  13  32  13
M  ISO  8  33  13  34  13  35  13  36  13  37  13  38  13  39  13  40  13
M  ISO  7  41  13  42  13  43  14  44  14  45  14  46  14  47   3
M  END
>  <minimizedAffinity>  (1) 
-5.91705799

>  <minimizedRMSD>  (1) 
1.29429531

$$$$
