
     RDKit          3D

 42 45  0  0  1  0  0  0  0  0999 V2000
   44.7090   34.5330   46.5340 C   0  0  0  0  0  0  0  0  0  0  0  0
   45.0550   34.8380   45.2140 C   0  0  0  0  0  0  0  0  0  0  0  0
   45.8580   33.8960   44.5330 C   0  0  0  0  0  0  0  0  0  0  0  0
   46.2420   32.7630   45.1940 N   0  0  0  0  0  0  0  0  0  0  0  0
   45.8820   32.5140   46.4670 C   0  0  0  0  0  0  0  0  0  0  0  0
   45.1200   33.3970   47.1280 N   0  0  0  0  0  0  0  0  0  0  0  0
   46.3110   31.2750   47.1860 C   0  0  2  0  0  0  0  0  0  0  0  0
   45.0720   30.4380   47.5640 C   0  0  0  0  0  0  0  0  0  0  0  0
   44.6750   30.9920   48.8970 C   0  0  0  0  0  0  0  0  0  0  0  0
   45.9840   31.1890   49.5800 C   0  0  0  0  0  0  0  0  0  0  0  0
   46.9280   31.6660   48.5010 C   0  0  1  0  0  0  0  0  0  0  0  0
   48.2750   31.2210   48.6440 N   0  0  0  0  0  0  0  0  0  0  0  0
   48.7130   30.0920   48.0450 C   0  0  0  0  0  0  0  0  0  0  0  0
   50.0510   29.9630   48.3910 C   0  0  0  0  0  0  0  0  0  0  0  0
   50.3990   30.9920   49.1780 N   0  0  0  0  0  0  0  0  0  0  0  0
   49.2960   31.7650   49.3290 C   0  0  0  0  0  0  0  0  0  0  0  0
   46.3590   34.1870   42.8380 S   0  0  0  0  0  0  0  0  0  0  0  0
   48.0700   33.7640   42.6260 C   0  0  0  0  0  0  0  0  0  0  0  0
   48.9530   34.8140   42.6110 C   0  0  0  0  0  0  0  0  0  0  0  0
   50.2960   34.5570   42.4510 C   0  0  0  0  0  0  0  0  0  0  0  0
   50.7850   33.2510   42.3020 C   0  0  0  0  0  0  0  0  0  0  0  0
   49.8650   32.2010   42.3220 C   0  0  0  0  0  0  0  0  0  0  0  0
   48.5200   32.4720   42.4830 C   0  0  0  0  0  0  0  0  0  0  0  0
   47.5310   31.5090   42.5160 O   0  0  0  0  0  0  0  0  0  0  0  0
   44.0851   35.2392   47.1015 H   0  0  0  0  0  0  0  0  0  0  0  0
   44.7183   35.7663   44.7293 H   0  0  0  0  0  0  0  0  0  0  0  0
   47.0032   30.7195   46.5362 H   0  0  0  0  0  0  0  0  0  0  0  0
   44.2668   30.5710   46.8265 H   0  0  0  0  0  0  0  0  0  0  0  0
   45.2747   29.3572   47.5904 H   0  0  0  0  0  0  0  0  0  0  0  0
   44.1396   31.9464   48.7852 H   0  0  0  0  0  0  0  0  0  0  0  0
   43.9898   30.3354   49.4532 H   0  0  0  0  0  0  0  0  0  0  0  0
   45.8942   31.9440   50.3749 H   0  0  0  0  0  0  0  0  0  0  0  0
   46.3406   30.2648   50.0581 H   0  0  0  0  0  0  0  0  0  0  0  0
   47.0390   32.7579   48.5745 H   0  0  0  0  0  0  0  0  0  0  0  0
   48.1267   29.4113   47.4102 H   0  0  0  0  0  0  0  0  0  0  0  0
   50.7180   29.1487   48.0715 H   0  0  0  0  0  0  0  0  0  0  0  0
   49.2443   32.6918   49.9192 H   0  0  0  0  0  0  0  0  0  0  0  0
   48.5928   35.8471   42.7253 H   0  0  0  0  0  0  0  0  0  0  0  0
   51.0044   35.3984   42.4397 H   0  0  0  0  0  0  0  0  0  0  0  0
   51.8606   33.0598   42.1733 H   0  0  0  0  0  0  0  0  0  0  0  0
   50.2097   31.1624   42.2100 H   0  0  0  0  0  0  0  0  0  0  0  0
   46.5848   31.7750   42.6348 H   0  0  0  0  0  0  0  0  0  0  0  0
  1  6  2  0
  2  1  1  0
  3  4  1  0
  3  2  2  0
  4  5  2  0
  5  6  1  0
  5  7  1  0
  7  8  1  0
  7 11  1  0
  8  9  1  0
  9 10  1  0
 11 12  1  0
 11 10  1  0
 12 16  1  0
 13 14  2  0
 13 12  1  0
 14 15  1  0
 15 16  2  0
 17  3  1  0
 18 17  1  0
 19 18  2  0
 20 19  1  0
 21 22  1  0
 21 20  2  0
 22 23  2  0
 23 24  1  0
 23 18  1  0
  1 25  1  0
  2 26  1  0
  7 27  1  6
  8 28  1  0
  8 29  1  0
  9 30  1  0
  9 31  1  0
 10 32  1  0
 10 33  1  0
 11 34  1  6
 13 35  1  0
 14 36  1  0
 16 37  1  0
 19 38  1  0
 20 39  1  0
 21 40  1  0
 22 41  1  0
 24 42  1  0
M  ISO  8  25  14  26  14  27  13  28  13  29  13  30  13  31  13  32  13
M  ISO  8  33  13  34  13  35  14  36  14  37  14  38  14  39  14  40  14
M  ISO  2  41  14  42   3
M  END
>  <minimizedAffinity>  (1) 
-5.71780825

>  <minimizedRMSD>  (1) 
1.33240616

$$$$
