
     RDKit          3D

 37 39  0  0  1  0  0  0  0  0999 V2000
   44.7480   34.7110   45.9530 C   0  0  0  0  0  0  0  0  0  0  0  0
   45.2040   35.1200   44.6920 C   0  0  0  0  0  0  0  0  0  0  0  0
   46.1460   34.2700   44.0590 C   0  0  0  0  0  0  0  0  0  0  0  0
   46.5380   33.1280   44.7120 N   0  0  0  0  0  0  0  0  0  0  0  0
   46.0590   32.7890   45.9300 C   0  0  0  0  0  0  0  0  0  0  0  0
   45.1760   33.5810   46.5310 N   0  0  0  0  0  0  0  0  0  0  0  0
   46.4970   31.5460   46.6230 C   0  0  2  0  0  0  0  0  0  0  0  0
   45.2610   30.7340   47.0540 C   0  0  0  0  0  0  0  0  0  0  0  0
   44.9340   31.2930   48.4100 C   0  0  0  0  0  0  0  0  0  0  0  0
   46.2700   31.5020   49.0460 C   0  0  0  0  0  0  0  0  0  0  0  0
   47.1870   31.8870   47.9040 C   0  0  2  0  0  0  0  0  0  0  0  0
   47.7010   33.1880   48.0120 N   0  0  0  0  0  0  0  0  0  0  0  0
   46.8030   34.6840   42.4460 S   0  0  0  0  0  0  0  0  0  0  0  0
   48.3620   33.8890   42.2010 C   0  0  0  0  0  0  0  0  0  0  0  0
   49.4730   34.5780   42.6530 C   0  0  0  0  0  0  0  0  0  0  0  0
   50.7260   34.0240   42.4990 C   0  0  0  0  0  0  0  0  0  0  0  0
   50.8940   32.7830   41.8960 C   0  0  0  0  0  0  0  0  0  0  0  0
   49.7750   32.1020   41.4470 C   0  0  0  0  0  0  0  0  0  0  0  0
   48.5200   32.6530   41.5990 C   0  0  0  0  0  0  0  0  0  0  0  0
   47.3270   32.0800   41.1970 O   0  0  0  0  0  0  0  0  0  0  0  0
   44.0162   35.3374   46.4841 H   0  0  0  0  0  0  0  0  0  0  0  0
   44.8507   36.0486   44.2199 H   0  0  0  0  0  0  0  0  0  0  0  0
   47.1507   30.9942   45.9315 H   0  0  0  0  0  0  0  0  0  0  0  0
   44.4264   30.8857   46.3538 H   0  0  0  0  0  0  0  0  0  0  0  0
   45.4430   29.6493   47.0687 H   0  0  0  0  0  0  0  0  0  0  0  0
   44.3905   32.2451   48.3199 H   0  0  0  0  0  0  0  0  0  0  0  0
   44.2847   30.6271   48.9974 H   0  0  0  0  0  0  0  0  0  0  0  0
   46.2217   32.3083   49.7927 H   0  0  0  0  0  0  0  0  0  0  0  0
   46.6220   30.6049   49.5763 H   0  0  0  0  0  0  0  0  0  0  0  0
   48.1153   31.2978   47.9385 H   0  0  0  0  0  0  0  0  0  0  0  0
   47.7993   33.4368   49.0066 H   0  0  0  0  0  0  0  0  0  0  0  0
   48.6227   33.2321   47.5543 H   0  0  0  0  0  0  0  0  0  0  0  0
   49.3575   35.5614   43.1321 H   0  0  0  0  0  0  0  0  0  0  0  0
   51.6080   34.5736   42.8596 H   0  0  0  0  0  0  0  0  0  0  0  0
   51.8980   32.3495   41.7776 H   0  0  0  0  0  0  0  0  0  0  0  0
   49.8875   31.1184   40.9676 H   0  0  0  0  0  0  0  0  0  0  0  0
   46.4727   32.5560   41.3507 H   0  0  0  0  0  0  0  0  0  0  0  0
  1  6  2  0
  2  1  1  0
  3  2  2  0
  3  4  1  0
  4  5  2  0
  5  6  1  0
  5  7  1  0
  7  8  1  0
  7 11  1  0
  8  9  1  0
  9 10  1  0
 11 12  1  0
 11 10  1  0
 13  3  1  0
 14 13  1  0
 14 15  2  0
 16 15  1  0
 17 16  2  0
 18 19  2  0
 18 17  1  0
 19 14  1  0
 20 19  1  0
  1 21  1  0
  2 22  1  0
  7 23  1  6
  8 24  1  0
  8 25  1  0
  9 26  1  0
  9 27  1  0
 10 28  1  0
 10 29  1  0
 11 30  1  1
 12 31  1  0
 12 32  1  0
 15 33  1  0
 16 34  1  0
 17 35  1  0
 18 36  1  0
 20 37  1  0
M  ISO  8  21  14  22  14  23  13  24  13  25  13  26  13  27  13  28  13
M  ISO  8  29  13  30  13  31   5  32   5  33  14  34  14  35  14  36  14
M  ISO  1  37   3
M  END
>  <minimizedAffinity>  (1) 
-5.60563898

>  <minimizedRMSD>  (1) 
0.535832942

$$$$
