
     RDKit          3D

 53 57  0  0  1  0  0  0  0  0999 V2000
   46.6830   32.8240   43.2060 C   0  0  0  0  0  0  0  0  0  0  0  0
   45.8140   33.7380   44.0000 C   0  0  0  0  0  0  0  0  0  0  0  0
   44.8690   34.6180   43.5730 C   0  0  0  0  0  0  0  0  0  0  0  0
   44.3530   35.2520   44.6620 N   0  0  0  0  0  0  0  0  0  0  0  0
   44.9760   34.7640   45.7420 C   0  0  0  0  0  0  0  0  0  0  0  0
   45.8600   33.8490   45.3660 N   0  0  0  0  0  0  0  0  0  0  0  0
   46.7100   33.0820   46.2640 C   0  0  0  0  0  0  0  0  0  0  0  0
   46.0850   31.8200   46.5550 N   0  0  0  0  0  0  0  0  0  0  0  0
   45.4080   31.7790   47.7510 C   0  0  0  0  0  0  0  0  0  0  0  0
   44.8350   30.5990   47.9730 N   0  0  0  0  0  0  0  0  0  0  0  0
   45.1110   29.8080   46.9260 C   0  0  0  0  0  0  0  0  0  0  0  0
   44.8700   28.5240   46.4860 C   0  0  0  0  0  0  0  0  0  0  0  0
   44.1630   27.7960   47.2600 O   0  0  0  0  0  0  0  0  0  0  0  0
   45.3670   28.0870   45.2920 N   0  0  0  0  0  0  0  0  0  0  0  0
   46.1050   28.8990   44.5180 C   0  0  0  0  0  0  0  0  0  0  0  0
   46.5680   28.3350   43.3020 N   0  0  0  0  0  0  0  0  0  0  0  0
   46.3420   30.1420   44.9410 N   0  0  0  0  0  0  0  0  0  0  0  0
   45.8680   30.5900   46.0990 C   0  0  0  0  0  0  0  0  0  0  0  0
   48.0990   33.2920   43.4290 C   0  0  0  0  0  0  0  0  0  0  0  0
   48.0670   34.2810   41.1410 C   0  0  2  0  0  0  0  0  0  0  0  0
   48.4760   35.5870   41.4660 C   0  0  0  0  0  0  0  0  0  0  0  0
   49.8040   35.4650   42.2570 C   0  0  0  0  0  0  0  0  0  0  0  0
   50.1590   33.9880   42.3310 C   0  0  0  0  0  0  0  0  0  0  0  0
   48.8560   33.3530   42.1430 C   0  0  1  0  0  0  0  0  0  0  0  0
   48.3330   33.6630   39.8090 C   0  0  0  0  0  0  0  0  0  0  0  0
   48.2920   34.5080   38.7090 C   0  0  0  0  0  0  0  0  0  0  0  0
   48.5290   33.9930   37.4460 C   0  0  0  0  0  0  0  0  0  0  0  0
   48.7950   32.6400   37.3790 N   0  0  0  0  0  0  0  0  0  0  0  0
   48.8220   31.8790   38.4640 C   0  0  0  0  0  0  0  0  0  0  0  0
   48.5960   32.3550   39.6970 N   0  0  0  0  0  0  0  0  0  0  0  0
   46.4250   32.8842   42.1384 H   0  0  0  0  0  0  0  0  0  0  0  0
   46.5530   31.7767   43.5163 H   0  0  0  0  0  0  0  0  0  0  0  0
   44.5725   34.7883   42.5275 H   0  0  0  0  0  0  0  0  0  0  0  0
   44.7846   35.0737   46.7800 H   0  0  0  0  0  0  0  0  0  0  0  0
   47.6848   32.9066   45.7855 H   0  0  0  0  0  0  0  0  0  0  0  0
   46.8559   33.6430   47.1989 H   0  0  0  0  0  0  0  0  0  0  0  0
   45.3469   32.6282   48.4475 H   0  0  0  0  0  0  0  0  0  0  0  0
   45.1738   27.1241   44.9815 H   0  0  0  0  0  0  0  0  0  0  0  0
   46.3312   27.3616   43.0627 H   0  0  0  0  0  0  0  0  0  0  0  0
   47.1411   28.8988   42.6581 H   0  0  0  0  0  0  0  0  0  0  0  0
   48.0786   34.2945   43.8814 H   0  0  0  0  0  0  0  0  0  0  0  0
   48.6018   32.5760   44.0958 H   0  0  0  0  0  0  0  0  0  0  0  0
   46.9706   34.3647   41.1707 H   0  0  0  0  0  0  0  0  0  0  0  0
   48.6358   36.1718   40.5481 H   0  0  0  0  0  0  0  0  0  0  0  0
   47.7091   36.0999   42.0650 H   0  0  0  0  0  0  0  0  0  0  0  0
   50.6017   36.0173   41.7388 H   0  0  0  0  0  0  0  0  0  0  0  0
   49.6934   35.8876   43.2666 H   0  0  0  0  0  0  0  0  0  0  0  0
   50.8606   33.7050   41.5324 H   0  0  0  0  0  0  0  0  0  0  0  0
   50.6628   33.6990   43.2652 H   0  0  0  0  0  0  0  0  0  0  0  0
   48.9771   32.3246   41.7718 H   0  0  0  0  0  0  0  0  0  0  0  0
   48.0730   35.5781   38.8395 H   0  0  0  0  0  0  0  0  0  0  0  0
   48.5066   34.6261   36.5467 H   0  0  0  0  0  0  0  0  0  0  0  0
   49.0399   30.8071   38.3475 H   0  0  0  0  0  0  0  0  0  0  0  0
  1 19  1  0
  1  2  1  0
  2  6  1  0
  3  2  2  0
  3  4  1  0
  4  5  2  0
  6  5  1  0
  6  7  1  0
  7  8  1  0
  8  9  1  0
  9 10  2  0
 11 10  1  0
 12 11  1  0
 12 13  2  0
 14 12  1  0
 15 17  2  0
 15 14  1  0
 16 15  1  0
 17 18  1  0
 18  8  1  0
 18 11  2  0
 20 21  1  0
 20 24  1  0
 21 22  1  0
 22 23  1  0
 24 23  1  0
 24 19  1  0
 25 20  1  0
 26 25  2  0
 27 26  1  0
 28 27  2  0
 28 29  1  0
 29 30  2  0
 30 25  1  0
  1 31  1  0
  1 32  1  0
  3 33  1  0
  5 34  1  0
  7 35  1  0
  7 36  1  0
  9 37  1  0
 14 38  1  0
 16 39  1  0
 16 40  1  0
 19 41  1  0
 19 42  1  0
 20 43  1  1
 21 44  1  0
 21 45  1  0
 22 46  1  0
 22 47  1  0
 23 48  1  0
 23 49  1  0
 24 50  1  6
 26 51  1  0
 27 52  1  0
 29 53  1  0
M  ISO  8  31   8  32   8  33  14  34  14  35   8  36   8  37  14  38   9
M  ISO  8  41   8  42   8  43  13  44  13  45  13  46  13  47  13  48  13
M  ISO  5  49  13  50  13  51  14  52  14  53  14
M  END
>  <minimizedAffinity>  (1) 
-6.01188469

>  <minimizedRMSD>  (1) 
1.65826452

$$$$
