
     RDKit          3D

 31 33  0  0  0  0  0  0  0  0999 V2000
   47.0080   34.8190   41.9970 C   0  0  0  0  0  0  0  0  0  0  0  0
   48.2370   35.4520   41.9750 C   0  0  0  0  0  0  0  0  0  0  0  0
   48.9100   35.4370   40.8000 C   0  0  0  0  0  0  0  0  0  0  0  0
   48.3970   34.8320   39.7090 N   0  0  0  0  0  0  0  0  0  0  0  0
   47.1890   34.2180   39.7540 C   0  0  0  0  0  0  0  0  0  0  0  0
   46.5130   34.2270   40.9200 N   0  0  0  0  0  0  0  0  0  0  0  0
   46.6530   33.5840   38.6110 N   0  0  0  0  0  0  0  0  0  0  0  0
   45.4660   32.9200   38.6270 C   0  0  0  0  0  0  0  0  0  0  0  0
   44.9710   32.3060   37.4740 C   0  0  0  0  0  0  0  0  0  0  0  0
   43.6690   31.5840   37.5090 C   0  0  0  0  0  0  0  0  0  0  0  0
   45.7210   32.3870   36.2980 C   0  0  0  0  0  0  0  0  0  0  0  0
   45.3130   31.8500   35.2430 O   0  0  0  0  0  0  0  0  0  0  0  0
   46.9120   33.0480   36.2660 N   0  0  0  0  0  0  0  0  0  0  0  0
   47.2960   33.6020   37.4300 C   0  0  0  0  0  0  0  0  0  0  0  0
   48.3950   34.2180   37.4180 O   0  0  0  0  0  0  0  0  0  0  0  0
   44.5470   35.7650   44.6480 C   0  0  0  0  0  0  0  0  0  0  0  0
   45.2690   35.7940   43.4340 C   0  0  0  0  0  0  0  0  0  0  0  0
   46.2530   34.8090   43.2330 C   0  0  0  0  0  0  0  0  0  0  0  0
   46.4610   33.8900   44.1950 N   0  0  0  0  0  0  0  0  0  0  0  0
   45.7400   33.8920   45.3580 C   0  0  0  0  0  0  0  0  0  0  0  0
   44.7950   34.8250   45.5710 N   0  0  0  0  0  0  0  0  0  0  0  0
   48.6482   35.9440   42.8688 H   0  0  0  0  0  0  0  0  0  0  0  0
   49.8926   35.9270   40.7341 H   0  0  0  0  0  0  0  0  0  0  0  0
   44.8876   32.8657   39.5611 H   0  0  0  0  0  0  0  0  0  0  0  0
   43.3697   31.4181   38.5544 H   0  0  0  0  0  0  0  0  0  0  0  0
   42.9022   32.1858   36.9992 H   0  0  0  0  0  0  0  0  0  0  0  0
   43.7733   30.6149   36.9992 H   0  0  0  0  0  0  0  0  0  0  0  0
   47.4794   33.1186   35.4093 H   0  0  0  0  0  0  0  0  0  0  0  0
   43.7724   36.5225   44.8380 H   0  0  0  0  0  0  0  0  0  0  0  0
   45.0684   36.5611   42.6715 H   0  0  0  0  0  0  0  0  0  0  0  0
   45.9344   33.1260   46.1232 H   0  0  0  0  0  0  0  0  0  0  0  0
  1 18  1  0
  2  1  2  0
  3  2  1  0
  4  5  1  0
  4  3  2  0
  5  6  2  0
  6  1  1  0
  7  8  1  0
  7  5  1  0
  9 10  1  0
  9  8  2  0
 11  9  1  0
 12 11  2  0
 13 11  1  0
 13 14  1  0
 14  7  1  0
 15 14  2  0
 16 21  2  0
 17 16  1  0
 18 17  2  0
 18 19  1  0
 19 20  2  0
 20 21  1  0
  2 22  1  0
  3 23  1  0
  8 24  1  0
 10 25  1  0
 10 26  1  0
 10 27  1  0
 13 28  1  0
 16 29  1  0
 17 30  1  0
 20 31  1  0
M  ISO  8  22  14  23  14  24  14  25   8  26   8  27   8  28   9  29  14
M  ISO  2  30  14  31  14
M  END
>  <minimizedAffinity>  (1) 
-6.09367895

>  <minimizedRMSD>  (1) 
0.60872668

$$$$
