
     RDKit          3D

 32 35  0  0  0  0  0  0  0  0999 V2000
   46.8540   34.7540   42.0250 C   0  0  0  0  0  0  0  0  0  0  0  0
   48.0850   35.3650   41.9400 C   0  0  0  0  0  0  0  0  0  0  0  0
   48.7430   35.2710   40.7630 C   0  0  0  0  0  0  0  0  0  0  0  0
   48.2150   34.6110   39.7240 N   0  0  0  0  0  0  0  0  0  0  0  0
   46.9890   34.0070   39.8200 C   0  0  0  0  0  0  0  0  0  0  0  0
   46.3460   34.1080   40.9970 N   0  0  0  0  0  0  0  0  0  0  0  0
   46.3790   33.2790   38.7140 C   0  0  0  0  0  0  0  0  0  0  0  0
   45.1010   32.7330   38.6960 C   0  0  0  0  0  0  0  0  0  0  0  0
   44.9290   32.1510   37.4980 N   0  0  0  0  0  0  0  0  0  0  0  0
   46.0470   32.3080   36.7650 C   0  0  0  0  0  0  0  0  0  0  0  0
   46.3880   31.9080   35.4870 C   0  0  0  0  0  0  0  0  0  0  0  0
   47.6210   32.1920   34.9370 C   0  0  0  0  0  0  0  0  0  0  0  0
   48.5850   32.9060   35.6600 C   0  0  0  0  0  0  0  0  0  0  0  0
   48.2090   33.2890   36.9310 C   0  0  0  0  0  0  0  0  0  0  0  0
   46.9940   33.0210   37.5050 C   0  0  0  0  0  0  0  0  0  0  0  0
   44.5030   35.9170   44.6980 C   0  0  0  0  0  0  0  0  0  0  0  0
   45.2010   35.8820   43.4620 C   0  0  0  0  0  0  0  0  0  0  0  0
   46.1150   34.8320   43.2720 C   0  0  0  0  0  0  0  0  0  0  0  0
   46.2770   33.9260   44.2590 N   0  0  0  0  0  0  0  0  0  0  0  0
   45.5900   33.9920   45.4280 C   0  0  0  0  0  0  0  0  0  0  0  0
   44.7170   34.9770   45.6370 N   0  0  0  0  0  0  0  0  0  0  0  0
   48.5153   35.9073   42.7948 H   0  0  0  0  0  0  0  0  0  0  0  0
   49.7299   35.7451   40.6566 H   0  0  0  0  0  0  0  0  0  0  0  0
   44.3655   32.7707   39.5130 H   0  0  0  0  0  0  0  0  0  0  0  0
   44.0767   31.6620   37.1891 H   0  0  0  0  0  0  0  0  0  0  0  0
   45.6543   31.3463   34.8902 H   0  0  0  0  0  0  0  0  0  0  0  0
   47.8503   31.8528   33.9160 H   0  0  0  0  0  0  0  0  0  0  0  0
   49.5744   33.1451   35.2429 H   0  0  0  0  0  0  0  0  0  0  0  0
   48.9403   33.8524   37.5291 H   0  0  0  0  0  0  0  0  0  0  0  0
   43.7786   36.7221   44.8903 H   0  0  0  0  0  0  0  0  0  0  0  0
   45.0334   36.6441   42.6867 H   0  0  0  0  0  0  0  0  0  0  0  0
   45.7543   33.2306   46.2047 H   0  0  0  0  0  0  0  0  0  0  0  0
  1 18  1  0
  2  1  2  0
  3  2  1  0
  4  5  1  0
  4  3  2  0
  5  6  2  0
  6  1  1  0
  7  5  1  0
  8  7  2  0
  9  8  1  0
 10  9  1  0
 10 15  2  0
 11 10  1  0
 12 11  2  0
 12 13  1  0
 13 14  2  0
 14 15  1  0
 15  7  1  0
 16 21  2  0
 17 16  1  0
 18 17  2  0
 18 19  1  0
 19 20  2  0
 20 21  1  0
  2 22  1  0
  3 23  1  0
  8 24  1  0
  9 25  1  0
 11 26  1  0
 12 27  1  0
 13 28  1  0
 14 29  1  0
 16 30  1  0
 17 31  1  0
 20 32  1  0
M  ISO  8  22  14  23  14  24  14  25   9  26  14  27  14  28  14  29  14
M  ISO  3  30  14  31  14  32  14
M  END
>  <minimizedAffinity>  (1) 
-5.81746149

>  <minimizedRMSD>  (1) 
0.437446326

$$$$
