
     RDKit          3D

 31 33  0  0  0  0  0  0  0  0999 V2000
   46.7720   34.7000   42.0210 C   0  0  0  0  0  0  0  0  0  0  0  0
   47.9910   35.3040   41.8950 C   0  0  0  0  0  0  0  0  0  0  0  0
   48.6260   35.1740   40.7080 C   0  0  0  0  0  0  0  0  0  0  0  0
   48.0570   34.4690   39.7010 N   0  0  0  0  0  0  0  0  0  0  0  0
   46.8490   33.8770   39.8460 C   0  0  0  0  0  0  0  0  0  0  0  0
   46.2200   34.0080   41.0260 N   0  0  0  0  0  0  0  0  0  0  0  0
   44.4940   35.9480   44.7240 C   0  0  0  0  0  0  0  0  0  0  0  0
   45.1710   35.8690   43.4830 C   0  0  0  0  0  0  0  0  0  0  0  0
   46.0560   34.8160   43.2850 C   0  0  0  0  0  0  0  0  0  0  0  0
   46.2330   33.9100   44.2890 N   0  0  0  0  0  0  0  0  0  0  0  0
   45.5580   34.0260   45.4720 C   0  0  0  0  0  0  0  0  0  0  0  0
   44.7080   35.0300   45.6730 N   0  0  0  0  0  0  0  0  0  0  0  0
   45.3080   31.7670   36.5610 C   0  0  0  0  0  0  0  0  0  0  0  0
   44.7510   31.5520   37.8050 C   0  0  0  0  0  0  0  0  0  0  0  0
   45.2550   32.2490   38.9060 C   0  0  0  0  0  0  0  0  0  0  0  0
   46.2990   33.1340   38.7220 C   0  0  0  0  0  0  0  0  0  0  0  0
   46.8650   33.3570   37.4810 C   0  0  0  0  0  0  0  0  0  0  0  0
   46.3610   32.6640   36.3900 C   0  0  0  0  0  0  0  0  0  0  0  0
   44.6450   30.8690   35.1880 S   0  0  0  0  0  0  0  0  0  0  0  0
   45.0060   31.5920   33.9370 O   0  0  0  0  0  0  0  0  0  0  0  0
   43.1520   30.8020   35.3670 O   0  0  0  0  0  0  0  0  0  0  0  0
   48.4373   35.8723   42.7244 H   0  0  0  0  0  0  0  0  0  0  0  0
   49.6097   35.6433   40.5595 H   0  0  0  0  0  0  0  0  0  0  0  0
   43.7870   36.7702   44.9090 H   0  0  0  0  0  0  0  0  0  0  0  0
   45.0012   36.6201   42.6975 H   0  0  0  0  0  0  0  0  0  0  0  0
   45.7191   33.2819   46.2659 H   0  0  0  0  0  0  0  0  0  0  0  0
   43.9208   30.8410   37.9283 H   0  0  0  0  0  0  0  0  0  0  0  0
   44.8256   32.0947   39.9069 H   0  0  0  0  0  0  0  0  0  0  0  0
   47.6960   34.0677   37.3611 H   0  0  0  0  0  0  0  0  0  0  0  0
   46.7922   32.8223   35.3905 H   0  0  0  0  0  0  0  0  0  0  0  0
   45.1478   29.5967   35.1144 H   0  0  0  0  0  0  0  0  0  0  0  0
  1  9  1  0
  2  1  2  0
  3  2  1  0
  4  5  1  0
  4  3  2  0
  5  6  2  0
  6  1  1  0
  7 12  2  0
  8  7  1  0
  9  8  2  0
  9 10  1  0
 10 11  2  0
 11 12  1  0
 13 14  2  0
 14 15  1  0
 16 15  2  0
 16  5  1  0
 17 16  1  0
 18 13  1  0
 18 17  2  0
 19 21  2  0
 19 13  1  0
 20 19  2  0
  2 22  1  0
  3 23  1  0
  7 24  1  0
  8 25  1  0
 11 26  1  0
 14 27  1  0
 15 28  1  0
 17 29  1  0
 18 30  1  0
 19 31  1  0
M  ISO  8  22  14  23  14  24  14  25  14  26  14  27  14  28  14  29  14
M  ISO  2  30  14  31  11
M  END
>  <minimizedAffinity>  (1) 
-5.40873432

>  <minimizedRMSD>  (1) 
0.609676838

$$$$
