
     RDKit          3D

 24 26  0  0  0  0  0  0  0  0999 V2000
   46.7890   34.7070   42.0100 C   0  0  0  0  0  0  0  0  0  0  0  0
   48.0200   35.2950   41.8990 C   0  0  0  0  0  0  0  0  0  0  0  0
   48.6420   35.1650   40.6880 C   0  0  0  0  0  0  0  0  0  0  0  0
   48.0730   34.5010   39.6780 N   0  0  0  0  0  0  0  0  0  0  0  0
   46.8470   33.9240   39.8100 C   0  0  0  0  0  0  0  0  0  0  0  0
   46.2270   34.0470   40.9990 N   0  0  0  0  0  0  0  0  0  0  0  0
   46.1540   33.1970   38.8010 N   0  0  0  0  0  0  0  0  0  0  0  0
   45.0580   32.3920   38.7220 C   0  0  0  0  0  0  0  0  0  0  0  0
   44.9210   32.0000   37.4270 N   0  0  0  0  0  0  0  0  0  0  0  0
   45.9230   32.5580   36.7170 C   0  0  0  0  0  0  0  0  0  0  0  0
   46.6720   33.2940   37.5870 N   0  0  0  0  0  0  0  0  0  0  0  0
   44.5010   35.9350   44.7100 C   0  0  0  0  0  0  0  0  0  0  0  0
   45.1760   35.8780   43.4610 C   0  0  0  0  0  0  0  0  0  0  0  0
   46.0690   34.8100   43.2790 C   0  0  0  0  0  0  0  0  0  0  0  0
   46.2500   33.9060   44.2640 N   0  0  0  0  0  0  0  0  0  0  0  0
   45.5740   34.0070   45.4530 C   0  0  0  0  0  0  0  0  0  0  0  0
   44.7160   35.0080   45.6590 N   0  0  0  0  0  0  0  0  0  0  0  0
   48.4821   35.8403   42.7351 H   0  0  0  0  0  0  0  0  0  0  0  0
   49.6339   35.6177   40.5422 H   0  0  0  0  0  0  0  0  0  0  0  0
   44.4005   32.1092   39.5573 H   0  0  0  0  0  0  0  0  0  0  0  0
   46.1024   32.4412   35.6380 H   0  0  0  0  0  0  0  0  0  0  0  0
   43.7902   36.7519   44.9035 H   0  0  0  0  0  0  0  0  0  0  0  0
   45.0077   36.6314   42.6774 H   0  0  0  0  0  0  0  0  0  0  0  0
   45.7401   33.2583   46.2416 H   0  0  0  0  0  0  0  0  0  0  0  0
  1 14  1  0
  2  1  2  0
  3  2  1  0
  4  5  1  0
  4  3  2  0
  5  6  2  0
  6  1  1  0
  7  5  1  0
  8  7  1  0
  9  8  2  0
 10  9  1  0
 10 11  2  0
 11  7  1  0
 12 17  2  0
 13 12  1  0
 14 13  2  0
 14 15  1  0
 15 16  2  0
 16 17  1  0
  2 18  1  0
  3 19  1  0
  8 20  1  0
 10 21  1  0
 12 22  1  0
 13 23  1  0
 16 24  1  0
M  ISO  7  18  14  19  14  20  14  21  14  22  14  23  14  24  14
M  END
>  <minimizedAffinity>  (1) 
-5.22501945

>  <minimizedRMSD>  (1) 
0.146022454

$$$$
