
     RDKit          3D

 28 30  0  0  0  0  0  0  0  0999 V2000
   46.7530   34.7150   42.0120 C   0  0  0  0  0  0  0  0  0  0  0  0
   48.0090   35.2930   41.9130 C   0  0  0  0  0  0  0  0  0  0  0  0
   48.6390   35.1450   40.7110 C   0  0  0  0  0  0  0  0  0  0  0  0
   48.0620   34.4710   39.6870 N   0  0  0  0  0  0  0  0  0  0  0  0
   46.8350   33.9220   39.8260 C   0  0  0  0  0  0  0  0  0  0  0  0
   46.2040   34.0580   40.9990 N   0  0  0  0  0  0  0  0  0  0  0  0
   44.5020   35.9520   44.7250 C   0  0  0  0  0  0  0  0  0  0  0  0
   45.1630   35.9060   43.4630 C   0  0  0  0  0  0  0  0  0  0  0  0
   46.0340   34.8410   43.2710 C   0  0  0  0  0  0  0  0  0  0  0  0
   46.2010   33.9330   44.2640 N   0  0  0  0  0  0  0  0  0  0  0  0
   45.5490   34.0180   45.4500 C   0  0  0  0  0  0  0  0  0  0  0  0
   44.7050   35.0260   45.6710 N   0  0  0  0  0  0  0  0  0  0  0  0
   46.2220   33.1990   38.7170 C   0  0  0  0  0  0  0  0  0  0  0  0
   46.7730   33.3150   37.4580 C   0  0  0  0  0  0  0  0  0  0  0  0
   46.2190   32.6460   36.3880 C   0  0  0  0  0  0  0  0  0  0  0  0
   45.1060   31.8770   36.6730 C   0  0  0  0  0  0  0  0  0  0  0  0
   44.5040   31.7160   37.9090 C   0  0  0  0  0  0  0  0  0  0  0  0
   45.1090   32.4170   38.9490 C   0  0  0  0  0  0  0  0  0  0  0  0
   48.4694   35.8371   42.7508 H   0  0  0  0  0  0  0  0  0  0  0  0
   49.6382   35.5831   40.5706 H   0  0  0  0  0  0  0  0  0  0  0  0
   43.8018   36.7755   44.9287 H   0  0  0  0  0  0  0  0  0  0  0  0
   44.9936   36.6679   42.6879 H   0  0  0  0  0  0  0  0  0  0  0  0
   45.7160   33.2577   46.2272 H   0  0  0  0  0  0  0  0  0  0  0  0
   47.6612   33.9461   37.3068 H   0  0  0  0  0  0  0  0  0  0  0  0
   46.6356   32.7192   35.3726 H   0  0  0  0  0  0  0  0  0  0  0  0
   44.6514   31.3367   35.8295 H   0  0  0  0  0  0  0  0  0  0  0  0
   43.6165   31.0834   38.0581 H   0  0  0  0  0  0  0  0  0  0  0  0
   44.6955   32.3467   39.9659 H   0  0  0  0  0  0  0  0  0  0  0  0
  1  9  1  0
  2  1  2  0
  3  2  1  0
  4  5  1  0
  4  3  2  0
  5  6  2  0
  6  1  1  0
  7 12  2  0
  8  7  1  0
  9  8  2  0
  9 10  1  0
 10 11  2  0
 11 12  1  0
 13 18  1  0
 13  5  1  0
 14 13  2  0
 15 16  2  0
 15 14  1  0
 16 17  1  0
 17 18  2  0
  2 19  1  0
  3 20  1  0
  7 21  1  0
  8 22  1  0
 11 23  1  0
 14 24  1  0
 15 25  1  0
 16 26  1  0
 17 27  1  0
 18 28  1  0
M  ISO  8  19  14  20  14  21  14  22  14  23  14  24  14  25  14  26  14
M  ISO  2  27  14  28  14
M  END
>  <minimizedAffinity>  (1) 
-5.14455414

>  <minimizedRMSD>  (1) 
0.81051141

$$$$
