
     RDKit          3D

 21 22  0  0  0  0  0  0  0  0999 V2000
   46.7850   34.7150   41.9980 C   0  0  0  0  0  0  0  0  0  0  0  0
   48.0000   35.3240   41.8730 C   0  0  0  0  0  0  0  0  0  0  0  0
   48.6330   35.1780   40.6810 C   0  0  0  0  0  0  0  0  0  0  0  0
   48.0740   34.4610   39.6770 N   0  0  0  0  0  0  0  0  0  0  0  0
   46.8680   33.8680   39.8310 C   0  0  0  0  0  0  0  0  0  0  0  0
   46.2370   34.0090   41.0070 N   0  0  0  0  0  0  0  0  0  0  0  0
   44.5030   35.9420   44.7030 C   0  0  0  0  0  0  0  0  0  0  0  0
   45.1740   35.8900   43.4510 C   0  0  0  0  0  0  0  0  0  0  0  0
   46.0590   34.8360   43.2550 C   0  0  0  0  0  0  0  0  0  0  0  0
   46.2310   33.9280   44.2560 N   0  0  0  0  0  0  0  0  0  0  0  0
   45.5730   34.0090   45.4380 C   0  0  0  0  0  0  0  0  0  0  0  0
   44.7090   35.0190   45.6580 N   0  0  0  0  0  0  0  0  0  0  0  0
   46.3170   33.0970   38.6850 C   0  0  0  0  0  0  0  0  0  0  0  0
   44.9190   33.1240   38.6870 F   0  0  0  0  0  0  0  0  0  0  0  0
   46.6930   33.6310   37.4750 F   0  0  0  0  0  0  0  0  0  0  0  0
   46.7940   31.8050   38.7210 F   0  0  0  0  0  0  0  0  0  0  0  0
   48.4436   35.9035   42.6960 H   0  0  0  0  0  0  0  0  0  0  0  0
   49.6151   35.6493   40.5281 H   0  0  0  0  0  0  0  0  0  0  0  0
   43.7947   36.7613   44.8958 H   0  0  0  0  0  0  0  0  0  0  0  0
   45.0010   36.6485   42.6733 H   0  0  0  0  0  0  0  0  0  0  0  0
   45.7441   33.2511   46.2167 H   0  0  0  0  0  0  0  0  0  0  0  0
  1  9  1  0
  2  1  2  0
  3  2  1  0
  4  5  1  0
  4  3  2  0
  5  6  2  0
  6  1  1  0
  7 12  2  0
  8  7  1  0
  9  8  2  0
  9 10  1  0
 10 11  2  0
 11 12  1  0
 13 14  1  0
 13 16  1  0
 13  5  1  0
 15 13  1  0
  2 17  1  0
  3 18  1  0
  7 19  1  0
  8 20  1  0
 11 21  1  0
M  ISO  5  17  14  18  14  19  14  20  14  21  14
M  END
>  <minimizedAffinity>  (1) 
-4.80680323

>  <minimizedRMSD>  (1) 
0.0629670545

$$$$
