
     RDKit          3D

 27 28  0  0  0  0  0  0  0  0999 V2000
   46.8190   34.7350   41.9370 C   0  0  0  0  0  0  0  0  0  0  0  0
   48.0270   35.3720   41.8180 C   0  0  0  0  0  0  0  0  0  0  0  0
   48.6750   35.2130   40.6290 C   0  0  0  0  0  0  0  0  0  0  0  0
   48.1380   34.4650   39.6350 N   0  0  0  0  0  0  0  0  0  0  0  0
   46.9390   33.8450   39.7810 C   0  0  0  0  0  0  0  0  0  0  0  0
   46.3090   34.0080   40.9580 N   0  0  0  0  0  0  0  0  0  0  0  0
   44.5080   36.0130   44.5900 C   0  0  0  0  0  0  0  0  0  0  0  0
   45.2000   35.9330   43.3610 C   0  0  0  0  0  0  0  0  0  0  0  0
   46.0740   34.8690   43.1940 C   0  0  0  0  0  0  0  0  0  0  0  0
   46.2250   33.9740   44.1910 N   0  0  0  0  0  0  0  0  0  0  0  0
   45.5440   34.0750   45.3710 C   0  0  0  0  0  0  0  0  0  0  0  0
   44.6940   35.0950   45.5560 N   0  0  0  0  0  0  0  0  0  0  0  0
   46.3820   33.0360   38.6740 C   0  0  0  0  0  0  0  0  0  0  0  0
   44.8770   33.0500   38.7950 C   0  0  0  0  0  0  0  0  0  0  0  0
   46.8900   33.4120   37.3240 C   0  0  0  0  0  0  0  0  0  0  0  0
   48.4491   35.9764   42.6344 H   0  0  0  0  0  0  0  0  0  0  0  0
   49.6492   35.6997   40.4742 H   0  0  0  0  0  0  0  0  0  0  0  0
   43.8042   36.8410   44.7604 H   0  0  0  0  0  0  0  0  0  0  0  0
   45.0520   36.6828   42.5699 H   0  0  0  0  0  0  0  0  0  0  0  0
   45.6919   33.3257   46.1626 H   0  0  0  0  0  0  0  0  0  0  0  0
   46.7401   32.0007   38.7733 H   0  0  0  0  0  0  0  0  0  0  0  0
   44.5946   33.0526   39.8581 H   0  0  0  0  0  0  0  0  0  0  0  0
   44.4783   33.9519   38.3075 H   0  0  0  0  0  0  0  0  0  0  0  0
   44.4616   32.1557   38.3075 H   0  0  0  0  0  0  0  0  0  0  0  0
   47.7699   34.0633   37.4316 H   0  0  0  0  0  0  0  0  0  0  0  0
   47.1718   32.5032   36.7721 H   0  0  0  0  0  0  0  0  0  0  0  0
   46.1032   33.9470   36.7721 H   0  0  0  0  0  0  0  0  0  0  0  0
  1  9  1  0
  2  1  2  0
  3  2  1  0
  4  5  1  0
  4  3  2  0
  5  6  2  0
  6  1  1  0
  7 12  2  0
  8  7  1  0
  9  8  2  0
  9 10  1  0
 10 11  2  0
 11 12  1  0
 13 14  1  0
 13  5  1  0
 15 13  1  0
  2 16  1  0
  3 17  1  0
  7 18  1  0
  8 19  1  0
 11 20  1  0
 13 21  1  0
 14 22  1  0
 14 23  1  0
 14 24  1  0
 15 25  1  0
 15 26  1  0
 15 27  1  0
M  ISO  8  16  14  17  14  18  14  19  14  20  14  21   8  22   8  23   8
M  ISO  4  24   8  25   8  26   8  27   8
M  END
>  <minimizedAffinity>  (1) 
-4.7685895

>  <minimizedRMSD>  (1) 
0.227799043

$$$$
