
     RDKit          3D

 21 22  0  0  0  0  0  0  0  0999 V2000
   46.8180   34.7200   42.0300 C   0  0  0  0  0  0  0  0  0  0  0  0
   48.0170   35.3620   41.9090 C   0  0  0  0  0  0  0  0  0  0  0  0
   48.6670   35.2300   40.7150 C   0  0  0  0  0  0  0  0  0  0  0  0
   48.1320   34.4980   39.7210 N   0  0  0  0  0  0  0  0  0  0  0  0
   46.9420   33.8690   39.8560 C   0  0  0  0  0  0  0  0  0  0  0  0
   46.2990   34.0010   41.0420 N   0  0  0  0  0  0  0  0  0  0  0  0
   44.5020   35.9340   44.7030 C   0  0  0  0  0  0  0  0  0  0  0  0
   45.1880   35.8840   43.4630 C   0  0  0  0  0  0  0  0  0  0  0  0
   46.0830   34.8270   43.2850 C   0  0  0  0  0  0  0  0  0  0  0  0
   46.2540   33.9210   44.2790 N   0  0  0  0  0  0  0  0  0  0  0  0
   45.5660   34.0190   45.4570 C   0  0  0  0  0  0  0  0  0  0  0  0
   44.7040   35.0180   45.6560 N   0  0  0  0  0  0  0  0  0  0  0  0
   46.3050   33.0480   38.7880 C   0  0  0  0  0  0  0  0  0  0  0  0
   48.4388   35.9564   42.7328 H   0  0  0  0  0  0  0  0  0  0  0  0
   49.6369   35.7268   40.5647 H   0  0  0  0  0  0  0  0  0  0  0  0
   43.7848   36.7477   44.8858 H   0  0  0  0  0  0  0  0  0  0  0  0
   45.0234   36.6397   42.6808 H   0  0  0  0  0  0  0  0  0  0  0  0
   45.7244   33.2690   46.2459 H   0  0  0  0  0  0  0  0  0  0  0  0
   45.6926   32.2587   39.2484 H   0  0  0  0  0  0  0  0  0  0  0  0
   45.6665   33.6902   38.1636 H   0  0  0  0  0  0  0  0  0  0  0  0
   47.0857   32.5890   38.1636 H   0  0  0  0  0  0  0  0  0  0  0  0
  1  9  1  0
  2  1  2  0
  3  2  1  0
  4  5  1  0
  4  3  2  0
  5  6  2  0
  6  1  1  0
  7 12  2  0
  8  7  1  0
  9  8  2  0
  9 10  1  0
 10 11  2  0
 11 12  1  0
 13  5  1  0
  2 14  1  0
  3 15  1  0
  7 16  1  0
  8 17  1  0
 11 18  1  0
 13 19  1  0
 13 20  1  0
 13 21  1  0
M  ISO  8  14  14  15  14  16  14  17  14  18  14  19   8  20   8  21   8
M  END
>  <minimizedAffinity>  (1) 
-4.58892155

>  <minimizedRMSD>  (1) 
0.0555380546

$$$$
