
     RDKit          3D

 42 46  0  0  0  0  0  0  0  0999 V2000
   46.9750   34.8480   42.0040 C   0  0  0  0  0  0  0  0  0  0  0  0
   48.2000   35.4680   42.0020 C   0  0  0  0  0  0  0  0  0  0  0  0
   48.9310   35.3910   40.8620 C   0  0  0  0  0  0  0  0  0  0  0  0
   48.4590   34.7310   39.7880 N   0  0  0  0  0  0  0  0  0  0  0  0
   47.2570   34.1300   39.8110 C   0  0  0  0  0  0  0  0  0  0  0  0
   46.5060   34.1950   40.9460 N   0  0  0  0  0  0  0  0  0  0  0  0
   46.8120   33.4440   38.6350 N   0  0  0  0  0  0  0  0  0  0  0  0
   45.8830   32.4800   38.8590 C   0  0  0  0  0  0  0  0  0  0  0  0
   45.3730   31.7430   37.7900 C   0  0  0  0  0  0  0  0  0  0  0  0
   45.8800   32.0730   36.5500 C   0  0  0  0  0  0  0  0  0  0  0  0
   45.3860   31.3720   35.6010 O   0  0  0  0  0  0  0  0  0  0  0  0
   46.7940   33.0190   36.3200 N   0  0  0  0  0  0  0  0  0  0  0  0
   47.2530   33.7030   37.3980 C   0  0  0  0  0  0  0  0  0  0  0  0
   48.1130   34.6050   37.2470 O   0  0  0  0  0  0  0  0  0  0  0  0
   44.4740   35.9460   44.5550 C   0  0  0  0  0  0  0  0  0  0  0  0
   45.2270   35.9420   43.3440 C   0  0  0  0  0  0  0  0  0  0  0  0
   46.1740   34.9130   43.2060 C   0  0  0  0  0  0  0  0  0  0  0  0
   46.2990   34.0210   44.2100 N   0  0  0  0  0  0  0  0  0  0  0  0
   45.5590   34.0670   45.3450 C   0  0  0  0  0  0  0  0  0  0  0  0
   44.6450   35.0310   45.5160 N   0  0  0  0  0  0  0  0  0  0  0  0
   45.7870   33.0440   46.3600 C   0  0  0  0  0  0  0  0  0  0  0  0
   45.2740   33.0800   47.6410 C   0  0  0  0  0  0  0  0  0  0  0  0
   45.6880   31.9780   48.2970 N   0  0  0  0  0  0  0  0  0  0  0  0
   46.4470   31.2610   47.4420 C   0  0  0  0  0  0  0  0  0  0  0  0
   47.1130   30.0510   47.6030 C   0  0  0  0  0  0  0  0  0  0  0  0
   47.8360   29.5290   46.5360 C   0  0  0  0  0  0  0  0  0  0  0  0
   47.8840   30.2070   45.3400 C   0  0  0  0  0  0  0  0  0  0  0  0
   47.2310   31.4250   45.1340 C   0  0  0  0  0  0  0  0  0  0  0  0
   46.5350   31.8930   46.2160 C   0  0  0  0  0  0  0  0  0  0  0  0
   48.5727   36.0043   42.8871 H   0  0  0  0  0  0  0  0  0  0  0  0
   49.9189   35.8725   40.8147 H   0  0  0  0  0  0  0  0  0  0  0  0
   45.5327   32.2802   39.8824 H   0  0  0  0  0  0  0  0  0  0  0  0
   44.6191   30.9537   37.9262 H   0  0  0  0  0  0  0  0  0  0  0  0
   47.1345   33.2199   35.3689 H   0  0  0  0  0  0  0  0  0  0  0  0
   43.7214   36.7340   44.7052 H   0  0  0  0  0  0  0  0  0  0  0  0
   45.0752   36.7011   42.5625 H   0  0  0  0  0  0  0  0  0  0  0  0
   44.6355   33.8737   48.0560 H   0  0  0  0  0  0  0  0  0  0  0  0
   45.4660   31.7289   49.2715 H   0  0  0  0  0  0  0  0  0  0  0  0
   47.0685   29.5138   48.5619 H   0  0  0  0  0  0  0  0  0  0  0  0
   48.3697   28.5737   46.6483 H   0  0  0  0  0  0  0  0  0  0  0  0
   48.4609   29.7718   44.5107 H   0  0  0  0  0  0  0  0  0  0  0  0
   47.2729   31.9657   44.1770 H   0  0  0  0  0  0  0  0  0  0  0  0
  1 17  1  0
  2  1  2  0
  3  2  1  0
  4  5  1  0
  4  3  2  0
  5  6  2  0
  6  1  1  0
  7  8  1  0
  7  5  1  0
  9  8  2  0
 10  9  1  0
 11 10  2  0
 12 10  1  0
 12 13  1  0
 13  7  1  0
 14 13  2  0
 15 20  2  0
 16 15  1  0
 17 16  2  0
 17 18  1  0
 18 19  2  0
 19 20  1  0
 19 21  1  0
 21 22  2  0
 22 23  1  0
 24 25  2  0
 24 23  1  0
 26 25  1  0
 27 26  2  0
 28 27  1  0
 28 29  2  0
 29 21  1  0
 29 24  1  0
  2 30  1  0
  3 31  1  0
  8 32  1  0
  9 33  1  0
 12 34  1  0
 15 35  1  0
 16 36  1  0
 22 37  1  0
 23 38  1  0
 25 39  1  0
 26 40  1  0
 27 41  1  0
 28 42  1  0
M  ISO  8  30  14  31  14  32  14  33  14  34   9  35  14  36  14  37  14
M  ISO  5  38   9  39  14  40  14  41  14  42  14
M  END
>  <minimizedAffinity>  (1) 
-7.78269005

>  <minimizedRMSD>  (1) 
0.228169516

$$$$
