
     RDKit          3D

 49 52  0  0  1  0  0  0  0  0999 V2000
   48.0990   33.3220   43.4410 C   0  0  0  0  0  0  0  0  0  0  0  0
   48.1000   34.3460   41.1550 C   0  0  2  0  0  0  0  0  0  0  0  0
   48.5760   35.6220   41.5030 C   0  0  0  0  0  0  0  0  0  0  0  0
   49.9040   35.4200   42.2850 C   0  0  0  0  0  0  0  0  0  0  0  0
   50.1800   33.9330   42.3410 C   0  0  0  0  0  0  0  0  0  0  0  0
   48.8510   33.3690   42.1450 C   0  0  1  0  0  0  0  0  0  0  0  0
   48.3280   33.7340   39.8200 C   0  0  0  0  0  0  0  0  0  0  0  0
   48.3190   34.5670   38.7290 C   0  0  0  0  0  0  0  0  0  0  0  0
   48.5310   34.0700   37.4630 C   0  0  0  0  0  0  0  0  0  0  0  0
   48.7470   32.7100   37.3810 N   0  0  0  0  0  0  0  0  0  0  0  0
   48.7500   31.9330   38.4560 C   0  0  0  0  0  0  0  0  0  0  0  0
   48.5430   32.4170   39.6900 N   0  0  0  0  0  0  0  0  0  0  0  0
   46.6420   33.0280   43.2110 C   0  0  0  0  0  0  0  0  0  0  0  0
   45.9050   33.6930   44.3210 C   0  0  0  0  0  0  0  0  0  0  0  0
   45.0060   34.7150   44.2770 C   0  0  0  0  0  0  0  0  0  0  0  0
   44.6140   34.9910   45.5480 N   0  0  0  0  0  0  0  0  0  0  0  0
   45.2620   34.1490   46.3640 C   0  0  0  0  0  0  0  0  0  0  0  0
   46.0450   33.3580   45.6430 N   0  0  0  0  0  0  0  0  0  0  0  0
   46.8940   32.3030   46.1770 C   0  0  0  0  0  0  0  0  0  0  0  0
   46.0820   31.0640   46.2170 C   0  0  0  0  0  0  0  0  0  0  0  0
   45.5920   30.2140   45.2560 C   0  0  0  0  0  0  0  0  0  0  0  0
   44.8360   29.1140   45.5870 C   0  0  0  0  0  0  0  0  0  0  0  0
   44.5120   28.7780   46.8850 C   0  0  0  0  0  0  0  0  0  0  0  0
   44.9920   29.6140   47.8710 C   0  0  0  0  0  0  0  0  0  0  0  0
   45.7510   30.7170   47.5350 C   0  0  0  0  0  0  0  0  0  0  0  0
   48.5285   32.5341   44.0772 H   0  0  0  0  0  0  0  0  0  0  0  0
   48.1845   34.3034   43.9304 H   0  0  0  0  0  0  0  0  0  0  0  0
   47.0090   34.4837   41.1825 H   0  0  0  0  0  0  0  0  0  0  0  0
   48.7596   36.2161   40.5956 H   0  0  0  0  0  0  0  0  0  0  0  0
   47.8389   36.1593   42.1177 H   0  0  0  0  0  0  0  0  0  0  0  0
   50.7265   35.9350   41.7670 H   0  0  0  0  0  0  0  0  0  0  0  0
   49.8220   35.8363   43.2999 H   0  0  0  0  0  0  0  0  0  0  0  0
   50.8672   33.6239   41.5396 H   0  0  0  0  0  0  0  0  0  0  0  0
   50.6662   33.6076   43.2725 H   0  0  0  0  0  0  0  0  0  0  0  0
   48.9190   32.3436   41.7525 H   0  0  0  0  0  0  0  0  0  0  0  0
   48.1404   35.6435   38.8680 H   0  0  0  0  0  0  0  0  0  0  0  0
   48.5283   34.7164   36.5730 H   0  0  0  0  0  0  0  0  0  0  0  0
   48.9283   30.8547   38.3314 H   0  0  0  0  0  0  0  0  0  0  0  0
   46.3192   33.4346   42.2412 H   0  0  0  0  0  0  0  0  0  0  0  0
   46.4490   31.9452   43.1931 H   0  0  0  0  0  0  0  0  0  0  0  0
   44.6574   35.2285   43.3688 H   0  0  0  0  0  0  0  0  0  0  0  0
   45.1606   34.1186   47.4589 H   0  0  0  0  0  0  0  0  0  0  0  0
   47.7696   32.1588   45.5269 H   0  0  0  0  0  0  0  0  0  0  0  0
   47.2560   32.5648   47.1822 H   0  0  0  0  0  0  0  0  0  0  0  0
   45.8093   30.4178   44.1971 H   0  0  0  0  0  0  0  0  0  0  0  0
   44.4707   28.4686   44.7746 H   0  0  0  0  0  0  0  0  0  0  0  0
   43.9042   27.8920   47.1206 H   0  0  0  0  0  0  0  0  0  0  0  0
   44.7697   29.4016   48.9272 H   0  0  0  0  0  0  0  0  0  0  0  0
   46.1174   31.3610   48.3480 H   0  0  0  0  0  0  0  0  0  0  0  0
  2  3  1  0
  2  6  1  0
  3  4  1  0
  4  5  1  0
  6  5  1  0
  6  1  1  0
  7  2  1  0
  8  7  2  0
  9  8  1  0
 10  9  2  0
 10 11  1  0
 11 12  2  0
 12  7  1  0
 13  1  1  0
 13 14  1  0
 14 18  1  0
 15 14  2  0
 15 16  1  0
 16 17  2  0
 18 19  1  0
 18 17  1  0
 19 20  1  0
 20 25  2  0
 21 22  2  0
 21 20  1  0
 22 23  1  0
 23 24  2  0
 25 24  1  0
  1 26  1  0
  1 27  1  0
  2 28  1  1
  3 29  1  0
  3 30  1  0
  4 31  1  0
  4 32  1  0
  5 33  1  0
  5 34  1  0
  6 35  1  6
  8 36  1  0
  9 37  1  0
 11 38  1  0
 13 39  1  0
 13 40  1  0
 15 41  1  0
 17 42  1  0
 19 43  1  0
 19 44  1  0
 21 45  1  0
 22 46  1  0
 23 47  1  0
 24 48  1  0
 25 49  1  0
M  ISO  8  26   8  27   8  28  13  29  13  30  13  31  13  32  13  33  13
M  ISO  8  34  13  35  13  36  14  37  14  38  14  39   8  40   8  41  14
M  ISO  8  42  14  43   8  44   8  45  14  46  14  47  14  48  14  49  14
M  END
>  <minimizedAffinity>  (1) 
-5.72425175

>  <minimizedRMSD>  (1) 
1.51065183

$$$$
