
     RDKit          3D

 44 47  0  0  0  0  0  0  0  0999 V2000
   47.0510   34.7860   42.0150 C   0  0  0  0  0  0  0  0  0  0  0  0
   48.2370   35.4830   41.9800 C   0  0  0  0  0  0  0  0  0  0  0  0
   48.9280   35.4620   40.8130 C   0  0  0  0  0  0  0  0  0  0  0  0
   48.4580   34.7870   39.7530 N   0  0  0  0  0  0  0  0  0  0  0  0
   47.2800   34.1020   39.8110 C   0  0  0  0  0  0  0  0  0  0  0  0
   46.5820   34.1170   40.9740 N   0  0  0  0  0  0  0  0  0  0  0  0
   46.8640   33.4180   38.6380 N   0  0  0  0  0  0  0  0  0  0  0  0
   46.0050   32.3760   38.8870 C   0  0  0  0  0  0  0  0  0  0  0  0
   45.5120   31.6100   37.8350 C   0  0  0  0  0  0  0  0  0  0  0  0
   45.9480   31.9800   36.5870 C   0  0  0  0  0  0  0  0  0  0  0  0
   45.4900   31.2700   35.6280 O   0  0  0  0  0  0  0  0  0  0  0  0
   46.7890   32.9980   36.3340 N   0  0  0  0  0  0  0  0  0  0  0  0
   47.2420   33.7130   37.3830 C   0  0  0  0  0  0  0  0  0  0  0  0
   48.0220   34.6670   37.2240 O   0  0  0  0  0  0  0  0  0  0  0  0
   44.5460   35.6630   44.6450 C   0  0  0  0  0  0  0  0  0  0  0  0
   45.2570   35.7090   43.4130 C   0  0  0  0  0  0  0  0  0  0  0  0
   46.2850   34.7880   43.2540 C   0  0  0  0  0  0  0  0  0  0  0  0
   46.5520   33.9130   44.2590 N   0  0  0  0  0  0  0  0  0  0  0  0
   45.8340   33.9140   45.4230 C   0  0  0  0  0  0  0  0  0  0  0  0
   44.8390   34.7840   45.6120 N   0  0  0  0  0  0  0  0  0  0  0  0
   46.1520   32.9510   46.4870 C   0  0  0  0  0  0  0  0  0  0  0  0
   46.1800   31.5200   45.9530 C   0  0  0  0  0  0  0  0  0  0  0  0
   46.9190   30.7100   47.0110 C   0  0  0  0  0  0  0  0  0  0  0  0
   46.0990   30.7100   48.2810 C   0  0  0  0  0  0  0  0  0  0  0  0
   45.6540   32.0660   48.7200 C   0  0  0  0  0  0  0  0  0  0  0  0
   45.1690   32.9610   47.6230 C   0  0  0  0  0  0  0  0  0  0  0  0
   48.6077   36.0320   42.8582 H   0  0  0  0  0  0  0  0  0  0  0  0
   49.8824   36.0033   40.7349 H   0  0  0  0  0  0  0  0  0  0  0  0
   45.7059   32.1463   39.9203 H   0  0  0  0  0  0  0  0  0  0  0  0
   44.8220   30.7679   37.9923 H   0  0  0  0  0  0  0  0  0  0  0  0
   47.0773   33.2238   35.3713 H   0  0  0  0  0  0  0  0  0  0  0  0
   43.7249   36.3763   44.8092 H   0  0  0  0  0  0  0  0  0  0  0  0
   45.0056   36.4364   42.6270 H   0  0  0  0  0  0  0  0  0  0  0  0
   47.1388   33.2693   46.8543 H   0  0  0  0  0  0  0  0  0  0  0  0
   45.1569   31.1382   45.8205 H   0  0  0  0  0  0  0  0  0  0  0  0
   46.6726   31.4583   44.9714 H   0  0  0  0  0  0  0  0  0  0  0  0
   47.0552   29.6770   46.6582 H   0  0  0  0  0  0  0  0  0  0  0  0
   47.9065   31.1553   47.2022 H   0  0  0  0  0  0  0  0  0  0  0  0
   45.2055   30.0902   48.1152 H   0  0  0  0  0  0  0  0  0  0  0  0
   46.7478   30.3162   49.0772 H   0  0  0  0  0  0  0  0  0  0  0  0
   44.8348   31.9384   49.4429 H   0  0  0  0  0  0  0  0  0  0  0  0
   46.5416   32.5567   49.1459 H   0  0  0  0  0  0  0  0  0  0  0  0
   45.0651   33.9865   48.0072 H   0  0  0  0  0  0  0  0  0  0  0  0
   44.1942   32.5998   47.2634 H   0  0  0  0  0  0  0  0  0  0  0  0
  1 17  1  0
  2  1  2  0
  3  2  1  0
  4  5  1  0
  4  3  2  0
  5  6  2  0
  6  1  1  0
  7  8  1  0
  7  5  1  0
  9  8  2  0
 10  9  1  0
 11 10  2  0
 12 10  1  0
 12 13  1  0
 13  7  1  0
 14 13  2  0
 15 20  2  0
 16 15  1  0
 17 16  2  0
 17 18  1  0
 18 19  2  0
 19 20  1  0
 19 21  1  0
 21 26  1  0
 22 21  1  0
 22 23  1  0
 23 24  1  0
 24 25  1  0
 26 25  1  0
  2 27  1  0
  3 28  1  0
  8 29  1  0
  9 30  1  0
 12 31  1  0
 15 32  1  0
 16 33  1  0
 21 34  1  0
 22 35  1  0
 22 36  1  0
 23 37  1  0
 23 38  1  0
 24 39  1  0
 24 40  1  0
 25 41  1  0
 25 42  1  0
 26 43  1  0
 26 44  1  0
M  ISO  8  27  14  28  14  29  14  30  14  31   9  32  14  33  14  34  13
M  ISO  8  35  13  36  13  37  13  38  13  39  13  40  13  41  13  42  13
M  ISO  2  43  13  44  13
M  END
>  <minimizedAffinity>  (1) 
-7.51448679

>  <minimizedRMSD>  (1) 
0.319662273

$$$$
