
     RDKit          3D

 34 37  0  0  0  0  0  0  0  0999 V2000
   46.9970   34.8430   42.0280 C   0  0  0  0  0  0  0  0  0  0  0  0
   48.2090   35.4840   42.0140 C   0  0  0  0  0  0  0  0  0  0  0  0
   48.9240   35.4090   40.8630 C   0  0  0  0  0  0  0  0  0  0  0  0
   48.4580   34.7390   39.7990 N   0  0  0  0  0  0  0  0  0  0  0  0
   47.2490   34.1090   39.8350 C   0  0  0  0  0  0  0  0  0  0  0  0
   46.5300   34.1800   40.9830 N   0  0  0  0  0  0  0  0  0  0  0  0
   46.8150   33.4190   38.6800 N   0  0  0  0  0  0  0  0  0  0  0  0
   45.9170   32.4270   38.9120 C   0  0  0  0  0  0  0  0  0  0  0  0
   45.4090   31.6700   37.8550 C   0  0  0  0  0  0  0  0  0  0  0  0
   45.8760   32.0000   36.6110 C   0  0  0  0  0  0  0  0  0  0  0  0
   45.3970   31.2950   35.6650 O   0  0  0  0  0  0  0  0  0  0  0  0
   46.7710   32.9870   36.3650 N   0  0  0  0  0  0  0  0  0  0  0  0
   47.2250   33.6820   37.4170 C   0  0  0  0  0  0  0  0  0  0  0  0
   48.0560   34.6090   37.2540 O   0  0  0  0  0  0  0  0  0  0  0  0
   44.4570   35.8460   44.5880 C   0  0  0  0  0  0  0  0  0  0  0  0
   45.1990   35.8460   43.3660 C   0  0  0  0  0  0  0  0  0  0  0  0
   46.2050   34.9010   43.2370 C   0  0  0  0  0  0  0  0  0  0  0  0
   46.4000   34.0610   44.2760 N   0  0  0  0  0  0  0  0  0  0  0  0
   45.6820   34.0800   45.4260 C   0  0  0  0  0  0  0  0  0  0  0  0
   44.7050   34.9840   45.5740 N   0  0  0  0  0  0  0  0  0  0  0  0
   45.9840   33.1400   46.4480 N   0  0  0  0  0  0  0  0  0  0  0  0
   46.9710   32.2600   46.7080 C   0  0  0  0  0  0  0  0  0  0  0  0
   46.7080   31.6190   47.8680 N   0  0  0  0  0  0  0  0  0  0  0  0
   45.5290   32.1110   48.3470 C   0  0  0  0  0  0  0  0  0  0  0  0
   45.1330   33.0190   47.4620 N   0  0  0  0  0  0  0  0  0  0  0  0
   48.5830   36.0316   42.8917 H   0  0  0  0  0  0  0  0  0  0  0  0
   49.9031   35.9066   40.8018 H   0  0  0  0  0  0  0  0  0  0  0  0
   45.5875   32.2185   39.9406 H   0  0  0  0  0  0  0  0  0  0  0  0
   44.6806   30.8607   38.0114 H   0  0  0  0  0  0  0  0  0  0  0  0
   47.0897   33.1948   35.4078 H   0  0  0  0  0  0  0  0  0  0  0  0
   43.6521   36.5842   44.7193 H   0  0  0  0  0  0  0  0  0  0  0  0
   44.9810   36.5650   42.5626 H   0  0  0  0  0  0  0  0  0  0  0  0
   47.8538   32.0899   46.0742 H   0  0  0  0  0  0  0  0  0  0  0  0
   45.0137   31.8170   49.2733 H   0  0  0  0  0  0  0  0  0  0  0  0
  1 17  1  0
  2  1  2  0
  3  2  1  0
  4  5  1  0
  4  3  2  0
  5  6  2  0
  6  1  1  0
  7  8  1  0
  7  5  1  0
  9  8  2  0
 10  9  1  0
 11 10  2  0
 12 10  1  0
 12 13  1  0
 13  7  1  0
 14 13  2  0
 15 20  2  0
 16 15  1  0
 17 16  2  0
 17 18  1  0
 18 19  2  0
 19 20  1  0
 19 21  1  0
 21 22  1  0
 21 25  1  0
 22 23  2  0
 23 24  1  0
 25 24  2  0
  2 26  1  0
  3 27  1  0
  8 28  1  0
  9 29  1  0
 12 30  1  0
 15 31  1  0
 16 32  1  0
 22 33  1  0
 24 34  1  0
M  ISO  8  26  14  27  14  28  14  29  14  30   9  31  14  32  14  33  14
M  ISO  1  34  14
M  END
>  <minimizedAffinity>  (1) 
-7.49236202

>  <minimizedRMSD>  (1) 
0.189968348

$$$$
