
     RDKit          3D

 52 55  0  0  1  0  0  0  0  0999 V2000
   48.0450   33.4100   43.4370 C   0  0  0  0  0  0  0  0  0  0  0  0
   48.1050   34.4110   41.1420 C   0  0  2  0  0  0  0  0  0  0  0  0
   48.6360   35.6690   41.4770 C   0  0  0  0  0  0  0  0  0  0  0  0
   49.9390   35.4260   42.2710 C   0  0  0  0  0  0  0  0  0  0  0  0
   50.1590   33.9210   42.3460 C   0  0  0  0  0  0  0  0  0  0  0  0
   48.8070   33.4150   42.1480 C   0  0  1  0  0  0  0  0  0  0  0  0
   48.3210   33.7720   39.8110 C   0  0  0  0  0  0  0  0  0  0  0  0
   48.3420   34.5900   38.7130 C   0  0  0  0  0  0  0  0  0  0  0  0
   48.5390   34.0650   37.4520 C   0  0  0  0  0  0  0  0  0  0  0  0
   48.7060   32.6990   37.3920 N   0  0  0  0  0  0  0  0  0  0  0  0
   48.6780   31.9400   38.4780 C   0  0  0  0  0  0  0  0  0  0  0  0
   48.4870   32.4460   39.7050 N   0  0  0  0  0  0  0  0  0  0  0  0
   46.5700   33.2380   43.1940 C   0  0  0  0  0  0  0  0  0  0  0  0
   45.8840   33.7630   44.4070 C   0  0  0  0  0  0  0  0  0  0  0  0
   45.0040   34.7950   44.5110 C   0  0  0  0  0  0  0  0  0  0  0  0
   44.6490   34.9240   45.8210 N   0  0  0  0  0  0  0  0  0  0  0  0
   45.3070   33.9770   46.5040 C   0  0  0  0  0  0  0  0  0  0  0  0
   46.0560   33.2670   45.6700 N   0  0  0  0  0  0  0  0  0  0  0  0
   46.9030   32.1420   46.0430 C   0  0  0  0  0  0  0  0  0  0  0  0
   44.3720   28.6400   46.0180 C   0  0  0  0  0  0  0  0  0  0  0  0
   44.9790   29.1550   44.8970 C   0  0  0  0  0  0  0  0  0  0  0  0
   45.7720   30.2770   45.0090 C   0  0  0  0  0  0  0  0  0  0  0  0
   46.0210   30.9610   46.2090 C   0  0  0  0  0  0  0  0  0  0  0  0
   45.3990   30.4220   47.3120 C   0  0  0  0  0  0  0  0  0  0  0  0
   44.6060   29.3000   47.2050 C   0  0  0  0  0  0  0  0  0  0  0  0
   43.3470   27.2450   46.0620 S   0  0  0  0  0  0  0  0  0  0  0  0
   43.6430   26.3120   44.8950 O   0  0  0  0  0  0  0  0  0  0  0  0
   43.5540   26.4060   47.3100 O   0  0  0  0  0  0  0  0  0  0  0  0
   48.4049   32.5808   44.0638 H   0  0  0  0  0  0  0  0  0  0  0  0
   48.2058   34.3742   43.9415 H   0  0  0  0  0  0  0  0  0  0  0  0
   47.0206   34.5947   41.1612 H   0  0  0  0  0  0  0  0  0  0  0  0
   48.8543   36.2402   40.5626 H   0  0  0  0  0  0  0  0  0  0  0  0
   47.9175   36.2454   42.0782 H   0  0  0  0  0  0  0  0  0  0  0  0
   50.7861   35.9037   41.7569 H   0  0  0  0  0  0  0  0  0  0  0  0
   49.8619   35.8558   43.2806 H   0  0  0  0  0  0  0  0  0  0  0  0
   50.8371   33.5748   41.5521 H   0  0  0  0  0  0  0  0  0  0  0  0
   50.6294   33.5844   43.2817 H   0  0  0  0  0  0  0  0  0  0  0  0
   48.8338   32.3835   41.7668 H   0  0  0  0  0  0  0  0  0  0  0  0
   48.2008   35.6738   38.8370 H   0  0  0  0  0  0  0  0  0  0  0  0
   48.5612   34.6972   36.5521 H   0  0  0  0  0  0  0  0  0  0  0  0
   48.8166   30.8543   38.3688 H   0  0  0  0  0  0  0  0  0  0  0  0
   46.2612   33.8075   42.3050 H   0  0  0  0  0  0  0  0  0  0  0  0
   46.3141   32.1834   43.0142 H   0  0  0  0  0  0  0  0  0  0  0  0
   44.6411   35.4185   43.6806 H   0  0  0  0  0  0  0  0  0  0  0  0
   45.2369   33.8134   47.5895 H   0  0  0  0  0  0  0  0  0  0  0  0
   47.6437   31.9504   45.2527 H   0  0  0  0  0  0  0  0  0  0  0  0
   47.4462   32.3561   46.9752 H   0  0  0  0  0  0  0  0  0  0  0  0
   44.8329   28.6753   43.9180 H   0  0  0  0  0  0  0  0  0  0  0  0
   46.2429   30.6636   44.0931 H   0  0  0  0  0  0  0  0  0  0  0  0
   45.5371   30.8947   48.2956 H   0  0  0  0  0  0  0  0  0  0  0  0
   44.1333   28.9093   48.1182 H   0  0  0  0  0  0  0  0  0  0  0  0
   42.0712   27.7423   46.0197 H   0  0  0  0  0  0  0  0  0  0  0  0
  2  3  1  0
  2  6  1  0
  3  4  1  0
  4  5  1  0
  6  5  1  0
  6  1  1  0
  7  2  1  0
  8  7  2  0
  9  8  1  0
 10  9  2  0
 10 11  1  0
 11 12  2  0
 12  7  1  0
 13  1  1  0
 13 14  1  0
 14 15  2  0
 14 18  1  0
 15 16  1  0
 16 17  2  0
 18 19  1  0
 18 17  1  0
 19 23  1  0
 20 26  1  0
 20 25  2  0
 21 22  2  0
 21 20  1  0
 22 23  1  0
 23 24  2  0
 25 24  1  0
 26 28  2  0
 27 26  2  0
  1 29  1  0
  1 30  1  0
  2 31  1  1
  3 32  1  0
  3 33  1  0
  4 34  1  0
  4 35  1  0
  5 36  1  0
  5 37  1  0
  6 38  1  6
  8 39  1  0
  9 40  1  0
 11 41  1  0
 13 42  1  0
 13 43  1  0
 15 44  1  0
 17 45  1  0
 19 46  1  0
 19 47  1  0
 21 48  1  0
 22 49  1  0
 24 50  1  0
 25 51  1  0
 26 52  1  0
M  ISO  8  29   8  30   8  31  13  32  13  33  13  34  13  35  13  36  13
M  ISO  8  37  13  38  13  39  14  40  14  41  14  42   8  43   8  44  14
M  ISO  8  45  14  46   8  47   8  48  14  49  14  50  14  51  14  52  11
M  END
>  <minimizedAffinity>  (1) 
-5.67376804

>  <minimizedRMSD>  (1) 
1.65218282

$$$$
