
     RDKit          3D

 35 38  0  0  0  0  0  0  0  0999 V2000
   46.9040   34.8330   42.0020 C   0  0  0  0  0  0  0  0  0  0  0  0
   48.1770   35.3930   41.9950 C   0  0  0  0  0  0  0  0  0  0  0  0
   48.8970   35.2700   40.8510 C   0  0  0  0  0  0  0  0  0  0  0  0
   48.3870   34.6330   39.7830 N   0  0  0  0  0  0  0  0  0  0  0  0
   47.1450   34.0960   39.8140 C   0  0  0  0  0  0  0  0  0  0  0  0
   46.4170   34.2140   40.9550 N   0  0  0  0  0  0  0  0  0  0  0  0
   46.6560   33.4330   38.6520 N   0  0  0  0  0  0  0  0  0  0  0  0
   45.6780   32.5260   38.8780 C   0  0  0  0  0  0  0  0  0  0  0  0
   45.1350   31.8250   37.8000 C   0  0  0  0  0  0  0  0  0  0  0  0
   45.6460   32.1150   36.5610 C   0  0  0  0  0  0  0  0  0  0  0  0
   45.1010   31.4380   35.6370 O   0  0  0  0  0  0  0  0  0  0  0  0
   46.6190   33.0140   36.3260 N   0  0  0  0  0  0  0  0  0  0  0  0
   47.1160   33.6700   37.4000 C   0  0  0  0  0  0  0  0  0  0  0  0
   48.0260   34.5230   37.2460 O   0  0  0  0  0  0  0  0  0  0  0  0
   44.4410   36.0490   44.5430 C   0  0  0  0  0  0  0  0  0  0  0  0
   45.1880   35.9820   43.3360 C   0  0  0  0  0  0  0  0  0  0  0  0
   46.1150   34.9490   43.2120 C   0  0  0  0  0  0  0  0  0  0  0  0
   46.2490   34.0800   44.2330 N   0  0  0  0  0  0  0  0  0  0  0  0
   45.5260   34.1650   45.3770 C   0  0  0  0  0  0  0  0  0  0  0  0
   44.6210   35.1530   45.5260 N   0  0  0  0  0  0  0  0  0  0  0  0
   45.8540   33.1290   46.3030 N   0  0  0  0  0  0  0  0  0  0  0  0
   45.4180   32.6060   47.4630 C   0  0  0  0  0  0  0  0  0  0  0  0
   46.2740   31.5550   47.7990 C   0  0  0  0  0  0  0  0  0  0  0  0
   47.2210   31.4560   46.8310 N   0  0  0  0  0  0  0  0  0  0  0  0
   46.9550   32.4210   45.9220 C   0  0  0  0  0  0  0  0  0  0  0  0
   48.5819   35.9119   42.8764 H   0  0  0  0  0  0  0  0  0  0  0  0
   49.9095   35.6965   40.7973 H   0  0  0  0  0  0  0  0  0  0  0  0
   45.3147   32.3430   39.9000 H   0  0  0  0  0  0  0  0  0  0  0  0
   44.3386   31.0787   37.9372 H   0  0  0  0  0  0  0  0  0  0  0  0
   46.9688   33.1942   35.3741 H   0  0  0  0  0  0  0  0  0  0  0  0
   43.7002   36.8515   44.6744 H   0  0  0  0  0  0  0  0  0  0  0  0
   45.0402   36.7169   42.5310 H   0  0  0  0  0  0  0  0  0  0  0  0
   44.5459   32.9445   48.0417 H   0  0  0  0  0  0  0  0  0  0  0  0
   46.1948   30.9182   48.6924 H   0  0  0  0  0  0  0  0  0  0  0  0
   47.5406   32.6073   45.0097 H   0  0  0  0  0  0  0  0  0  0  0  0
  1 17  1  0
  2  1  2  0
  3  2  1  0
  4  5  1  0
  4  3  2  0
  5  6  2  0
  6  1  1  0
  7  8  1  0
  7  5  1  0
  9  8  2  0
 10  9  1  0
 11 10  2  0
 12 10  1  0
 12 13  1  0
 13  7  1  0
 14 13  2  0
 15 20  2  0
 16 15  1  0
 17 16  2  0
 17 18  1  0
 18 19  2  0
 19 20  1  0
 19 21  1  0
 21 22  1  0
 22 23  2  0
 24 23  1  0
 25 21  1  0
 25 24  2  0
  2 26  1  0
  3 27  1  0
  8 28  1  0
  9 29  1  0
 12 30  1  0
 15 31  1  0
 16 32  1  0
 22 33  1  0
 23 34  1  0
 25 35  1  0
M  ISO  8  26  14  27  14  28  14  29  14  30   9  31  14  32  14  33  14
M  ISO  2  34  14  35  14
M  END
>  <minimizedAffinity>  (1) 
-7.35904169

>  <minimizedRMSD>  (1) 
0.254557312

$$$$
