
     RDKit          3D

 37 39  0  0  0  0  0  0  0  0999 V2000
   47.0400   34.7770   42.0120 C   0  0  0  0  0  0  0  0  0  0  0  0
   48.2340   35.4880   41.9830 C   0  0  0  0  0  0  0  0  0  0  0  0
   48.9310   35.4730   40.8130 C   0  0  0  0  0  0  0  0  0  0  0  0
   48.4620   34.7940   39.7550 N   0  0  0  0  0  0  0  0  0  0  0  0
   47.3030   34.1100   39.7990 C   0  0  0  0  0  0  0  0  0  0  0  0
   46.5980   34.1190   40.9640 N   0  0  0  0  0  0  0  0  0  0  0  0
   46.8700   33.4120   38.6310 N   0  0  0  0  0  0  0  0  0  0  0  0
   46.0150   32.3760   38.8840 C   0  0  0  0  0  0  0  0  0  0  0  0
   45.5190   31.6140   37.8310 C   0  0  0  0  0  0  0  0  0  0  0  0
   45.9540   31.9900   36.5680 C   0  0  0  0  0  0  0  0  0  0  0  0
   45.4840   31.2750   35.6230 O   0  0  0  0  0  0  0  0  0  0  0  0
   46.7950   33.0090   36.3230 N   0  0  0  0  0  0  0  0  0  0  0  0
   47.2480   33.7190   37.3860 C   0  0  0  0  0  0  0  0  0  0  0  0
   48.0300   34.6750   37.2220 O   0  0  0  0  0  0  0  0  0  0  0  0
   44.5570   35.6720   44.6490 C   0  0  0  0  0  0  0  0  0  0  0  0
   45.2670   35.7080   43.4270 C   0  0  0  0  0  0  0  0  0  0  0  0
   46.2840   34.7810   43.2460 C   0  0  0  0  0  0  0  0  0  0  0  0
   46.5450   33.8960   44.2390 N   0  0  0  0  0  0  0  0  0  0  0  0
   45.8310   33.9000   45.4040 C   0  0  0  0  0  0  0  0  0  0  0  0
   44.8460   34.7800   45.6070 N   0  0  0  0  0  0  0  0  0  0  0  0
   46.2050   32.8770   46.4340 C   0  0  0  0  0  0  0  0  0  0  0  0
   46.1620   31.4700   45.8840 C   0  0  0  0  0  0  0  0  0  0  0  0
   45.1860   32.9430   47.5760 C   0  0  0  0  0  0  0  0  0  0  0  0
   48.5988   36.0370   42.8636 H   0  0  0  0  0  0  0  0  0  0  0  0
   49.8823   36.0198   40.7351 H   0  0  0  0  0  0  0  0  0  0  0  0
   45.7197   32.1452   39.9182 H   0  0  0  0  0  0  0  0  0  0  0  0
   44.8295   30.7715   37.9887 H   0  0  0  0  0  0  0  0  0  0  0  0
   47.0851   33.2424   35.3626 H   0  0  0  0  0  0  0  0  0  0  0  0
   43.7457   36.3953   44.8182 H   0  0  0  0  0  0  0  0  0  0  0  0
   45.0221   36.4444   42.6474 H   0  0  0  0  0  0  0  0  0  0  0  0
   47.2297   33.1003   46.7660 H   0  0  0  0  0  0  0  0  0  0  0  0
   46.1400   30.7514   46.7165 H   0  0  0  0  0  0  0  0  0  0  0  0
   45.2596   31.3447   45.2676 H   0  0  0  0  0  0  0  0  0  0  0  0
   47.0551   31.2898   45.2676 H   0  0  0  0  0  0  0  0  0  0  0  0
   45.7136   32.9088   48.5406 H   0  0  0  0  0  0  0  0  0  0  0  0
   44.6144   33.8800   47.5037 H   0  0  0  0  0  0  0  0  0  0  0  0
   44.4983   32.0875   47.5037 H   0  0  0  0  0  0  0  0  0  0  0  0
  1 17  1  0
  2  1  2  0
  3  2  1  0
  4  5  1  0
  4  3  2  0
  5  6  2  0
  6  1  1  0
  7  8  1  0
  7  5  1  0
  9  8  2  0
 10  9  1  0
 11 10  2  0
 12 10  1  0
 12 13  1  0
 13  7  1  0
 14 13  2  0
 15 20  2  0
 16 15  1  0
 17 16  2  0
 17 18  1  0
 18 19  2  0
 19 20  1  0
 19 21  1  0
 21 23  1  0
 22 21  1  0
  2 24  1  0
  3 25  1  0
  8 26  1  0
  9 27  1  0
 12 28  1  0
 15 29  1  0
 16 30  1  0
 21 31  1  0
 22 32  1  0
 22 33  1  0
 22 34  1  0
 23 35  1  0
 23 36  1  0
 23 37  1  0
M  ISO  8  24  14  25  14  26  14  27  14  28   9  29  14  30  14  31   8
M  ISO  6  32   8  33   8  34   8  35   8  36   8  37   8
M  END
>  <minimizedAffinity>  (1) 
-6.56832075

>  <minimizedRMSD>  (1) 
0.359009564

$$$$
