
     RDKit          3D

 47 50  0  0  1  0  0  0  0  0999 V2000
   48.1820   33.2060   43.3940 C   0  0  0  0  0  0  0  0  0  0  0  0
   48.0870   34.2580   41.1220 C   0  0  2  0  0  0  0  0  0  0  0  0
   48.4640   35.5640   41.4840 C   0  0  0  0  0  0  0  0  0  0  0  0
   49.8060   35.4570   42.2520 C   0  0  0  0  0  0  0  0  0  0  0  0
   50.2050   33.9950   42.2860 C   0  0  0  0  0  0  0  0  0  0  0  0
   48.9220   33.3330   42.0930 C   0  0  1  0  0  0  0  0  0  0  0  0
   48.3490   33.6870   39.7780 C   0  0  0  0  0  0  0  0  0  0  0  0
   48.2980   34.5410   38.7030 C   0  0  0  0  0  0  0  0  0  0  0  0
   48.5370   34.0820   37.4270 C   0  0  0  0  0  0  0  0  0  0  0  0
   48.8240   32.7360   37.3190 N   0  0  0  0  0  0  0  0  0  0  0  0
   48.8640   31.9410   38.3780 C   0  0  0  0  0  0  0  0  0  0  0  0
   48.6320   32.3880   39.6200 N   0  0  0  0  0  0  0  0  0  0  0  0
   46.7650   32.7720   43.1720 C   0  0  0  0  0  0  0  0  0  0  0  0
   45.9280   33.6430   44.0460 C   0  0  0  0  0  0  0  0  0  0  0  0
   44.9830   34.5690   43.6990 C   0  0  0  0  0  0  0  0  0  0  0  0
   44.4920   35.1160   44.8360 N   0  0  0  0  0  0  0  0  0  0  0  0
   45.1160   34.5430   45.8740 C   0  0  0  0  0  0  0  0  0  0  0  0
   45.9840   33.6530   45.4070 N   0  0  0  0  0  0  0  0  0  0  0  0
   46.8490   32.8100   46.2290 C   0  0  0  0  0  0  0  0  0  0  0  0
   46.0980   31.5570   46.4940 C   0  0  0  0  0  0  0  0  0  0  0  0
   45.6850   31.3670   47.8170 C   0  0  0  0  0  0  0  0  0  0  0  0
   44.9810   30.2700   48.2670 C   0  0  0  0  0  0  0  0  0  0  0  0
   44.6560   29.3020   47.3920 N   0  0  0  0  0  0  0  0  0  0  0  0
   45.0520   29.4770   46.1070 C   0  0  0  0  0  0  0  0  0  0  0  0
   45.7380   30.5510   45.6820 N   0  0  0  0  0  0  0  0  0  0  0  0
   48.6904   32.4619   44.0247 H   0  0  0  0  0  0  0  0  0  0  0  0
   48.1717   34.1898   43.8860 H   0  0  0  0  0  0  0  0  0  0  0  0
   46.9887   34.3054   41.1603 H   0  0  0  0  0  0  0  0  0  0  0  0
   48.5933   36.1823   40.5834 H   0  0  0  0  0  0  0  0  0  0  0  0
   47.6917   36.0340   42.1107 H   0  0  0  0  0  0  0  0  0  0  0  0
   50.5801   36.0443   41.7364 H   0  0  0  0  0  0  0  0  0  0  0  0
   49.6963   35.8493   43.2738 H   0  0  0  0  0  0  0  0  0  0  0  0
   50.9073   33.7523   41.4749 H   0  0  0  0  0  0  0  0  0  0  0  0
   50.7269   33.6964   43.2071 H   0  0  0  0  0  0  0  0  0  0  0  0
   49.0706   32.3217   41.6866 H   0  0  0  0  0  0  0  0  0  0  0  0
   48.0635   35.6037   38.8635 H   0  0  0  0  0  0  0  0  0  0  0  0
   48.5015   34.7452   36.5501 H   0  0  0  0  0  0  0  0  0  0  0  0
   49.0960   30.8756   38.2327 H   0  0  0  0  0  0  0  0  0  0  0  0
   46.4846   32.9067   42.1169 H   0  0  0  0  0  0  0  0  0  0  0  0
   46.6268   31.7075   43.4123 H   0  0  0  0  0  0  0  0  0  0  0  0
   44.6754   34.8248   42.6743 H   0  0  0  0  0  0  0  0  0  0  0  0
   44.9390   34.7715   46.9353 H   0  0  0  0  0  0  0  0  0  0  0  0
   47.7820   32.5861   45.6911 H   0  0  0  0  0  0  0  0  0  0  0  0
   47.1176   33.3161   47.1680 H   0  0  0  0  0  0  0  0  0  0  0  0
   45.9396   32.1472   48.5495 H   0  0  0  0  0  0  0  0  0  0  0  0
   44.6900   30.1881   49.3246 H   0  0  0  0  0  0  0  0  0  0  0  0
   44.7979   28.6978   45.3733 H   0  0  0  0  0  0  0  0  0  0  0  0
  2  3  1  0
  2  6  1  0
  3  4  1  0
  4  5  1  0
  6  5  1  0
  6  1  1  0
  7  2  1  0
  8  7  2  0
  9  8  1  0
 10  9  2  0
 10 11  1  0
 11 12  2  0
 12  7  1  0
 13  1  1  0
 13 14  1  0
 14 18  1  0
 15 14  2  0
 15 16  1  0
 16 17  2  0
 18 17  1  0
 18 19  1  0
 19 20  1  0
 20 21  2  0
 21 22  1  0
 23 22  2  0
 24 23  1  0
 25 24  2  0
 25 20  1  0
  1 26  1  0
  1 27  1  0
  2 28  1  1
  3 29  1  0
  3 30  1  0
  4 31  1  0
  4 32  1  0
  5 33  1  0
  5 34  1  0
  6 35  1  6
  8 36  1  0
  9 37  1  0
 11 38  1  0
 13 39  1  0
 13 40  1  0
 15 41  1  0
 17 42  1  0
 19 43  1  0
 19 44  1  0
 21 45  1  0
 22 46  1  0
 24 47  1  0
M  ISO  8  26   8  27   8  28  13  29  13  30  13  31  13  32  13  33  13
M  ISO  8  34  13  35  13  36  14  37  14  38  14  39   8  40   8  41  14
M  ISO  6  42  14  43   8  44   8  45  14  46  14  47  14
M  END
>  <minimizedAffinity>  (1) 
-5.67064476

>  <minimizedRMSD>  (1) 
1.35039675

$$$$
