
     RDKit          3D

 30 32  0  0  0  0  0  0  0  0999 V2000
   47.0100   34.8310   41.9970 C   0  0  0  0  0  0  0  0  0  0  0  0
   48.2170   35.4950   41.9790 C   0  0  0  0  0  0  0  0  0  0  0  0
   48.9290   35.4390   40.8230 C   0  0  0  0  0  0  0  0  0  0  0  0
   48.4640   34.7630   39.7580 N   0  0  0  0  0  0  0  0  0  0  0  0
   47.2800   34.1200   39.7980 C   0  0  0  0  0  0  0  0  0  0  0  0
   46.5540   34.1670   40.9480 N   0  0  0  0  0  0  0  0  0  0  0  0
   46.8550   33.4280   38.6340 N   0  0  0  0  0  0  0  0  0  0  0  0
   45.9660   32.4150   38.8680 C   0  0  0  0  0  0  0  0  0  0  0  0
   45.4600   31.6460   37.8220 C   0  0  0  0  0  0  0  0  0  0  0  0
   45.9300   31.9990   36.5710 C   0  0  0  0  0  0  0  0  0  0  0  0
   45.4620   31.2900   35.6170 O   0  0  0  0  0  0  0  0  0  0  0  0
   46.8060   32.9940   36.3190 N   0  0  0  0  0  0  0  0  0  0  0  0
   47.2480   33.6910   37.3850 C   0  0  0  0  0  0  0  0  0  0  0  0
   48.0650   34.6300   37.2190 O   0  0  0  0  0  0  0  0  0  0  0  0
   44.5130   35.8440   44.5860 C   0  0  0  0  0  0  0  0  0  0  0  0
   45.2550   35.8560   43.3700 C   0  0  0  0  0  0  0  0  0  0  0  0
   46.2260   34.8700   43.2120 C   0  0  0  0  0  0  0  0  0  0  0  0
   46.4090   33.9660   44.2090 N   0  0  0  0  0  0  0  0  0  0  0  0
   45.6720   34.0010   45.3510 C   0  0  0  0  0  0  0  0  0  0  0  0
   44.7310   34.9280   45.5460 N   0  0  0  0  0  0  0  0  0  0  0  0
   45.9200   32.9990   46.3840 C   0  0  0  0  0  0  0  0  0  0  0  0
   45.2270   32.9770   47.4340 O   0  0  0  0  0  0  0  0  0  0  0  0
   48.5864   36.0439   42.8578 H   0  0  0  0  0  0  0  0  0  0  0  0
   49.8989   35.9537   40.7577 H   0  0  0  0  0  0  0  0  0  0  0  0
   45.6453   32.2040   39.8989 H   0  0  0  0  0  0  0  0  0  0  0  0
   44.7449   30.8250   37.9790 H   0  0  0  0  0  0  0  0  0  0  0  0
   47.1205   33.2097   35.3622 H   0  0  0  0  0  0  0  0  0  0  0  0
   43.7375   36.6079   44.7446 H   0  0  0  0  0  0  0  0  0  0  0  0
   45.0695   36.6100   42.5909 H   0  0  0  0  0  0  0  0  0  0  0  0
   46.7197   32.2570   46.2429 H   0  0  0  0  0  0  0  0  0  0  0  0
  1 17  1  0
  2  1  2  0
  3  2  1  0
  4  5  1  0
  4  3  2  0
  5  6  2  0
  6  1  1  0
  7  8  1  0
  7  5  1  0
  9  8  2  0
 10  9  1  0
 11 10  2  0
 12 10  1  0
 12 13  1  0
 13  7  1  0
 14 13  2  0
 15 20  2  0
 16 15  1  0
 17 16  2  0
 17 18  1  0
 18 19  2  0
 19 20  1  0
 19 21  1  0
 21 22  2  0
  2 23  1  0
  3 24  1  0
  8 25  1  0
  9 26  1  0
 12 27  1  0
 15 28  1  0
 16 29  1  0
 21 30  1  0
M  ISO  8  23  14  24  14  25  14  26  14  27   9  28  14  29  14  30   6
M  END
>  <minimizedAffinity>  (1) 
-6.35583591

>  <minimizedRMSD>  (1) 
0.0674086735

$$$$
