
     RDKit          3D

 29 31  0  0  0  0  0  0  0  0999 V2000
   47.0230   34.8420   41.9500 C   0  0  0  0  0  0  0  0  0  0  0  0
   48.2280   35.5040   41.9360 C   0  0  0  0  0  0  0  0  0  0  0  0
   48.9460   35.4480   40.7850 C   0  0  0  0  0  0  0  0  0  0  0  0
   48.4810   34.7700   39.7170 N   0  0  0  0  0  0  0  0  0  0  0  0
   47.2880   34.1270   39.7610 C   0  0  0  0  0  0  0  0  0  0  0  0
   46.5740   34.1830   40.9060 N   0  0  0  0  0  0  0  0  0  0  0  0
   46.8690   33.4340   38.5880 N   0  0  0  0  0  0  0  0  0  0  0  0
   45.9790   32.4210   38.8410 C   0  0  0  0  0  0  0  0  0  0  0  0
   45.4880   31.6580   37.7660 C   0  0  0  0  0  0  0  0  0  0  0  0
   45.9550   32.0030   36.5260 C   0  0  0  0  0  0  0  0  0  0  0  0
   45.4760   31.2780   35.5910 O   0  0  0  0  0  0  0  0  0  0  0  0
   46.8230   32.9900   36.2880 N   0  0  0  0  0  0  0  0  0  0  0  0
   47.2770   33.7050   37.3410 C   0  0  0  0  0  0  0  0  0  0  0  0
   48.0900   34.6400   37.1800 O   0  0  0  0  0  0  0  0  0  0  0  0
   44.5140   35.8600   44.5390 C   0  0  0  0  0  0  0  0  0  0  0  0
   45.2630   35.8630   43.3220 C   0  0  0  0  0  0  0  0  0  0  0  0
   46.2340   34.8830   43.1680 C   0  0  0  0  0  0  0  0  0  0  0  0
   46.4190   33.9820   44.1700 N   0  0  0  0  0  0  0  0  0  0  0  0
   45.6780   34.0210   45.3120 C   0  0  0  0  0  0  0  0  0  0  0  0
   44.7370   34.9540   45.4860 N   0  0  0  0  0  0  0  0  0  0  0  0
   46.1100   32.7250   46.4880 S   0  0  0  0  0  0  0  0  0  0  0  0
   48.5933   36.0533   42.8162 H   0  0  0  0  0  0  0  0  0  0  0  0
   49.9170   35.9612   40.7235 H   0  0  0  0  0  0  0  0  0  0  0  0
   45.6539   32.2084   39.8701 H   0  0  0  0  0  0  0  0  0  0  0  0
   44.7730   30.8350   37.9125 H   0  0  0  0  0  0  0  0  0  0  0  0
   47.1371   33.2000   35.3298 H   0  0  0  0  0  0  0  0  0  0  0  0
   43.7371   36.6229   44.6954 H   0  0  0  0  0  0  0  0  0  0  0  0
   45.0775   36.6122   42.5383 H   0  0  0  0  0  0  0  0  0  0  0  0
   45.9530   33.1961   47.7648 H   0  0  0  0  0  0  0  0  0  0  0  0
  1 17  1  0
  2  1  2  0
  3  2  1  0
  4  5  1  0
  4  3  2  0
  5  6  2  0
  6  1  1  0
  7  8  1  0
  7  5  1  0
  9  8  2  0
 10  9  1  0
 11 10  2  0
 12 10  1  0
 12 13  1  0
 13  7  1  0
 14 13  2  0
 15 20  2  0
 16 15  1  0
 17 16  2  0
 17 18  1  0
 18 19  2  0
 19 20  1  0
 19 21  1  0
  2 22  1  0
  3 23  1  0
  8 24  1  0
  9 25  1  0
 12 26  1  0
 15 27  1  0
 16 28  1  0
 21 29  1  0
M  ISO  8  22  14  23  14  24  14  25  14  26   9  27  14  28  14  29  11
M  END
>  <minimizedAffinity>  (1) 
-6.34952354

>  <minimizedRMSD>  (1) 
0.0337882005

$$$$
