
     RDKit          3D

 40 42  0  0  0  0  0  0  0  0999 V2000
   47.0280   34.7300   42.1060 C   0  0  0  0  0  0  0  0  0  0  0  0
   48.2210   35.4420   42.0860 C   0  0  0  0  0  0  0  0  0  0  0  0
   48.9090   35.4360   40.9180 C   0  0  0  0  0  0  0  0  0  0  0  0
   48.4480   34.7740   39.8460 N   0  0  0  0  0  0  0  0  0  0  0  0
   47.2880   34.0920   39.8900 C   0  0  0  0  0  0  0  0  0  0  0  0
   46.5880   34.0860   41.0480 N   0  0  0  0  0  0  0  0  0  0  0  0
   46.8610   33.4120   38.7130 N   0  0  0  0  0  0  0  0  0  0  0  0
   46.0110   32.3670   38.9360 C   0  0  0  0  0  0  0  0  0  0  0  0
   45.5170   31.6170   37.8720 C   0  0  0  0  0  0  0  0  0  0  0  0
   45.9480   32.0100   36.6300 C   0  0  0  0  0  0  0  0  0  0  0  0
   45.4790   31.3030   35.6700 O   0  0  0  0  0  0  0  0  0  0  0  0
   46.7820   33.0320   36.3920 N   0  0  0  0  0  0  0  0  0  0  0  0
   47.2230   33.7180   37.4630 C   0  0  0  0  0  0  0  0  0  0  0  0
   48.0090   34.6880   37.3080 O   0  0  0  0  0  0  0  0  0  0  0  0
   44.5970   35.6310   44.7980 C   0  0  0  0  0  0  0  0  0  0  0  0
   45.3150   35.7050   43.5650 C   0  0  0  0  0  0  0  0  0  0  0  0
   46.2640   34.7130   43.3390 C   0  0  0  0  0  0  0  0  0  0  0  0
   46.4500   33.7550   44.2790 N   0  0  0  0  0  0  0  0  0  0  0  0
   45.7410   33.7310   45.4360 C   0  0  0  0  0  0  0  0  0  0  0  0
   44.8180   34.6610   45.6990 N   0  0  0  0  0  0  0  0  0  0  0  0
   45.9590   32.6750   46.4520 C   0  0  0  0  0  0  0  0  0  0  0  0
   47.3510   32.7330   47.0390 C   0  0  0  0  0  0  0  0  0  0  0  0
   45.0010   32.9030   47.6010 C   0  0  0  0  0  0  0  0  0  0  0  0
   45.8040   31.2840   45.8470 C   0  0  0  0  0  0  0  0  0  0  0  0
   48.5878   35.9821   42.9713 H   0  0  0  0  0  0  0  0  0  0  0  0
   49.8609   35.9829   40.8480 H   0  0  0  0  0  0  0  0  0  0  0  0
   45.7140   32.1155   39.9649 H   0  0  0  0  0  0  0  0  0  0  0  0
   44.8303   30.7700   38.0167 H   0  0  0  0  0  0  0  0  0  0  0  0
   47.0716   33.2806   35.4353 H   0  0  0  0  0  0  0  0  0  0  0  0
   43.8368   36.3954   45.0165 H   0  0  0  0  0  0  0  0  0  0  0  0
   45.1274   36.5042   42.8329 H   0  0  0  0  0  0  0  0  0  0  0  0
   47.2863   32.7303   48.1371 H   0  0  0  0  0  0  0  0  0  0  0  0
   47.9272   31.8581   46.7035 H   0  0  0  0  0  0  0  0  0  0  0  0
   47.8524   33.6528   46.7035 H   0  0  0  0  0  0  0  0  0  0  0  0
   45.5349   32.7759   48.5543 H   0  0  0  0  0  0  0  0  0  0  0  0
   44.5938   33.9231   47.5420 H   0  0  0  0  0  0  0  0  0  0  0  0
   44.1779   32.1757   47.5420 H   0  0  0  0  0  0  0  0  0  0  0  0
   45.7212   30.5405   46.6535 H   0  0  0  0  0  0  0  0  0  0  0  0
   44.8969   31.2534   45.2255 H   0  0  0  0  0  0  0  0  0  0  0  0
   46.6821   31.0545   45.2255 H   0  0  0  0  0  0  0  0  0  0  0  0
  1 17  1  0
  2  1  2  0
  3  2  1  0
  4  5  1  0
  4  3  2  0
  5  6  2  0
  6  1  1  0
  7  8  1  0
  7  5  1  0
  9  8  2  0
 10  9  1  0
 11 10  2  0
 12 10  1  0
 12 13  1  0
 13  7  1  0
 14 13  2  0
 15 20  2  0
 16 15  1  0
 17 16  2  0
 17 18  1  0
 18 19  2  0
 19 20  1  0
 19 21  1  0
 21 22  1  0
 21 23  1  0
 24 21  1  0
  2 25  1  0
  3 26  1  0
  8 27  1  0
  9 28  1  0
 12 29  1  0
 15 30  1  0
 16 31  1  0
 22 32  1  0
 22 33  1  0
 22 34  1  0
 23 35  1  0
 23 36  1  0
 23 37  1  0
 24 38  1  0
 24 39  1  0
 24 40  1  0
M  ISO  8  25  14  26  14  27  14  28  14  29   9  30  14  31  14  32   8
M  ISO  8  33   8  34   8  35   8  36   8  37   8  38   8  39   8  40   8
M  END
>  <minimizedAffinity>  (1) 
-6.31348944

>  <minimizedRMSD>  (1) 
0.281839639

$$$$
