
     RDKit          3D

 53 57  0  0  1  0  0  0  0  0999 V2000
   48.3850   32.6330   43.2600 C   0  0  0  0  0  0  0  0  0  0  0  0
   48.1220   33.9870   41.1590 C   0  0  2  0  0  0  0  0  0  0  0  0
   48.4470   35.2580   41.6710 C   0  0  0  0  0  0  0  0  0  0  0  0
   49.8150   35.1420   42.3740 C   0  0  0  0  0  0  0  0  0  0  0  0
   50.3020   33.7080   42.2020 C   0  0  0  0  0  0  0  0  0  0  0  0
   49.0480   33.0060   41.9690 C   0  0  1  0  0  0  0  0  0  0  0  0
   48.3680   33.6070   39.7380 C   0  0  0  0  0  0  0  0  0  0  0  0
   48.3020   34.5960   38.7910 C   0  0  0  0  0  0  0  0  0  0  0  0
   48.5130   34.3240   37.4640 C   0  0  0  0  0  0  0  0  0  0  0  0
   48.7920   33.0020   37.1690 N   0  0  0  0  0  0  0  0  0  0  0  0
   48.8510   32.0580   38.1120 C   0  0  0  0  0  0  0  0  0  0  0  0
   48.6420   32.3340   39.4060 N   0  0  0  0  0  0  0  0  0  0  0  0
   46.9280   32.4140   43.1010 C   0  0  0  0  0  0  0  0  0  0  0  0
   46.2390   33.1900   44.1850 C   0  0  0  0  0  0  0  0  0  0  0  0
   45.8960   34.5080   44.2150 C   0  0  0  0  0  0  0  0  0  0  0  0
   45.2750   34.7430   45.3930 N   0  0  0  0  0  0  0  0  0  0  0  0
   45.2400   33.6000   46.0650 C   0  0  0  0  0  0  0  0  0  0  0  0
   45.8180   32.6270   45.3640 N   0  0  0  0  0  0  0  0  0  0  0  0
   45.9760   31.2310   45.7600 C   0  0  0  0  0  0  0  0  0  0  0  0
   46.8950   30.9870   46.8660 C   0  0  0  0  0  0  0  0  0  0  0  0
   46.6860   31.4100   48.1280 N   0  0  0  0  0  0  0  0  0  0  0  0
   47.4890   31.1620   49.1710 C   0  0  0  0  0  0  0  0  0  0  0  0
   48.6220   30.4490   49.0760 N   0  0  0  0  0  0  0  0  0  0  0  0
   48.9180   29.9840   47.8510 C   0  0  0  0  0  0  0  0  0  0  0  0
   50.0820   29.2630   47.6950 C   0  0  0  0  0  0  0  0  0  0  0  0
   50.4550   28.7760   46.4600 C   0  0  0  0  0  0  0  0  0  0  0  0
   49.6380   29.0210   45.3510 C   0  0  0  0  0  0  0  0  0  0  0  0
   48.4880   29.7500   45.5850 C   0  0  0  0  0  0  0  0  0  0  0  0
   48.0750   30.2520   46.7930 C   0  0  0  0  0  0  0  0  0  0  0  0
   48.8427   31.7070   43.6382 H   0  0  0  0  0  0  0  0  0  0  0  0
   48.5253   33.4668   43.9636 H   0  0  0  0  0  0  0  0  0  0  0  0
   47.0255   33.9599   41.2420 H   0  0  0  0  0  0  0  0  0  0  0  0
   48.5076   35.9885   40.8508 H   0  0  0  0  0  0  0  0  0  0  0  0
   47.6766   35.5978   42.3788 H   0  0  0  0  0  0  0  0  0  0  0  0
   50.5322   35.8391   41.9161 H   0  0  0  0  0  0  0  0  0  0  0  0
   49.7233   35.3933   43.4410 H   0  0  0  0  0  0  0  0  0  0  0  0
   50.9817   33.6141   41.3422 H   0  0  0  0  0  0  0  0  0  0  0  0
   50.8812   33.3240   43.0547 H   0  0  0  0  0  0  0  0  0  0  0  0
   49.2328   32.0727   41.4169 H   0  0  0  0  0  0  0  0  0  0  0  0
   48.0756   35.6267   39.1016 H   0  0  0  0  0  0  0  0  0  0  0  0
   48.4638   35.1025   36.6884 H   0  0  0  0  0  0  0  0  0  0  0  0
   49.0780   31.0228   37.8172 H   0  0  0  0  0  0  0  0  0  0  0  0
   46.5990   32.7722   42.1144 H   0  0  0  0  0  0  0  0  0  0  0  0
   46.6849   31.3437   43.1737 H   0  0  0  0  0  0  0  0  0  0  0  0
   46.0893   35.2475   43.4239 H   0  0  0  0  0  0  0  0  0  0  0  0
   44.7951   33.4736   47.0630 H   0  0  0  0  0  0  0  0  0  0  0  0
   44.9868   30.8486   46.0520 H   0  0  0  0  0  0  0  0  0  0  0  0
   46.4128   30.7201   44.8892 H   0  0  0  0  0  0  0  0  0  0  0  0
   47.2054   31.5631   50.1552 H   0  0  0  0  0  0  0  0  0  0  0  0
   50.7230   29.0732   48.5685 H   0  0  0  0  0  0  0  0  0  0  0  0
   51.3857   28.2006   46.3479 H   0  0  0  0  0  0  0  0  0  0  0  0
   49.8972   28.6532   44.3473 H   0  0  0  0  0  0  0  0  0  0  0  0
   47.8403   29.9471   44.7180 H   0  0  0  0  0  0  0  0  0  0  0  0
  2  3  1  0
  2  6  1  0
  3  4  1  0
  5  4  1  0
  6  5  1  0
  6  1  1  0
  7  2  1  0
  8  7  2  0
  9  8  1  0
 10  9  2  0
 10 11  1  0
 11 12  2  0
 12  7  1  0
 13  1  1  0
 13 14  1  0
 14 15  2  0
 14 18  1  0
 15 16  1  0
 16 17  2  0
 18 19  1  0
 18 17  1  0
 19 20  1  0
 20 21  2  0
 21 22  1  0
 23 22  2  0
 24 23  1  0
 25 24  2  0
 26 25  1  0
 27 28  1  0
 27 26  2  0
 28 29  2  0
 29 20  1  0
 29 24  1  0
  1 30  1  0
  1 31  1  0
  2 32  1  1
  3 33  1  0
  3 34  1  0
  4 35  1  0
  4 36  1  0
  5 37  1  0
  5 38  1  0
  6 39  1  6
  8 40  1  0
  9 41  1  0
 11 42  1  0
 13 43  1  0
 13 44  1  0
 15 45  1  0
 17 46  1  0
 19 47  1  0
 19 48  1  0
 22 49  1  0
 25 50  1  0
 26 51  1  0
 27 52  1  0
 28 53  1  0
M  ISO  8  30   8  31   8  32  13  33  13  34  13  35  13  36  13  37  13
M  ISO  8  38  13  39  13  40  14  41  14  42  14  43   8  44   8  45  14
M  ISO  8  46  14  47   8  48   8  49  14  50  14  51  14  52  14  53  14
M  END
>  <minimizedAffinity>  (1) 
-5.66111422

>  <minimizedRMSD>  (1) 
1.8567493

$$$$
