
     RDKit          3D

 34 36  0  0  0  0  0  0  0  0999 V2000
   47.0420   34.7940   42.0120 C   0  0  0  0  0  0  0  0  0  0  0  0
   48.2340   35.4940   41.9860 C   0  0  0  0  0  0  0  0  0  0  0  0
   48.9240   35.4670   40.8160 C   0  0  0  0  0  0  0  0  0  0  0  0
   48.4580   34.7880   39.7490 N   0  0  0  0  0  0  0  0  0  0  0  0
   47.2910   34.1130   39.8050 C   0  0  0  0  0  0  0  0  0  0  0  0
   46.5900   34.1290   40.9610 N   0  0  0  0  0  0  0  0  0  0  0  0
   46.8600   33.4170   38.6370 N   0  0  0  0  0  0  0  0  0  0  0  0
   46.0000   32.3930   38.8810 C   0  0  0  0  0  0  0  0  0  0  0  0
   45.5020   31.6290   37.8220 C   0  0  0  0  0  0  0  0  0  0  0  0
   45.9480   32.0000   36.5670 C   0  0  0  0  0  0  0  0  0  0  0  0
   45.4700   31.2800   35.6350 O   0  0  0  0  0  0  0  0  0  0  0  0
   46.7950   33.0090   36.3270 N   0  0  0  0  0  0  0  0  0  0  0  0
   47.2390   33.7060   37.3870 C   0  0  0  0  0  0  0  0  0  0  0  0
   48.0340   34.6590   37.2160 O   0  0  0  0  0  0  0  0  0  0  0  0
   44.5610   35.7040   44.6510 C   0  0  0  0  0  0  0  0  0  0  0  0
   45.2820   35.7410   43.4320 C   0  0  0  0  0  0  0  0  0  0  0  0
   46.2780   34.7980   43.2370 C   0  0  0  0  0  0  0  0  0  0  0  0
   46.5010   33.9000   44.2220 N   0  0  0  0  0  0  0  0  0  0  0  0
   45.8000   33.8770   45.3870 C   0  0  0  0  0  0  0  0  0  0  0  0
   44.8210   34.7910   45.5990 N   0  0  0  0  0  0  0  0  0  0  0  0
   46.1310   32.8420   46.4030 C   0  0  0  0  0  0  0  0  0  0  0  0
   45.1930   32.9470   47.6060 C   0  0  0  0  0  0  0  0  0  0  0  0
   48.6036   36.0429   42.8647 H   0  0  0  0  0  0  0  0  0  0  0  0
   49.8785   36.0081   40.7382 H   0  0  0  0  0  0  0  0  0  0  0  0
   45.6956   32.1654   39.9133 H   0  0  0  0  0  0  0  0  0  0  0  0
   44.8049   30.7921   37.9760 H   0  0  0  0  0  0  0  0  0  0  0  0
   47.0941   33.2415   35.3692 H   0  0  0  0  0  0  0  0  0  0  0  0
   43.7661   36.4442   44.8250 H   0  0  0  0  0  0  0  0  0  0  0  0
   45.0578   36.4956   42.6637 H   0  0  0  0  0  0  0  0  0  0  0  0
   46.0272   31.8450   45.9500 H   0  0  0  0  0  0  0  0  0  0  0  0
   47.1645   32.9997   46.7452 H   0  0  0  0  0  0  0  0  0  0  0  0
   45.7789   32.8814   48.5346 H   0  0  0  0  0  0  0  0  0  0  0  0
   44.6626   33.9101   47.5744 H   0  0  0  0  0  0  0  0  0  0  0  0
   44.4627   32.1250   47.5744 H   0  0  0  0  0  0  0  0  0  0  0  0
  1 17  1  0
  2  1  2  0
  3  2  1  0
  4  5  1  0
  4  3  2  0
  5  6  2  0
  6  1  1  0
  7  8  1  0
  7  5  1  0
  9  8  2  0
 10  9  1  0
 11 10  2  0
 12 10  1  0
 12 13  1  0
 13  7  1  0
 14 13  2  0
 15 20  2  0
 16 15  1  0
 17 16  2  0
 17 18  1  0
 18 19  2  0
 19 20  1  0
 19 21  1  0
 21 22  1  0
  2 23  1  0
  3 24  1  0
  8 25  1  0
  9 26  1  0
 12 27  1  0
 15 28  1  0
 16 29  1  0
 21 30  1  0
 21 31  1  0
 22 32  1  0
 22 33  1  0
 22 34  1  0
M  ISO  8  23  14  24  14  25  14  26  14  27   9  28  14  29  14  30   8
M  ISO  4  31   8  32   8  33   8  34   8
M  END
>  <minimizedAffinity>  (1) 
-6.35327911

>  <minimizedRMSD>  (1) 
0.137183338

$$$$
