
     RDKit          3D

 48 51  0  0  0  0  0  0  0  0999 V2000
   44.6190   35.7850   44.5450 C   0  0  0  0  0  0  0  0  0  0  0  0
   45.3610   35.8140   43.3380 C   0  0  0  0  0  0  0  0  0  0  0  0
   46.2870   34.8210   43.1180 C   0  0  0  0  0  0  0  0  0  0  0  0
   46.4410   33.8690   44.0640 N   0  0  0  0  0  0  0  0  0  0  0  0
   45.7190   33.8550   45.2210 C   0  0  0  0  0  0  0  0  0  0  0  0
   44.8030   34.8180   45.4630 N   0  0  0  0  0  0  0  0  0  0  0  0
   47.0610   34.8180   41.9010 C   0  0  0  0  0  0  0  0  0  0  0  0
   48.2510   35.5260   41.8760 C   0  0  0  0  0  0  0  0  0  0  0  0
   48.9540   35.4990   40.7130 C   0  0  0  0  0  0  0  0  0  0  0  0
   48.4970   34.8130   39.6470 N   0  0  0  0  0  0  0  0  0  0  0  0
   47.3390   34.1320   39.6900 C   0  0  0  0  0  0  0  0  0  0  0  0
   46.6340   34.1510   40.8400 N   0  0  0  0  0  0  0  0  0  0  0  0
   46.9140   33.4260   38.5230 N   0  0  0  0  0  0  0  0  0  0  0  0
   46.0690   32.4020   38.7700 C   0  0  0  0  0  0  0  0  0  0  0  0
   45.5740   31.6240   37.7090 C   0  0  0  0  0  0  0  0  0  0  0  0
   46.0220   32.0020   36.4560 C   0  0  0  0  0  0  0  0  0  0  0  0
   45.5510   31.2740   35.5230 O   0  0  0  0  0  0  0  0  0  0  0  0
   46.8550   33.0130   36.2180 N   0  0  0  0  0  0  0  0  0  0  0  0
   47.2990   33.7260   37.2770 C   0  0  0  0  0  0  0  0  0  0  0  0
   48.0820   34.6840   37.1040 O   0  0  0  0  0  0  0  0  0  0  0  0
   45.9730   32.7500   46.1990 C   0  0  0  0  0  0  0  0  0  0  0  0
   45.3240   33.0770   47.5340 C   0  0  0  0  0  0  0  0  0  0  0  0
   45.7080   32.2370   48.6020 N   0  0  0  0  0  0  0  0  0  0  0  0
   47.0750   31.9480   48.7690 C   0  0  0  0  0  0  0  0  0  0  0  0
   47.4490   30.5090   48.5120 C   0  0  0  0  0  0  0  0  0  0  0  0
   46.3000   29.7070   48.1400 N   0  0  0  0  0  0  0  0  0  0  0  0
   45.2130   29.8740   49.0540 C   0  0  0  0  0  0  0  0  0  0  0  0
   44.7750   31.2980   49.0910 C   0  0  0  0  0  0  0  0  0  0  0  0
   43.8746   36.5719   44.7363 H   0  0  0  0  0  0  0  0  0  0  0  0
   45.2005   36.6102   42.5961 H   0  0  0  0  0  0  0  0  0  0  0  0
   48.6097   36.0829   42.7542 H   0  0  0  0  0  0  0  0  0  0  0  0
   49.9071   36.0435   40.6412 H   0  0  0  0  0  0  0  0  0  0  0  0
   45.7674   32.1762   39.8035 H   0  0  0  0  0  0  0  0  0  0  0  0
   44.8845   30.7808   37.8630 H   0  0  0  0  0  0  0  0  0  0  0  0
   47.1512   33.2441   35.2589 H   0  0  0  0  0  0  0  0  0  0  0  0
   45.5495   31.8131   45.8080 H   0  0  0  0  0  0  0  0  0  0  0  0
   47.0578   32.6379   46.3430 H   0  0  0  0  0  0  0  0  0  0  0  0
   45.5900   34.1108   47.7994 H   0  0  0  0  0  0  0  0  0  0  0  0
   44.2428   32.9278   47.3968 H   0  0  0  0  0  0  0  0  0  0  0  0
   47.6467   32.5804   48.0739 H   0  0  0  0  0  0  0  0  0  0  0  0
   47.3088   32.1469   49.8253 H   0  0  0  0  0  0  0  0  0  0  0  0
   48.1857   30.4739   47.6959 H   0  0  0  0  0  0  0  0  0  0  0  0
   47.8653   30.0950   49.4422 H   0  0  0  0  0  0  0  0  0  0  0  0
   45.9893   29.9872   47.1988 H   0  0  0  0  0  0  0  0  0  0  0  0
   44.3701   29.2444   48.7327 H   0  0  0  0  0  0  0  0  0  0  0  0
   45.5459   29.5784   50.0599 H   0  0  0  0  0  0  0  0  0  0  0  0
   44.5518   31.5561   50.1367 H   0  0  0  0  0  0  0  0  0  0  0  0
   43.9050   31.3621   48.4209 H   0  0  0  0  0  0  0  0  0  0  0  0
  1  6  2  0
  2  1  1  0
  3  2  2  0
  3  4  1  0
  4  5  2  0
  5  6  1  0
  5 21  1  0
  7  3  1  0
  8  7  2  0
  9  8  1  0
 10 11  1  0
 10  9  2  0
 11 12  2  0
 12  7  1  0
 13 14  1  0
 13 11  1  0
 15 14  2  0
 16 15  1  0
 17 16  2  0
 18 16  1  0
 18 19  1  0
 19 13  1  0
 20 19  2  0
 21 22  1  0
 22 23  1  0
 23 24  1  0
 23 28  1  0
 25 24  1  0
 26 25  1  0
 26 27  1  0
 27 28  1  0
  1 29  1  0
  2 30  1  0
  8 31  1  0
  9 32  1  0
 14 33  1  0
 15 34  1  0
 18 35  1  0
 21 36  1  0
 21 37  1  0
 22 38  1  0
 22 39  1  0
 24 40  1  0
 24 41  1  0
 25 42  1  0
 25 43  1  0
 26 44  1  0
 27 45  1  0
 27 46  1  0
 28 47  1  0
 28 48  1  0
M  ISO  8  29  14  30  14  31  14  32  14  33  14  34  14  35   9  36   8
M  ISO  8  37   8  38   8  39   8  40  13  41  13  42  13  43  13  44   5
M  ISO  4  45  13  46  13  47  13  48  13
M  END
>  <minimizedAffinity>  (1) 
-7.05220127

>  <minimizedRMSD>  (1) 
0.990565896

$$$$
