
     RDKit          3D

 39 42  0  0  0  0  0  0  0  0999 V2000
   44.5250   35.7520   44.5080 C   0  0  0  0  0  0  0  0  0  0  0  0
   45.2460   35.7670   43.2940 C   0  0  0  0  0  0  0  0  0  0  0  0
   46.2690   34.8540   43.1410 C   0  0  0  0  0  0  0  0  0  0  0  0
   46.5080   34.0110   44.1590 N   0  0  0  0  0  0  0  0  0  0  0  0
   45.8160   33.9990   45.3210 C   0  0  0  0  0  0  0  0  0  0  0  0
   44.8100   34.8860   45.4910 N   0  0  0  0  0  0  0  0  0  0  0  0
   47.0430   34.8230   41.9170 C   0  0  0  0  0  0  0  0  0  0  0  0
   48.2530   35.5100   41.9010 C   0  0  0  0  0  0  0  0  0  0  0  0
   48.9520   35.4610   40.7370 C   0  0  0  0  0  0  0  0  0  0  0  0
   48.4830   34.7790   39.6680 N   0  0  0  0  0  0  0  0  0  0  0  0
   47.3100   34.1280   39.7210 C   0  0  0  0  0  0  0  0  0  0  0  0
   46.5910   34.1600   40.8650 N   0  0  0  0  0  0  0  0  0  0  0  0
   46.8810   33.4340   38.5580 N   0  0  0  0  0  0  0  0  0  0  0  0
   46.0050   32.4130   38.8040 C   0  0  0  0  0  0  0  0  0  0  0  0
   45.5060   31.6500   37.7400 C   0  0  0  0  0  0  0  0  0  0  0  0
   45.9600   32.0070   36.4870 C   0  0  0  0  0  0  0  0  0  0  0  0
   45.4830   31.2910   35.5540 O   0  0  0  0  0  0  0  0  0  0  0  0
   46.8110   33.0010   36.2500 N   0  0  0  0  0  0  0  0  0  0  0  0
   47.2580   33.7020   37.3130 C   0  0  0  0  0  0  0  0  0  0  0  0
   48.0680   34.6530   37.1270 O   0  0  0  0  0  0  0  0  0  0  0  0
   46.1690   33.0240   46.3760 C   0  0  0  0  0  0  0  0  0  0  0  0
   45.2000   33.0960   47.5570 C   0  0  0  0  0  0  0  0  0  0  0  0
   45.1360   31.7110   48.1230 C   0  0  0  0  0  0  0  0  0  0  0  0
   44.9410   31.2300   49.3650 N   0  0  0  0  0  0  0  0  0  0  0  0
   44.9780   29.9360   49.3070 O   0  0  0  0  0  0  0  0  0  0  0  0
   45.1910   29.5110   48.0830 C   0  0  0  0  0  0  0  0  0  0  0  0
   45.2930   30.6290   47.3210 N   0  0  0  0  0  0  0  0  0  0  0  0
   43.7056   36.4718   44.6514 H   0  0  0  0  0  0  0  0  0  0  0  0
   45.0000   36.4833   42.4962 H   0  0  0  0  0  0  0  0  0  0  0  0
   48.6219   36.0604   42.7791 H   0  0  0  0  0  0  0  0  0  0  0  0
   49.9162   35.9853   40.6631 H   0  0  0  0  0  0  0  0  0  0  0  0
   45.6928   32.1912   39.8352 H   0  0  0  0  0  0  0  0  0  0  0  0
   44.7991   30.8213   37.8935 H   0  0  0  0  0  0  0  0  0  0  0  0
   47.1169   33.2270   35.2928 H   0  0  0  0  0  0  0  0  0  0  0  0
   46.1377   32.0103   45.9500 H   0  0  0  0  0  0  0  0  0  0  0  0
   47.1774   33.2651   46.7435 H   0  0  0  0  0  0  0  0  0  0  0  0
   45.5722   33.8016   48.3143 H   0  0  0  0  0  0  0  0  0  0  0  0
   44.2068   33.4492   47.2425 H   0  0  0  0  0  0  0  0  0  0  0  0
   45.2702   28.4669   47.7459 H   0  0  0  0  0  0  0  0  0  0  0  0
  1  6  2  0
  2  1  1  0
  3  2  2  0
  3  4  1  0
  4  5  2  0
  5  6  1  0
  5 21  1  0
  7  3  1  0
  8  7  2  0
  9  8  1  0
 10 11  1  0
 10  9  2  0
 11 12  2  0
 12  7  1  0
 13 14  1  0
 13 11  1  0
 15 14  2  0
 16 15  1  0
 17 16  2  0
 18 16  1  0
 18 19  1  0
 19 13  1  0
 20 19  2  0
 21 22  1  0
 22 23  1  0
 23 24  2  0
 25 24  1  0
 26 25  1  0
 27 26  2  0
 27 23  1  0
  1 28  1  0
  2 29  1  0
  8 30  1  0
  9 31  1  0
 14 32  1  0
 15 33  1  0
 18 34  1  0
 21 35  1  0
 21 36  1  0
 22 37  1  0
 22 38  1  0
 26 39  1  0
M  ISO  8  28  14  29  14  30  14  31  14  32  14  33  14  34   9  35   8
M  ISO  4  36   8  37   8  38   8  39  14
M  END
>  <minimizedAffinity>  (1) 
-7.04254913

>  <minimizedRMSD>  (1) 
0.755132318

$$$$
