
     RDKit          3D

 41 44  0  0  0  0  0  0  0  0999 V2000
   44.5130   35.7350   44.4640 C   0  0  0  0  0  0  0  0  0  0  0  0
   45.2340   35.7510   43.2440 C   0  0  0  0  0  0  0  0  0  0  0  0
   46.2940   34.8600   43.1160 C   0  0  0  0  0  0  0  0  0  0  0  0
   46.5700   34.0410   44.1540 N   0  0  0  0  0  0  0  0  0  0  0  0
   45.8710   34.0390   45.3090 C   0  0  0  0  0  0  0  0  0  0  0  0
   44.8270   34.8960   45.4700 N   0  0  0  0  0  0  0  0  0  0  0  0
   47.0650   34.8340   41.8920 C   0  0  0  0  0  0  0  0  0  0  0  0
   48.2630   35.5170   41.8640 C   0  0  0  0  0  0  0  0  0  0  0  0
   48.9540   35.4660   40.6940 C   0  0  0  0  0  0  0  0  0  0  0  0
   48.4830   34.7840   39.6330 N   0  0  0  0  0  0  0  0  0  0  0  0
   47.3090   34.1260   39.6890 C   0  0  0  0  0  0  0  0  0  0  0  0
   46.6040   34.1620   40.8400 N   0  0  0  0  0  0  0  0  0  0  0  0
   46.8740   33.4270   38.5270 N   0  0  0  0  0  0  0  0  0  0  0  0
   46.0010   32.4100   38.7840 C   0  0  0  0  0  0  0  0  0  0  0  0
   45.4880   31.6340   37.7310 C   0  0  0  0  0  0  0  0  0  0  0  0
   45.9480   32.0000   36.4740 C   0  0  0  0  0  0  0  0  0  0  0  0
   45.4540   31.2660   35.5500 O   0  0  0  0  0  0  0  0  0  0  0  0
   46.7990   32.9900   36.2280 N   0  0  0  0  0  0  0  0  0  0  0  0
   47.2510   33.6930   37.2800 C   0  0  0  0  0  0  0  0  0  0  0  0
   48.0540   34.6370   37.1010 O   0  0  0  0  0  0  0  0  0  0  0  0
   46.2500   33.1030   46.3870 C   0  0  0  0  0  0  0  0  0  0  0  0
   45.2050   33.0950   47.5130 C   0  0  0  0  0  0  0  0  0  0  0  0
   45.1760   31.6670   47.9930 C   0  0  0  0  0  0  0  0  0  0  0  0
   45.1180   31.2450   49.3240 C   0  0  0  0  0  0  0  0  0  0  0  0
   45.1110   29.8590   49.2960 C   0  0  0  0  0  0  0  0  0  0  0  0
   45.1640   29.5110   47.9610 C   0  0  0  0  0  0  0  0  0  0  0  0
   45.2020   30.5940   47.2100 O   0  0  0  0  0  0  0  0  0  0  0  0
   43.6701   36.4298   44.5936 H   0  0  0  0  0  0  0  0  0  0  0  0
   44.9657   36.4410   42.4304 H   0  0  0  0  0  0  0  0  0  0  0  0
   48.6377   36.0708   42.7375 H   0  0  0  0  0  0  0  0  0  0  0  0
   49.9166   35.9922   40.6128 H   0  0  0  0  0  0  0  0  0  0  0  0
   45.6977   32.1969   39.8197 H   0  0  0  0  0  0  0  0  0  0  0  0
   44.7813   30.8061   37.8897 H   0  0  0  0  0  0  0  0  0  0  0  0
   47.1006   33.2101   35.2681 H   0  0  0  0  0  0  0  0  0  0  0  0
   46.3332   32.0892   45.9683 H   0  0  0  0  0  0  0  0  0  0  0  0
   47.2118   33.4304   46.8086 H   0  0  0  0  0  0  0  0  0  0  0  0
   45.5050   33.7722   48.3263 H   0  0  0  0  0  0  0  0  0  0  0  0
   44.2186   33.4403   47.1698 H   0  0  0  0  0  0  0  0  0  0  0  0
   45.0845   31.8859   50.2173 H   0  0  0  0  0  0  0  0  0  0  0  0
   45.0714   29.1777   50.1587 H   0  0  0  0  0  0  0  0  0  0  0  0
   45.1732   28.4794   47.5792 H   0  0  0  0  0  0  0  0  0  0  0  0
  1  6  2  0
  2  1  1  0
  3  2  2  0
  3  4  1  0
  4  5  2  0
  5  6  1  0
  5 21  1  0
  7  3  1  0
  8  7  2  0
  9  8  1  0
 10 11  1  0
 10  9  2  0
 11 12  2  0
 12  7  1  0
 13 14  1  0
 13 11  1  0
 15 14  2  0
 16 15  1  0
 17 16  2  0
 18 16  1  0
 18 19  1  0
 19 13  1  0
 20 19  2  0
 21 22  1  0
 22 23  1  0
 23 24  2  0
 25 24  1  0
 26 25  2  0
 27 26  1  0
 27 23  1  0
  1 28  1  0
  2 29  1  0
  8 30  1  0
  9 31  1  0
 14 32  1  0
 15 33  1  0
 18 34  1  0
 21 35  1  0
 21 36  1  0
 22 37  1  0
 22 38  1  0
 24 39  1  0
 25 40  1  0
 26 41  1  0
M  ISO  8  28  14  29  14  30  14  31  14  32  14  33  14  34   9  35   8
M  ISO  6  36   8  37   8  38   8  39  14  40  14  41  14
M  END
>  <minimizedAffinity>  (1) 
-6.98173618

>  <minimizedRMSD>  (1) 
0.611376464

$$$$
