
     RDKit          3D

 44 47  0  0  0  0  0  0  0  0999 V2000
   44.5880   35.4670   44.6170 C   0  0  0  0  0  0  0  0  0  0  0  0
   45.2770   35.5270   43.3810 C   0  0  0  0  0  0  0  0  0  0  0  0
   46.3850   34.7300   43.2090 C   0  0  0  0  0  0  0  0  0  0  0  0
   46.7490   33.9360   44.2370 N   0  0  0  0  0  0  0  0  0  0  0  0
   46.0800   33.8840   45.4250 C   0  0  0  0  0  0  0  0  0  0  0  0
   44.9880   34.6590   45.6110 N   0  0  0  0  0  0  0  0  0  0  0  0
   47.1160   34.7600   41.9700 C   0  0  0  0  0  0  0  0  0  0  0  0
   48.2870   35.5010   41.9200 C   0  0  0  0  0  0  0  0  0  0  0  0
   48.9460   35.5020   40.7280 C   0  0  0  0  0  0  0  0  0  0  0  0
   48.4760   34.8150   39.6670 N   0  0  0  0  0  0  0  0  0  0  0  0
   47.3410   34.1070   39.7450 C   0  0  0  0  0  0  0  0  0  0  0  0
   46.6620   34.0870   40.9170 N   0  0  0  0  0  0  0  0  0  0  0  0
   46.8900   33.4010   38.5890 N   0  0  0  0  0  0  0  0  0  0  0  0
   46.0520   32.3610   38.8380 C   0  0  0  0  0  0  0  0  0  0  0  0
   45.5510   31.6020   37.7860 C   0  0  0  0  0  0  0  0  0  0  0  0
   45.9610   31.9790   36.5250 C   0  0  0  0  0  0  0  0  0  0  0  0
   45.4840   31.2650   35.5970 O   0  0  0  0  0  0  0  0  0  0  0  0
   46.7840   33.0000   36.2730 N   0  0  0  0  0  0  0  0  0  0  0  0
   47.2470   33.7110   37.3280 C   0  0  0  0  0  0  0  0  0  0  0  0
   48.0190   34.6760   37.1480 O   0  0  0  0  0  0  0  0  0  0  0  0
   46.5920   32.9570   46.4830 C   0  0  0  0  0  0  0  0  0  0  0  0
   45.4500   32.6200   47.4570 C   0  0  0  0  0  0  0  0  0  0  0  0
   45.3250   31.1700   47.6370 C   0  0  0  0  0  0  0  0  0  0  0  0
   45.0550   30.5860   48.8410 C   0  0  0  0  0  0  0  0  0  0  0  0
   44.9590   29.2110   48.9040 C   0  0  0  0  0  0  0  0  0  0  0  0
   45.1170   28.3680   47.8200 C   0  0  0  0  0  0  0  0  0  0  0  0
   45.3880   29.0230   46.6350 C   0  0  0  0  0  0  0  0  0  0  0  0
   45.5000   30.3990   46.4960 C   0  0  0  0  0  0  0  0  0  0  0  0
   43.7008   36.1000   44.7662 H   0  0  0  0  0  0  0  0  0  0  0  0
   44.9341   36.1953   42.5774 H   0  0  0  0  0  0  0  0  0  0  0  0
   48.6620   36.0559   42.7926 H   0  0  0  0  0  0  0  0  0  0  0  0
   49.8800   36.0745   40.6288 H   0  0  0  0  0  0  0  0  0  0  0  0
   45.7694   32.1190   39.8732 H   0  0  0  0  0  0  0  0  0  0  0  0
   44.8701   30.7538   37.9498 H   0  0  0  0  0  0  0  0  0  0  0  0
   47.0572   33.2384   35.3089 H   0  0  0  0  0  0  0  0  0  0  0  0
   46.9609   32.0325   46.0148 H   0  0  0  0  0  0  0  0  0  0  0  0
   47.4142   33.4403   47.0310 H   0  0  0  0  0  0  0  0  0  0  0  0
   45.6581   33.0870   48.4310 H   0  0  0  0  0  0  0  0  0  0  0  0
   44.5077   33.0043   47.0394 H   0  0  0  0  0  0  0  0  0  0  0  0
   44.9167   31.1997   49.7434 H   0  0  0  0  0  0  0  0  0  0  0  0
   44.7424   28.7555   49.8816 H   0  0  0  0  0  0  0  0  0  0  0  0
   45.0343   27.2737   47.8947 H   0  0  0  0  0  0  0  0  0  0  0  0
   45.5254   28.4078   45.7336 H   0  0  0  0  0  0  0  0  0  0  0  0
   45.7185   30.8601   45.5215 H   0  0  0  0  0  0  0  0  0  0  0  0
  1  6  2  0
  2  1  1  0
  3  2  2  0
  3  4  1  0
  4  5  2  0
  5  6  1  0
  5 21  1  0
  7  3  1  0
  8  7  2  0
  9  8  1  0
 10 11  1  0
 10  9  2  0
 11 12  2  0
 12  7  1  0
 13 14  1  0
 13 11  1  0
 15 14  2  0
 16 15  1  0
 17 16  2  0
 18 16  1  0
 18 19  1  0
 19 13  1  0
 20 19  2  0
 21 22  1  0
 22 23  1  0
 23 24  2  0
 24 25  1  0
 26 25  2  0
 27 26  1  0
 28 27  2  0
 28 23  1  0
  1 29  1  0
  2 30  1  0
  8 31  1  0
  9 32  1  0
 14 33  1  0
 15 34  1  0
 18 35  1  0
 21 36  1  0
 21 37  1  0
 22 38  1  0
 22 39  1  0
 24 40  1  0
 25 41  1  0
 26 42  1  0
 27 43  1  0
 28 44  1  0
M  ISO  8  29  14  30  14  31  14  32  14  33  14  34  14  35   9  36   8
M  ISO  8  37   8  38   8  39   8  40  14  41  14  42  14  43  14  44  14
M  END
>  <minimizedAffinity>  (1) 
-6.93384886

>  <minimizedRMSD>  (1) 
1.15230727

$$$$
