
     RDKit          3D

 42 45  0  0  0  0  0  0  0  0999 V2000
   44.5770   35.4620   44.5860 C   0  0  0  0  0  0  0  0  0  0  0  0
   45.2680   35.5230   43.3510 C   0  0  0  0  0  0  0  0  0  0  0  0
   46.3930   34.7350   43.1990 C   0  0  0  0  0  0  0  0  0  0  0  0
   46.7580   33.9600   44.2370 N   0  0  0  0  0  0  0  0  0  0  0  0
   46.0960   33.9050   45.4130 C   0  0  0  0  0  0  0  0  0  0  0  0
   44.9860   34.6690   45.5920 N   0  0  0  0  0  0  0  0  0  0  0  0
   47.1330   34.7660   41.9510 C   0  0  0  0  0  0  0  0  0  0  0  0
   48.2880   35.5080   41.8950 C   0  0  0  0  0  0  0  0  0  0  0  0
   48.9430   35.5040   40.7050 C   0  0  0  0  0  0  0  0  0  0  0  0
   48.4770   34.8100   39.6520 N   0  0  0  0  0  0  0  0  0  0  0  0
   47.3420   34.0900   39.7330 C   0  0  0  0  0  0  0  0  0  0  0  0
   46.6830   34.0870   40.9100 N   0  0  0  0  0  0  0  0  0  0  0  0
   46.9130   33.3830   38.5790 N   0  0  0  0  0  0  0  0  0  0  0  0
   46.0970   32.3210   38.8460 C   0  0  0  0  0  0  0  0  0  0  0  0
   45.6090   31.5470   37.7930 C   0  0  0  0  0  0  0  0  0  0  0  0
   45.9980   31.9240   36.5300 C   0  0  0  0  0  0  0  0  0  0  0  0
   45.5360   31.1990   35.6070 O   0  0  0  0  0  0  0  0  0  0  0  0
   46.8000   32.9670   36.2720 N   0  0  0  0  0  0  0  0  0  0  0  0
   47.2460   33.6840   37.3180 C   0  0  0  0  0  0  0  0  0  0  0  0
   47.9980   34.6700   37.1350 O   0  0  0  0  0  0  0  0  0  0  0  0
   46.6000   33.0080   46.4820 C   0  0  0  0  0  0  0  0  0  0  0  0
   45.4670   32.5840   47.4150 C   0  0  0  0  0  0  0  0  0  0  0  0
   45.3420   31.1220   47.4980 C   0  0  0  0  0  0  0  0  0  0  0  0
   45.0920   30.6020   48.7530 C   0  0  0  0  0  0  0  0  0  0  0  0
   44.9620   29.2380   48.9070 C   0  0  0  0  0  0  0  0  0  0  0  0
   45.0730   28.3950   47.8640 N   0  0  0  0  0  0  0  0  0  0  0  0
   45.3190   28.9330   46.6390 C   0  0  0  0  0  0  0  0  0  0  0  0
   45.4500   30.2660   46.4670 N   0  0  0  0  0  0  0  0  0  0  0  0
   43.6791   36.0818   44.7263 H   0  0  0  0  0  0  0  0  0  0  0  0
   44.9199   36.1773   42.5382 H   0  0  0  0  0  0  0  0  0  0  0  0
   48.6604   36.0721   42.7628 H   0  0  0  0  0  0  0  0  0  0  0  0
   49.8740   36.0805   40.6007 H   0  0  0  0  0  0  0  0  0  0  0  0
   45.8264   32.0776   39.8841 H   0  0  0  0  0  0  0  0  0  0  0  0
   44.9497   30.6832   37.9640 H   0  0  0  0  0  0  0  0  0  0  0  0
   47.0649   33.2102   35.3068 H   0  0  0  0  0  0  0  0  0  0  0  0
   47.0424   32.1121   46.0219 H   0  0  0  0  0  0  0  0  0  0  0  0
   47.3556   33.5503   47.0694 H   0  0  0  0  0  0  0  0  0  0  0  0
   45.6675   32.9812   48.4210 H   0  0  0  0  0  0  0  0  0  0  0  0
   44.5254   32.9837   47.0106 H   0  0  0  0  0  0  0  0  0  0  0  0
   44.9975   31.2701   49.6218 H   0  0  0  0  0  0  0  0  0  0  0  0
   44.7624   28.8284   49.9082 H   0  0  0  0  0  0  0  0  0  0  0  0
   45.4134   28.2670   45.7686 H   0  0  0  0  0  0  0  0  0  0  0  0
  1  6  2  0
  2  1  1  0
  3  2  2  0
  3  4  1  0
  4  5  2  0
  5  6  1  0
  5 21  1  0
  7  3  1  0
  8  7  2  0
  9  8  1  0
 10 11  1  0
 10  9  2  0
 11 12  2  0
 12  7  1  0
 13 14  1  0
 13 11  1  0
 15 14  2  0
 16 15  1  0
 17 16  2  0
 18 16  1  0
 18 19  1  0
 19 13  1  0
 20 19  2  0
 21 22  1  0
 22 23  1  0
 23 24  2  0
 24 25  1  0
 26 25  2  0
 27 26  1  0
 28 27  2  0
 28 23  1  0
  1 29  1  0
  2 30  1  0
  8 31  1  0
  9 32  1  0
 14 33  1  0
 15 34  1  0
 18 35  1  0
 21 36  1  0
 21 37  1  0
 22 38  1  0
 22 39  1  0
 24 40  1  0
 25 41  1  0
 27 42  1  0
M  ISO  8  29  14  30  14  31  14  32  14  33  14  34  14  35   9  36   8
M  ISO  6  37   8  38   8  39   8  40  14  41  14  42  14
M  END
>  <minimizedAffinity>  (1) 
-6.60043669

>  <minimizedRMSD>  (1) 
1.2464416

$$$$
