
     RDKit          3D

 46 49  0  0  1  0  0  0  0  0999 V2000
   47.9130   34.3640   41.2600 C   0  0  2  0  0  0  0  0  0  0  0  0
   48.5250   35.5630   41.6550 C   0  0  0  0  0  0  0  0  0  0  0  0
   49.8950   35.1950   42.2810 C   0  0  0  0  0  0  0  0  0  0  0  0
   50.0520   33.6920   42.1950 C   0  0  0  0  0  0  0  0  0  0  0  0
   48.6680   33.2500   42.0930 C   0  0  1  0  0  0  0  0  0  0  0  0
   47.9580   33.8460   39.8670 C   0  0  0  0  0  0  0  0  0  0  0  0
   48.3780   34.7130   38.8880 C   0  0  0  0  0  0  0  0  0  0  0  0
   48.4560   34.3100   37.5750 C   0  0  0  0  0  0  0  0  0  0  0  0
   48.0890   33.0030   37.3280 N   0  0  0  0  0  0  0  0  0  0  0  0
   47.6880   32.1930   38.3000 C   0  0  0  0  0  0  0  0  0  0  0  0
   47.6130   32.5870   39.5800 N   0  0  0  0  0  0  0  0  0  0  0  0
   48.0380   33.1610   43.4530 C   0  0  0  0  0  0  0  0  0  0  0  0
   46.6260   32.6520   43.3550 C   0  0  0  0  0  0  0  0  0  0  0  0
   45.7880   33.6330   44.1000 C   0  0  0  0  0  0  0  0  0  0  0  0
   44.8520   34.5090   43.6270 C   0  0  0  0  0  0  0  0  0  0  0  0
   44.3530   35.2100   44.6720 N   0  0  0  0  0  0  0  0  0  0  0  0
   44.9720   34.7710   45.7760 C   0  0  0  0  0  0  0  0  0  0  0  0
   45.8370   33.8240   45.4490 N   0  0  0  0  0  0  0  0  0  0  0  0
   46.6930   33.0940   46.3800 C   0  0  0  0  0  0  0  0  0  0  0  0
   45.8950   31.9510   46.8890 C   0  0  0  0  0  0  0  0  0  0  0  0
   45.4700   31.9100   48.2240 C   0  0  0  0  0  0  0  0  0  0  0  0
   44.7720   30.7780   48.4430 N   0  0  0  0  0  0  0  0  0  0  0  0
   44.7330   30.0860   47.2860 C   0  0  0  0  0  0  0  0  0  0  0  0
   45.4080   30.8110   46.3910 N   0  0  0  0  0  0  0  0  0  0  0  0
   46.8459   34.5875   41.4059 H   0  0  0  0  0  0  0  0  0  0  0  0
   48.6728   36.2159   40.7821 H   0  0  0  0  0  0  0  0  0  0  0  0
   47.8968   36.1013   42.3800 H   0  0  0  0  0  0  0  0  0  0  0  0
   50.7056   35.6887   41.7249 H   0  0  0  0  0  0  0  0  0  0  0  0
   49.9415   35.5277   43.3284 H   0  0  0  0  0  0  0  0  0  0  0  0
   50.6314   33.4006   41.3066 H   0  0  0  0  0  0  0  0  0  0  0  0
   50.5971   33.2531   43.0437 H   0  0  0  0  0  0  0  0  0  0  0  0
   48.6118   32.2573   41.6224 H   0  0  0  0  0  0  0  0  0  0  0  0
   48.6555   35.7428   39.1573 H   0  0  0  0  0  0  0  0  0  0  0  0
   48.7894   34.9860   36.7738 H   0  0  0  0  0  0  0  0  0  0  0  0
   47.4067   31.1602   38.0465 H   0  0  0  0  0  0  0  0  0  0  0  0
   48.6265   32.4739   44.0788 H   0  0  0  0  0  0  0  0  0  0  0  0
   48.0204   34.1659   43.9000 H   0  0  0  0  0  0  0  0  0  0  0  0
   46.3100   32.5995   42.3027 H   0  0  0  0  0  0  0  0  0  0  0  0
   46.5310   31.6389   43.7728 H   0  0  0  0  0  0  0  0  0  0  0  0
   44.5542   34.6250   42.5745 H   0  0  0  0  0  0  0  0  0  0  0  0
   44.7897   35.1403   46.7960 H   0  0  0  0  0  0  0  0  0  0  0  0
   47.5911   32.7277   45.8612 H   0  0  0  0  0  0  0  0  0  0  0  0
   47.0237   33.7430   47.2043 H   0  0  0  0  0  0  0  0  0  0  0  0
   45.6750   32.6840   48.9783 H   0  0  0  0  0  0  0  0  0  0  0  0
   44.2424   29.1166   47.1139 H   0  0  0  0  0  0  0  0  0  0  0  0
   45.5404   30.5198   45.4119 H   0  0  0  0  0  0  0  0  0  0  0  0
  1  2  1  0
  1  5  1  0
  2  3  1  0
  4  3  1  0
  5  4  1  0
  5 12  1  0
  6  1  1  0
  7  6  2  0
  8  7  1  0
  9  8  2  0
  9 10  1  0
 10 11  2  0
 11  6  1  0
 13 12  1  0
 13 14  1  0
 14 18  1  0
 15 14  2  0
 15 16  1  0
 16 17  2  0
 18 17  1  0
 18 19  1  0
 19 20  1  0
 20 21  2  0
 21 22  1  0
 23 22  2  0
 24 20  1  0
 24 23  1  0
  1 25  1  1
  2 26  1  0
  2 27  1  0
  3 28  1  0
  3 29  1  0
  4 30  1  0
  4 31  1  0
  5 32  1  6
  7 33  1  0
  8 34  1  0
 10 35  1  0
 12 36  1  0
 12 37  1  0
 13 38  1  0
 13 39  1  0
 15 40  1  0
 17 41  1  0
 19 42  1  0
 19 43  1  0
 21 44  1  0
 23 45  1  0
 24 46  1  0
M  ISO  8  25  13  26  13  27  13  28  13  29  13  30  13  31  13  32  13
M  ISO  8  33  14  34  14  35  14  36   8  37   8  38   8  39   8  40  14
M  ISO  6  41  14  42   8  43   8  44  14  45  14  46   9
M  END
>  <minimizedAffinity>  (1) 
-5.6033268

>  <minimizedRMSD>  (1) 
1.05046594

$$$$
