
     RDKit          3D

 35 37  0  0  0  0  0  0  0  0999 V2000
   47.0540   34.7990   42.0090 C   0  0  0  0  0  0  0  0  0  0  0  0
   48.2430   35.4960   41.9830 C   0  0  0  0  0  0  0  0  0  0  0  0
   48.9320   35.4640   40.8080 C   0  0  0  0  0  0  0  0  0  0  0  0
   48.4610   34.7830   39.7420 N   0  0  0  0  0  0  0  0  0  0  0  0
   47.2970   34.1130   39.8040 C   0  0  0  0  0  0  0  0  0  0  0  0
   46.5950   34.1300   40.9580 N   0  0  0  0  0  0  0  0  0  0  0  0
   46.8610   33.4160   38.6420 N   0  0  0  0  0  0  0  0  0  0  0  0
   46.0000   32.3860   38.8900 C   0  0  0  0  0  0  0  0  0  0  0  0
   45.4960   31.6210   37.8450 C   0  0  0  0  0  0  0  0  0  0  0  0
   45.9280   31.9840   36.5760 C   0  0  0  0  0  0  0  0  0  0  0  0
   45.4460   31.2630   35.6510 O   0  0  0  0  0  0  0  0  0  0  0  0
   46.7760   32.9990   36.3300 N   0  0  0  0  0  0  0  0  0  0  0  0
   47.2290   33.7020   37.3850 C   0  0  0  0  0  0  0  0  0  0  0  0
   48.0190   34.6530   37.2040 O   0  0  0  0  0  0  0  0  0  0  0  0
   44.5450   35.7030   44.6300 C   0  0  0  0  0  0  0  0  0  0  0  0
   45.2660   35.7370   43.4110 C   0  0  0  0  0  0  0  0  0  0  0  0
   46.2880   34.8050   43.2380 C   0  0  0  0  0  0  0  0  0  0  0  0
   46.5140   33.9410   44.2380 N   0  0  0  0  0  0  0  0  0  0  0  0
   45.8190   33.9160   45.4020 C   0  0  0  0  0  0  0  0  0  0  0  0
   44.8150   34.8210   45.5900 N   0  0  0  0  0  0  0  0  0  0  0  0
   46.1810   32.8990   46.4290 C   0  0  0  0  0  0  0  0  0  0  0  0
   45.1230   32.8870   47.5430 C   0  0  0  0  0  0  0  0  0  0  0  0
   45.7060   33.0380   48.7760 O   0  0  0  0  0  0  0  0  0  0  0  0
   48.6141   36.0462   42.8602 H   0  0  0  0  0  0  0  0  0  0  0  0
   49.8880   36.0021   40.7267 H   0  0  0  0  0  0  0  0  0  0  0  0
   45.7030   32.1599   39.9247 H   0  0  0  0  0  0  0  0  0  0  0  0
   44.8016   30.7843   38.0117 H   0  0  0  0  0  0  0  0  0  0  0  0
   47.0680   33.2298   35.3696 H   0  0  0  0  0  0  0  0  0  0  0  0
   43.7348   36.4299   44.7887 H   0  0  0  0  0  0  0  0  0  0  0  0
   45.0278   36.4728   42.6288 H   0  0  0  0  0  0  0  0  0  0  0  0
   46.2280   31.9056   45.9589 H   0  0  0  0  0  0  0  0  0  0  0  0
   47.1609   33.1507   46.8607 H   0  0  0  0  0  0  0  0  0  0  0  0
   44.4154   33.7125   47.3761 H   0  0  0  0  0  0  0  0  0  0  0  0
   44.5993   31.9200   47.5188 H   0  0  0  0  0  0  0  0  0  0  0  0
   45.0343   32.8640   49.4822 H   0  0  0  0  0  0  0  0  0  0  0  0
  1 17  1  0
  2  1  2  0
  3  2  1  0
  4  5  1  0
  4  3  2  0
  5  6  2  0
  6  1  1  0
  7  8  1  0
  7  5  1  0
  9  8  2  0
 10  9  1  0
 11 10  2  0
 12 10  1  0
 12 13  1  0
 13  7  1  0
 14 13  2  0
 15 20  2  0
 16 15  1  0
 17 16  2  0
 17 18  1  0
 18 19  2  0
 19 20  1  0
 19 21  1  0
 21 22  1  0
 22 23  1  0
  2 24  1  0
  3 25  1  0
  8 26  1  0
  9 27  1  0
 12 28  1  0
 15 29  1  0
 16 30  1  0
 21 31  1  0
 21 32  1  0
 22 33  1  0
 22 34  1  0
 23 35  1  0
M  ISO  8  24  14  25  14  26  14  27  14  28   9  29  14  30  14  31   8
M  ISO  4  32   8  33   8  34   8  35   3
M  END
>  <minimizedAffinity>  (1) 
-6.5657506

>  <minimizedRMSD>  (1) 
0.225840956

$$$$
