
     RDKit          3D

 40 43  0  0  0  0  0  0  0  0999 V2000
   44.5870   35.4230   44.6380 C   0  0  0  0  0  0  0  0  0  0  0  0
   45.2800   35.4930   43.4040 C   0  0  0  0  0  0  0  0  0  0  0  0
   46.4160   34.7010   43.2350 C   0  0  0  0  0  0  0  0  0  0  0  0
   46.7760   33.9190   44.2660 N   0  0  0  0  0  0  0  0  0  0  0  0
   46.1060   33.8550   45.4510 C   0  0  0  0  0  0  0  0  0  0  0  0
   45.0010   34.6160   45.6370 N   0  0  0  0  0  0  0  0  0  0  0  0
   47.1440   34.7460   41.9970 C   0  0  0  0  0  0  0  0  0  0  0  0
   48.2890   35.5000   41.9440 C   0  0  0  0  0  0  0  0  0  0  0  0
   48.9450   35.5130   40.7480 C   0  0  0  0  0  0  0  0  0  0  0  0
   48.4810   34.8190   39.6920 N   0  0  0  0  0  0  0  0  0  0  0  0
   47.3600   34.0920   39.7760 C   0  0  0  0  0  0  0  0  0  0  0  0
   46.6880   34.0610   40.9480 N   0  0  0  0  0  0  0  0  0  0  0  0
   46.9090   33.3730   38.6190 N   0  0  0  0  0  0  0  0  0  0  0  0
   46.1000   32.3160   38.8780 C   0  0  0  0  0  0  0  0  0  0  0  0
   45.6030   31.5440   37.8290 C   0  0  0  0  0  0  0  0  0  0  0  0
   46.0000   31.9510   36.5630 C   0  0  0  0  0  0  0  0  0  0  0  0
   45.5250   31.2220   35.6400 O   0  0  0  0  0  0  0  0  0  0  0  0
   46.7970   32.9920   36.3040 N   0  0  0  0  0  0  0  0  0  0  0  0
   47.2430   33.6930   37.3550 C   0  0  0  0  0  0  0  0  0  0  0  0
   47.9940   34.6810   37.1720 O   0  0  0  0  0  0  0  0  0  0  0  0
   46.6110   32.9500   46.5050 C   0  0  0  0  0  0  0  0  0  0  0  0
   45.4640   32.4460   47.3930 C   0  0  0  0  0  0  0  0  0  0  0  0
   45.4040   30.9640   47.2970 C   0  0  0  0  0  0  0  0  0  0  0  0
   45.1390   30.1540   48.4320 C   0  0  0  0  0  0  0  0  0  0  0  0
   45.1830   28.4380   47.7420 S   0  0  0  0  0  0  0  0  0  0  0  0
   45.5580   29.1410   46.0160 C   0  0  0  0  0  0  0  0  0  0  0  0
   45.5880   30.2660   46.1720 N   0  0  0  0  0  0  0  0  0  0  0  0
   43.6895   36.0417   44.7851 H   0  0  0  0  0  0  0  0  0  0  0  0
   44.9307   36.1559   42.5987 H   0  0  0  0  0  0  0  0  0  0  0  0
   48.6567   36.0615   42.8155 H   0  0  0  0  0  0  0  0  0  0  0  0
   49.8691   36.1007   40.6447 H   0  0  0  0  0  0  0  0  0  0  0  0
   45.8357   32.0676   39.9165 H   0  0  0  0  0  0  0  0  0  0  0  0
   44.9456   30.6774   37.9924 H   0  0  0  0  0  0  0  0  0  0  0  0
   47.0567   33.2441   35.3397 H   0  0  0  0  0  0  0  0  0  0  0  0
   47.1057   32.0884   46.0328 H   0  0  0  0  0  0  0  0  0  0  0  0
   47.3225   33.5060   47.1332 H   0  0  0  0  0  0  0  0  0  0  0  0
   45.6459   32.7424   48.4366 H   0  0  0  0  0  0  0  0  0  0  0  0
   44.5112   32.8825   47.0588 H   0  0  0  0  0  0  0  0  0  0  0  0
   44.9528   30.4696   49.4692 H   0  0  0  0  0  0  0  0  0  0  0  0
   45.7111   28.5850   45.0793 H   0  0  0  0  0  0  0  0  0  0  0  0
  1  6  2  0
  2  1  1  0
  3  2  2  0
  3  4  1  0
  4  5  2  0
  5  6  1  0
  5 21  1  0
  7  3  1  0
  8  7  2  0
  9  8  1  0
 10 11  1  0
 10  9  2  0
 11 12  2  0
 12  7  1  0
 13 14  1  0
 13 11  1  0
 15 14  2  0
 16 15  1  0
 17 16  2  0
 18 16  1  0
 18 19  1  0
 19 13  1  0
 20 19  2  0
 21 22  1  0
 23 22  1  0
 23 24  2  0
 25 24  1  0
 26 27  2  0
 26 25  1  0
 27 23  1  0
  1 28  1  0
  2 29  1  0
  8 30  1  0
  9 31  1  0
 14 32  1  0
 15 33  1  0
 18 34  1  0
 21 35  1  0
 21 36  1  0
 22 37  1  0
 22 38  1  0
 24 39  1  0
 26 40  1  0
M  ISO  8  28  14  29  14  30  14  31  14  32  14  33  14  34   9  35   8
M  ISO  5  36   8  37   8  38   8  39  14  40  14
M  END
>  <minimizedAffinity>  (1) 
-6.53154278

>  <minimizedRMSD>  (1) 
1.20820582

$$$$
