
     RDKit          3D

 28 29  0  0  0  0  0  0  0  0999 V2000
   44.6200   34.8600   41.6690 C   0  0  0  0  0  0  0  0  0  0  0  0
   45.4460   34.5070   40.8200 O   0  0  0  0  0  0  0  0  0  0  0  0
   44.4250   35.7520   44.0410 C   0  0  0  0  0  0  0  0  0  0  0  0
   44.7810   34.7430   43.1320 C   0  0  0  0  0  0  0  0  0  0  0  0
   45.3200   33.5450   43.6060 C   0  0  0  0  0  0  0  0  0  0  0  0
   45.4850   33.3960   44.9600 N   0  0  0  0  0  0  0  0  0  0  0  0
   45.1300   34.3940   45.7980 C   0  0  0  0  0  0  0  0  0  0  0  0
   44.6070   35.5540   45.3480 N   0  0  0  0  0  0  0  0  0  0  0  0
   43.4140   35.4250   41.2560 O   0  0  0  0  0  0  0  0  0  0  0  0
   40.9800   35.8420   39.0810 N   0  0  0  0  0  0  0  0  0  0  0  0
   40.1440   35.5290   40.2230 C   0  0  0  0  0  0  0  0  0  0  0  0
   41.0190   35.6640   41.4630 C   0  0  0  0  0  0  0  0  0  0  0  0
   42.1750   34.7190   41.3200 C   0  0  0  0  0  0  0  0  0  0  0  0
   42.0980   33.8760   40.0630 C   0  0  0  0  0  0  0  0  0  0  0  0
   41.9190   34.7860   38.8520 C   0  0  0  0  0  0  0  0  0  0  0  0
   43.9990   36.6991   43.6783 H   0  0  0  0  0  0  0  0  0  0  0  0
   45.6051   32.7411   42.9114 H   0  0  0  0  0  0  0  0  0  0  0  0
   45.2714   34.2572   46.8803 H   0  0  0  0  0  0  0  0  0  0  0  0
   40.3872   35.9571   38.2466 H   0  0  0  0  0  0  0  0  0  0  0  0
   39.2997   36.2320   40.2776 H   0  0  0  0  0  0  0  0  0  0  0  0
   39.7310   34.5127   40.1416 H   0  0  0  0  0  0  0  0  0  0  0  0
   41.3891   36.6964   41.5480 H   0  0  0  0  0  0  0  0  0  0  0  0
   40.4398   35.4250   42.3671 H   0  0  0  0  0  0  0  0  0  0  0  0
   42.1221   34.0714   42.2076 H   0  0  0  0  0  0  0  0  0  0  0  0
   43.0264   33.2966   39.9524 H   0  0  0  0  0  0  0  0  0  0  0  0
   41.2431   33.1876   40.1345 H   0  0  0  0  0  0  0  0  0  0  0  0
   41.5644   34.1786   38.0062 H   0  0  0  0  0  0  0  0  0  0  0  0
   42.8935   35.2513   38.6426 H   0  0  0  0  0  0  0  0  0  0  0  0
  1  4  1  0
  2  1  2  0
  3  8  2  0
  4  5  2  0
  4  3  1  0
  5  6  1  0
  6  7  2  0
  8  7  1  0
  9 13  1  0
  9  1  1  0
 10 11  1  0
 11 12  1  0
 13 12  1  0
 14 13  1  0
 15 10  1  0
 15 14  1  0
  3 16  1  0
  5 17  1  0
  7 18  1  0
 10 19  1  0
 11 20  1  0
 11 21  1  0
 12 22  1  0
 12 23  1  0
 13 24  1  0
 14 25  1  0
 14 26  1  0
 15 27  1  0
 15 28  1  0
M  ISO  8  16  14  17  14  18  14  19   5  20  13  21  13  22  13  23  13
M  ISO  5  24  13  25  13  26  13  27  13  28  13
M  END
>  <minimizedAffinity>  (1) 
-4.47071695

>  <minimizedRMSD>  (1) 
2.77114654

$$$$
