
     RDKit          3D

 16 16  0  0  0  0  0  0  0  0999 V2000
   45.3130   34.7550   43.9970 C   0  0  0  0  0  0  0  0  0  0  0  0
   46.3270   34.0780   43.3190 C   0  0  0  0  0  0  0  0  0  0  0  0
   47.1080   33.1330   44.0060 C   0  0  0  0  0  0  0  0  0  0  0  0
   46.8500   32.8990   45.3300 N   0  0  0  0  0  0  0  0  0  0  0  0
   45.8360   33.6020   45.9320 C   0  0  0  0  0  0  0  0  0  0  0  0
   45.0980   34.4970   45.2820 N   0  0  0  0  0  0  0  0  0  0  0  0
   46.6720   34.2630   41.8890 C   0  0  0  0  0  0  0  0  0  0  0  0
   45.9120   34.4940   40.9580 O   0  0  0  0  0  0  0  0  0  0  0  0
   48.0630   34.1450   41.6470 O   0  0  0  0  0  0  0  0  0  0  0  0
   48.7820   35.3800   41.4890 C   0  0  0  0  0  0  0  0  0  0  0  0
   48.0320   36.3150   42.1870 F   0  0  0  0  0  0  0  0  0  0  0  0
   50.0400   35.2440   42.0190 F   0  0  0  0  0  0  0  0  0  0  0  0
   48.8160   35.7510   40.1530 F   0  0  0  0  0  0  0  0  0  0  0  0
   44.6955   35.4977   43.4707 H   0  0  0  0  0  0  0  0  0  0  0  0
   47.9130   32.5905   43.4887 H   0  0  0  0  0  0  0  0  0  0  0  0
   45.6254   33.4173   46.9957 H   0  0  0  0  0  0  0  0  0  0  0  0
  1  6  2  0
  2  1  1  0
  2  3  2  0
  3  4  1  0
  4  5  2  0
  6  5  1  0
  7  2  1  0
  8  7  2  0
  9  7  1  0
 10  9  1  0
 10 12  1  0
 10 11  1  0
 13 10  1  0
  1 14  1  0
  3 15  1  0
  5 16  1  0
M  ISO  3  14  14  15  14  16  14
M  END
>  <minimizedAffinity>  (1) 
-4.01948738

>  <minimizedRMSD>  (1) 
4.59646606

$$$$
