
     RDKit          3D

 15 15  0  0  0  0  0  0  0  0999 V2000
   45.1570   36.0460   43.3570 C   0  0  0  0  0  0  0  0  0  0  0  0
   45.9320   34.8990   43.1450 C   0  0  0  0  0  0  0  0  0  0  0  0
   46.0560   33.9460   44.1410 C   0  0  0  0  0  0  0  0  0  0  0  0
   45.4010   34.1610   45.3280 N   0  0  0  0  0  0  0  0  0  0  0  0
   44.6560   35.2980   45.4870 C   0  0  0  0  0  0  0  0  0  0  0  0
   44.5350   36.2140   44.5310 N   0  0  0  0  0  0  0  0  0  0  0  0
   46.6540   34.6310   41.8770 C   0  0  0  0  0  0  0  0  0  0  0  0
   46.1350   34.3990   40.7740 O   0  0  0  0  0  0  0  0  0  0  0  0
   48.0540   34.6520   41.9910 O   0  0  0  0  0  0  0  0  0  0  0  0
   48.7850   35.4690   41.1180 C   0  0  0  0  0  0  0  0  0  0  0  0
   49.3410   36.4870   41.5950 O   0  0  0  0  0  0  0  0  0  0  0  0
   45.0599   36.8033   42.5651 H   0  0  0  0  0  0  0  0  0  0  0  0
   46.6625   33.0415   43.9857 H   0  0  0  0  0  0  0  0  0  0  0  0
   44.1370   35.4603   46.4432 H   0  0  0  0  0  0  0  0  0  0  0  0
   48.8685   35.2252   40.0486 H   0  0  0  0  0  0  0  0  0  0  0  0
  1  6  2  0
  2  1  1  0
  2  3  2  0
  3  4  1  0
  4  5  2  0
  6  5  1  0
  7  9  1  0
  7  2  1  0
  8  7  2  0
 10 11  2  0
 10  9  1  0
  1 12  1  0
  3 13  1  0
  5 14  1  0
 10 15  1  0
M  ISO  4  12  14  13  14  14  14  15   6
M  END
>  <minimizedAffinity>  (1) 
-3.73372078

>  <minimizedRMSD>  (1) 
4.33995104

$$$$
