
     RDKit          3D

 21 22  0  0  0  0  0  0  0  0999 V2000
   45.4340   33.1160   42.2860 C   0  0  0  0  0  0  0  0  0  0  0  0
   44.4130   33.3480   41.6160 O   0  0  0  0  0  0  0  0  0  0  0  0
   45.9500   32.0440   44.5230 C   0  0  0  0  0  0  0  0  0  0  0  0
   45.5180   33.1440   43.7530 C   0  0  0  0  0  0  0  0  0  0  0  0
   45.1450   34.3350   44.3800 C   0  0  0  0  0  0  0  0  0  0  0  0
   45.2180   34.3800   45.7600 N   0  0  0  0  0  0  0  0  0  0  0  0
   45.6360   33.3010   46.4550 C   0  0  0  0  0  0  0  0  0  0  0  0
   45.9940   32.1610   45.8580 N   0  0  0  0  0  0  0  0  0  0  0  0
   46.6420   32.7950   41.6250 O   0  0  0  0  0  0  0  0  0  0  0  0
   47.7510   33.6450   41.8130 C   0  0  0  0  0  0  0  0  0  0  0  0
   47.7270   34.9620   41.3590 C   0  0  0  0  0  0  0  0  0  0  0  0
   48.8670   35.7020   41.5960 C   0  0  0  0  0  0  0  0  0  0  0  0
   49.9520   35.2580   42.2090 N   0  0  0  0  0  0  0  0  0  0  0  0
   49.9490   33.9660   42.6420 C   0  0  0  0  0  0  0  0  0  0  0  0
   48.8620   33.1670   42.4470 N   0  0  0  0  0  0  0  0  0  0  0  0
   46.2465   31.1037   44.0353 H   0  0  0  0  0  0  0  0  0  0  0  0
   44.8059   35.2045   43.7978 H   0  0  0  0  0  0  0  0  0  0  0  0
   45.6835   33.3627   47.5522 H   0  0  0  0  0  0  0  0  0  0  0  0
   46.8527   35.3858   40.8432 H   0  0  0  0  0  0  0  0  0  0  0  0
   48.8744   36.7452   41.2472 H   0  0  0  0  0  0  0  0  0  0  0  0
   50.8345   33.5629   43.1551 H   0  0  0  0  0  0  0  0  0  0  0  0
  1  4  1  0
  2  1  2  0
  3  8  2  0
  4  5  2  0
  4  3  1  0
  5  6  1  0
  6  7  2  0
  8  7  1  0
  9 10  1  0
  9  1  1  0
 10 15  2  0
 11 12  2  0
 11 10  1  0
 12 13  1  0
 13 14  2  0
 15 14  1  0
  3 16  1  0
  5 17  1  0
  7 18  1  0
 11 19  1  0
 12 20  1  0
 14 21  1  0
M  ISO  6  16  14  17  14  18  14  19  14  20  14  21  14
M  END
>  <minimizedAffinity>  (1) 
-3.69322944

>  <minimizedRMSD>  (1) 
5.60116339

$$$$
