
     RDKit          3D

 44 47  0  0  1  0  0  0  0  0999 V2000
   47.9100   34.3550   41.2500 C   0  0  2  0  0  0  0  0  0  0  0  0
   48.5210   35.5540   41.6560 C   0  0  0  0  0  0  0  0  0  0  0  0
   49.8850   35.1940   42.2820 C   0  0  0  0  0  0  0  0  0  0  0  0
   50.0510   33.6830   42.1850 C   0  0  0  0  0  0  0  0  0  0  0  0
   48.6650   33.2400   42.0790 C   0  0  1  0  0  0  0  0  0  0  0  0
   47.9640   33.8510   39.8530 C   0  0  0  0  0  0  0  0  0  0  0  0
   48.3810   34.7200   38.8810 C   0  0  0  0  0  0  0  0  0  0  0  0
   48.4610   34.3260   37.5650 C   0  0  0  0  0  0  0  0  0  0  0  0
   48.0950   33.0160   37.3110 N   0  0  0  0  0  0  0  0  0  0  0  0
   47.6960   32.2030   38.2810 C   0  0  0  0  0  0  0  0  0  0  0  0
   47.6210   32.5950   39.5620 N   0  0  0  0  0  0  0  0  0  0  0  0
   48.0310   33.1220   43.4320 C   0  0  0  0  0  0  0  0  0  0  0  0
   46.6090   32.6480   43.3250 C   0  0  0  0  0  0  0  0  0  0  0  0
   45.7880   33.6350   44.0830 C   0  0  0  0  0  0  0  0  0  0  0  0
   44.8580   34.5130   43.6210 C   0  0  0  0  0  0  0  0  0  0  0  0
   44.3720   35.2170   44.6770 N   0  0  0  0  0  0  0  0  0  0  0  0
   44.9960   34.7730   45.7660 C   0  0  0  0  0  0  0  0  0  0  0  0
   45.8530   33.8220   45.4440 N   0  0  0  0  0  0  0  0  0  0  0  0
   46.7260   33.0770   46.3570 C   0  0  0  0  0  0  0  0  0  0  0  0
   45.8680   32.0640   47.0280 C   0  0  0  0  0  0  0  0  0  0  0  0
   45.0860   32.0750   48.1250 N   0  0  0  0  0  0  0  0  0  0  0  0
   44.5310   30.9140   48.2950 O   0  0  0  0  0  0  0  0  0  0  0  0
   44.9060   30.0820   47.3380 C   0  0  0  0  0  0  0  0  0  0  0  0
   45.7380   30.8010   46.5510 N   0  0  0  0  0  0  0  0  0  0  0  0
   46.8409   34.5706   41.3931 H   0  0  0  0  0  0  0  0  0  0  0  0
   48.6690   36.2124   40.7873 H   0  0  0  0  0  0  0  0  0  0  0  0
   47.8888   36.0822   42.3849 H   0  0  0  0  0  0  0  0  0  0  0  0
   50.6945   35.6965   41.7322 H   0  0  0  0  0  0  0  0  0  0  0  0
   49.9271   35.5210   43.3314 H   0  0  0  0  0  0  0  0  0  0  0  0
   50.6318   33.3996   41.2949 H   0  0  0  0  0  0  0  0  0  0  0  0
   50.5988   33.2386   43.0291 H   0  0  0  0  0  0  0  0  0  0  0  0
   48.6123   32.2514   41.5995 H   0  0  0  0  0  0  0  0  0  0  0  0
   48.6563   35.7488   39.1561 H   0  0  0  0  0  0  0  0  0  0  0  0
   48.7938   35.0072   36.7679 H   0  0  0  0  0  0  0  0  0  0  0  0
   47.4166   31.1702   38.0255 H   0  0  0  0  0  0  0  0  0  0  0  0
   48.6045   32.4033   44.0358 H   0  0  0  0  0  0  0  0  0  0  0  0
   48.0331   34.1146   43.9060 H   0  0  0  0  0  0  0  0  0  0  0  0
   46.2944   32.6183   42.2714 H   0  0  0  0  0  0  0  0  0  0  0  0
   46.4918   31.6318   43.7294 H   0  0  0  0  0  0  0  0  0  0  0  0
   44.5514   34.6330   42.5714 H   0  0  0  0  0  0  0  0  0  0  0  0
   44.8225   35.1449   46.7866 H   0  0  0  0  0  0  0  0  0  0  0  0
   47.5303   32.5810   45.7939 H   0  0  0  0  0  0  0  0  0  0  0  0
   47.1992   33.7465   47.0904 H   0  0  0  0  0  0  0  0  0  0  0  0
   44.6059   29.0315   47.2098 H   0  0  0  0  0  0  0  0  0  0  0  0
  1  2  1  0
  1  5  1  0
  2  3  1  0
  4  3  1  0
  5  4  1  0
  5 12  1  0
  6  1  1  0
  7  6  2  0
  8  7  1  0
  9  8  2  0
  9 10  1  0
 10 11  2  0
 11  6  1  0
 13 12  1  0
 13 14  1  0
 14 18  1  0
 15 14  2  0
 15 16  1  0
 16 17  2  0
 18 17  1  0
 18 19  1  0
 19 20  1  0
 20 21  2  0
 21 22  1  0
 23 22  1  0
 24 20  1  0
 24 23  2  0
  1 25  1  1
  2 26  1  0
  2 27  1  0
  3 28  1  0
  3 29  1  0
  4 30  1  0
  4 31  1  0
  5 32  1  6
  7 33  1  0
  8 34  1  0
 10 35  1  0
 12 36  1  0
 12 37  1  0
 13 38  1  0
 13 39  1  0
 15 40  1  0
 17 41  1  0
 19 42  1  0
 19 43  1  0
 23 44  1  0
M  ISO  8  25  13  26  13  27  13  28  13  29  13  30  13  31  13  32  13
M  ISO  8  33  14  34  14  35  14  36   8  37   8  38   8  39   8  40  14
M  ISO  4  41  14  42   8  43   8  44  14
M  END
>  <minimizedAffinity>  (1) 
-5.53120279

>  <minimizedRMSD>  (1) 
1.02507865

$$$$
