
     RDKit          3D

 22 22  0  0  0  0  0  0  0  0999 V2000
   47.2940   33.8340   43.5730 C   0  0  0  0  0  0  0  0  0  0  0  0
   46.0410   34.1780   44.1220 C   0  0  0  0  0  0  0  0  0  0  0  0
   45.0310   34.6520   43.2980 C   0  0  0  0  0  0  0  0  0  0  0  0
   45.2620   34.7820   41.9620 N   0  0  0  0  0  0  0  0  0  0  0  0
   46.4940   34.4370   41.4700 C   0  0  0  0  0  0  0  0  0  0  0  0
   47.4740   33.9800   42.2490 N   0  0  0  0  0  0  0  0  0  0  0  0
   45.7300   34.0640   45.5610 C   0  0  0  0  0  0  0  0  0  0  0  0
   44.7230   34.5410   46.1160 O   0  0  0  0  0  0  0  0  0  0  0  0
   46.6650   33.3580   46.3140 O   0  0  0  0  0  0  0  0  0  0  0  0
   46.3530   32.1090   46.8830 C   0  0  0  0  0  0  0  0  0  0  0  0
   45.8280   31.1170   45.8680 C   0  0  0  0  0  0  0  0  0  0  0  0
   45.3310   32.2020   47.9870 C   0  0  0  0  0  0  0  0  0  0  0  0
   48.1045   33.4553   44.2131 H   0  0  0  0  0  0  0  0  0  0  0  0
   44.0514   34.9207   43.7200 H   0  0  0  0  0  0  0  0  0  0  0  0
   46.6809   34.5413   40.3910 H   0  0  0  0  0  0  0  0  0  0  0  0
   47.3121   31.7585   47.2920 H   0  0  0  0  0  0  0  0  0  0  0  0
   45.3754   30.2618   46.3913 H   0  0  0  0  0  0  0  0  0  0  0  0
   45.0697   31.6042   45.2375 H   0  0  0  0  0  0  0  0  0  0  0  0
   46.6573   30.7639   45.2375 H   0  0  0  0  0  0  0  0  0  0  0  0
   45.8389   32.1558   48.9616 H   0  0  0  0  0  0  0  0  0  0  0  0
   44.7855   33.1535   47.9025 H   0  0  0  0  0  0  0  0  0  0  0  0
   44.6228   31.3646   47.9025 H   0  0  0  0  0  0  0  0  0  0  0  0
  1  2  2  0
  2  7  1  0
  3  2  1  0
  4  3  2  0
  5  4  1  0
  5  6  2  0
  6  1  1  0
  7  8  2  0
  7  9  1  0
  9 10  1  0
 10 12  1  0
 11 10  1  0
  1 13  1  0
  3 14  1  0
  5 15  1  0
 10 16  1  0
 11 17  1  0
 11 18  1  0
 11 19  1  0
 12 20  1  0
 12 21  1  0
 12 22  1  0
M  ISO  8  13  14  14  14  15  14  16   8  17   8  18   8  19   8  20   8
M  ISO  2  21   8  22   8
M  END
>  <minimizedAffinity>  (1) 
-3.22557712

>  <minimizedRMSD>  (1) 
4.79632759

$$$$
