
     RDKit          3D

 23 24  0  0  0  0  0  0  0  0999 V2000
   46.5440   31.9520   40.8990 C   0  0  0  0  0  0  0  0  0  0  0  0
   45.4730   32.0690   41.4850 O   0  0  0  0  0  0  0  0  0  0  0  0
   46.2260   32.3760   38.4060 C   0  0  0  0  0  0  0  0  0  0  0  0
   46.7620   31.6510   39.4670 C   0  0  0  0  0  0  0  0  0  0  0  0
   47.5810   30.5390   39.2100 C   0  0  0  0  0  0  0  0  0  0  0  0
   47.8280   30.1980   37.9110 N   0  0  0  0  0  0  0  0  0  0  0  0
   47.2760   30.9450   36.9070 C   0  0  0  0  0  0  0  0  0  0  0  0
   46.5010   31.9980   37.1520 N   0  0  0  0  0  0  0  0  0  0  0  0
   47.7430   32.1130   41.6310 O   0  0  0  0  0  0  0  0  0  0  0  0
   48.2870   33.4000   41.6620 C   0  0  0  0  0  0  0  0  0  0  0  0
   49.3600   33.4590   42.5600 C   0  0  0  0  0  0  0  0  0  0  0  0
   50.0440   34.6640   42.7390 C   0  0  0  0  0  0  0  0  0  0  0  0
   49.6160   35.7580   42.0050 C   0  0  0  0  0  0  0  0  0  0  0  0
   48.5600   35.7030   41.1210 C   0  0  0  0  0  0  0  0  0  0  0  0
   47.8830   34.5070   40.9440 C   0  0  0  0  0  0  0  0  0  0  0  0
   45.5843   33.2489   38.5962 H   0  0  0  0  0  0  0  0  0  0  0  0
   48.0136   29.9561   40.0365 H   0  0  0  0  0  0  0  0  0  0  0  0
   47.4796   30.6658   35.8627 H   0  0  0  0  0  0  0  0  0  0  0  0
   49.6623   32.5623   43.1208 H   0  0  0  0  0  0  0  0  0  0  0  0
   50.8908   34.7411   43.4368 H   0  0  0  0  0  0  0  0  0  0  0  0
   50.1432   36.7148   42.1336 H   0  0  0  0  0  0  0  0  0  0  0  0
   48.2574   36.6002   40.5612 H   0  0  0  0  0  0  0  0  0  0  0  0
   47.0378   34.4411   40.2430 H   0  0  0  0  0  0  0  0  0  0  0  0
  1  2  2  0
  1  9  1  0
  3  4  2  0
  4  1  1  0
  5  4  1  0
  6  5  2  0
  7  8  2  0
  7  6  1  0
  8  3  1  0
  9 10  1  0
 10 11  2  0
 11 12  1  0
 13 12  2  0
 14 13  1  0
 15 14  2  0
 15 10  1  0
  3 16  1  0
  5 17  1  0
  7 18  1  0
 11 19  1  0
 12 20  1  0
 13 21  1  0
 14 22  1  0
 15 23  1  0
M  ISO  8  16  14  17  14  18  14  19  14  20  14  21  14  22  14  23  14
M  END
>  <minimizedAffinity>  (1) 
-3.10403347

>  <minimizedRMSD>  (1) 
7.46129179

$$$$
