
     RDKit          3D

 19 19  0  0  0  0  0  0  0  0999 V2000
   48.3430   32.8360   41.8740 C   0  0  0  0  0  0  0  0  0  0  0  0
   47.9600   34.1830   41.9740 C   0  0  0  0  0  0  0  0  0  0  0  0
   48.9180   35.1680   42.2700 C   0  0  0  0  0  0  0  0  0  0  0  0
   50.2160   34.7510   42.4520 N   0  0  0  0  0  0  0  0  0  0  0  0
   50.5300   33.4230   42.3410 C   0  0  0  0  0  0  0  0  0  0  0  0
   49.6130   32.5010   42.0600 N   0  0  0  0  0  0  0  0  0  0  0  0
   46.5740   34.6750   41.7820 C   0  0  0  0  0  0  0  0  0  0  0  0
   45.7990   34.3530   40.8650 O   0  0  0  0  0  0  0  0  0  0  0  0
   46.1680   35.5820   42.7630 O   0  0  0  0  0  0  0  0  0  0  0  0
   44.8050   35.8530   43.0220 C   0  0  0  0  0  0  0  0  0  0  0  0
   44.5910   35.7790   44.5100 C   0  0  0  0  0  0  0  0  0  0  0  0
   47.5948   32.0634   41.6429 H   0  0  0  0  0  0  0  0  0  0  0  0
   48.6409   36.2293   42.3527 H   0  0  0  0  0  0  0  0  0  0  0  0
   51.5736   33.1084   42.4889 H   0  0  0  0  0  0  0  0  0  0  0  0
   44.5485   36.8586   42.6575 H   0  0  0  0  0  0  0  0  0  0  0  0
   44.1652   35.1213   42.5069 H   0  0  0  0  0  0  0  0  0  0  0  0
   45.5079   36.0960   45.0285 H   0  0  0  0  0  0  0  0  0  0  0  0
   43.7609   36.4423   44.7945 H   0  0  0  0  0  0  0  0  0  0  0  0
   44.3479   34.7446   44.7945 H   0  0  0  0  0  0  0  0  0  0  0  0
  1  2  2  0
  1  6  1  0
  2  3  1  0
  3  4  2  0
  5  4  1  0
  6  5  2  0
  7  2  1  0
  7  9  1  0
  8  7  2  0
  9 10  1  0
 10 11  1  0
  1 12  1  0
  3 13  1  0
  5 14  1  0
 10 15  1  0
 10 16  1  0
 11 17  1  0
 11 18  1  0
 11 19  1  0
M  ISO  8  12  14  13  14  14  14  15   8  16   8  17   8  18   8  19   8
M  END
>  <minimizedAffinity>  (1) 
-3.24787259

>  <minimizedRMSD>  (1) 
3.9448328

$$$$
