
     RDKit          3D

 24 25  0  0  0  0  0  0  0  0999 V2000
   48.0120   34.7030   41.4720 O   0  0  0  0  0  0  0  0  0  0  0  0
   47.5640   34.7190   42.8020 C   0  0  0  0  0  0  0  0  0  0  0  0
   47.7250   33.3320   43.3820 C   0  0  0  0  0  0  0  0  0  0  0  0
   46.8760   33.3150   44.6280 C   0  0  0  0  0  0  0  0  0  0  0  0
   45.8360   34.1690   44.8160 N   0  0  0  0  0  0  0  0  0  0  0  0
   45.2820   33.9300   45.9810 O   0  0  0  0  0  0  0  0  0  0  0  0
   45.9690   32.9320   46.5220 C   0  0  0  0  0  0  0  0  0  0  0  0
   46.9630   32.5240   45.7150 N   0  0  0  0  0  0  0  0  0  0  0  0
   47.2540   34.2250   40.4170 C   0  0  0  0  0  0  0  0  0  0  0  0
   46.0070   34.2730   40.4770 O   0  0  0  0  0  0  0  0  0  0  0  0
   48.1370   34.2740   38.0320 C   0  0  0  0  0  0  0  0  0  0  0  0
   48.0460   33.6900   39.2950 C   0  0  0  0  0  0  0  0  0  0  0  0
   48.7510   32.4950   39.5590 C   0  0  0  0  0  0  0  0  0  0  0  0
   49.4960   31.9700   38.5400 N   0  0  0  0  0  0  0  0  0  0  0  0
   49.5450   32.5980   37.3140 C   0  0  0  0  0  0  0  0  0  0  0  0
   48.8760   33.7210   37.0810 N   0  0  0  0  0  0  0  0  0  0  0  0
   48.1603   35.4361   43.3853 H   0  0  0  0  0  0  0  0  0  0  0  0
   46.5070   35.0214   42.8389 H   0  0  0  0  0  0  0  0  0  0  0  0
   47.3738   32.5733   42.6672 H   0  0  0  0  0  0  0  0  0  0  0  0
   48.7778   33.1017   43.6025 H   0  0  0  0  0  0  0  0  0  0  0  0
   45.7521   32.4937   47.5073 H   0  0  0  0  0  0  0  0  0  0  0  0
   47.5890   35.2045   37.8226 H   0  0  0  0  0  0  0  0  0  0  0  0
   48.7027   32.0070   40.5436 H   0  0  0  0  0  0  0  0  0  0  0  0
   50.1528   32.1584   36.5095 H   0  0  0  0  0  0  0  0  0  0  0  0
  1  2  1  0
  2  3  1  0
  3  4  1  0
  4  5  2  0
  4  8  1  0
  5  6  1  0
  6  7  1  0
  8  7  2  0
  9 10  2  0
  9  1  1  0
 11 12  2  0
 12 13  1  0
 12  9  1  0
 14 13  2  0
 15 14  1  0
 16 15  2  0
 16 11  1  0
  2 17  1  0
  2 18  1  0
  3 19  1  0
  3 20  1  0
  7 21  1  0
 11 22  1  0
 13 23  1  0
 15 24  1  0
M  ISO  8  17   8  18   8  19   8  20   8  21  14  22  14  23  14  24  14
M  END
>  <minimizedAffinity>  (1) 
-3.66441107

>  <minimizedRMSD>  (1) 
4.24480152

$$$$
