
     RDKit          3D

 32 33  0  0  0  0  0  0  0  0999 V2000
   48.4510   33.6980   39.6030 O   0  0  0  0  0  0  0  0  0  0  0  0
   48.2180   34.7220   40.5590 C   0  0  0  0  0  0  0  0  0  0  0  0
   46.8380   34.4970   41.1320 C   0  0  0  0  0  0  0  0  0  0  0  0
   46.7690   33.4600   42.1250 N   0  0  0  0  0  0  0  0  0  0  0  0
   47.2260   34.0490   43.3620 C   0  0  0  0  0  0  0  0  0  0  0  0
   46.8280   33.3170   44.5820 C   0  0  0  0  0  0  0  0  0  0  0  0
   46.2530   32.0620   44.2900 O   0  0  0  0  0  0  0  0  0  0  0  0
   45.1150   32.3730   43.5600 C   0  0  0  0  0  0  0  0  0  0  0  0
   45.5280   32.7770   42.1770 C   0  0  0  0  0  0  0  0  0  0  0  0
   48.1240   33.8740   38.2500 C   0  0  0  0  0  0  0  0  0  0  0  0
   48.6330   34.7960   37.5960 O   0  0  0  0  0  0  0  0  0  0  0  0
   45.8310   33.1630   37.3900 C   0  0  0  0  0  0  0  0  0  0  0  0
   47.1510   32.8680   37.7530 C   0  0  0  0  0  0  0  0  0  0  0  0
   47.6320   31.5530   37.6610 C   0  0  0  0  0  0  0  0  0  0  0  0
   46.7490   30.5920   37.2020 N   0  0  0  0  0  0  0  0  0  0  0  0
   45.4790   30.9470   36.8650 C   0  0  0  0  0  0  0  0  0  0  0  0
   45.0340   32.1890   36.9550 N   0  0  0  0  0  0  0  0  0  0  0  0
   48.9710   34.6683   41.3591 H   0  0  0  0  0  0  0  0  0  0  0  0
   48.2878   35.7149   40.0907 H   0  0  0  0  0  0  0  0  0  0  0  0
   46.4991   35.4369   41.5921 H   0  0  0  0  0  0  0  0  0  0  0  0
   46.1999   34.1741   40.2962 H   0  0  0  0  0  0  0  0  0  0  0  0
   48.3247   34.0947   43.3337 H   0  0  0  0  0  0  0  0  0  0  0  0
   46.7514   35.0392   43.4269 H   0  0  0  0  0  0  0  0  0  0  0  0
   47.7193   33.1608   45.2074 H   0  0  0  0  0  0  0  0  0  0  0  0
   46.0712   33.9204   45.1046 H   0  0  0  0  0  0  0  0  0  0  0  0
   44.4566   31.4933   43.5078 H   0  0  0  0  0  0  0  0  0  0  0  0
   44.5716   33.1972   44.0452 H   0  0  0  0  0  0  0  0  0  0  0  0
   44.7517   33.4370   41.7626 H   0  0  0  0  0  0  0  0  0  0  0  0
   45.6486   31.8506   41.5962 H   0  0  0  0  0  0  0  0  0  0  0  0
   45.4545   34.1939   37.4638 H   0  0  0  0  0  0  0  0  0  0  0  0
   48.6646   31.2978   37.9412 H   0  0  0  0  0  0  0  0  0  0  0  0
   44.7932   30.1672   36.5022 H   0  0  0  0  0  0  0  0  0  0  0  0
  1  2  1  0
  2  3  1  0
  3  4  1  0
  4  9  1  0
  4  5  1  0
  5  6  1  0
  7  6  1  0
  8  7  1  0
  9  8  1  0
 10  1  1  0
 11 10  2  0
 12 13  2  0
 13 10  1  0
 14 13  1  0
 15 14  2  0
 16 17  2  0
 16 15  1  0
 17 12  1  0
  2 18  1  0
  2 19  1  0
  3 20  1  0
  3 21  1  0
  5 22  1  0
  5 23  1  0
  6 24  1  0
  6 25  1  0
  8 26  1  0
  8 27  1  0
  9 28  1  0
  9 29  1  0
 12 30  1  0
 14 31  1  0
 16 32  1  0
M  ISO  8  18   8  19   8  20   8  21   8  22  13  23  13  24  13  25  13
M  ISO  7  26  13  27  13  28  13  29  13  30  14  31  14  32  14
M  END
>  <minimizedAffinity>  (1) 
-3.05216026

>  <minimizedRMSD>  (1) 
5.62159586

$$$$
