
     RDKit          3D

 45 48  0  0  1  0  0  0  0  0999 V2000
   45.1390   34.4120   43.3270 C   0  0  2  0  0  0  0  0  0  0  0  0
   46.2040   35.2720   43.0060 C   0  0  0  0  0  0  0  0  0  0  0  0
   47.5020   34.4200   43.0180 C   0  0  0  0  0  0  0  0  0  0  0  0
   47.1090   32.9900   43.3330 C   0  0  0  0  0  0  0  0  0  0  0  0
   45.8320   33.1750   44.0110 C   0  0  1  0  0  0  0  0  0  0  0  0
   44.2630   33.7940   42.2900 C   0  0  0  0  0  0  0  0  0  0  0  0
   43.9480   34.5570   41.1930 C   0  0  0  0  0  0  0  0  0  0  0  0
   43.1460   34.0500   40.1960 C   0  0  0  0  0  0  0  0  0  0  0  0
   42.7010   32.7550   40.3860 N   0  0  0  0  0  0  0  0  0  0  0  0
   43.0290   32.0420   41.4680 C   0  0  0  0  0  0  0  0  0  0  0  0
   43.8090   32.5400   42.4370 N   0  0  0  0  0  0  0  0  0  0  0  0
   46.0320   33.4490   45.4710 C   0  0  0  0  0  0  0  0  0  0  0  0
   47.0150   32.5110   46.0840 C   0  0  0  0  0  0  0  0  0  0  0  0
   46.4320   32.0410   47.3720 C   0  0  0  0  0  0  0  0  0  0  0  0
   45.2440   32.3710   47.9480 C   0  0  0  0  0  0  0  0  0  0  0  0
   45.1260   31.6940   49.1100 N   0  0  0  0  0  0  0  0  0  0  0  0
   46.2310   30.9530   49.2500 C   0  0  0  0  0  0  0  0  0  0  0  0
   47.0360   31.1460   48.2130 N   0  0  0  0  0  0  0  0  0  0  0  0
   48.3260   30.5370   48.0080 C   0  0  0  0  0  0  0  0  0  0  0  0
   49.2190   30.5970   49.1850 C   0  0  0  0  0  0  0  0  0  0  0  0
   49.7810   31.9090   49.4860 C   0  0  0  0  0  0  0  0  0  0  0  0
   50.8040   31.5740   50.9970 S   0  0  0  0  0  0  0  0  0  0  0  0
   50.3180   29.7780   50.9710 C   0  0  0  0  0  0  0  0  0  0  0  0
   49.5670   29.6080   50.0080 N   0  0  0  0  0  0  0  0  0  0  0  0
   44.4530   35.0733   43.8766 H   0  0  0  0  0  0  0  0  0  0  0  0
   46.2753   36.0779   43.7512 H   0  0  0  0  0  0  0  0  0  0  0  0
   46.0492   35.7338   42.0197 H   0  0  0  0  0  0  0  0  0  0  0  0
   47.9903   34.4666   42.0334 H   0  0  0  0  0  0  0  0  0  0  0  0
   48.2075   34.8015   43.7709 H   0  0  0  0  0  0  0  0  0  0  0  0
   46.9928   32.3950   42.4152 H   0  0  0  0  0  0  0  0  0  0  0  0
   47.8550   32.4436   43.9288 H   0  0  0  0  0  0  0  0  0  0  0  0
   45.2173   32.2663   43.9307 H   0  0  0  0  0  0  0  0  0  0  0  0
   44.3397   35.5816   41.1102 H   0  0  0  0  0  0  0  0  0  0  0  0
   42.8766   34.6372   39.3057 H   0  0  0  0  0  0  0  0  0  0  0  0
   42.6469   31.0151   41.5659 H   0  0  0  0  0  0  0  0  0  0  0  0
   46.3998   34.4786   45.5923 H   0  0  0  0  0  0  0  0  0  0  0  0
   45.0663   33.3099   45.9789 H   0  0  0  0  0  0  0  0  0  0  0  0
   47.1879   31.6557   45.4143 H   0  0  0  0  0  0  0  0  0  0  0  0
   47.9799   33.0117   46.2520 H   0  0  0  0  0  0  0  0  0  0  0  0
   44.5036   33.0722   47.5356 H   0  0  0  0  0  0  0  0  0  0  0  0
   46.4408   30.2841   50.0976 H   0  0  0  0  0  0  0  0  0  0  0  0
   48.1707   29.4799   47.7465 H   0  0  0  0  0  0  0  0  0  0  0  0
   48.8204   31.1063   47.2070 H   0  0  0  0  0  0  0  0  0  0  0  0
   49.6349   32.8590   48.9511 H   0  0  0  0  0  0  0  0  0  0  0  0
   50.6421   29.0072   51.6857 H   0  0  0  0  0  0  0  0  0  0  0  0
  1  5  1  0
  2  3  1  0
  2  1  1  0
  3  4  1  0
  4  5  1  0
  5 12  1  0
  6 11  1  0
  6  1  1  0
  7  6  2  0
  8  9  2  0
  8  7  1  0
  9 10  1  0
 10 11  2  0
 12 13  1  0
 13 14  1  0
 14 15  2  0
 14 18  1  0
 15 16  1  0
 16 17  2  0
 18 17  1  0
 19 18  1  0
 19 20  1  0
 20 21  2  0
 20 24  1  0
 21 22  1  0
 23 22  1  0
 24 23  2  0
  1 25  1  1
  2 26  1  0
  2 27  1  0
  3 28  1  0
  3 29  1  0
  4 30  1  0
  4 31  1  0
  5 32  1  1
  7 33  1  0
  8 34  1  0
 10 35  1  0
 12 36  1  0
 12 37  1  0
 13 38  1  0
 13 39  1  0
 15 40  1  0
 17 41  1  0
 19 42  1  0
 19 43  1  0
 21 44  1  0
 23 45  1  0
M  ISO  8  25  13  26  13  27  13  28  13  29  13  30  13  31  13  32  13
M  ISO  8  33  14  34  14  35  14  36   8  37   8  38   8  39   8  40  14
M  ISO  5  41  14  42   8  43   8  44  14  45  14
M  END
>  <minimizedAffinity>  (1) 
-5.2045064

>  <minimizedRMSD>  (1) 
4.53994274

$$$$
