
     RDKit          3D

 43 46  0  0  0  0  0  0  0  0999 V2000
   48.0840   33.5870   39.3870 O   0  0  0  0  0  0  0  0  0  0  0  0
   47.9680   34.5260   40.4470 C   0  0  0  0  0  0  0  0  0  0  0  0
   46.5660   34.4350   41.0000 C   0  0  0  0  0  0  0  0  0  0  0  0
   46.4900   34.4390   42.4300 N   0  0  0  0  0  0  0  0  0  0  0  0
   45.4910   35.4300   42.7880 C   0  0  0  0  0  0  0  0  0  0  0  0
   44.9450   35.2880   44.1530 C   0  0  0  0  0  0  0  0  0  0  0  0
   45.6640   34.3560   44.9240 O   0  0  0  0  0  0  0  0  0  0  0  0
   45.5170   33.1550   44.2650 C   0  0  0  0  0  0  0  0  0  0  0  0
   46.3600   33.1630   43.0150 C   0  0  0  0  0  0  0  0  0  0  0  0
   48.0340   33.9910   38.0360 C   0  0  0  0  0  0  0  0  0  0  0  0
   48.6770   34.9790   37.6600 O   0  0  0  0  0  0  0  0  0  0  0  0
   45.9010   32.6610   37.6040 C   0  0  0  0  0  0  0  0  0  0  0  0
   47.1690   33.1240   37.2050 C   0  0  0  0  0  0  0  0  0  0  0  0
   47.6650   32.7600   35.9530 C   0  0  0  0  0  0  0  0  0  0  0  0
   46.8770   31.9540   35.1620 N   0  0  0  0  0  0  0  0  0  0  0  0
   45.6610   31.5430   35.6110 C   0  0  0  0  0  0  0  0  0  0  0  0
   45.1970   31.8890   36.7940 N   0  0  0  0  0  0  0  0  0  0  0  0
   44.9500   30.7160   34.6980 N   0  0  0  0  0  0  0  0  0  0  0  0
   43.5930   30.6420   34.8220 C   0  0  0  0  0  0  0  0  0  0  0  0
   43.1160   29.8050   33.8600 N   0  0  0  0  0  0  0  0  0  0  0  0
   44.1480   29.3470   33.1260 C   0  0  0  0  0  0  0  0  0  0  0  0
   44.3670   28.5090   32.0520 C   0  0  0  0  0  0  0  0  0  0  0  0
   45.6200   28.2840   31.5740 N   0  0  0  0  0  0  0  0  0  0  0  0
   46.6910   28.8800   32.1440 C   0  0  0  0  0  0  0  0  0  0  0  0
   46.5340   29.7180   33.2100 N   0  0  0  0  0  0  0  0  0  0  0  0
   45.2710   29.9310   33.6740 C   0  0  0  0  0  0  0  0  0  0  0  0
   48.6967   34.2896   41.2364 H   0  0  0  0  0  0  0  0  0  0  0  0
   48.1685   35.5433   40.0798 H   0  0  0  0  0  0  0  0  0  0  0  0
   45.9916   35.2941   40.6231 H   0  0  0  0  0  0  0  0  0  0  0  0
   46.1611   33.4676   40.6680 H   0  0  0  0  0  0  0  0  0  0  0  0
   45.9504   36.4260   42.7042 H   0  0  0  0  0  0  0  0  0  0  0  0
   44.6467   35.2846   42.0981 H   0  0  0  0  0  0  0  0  0  0  0  0
   44.9858   36.2668   44.6534 H   0  0  0  0  0  0  0  0  0  0  0  0
   43.9110   34.9234   44.0644 H   0  0  0  0  0  0  0  0  0  0  0  0
   45.8417   32.3341   44.9213 H   0  0  0  0  0  0  0  0  0  0  0  0
   44.4605   33.0112   43.9946 H   0  0  0  0  0  0  0  0  0  0  0  0
   45.8974   32.4887   42.2793 H   0  0  0  0  0  0  0  0  0  0  0  0
   47.3697   32.8367   43.3048 H   0  0  0  0  0  0  0  0  0  0  0  0
   45.4966   32.9410   38.5879 H   0  0  0  0  0  0  0  0  0  0  0  0
   48.6514   33.1049   35.6095 H   0  0  0  0  0  0  0  0  0  0  0  0
   42.9866   31.1698   35.5728 H   0  0  0  0  0  0  0  0  0  0  0  0
   43.5104   28.0127   31.5725 H   0  0  0  0  0  0  0  0  0  0  0  0
   47.6980   28.6880   31.7453 H   0  0  0  0  0  0  0  0  0  0  0  0
  1  2  1  0
  2  3  1  0
  3  4  1  0
  4  5  1  0
  4  9  1  0
  5  6  1  0
  6  7  1  0
  8  7  1  0
  9  8  1  0
 10  1  1  0
 11 10  2  0
 13 12  2  0
 13 10  1  0
 14 13  1  0
 15 16  1  0
 15 14  2  0
 16 17  2  0
 17 12  1  0
 18 19  1  0
 18 16  1  0
 20 19  2  0
 21 26  2  0
 21 20  1  0
 22 21  1  0
 23 22  2  0
 23 24  1  0
 24 25  2  0
 25 26  1  0
 26 18  1  0
  2 27  1  0
  2 28  1  0
  3 29  1  0
  3 30  1  0
  5 31  1  0
  5 32  1  0
  6 33  1  0
  6 34  1  0
  8 35  1  0
  8 36  1  0
  9 37  1  0
  9 38  1  0
 12 39  1  0
 14 40  1  0
 19 41  1  0
 22 42  1  0
 24 43  1  0
M  ISO  8  27   8  28   8  29   8  30   8  31  13  32  13  33  13  34  13
M  ISO  8  35  13  36  13  37  13  38  13  39  14  40  14  41  14  42  14
M  ISO  1  43  14
M  END
>  <minimizedAffinity>  (1) 
-4.97261953

>  <minimizedRMSD>  (1) 
2.56830359

$$$$
