
     RDKit          3D

 42 44  0  0  0  0  0  0  0  0999 V2000
   48.0170   33.6000   39.2950 O   0  0  0  0  0  0  0  0  0  0  0  0
   47.9340   34.5050   40.3710 C   0  0  0  0  0  0  0  0  0  0  0  0
   46.5450   34.3840   40.9540 C   0  0  0  0  0  0  0  0  0  0  0  0
   46.4940   34.4020   42.3860 N   0  0  0  0  0  0  0  0  0  0  0  0
   45.5270   35.3980   42.7690 C   0  0  0  0  0  0  0  0  0  0  0  0
   44.9650   35.2550   44.1190 C   0  0  0  0  0  0  0  0  0  0  0  0
   45.7070   34.3250   44.8950 O   0  0  0  0  0  0  0  0  0  0  0  0
   45.5350   33.1240   44.2400 C   0  0  0  0  0  0  0  0  0  0  0  0
   46.3600   33.1270   42.9790 C   0  0  0  0  0  0  0  0  0  0  0  0
   48.0280   34.0050   37.9600 C   0  0  0  0  0  0  0  0  0  0  0  0
   48.6720   35.0010   37.6260 O   0  0  0  0  0  0  0  0  0  0  0  0
   45.8150   33.0290   37.1540 C   0  0  0  0  0  0  0  0  0  0  0  0
   47.2140   33.1260   37.0760 C   0  0  0  0  0  0  0  0  0  0  0  0
   47.9310   32.3740   36.1340 C   0  0  0  0  0  0  0  0  0  0  0  0
   47.1970   31.5530   35.3060 N   0  0  0  0  0  0  0  0  0  0  0  0
   45.8380   31.5070   35.4350 C   0  0  0  0  0  0  0  0  0  0  0  0
   45.1660   32.2130   36.3200 N   0  0  0  0  0  0  0  0  0  0  0  0
   45.2250   30.6170   34.5120 N   0  0  0  0  0  0  0  0  0  0  0  0
   43.9480   30.2100   34.5280 C   0  0  0  0  0  0  0  0  0  0  0  0
   43.5200   29.3390   33.5500 C   0  0  0  0  0  0  0  0  0  0  0  0
   44.4310   28.9270   32.5990 C   0  0  0  0  0  0  0  0  0  0  0  0
   44.0440   28.1280   31.7020 O   0  0  0  0  0  0  0  0  0  0  0  0
   45.7230   29.3330   32.5760 N   0  0  0  0  0  0  0  0  0  0  0  0
   46.0870   30.1930   33.5680 C   0  0  0  0  0  0  0  0  0  0  0  0
   47.3120   30.5350   33.4890 O   0  0  0  0  0  0  0  0  0  0  0  0
   48.6856   34.2530   41.1336 H   0  0  0  0  0  0  0  0  0  0  0  0
   48.1252   35.5334   40.0305 H   0  0  0  0  0  0  0  0  0  0  0  0
   45.9414   35.2236   40.5789 H   0  0  0  0  0  0  0  0  0  0  0  0
   46.1608   33.4018   40.6413 H   0  0  0  0  0  0  0  0  0  0  0  0
   46.0138   36.3825   42.7082 H   0  0  0  0  0  0  0  0  0  0  0  0
   44.6804   35.2752   42.0774 H   0  0  0  0  0  0  0  0  0  0  0  0
   44.9839   36.2342   44.6198 H   0  0  0  0  0  0  0  0  0  0  0  0
   43.9340   34.8829   44.0264 H   0  0  0  0  0  0  0  0  0  0  0  0
   45.8607   32.2994   44.8912 H   0  0  0  0  0  0  0  0  0  0  0  0
   44.4730   32.9886   43.9875 H   0  0  0  0  0  0  0  0  0  0  0  0
   45.8823   32.4548   42.2510 H   0  0  0  0  0  0  0  0  0  0  0  0
   47.3714   32.7967   43.2582 H   0  0  0  0  0  0  0  0  0  0  0  0
   45.2586   33.6204   37.8961 H   0  0  0  0  0  0  0  0  0  0  0  0
   49.0267   32.4366   36.0598 H   0  0  0  0  0  0  0  0  0  0  0  0
   43.2558   30.5642   35.3061 H   0  0  0  0  0  0  0  0  0  0  0  0
   42.4799   28.9816   33.5279 H   0  0  0  0  0  0  0  0  0  0  0  0
   46.3864   29.0127   31.8561 H   0  0  0  0  0  0  0  0  0  0  0  0
  1  2  1  0
  2  3  1  0
  3  4  1  0
  4  5  1  0
  4  9  1  0
  5  6  1  0
  6  7  1  0
  8  7  1  0
  9  8  1  0
 10  1  1  0
 11 10  2  0
 13 12  2  0
 13 10  1  0
 14 13  1  0
 15 16  1  0
 15 14  2  0
 16 17  2  0
 17 12  1  0
 18 19  1  0
 18 16  1  0
 20 19  2  0
 21 20  1  0
 22 21  2  0
 23 21  1  0
 23 24  1  0
 24 18  1  0
 25 24  2  0
  2 26  1  0
  2 27  1  0
  3 28  1  0
  3 29  1  0
  5 30  1  0
  5 31  1  0
  6 32  1  0
  6 33  1  0
  8 34  1  0
  8 35  1  0
  9 36  1  0
  9 37  1  0
 12 38  1  0
 14 39  1  0
 19 40  1  0
 20 41  1  0
 23 42  1  0
M  ISO  8  26   8  27   8  28   8  29   8  30  13  31  13  32  13  33  13
M  ISO  8  34  13  35  13  36  13  37  13  38  14  39  14  40  14  41  14
M  ISO  1  42   9
M  END
>  <minimizedAffinity>  (1) 
-4.90115976

>  <minimizedRMSD>  (1) 
2.09767938

$$$$
