
     RDKit          3D

 40 42  0  0  0  0  0  0  0  0999 V2000
   47.5940   34.2490   40.1360 C   0  0  0  0  0  0  0  0  0  0  0  0
   46.2220   34.2270   40.7650 C   0  0  0  0  0  0  0  0  0  0  0  0
   46.2340   34.4170   42.1900 N   0  0  0  0  0  0  0  0  0  0  0  0
   45.1970   35.3660   42.4930 C   0  0  0  0  0  0  0  0  0  0  0  0
   44.7510   35.3680   43.9100 C   0  0  0  0  0  0  0  0  0  0  0  0
   45.5770   34.5740   44.7290 O   0  0  0  0  0  0  0  0  0  0  0  0
   45.4290   33.3000   44.2200 C   0  0  0  0  0  0  0  0  0  0  0  0
   46.1870   33.2000   42.9280 C   0  0  0  0  0  0  0  0  0  0  0  0
   47.5260   33.4560   38.9600 O   0  0  0  0  0  0  0  0  0  0  0  0
   48.0010   33.9170   37.7240 C   0  0  0  0  0  0  0  0  0  0  0  0
   48.6310   34.9720   37.6500 O   0  0  0  0  0  0  0  0  0  0  0  0
   46.4500   32.2720   36.5250 C   0  0  0  0  0  0  0  0  0  0  0  0
   47.6500   32.9990   36.6000 C   0  0  0  0  0  0  0  0  0  0  0  0
   48.6100   32.8900   35.5830 C   0  0  0  0  0  0  0  0  0  0  0  0
   48.3100   32.0450   34.5280 N   0  0  0  0  0  0  0  0  0  0  0  0
   47.1330   31.3760   34.5220 C   0  0  0  0  0  0  0  0  0  0  0  0
   46.2340   31.4790   35.4750 N   0  0  0  0  0  0  0  0  0  0  0  0
   46.9230   30.5130   33.3580 C   0  0  0  0  0  0  0  0  0  0  0  0
   45.7860   29.6970   33.3330 C   0  0  0  0  0  0  0  0  0  0  0  0
   45.6630   28.9070   32.1880 C   0  0  0  0  0  0  0  0  0  0  0  0
   46.5470   28.9080   31.1790 N   0  0  0  0  0  0  0  0  0  0  0  0
   47.6130   29.6980   31.2440 C   0  0  0  0  0  0  0  0  0  0  0  0
   47.7690   30.4760   32.3300 N   0  0  0  0  0  0  0  0  0  0  0  0
   47.8752   35.2811   39.8796 H   0  0  0  0  0  0  0  0  0  0  0  0
   48.3501   33.8551   40.8311 H   0  0  0  0  0  0  0  0  0  0  0  0
   45.6204   35.0294   40.3132 H   0  0  0  0  0  0  0  0  0  0  0  0
   45.7999   33.2285   40.5784 H   0  0  0  0  0  0  0  0  0  0  0  0
   45.5714   36.3715   42.2504 H   0  0  0  0  0  0  0  0  0  0  0  0
   44.3230   35.0727   41.8930 H   0  0  0  0  0  0  0  0  0  0  0  0
   44.7686   36.4018   44.2854 H   0  0  0  0  0  0  0  0  0  0  0  0
   43.7356   34.9465   43.9449 H   0  0  0  0  0  0  0  0  0  0  0  0
   45.8257   32.5673   44.9382 H   0  0  0  0  0  0  0  0  0  0  0  0
   44.3635   33.0913   44.0435 H   0  0  0  0  0  0  0  0  0  0  0  0
   45.7053   32.4341   42.3024 H   0  0  0  0  0  0  0  0  0  0  0  0
   47.2250   32.9433   43.1863 H   0  0  0  0  0  0  0  0  0  0  0  0
   45.6976   32.3560   37.3230 H   0  0  0  0  0  0  0  0  0  0  0  0
   49.5564   33.4494   35.6218 H   0  0  0  0  0  0  0  0  0  0  0  0
   45.0489   29.6794   34.1493 H   0  0  0  0  0  0  0  0  0  0  0  0
   44.7888   28.2441   32.1087 H   0  0  0  0  0  0  0  0  0  0  0  0
   48.3510   29.7155   30.4285 H   0  0  0  0  0  0  0  0  0  0  0  0
  1  2  1  0
  2  3  1  0
  3  4  1  0
  3  8  1  0
  4  5  1  0
  5  6  1  0
  7  6  1  0
  8  7  1  0
  9  1  1  0
 10  9  1  0
 11 10  2  0
 12 13  2  0
 13 10  1  0
 14 13  1  0
 15 14  2  0
 16 15  1  0
 16 17  2  0
 17 12  1  0
 18 16  1  0
 19 18  2  0
 20 19  1  0
 21 22  1  0
 21 20  2  0
 22 23  2  0
 23 18  1  0
  1 24  1  0
  1 25  1  0
  2 26  1  0
  2 27  1  0
  4 28  1  0
  4 29  1  0
  5 30  1  0
  5 31  1  0
  7 32  1  0
  7 33  1  0
  8 34  1  0
  8 35  1  0
 12 36  1  0
 14 37  1  0
 19 38  1  0
 20 39  1  0
 22 40  1  0
M  ISO  8  24   8  25   8  26   8  27   8  28  13  29  13  30  13  31  13
M  ISO  8  32  13  33  13  34  13  35  13  36  14  37  14  38  14  39  14
M  ISO  1  40  14
M  END
>  <minimizedAffinity>  (1) 
-4.50622082

>  <minimizedRMSD>  (1) 
2.99495506

$$$$
