
     RDKit          3D

 41 43  0  0  0  0  0  0  0  0999 V2000
   47.6550   34.2330   40.1630 C   0  0  0  0  0  0  0  0  0  0  0  0
   46.3100   34.3090   40.8450 C   0  0  0  0  0  0  0  0  0  0  0  0
   46.3650   34.3380   42.2770 N   0  0  0  0  0  0  0  0  0  0  0  0
   45.4290   35.3480   42.7150 C   0  0  0  0  0  0  0  0  0  0  0  0
   44.9910   35.2220   44.1200 C   0  0  0  0  0  0  0  0  0  0  0  0
   45.7920   34.3080   44.8410 O   0  0  0  0  0  0  0  0  0  0  0  0
   45.5410   33.0950   44.2100 C   0  0  0  0  0  0  0  0  0  0  0  0
   46.2750   33.0790   42.9030 C   0  0  0  0  0  0  0  0  0  0  0  0
   47.4880   33.4680   38.9740 O   0  0  0  0  0  0  0  0  0  0  0  0
   47.9880   33.9150   37.7360 C   0  0  0  0  0  0  0  0  0  0  0  0
   48.6250   34.9680   37.6780 O   0  0  0  0  0  0  0  0  0  0  0  0
   46.4650   32.2490   36.5550 C   0  0  0  0  0  0  0  0  0  0  0  0
   47.6530   32.9930   36.6090 C   0  0  0  0  0  0  0  0  0  0  0  0
   48.6010   32.9060   35.5900 C   0  0  0  0  0  0  0  0  0  0  0  0
   48.3240   32.0630   34.5340 N   0  0  0  0  0  0  0  0  0  0  0  0
   47.1480   31.3630   34.5380 C   0  0  0  0  0  0  0  0  0  0  0  0
   46.2580   31.4540   35.5070 N   0  0  0  0  0  0  0  0  0  0  0  0
   46.8640   30.4700   33.4070 C   0  0  0  0  0  0  0  0  0  0  0  0
   45.7180   29.7230   33.3690 C   0  0  0  0  0  0  0  0  0  0  0  0
   45.3820   28.8620   32.3420 C   0  0  0  0  0  0  0  0  0  0  0  0
   46.2960   28.7720   31.2860 C   0  0  0  0  0  0  0  0  0  0  0  0
   47.4520   29.5250   31.3230 C   0  0  0  0  0  0  0  0  0  0  0  0
   47.7330   30.3570   32.3620 N   0  0  0  0  0  0  0  0  0  0  0  0
   48.0071   35.2446   39.9126 H   0  0  0  0  0  0  0  0  0  0  0  0
   48.3993   33.7650   40.8241 H   0  0  0  0  0  0  0  0  0  0  0  0
   45.8037   35.2237   40.5030 H   0  0  0  0  0  0  0  0  0  0  0  0
   45.7717   33.3889   40.5735 H   0  0  0  0  0  0  0  0  0  0  0  0
   45.9056   36.3318   42.5925 H   0  0  0  0  0  0  0  0  0  0  0  0
   44.5272   35.2214   42.0980 H   0  0  0  0  0  0  0  0  0  0  0  0
   45.0549   36.2085   44.6024 H   0  0  0  0  0  0  0  0  0  0  0  0
   43.9573   34.8458   44.1227 H   0  0  0  0  0  0  0  0  0  0  0  0
   45.8927   32.2673   44.8434 H   0  0  0  0  0  0  0  0  0  0  0  0
   44.4611   32.9756   44.0378 H   0  0  0  0  0  0  0  0  0  0  0  0
   45.7522   32.3914   42.2219 H   0  0  0  0  0  0  0  0  0  0  0  0
   47.3047   32.7600   43.1220 H   0  0  0  0  0  0  0  0  0  0  0  0
   45.7202   32.3208   37.3613 H   0  0  0  0  0  0  0  0  0  0  0  0
   49.5340   33.4874   35.6269 H   0  0  0  0  0  0  0  0  0  0  0  0
   45.0177   29.8141   34.2123 H   0  0  0  0  0  0  0  0  0  0  0  0
   44.4486   28.2800   32.3537 H   0  0  0  0  0  0  0  0  0  0  0  0
   46.0947   28.1066   30.4335 H   0  0  0  0  0  0  0  0  0  0  0  0
   48.1658   29.4504   30.4894 H   0  0  0  0  0  0  0  0  0  0  0  0
  1  2  1  0
  2  3  1  0
  3  4  1  0
  3  8  1  0
  4  5  1  0
  5  6  1  0
  7  6  1  0
  8  7  1  0
  9  1  1  0
 10  9  1  0
 11 10  2  0
 12 13  2  0
 13 10  1  0
 14 13  1  0
 15 16  1  0
 15 14  2  0
 16 17  2  0
 17 12  1  0
 18 16  1  0
 19 18  2  0
 20 19  1  0
 21 22  1  0
 21 20  2  0
 22 23  2  0
 23 18  1  0
  1 24  1  0
  1 25  1  0
  2 26  1  0
  2 27  1  0
  4 28  1  0
  4 29  1  0
  5 30  1  0
  5 31  1  0
  7 32  1  0
  7 33  1  0
  8 34  1  0
  8 35  1  0
 12 36  1  0
 14 37  1  0
 19 38  1  0
 20 39  1  0
 21 40  1  0
 22 41  1  0
M  ISO  8  24   8  25   8  26   8  27   8  28  13  29  13  30  13  31  13
M  ISO  8  32  13  33  13  34  13  35  13  36  14  37  14  38  14  39  14
M  ISO  2  40  14  41  14
M  END
>  <minimizedAffinity>  (1) 
-4.48590231

>  <minimizedRMSD>  (1) 
2.91455221

$$$$
