
     RDKit          3D

 42 44  0  0  0  0  0  0  0  0999 V2000
   47.1260   33.6670   38.7530 O   0  0  0  0  0  0  0  0  0  0  0  0
   47.7560   33.3550   39.9810 C   0  0  0  0  0  0  0  0  0  0  0  0
   47.4640   34.4930   40.9380 C   0  0  0  0  0  0  0  0  0  0  0  0
   46.8230   34.0940   42.1540 N   0  0  0  0  0  0  0  0  0  0  0  0
   46.2010   35.2730   42.7140 C   0  0  0  0  0  0  0  0  0  0  0  0
   45.1100   35.0160   43.6600 C   0  0  0  0  0  0  0  0  0  0  0  0
   45.0670   33.6550   44.0580 O   0  0  0  0  0  0  0  0  0  0  0  0
   44.7710   32.9820   42.8910 C   0  0  0  0  0  0  0  0  0  0  0  0
   45.9940   32.9480   42.0290 C   0  0  0  0  0  0  0  0  0  0  0  0
   47.8670   33.9320   37.5880 C   0  0  0  0  0  0  0  0  0  0  0  0
   48.6800   34.8590   37.5750 O   0  0  0  0  0  0  0  0  0  0  0  0
   46.3320   32.3000   36.3680 C   0  0  0  0  0  0  0  0  0  0  0  0
   47.5450   33.0040   36.4840 C   0  0  0  0  0  0  0  0  0  0  0  0
   48.5470   32.8460   35.5070 C   0  0  0  0  0  0  0  0  0  0  0  0
   48.2770   31.9820   34.4560 N   0  0  0  0  0  0  0  0  0  0  0  0
   47.0820   31.3370   34.4150 C   0  0  0  0  0  0  0  0  0  0  0  0
   46.1380   31.4870   35.3380 N   0  0  0  0  0  0  0  0  0  0  0  0
   46.8560   30.4410   33.2850 C   0  0  0  0  0  0  0  0  0  0  0  0
   45.7300   29.6440   33.2140 C   0  0  0  0  0  0  0  0  0  0  0  0
   45.4960   28.7850   32.1510 C   0  0  0  0  0  0  0  0  0  0  0  0
   46.4550   28.7800   31.1750 C   0  0  0  0  0  0  0  0  0  0  0  0
   47.6100   29.5440   31.1650 C   0  0  0  0  0  0  0  0  0  0  0  0
   47.7940   30.3840   32.2530 C   0  0  0  0  0  0  0  0  0  0  0  0
   47.3537   32.4130   40.3820 H   0  0  0  0  0  0  0  0  0  0  0  0
   48.8401   33.2306   39.8424 H   0  0  0  0  0  0  0  0  0  0  0  0
   48.4166   34.9793   41.1949 H   0  0  0  0  0  0  0  0  0  0  0  0
   46.7643   35.1660   40.4208 H   0  0  0  0  0  0  0  0  0  0  0  0
   46.9768   35.8501   43.2384 H   0  0  0  0  0  0  0  0  0  0  0  0
   45.7494   35.8104   41.8671 H   0  0  0  0  0  0  0  0  0  0  0  0
   45.2568   35.6432   44.5517 H   0  0  0  0  0  0  0  0  0  0  0  0
   44.1602   35.2559   43.1597 H   0  0  0  0  0  0  0  0  0  0  0  0
   44.4563   31.9546   43.1266 H   0  0  0  0  0  0  0  0  0  0  0  0
   43.9549   33.4950   42.3610 H   0  0  0  0  0  0  0  0  0  0  0  0
   45.6749   32.8652   40.9796 H   0  0  0  0  0  0  0  0  0  0  0  0
   46.5919   32.0861   42.3603 H   0  0  0  0  0  0  0  0  0  0  0  0
   45.5473   32.4235   37.1290 H   0  0  0  0  0  0  0  0  0  0  0  0
   49.5035   33.3851   35.5746 H   0  0  0  0  0  0  0  0  0  0  0  0
   44.9932   29.6925   34.0293 H   0  0  0  0  0  0  0  0  0  0  0  0
   44.5994   28.1501   32.0960 H   0  0  0  0  0  0  0  0  0  0  0  0
   46.2937   28.1073   30.3197 H   0  0  0  0  0  0  0  0  0  0  0  0
   48.3384   29.4879   30.3427 H   0  0  0  0  0  0  0  0  0  0  0  0
   48.6934   31.0153   32.3035 H   0  0  0  0  0  0  0  0  0  0  0  0
  1  2  1  0
  2  3  1  0
  3  4  1  0
  4  5  1  0
  5  6  1  0
  6  7  1  0
  8  7  1  0
  9  4  1  0
  9  8  1  0
 10  1  1  0
 11 10  2  0
 12 13  2  0
 13 10  1  0
 14 13  1  0
 15 14  2  0
 16 15  1  0
 16 17  2  0
 17 12  1  0
 18 16  1  0
 19 18  2  0
 20 19  1  0
 21 20  2  0
 22 21  1  0
 22 23  2  0
 23 18  1  0
  2 24  1  0
  2 25  1  0
  3 26  1  0
  3 27  1  0
  5 28  1  0
  5 29  1  0
  6 30  1  0
  6 31  1  0
  8 32  1  0
  8 33  1  0
  9 34  1  0
  9 35  1  0
 12 36  1  0
 14 37  1  0
 19 38  1  0
 20 39  1  0
 21 40  1  0
 22 41  1  0
 23 42  1  0
M  ISO  8  24   8  25   8  26   8  27   8  28  13  29  13  30  13  31  13
M  ISO  8  32  13  33  13  34  13  35  13  36  14  37  14  38  14  39  14
M  ISO  3  40  14  41  14  42  14
M  END
>  <minimizedAffinity>  (1) 
-4.44623518

>  <minimizedRMSD>  (1) 
2.94108152

$$$$
