
     RDKit          3D

 42 44  0  0  0  0  0  0  0  0999 V2000
   47.9290   34.5190   40.3830 C   0  0  0  0  0  0  0  0  0  0  0  0
   46.5330   34.3840   40.9590 C   0  0  0  0  0  0  0  0  0  0  0  0
   46.4820   34.4160   42.3890 N   0  0  0  0  0  0  0  0  0  0  0  0
   45.4940   35.4080   42.7530 C   0  0  0  0  0  0  0  0  0  0  0  0
   44.9530   35.2690   44.1310 C   0  0  0  0  0  0  0  0  0  0  0  0
   45.6800   34.3440   44.8970 O   0  0  0  0  0  0  0  0  0  0  0  0
   45.5020   33.1400   44.2400 C   0  0  0  0  0  0  0  0  0  0  0  0
   46.3780   33.1600   43.0170 C   0  0  0  0  0  0  0  0  0  0  0  0
   48.0170   33.6030   39.3020 O   0  0  0  0  0  0  0  0  0  0  0  0
   48.0670   34.0280   37.9710 C   0  0  0  0  0  0  0  0  0  0  0  0
   48.6880   35.0480   37.6590 O   0  0  0  0  0  0  0  0  0  0  0  0
   45.9200   33.1000   36.9540 C   0  0  0  0  0  0  0  0  0  0  0  0
   47.3090   33.1300   37.0480 C   0  0  0  0  0  0  0  0  0  0  0  0
   48.0930   32.2910   36.2550 C   0  0  0  0  0  0  0  0  0  0  0  0
   47.4120   31.4430   35.3870 N   0  0  0  0  0  0  0  0  0  0  0  0
   46.0530   31.4640   35.3430 C   0  0  0  0  0  0  0  0  0  0  0  0
   45.3290   32.2740   36.1100 N   0  0  0  0  0  0  0  0  0  0  0  0
   45.3920   30.5520   34.4110 C   0  0  0  0  0  0  0  0  0  0  0  0
   46.1250   29.9040   33.4370 C   0  0  0  0  0  0  0  0  0  0  0  0
   45.4610   29.0520   32.5790 C   0  0  0  0  0  0  0  0  0  0  0  0
   44.0980   28.8700   32.7130 C   0  0  0  0  0  0  0  0  0  0  0  0
   43.3560   29.5150   33.6860 C   0  0  0  0  0  0  0  0  0  0  0  0
   44.0290   30.3670   34.5420 C   0  0  0  0  0  0  0  0  0  0  0  0
   48.0927   35.5457   40.0237 H   0  0  0  0  0  0  0  0  0  0  0  0
   48.6928   34.3048   41.1450 H   0  0  0  0  0  0  0  0  0  0  0  0
   45.9194   35.2115   40.5735 H   0  0  0  0  0  0  0  0  0  0  0  0
   46.1588   33.3963   40.6517 H   0  0  0  0  0  0  0  0  0  0  0  0
   45.9576   36.4017   42.6655 H   0  0  0  0  0  0  0  0  0  0  0  0
   44.6440   35.2656   42.0695 H   0  0  0  0  0  0  0  0  0  0  0  0
   44.9937   36.2496   44.6278 H   0  0  0  0  0  0  0  0  0  0  0  0
   43.9190   34.9021   44.0516 H   0  0  0  0  0  0  0  0  0  0  0  0
   45.7926   32.3069   44.8969 H   0  0  0  0  0  0  0  0  0  0  0  0
   44.4472   33.0032   43.9596 H   0  0  0  0  0  0  0  0  0  0  0  0
   45.9663   32.4457   42.2888 H   0  0  0  0  0  0  0  0  0  0  0  0
   47.3909   32.8968   43.3557 H   0  0  0  0  0  0  0  0  0  0  0  0
   45.3132   33.7664   37.5847 H   0  0  0  0  0  0  0  0  0  0  0  0
   49.1914   32.2996   36.3130 H   0  0  0  0  0  0  0  0  0  0  0  0
   47.2098   30.0629   33.3475 H   0  0  0  0  0  0  0  0  0  0  0  0
   46.0144   28.5197   31.7914 H   0  0  0  0  0  0  0  0  0  0  0  0
   43.5840   28.1871   32.0205 H   0  0  0  0  0  0  0  0  0  0  0  0
   42.2712   29.3560   33.7754 H   0  0  0  0  0  0  0  0  0  0  0  0
   43.4771   30.8997   35.3305 H   0  0  0  0  0  0  0  0  0  0  0  0
  1  2  1  0
  2  3  1  0
  3  4  1  0
  3  8  1  0
  4  5  1  0
  5  6  1  0
  7  6  1  0
  8  7  1  0
  9  1  1  0
 10  9  1  0
 11 10  2  0
 12 13  2  0
 13 10  1  0
 14 13  1  0
 15 14  2  0
 16 15  1  0
 16 17  2  0
 17 12  1  0
 18 23  1  0
 18 16  1  0
 19 18  2  0
 20 21  2  0
 20 19  1  0
 21 22  1  0
 22 23  2  0
  1 24  1  0
  1 25  1  0
  2 26  1  0
  2 27  1  0
  4 28  1  0
  4 29  1  0
  5 30  1  0
  5 31  1  0
  7 32  1  0
  7 33  1  0
  8 34  1  0
  8 35  1  0
 12 36  1  0
 14 37  1  0
 19 38  1  0
 20 39  1  0
 21 40  1  0
 22 41  1  0
 23 42  1  0
M  ISO  8  24   8  25   8  26   8  27   8  28  13  29  13  30  13  31  13
M  ISO  8  32  13  33  13  34  13  35  13  36  14  37  14  38  14  39  14
M  ISO  3  40  14  41  14  42  14
M  END
>  <minimizedAffinity>  (1) 
-4.35232735

>  <minimizedRMSD>  (1) 
1.89772344

$$$$
