
     RDKit          3D

 37 39  0  0  0  0  0  0  0  0999 V2000
   48.3870   34.1380   40.5100 C   0  0  0  0  0  0  0  0  0  0  0  0
   47.8640   35.0490   41.5820 C   0  0  0  0  0  0  0  0  0  0  0  0
   46.7890   34.4860   42.3640 N   0  0  0  0  0  0  0  0  0  0  0  0
   47.4400   33.8330   43.4830 C   0  0  0  0  0  0  0  0  0  0  0  0
   46.5350   33.5280   44.6130 C   0  0  0  0  0  0  0  0  0  0  0  0
   45.1880   33.8450   44.3370 O   0  0  0  0  0  0  0  0  0  0  0  0
   45.1950   35.2090   44.0650 C   0  0  0  0  0  0  0  0  0  0  0  0
   45.7590   35.4020   42.6930 C   0  0  0  0  0  0  0  0  0  0  0  0
   47.4420   34.1350   39.4550 O   0  0  0  0  0  0  0  0  0  0  0  0
   47.8450   34.1600   38.1140 C   0  0  0  0  0  0  0  0  0  0  0  0
   48.8110   34.8620   37.7480 O   0  0  0  0  0  0  0  0  0  0  0  0
   45.6510   33.0580   37.4570 C   0  0  0  0  0  0  0  0  0  0  0  0
   47.0080   33.2850   37.2370 C   0  0  0  0  0  0  0  0  0  0  0  0
   47.6820   32.7000   36.1650 C   0  0  0  0  0  0  0  0  0  0  0  0
   46.9380   31.8870   35.3370 N   0  0  0  0  0  0  0  0  0  0  0  0
   45.6240   31.6940   35.5890 C   0  0  0  0  0  0  0  0  0  0  0  0
   44.9910   32.2570   36.6120 N   0  0  0  0  0  0  0  0  0  0  0  0
   44.7970   30.8440   34.7420 C   0  0  0  0  0  0  0  0  0  0  0  0
   45.4590   30.2710   33.7300 N   0  0  0  0  0  0  0  0  0  0  0  0
   44.6250   29.5320   33.0350 O   0  0  0  0  0  0  0  0  0  0  0  0
   43.4230   29.6180   33.5860 C   0  0  0  0  0  0  0  0  0  0  0  0
   43.5220   30.4400   34.6570 N   0  0  0  0  0  0  0  0  0  0  0  0
   49.3568   34.5064   40.1444 H   0  0  0  0  0  0  0  0  0  0  0  0
   48.5320   33.1209   40.9029 H   0  0  0  0  0  0  0  0  0  0  0  0
   48.6935   35.2939   42.2617 H   0  0  0  0  0  0  0  0  0  0  0  0
   47.4549   35.9341   41.0730 H   0  0  0  0  0  0  0  0  0  0  0  0
   47.8770   32.8889   43.1257 H   0  0  0  0  0  0  0  0  0  0  0  0
   48.1975   34.5342   43.8631 H   0  0  0  0  0  0  0  0  0  0  0  0
   46.6040   32.4535   44.8381 H   0  0  0  0  0  0  0  0  0  0  0  0
   46.8519   34.1454   45.4664 H   0  0  0  0  0  0  0  0  0  0  0  0
   44.1690   35.6034   44.1061 H   0  0  0  0  0  0  0  0  0  0  0  0
   45.8040   35.7445   44.8082 H   0  0  0  0  0  0  0  0  0  0  0  0
   46.1670   36.4214   42.6260 H   0  0  0  0  0  0  0  0  0  0  0  0
   44.9377   35.2296   41.9818 H   0  0  0  0  0  0  0  0  0  0  0  0
   45.1334   33.5270   38.3068 H   0  0  0  0  0  0  0  0  0  0  0  0
   48.7531   32.8784   35.9893 H   0  0  0  0  0  0  0  0  0  0  0  0
   42.5103   29.1131   33.2366 H   0  0  0  0  0  0  0  0  0  0  0  0
  1  2  1  0
  2  3  1  0
  3  8  1  0
  3  4  1  0
  4  5  1  0
  6  5  1  0
  7  6  1  0
  8  7  1  0
  9  1  1  0
 10  9  1  0
 11 10  2  0
 13 12  2  0
 13 10  1  0
 14 13  1  0
 15 16  1  0
 15 14  2  0
 16 17  2  0
 17 12  1  0
 18 16  1  0
 19 18  2  0
 20 21  1  0
 20 19  1  0
 21 22  2  0
 22 18  1  0
  1 23  1  0
  1 24  1  0
  2 25  1  0
  2 26  1  0
  4 27  1  0
  4 28  1  0
  5 29  1  0
  5 30  1  0
  7 31  1  0
  7 32  1  0
  8 33  1  0
  8 34  1  0
 12 35  1  0
 14 36  1  0
 21 37  1  0
M  ISO  8  23   8  24   8  25   8  26   8  27  13  28  13  29  13  30  13
M  ISO  7  31  13  32  13  33  13  34  13  35  14  36  14  37  14
M  END
>  <minimizedAffinity>  (1) 
-4.25615788

>  <minimizedRMSD>  (1) 
1.86669254

$$$$
