
     RDKit          3D

 39 41  0  0  0  0  0  0  0  0999 V2000
   48.0660   34.5480   41.2030 C   0  0  0  0  0  0  0  0  0  0  0  0
   46.6240   34.8460   41.5370 C   0  0  0  0  0  0  0  0  0  0  0  0
   46.3550   35.0170   42.9290 N   0  0  0  0  0  0  0  0  0  0  0  0
   45.1450   35.7980   43.0310 C   0  0  0  0  0  0  0  0  0  0  0  0
   44.4650   35.7240   44.3430 C   0  0  0  0  0  0  0  0  0  0  0  0
   45.2480   35.0810   45.3190 O   0  0  0  0  0  0  0  0  0  0  0  0
   45.4160   33.7860   44.8230 C   0  0  0  0  0  0  0  0  0  0  0  0
   46.4110   33.8270   43.7070 C   0  0  0  0  0  0  0  0  0  0  0  0
   48.0640   33.6210   40.1370 O   0  0  0  0  0  0  0  0  0  0  0  0
   47.9260   34.0200   38.8010 C   0  0  0  0  0  0  0  0  0  0  0  0
   48.6370   34.9310   38.3550 O   0  0  0  0  0  0  0  0  0  0  0  0
   45.6470   32.8960   38.6090 C   0  0  0  0  0  0  0  0  0  0  0  0
   46.8810   33.2440   38.0660 C   0  0  0  0  0  0  0  0  0  0  0  0
   47.2200   32.8770   36.7620 C   0  0  0  0  0  0  0  0  0  0  0  0
   46.2830   32.1630   36.0540 N   0  0  0  0  0  0  0  0  0  0  0  0
   45.0890   31.8490   36.6420 C   0  0  0  0  0  0  0  0  0  0  0  0
   44.7760   32.2050   37.8840 N   0  0  0  0  0  0  0  0  0  0  0  0
   44.2370   31.0990   35.7470 C   0  0  0  0  0  0  0  0  0  0  0  0
   44.3470   30.7250   34.4710 C   0  0  0  0  0  0  0  0  0  0  0  0
   43.3570   29.9980   33.8570 C   0  0  0  0  0  0  0  0  0  0  0  0
   42.2480   29.6800   34.6390 C   0  0  0  0  0  0  0  0  0  0  0  0
   42.6620   30.4600   36.2980 S   0  0  0  0  0  0  0  0  0  0  0  0
   48.5811   35.4711   40.8989 H   0  0  0  0  0  0  0  0  0  0  0  0
   48.5929   34.1375   42.0770 H   0  0  0  0  0  0  0  0  0  0  0  0
   46.3364   35.7715   41.0166 H   0  0  0  0  0  0  0  0  0  0  0  0
   46.0437   33.9688   41.2148 H   0  0  0  0  0  0  0  0  0  0  0  0
   45.4001   36.8503   42.8371 H   0  0  0  0  0  0  0  0  0  0  0  0
   44.4433   35.3776   42.2955 H   0  0  0  0  0  0  0  0  0  0  0  0
   44.2446   36.7462   44.6845 H   0  0  0  0  0  0  0  0  0  0  0  0
   43.5453   35.1353   44.2106 H   0  0  0  0  0  0  0  0  0  0  0  0
   45.7842   33.1276   45.6236 H   0  0  0  0  0  0  0  0  0  0  0  0
   44.4550   33.3972   44.4551 H   0  0  0  0  0  0  0  0  0  0  0  0
   46.2229   32.9701   43.0435 H   0  0  0  0  0  0  0  0  0  0  0  0
   47.4094   33.7929   44.1675 H   0  0  0  0  0  0  0  0  0  0  0  0
   45.3943   33.1933   39.6375 H   0  0  0  0  0  0  0  0  0  0  0  0
   48.1914   33.1467   36.3221 H   0  0  0  0  0  0  0  0  0  0  0  0
   45.2458   31.0037   33.9013 H   0  0  0  0  0  0  0  0  0  0  0  0
   43.4349   29.6839   32.8057 H   0  0  0  0  0  0  0  0  0  0  0  0
   41.3502   29.1116   34.3547 H   0  0  0  0  0  0  0  0  0  0  0  0
  1  2  1  0
  2  3  1  0
  3  4  1  0
  3  8  1  0
  4  5  1  0
  5  6  1  0
  7  6  1  0
  8  7  1  0
  9  1  1  0
 10  9  1  0
 11 10  2  0
 13 12  2  0
 13 10  1  0
 14 13  1  0
 15 16  1  0
 15 14  2  0
 16 17  2  0
 17 12  1  0
 18 22  1  0
 18 16  1  0
 19 18  2  0
 20 19  1  0
 20 21  2  0
 21 22  1  0
  1 23  1  0
  1 24  1  0
  2 25  1  0
  2 26  1  0
  4 27  1  0
  4 28  1  0
  5 29  1  0
  5 30  1  0
  7 31  1  0
  7 32  1  0
  8 33  1  0
  8 34  1  0
 12 35  1  0
 14 36  1  0
 19 37  1  0
 20 38  1  0
 21 39  1  0
M  ISO  8  23   8  24   8  25   8  26   8  27  13  28  13  29  13  30  13
M  ISO  8  31  13  32  13  33  13  34  13  35  14  36  14  37  14  38  14
M  ISO  1  39  14
M  END
>  <minimizedAffinity>  (1) 
-4.16710663

>  <minimizedRMSD>  (1) 
1.85295165

$$$$
