
     RDKit          3D

 48 50  0  0  0  0  0  0  0  0999 V2000
   48.1970   34.4250   40.3500 C   0  0  0  0  0  0  0  0  0  0  0  0
   46.8900   34.4370   41.1080 C   0  0  0  0  0  0  0  0  0  0  0  0
   46.7980   33.4570   42.1570 N   0  0  0  0  0  0  0  0  0  0  0  0
   47.1010   34.1560   43.3870 C   0  0  0  0  0  0  0  0  0  0  0  0
   46.7020   33.4290   44.6130 C   0  0  0  0  0  0  0  0  0  0  0  0
   46.1850   32.1440   44.3480 O   0  0  0  0  0  0  0  0  0  0  0  0
   45.0960   32.3620   43.5270 C   0  0  0  0  0  0  0  0  0  0  0  0
   45.6010   32.6990   42.1560 C   0  0  0  0  0  0  0  0  0  0  0  0
   48.0190   33.5700   39.2350 O   0  0  0  0  0  0  0  0  0  0  0  0
   48.1220   34.0290   37.9220 C   0  0  0  0  0  0  0  0  0  0  0  0
   48.8970   34.9540   37.6350 O   0  0  0  0  0  0  0  0  0  0  0  0
   45.8340   33.1750   37.1640 C   0  0  0  0  0  0  0  0  0  0  0  0
   47.2260   33.2940   36.9830 C   0  0  0  0  0  0  0  0  0  0  0  0
   47.8550   32.7070   35.8740 C   0  0  0  0  0  0  0  0  0  0  0  0
   47.0420   32.0210   34.9910 N   0  0  0  0  0  0  0  0  0  0  0  0
   45.7010   31.9430   35.2260 C   0  0  0  0  0  0  0  0  0  0  0  0
   45.1170   32.5000   36.2750 N   0  0  0  0  0  0  0  0  0  0  0  0
   44.9090   31.1840   34.2200 C   0  0  0  0  0  0  0  0  0  0  0  0
   43.8010   30.3900   34.8740 C   0  0  0  0  0  0  0  0  0  0  0  0
   43.0390   29.6750   33.7900 C   0  0  0  0  0  0  0  0  0  0  0  0
   43.8830   28.6520   33.0760 C   0  0  0  0  0  0  0  0  0  0  0  0
   45.3060   28.7950   33.5490 C   0  0  0  0  0  0  0  0  0  0  0  0
   45.7690   30.2270   33.4220 C   0  0  0  0  0  0  0  0  0  0  0  0
   48.4469   35.4412   40.0111 H   0  0  0  0  0  0  0  0  0  0  0  0
   49.0194   34.0716   40.9894 H   0  0  0  0  0  0  0  0  0  0  0  0
   46.7626   35.4332   41.5568 H   0  0  0  0  0  0  0  0  0  0  0  0
   46.1043   34.1889   40.3793 H   0  0  0  0  0  0  0  0  0  0  0  0
   48.1865   34.3293   43.4267 H   0  0  0  0  0  0  0  0  0  0  0  0
   46.5202   35.0900   43.3707 H   0  0  0  0  0  0  0  0  0  0  0  0
   47.5843   33.3249   45.2616 H   0  0  0  0  0  0  0  0  0  0  0  0
   45.9037   34.0117   45.0960 H   0  0  0  0  0  0  0  0  0  0  0  0
   44.4760   31.4545   43.4825 H   0  0  0  0  0  0  0  0  0  0  0  0
   44.4843   33.1877   43.9195 H   0  0  0  0  0  0  0  0  0  0  0  0
   44.8249   33.2773   41.6332 H   0  0  0  0  0  0  0  0  0  0  0  0
   45.8261   31.7461   41.6547 H   0  0  0  0  0  0  0  0  0  0  0  0
   45.3460   33.6376   38.0346 H   0  0  0  0  0  0  0  0  0  0  0  0
   48.9404   32.7887   35.7154 H   0  0  0  0  0  0  0  0  0  0  0  0
   44.4812   31.9380   33.5428 H   0  0  0  0  0  0  0  0  0  0  0  0
   44.2295   29.6579   35.5742 H   0  0  0  0  0  0  0  0  0  0  0  0
   43.1312   31.0586   35.4347 H   0  0  0  0  0  0  0  0  0  0  0  0
   42.1744   29.1668   34.2419 H   0  0  0  0  0  0  0  0  0  0  0  0
   42.7231   30.4254   33.0503 H   0  0  0  0  0  0  0  0  0  0  0  0
   43.8336   28.8221   31.9904 H   0  0  0  0  0  0  0  0  0  0  0  0
   43.5129   27.6391   33.2929 H   0  0  0  0  0  0  0  0  0  0  0  0
   45.3688   28.4873   34.6032 H   0  0  0  0  0  0  0  0  0  0  0  0
   45.9515   28.1579   32.9265 H   0  0  0  0  0  0  0  0  0  0  0  0
   46.8052   30.2968   33.7846 H   0  0  0  0  0  0  0  0  0  0  0  0
   45.6931   30.5115   32.3622 H   0  0  0  0  0  0  0  0  0  0  0  0
  1  2  1  0
  2  3  1  0
  3  4  1  0
  4  5  1  0
  6  5  1  0
  7  6  1  0
  8  3  1  0
  8  7  1  0
  9  1  1  0
 10  9  1  0
 11 10  2  0
 13 12  2  0
 13 10  1  0
 14 13  1  0
 15 16  1  0
 15 14  2  0
 16 17  2  0
 17 12  1  0
 18 19  1  0
 18 16  1  0
 20 19  1  0
 21 22  1  0
 21 20  1  0
 23 22  1  0
 23 18  1  0
  1 24  1  0
  1 25  1  0
  2 26  1  0
  2 27  1  0
  4 28  1  0
  4 29  1  0
  5 30  1  0
  5 31  1  0
  7 32  1  0
  7 33  1  0
  8 34  1  0
  8 35  1  0
 12 36  1  0
 14 37  1  0
 18 38  1  0
 19 39  1  0
 19 40  1  0
 20 41  1  0
 20 42  1  0
 21 43  1  0
 21 44  1  0
 22 45  1  0
 22 46  1  0
 23 47  1  0
 23 48  1  0
M  ISO  8  24   8  25   8  26   8  27   8  28  13  29  13  30  13  31  13
M  ISO  8  32  13  33  13  34  13  35  13  36  14  37  14  38  13  39  13
M  ISO  8  40  13  41  13  42  13  43  13  44  13  45  13  46  13  47  13
M  ISO  1  48  13
M  END
>  <minimizedAffinity>  (1) 
-4.12343836

>  <minimizedRMSD>  (1) 
1.8584317

$$$$
