
     RDKit          3D

 44 46  0  0  0  0  0  0  0  0999 V2000
   48.1440   34.5530   40.3250 C   0  0  0  0  0  0  0  0  0  0  0  0
   46.8700   34.5690   41.1530 C   0  0  0  0  0  0  0  0  0  0  0  0
   46.8100   33.5280   42.1530 N   0  0  0  0  0  0  0  0  0  0  0  0
   47.1510   34.1440   43.4070 C   0  0  0  0  0  0  0  0  0  0  0  0
   46.7430   33.3940   44.6110 C   0  0  0  0  0  0  0  0  0  0  0  0
   46.2440   32.1090   44.2890 O   0  0  0  0  0  0  0  0  0  0  0  0
   45.1330   32.3560   43.4980 C   0  0  0  0  0  0  0  0  0  0  0  0
   45.5970   32.7820   42.1360 C   0  0  0  0  0  0  0  0  0  0  0  0
   47.9400   33.6230   39.2770 O   0  0  0  0  0  0  0  0  0  0  0  0
   48.0030   34.0040   37.9260 C   0  0  0  0  0  0  0  0  0  0  0  0
   48.7320   34.9260   37.5550 O   0  0  0  0  0  0  0  0  0  0  0  0
   45.7730   32.8840   37.3710 C   0  0  0  0  0  0  0  0  0  0  0  0
   47.1110   33.1750   37.0610 C   0  0  0  0  0  0  0  0  0  0  0  0
   47.6840   32.6820   35.8870 C   0  0  0  0  0  0  0  0  0  0  0  0
   46.8760   31.9100   35.0680 N   0  0  0  0  0  0  0  0  0  0  0  0
   45.5940   31.6700   35.4280 C   0  0  0  0  0  0  0  0  0  0  0  0
   45.0500   32.1360   36.5400 N   0  0  0  0  0  0  0  0  0  0  0  0
   44.8360   30.8670   34.5280 N   0  0  0  0  0  0  0  0  0  0  0  0
   45.3320   30.0390   33.4430 C   0  0  0  0  0  0  0  0  0  0  0  0
   44.5450   28.7540   33.6920 C   0  0  0  0  0  0  0  0  0  0  0  0
   43.3880   29.1280   34.5960 C   0  0  0  0  0  0  0  0  0  0  0  0
   43.3990   30.6540   34.4380 C   0  0  0  0  0  0  0  0  0  0  0  0
   48.3389   35.5533   39.9109 H   0  0  0  0  0  0  0  0  0  0  0  0
   49.0107   34.2699   40.9403 H   0  0  0  0  0  0  0  0  0  0  0  0
   46.7990   35.5421   41.6610 H   0  0  0  0  0  0  0  0  0  0  0  0
   46.0350   34.3939   40.4586 H   0  0  0  0  0  0  0  0  0  0  0  0
   48.2435   34.2683   43.4383 H   0  0  0  0  0  0  0  0  0  0  0  0
   46.5976   35.0941   43.4390 H   0  0  0  0  0  0  0  0  0  0  0  0
   47.6149   33.2814   45.2722 H   0  0  0  0  0  0  0  0  0  0  0  0
   45.9389   33.9573   45.1071 H   0  0  0  0  0  0  0  0  0  0  0  0
   44.5280   31.4412   43.4136 H   0  0  0  0  0  0  0  0  0  0  0  0
   44.5200   33.1495   43.9502 H   0  0  0  0  0  0  0  0  0  0  0  0
   44.8126   33.4044   41.6806 H   0  0  0  0  0  0  0  0  0  0  0  0
   45.7911   31.8649   41.5605 H   0  0  0  0  0  0  0  0  0  0  0  0
   45.3237   33.2725   38.2969 H   0  0  0  0  0  0  0  0  0  0  0  0
   48.7303   32.8970   35.6241 H   0  0  0  0  0  0  0  0  0  0  0  0
   46.4165   29.8728   33.5219 H   0  0  0  0  0  0  0  0  0  0  0  0
   45.2001   30.4704   32.4397 H   0  0  0  0  0  0  0  0  0  0  0  0
   44.1689   28.3482   32.7413 H   0  0  0  0  0  0  0  0  0  0  0  0
   45.1782   27.9823   34.1541 H   0  0  0  0  0  0  0  0  0  0  0  0
   42.4412   28.6896   34.2477 H   0  0  0  0  0  0  0  0  0  0  0  0
   43.4798   28.7717   35.6327 H   0  0  0  0  0  0  0  0  0  0  0  0
   42.8531   31.1590   35.2485 H   0  0  0  0  0  0  0  0  0  0  0  0
   42.9128   31.0451   33.5321 H   0  0  0  0  0  0  0  0  0  0  0  0
  1  2  1  0
  2  3  1  0
  3  4  1  0
  4  5  1  0
  6  5  1  0
  7  6  1  0
  8  3  1  0
  8  7  1  0
  9  1  1  0
 10  9  1  0
 11 10  2  0
 13 12  2  0
 13 10  1  0
 14 13  1  0
 15 16  1  0
 15 14  2  0
 16 17  2  0
 17 12  1  0
 18 16  1  0
 19 20  1  0
 19 18  1  0
 20 21  1  0
 22 18  1  0
 22 21  1  0
  1 23  1  0
  1 24  1  0
  2 25  1  0
  2 26  1  0
  4 27  1  0
  4 28  1  0
  5 29  1  0
  5 30  1  0
  7 31  1  0
  7 32  1  0
  8 33  1  0
  8 34  1  0
 12 35  1  0
 14 36  1  0
 19 37  1  0
 19 38  1  0
 20 39  1  0
 20 40  1  0
 21 41  1  0
 21 42  1  0
 22 43  1  0
 22 44  1  0
M  ISO  8  23   8  24   8  25   8  26   8  27  13  28  13  29  13  30  13
M  ISO  8  31  13  32  13  33  13  34  13  35  14  36  14  37  13  38  13
M  ISO  6  39  13  40  13  41  13  42  13  43  13  44  13
M  END
>  <minimizedAffinity>  (1) 
-3.96983719

>  <minimizedRMSD>  (1) 
1.53366673

$$$$
