
     RDKit          3D

 45 47  0  0  0  0  0  0  0  0999 V2000
   48.1120   34.5160   40.3520 C   0  0  0  0  0  0  0  0  0  0  0  0
   46.8080   34.4300   41.1090 C   0  0  0  0  0  0  0  0  0  0  0  0
   46.7930   33.4370   42.1580 N   0  0  0  0  0  0  0  0  0  0  0  0
   47.0970   34.1500   43.3790 C   0  0  0  0  0  0  0  0  0  0  0  0
   46.6970   33.4330   44.6170 C   0  0  0  0  0  0  0  0  0  0  0  0
   46.3070   32.1010   44.3620 O   0  0  0  0  0  0  0  0  0  0  0  0
   45.1890   32.2390   43.5510 C   0  0  0  0  0  0  0  0  0  0  0  0
   45.6300   32.6240   42.1730 C   0  0  0  0  0  0  0  0  0  0  0  0
   48.0320   33.6040   39.2800 O   0  0  0  0  0  0  0  0  0  0  0  0
   48.0470   34.0100   37.9410 C   0  0  0  0  0  0  0  0  0  0  0  0
   48.8270   34.9020   37.5680 O   0  0  0  0  0  0  0  0  0  0  0  0
   45.7150   33.1160   37.4510 C   0  0  0  0  0  0  0  0  0  0  0  0
   47.0700   33.2740   37.1020 C   0  0  0  0  0  0  0  0  0  0  0  0
   47.5690   32.7270   35.9110 C   0  0  0  0  0  0  0  0  0  0  0  0
   46.6760   32.0380   35.1150 N   0  0  0  0  0  0  0  0  0  0  0  0
   45.3750   31.9130   35.5000 C   0  0  0  0  0  0  0  0  0  0  0  0
   44.9220   32.4360   36.6260 N   0  0  0  0  0  0  0  0  0  0  0  0
   44.5590   31.1370   34.5130 C   0  0  0  0  0  0  0  0  0  0  0  0
   43.3370   30.5310   35.1630 C   0  0  0  0  0  0  0  0  0  0  0  0
   42.8580   29.6220   34.0250 C   0  0  0  0  0  0  0  0  0  0  0  0
   44.0990   29.2350   33.2630 C   0  0  0  0  0  0  0  0  0  0  0  0
   45.2470   29.9350   33.9630 C   0  0  0  0  0  0  0  0  0  0  0  0
   48.2587   35.5365   39.9686 H   0  0  0  0  0  0  0  0  0  0  0  0
   48.9613   34.2744   41.0080 H   0  0  0  0  0  0  0  0  0  0  0  0
   46.6073   35.4122   41.5617 H   0  0  0  0  0  0  0  0  0  0  0  0
   46.0405   34.1296   40.3805 H   0  0  0  0  0  0  0  0  0  0  0  0
   48.1826   34.3238   43.4162 H   0  0  0  0  0  0  0  0  0  0  0  0
   46.5172   35.0844   43.3528 H   0  0  0  0  0  0  0  0  0  0  0  0
   47.5493   33.4251   45.3123 H   0  0  0  0  0  0  0  0  0  0  0  0
   45.8327   33.9603   45.0470 H   0  0  0  0  0  0  0  0  0  0  0  0
   44.6431   31.2849   43.5103 H   0  0  0  0  0  0  0  0  0  0  0  0
   44.5273   33.0168   43.9600 H   0  0  0  0  0  0  0  0  0  0  0  0
   44.8123   33.1768   41.6873 H   0  0  0  0  0  0  0  0  0  0  0  0
   45.8782   31.6939   41.6407 H   0  0  0  0  0  0  0  0  0  0  0  0
   45.3208   33.5447   38.3841 H   0  0  0  0  0  0  0  0  0  0  0  0
   48.6247   32.8418   35.6239 H   0  0  0  0  0  0  0  0  0  0  0  0
   44.3449   31.8831   33.7336 H   0  0  0  0  0  0  0  0  0  0  0  0
   43.5960   29.9559   36.0642 H   0  0  0  0  0  0  0  0  0  0  0  0
   42.5931   31.2574   35.5220 H   0  0  0  0  0  0  0  0  0  0  0  0
   42.3626   28.7277   34.4310 H   0  0  0  0  0  0  0  0  0  0  0  0
   42.1269   30.1305   33.3793 H   0  0  0  0  0  0  0  0  0  0  0  0
   44.0266   29.5692   32.2175 H   0  0  0  0  0  0  0  0  0  0  0  0
   44.2399   28.1442   33.2448 H   0  0  0  0  0  0  0  0  0  0  0  0
   45.6715   29.3116   34.7637 H   0  0  0  0  0  0  0  0  0  0  0  0
   46.1027   30.1630   33.3105 H   0  0  0  0  0  0  0  0  0  0  0  0
  1  2  1  0
  2  3  1  0
  3  8  1  0
  3  4  1  0
  4  5  1  0
  6  5  1  0
  7  6  1  0
  8  7  1  0
  9  1  1  0
 10  9  1  0
 11 10  2  0
 13 12  2  0
 13 10  1  0
 14 13  1  0
 15 16  1  0
 15 14  2  0
 16 17  2  0
 17 12  1  0
 18 19  1  0
 18 16  1  0
 20 19  1  0
 21 22  1  0
 21 20  1  0
 22 18  1  0
  1 23  1  0
  1 24  1  0
  2 25  1  0
  2 26  1  0
  4 27  1  0
  4 28  1  0
  5 29  1  0
  5 30  1  0
  7 31  1  0
  7 32  1  0
  8 33  1  0
  8 34  1  0
 12 35  1  0
 14 36  1  0
 18 37  1  0
 19 38  1  0
 19 39  1  0
 20 40  1  0
 20 41  1  0
 21 42  1  0
 21 43  1  0
 22 44  1  0
 22 45  1  0
M  ISO  8  23   8  24   8  25   8  26   8  27  13  28  13  29  13  30  13
M  ISO  8  31  13  32  13  33  13  34  13  35  14  36  14  37  13  38  13
M  ISO  7  39  13  40  13  41  13  42  13  43  13  44  13  45  13
M  END
>  <minimizedAffinity>  (1) 
-3.96093583

>  <minimizedRMSD>  (1) 
1.52974701

$$$$
