
     RDKit          3D

 47 49  0  0  0  0  0  0  0  0999 V2000
   48.1670   34.5760   40.3170 C   0  0  0  0  0  0  0  0  0  0  0  0
   46.8040   34.4380   40.9670 C   0  0  0  0  0  0  0  0  0  0  0  0
   46.7490   33.4680   42.0220 N   0  0  0  0  0  0  0  0  0  0  0  0
   47.1170   34.1680   43.2290 C   0  0  0  0  0  0  0  0  0  0  0  0
   46.7450   33.4760   44.4850 C   0  0  0  0  0  0  0  0  0  0  0  0
   46.2440   32.1830   44.2550 O   0  0  0  0  0  0  0  0  0  0  0  0
   45.1120   32.3840   43.4740 C   0  0  0  0  0  0  0  0  0  0  0  0
   45.5520   32.7160   42.0730 C   0  0  0  0  0  0  0  0  0  0  0  0
   48.2530   33.5900   39.2920 O   0  0  0  0  0  0  0  0  0  0  0  0
   48.1020   33.9230   37.9400 C   0  0  0  0  0  0  0  0  0  0  0  0
   48.6320   34.9480   37.4880 O   0  0  0  0  0  0  0  0  0  0  0  0
   45.9210   33.1090   36.9260 C   0  0  0  0  0  0  0  0  0  0  0  0
   47.2750   32.9390   37.1900 C   0  0  0  0  0  0  0  0  0  0  0  0
   47.9500   31.7910   36.7440 C   0  0  0  0  0  0  0  0  0  0  0  0
   47.1820   30.8670   36.0420 N   0  0  0  0  0  0  0  0  0  0  0  0
   45.8680   31.0970   35.8220 C   0  0  0  0  0  0  0  0  0  0  0  0
   45.2350   32.1810   36.2430 N   0  0  0  0  0  0  0  0  0  0  0  0
   45.1380   30.1130   35.0970 N   0  0  0  0  0  0  0  0  0  0  0  0
   44.4630   30.3870   33.8410 C   0  0  0  0  0  0  0  0  0  0  0  0
   42.9710   30.1950   34.1470 C   0  0  0  0  0  0  0  0  0  0  0  0
   42.7850   28.7140   34.4070 C   0  0  0  0  0  0  0  0  0  0  0  0
   44.0830   27.9970   34.6640 C   0  0  0  0  0  0  0  0  0  0  0  0
   45.0190   28.7500   35.5770 C   0  0  0  0  0  0  0  0  0  0  0  0
   48.2761   35.5805   39.8823 H   0  0  0  0  0  0  0  0  0  0  0  0
   48.9668   34.4351   41.0590 H   0  0  0  0  0  0  0  0  0  0  0  0
   46.5200   35.4159   41.3829 H   0  0  0  0  0  0  0  0  0  0  0  0
   46.1148   34.0905   40.1832 H   0  0  0  0  0  0  0  0  0  0  0  0
   48.2081   34.3072   43.2250 H   0  0  0  0  0  0  0  0  0  0  0  0
   46.5592   35.1160   43.2202 H   0  0  0  0  0  0  0  0  0  0  0  0
   47.6367   33.4010   45.1247 H   0  0  0  0  0  0  0  0  0  0  0  0
   45.9505   34.0628   44.9692 H   0  0  0  0  0  0  0  0  0  0  0  0
   44.5006   31.4696   43.4642 H   0  0  0  0  0  0  0  0  0  0  0  0
   44.5110   33.2081   43.8859 H   0  0  0  0  0  0  0  0  0  0  0  0
   44.7548   33.2966   41.5858 H   0  0  0  0  0  0  0  0  0  0  0  0
   45.7461   31.7626   41.5598 H   0  0  0  0  0  0  0  0  0  0  0  0
   45.4068   34.0143   37.2810 H   0  0  0  0  0  0  0  0  0  0  0  0
   49.0210   31.6319   36.9379 H   0  0  0  0  0  0  0  0  0  0  0  0
   44.7925   29.6832   33.0625 H   0  0  0  0  0  0  0  0  0  0  0  0
   44.6826   31.3966   33.4634 H   0  0  0  0  0  0  0  0  0  0  0  0
   42.6849   30.7778   35.0350 H   0  0  0  0  0  0  0  0  0  0  0  0
   42.3413   30.5399   33.3136 H   0  0  0  0  0  0  0  0  0  0  0  0
   42.1359   28.5908   35.2865 H   0  0  0  0  0  0  0  0  0  0  0  0
   42.3380   28.2738   33.5034 H   0  0  0  0  0  0  0  0  0  0  0  0
   43.8573   27.0235   35.1237 H   0  0  0  0  0  0  0  0  0  0  0  0
   44.5920   27.8941   33.6943 H   0  0  0  0  0  0  0  0  0  0  0  0
   46.0078   28.2682   35.5728 H   0  0  0  0  0  0  0  0  0  0  0  0
   44.6249   28.7468   36.6040 H   0  0  0  0  0  0  0  0  0  0  0  0
  1  2  1  0
  2  3  1  0
  3  8  1  0
  3  4  1  0
  4  5  1  0
  6  5  1  0
  7  6  1  0
  8  7  1  0
  9  1  1  0
 10  9  1  0
 11 10  2  0
 12 13  2  0
 13 10  1  0
 14 13  1  0
 15 14  2  0
 16 15  1  0
 16 17  2  0
 17 12  1  0
 18 23  1  0
 18 16  1  0
 19 20  1  0
 19 18  1  0
 20 21  1  0
 21 22  1  0
 22 23  1  0
  1 24  1  0
  1 25  1  0
  2 26  1  0
  2 27  1  0
  4 28  1  0
  4 29  1  0
  5 30  1  0
  5 31  1  0
  7 32  1  0
  7 33  1  0
  8 34  1  0
  8 35  1  0
 12 36  1  0
 14 37  1  0
 19 38  1  0
 19 39  1  0
 20 40  1  0
 20 41  1  0
 21 42  1  0
 21 43  1  0
 22 44  1  0
 22 45  1  0
 23 46  1  0
 23 47  1  0
M  ISO  8  24   8  25   8  26   8  27   8  28  13  29  13  30  13  31  13
M  ISO  8  32  13  33  13  34  13  35  13  36  14  37  14  38  13  39  13
M  ISO  8  40  13  41  13  42  13  43  13  44  13  45  13  46  13  47  13
M  END
>  <minimizedAffinity>  (1) 
-3.9387362

>  <minimizedRMSD>  (1) 
0.968713462

$$$$
