
     RDKit          3D

 34 35  0  0  0  0  0  0  0  0999 V2000
   48.1390   34.4210   40.2180 C   0  0  0  0  0  0  0  0  0  0  0  0
   46.8560   34.4490   41.0290 C   0  0  0  0  0  0  0  0  0  0  0  0
   46.7930   33.4720   42.0820 N   0  0  0  0  0  0  0  0  0  0  0  0
   47.1700   34.1530   43.2890 C   0  0  0  0  0  0  0  0  0  0  0  0
   46.7300   33.4810   44.5310 C   0  0  0  0  0  0  0  0  0  0  0  0
   46.2350   32.1770   44.2900 O   0  0  0  0  0  0  0  0  0  0  0  0
   45.1240   32.3920   43.4970 C   0  0  0  0  0  0  0  0  0  0  0  0
   45.5700   32.7710   42.1110 C   0  0  0  0  0  0  0  0  0  0  0  0
   47.9340   33.5180   39.1510 O   0  0  0  0  0  0  0  0  0  0  0  0
   47.9840   33.9360   37.8110 C   0  0  0  0  0  0  0  0  0  0  0  0
   48.7350   34.8710   37.4750 O   0  0  0  0  0  0  0  0  0  0  0  0
   45.7060   33.0210   37.1190 C   0  0  0  0  0  0  0  0  0  0  0  0
   47.0750   33.1610   36.9130 C   0  0  0  0  0  0  0  0  0  0  0  0
   47.6900   32.5620   35.8160 C   0  0  0  0  0  0  0  0  0  0  0  0
   46.9000   31.8380   34.9580 N   0  0  0  0  0  0  0  0  0  0  0  0
   45.5600   31.7350   35.2100 C   0  0  0  0  0  0  0  0  0  0  0  0
   44.9920   32.3130   36.2610 N   0  0  0  0  0  0  0  0  0  0  0  0
   44.6900   30.9680   34.3110 C   0  0  0  0  0  0  0  0  0  0  0  0
   43.4560   30.7940   34.5420 O   0  0  0  0  0  0  0  0  0  0  0  0
   48.3601   35.4248   39.8261 H   0  0  0  0  0  0  0  0  0  0  0  0
   48.9898   34.1065   40.8403 H   0  0  0  0  0  0  0  0  0  0  0  0
   46.7570   35.4472   41.4805 H   0  0  0  0  0  0  0  0  0  0  0  0
   46.0403   34.2088   40.3312 H   0  0  0  0  0  0  0  0  0  0  0  0
   48.2669   34.2331   43.3109 H   0  0  0  0  0  0  0  0  0  0  0  0
   46.6696   35.1324   43.2670 H   0  0  0  0  0  0  0  0  0  0  0  0
   47.5859   33.4130   45.2186 H   0  0  0  0  0  0  0  0  0  0  0  0
   45.9128   34.0763   44.9643 H   0  0  0  0  0  0  0  0  0  0  0  0
   44.5216   31.4727   43.4509 H   0  0  0  0  0  0  0  0  0  0  0  0
   44.5170   33.2038   43.9243 H   0  0  0  0  0  0  0  0  0  0  0  0
   44.7946   33.4062   41.6580 H   0  0  0  0  0  0  0  0  0  0  0  0
   45.7225   31.8345   41.5545 H   0  0  0  0  0  0  0  0  0  0  0  0
   45.2231   33.4944   37.9866 H   0  0  0  0  0  0  0  0  0  0  0  0
   48.7714   32.6656   35.6432 H   0  0  0  0  0  0  0  0  0  0  0  0
   45.1254   30.5273   33.4020 H   0  0  0  0  0  0  0  0  0  0  0  0
  1  2  1  0
  2  3  1  0
  3  8  1  0
  3  4  1  0
  4  5  1  0
  6  5  1  0
  7  6  1  0
  8  7  1  0
  9  1  1  0
 10  9  1  0
 11 10  2  0
 13 12  2  0
 13 10  1  0
 14 13  1  0
 15 16  1  0
 15 14  2  0
 16 17  2  0
 17 12  1  0
 18 19  2  0
 18 16  1  0
  1 20  1  0
  1 21  1  0
  2 22  1  0
  2 23  1  0
  4 24  1  0
  4 25  1  0
  5 26  1  0
  5 27  1  0
  7 28  1  0
  7 29  1  0
  8 30  1  0
  8 31  1  0
 12 32  1  0
 14 33  1  0
 18 34  1  0
M  ISO  8  20   8  21   8  22   8  23   8  24  13  25  13  26  13  27  13
M  ISO  7  28  13  29  13  30  13  31  13  32  14  33  14  34   6
M  END
>  <minimizedAffinity>  (1) 
-3.50810385

>  <minimizedRMSD>  (1) 
1.11548638

$$$$
