
     RDKit          3D

 38 39  0  0  0  0  0  0  0  0999 V2000
   48.1630   34.5770   40.3410 C   0  0  0  0  0  0  0  0  0  0  0  0
   46.8350   34.5020   41.0720 C   0  0  0  0  0  0  0  0  0  0  0  0
   46.7740   33.4970   42.1010 N   0  0  0  0  0  0  0  0  0  0  0  0
   47.1120   34.1730   43.3310 C   0  0  0  0  0  0  0  0  0  0  0  0
   46.7210   33.4450   44.5590 C   0  0  0  0  0  0  0  0  0  0  0  0
   46.2520   32.1400   44.2860 O   0  0  0  0  0  0  0  0  0  0  0  0
   45.1250   32.3630   43.5000 C   0  0  0  0  0  0  0  0  0  0  0  0
   45.5760   32.7430   42.1230 C   0  0  0  0  0  0  0  0  0  0  0  0
   48.1160   33.6130   39.3100 O   0  0  0  0  0  0  0  0  0  0  0  0
   47.9790   33.9650   37.9610 C   0  0  0  0  0  0  0  0  0  0  0  0
   48.6940   34.8470   37.4860 O   0  0  0  0  0  0  0  0  0  0  0  0
   45.6250   33.0180   37.7260 C   0  0  0  0  0  0  0  0  0  0  0  0
   46.9310   33.1820   37.2580 C   0  0  0  0  0  0  0  0  0  0  0  0
   47.3140   32.5870   36.0560 C   0  0  0  0  0  0  0  0  0  0  0  0
   46.3620   31.8570   35.3860 N   0  0  0  0  0  0  0  0  0  0  0  0
   45.1080   31.7350   35.8940 C   0  0  0  0  0  0  0  0  0  0  0  0
   44.7440   32.3050   37.0430 N   0  0  0  0  0  0  0  0  0  0  0  0
   44.1050   30.9370   35.1410 C   0  0  0  0  0  0  0  0  0  0  0  0
   44.6810   30.4890   33.7930 C   0  0  0  0  0  0  0  0  0  0  0  0
   48.3044   35.5811   39.9145 H   0  0  0  0  0  0  0  0  0  0  0  0
   49.0019   34.3825   41.0254 H   0  0  0  0  0  0  0  0  0  0  0  0
   46.6430   35.4806   41.5362 H   0  0  0  0  0  0  0  0  0  0  0  0
   46.0804   34.2257   40.3208 H   0  0  0  0  0  0  0  0  0  0  0  0
   48.2016   34.3227   43.3526 H   0  0  0  0  0  0  0  0  0  0  0  0
   46.5479   35.1173   43.3342 H   0  0  0  0  0  0  0  0  0  0  0  0
   47.5963   33.3743   45.2215 H   0  0  0  0  0  0  0  0  0  0  0  0
   45.9005   34.0037   45.0330 H   0  0  0  0  0  0  0  0  0  0  0  0
   44.5181   31.4468   43.4524 H   0  0  0  0  0  0  0  0  0  0  0  0
   44.5154   33.1694   43.9338 H   0  0  0  0  0  0  0  0  0  0  0  0
   44.7820   33.3400   41.6506 H   0  0  0  0  0  0  0  0  0  0  0  0
   45.7774   31.8064   41.5824 H   0  0  0  0  0  0  0  0  0  0  0  0
   45.3251   33.4876   38.6745 H   0  0  0  0  0  0  0  0  0  0  0  0
   48.3348   32.6975   35.6612 H   0  0  0  0  0  0  0  0  0  0  0  0
   43.8309   30.0499   35.7308 H   0  0  0  0  0  0  0  0  0  0  0  0
   43.2167   31.5600   34.9600 H   0  0  0  0  0  0  0  0  0  0  0  0
   45.5387   29.8219   33.9643 H   0  0  0  0  0  0  0  0  0  0  0  0
   43.9074   29.9528   33.2237 H   0  0  0  0  0  0  0  0  0  0  0  0
   45.0102   31.3708   33.2237 H   0  0  0  0  0  0  0  0  0  0  0  0
  1  2  1  0
  2  3  1  0
  3  8  1  0
  3  4  1  0
  4  5  1  0
  6  5  1  0
  7  6  1  0
  8  7  1  0
  9  1  1  0
 10  9  1  0
 11 10  2  0
 13 12  2  0
 13 10  1  0
 14 13  1  0
 15 16  1  0
 15 14  2  0
 16 17  2  0
 17 12  1  0
 18 16  1  0
 19 18  1  0
  1 20  1  0
  1 21  1  0
  2 22  1  0
  2 23  1  0
  4 24  1  0
  4 25  1  0
  5 26  1  0
  5 27  1  0
  7 28  1  0
  7 29  1  0
  8 30  1  0
  8 31  1  0
 12 32  1  0
 14 33  1  0
 18 34  1  0
 18 35  1  0
 19 36  1  0
 19 37  1  0
 19 38  1  0
M  ISO  8  20   8  21   8  22   8  23   8  24  13  25  13  26  13  27  13
M  ISO  8  28  13  29  13  30  13  31  13  32  14  33  14  34   8  35   8
M  ISO  3  36   8  37   8  38   8
M  END
>  <minimizedAffinity>  (1) 
-3.49317312

>  <minimizedRMSD>  (1) 
0.940477967

$$$$
