
     RDKit          3D

 39 41  0  0  0  0  0  0  0  0999 V2000
   48.0020   34.5990   40.4540 C   0  0  0  0  0  0  0  0  0  0  0  0
   46.5990   34.4050   40.9980 C   0  0  0  0  0  0  0  0  0  0  0  0
   46.5100   34.4320   42.4300 N   0  0  0  0  0  0  0  0  0  0  0  0
   45.5150   35.4280   42.7680 C   0  0  0  0  0  0  0  0  0  0  0  0
   44.9370   35.2930   44.1160 C   0  0  0  0  0  0  0  0  0  0  0  0
   45.6490   34.3700   44.9110 O   0  0  0  0  0  0  0  0  0  0  0  0
   45.4970   33.1650   44.2610 C   0  0  0  0  0  0  0  0  0  0  0  0
   46.3780   33.1670   43.0490 C   0  0  0  0  0  0  0  0  0  0  0  0
   48.2020   33.6340   39.4380 O   0  0  0  0  0  0  0  0  0  0  0  0
   48.0580   33.9550   38.0780 C   0  0  0  0  0  0  0  0  0  0  0  0
   48.6400   34.9300   37.6110 O   0  0  0  0  0  0  0  0  0  0  0  0
   45.7840   33.2030   37.2000 C   0  0  0  0  0  0  0  0  0  0  0  0
   47.1640   33.0100   37.3590 C   0  0  0  0  0  0  0  0  0  0  0  0
   47.7850   31.8710   36.8290 C   0  0  0  0  0  0  0  0  0  0  0  0
   46.9920   30.9580   36.1520 N   0  0  0  0  0  0  0  0  0  0  0  0
   45.6510   31.2210   36.0410 C   0  0  0  0  0  0  0  0  0  0  0  0
   45.0560   32.3030   36.5430 N   0  0  0  0  0  0  0  0  0  0  0  0
   44.8020   30.2220   35.3050 C   0  0  0  0  0  0  0  0  0  0  0  0
   43.4960   30.6400   34.7500 C   0  0  0  0  0  0  0  0  0  0  0  0
   44.6280   30.4660   33.8090 C   0  0  0  0  0  0  0  0  0  0  0  0
   48.1061   35.6112   40.0362 H   0  0  0  0  0  0  0  0  0  0  0  0
   48.7475   34.4793   41.2539 H   0  0  0  0  0  0  0  0  0  0  0  0
   45.9610   35.2070   40.5984 H   0  0  0  0  0  0  0  0  0  0  0  0
   46.2754   33.4023   40.6820 H   0  0  0  0  0  0  0  0  0  0  0  0
   45.9855   36.4197   42.6954 H   0  0  0  0  0  0  0  0  0  0  0  0
   44.6846   35.2879   42.0603 H   0  0  0  0  0  0  0  0  0  0  0  0
   44.9570   36.2756   44.6101 H   0  0  0  0  0  0  0  0  0  0  0  0
   43.9076   34.9210   44.0065 H   0  0  0  0  0  0  0  0  0  0  0  0
   45.7883   32.3423   44.9306 H   0  0  0  0  0  0  0  0  0  0  0  0
   44.4469   33.0252   43.9647 H   0  0  0  0  0  0  0  0  0  0  0  0
   45.9554   32.4659   42.3143 H   0  0  0  0  0  0  0  0  0  0  0  0
   47.3828   32.8748   43.3882 H   0  0  0  0  0  0  0  0  0  0  0  0
   45.3027   34.0991   37.6187 H   0  0  0  0  0  0  0  0  0  0  0  0
   48.8663   31.7070   36.9465 H   0  0  0  0  0  0  0  0  0  0  0  0
   45.1253   29.3940   35.9529 H   0  0  0  0  0  0  0  0  0  0  0  0
   42.6588   29.9268   34.7321 H   0  0  0  0  0  0  0  0  0  0  0  0
   42.8002   31.4639   34.9668 H   0  0  0  0  0  0  0  0  0  0  0  0
   44.6377   29.6201   33.1059 H   0  0  0  0  0  0  0  0  0  0  0  0
   45.1237   31.0938   33.0539 H   0  0  0  0  0  0  0  0  0  0  0  0
  1  2  1  0
  2  3  1  0
  3  4  1  0
  3  8  1  0
  4  5  1  0
  5  6  1  0
  7  6  1  0
  8  7  1  0
  9  1  1  0
 10  9  1  0
 11 10  2  0
 12 13  2  0
 13 10  1  0
 14 13  1  0
 15 14  2  0
 16 15  1  0
 16 17  2  0
 17 12  1  0
 18 16  1  0
 19 18  1  0
 20 19  1  0
 20 18  1  0
  1 21  1  0
  1 22  1  0
  2 23  1  0
  2 24  1  0
  4 25  1  0
  4 26  1  0
  5 27  1  0
  5 28  1  0
  7 29  1  0
  7 30  1  0
  8 31  1  0
  8 32  1  0
 12 33  1  0
 14 34  1  0
 18 35  1  0
 19 36  1  0
 19 37  1  0
 20 38  1  0
 20 39  1  0
M  ISO  8  21   8  22   8  23   8  24   8  25  13  26  13  27  13  28  13
M  ISO  8  29  13  30  13  31  13  32  13  33  14  34  14  35  13  36  13
M  ISO  3  37  13  38  13  39  13
M  END
>  <minimizedAffinity>  (1) 
-3.81397176

>  <minimizedRMSD>  (1) 
1.43503153

$$$$
