
     RDKit          3D

 53 57  0  0  1  0  0  0  0  0999 V2000
   46.2790   32.7700   37.8790 C   0  0  0  0  0  0  0  0  0  0  0  0
   47.6090   33.2180   38.0490 C   0  0  0  0  0  0  0  0  0  0  0  0
   48.0050   33.9120   39.2110 C   0  0  0  0  0  0  0  0  0  0  0  0
   47.0350   34.1390   40.1830 N   0  0  0  0  0  0  0  0  0  0  0  0
   45.7660   33.6680   39.9350 C   0  0  0  0  0  0  0  0  0  0  0  0
   45.3840   33.0070   38.8290 N   0  0  0  0  0  0  0  0  0  0  0  0
   44.7430   33.9390   41.0070 C   0  0  1  0  0  0  0  0  0  0  0  0
   44.8380   35.1690   41.7940 C   0  0  0  0  0  0  0  0  0  0  0  0
   43.8140   35.1240   40.7560 C   0  0  2  0  0  0  0  0  0  0  0  0
   42.3810   34.9860   41.0000 C   0  0  0  0  0  0  0  0  0  0  0  0
   41.6170   34.9460   42.1500 C   0  0  0  0  0  0  0  0  0  0  0  0
   40.3070   34.8040   41.9010 N   0  0  0  0  0  0  0  0  0  0  0  0
   40.2120   34.7500   40.5410 C   0  0  0  0  0  0  0  0  0  0  0  0
   39.0530   34.6070   39.8100 C   0  0  0  0  0  0  0  0  0  0  0  0
   39.2000   34.5760   38.4350 C   0  0  0  0  0  0  0  0  0  0  0  0
   40.4310   34.6800   37.7800 C   0  0  0  0  0  0  0  0  0  0  0  0
   41.5180   34.8190   38.6150 C   0  0  0  0  0  0  0  0  0  0  0  0
   41.4690   34.8590   39.9820 C   0  0  0  0  0  0  0  0  0  0  0  0
   48.6830   32.9930   37.0420 C   0  0  0  0  0  0  0  0  0  0  0  0
   49.8670   32.7370   37.2620 O   0  0  0  0  0  0  0  0  0  0  0  0
   48.2240   33.1010   35.7310 O   0  0  0  0  0  0  0  0  0  0  0  0
   48.6960   32.2260   34.7080 C   0  0  0  0  0  0  0  0  0  0  0  0
   48.6970   32.9970   33.4130 C   0  0  0  0  0  0  0  0  0  0  0  0
   49.1850   32.2700   32.2810 N   0  0  0  0  0  0  0  0  0  0  0  0
   48.3060   31.1390   32.0770 C   0  0  0  0  0  0  0  0  0  0  0  0
   48.3290   30.5680   30.7160 C   0  0  0  0  0  0  0  0  0  0  0  0
   49.4180   31.0510   29.9630 O   0  0  0  0  0  0  0  0  0  0  0  0
   49.1690   32.3950   29.8400 C   0  0  0  0  0  0  0  0  0  0  0  0
   49.4740   33.0530   31.1470 C   0  0  0  0  0  0  0  0  0  0  0  0
   45.9886   32.2292   36.9662 H   0  0  0  0  0  0  0  0  0  0  0  0
   49.0399   34.2603   39.3440 H   0  0  0  0  0  0  0  0  0  0  0  0
   44.6425   32.8727   41.2580 H   0  0  0  0  0  0  0  0  0  0  0  0
   44.5373   35.1595   42.8521 H   0  0  0  0  0  0  0  0  0  0  0  0
   45.6597   35.8642   42.0211 H   0  0  0  0  0  0  0  0  0  0  0  0
   43.5515   35.7940   39.9240 H   0  0  0  0  0  0  0  0  0  0  0  0
   42.0386   35.0225   43.1631 H   0  0  0  0  0  0  0  0  0  0  0  0
   39.5403   34.7480   42.5865 H   0  0  0  0  0  0  0  0  0  0  0  0
   38.0678   34.5224   40.2919 H   0  0  0  0  0  0  0  0  0  0  0  0
   38.2948   34.4628   37.8203 H   0  0  0  0  0  0  0  0  0  0  0  0
   40.5242   34.6530   36.6843 H   0  0  0  0  0  0  0  0  0  0  0  0
   42.5081   34.9050   38.1434 H   0  0  0  0  0  0  0  0  0  0  0  0
   49.7159   31.8885   34.9443 H   0  0  0  0  0  0  0  0  0  0  0  0
   48.0493   31.3397   34.6292 H   0  0  0  0  0  0  0  0  0  0  0  0
   47.6639   33.3088   33.1998 H   0  0  0  0  0  0  0  0  0  0  0  0
   49.3852   33.8429   33.5573 H   0  0  0  0  0  0  0  0  0  0  0  0
   48.5979   30.3482   32.7837 H   0  0  0  0  0  0  0  0  0  0  0  0
   47.2835   31.5119   32.2365 H   0  0  0  0  0  0  0  0  0  0  0  0
   48.4057   29.4732   30.7907 H   0  0  0  0  0  0  0  0  0  0  0  0
   47.4016   30.8660   30.2050 H   0  0  0  0  0  0  0  0  0  0  0  0
   49.8076   32.8205   29.0519 H   0  0  0  0  0  0  0  0  0  0  0  0
   48.1156   32.5610   29.5700 H   0  0  0  0  0  0  0  0  0  0  0  0
   50.5459   33.2994   31.1648 H   0  0  0  0  0  0  0  0  0  0  0  0
   48.8254   33.9393   31.2077 H   0  0  0  0  0  0  0  0  0  0  0  0
  1  2  2  0
  1  6  1  0
  2  3  1  0
  3  4  2  0
  5  4  1  0
  5  7  1  0
  6  5  2  0
  7  8  1  0
  9 10  1  0
  9  7  1  0
  9  8  1  0
 10 11  2  0
 12 11  1  0
 13 12  1  0
 14 13  2  0
 15 14  1  0
 16 15  2  0
 16 17  1  0
 17 18  2  0
 18 13  1  0
 18 10  1  0
 19 20  2  0
 19  2  1  0
 21 19  1  0
 22 21  1  0
 23 22  1  0
 24 23  1  0
 25 24  1  0
 26 25  1  0
 27 26  1  0
 28 27  1  0
 28 29  1  0
 29 24  1  0
  1 30  1  0
  3 31  1  0
  7 32  1  1
  8 33  1  0
  8 34  1  0
  9 35  1  6
 11 36  1  0
 12 37  1  0
 14 38  1  0
 15 39  1  0
 16 40  1  0
 17 41  1  0
 22 42  1  0
 22 43  1  0
 23 44  1  0
 23 45  1  0
 25 46  1  0
 25 47  1  0
 26 48  1  0
 26 49  1  0
 28 50  1  0
 28 51  1  0
 29 52  1  0
 29 53  1  0
M  ISO  8  30  14  31  14  32  13  33  13  34  13  35  13  36  14  37   9
M  ISO  8  38  14  39  14  40  14  41  14  42   8  43   8  44   8  45   8
M  ISO  8  46  13  47  13  48  13  49  13  50  13  51  13  52  13  53  13
M  END
>  <minimizedAffinity>  (1) 
-6.4565649

>  <minimizedRMSD>  (1) 
9.71571064

$$$$
