
     RDKit          3D

 49 52  0  0  1  0  0  0  0  0999 V2000
   48.8210   32.8310   39.4630 C   0  0  0  0  0  0  0  0  0  0  0  0
   49.5780   31.9120   39.7510 O   0  0  0  0  0  0  0  0  0  0  0  0
   46.5570   33.7660   40.1820 C   0  0  0  0  0  0  0  0  0  0  0  0
   47.9440   33.5990   40.3870 C   0  0  0  0  0  0  0  0  0  0  0  0
   48.5850   34.1660   41.5080 C   0  0  0  0  0  0  0  0  0  0  0  0
   47.8000   34.8940   42.4000 N   0  0  0  0  0  0  0  0  0  0  0  0
   46.4740   35.0050   42.1260 C   0  0  0  0  0  0  0  0  0  0  0  0
   45.8550   34.4680   41.0610 N   0  0  0  0  0  0  0  0  0  0  0  0
   45.6300   35.8010   43.0820 C   0  0  1  0  0  0  0  0  0  0  0  0
   44.1890   35.5650   43.1680 C   0  0  0  0  0  0  0  0  0  0  0  0
   44.9960   35.0010   44.2340 C   0  0  1  0  0  0  0  0  0  0  0  0
   45.4810   33.6380   44.3650 C   0  0  0  0  0  0  0  0  0  0  0  0
   46.4310   33.3840   45.3640 C   0  0  0  0  0  0  0  0  0  0  0  0
   46.9440   32.1150   45.5730 C   0  0  0  0  0  0  0  0  0  0  0  0
   46.5430   31.0440   44.8060 C   0  0  0  0  0  0  0  0  0  0  0  0
   45.6150   31.2550   43.8190 C   0  0  0  0  0  0  0  0  0  0  0  0
   45.1320   32.5360   43.6490 C   0  0  0  0  0  0  0  0  0  0  0  0
   48.7210   33.2580   38.1390 O   0  0  0  0  0  0  0  0  0  0  0  0
   49.0910   32.4240   37.0550 C   0  0  0  0  0  0  0  0  0  0  0  0
   48.5150   33.0230   35.7870 C   0  0  0  0  0  0  0  0  0  0  0  0
   48.7290   32.2450   34.6080 N   0  0  0  0  0  0  0  0  0  0  0  0
   47.6030   31.3510   34.4750 C   0  0  0  0  0  0  0  0  0  0  0  0
   47.3850   30.8100   33.1250 C   0  0  0  0  0  0  0  0  0  0  0  0
   48.4800   31.0730   32.2710 O   0  0  0  0  0  0  0  0  0  0  0  0
   48.5360   32.4440   32.1800 C   0  0  0  0  0  0  0  0  0  0  0  0
   49.0770   32.9860   33.4620 C   0  0  0  0  0  0  0  0  0  0  0  0
   46.0654   33.3198   39.3049 H   0  0  0  0  0  0  0  0  0  0  0  0
   49.6651   34.0382   41.6722 H   0  0  0  0  0  0  0  0  0  0  0  0
   46.2507   36.7002   42.9548 H   0  0  0  0  0  0  0  0  0  0  0  0
   43.5168   36.4074   43.3885 H   0  0  0  0  0  0  0  0  0  0  0  0
   43.4511   35.1379   42.4729 H   0  0  0  0  0  0  0  0  0  0  0  0
   44.8476   35.0244   45.3237 H   0  0  0  0  0  0  0  0  0  0  0  0
   46.7776   34.2136   45.9978 H   0  0  0  0  0  0  0  0  0  0  0  0
   47.6875   31.9591   46.3685 H   0  0  0  0  0  0  0  0  0  0  0  0
   46.9583   30.0406   44.9814 H   0  0  0  0  0  0  0  0  0  0  0  0
   45.2664   30.4284   43.1824 H   0  0  0  0  0  0  0  0  0  0  0  0
   44.3878   32.6809   42.8520 H   0  0  0  0  0  0  0  0  0  0  0  0
   50.1873   32.3735   36.9798 H   0  0  0  0  0  0  0  0  0  0  0  0
   48.7048   31.4053   37.2068 H   0  0  0  0  0  0  0  0  0  0  0  0
   47.4304   33.1423   35.9265 H   0  0  0  0  0  0  0  0  0  0  0  0
   49.0388   33.9772   35.6286 H   0  0  0  0  0  0  0  0  0  0  0  0
   47.7591   30.5040   35.1592 H   0  0  0  0  0  0  0  0  0  0  0  0
   46.7105   31.9495   34.7102 H   0  0  0  0  0  0  0  0  0  0  0  0
   47.2425   29.7216   33.1963 H   0  0  0  0  0  0  0  0  0  0  0  0
   46.4954   31.2983   32.7005 H   0  0  0  0  0  0  0  0  0  0  0  0
   49.1950   32.7334   31.3481 H   0  0  0  0  0  0  0  0  0  0  0  0
   47.5301   32.8493   31.9960 H   0  0  0  0  0  0  0  0  0  0  0  0
   50.1743   33.0082   33.3886 H   0  0  0  0  0  0  0  0  0  0  0  0
   48.6314   33.9835   33.5900 H   0  0  0  0  0  0  0  0  0  0  0  0
  1  2  2  0
  1  4  1  0
  3  4  2  0
  3  8  1  0
  4  5  1  0
  5  6  2  0
  7  6  1  0
  7  9  1  0
  8  7  2  0
  9 10  1  0
  9 11  1  0
 10 11  1  0
 11 12  1  0
 12 13  2  0
 13 14  1  0
 15 14  2  0
 16 15  1  0
 17 16  2  0
 17 12  1  0
 18  1  1  0
 19 18  1  0
 20 19  1  0
 21 20  1  0
 22 21  1  0
 23 22  1  0
 24 23  1  0
 25 24  1  0
 25 26  1  0
 26 21  1  0
  3 27  1  0
  5 28  1  0
  9 29  1  1
 10 30  1  0
 10 31  1  0
 11 32  1  1
 13 33  1  0
 14 34  1  0
 15 35  1  0
 16 36  1  0
 17 37  1  0
 19 38  1  0
 19 39  1  0
 20 40  1  0
 20 41  1  0
 22 42  1  0
 22 43  1  0
 23 44  1  0
 23 45  1  0
 25 46  1  0
 25 47  1  0
 26 48  1  0
 26 49  1  0
M  ISO  8  27  14  28  14  29  13  30  13  31  13  32  13  33  14  34  14
M  ISO  8  35  14  36  14  37  14  38   8  39   8  40   8  41   8  42  13
M  ISO  7  43  13  44  13  45  13  46  13  47  13  48  13  49  13
M  END
>  <minimizedAffinity>  (1) 
-5.13251638

>  <minimizedRMSD>  (1) 
9.16456604

$$$$
