
     RDKit          3D

 53 57  0  0  1  0  0  0  0  0999 V2000
   46.6430   32.0830   38.1900 C   0  0  0  0  0  0  0  0  0  0  0  0
   47.9720   32.5190   38.3910 C   0  0  0  0  0  0  0  0  0  0  0  0
   49.0620   31.7290   37.9880 C   0  0  0  0  0  0  0  0  0  0  0  0
   48.7840   30.5070   37.3860 N   0  0  0  0  0  0  0  0  0  0  0  0
   47.4720   30.1620   37.2290 C   0  0  0  0  0  0  0  0  0  0  0  0
   46.4220   30.9100   37.6100 N   0  0  0  0  0  0  0  0  0  0  0  0
   47.2000   28.8280   36.5790 C   0  0  1  0  0  0  0  0  0  0  0  0
   45.9050   28.5790   35.9490 C   0  0  0  0  0  0  0  0  0  0  0  0
   47.0260   28.8700   35.0480 C   0  0  1  0  0  0  0  0  0  0  0  0
   47.2640   30.1510   34.4650 N   0  0  0  0  0  0  0  0  0  0  0  0
   46.3130   31.0840   34.2580 C   0  0  0  0  0  0  0  0  0  0  0  0
   46.8280   32.1950   33.6930 N   0  0  0  0  0  0  0  0  0  0  0  0
   48.1530   31.9730   33.5290 C   0  0  0  0  0  0  0  0  0  0  0  0
   49.1570   32.7700   33.0000 C   0  0  0  0  0  0  0  0  0  0  0  0
   48.9210   33.9290   32.5590 O   0  0  0  0  0  0  0  0  0  0  0  0
   50.4090   32.2450   32.9780 N   0  0  0  0  0  0  0  0  0  0  0  0
   50.6470   30.9910   33.4570 C   0  0  0  0  0  0  0  0  0  0  0  0
   52.0180   30.6150   33.3490 N   0  0  0  0  0  0  0  0  0  0  0  0
   49.6760   30.2160   33.9710 N   0  0  0  0  0  0  0  0  0  0  0  0
   48.4210   30.6980   34.0110 C   0  0  0  0  0  0  0  0  0  0  0  0
   48.3160   33.8210   39.0260 C   0  0  0  0  0  0  0  0  0  0  0  0
   48.4670   34.9050   38.4650 O   0  0  0  0  0  0  0  0  0  0  0  0
   48.4660   33.7130   40.4180 O   0  0  0  0  0  0  0  0  0  0  0  0
   48.1560   34.8100   41.2710 C   0  0  0  0  0  0  0  0  0  0  0  0
   46.6820   34.7180   41.6110 C   0  0  0  0  0  0  0  0  0  0  0  0
   46.3710   34.9910   42.9820 N   0  0  0  0  0  0  0  0  0  0  0  0
   45.1330   35.7480   42.9940 C   0  0  0  0  0  0  0  0  0  0  0  0
   44.4050   35.7280   44.2730 C   0  0  0  0  0  0  0  0  0  0  0  0
   45.1850   35.1800   45.3170 O   0  0  0  0  0  0  0  0  0  0  0  0
   45.3990   33.8830   44.9260 C   0  0  0  0  0  0  0  0  0  0  0  0
   46.4330   33.8840   43.8430 C   0  0  0  0  0  0  0  0  0  0  0  0
   45.7988   32.7106   38.5116 H   0  0  0  0  0  0  0  0  0  0  0  0
   50.0978   32.0653   38.1432 H   0  0  0  0  0  0  0  0  0  0  0  0
   47.8063   28.2792   37.3147 H   0  0  0  0  0  0  0  0  0  0  0  0
   45.4796   27.5649   35.9716 H   0  0  0  0  0  0  0  0  0  0  0  0
   44.9043   29.0173   36.0777 H   0  0  0  0  0  0  0  0  0  0  0  0
   47.3916   28.3628   34.1430 H   0  0  0  0  0  0  0  0  0  0  0  0
   45.2517   30.9554   34.5171 H   0  0  0  0  0  0  0  0  0  0  0  0
   51.1875   32.8003   32.5952 H   0  0  0  0  0  0  0  0  0  0  0  0
   52.3253   29.6884   33.6775 H   0  0  0  0  0  0  0  0  0  0  0  0
   52.7012   31.2699   32.9425 H   0  0  0  0  0  0  0  0  0  0  0  0
   48.7580   34.7534   42.1899 H   0  0  0  0  0  0  0  0  0  0  0  0
   48.3806   35.7646   40.7728 H   0  0  0  0  0  0  0  0  0  0  0  0
   46.1391   35.4413   40.9849 H   0  0  0  0  0  0  0  0  0  0  0  0
   46.3819   33.6765   41.4233 H   0  0  0  0  0  0  0  0  0  0  0  0
   45.3705   36.7946   42.7527 H   0  0  0  0  0  0  0  0  0  0  0  0
   44.4723   35.2692   42.2563 H   0  0  0  0  0  0  0  0  0  0  0  0
   44.1276   36.7584   44.5400 H   0  0  0  0  0  0  0  0  0  0  0  0
   43.5134   35.0962   44.1470 H   0  0  0  0  0  0  0  0  0  0  0  0
   45.7564   33.2907   45.7812 H   0  0  0  0  0  0  0  0  0  0  0  0
   44.4630   33.4388   44.5565 H   0  0  0  0  0  0  0  0  0  0  0  0
   46.3016   32.9726   43.2413 H   0  0  0  0  0  0  0  0  0  0  0  0
   47.4114   33.9306   44.3436 H   0  0  0  0  0  0  0  0  0  0  0  0
  1  2  2  0
  2 21  1  0
  3  2  1  0
  4  3  2  0
  5  4  1  0
  5  6  2  0
  6  1  1  0
  7  5  1  0
  8  7  1  0
  9  8  1  0
  9  7  1  0
 10  9  1  0
 11 10  1  0
 12 11  2  0
 13 12  1  0
 13 20  2  0
 14 13  1  0
 15 14  2  0
 16 14  1  0
 16 17  1  0
 17 19  2  0
 18 17  1  0
 19 20  1  0
 20 10  1  0
 21 23  1  0
 22 21  2  0
 23 24  1  0
 24 25  1  0
 25 26  1  0
 26 27  1  0
 26 31  1  0
 27 28  1  0
 28 29  1  0
 30 29  1  0
 31 30  1  0
  1 32  1  0
  3 33  1  0
  7 34  1  6
  8 35  1  0
  8 36  1  0
  9 37  1  6
 11 38  1  0
 16 39  1  0
 18 40  1  0
 18 41  1  0
 24 42  1  0
 24 43  1  0
 25 44  1  0
 25 45  1  0
 27 46  1  0
 27 47  1  0
 28 48  1  0
 28 49  1  0
 30 50  1  0
 30 51  1  0
 31 52  1  0
 31 53  1  0
M  ISO  8  32  14  33  14  34  13  35  13  36  13  37  13  38  14  39   9
M  ISO  8  42   8  43   8  44   8  45   8  46  13  47  13  48  13  49  13
M  ISO  4  50  13  51  13  52  13  53  13
M  END
>  <minimizedAffinity>  (1) 
-5.04001904

>  <minimizedRMSD>  (1) 
1.96423721

$$$$
