
     RDKit          3D

 52 55  0  0  1  0  0  0  0  0999 V2000
   48.1380   33.9140   39.0340 C   0  0  0  0  0  0  0  0  0  0  0  0
   48.5880   35.0640   38.9550 O   0  0  0  0  0  0  0  0  0  0  0  0
   46.7830   33.1920   36.9890 C   0  0  0  0  0  0  0  0  0  0  0  0
   47.8380   32.9940   37.9060 C   0  0  0  0  0  0  0  0  0  0  0  0
   48.6920   31.8800   37.7860 C   0  0  0  0  0  0  0  0  0  0  0  0
   48.4570   30.9970   36.7440 N   0  0  0  0  0  0  0  0  0  0  0  0
   47.4190   31.2620   35.9070 C   0  0  0  0  0  0  0  0  0  0  0  0
   46.6150   32.3070   36.0160 N   0  0  0  0  0  0  0  0  0  0  0  0
   47.1580   30.3030   34.7820 C   0  0  1  0  0  0  0  0  0  0  0  0
   46.3880   30.6910   33.6030 C   0  0  0  0  0  0  0  0  0  0  0  0
   47.8650   30.5660   33.4640 C   0  0  1  0  0  0  0  0  0  0  0  0
   48.7930   31.7090   33.3620 C   0  0  0  0  0  0  0  0  0  0  0  0
   48.2930   32.9630   32.7420 C   0  0  0  0  0  0  0  0  0  0  0  0
   49.4360   33.3810   31.7820 C   0  0  0  0  0  0  0  0  0  0  0  0
   49.8010   32.0020   31.2550 C   0  0  0  0  0  0  0  0  0  0  0  0
   50.0060   31.2520   32.5350 C   0  0  0  0  0  0  0  0  0  0  0  0
   47.8560   33.3480   40.2800 O   0  0  0  0  0  0  0  0  0  0  0  0
   47.9950   34.0830   41.4800 C   0  0  0  0  0  0  0  0  0  0  0  0
   46.6860   34.8160   41.7360 C   0  0  0  0  0  0  0  0  0  0  0  0
   46.3830   35.0010   43.1260 N   0  0  0  0  0  0  0  0  0  0  0  0
   45.1500   35.7570   43.1900 C   0  0  0  0  0  0  0  0  0  0  0  0
   44.4280   35.6650   44.4660 C   0  0  0  0  0  0  0  0  0  0  0  0
   45.1960   35.0450   45.4680 O   0  0  0  0  0  0  0  0  0  0  0  0
   45.4220   33.7590   45.0020 C   0  0  0  0  0  0  0  0  0  0  0  0
   46.4500   33.8230   43.9140 C   0  0  0  0  0  0  0  0  0  0  0  0
   46.1151   34.0613   37.0797 H   0  0  0  0  0  0  0  0  0  0  0  0
   49.5170   31.7166   38.4950 H   0  0  0  0  0  0  0  0  0  0  0  0
   47.0713   29.4712   35.4965 H   0  0  0  0  0  0  0  0  0  0  0  0
   45.7311   29.9556   33.1155 H   0  0  0  0  0  0  0  0  0  0  0  0
   45.6635   31.4910   33.3904 H   0  0  0  0  0  0  0  0  0  0  0  0
   48.5175   30.0265   32.7617 H   0  0  0  0  0  0  0  0  0  0  0  0
   49.0013   31.9777   34.4081 H   0  0  0  0  0  0  0  0  0  0  0  0
   47.3612   32.7812   32.1864 H   0  0  0  0  0  0  0  0  0  0  0  0
   48.0549   33.7393   33.4840 H   0  0  0  0  0  0  0  0  0  0  0  0
   49.0830   34.0501   30.9834 H   0  0  0  0  0  0  0  0  0  0  0  0
   50.2584   33.9521   32.2375 H   0  0  0  0  0  0  0  0  0  0  0  0
   48.9846   31.5682   30.6589 H   0  0  0  0  0  0  0  0  0  0  0  0
   50.6683   31.9900   30.5785 H   0  0  0  0  0  0  0  0  0  0  0  0
   49.9916   30.1646   32.3693 H   0  0  0  0  0  0  0  0  0  0  0  0
   50.9749   31.4486   33.0174 H   0  0  0  0  0  0  0  0  0  0  0  0
   48.2092   33.3988   42.3143 H   0  0  0  0  0  0  0  0  0  0  0  0
   48.8247   34.8002   41.3952 H   0  0  0  0  0  0  0  0  0  0  0  0
   46.7451   35.8060   41.2601 H   0  0  0  0  0  0  0  0  0  0  0  0
   45.8840   34.1913   41.3159 H   0  0  0  0  0  0  0  0  0  0  0  0
   45.3895   36.8153   43.0095 H   0  0  0  0  0  0  0  0  0  0  0  0
   44.4845   35.3225   42.4295 H   0  0  0  0  0  0  0  0  0  0  0  0
   44.1654   36.6802   44.7983 H   0  0  0  0  0  0  0  0  0  0  0  0
   43.5294   35.0522   44.3019 H   0  0  0  0  0  0  0  0  0  0  0  0
   45.7892   33.1257   45.8230 H   0  0  0  0  0  0  0  0  0  0  0  0
   44.4873   33.3286   44.6134 H   0  0  0  0  0  0  0  0  0  0  0  0
   46.3081   32.9557   43.2525 H   0  0  0  0  0  0  0  0  0  0  0  0
   47.4341   33.8241   44.4054 H   0  0  0  0  0  0  0  0  0  0  0  0
  1 17  1  0
  2  1  2  0
  3  4  2  0
  4  1  1  0
  5  4  1  0
  6  5  2  0
  7  8  2  0
  7  6  1  0
  8  3  1  0
  9  7  1  0
 10  9  1  0
 11 10  1  0
 11  9  1  0
 12 11  1  0
 13 12  1  0
 14 13  1  0
 15 14  1  0
 15 16  1  0
 16 12  1  0
 17 18  1  0
 18 19  1  0
 19 20  1  0
 20 21  1  0
 20 25  1  0
 21 22  1  0
 22 23  1  0
 24 23  1  0
 25 24  1  0
  3 26  1  0
  5 27  1  0
  9 28  1  1
 10 29  1  0
 10 30  1  0
 11 31  1  6
 12 32  1  0
 13 33  1  0
 13 34  1  0
 14 35  1  0
 14 36  1  0
 15 37  1  0
 15 38  1  0
 16 39  1  0
 16 40  1  0
 18 41  1  0
 18 42  1  0
 19 43  1  0
 19 44  1  0
 21 45  1  0
 21 46  1  0
 22 47  1  0
 22 48  1  0
 24 49  1  0
 24 50  1  0
 25 51  1  0
 25 52  1  0
M  ISO  8  26  14  27  14  28  13  29  13  30  13  31  13  32  13  33  13
M  ISO  8  34  13  35  13  36  13  37  13  38  13  39  13  40  13  41   8
M  ISO  8  42   8  43   8  44   8  45  13  46  13  47  13  48  13  49  13
M  ISO  3  50  13  51  13  52  13
M  END
>  <minimizedAffinity>  (1) 
-4.73343611

>  <minimizedRMSD>  (1) 
2.06369019

$$$$
