
     RDKit          3D

 54 57  0  0  1  0  0  0  0  0999 V2000
   49.1510   32.3660   41.0450 C   0  0  0  0  0  0  0  0  0  0  0  0
   49.4730   31.9320   39.9440 O   0  0  0  0  0  0  0  0  0  0  0  0
   47.6570   31.6700   42.9980 C   0  0  0  0  0  0  0  0  0  0  0  0
   48.8680   31.5770   42.2770 C   0  0  0  0  0  0  0  0  0  0  0  0
   49.8990   30.7100   42.6940 C   0  0  0  0  0  0  0  0  0  0  0  0
   49.6690   29.9580   43.8400 N   0  0  0  0  0  0  0  0  0  0  0  0
   48.4760   30.1060   44.4750 C   0  0  0  0  0  0  0  0  0  0  0  0
   47.4860   30.9290   44.0860 N   0  0  0  0  0  0  0  0  0  0  0  0
   48.2700   29.2900   45.7320 C   0  0  1  0  0  0  0  0  0  0  0  0
   49.4090   28.9390   46.5770 C   0  0  0  0  0  0  0  0  0  0  0  0
   48.5500   30.0560   47.0420 C   0  0  2  0  0  0  0  0  0  0  0  0
   47.5420   29.9020   48.0260 N   0  0  0  0  0  0  0  0  0  0  0  0
   46.2290   29.6430   47.4550 C   0  0  0  0  0  0  0  0  0  0  0  0
   45.1000   29.9630   48.4290 C   0  0  0  0  0  0  0  0  0  0  0  0
   45.1110   31.4370   48.7870 C   0  0  0  0  0  0  0  0  0  0  0  0
   46.5220   32.0070   48.5690 C   0  0  0  0  0  0  0  0  0  0  0  0
   47.4630   30.9200   49.0320 C   0  0  0  0  0  0  0  0  0  0  0  0
   49.0150   33.7420   41.2390 O   0  0  0  0  0  0  0  0  0  0  0  0
   48.2100   34.5390   40.3750 C   0  0  0  0  0  0  0  0  0  0  0  0
   46.7650   34.1250   40.5940 C   0  0  0  0  0  0  0  0  0  0  0  0
   46.0420   34.9950   41.4790 N   0  0  0  0  0  0  0  0  0  0  0  0
   44.6300   34.7440   41.2410 C   0  0  0  0  0  0  0  0  0  0  0  0
   43.7330   35.1670   42.3300 C   0  0  0  0  0  0  0  0  0  0  0  0
   44.4070   35.9730   43.2880 O   0  0  0  0  0  0  0  0  0  0  0  0
   45.3450   35.1290   43.8170 C   0  0  0  0  0  0  0  0  0  0  0  0
   46.4560   34.9770   42.8250 C   0  0  0  0  0  0  0  0  0  0  0  0
   46.8619   32.3511   42.6606 H   0  0  0  0  0  0  0  0  0  0  0  0
   50.8441   30.6322   42.1366 H   0  0  0  0  0  0  0  0  0  0  0  0
   47.4549   28.6990   45.2890 H   0  0  0  0  0  0  0  0  0  0  0  0
   49.4016   27.9860   47.1264 H   0  0  0  0  0  0  0  0  0  0  0  0
   50.4886   28.8388   46.3916 H   0  0  0  0  0  0  0  0  0  0  0  0
   48.7849   31.0720   47.3921 H   0  0  0  0  0  0  0  0  0  0  0  0
   46.1061   30.2635   46.5551 H   0  0  0  0  0  0  0  0  0  0  0  0
   46.1723   28.5710   47.2151 H   0  0  0  0  0  0  0  0  0  0  0  0
   44.1364   29.7108   47.9622 H   0  0  0  0  0  0  0  0  0  0  0  0
   45.2424   29.3725   49.3461 H   0  0  0  0  0  0  0  0  0  0  0  0
   44.3955   31.9749   48.1477 H   0  0  0  0  0  0  0  0  0  0  0  0
   44.8249   31.5601   49.8420 H   0  0  0  0  0  0  0  0  0  0  0  0
   46.6869   32.2328   47.5051 H   0  0  0  0  0  0  0  0  0  0  0  0
   46.6759   32.9467   49.1198 H   0  0  0  0  0  0  0  0  0  0  0  0
   47.0869   30.4827   49.9686 H   0  0  0  0  0  0  0  0  0  0  0  0
   48.4623   31.3463   49.2043 H   0  0  0  0  0  0  0  0  0  0  0  0
   48.4966   34.3654   39.3273 H   0  0  0  0  0  0  0  0  0  0  0  0
   48.3459   35.6086   40.5931 H   0  0  0  0  0  0  0  0  0  0  0  0
   46.2543   34.1186   39.6198 H   0  0  0  0  0  0  0  0  0  0  0  0
   46.7837   33.1312   41.0652 H   0  0  0  0  0  0  0  0  0  0  0  0
   44.3364   35.2824   40.3278 H   0  0  0  0  0  0  0  0  0  0  0  0
   44.5204   33.6527   41.1572 H   0  0  0  0  0  0  0  0  0  0  0  0
   42.9008   35.7447   41.9014 H   0  0  0  0  0  0  0  0  0  0  0  0
   43.3668   34.2642   42.8407 H   0  0  0  0  0  0  0  0  0  0  0  0
   45.7383   35.5508   44.7537 H   0  0  0  0  0  0  0  0  0  0  0  0
   44.8937   34.1493   44.0325 H   0  0  0  0  0  0  0  0  0  0  0  0
   46.9596   34.0181   43.0170 H   0  0  0  0  0  0  0  0  0  0  0  0
   47.1184   35.8447   42.9608 H   0  0  0  0  0  0  0  0  0  0  0  0
  1 18  1  0
  1  4  1  0
  2  1  2  0
  3  8  2  0
  4  5  2  0
  4  3  1  0
  5  6  1  0
  6  7  2  0
  7  9  1  0
  8  7  1  0
  9 10  1  0
  9 11  1  0
 10 11  1  0
 11 12  1  0
 12 17  1  0
 13 12  1  0
 13 14  1  0
 14 15  1  0
 16 15  1  0
 16 17  1  0
 19 20  1  0
 19 18  1  0
 20 21  1  0
 21 26  1  0
 22 21  1  0
 22 23  1  0
 23 24  1  0
 24 25  1  0
 26 25  1  0
  3 27  1  0
  5 28  1  0
  9 29  1  1
 10 30  1  0
 10 31  1  0
 11 32  1  6
 13 33  1  0
 13 34  1  0
 14 35  1  0
 14 36  1  0
 15 37  1  0
 15 38  1  0
 16 39  1  0
 16 40  1  0
 17 41  1  0
 17 42  1  0
 19 43  1  0
 19 44  1  0
 20 45  1  0
 20 46  1  0
 22 47  1  0
 22 48  1  0
 23 49  1  0
 23 50  1  0
 25 51  1  0
 25 52  1  0
 26 53  1  0
 26 54  1  0
M  ISO  8  27  14  28  14  29  13  30  13  31  13  32  13  33  13  34  13
M  ISO  8  35  13  36  13  37  13  38  13  39  13  40  13  41  13  42  13
M  ISO  8  43   8  44   8  45   8  46   8  47  13  48  13  49  13  50  13
M  ISO  4  51  13  52  13  53  13  54  13
M  END
>  <minimizedAffinity>  (1) 
-4.71804333

>  <minimizedRMSD>  (1) 
9.89831352

$$$$
