
     RDKit          3D

 49 52  0  0  1  0  0  0  0  0999 V2000
   47.0510   32.1240   39.2300 C   0  0  0  0  0  0  0  0  0  0  0  0
   46.5620   32.9060   38.1600 C   0  0  0  0  0  0  0  0  0  0  0  0
   45.1820   33.1490   38.0190 C   0  0  0  0  0  0  0  0  0  0  0  0
   44.3280   32.5940   38.9660 N   0  0  0  0  0  0  0  0  0  0  0  0
   44.8840   31.8550   39.9640 C   0  0  0  0  0  0  0  0  0  0  0  0
   46.1980   31.6180   40.1060 N   0  0  0  0  0  0  0  0  0  0  0  0
   43.9500   31.2480   40.9740 C   0  0  1  0  0  0  0  0  0  0  0  0
   44.4560   30.7170   42.2370 C   0  0  0  0  0  0  0  0  0  0  0  0
   43.7970   32.0250   42.2920 C   0  0  1  0  0  0  0  0  0  0  0  0
   44.4620   33.3100   42.4740 C   0  0  0  0  0  0  0  0  0  0  0  0
   43.7150   34.4190   42.0550 C   0  0  0  0  0  0  0  0  0  0  0  0
   44.2280   35.7130   42.1820 C   0  0  0  0  0  0  0  0  0  0  0  0
   45.4710   35.9520   42.7160 C   0  0  0  0  0  0  0  0  0  0  0  0
   46.2080   34.8620   43.1300 C   0  0  0  0  0  0  0  0  0  0  0  0
   45.6800   33.6080   42.9930 C   0  0  0  0  0  0  0  0  0  0  0  0
   47.4300   33.5230   37.1250 C   0  0  0  0  0  0  0  0  0  0  0  0
   48.1280   34.5380   37.2500 O   0  0  0  0  0  0  0  0  0  0  0  0
   47.4040   32.8320   35.9140 O   0  0  0  0  0  0  0  0  0  0  0  0
   48.5680   32.7400   35.0980 C   0  0  0  0  0  0  0  0  0  0  0  0
   48.3990   31.5330   34.1940 C   0  0  0  0  0  0  0  0  0  0  0  0
   48.1940   31.8440   32.8150 N   0  0  0  0  0  0  0  0  0  0  0  0
   49.1360   32.8700   32.4570 C   0  0  0  0  0  0  0  0  0  0  0  0
   49.4230   32.9850   31.0140 C   0  0  0  0  0  0  0  0  0  0  0  0
   48.5040   32.2550   30.2390 O   0  0  0  0  0  0  0  0  0  0  0  0
   48.7180   30.9460   30.6030 C   0  0  0  0  0  0  0  0  0  0  0  0
   48.1240   30.7200   31.9570 C   0  0  0  0  0  0  0  0  0  0  0  0
   48.1301   31.9376   39.3340 H   0  0  0  0  0  0  0  0  0  0  0  0
   44.7931   33.7567   37.1887 H   0  0  0  0  0  0  0  0  0  0  0  0
   43.2994   30.8392   40.1869 H   0  0  0  0  0  0  0  0  0  0  0  0
   43.9642   29.8446   42.6921 H   0  0  0  0  0  0  0  0  0  0  0  0
   45.4401   30.3505   42.5643 H   0  0  0  0  0  0  0  0  0  0  0  0
   42.9884   32.4405   42.9113 H   0  0  0  0  0  0  0  0  0  0  0  0
   42.7150   34.2698   41.6218 H   0  0  0  0  0  0  0  0  0  0  0  0
   43.6189   36.5646   41.8446 H   0  0  0  0  0  0  0  0  0  0  0  0
   45.8641   36.9751   42.8100 H   0  0  0  0  0  0  0  0  0  0  0  0
   47.2088   34.9999   43.5653 H   0  0  0  0  0  0  0  0  0  0  0  0
   46.2984   32.7647   43.3343 H   0  0  0  0  0  0  0  0  0  0  0  0
   48.6740   33.6514   34.4913 H   0  0  0  0  0  0  0  0  0  0  0  0
   49.4690   32.6342   35.7200 H   0  0  0  0  0  0  0  0  0  0  0  0
   49.3053   30.9149   34.2748 H   0  0  0  0  0  0  0  0  0  0  0  0
   47.4901   31.0150   34.5341 H   0  0  0  0  0  0  0  0  0  0  0  0
   48.7357   33.8347   32.8021 H   0  0  0  0  0  0  0  0  0  0  0  0
   50.0865   32.5916   32.9356 H   0  0  0  0  0  0  0  0  0  0  0  0
   49.3708   34.0448   30.7239 H   0  0  0  0  0  0  0  0  0  0  0  0
   50.4269   32.5741   30.8312 H   0  0  0  0  0  0  0  0  0  0  0  0
   48.2401   30.2762   29.8729 H   0  0  0  0  0  0  0  0  0  0  0  0
   49.7975   30.7364   30.6283 H   0  0  0  0  0  0  0  0  0  0  0  0
   47.0657   30.4489   31.8288 H   0  0  0  0  0  0  0  0  0  0  0  0
   48.7131   29.9217   32.4321 H   0  0  0  0  0  0  0  0  0  0  0  0
  1  6  2  0
  2  1  1  0
  3  2  2  0
  3  4  1  0
  4  5  2  0
  5  6  1  0
  5  7  1  0
  7  8  1  0
  7  9  1  0
  8  9  1  0
  9 10  1  0
 10 15  2  0
 11 12  2  0
 11 10  1  0
 12 13  1  0
 13 14  2  0
 15 14  1  0
 16 17  2  0
 16  2  1  0
 18 16  1  0
 19 18  1  0
 20 19  1  0
 21 20  1  0
 22 21  1  0
 23 22  1  0
 24 25  1  0
 24 23  1  0
 25 26  1  0
 26 21  1  0
  1 27  1  0
  3 28  1  0
  7 29  1  6
  8 30  1  0
  8 31  1  0
  9 32  1  1
 11 33  1  0
 12 34  1  0
 13 35  1  0
 14 36  1  0
 15 37  1  0
 19 38  1  0
 19 39  1  0
 20 40  1  0
 20 41  1  0
 22 42  1  0
 22 43  1  0
 23 44  1  0
 23 45  1  0
 25 46  1  0
 25 47  1  0
 26 48  1  0
 26 49  1  0
M  ISO  8  27  14  28  14  29  13  30  13  31  13  32  13  33  14  34  14
M  ISO  8  35  14  36  14  37  14  38   8  39   8  40   8  41   8  42  13
M  ISO  7  43  13  44  13  45  13  46  13  47  13  48  13  49  13
M  END
>  <minimizedAffinity>  (1) 
-4.67960501

>  <minimizedRMSD>  (1) 
8.75562477

$$$$
