
     RDKit          3D

 47 50  0  0  1  0  0  0  0  0999 V2000
   48.1260   34.0080   38.1290 C   0  0  0  0  0  0  0  0  0  0  0  0
   48.6720   35.0100   37.6710 O   0  0  0  0  0  0  0  0  0  0  0  0
   45.8510   33.1240   37.3760 C   0  0  0  0  0  0  0  0  0  0  0  0
   47.2610   33.0420   37.3980 C   0  0  0  0  0  0  0  0  0  0  0  0
   47.9430   32.0170   36.7100 C   0  0  0  0  0  0  0  0  0  0  0  0
   47.1730   31.0940   36.0100 N   0  0  0  0  0  0  0  0  0  0  0  0
   45.8220   31.2430   36.0390 C   0  0  0  0  0  0  0  0  0  0  0  0
   45.1640   32.2180   36.6920 N   0  0  0  0  0  0  0  0  0  0  0  0
   45.0050   30.2200   35.2930 C   0  0  1  0  0  0  0  0  0  0  0  0
   43.6750   30.5590   34.7870 C   0  0  0  0  0  0  0  0  0  0  0  0
   44.7730   30.5320   33.8010 C   0  0  2  0  0  0  0  0  0  0  0  0
   44.8160   29.3440   32.9210 C   0  0  0  0  0  0  0  0  0  0  0  0
   43.7720   28.4530   32.8370 C   0  0  0  0  0  0  0  0  0  0  0  0
   43.8630   27.3450   31.9900 C   0  0  0  0  0  0  0  0  0  0  0  0
   44.9690   27.1130   31.2310 N   0  0  0  0  0  0  0  0  0  0  0  0
   45.9660   28.0080   31.3430 C   0  0  0  0  0  0  0  0  0  0  0  0
   45.8990   29.0850   32.1550 N   0  0  0  0  0  0  0  0  0  0  0  0
   48.2910   33.6780   39.4740 O   0  0  0  0  0  0  0  0  0  0  0  0
   47.9710   34.6100   40.5030 C   0  0  0  0  0  0  0  0  0  0  0  0
   46.5800   34.2750   41.0060 C   0  0  0  0  0  0  0  0  0  0  0  0
   46.2430   34.8710   42.2700 N   0  0  0  0  0  0  0  0  0  0  0  0
   44.8950   35.3830   42.1490 C   0  0  0  0  0  0  0  0  0  0  0  0
   44.1890   35.5830   43.4240 C   0  0  0  0  0  0  0  0  0  0  0  0
   45.0740   35.5170   44.5300 O   0  0  0  0  0  0  0  0  0  0  0  0
   45.5250   34.2270   44.5080 C   0  0  0  0  0  0  0  0  0  0  0  0
   46.5230   34.0900   43.4010 C   0  0  0  0  0  0  0  0  0  0  0  0
   45.3302   33.9271   37.9179 H   0  0  0  0  0  0  0  0  0  0  0  0
   49.0408   31.9501   36.7263 H   0  0  0  0  0  0  0  0  0  0  0  0
   45.3908   29.3901   35.9033 H   0  0  0  0  0  0  0  0  0  0  0  0
   42.8964   29.7828   34.7505 H   0  0  0  0  0  0  0  0  0  0  0  0
   42.9271   31.3151   35.0681 H   0  0  0  0  0  0  0  0  0  0  0  0
   45.1757   31.2365   33.0584 H   0  0  0  0  0  0  0  0  0  0  0  0
   42.8641   28.6125   33.4372 H   0  0  0  0  0  0  0  0  0  0  0  0
   43.0188   26.6420   31.9352 H   0  0  0  0  0  0  0  0  0  0  0  0
   46.8775   27.8561   30.7463 H   0  0  0  0  0  0  0  0  0  0  0  0
   48.6976   34.5263   41.3246 H   0  0  0  0  0  0  0  0  0  0  0  0
   48.0057   35.6396   40.1173 H   0  0  0  0  0  0  0  0  0  0  0  0
   45.8516   34.6212   40.2579 H   0  0  0  0  0  0  0  0  0  0  0  0
   46.5564   33.1858   41.1578 H   0  0  0  0  0  0  0  0  0  0  0  0
   44.9432   36.3517   41.6301 H   0  0  0  0  0  0  0  0  0  0  0  0
   44.3248   34.6204   41.5983 H   0  0  0  0  0  0  0  0  0  0  0  0
   43.7058   36.5711   43.4127 H   0  0  0  0  0  0  0  0  0  0  0  0
   43.4441   34.7809   43.5328 H   0  0  0  0  0  0  0  0  0  0  0  0
   46.0018   33.9845   45.4692 H   0  0  0  0  0  0  0  0  0  0  0  0
   44.6840   33.5372   44.3439 H   0  0  0  0  0  0  0  0  0  0  0  0
   46.5518   33.0347   43.0921 H   0  0  0  0  0  0  0  0  0  0  0  0
   47.4848   34.4461   43.7988 H   0  0  0  0  0  0  0  0  0  0  0  0
  1 18  1  0
  2  1  2  0
  3  4  2  0
  4  1  1  0
  5  4  1  0
  6  7  1  0
  6  5  2  0
  7  8  2  0
  8  3  1  0
  9  7  1  0
 10  9  1  0
 11 10  1  0
 11  9  1  0
 12 11  1  0
 13 12  2  0
 14 13  1  0
 15 16  1  0
 15 14  2  0
 16 17  2  0
 17 12  1  0
 18 19  1  0
 19 20  1  0
 20 21  1  0
 21 26  1  0
 22 21  1  0
 22 23  1  0
 23 24  1  0
 25 24  1  0
 26 25  1  0
  3 27  1  0
  5 28  1  0
  9 29  1  6
 10 30  1  0
 10 31  1  0
 11 32  1  6
 13 33  1  0
 14 34  1  0
 16 35  1  0
 19 36  1  0
 19 37  1  0
 20 38  1  0
 20 39  1  0
 22 40  1  0
 22 41  1  0
 23 42  1  0
 23 43  1  0
 25 44  1  0
 25 45  1  0
 26 46  1  0
 26 47  1  0
M  ISO  8  27  14  28  14  29  13  30  13  31  13  32  13  33  14  34  14
M  ISO  8  35  14  36   8  37   8  38   8  39   8  40  13  41  13  42  13
M  ISO  5  43  13  44  13  45  13  46  13  47  13
M  END
>  <minimizedAffinity>  (1) 
-4.60670376

>  <minimizedRMSD>  (1) 
0.881913483

$$$$
