
     RDKit          3D

 52 55  0  0  1  0  0  0  0  0999 V2000
   47.2950   32.8010   39.5790 C   0  0  0  0  0  0  0  0  0  0  0  0
   48.2170   33.1760   38.8450 O   0  0  0  0  0  0  0  0  0  0  0  0
   45.0230   31.6810   39.9080 C   0  0  0  0  0  0  0  0  0  0  0  0
   45.8950   32.5120   39.1720 C   0  0  0  0  0  0  0  0  0  0  0  0
   45.4590   33.1230   37.9930 C   0  0  0  0  0  0  0  0  0  0  0  0
   44.1530   32.8820   37.5810 N   0  0  0  0  0  0  0  0  0  0  0  0
   43.3840   32.0680   38.3510 C   0  0  0  0  0  0  0  0  0  0  0  0
   43.7860   31.4750   39.4820 N   0  0  0  0  0  0  0  0  0  0  0  0
   41.9810   31.8150   37.8840 C   0  0  1  0  0  0  0  0  0  0  0  0
   40.9910   31.1870   38.7570 C   0  0  0  0  0  0  0  0  0  0  0  0
   40.8800   32.6460   38.5380 C   0  0  1  0  0  0  0  0  0  0  0  0
   41.1320   33.6470   39.4990 N   0  0  0  0  0  0  0  0  0  0  0  0
   40.2500   34.8070   39.2400 C   0  0  0  0  0  0  0  0  0  0  0  0
   40.6450   35.9970   40.0730 C   0  0  0  0  0  0  0  0  0  0  0  0
   40.7610   35.6770   41.4240 O   0  0  0  0  0  0  0  0  0  0  0  0
   40.2330   34.4320   41.6650 C   0  0  0  0  0  0  0  0  0  0  0  0
   40.9460   33.3280   40.8740 C   0  0  0  0  0  0  0  0  0  0  0  0
   47.5070   32.6020   40.9520 O   0  0  0  0  0  0  0  0  0  0  0  0
   48.0490   33.6390   41.7640 C   0  0  0  0  0  0  0  0  0  0  0  0
   47.0270   34.7540   41.8310 C   0  0  0  0  0  0  0  0  0  0  0  0
   46.5310   35.0240   43.1460 N   0  0  0  0  0  0  0  0  0  0  0  0
   45.3020   35.7770   42.9900 C   0  0  0  0  0  0  0  0  0  0  0  0
   44.4010   35.7420   44.1570 C   0  0  0  0  0  0  0  0  0  0  0  0
   45.0490   35.2220   45.3010 O   0  0  0  0  0  0  0  0  0  0  0  0
   45.3280   33.9160   44.9620 C   0  0  0  0  0  0  0  0  0  0  0  0
   46.4770   33.9150   44.0080 C   0  0  0  0  0  0  0  0  0  0  0  0
   45.3712   31.2041   40.8361 H   0  0  0  0  0  0  0  0  0  0  0  0
   46.1274   33.7735   37.4099 H   0  0  0  0  0  0  0  0  0  0  0  0
   42.3341   31.5990   36.8649 H   0  0  0  0  0  0  0  0  0  0  0  0
   40.2355   30.5142   38.3251 H   0  0  0  0  0  0  0  0  0  0  0  0
   41.0577   30.5533   39.6537 H   0  0  0  0  0  0  0  0  0  0  0  0
   40.0773   33.3217   38.2078 H   0  0  0  0  0  0  0  0  0  0  0  0
   40.3179   35.0772   38.1759 H   0  0  0  0  0  0  0  0  0  0  0  0
   39.2210   34.5247   39.5073 H   0  0  0  0  0  0  0  0  0  0  0  0
   41.6135   36.3753   39.7139 H   0  0  0  0  0  0  0  0  0  0  0  0
   39.8565   36.7573   39.9720 H   0  0  0  0  0  0  0  0  0  0  0  0
   40.3247   34.2119   42.7388 H   0  0  0  0  0  0  0  0  0  0  0  0
   39.1812   34.4472   41.3434 H   0  0  0  0  0  0  0  0  0  0  0  0
   40.3459   32.4085   40.9404 H   0  0  0  0  0  0  0  0  0  0  0  0
   41.9455   33.2054   41.3168 H   0  0  0  0  0  0  0  0  0  0  0  0
   48.2519   33.2557   42.7749 H   0  0  0  0  0  0  0  0  0  0  0  0
   48.9936   34.0078   41.3377 H   0  0  0  0  0  0  0  0  0  0  0  0
   47.4937   35.6720   41.4443 H   0  0  0  0  0  0  0  0  0  0  0  0
   46.1649   34.4256   41.2319 H   0  0  0  0  0  0  0  0  0  0  0  0
   45.5666   36.8265   42.7938 H   0  0  0  0  0  0  0  0  0  0  0  0
   44.7533   35.3047   42.1618 H   0  0  0  0  0  0  0  0  0  0  0  0
   44.0592   36.7647   44.3746 H   0  0  0  0  0  0  0  0  0  0  0  0
   43.5515   35.0862   43.9155 H   0  0  0  0  0  0  0  0  0  0  0  0
   45.5933   33.3459   45.8645 H   0  0  0  0  0  0  0  0  0  0  0  0
   44.4478   33.4488   44.4961 H   0  0  0  0  0  0  0  0  0  0  0  0
   46.4089   33.0063   43.3919 H   0  0  0  0  0  0  0  0  0  0  0  0
   47.3884   33.9570   44.6224 H   0  0  0  0  0  0  0  0  0  0  0  0
  1 18  1  0
  2  1  2  0
  4  1  1  0
  4  3  2  0
  5  4  1  0
  6  5  2  0
  6  7  1  0
  7  8  2  0
  8  3  1  0
  9  7  1  0
  9 11  1  0
  9 10  1  0
 11 10  1  0
 11 12  1  0
 12 17  1  0
 13 12  1  0
 13 14  1  0
 14 15  1  0
 15 16  1  0
 17 16  1  0
 18 19  1  0
 19 20  1  0
 20 21  1  0
 21 26  1  0
 22 21  1  0
 22 23  1  0
 23 24  1  0
 25 24  1  0
 26 25  1  0
  3 27  1  0
  5 28  1  0
  9 29  1  6
 10 30  1  0
 10 31  1  0
 11 32  1  6
 13 33  1  0
 13 34  1  0
 14 35  1  0
 14 36  1  0
 16 37  1  0
 16 38  1  0
 17 39  1  0
 17 40  1  0
 19 41  1  0
 19 42  1  0
 20 43  1  0
 20 44  1  0
 22 45  1  0
 22 46  1  0
 23 47  1  0
 23 48  1  0
 25 49  1  0
 25 50  1  0
 26 51  1  0
 26 52  1  0
M  ISO  8  27  14  28  14  29  13  30  13  31  13  32  13  33  13  34  13
M  ISO  8  35  13  36  13  37  13  38  13  39  13  40  13  41   8  42   8
M  ISO  8  43   8  44   8  45  13  46  13  47  13  48  13  49  13  50  13
M  ISO  2  51  13  52  13
M  END
>  <minimizedAffinity>  (1) 
-4.60450745

>  <minimizedRMSD>  (1) 
5.0571661

$$$$
