
     RDKit          3D

 46 49  0  0  1  0  0  0  0  0999 V2000
   48.1140   33.9910   38.1030 C   0  0  0  0  0  0  0  0  0  0  0  0
   48.6660   34.9820   37.6270 O   0  0  0  0  0  0  0  0  0  0  0  0
   45.8230   33.1010   37.3990 C   0  0  0  0  0  0  0  0  0  0  0  0
   47.2340   33.0240   37.3910 C   0  0  0  0  0  0  0  0  0  0  0  0
   47.9080   32.0020   36.6870 C   0  0  0  0  0  0  0  0  0  0  0  0
   47.1300   31.0730   35.9990 N   0  0  0  0  0  0  0  0  0  0  0  0
   45.7680   31.2260   36.0610 C   0  0  0  0  0  0  0  0  0  0  0  0
   45.1220   32.1970   36.7310 N   0  0  0  0  0  0  0  0  0  0  0  0
   44.9550   30.1950   35.3220 C   0  0  1  0  0  0  0  0  0  0  0  0
   43.5910   30.4970   34.8980 C   0  0  0  0  0  0  0  0  0  0  0  0
   44.6340   30.5500   33.8540 C   0  0  2  0  0  0  0  0  0  0  0  0
   44.8460   29.4180   32.9180 C   0  0  0  0  0  0  0  0  0  0  0  0
   43.9010   28.4660   32.6290 C   0  0  0  0  0  0  0  0  0  0  0  0
   44.5050   27.6170   31.7290 C   0  0  0  0  0  0  0  0  0  0  0  0
   45.7700   28.0400   31.4810 N   0  0  0  0  0  0  0  0  0  0  0  0
   45.9540   29.1380   32.2170 N   0  0  0  0  0  0  0  0  0  0  0  0
   48.2860   33.6780   39.4510 O   0  0  0  0  0  0  0  0  0  0  0  0
   47.9670   34.6020   40.4780 C   0  0  0  0  0  0  0  0  0  0  0  0
   46.5800   34.2610   40.9900 C   0  0  0  0  0  0  0  0  0  0  0  0
   46.2440   34.8720   42.2430 N   0  0  0  0  0  0  0  0  0  0  0  0
   44.8940   35.3650   42.1280 C   0  0  0  0  0  0  0  0  0  0  0  0
   44.2000   35.5880   43.4140 C   0  0  0  0  0  0  0  0  0  0  0  0
   45.0830   35.5210   44.5060 O   0  0  0  0  0  0  0  0  0  0  0  0
   45.5420   34.2260   44.4900 C   0  0  0  0  0  0  0  0  0  0  0  0
   46.5350   34.0950   43.3810 C   0  0  0  0  0  0  0  0  0  0  0  0
   45.3127   33.9023   37.9535 H   0  0  0  0  0  0  0  0  0  0  0  0
   49.0063   31.9416   36.6819 H   0  0  0  0  0  0  0  0  0  0  0  0
   45.4036   29.3604   35.8808 H   0  0  0  0  0  0  0  0  0  0  0  0
   42.8422   29.6916   34.8731 H   0  0  0  0  0  0  0  0  0  0  0  0
   42.8310   31.2121   35.2458 H   0  0  0  0  0  0  0  0  0  0  0  0
   44.8954   31.3061   33.0990 H   0  0  0  0  0  0  0  0  0  0  0  0
   42.8793   28.3961   33.0305 H   0  0  0  0  0  0  0  0  0  0  0  0
   44.0336   26.7306   31.2794 H   0  0  0  0  0  0  0  0  0  0  0  0
   46.4540   27.6001   30.8489 H   0  0  0  0  0  0  0  0  0  0  0  0
   48.6986   34.5211   41.2954 H   0  0  0  0  0  0  0  0  0  0  0  0
   47.9931   35.6317   40.0919 H   0  0  0  0  0  0  0  0  0  0  0  0
   45.8459   34.5893   40.2394 H   0  0  0  0  0  0  0  0  0  0  0  0
   46.5657   33.1739   41.1572 H   0  0  0  0  0  0  0  0  0  0  0  0
   44.9249   36.3218   41.5862 H   0  0  0  0  0  0  0  0  0  0  0  0
   44.3248   34.5843   41.6022 H   0  0  0  0  0  0  0  0  0  0  0  0
   43.7308   36.5828   43.3968 H   0  0  0  0  0  0  0  0  0  0  0  0
   43.4468   34.7957   43.5362 H   0  0  0  0  0  0  0  0  0  0  0  0
   46.0235   33.9899   45.4505 H   0  0  0  0  0  0  0  0  0  0  0  0
   44.7055   33.5288   44.3346 H   0  0  0  0  0  0  0  0  0  0  0  0
   46.5722   33.0388   43.0758 H   0  0  0  0  0  0  0  0  0  0  0  0
   47.4943   34.4625   43.7744 H   0  0  0  0  0  0  0  0  0  0  0  0
  1 17  1  0
  2  1  2  0
  4  3  2  0
  4  1  1  0
  5  4  1  0
  6  7  1  0
  6  5  2  0
  7  8  2  0
  8  3  1  0
  9  7  1  0
 10  9  1  0
 11 10  1  0
 11  9  1  0
 12 11  1  0
 13 12  1  0
 14 13  2  0
 15 14  1  0
 15 16  1  0
 16 12  2  0
 17 18  1  0
 18 19  1  0
 19 20  1  0
 20 25  1  0
 21 20  1  0
 21 22  1  0
 22 23  1  0
 24 23  1  0
 25 24  1  0
  3 26  1  0
  5 27  1  0
  9 28  1  6
 10 29  1  0
 10 30  1  0
 11 31  1  6
 13 32  1  0
 14 33  1  0
 15 34  1  0
 18 35  1  0
 18 36  1  0
 19 37  1  0
 19 38  1  0
 21 39  1  0
 21 40  1  0
 22 41  1  0
 22 42  1  0
 24 43  1  0
 24 44  1  0
 25 45  1  0
 25 46  1  0
M  ISO  8  26  14  27  14  28  13  29  13  30  13  31  13  32  14  33  14
M  ISO  8  34   9  35   8  36   8  37   8  38   8  39  13  40  13  41  13
M  ISO  5  42  13  43  13  44  13  45  13  46  13
M  END
>  <minimizedAffinity>  (1) 
-4.53857756

>  <minimizedRMSD>  (1) 
0.706869483

$$$$
