
     RDKit          3D

 45 48  0  0  1  0  0  0  0  0999 V2000
   48.1090   33.9810   38.0740 C   0  0  0  0  0  0  0  0  0  0  0  0
   48.6600   34.9840   37.6160 O   0  0  0  0  0  0  0  0  0  0  0  0
   45.8470   33.1800   37.1940 C   0  0  0  0  0  0  0  0  0  0  0  0
   47.2420   33.0200   37.3410 C   0  0  0  0  0  0  0  0  0  0  0  0
   47.9080   31.9110   36.7850 C   0  0  0  0  0  0  0  0  0  0  0  0
   47.1430   30.9840   36.0850 N   0  0  0  0  0  0  0  0  0  0  0  0
   45.7950   31.2170   35.9900 C   0  0  0  0  0  0  0  0  0  0  0  0
   45.1550   32.2740   36.5210 N   0  0  0  0  0  0  0  0  0  0  0  0
   44.9970   30.1840   35.2400 C   0  0  1  0  0  0  0  0  0  0  0  0
   43.6930   30.5300   34.6820 C   0  0  0  0  0  0  0  0  0  0  0  0
   44.8260   30.4610   33.7330 C   0  0  2  0  0  0  0  0  0  0  0  0
   44.7650   29.3090   32.8580 N   0  0  0  0  0  0  0  0  0  0  0  0
   43.8400   28.3750   32.6360 C   0  0  0  0  0  0  0  0  0  0  0  0
   44.3030   27.5320   31.7110 N   0  0  0  0  0  0  0  0  0  0  0  0
   45.5370   27.9330   31.3400 C   0  0  0  0  0  0  0  0  0  0  0  0
   45.7990   29.0280   32.0590 N   0  0  0  0  0  0  0  0  0  0  0  0
   48.2700   33.6440   39.4240 O   0  0  0  0  0  0  0  0  0  0  0  0
   47.9580   34.5760   40.4550 C   0  0  0  0  0  0  0  0  0  0  0  0
   46.5650   34.2590   40.9520 C   0  0  0  0  0  0  0  0  0  0  0  0
   46.2330   34.8710   42.2040 N   0  0  0  0  0  0  0  0  0  0  0  0
   44.8780   35.3620   42.0990 C   0  0  0  0  0  0  0  0  0  0  0  0
   44.1830   35.5690   43.3860 C   0  0  0  0  0  0  0  0  0  0  0  0
   45.0810   35.5170   44.4770 O   0  0  0  0  0  0  0  0  0  0  0  0
   45.5470   34.2310   44.4630 C   0  0  0  0  0  0  0  0  0  0  0  0
   46.5280   34.0930   43.3440 C   0  0  0  0  0  0  0  0  0  0  0  0
   45.3392   34.0504   37.6351 H   0  0  0  0  0  0  0  0  0  0  0  0
   48.9944   31.7824   36.9001 H   0  0  0  0  0  0  0  0  0  0  0  0
   45.3499   29.3630   35.8814 H   0  0  0  0  0  0  0  0  0  0  0  0
   42.9035   29.7653   34.6381 H   0  0  0  0  0  0  0  0  0  0  0  0
   42.9484   31.3043   34.9187 H   0  0  0  0  0  0  0  0  0  0  0  0
   45.3232   31.1235   33.0092 H   0  0  0  0  0  0  0  0  0  0  0  0
   42.8602   28.3102   33.1318 H   0  0  0  0  0  0  0  0  0  0  0  0
   46.1931   27.4557   30.5972 H   0  0  0  0  0  0  0  0  0  0  0  0
   48.6809   34.4802   41.2786 H   0  0  0  0  0  0  0  0  0  0  0  0
   48.0064   35.6061   40.0721 H   0  0  0  0  0  0  0  0  0  0  0  0
   45.8430   34.6043   40.1974 H   0  0  0  0  0  0  0  0  0  0  0  0
   46.5275   33.1715   41.1129 H   0  0  0  0  0  0  0  0  0  0  0  0
   44.9051   36.3250   41.5680 H   0  0  0  0  0  0  0  0  0  0  0  0
   44.3112   34.5833   41.5676 H   0  0  0  0  0  0  0  0  0  0  0  0
   43.6938   36.5541   43.3730 H   0  0  0  0  0  0  0  0  0  0  0  0
   43.4433   34.7645   43.5107 H   0  0  0  0  0  0  0  0  0  0  0  0
   46.0413   34.0052   45.4194 H   0  0  0  0  0  0  0  0  0  0  0  0
   44.7118   33.5296   44.3200 H   0  0  0  0  0  0  0  0  0  0  0  0
   46.5554   33.0361   43.0403 H   0  0  0  0  0  0  0  0  0  0  0  0
   47.4922   34.4569   43.7284 H   0  0  0  0  0  0  0  0  0  0  0  0
  1 17  1  0
  2  1  2  0
  3  4  2  0
  4  1  1  0
  5  4  1  0
  6  5  2  0
  7  6  1  0
  7  8  2  0
  8  3  1  0
  9  7  1  0
 10  9  1  0
 11 10  1  0
 11  9  1  0
 12 11  1  0
 13 12  1  0
 14 13  2  0
 15 14  1  0
 15 16  2  0
 16 12  1  0
 17 18  1  0
 18 19  1  0
 19 20  1  0
 20 25  1  0
 21 20  1  0
 21 22  1  0
 22 23  1  0
 24 23  1  0
 25 24  1  0
  3 26  1  0
  5 27  1  0
  9 28  1  6
 10 29  1  0
 10 30  1  0
 11 31  1  6
 13 32  1  0
 15 33  1  0
 18 34  1  0
 18 35  1  0
 19 36  1  0
 19 37  1  0
 21 38  1  0
 21 39  1  0
 22 40  1  0
 22 41  1  0
 24 42  1  0
 24 43  1  0
 25 44  1  0
 25 45  1  0
M  ISO  8  26  14  27  14  28  13  29  13  30  13  31  13  32  14  33  14
M  ISO  8  34   8  35   8  36   8  37   8  38  13  39  13  40  13  41  13
M  ISO  4  42  13  43  13  44  13  45  13
M  END
>  <minimizedAffinity>  (1) 
-4.52590752

>  <minimizedRMSD>  (1) 
0.666436434

$$$$
