
     RDKit          3D

 46 49  0  0  1  0  0  0  0  0999 V2000
   48.1010   33.9940   38.1360 C   0  0  0  0  0  0  0  0  0  0  0  0
   48.6670   34.9810   37.6810 O   0  0  0  0  0  0  0  0  0  0  0  0
   45.8150   33.0990   37.4260 C   0  0  0  0  0  0  0  0  0  0  0  0
   47.2260   33.0390   37.4020 C   0  0  0  0  0  0  0  0  0  0  0  0
   47.9010   32.0450   36.6620 C   0  0  0  0  0  0  0  0  0  0  0  0
   47.1220   31.1290   35.9590 N   0  0  0  0  0  0  0  0  0  0  0  0
   45.7710   31.2570   36.0340 C   0  0  0  0  0  0  0  0  0  0  0  0
   45.1190   32.2010   36.7370 N   0  0  0  0  0  0  0  0  0  0  0  0
   44.9460   30.2420   35.2910 C   0  0  1  0  0  0  0  0  0  0  0  0
   43.6020   30.5740   34.8220 C   0  0  0  0  0  0  0  0  0  0  0  0
   44.6810   30.5760   33.8120 C   0  0  2  0  0  0  0  0  0  0  0  0
   44.9170   29.4570   32.9260 N   0  0  0  0  0  0  0  0  0  0  0  0
   43.9980   28.5170   32.5990 C   0  0  0  0  0  0  0  0  0  0  0  0
   44.5900   27.6230   31.7390 C   0  0  0  0  0  0  0  0  0  0  0  0
   45.8640   27.9960   31.5270 N   0  0  0  0  0  0  0  0  0  0  0  0
   46.0510   29.1290   32.2660 C   0  0  0  0  0  0  0  0  0  0  0  0
   48.2430   33.6570   39.4910 O   0  0  0  0  0  0  0  0  0  0  0  0
   47.9510   34.6050   40.5150 C   0  0  0  0  0  0  0  0  0  0  0  0
   46.5700   34.2870   41.0310 C   0  0  0  0  0  0  0  0  0  0  0  0
   46.3230   34.6980   42.3790 N   0  0  0  0  0  0  0  0  0  0  0  0
   45.0890   35.4620   42.3820 C   0  0  0  0  0  0  0  0  0  0  0  0
   44.4170   35.5620   43.6880 C   0  0  0  0  0  0  0  0  0  0  0  0
   45.2540   35.1240   44.7460 O   0  0  0  0  0  0  0  0  0  0  0  0
   45.4560   33.7990   44.4800 C   0  0  0  0  0  0  0  0  0  0  0  0
   46.4280   33.6830   43.3470 C   0  0  0  0  0  0  0  0  0  0  0  0
   45.2996   33.8781   38.0069 H   0  0  0  0  0  0  0  0  0  0  0  0
   48.9997   31.9955   36.6411 H   0  0  0  0  0  0  0  0  0  0  0  0
   45.3519   29.4060   35.8796 H   0  0  0  0  0  0  0  0  0  0  0  0
   42.8314   29.7898   34.7889 H   0  0  0  0  0  0  0  0  0  0  0  0
   42.8517   31.3162   35.1324 H   0  0  0  0  0  0  0  0  0  0  0  0
   44.9735   31.3109   33.0475 H   0  0  0  0  0  0  0  0  0  0  0  0
   42.9593   28.4763   32.9589 H   0  0  0  0  0  0  0  0  0  0  0  0
   44.1000   26.7437   31.2955 H   0  0  0  0  0  0  0  0  0  0  0  0
   46.9924   29.6957   32.3173 H   0  0  0  0  0  0  0  0  0  0  0  0
   48.6867   34.5208   41.3284 H   0  0  0  0  0  0  0  0  0  0  0  0
   47.9964   35.6319   40.1232 H   0  0  0  0  0  0  0  0  0  0  0  0
   45.8380   34.7886   40.3809 H   0  0  0  0  0  0  0  0  0  0  0  0
   46.4808   33.1907   41.0206 H   0  0  0  0  0  0  0  0  0  0  0  0
   45.3190   36.4814   42.0387 H   0  0  0  0  0  0  0  0  0  0  0  0
   44.3942   34.9223   41.7217 H   0  0  0  0  0  0  0  0  0  0  0  0
   44.1382   36.6112   43.8656 H   0  0  0  0  0  0  0  0  0  0  0  0
   43.5277   34.9150   43.6653 H   0  0  0  0  0  0  0  0  0  0  0  0
   45.8642   33.3000   45.3713 H   0  0  0  0  0  0  0  0  0  0  0  0
   44.5035   33.3202   44.2090 H   0  0  0  0  0  0  0  0  0  0  0  0
   46.2614   32.7161   42.8497 H   0  0  0  0  0  0  0  0  0  0  0  0
   47.4320   33.7746   43.7870 H   0  0  0  0  0  0  0  0  0  0  0  0
  1 17  1  0
  2  1  2  0
  4  3  2  0
  4  1  1  0
  5  4  1  0
  6  7  1  0
  6  5  2  0
  7  8  2  0
  8  3  1  0
  9  7  1  0
 10  9  1  0
 11 10  1  0
 11  9  1  0
 12 11  1  0
 13 12  1  0
 14 13  2  0
 15 14  1  0
 15 16  2  0
 16 12  1  0
 17 18  1  0
 18 19  1  0
 19 20  1  0
 20 21  1  0
 20 25  1  0
 21 22  1  0
 22 23  1  0
 24 23  1  0
 25 24  1  0
  3 26  1  0
  5 27  1  0
  9 28  1  6
 10 29  1  0
 10 30  1  0
 11 31  1  6
 13 32  1  0
 14 33  1  0
 16 34  1  0
 18 35  1  0
 18 36  1  0
 19 37  1  0
 19 38  1  0
 21 39  1  0
 21 40  1  0
 22 41  1  0
 22 42  1  0
 24 43  1  0
 24 44  1  0
 25 45  1  0
 25 46  1  0
M  ISO  8  26  14  27  14  28  13  29  13  30  13  31  13  32  14  33  14
M  ISO  8  34  14  35   8  36   8  37   8  38   8  39  13  40  13  41  13
M  ISO  5  42  13  43  13  44  13  45  13  46  13
M  END
>  <minimizedAffinity>  (1) 
-4.48484755

>  <minimizedRMSD>  (1) 
0.628247738

$$$$
