
     RDKit          3D

 51 54  0  0  1  0  0  0  0  0999 V2000
   48.2330   33.8720   38.0270 C   0  0  0  0  0  0  0  0  0  0  0  0
   48.6400   34.9970   37.7490 O   0  0  0  0  0  0  0  0  0  0  0  0
   46.7250   32.8500   36.2380 C   0  0  0  0  0  0  0  0  0  0  0  0
   47.8620   32.7900   37.0770 C   0  0  0  0  0  0  0  0  0  0  0  0
   48.7270   31.6740   37.0550 C   0  0  0  0  0  0  0  0  0  0  0  0
   48.4060   30.6500   36.1770 N   0  0  0  0  0  0  0  0  0  0  0  0
   47.2990   30.7800   35.4030 C   0  0  0  0  0  0  0  0  0  0  0  0
   46.4690   31.8380   35.4160 N   0  0  0  0  0  0  0  0  0  0  0  0
   46.9740   29.6430   34.4750 C   0  0  1  0  0  0  0  0  0  0  0  0
   46.2560   29.9040   33.2250 C   0  0  0  0  0  0  0  0  0  0  0  0
   47.6900   29.6600   33.1220 C   0  0  1  0  0  0  0  0  0  0  0  0
   48.7080   30.5900   32.8320 N   0  0  0  0  0  0  0  0  0  0  0  0
   49.9680   29.9210   32.6570 C   0  0  0  0  0  0  0  0  0  0  0  0
   50.4300   30.2420   31.2430 C   0  0  0  0  0  0  0  0  0  0  0  0
   49.7440   31.5530   30.9780 C   0  0  0  0  0  0  0  0  0  0  0  0
   48.3860   31.3160   31.6460 C   0  0  0  0  0  0  0  0  0  0  0  0
   48.0760   33.4930   39.3660 O   0  0  0  0  0  0  0  0  0  0  0  0
   48.0860   34.4660   40.4070 C   0  0  0  0  0  0  0  0  0  0  0  0
   46.7460   34.3940   41.1160 C   0  0  0  0  0  0  0  0  0  0  0  0
   46.8400   34.3580   42.5500 N   0  0  0  0  0  0  0  0  0  0  0  0
   45.4890   34.4250   43.0580 C   0  0  0  0  0  0  0  0  0  0  0  0
   45.3090   33.9240   44.4320 C   0  0  0  0  0  0  0  0  0  0  0  0
   46.5560   33.7230   45.0820 O   0  0  0  0  0  0  0  0  0  0  0  0
   47.1530   32.7360   44.3470 C   0  0  0  0  0  0  0  0  0  0  0  0
   47.6640   33.3470   43.0800 C   0  0  0  0  0  0  0  0  0  0  0  0
   46.0595   33.7254   36.2657 H   0  0  0  0  0  0  0  0  0  0  0  0
   49.6136   31.6196   37.7038 H   0  0  0  0  0  0  0  0  0  0  0  0
   46.8298   28.9394   35.3081 H   0  0  0  0  0  0  0  0  0  0  0  0
   45.5504   29.1533   32.8395 H   0  0  0  0  0  0  0  0  0  0  0  0
   45.5982   30.7167   32.8833 H   0  0  0  0  0  0  0  0  0  0  0  0
   48.2945   28.9827   32.5008 H   0  0  0  0  0  0  0  0  0  0  0  0
   50.7003   30.2905   33.3899 H   0  0  0  0  0  0  0  0  0  0  0  0
   49.8687   28.8360   32.8082 H   0  0  0  0  0  0  0  0  0  0  0  0
   51.5239   30.3467   31.1944 H   0  0  0  0  0  0  0  0  0  0  0  0
   50.1873   29.4591   30.5095 H   0  0  0  0  0  0  0  0  0  0  0  0
   50.2821   32.3915   31.4442 H   0  0  0  0  0  0  0  0  0  0  0  0
   49.6833   31.8248   29.9138 H   0  0  0  0  0  0  0  0  0  0  0  0
   47.8990   32.2712   31.8921 H   0  0  0  0  0  0  0  0  0  0  0  0
   47.6824   30.7753   30.9959 H   0  0  0  0  0  0  0  0  0  0  0  0
   48.8978   34.2478   41.1165 H   0  0  0  0  0  0  0  0  0  0  0  0
   48.2506   35.4720   39.9936 H   0  0  0  0  0  0  0  0  0  0  0  0
   46.1568   35.2780   40.8309 H   0  0  0  0  0  0  0  0  0  0  0  0
   46.2744   33.4498   40.8060 H   0  0  0  0  0  0  0  0  0  0  0  0
   45.1687   35.4771   43.0349 H   0  0  0  0  0  0  0  0  0  0  0  0
   44.8876   33.7678   42.4126 H   0  0  0  0  0  0  0  0  0  0  0  0
   44.7215   34.6564   45.0051 H   0  0  0  0  0  0  0  0  0  0  0  0
   44.7876   32.9568   44.3804 H   0  0  0  0  0  0  0  0  0  0  0  0
   47.9886   32.3012   44.9151 H   0  0  0  0  0  0  0  0  0  0  0  0
   46.4307   31.9376   44.1217 H   0  0  0  0  0  0  0  0  0  0  0  0
   47.7590   32.5504   42.3274 H   0  0  0  0  0  0  0  0  0  0  0  0
   48.6258   33.8212   43.3250 H   0  0  0  0  0  0  0  0  0  0  0  0
  1 17  1  0
  2  1  2  0
  3  4  2  0
  4  1  1  0
  5  4  1  0
  6  5  2  0
  7  8  2  0
  7  6  1  0
  8  3  1  0
  9  7  1  0
 10  9  1  0
 11 10  1  0
 11  9  1  0
 12 13  1  0
 12 11  1  0
 14 13  1  0
 15 14  1  0
 15 16  1  0
 16 12  1  0
 17 18  1  0
 18 19  1  0
 19 20  1  0
 20 21  1  0
 20 25  1  0
 21 22  1  0
 22 23  1  0
 24 23  1  0
 25 24  1  0
  3 26  1  0
  5 27  1  0
  9 28  1  1
 10 29  1  0
 10 30  1  0
 11 31  1  6
 13 32  1  0
 13 33  1  0
 14 34  1  0
 14 35  1  0
 15 36  1  0
 15 37  1  0
 16 38  1  0
 16 39  1  0
 18 40  1  0
 18 41  1  0
 19 42  1  0
 19 43  1  0
 21 44  1  0
 21 45  1  0
 22 46  1  0
 22 47  1  0
 24 48  1  0
 24 49  1  0
 25 50  1  0
 25 51  1  0
M  ISO  8  26  14  27  14  28  13  29  13  30  13  31  13  32  13  33  13
M  ISO  8  34  13  35  13  36  13  37  13  38  13  39  13  40   8  41   8
M  ISO  8  42   8  43   8  44  13  45  13  46  13  47  13  48  13  49  13
M  ISO  2  50  13  51  13
M  END
>  <minimizedAffinity>  (1) 
-4.21866655

>  <minimizedRMSD>  (1) 
2.04024196

$$$$
