
     RDKit          3D

 42 44  0  0  1  0  0  0  0  0999 V2000
   48.0710   33.5240   39.2760 O   0  0  0  0  0  0  0  0  0  0  0  0
   47.8610   34.4380   40.3500 C   0  0  0  0  0  0  0  0  0  0  0  0
   46.4530   34.1890   40.8780 C   0  0  0  0  0  0  0  0  0  0  0  0
   46.1320   34.8720   42.0970 N   0  0  0  0  0  0  0  0  0  0  0  0
   44.7470   35.2660   42.0010 C   0  0  0  0  0  0  0  0  0  0  0  0
   44.0940   35.5420   43.2910 C   0  0  0  0  0  0  0  0  0  0  0  0
   45.0350   35.6210   44.3520 O   0  0  0  0  0  0  0  0  0  0  0  0
   45.5640   34.3620   44.4060 C   0  0  0  0  0  0  0  0  0  0  0  0
   46.5600   34.2360   43.2680 C   0  0  0  0  0  0  0  0  0  0  0  0
   48.0740   33.9560   37.9530 C   0  0  0  0  0  0  0  0  0  0  0  0
   48.6900   34.9890   37.6170 O   0  0  0  0  0  0  0  0  0  0  0  0
   45.9520   32.6740   37.3570 C   0  0  0  0  0  0  0  0  0  0  0  0
   47.2690   33.0350   37.0660 C   0  0  0  0  0  0  0  0  0  0  0  0
   47.8830   32.6840   35.9100 C   0  0  0  0  0  0  0  0  0  0  0  0
   47.1030   31.9550   35.0220 N   0  0  0  0  0  0  0  0  0  0  0  0
   45.8360   31.6670   35.3790 C   0  0  0  0  0  0  0  0  0  0  0  0
   45.2100   31.9880   36.5440 N   0  0  0  0  0  0  0  0  0  0  0  0
   44.8250   31.4570   34.3250 C   0  0  2  0  0  0  0  0  0  0  0  0
   43.5890   30.6940   34.5260 C   0  0  0  0  0  0  0  0  0  0  0  0
   44.7060   30.2050   33.6680 C   0  0  2  0  0  0  0  0  0  0  0  0
   45.4700   28.9850   34.1040 C   0  0  0  0  0  0  0  0  0  0  0  0
   46.6230   28.7290   33.6240 O   0  0  0  0  0  0  0  0  0  0  0  0
   45.0380   28.0530   35.0190 O   0  0  0  0  0  0  0  0  0  0  0  0
   48.5996   34.2618   41.1459 H   0  0  0  0  0  0  0  0  0  0  0  0
   47.9742   35.4776   40.0087 H   0  0  0  0  0  0  0  0  0  0  0  0
   45.7377   34.5124   40.1074 H   0  0  0  0  0  0  0  0  0  0  0  0
   46.3959   33.1141   41.1044 H   0  0  0  0  0  0  0  0  0  0  0  0
   44.6920   36.1773   41.3875 H   0  0  0  0  0  0  0  0  0  0  0  0
   44.2118   34.4128   41.5587 H   0  0  0  0  0  0  0  0  0  0  0  0
   43.5559   36.4988   43.2203 H   0  0  0  0  0  0  0  0  0  0  0  0
   43.4023   34.7147   43.5082 H   0  0  0  0  0  0  0  0  0  0  0  0
   46.0731   34.2096   45.3691 H   0  0  0  0  0  0  0  0  0  0  0  0
   44.7716   33.6047   44.3127 H   0  0  0  0  0  0  0  0  0  0  0  0
   46.7128   33.1683   43.0518 H   0  0  0  0  0  0  0  0  0  0  0  0
   47.4912   34.7260   43.5884 H   0  0  0  0  0  0  0  0  0  0  0  0
   45.5237   32.9860   38.3209 H   0  0  0  0  0  0  0  0  0  0  0  0
   48.9257   32.9573   35.6906 H   0  0  0  0  0  0  0  0  0  0  0  0
   45.0232   32.4910   34.0064 H   0  0  0  0  0  0  0  0  0  0  0  0
   43.3802   30.2165   35.4947 H   0  0  0  0  0  0  0  0  0  0  0  0
   42.5125   30.8796   34.3970 H   0  0  0  0  0  0  0  0  0  0  0  0
   44.8300   29.8904   32.6213 H   0  0  0  0  0  0  0  0  0  0  0  0
   45.6116   27.2784   35.2451 H   0  0  0  0  0  0  0  0  0  0  0  0
  1  2  1  0
  2  3  1  0
  3  4  1  0
  4  9  1  0
  5  4  1  0
  5  6  1  0
  6  7  1  0
  7  8  1  0
  9  8  1  0
 10  1  1  0
 11 10  2  0
 13 12  2  0
 13 10  1  0
 14 13  1  0
 15 16  1  0
 15 14  2  0
 16 17  2  0
 17 12  1  0
 18 19  1  0
 18 16  1  0
 20 21  1  0
 20 18  1  0
 20 19  1  0
 21 23  1  0
 22 21  2  0
  2 24  1  0
  2 25  1  0
  3 26  1  0
  3 27  1  0
  5 28  1  0
  5 29  1  0
  6 30  1  0
  6 31  1  0
  8 32  1  0
  8 33  1  0
  9 34  1  0
  9 35  1  0
 12 36  1  0
 14 37  1  0
 18 38  1  6
 19 39  1  0
 19 40  1  0
 20 41  1  6
 23 42  1  0
M  ISO  8  24   8  25   8  26   8  27   8  28  13  29  13  30  13  31  13
M  ISO  8  32  13  33  13  34  13  35  13  36  14  37  14  38  13  39  13
M  ISO  3  40  13  41  13  42   3
M  END
>  <minimizedAffinity>  (1) 
-4.10341644

>  <minimizedRMSD>  (1) 
1.12975013

$$$$
