
     RDKit          3D

 40 42  0  0  1  0  0  0  0  0999 V2000
   47.9990   34.5950   40.4590 C   0  0  0  0  0  0  0  0  0  0  0  0
   46.6000   34.4070   41.0010 C   0  0  0  0  0  0  0  0  0  0  0  0
   46.5040   34.4310   42.4250 N   0  0  0  0  0  0  0  0  0  0  0  0
   45.5260   35.4250   42.7780 C   0  0  0  0  0  0  0  0  0  0  0  0
   44.9360   35.2810   44.1200 C   0  0  0  0  0  0  0  0  0  0  0  0
   45.6660   34.3600   44.9130 O   0  0  0  0  0  0  0  0  0  0  0  0
   45.5110   33.1640   44.2670 C   0  0  0  0  0  0  0  0  0  0  0  0
   46.3630   33.1640   43.0400 C   0  0  0  0  0  0  0  0  0  0  0  0
   48.1990   33.6230   39.4350 O   0  0  0  0  0  0  0  0  0  0  0  0
   48.0580   33.9520   38.0850 C   0  0  0  0  0  0  0  0  0  0  0  0
   48.6440   34.9280   37.6190 O   0  0  0  0  0  0  0  0  0  0  0  0
   45.7740   33.2220   37.1980 C   0  0  0  0  0  0  0  0  0  0  0  0
   47.1620   33.0110   37.3560 C   0  0  0  0  0  0  0  0  0  0  0  0
   47.7950   31.8700   36.8190 C   0  0  0  0  0  0  0  0  0  0  0  0
   46.9980   30.9620   36.1290 N   0  0  0  0  0  0  0  0  0  0  0  0
   45.6700   31.2390   36.0210 C   0  0  0  0  0  0  0  0  0  0  0  0
   45.0610   32.3250   36.5300 N   0  0  0  0  0  0  0  0  0  0  0  0
   44.8270   30.2290   35.2870 C   0  0  1  0  0  0  0  0  0  0  0  0
   43.5300   30.6070   34.7320 C   0  0  0  0  0  0  0  0  0  0  0  0
   44.6580   30.4900   33.7780 C   0  0  2  0  0  0  0  0  0  0  0  0
   44.7750   29.3450   32.9950 O   0  0  0  0  0  0  0  0  0  0  0  0
   48.1067   35.6070   40.0417 H   0  0  0  0  0  0  0  0  0  0  0  0
   48.7432   34.4714   41.2595 H   0  0  0  0  0  0  0  0  0  0  0  0
   45.9665   35.2125   40.6012 H   0  0  0  0  0  0  0  0  0  0  0  0
   46.2762   33.4045   40.6846 H   0  0  0  0  0  0  0  0  0  0  0  0
   46.0097   36.4115   42.7238 H   0  0  0  0  0  0  0  0  0  0  0  0
   44.6962   35.3004   42.0667 H   0  0  0  0  0  0  0  0  0  0  0  0
   44.9380   36.2617   44.6183 H   0  0  0  0  0  0  0  0  0  0  0  0
   43.9099   34.9011   44.0067 H   0  0  0  0  0  0  0  0  0  0  0  0
   45.8193   32.3429   44.9308 H   0  0  0  0  0  0  0  0  0  0  0  0
   44.4560   33.0242   43.9887 H   0  0  0  0  0  0  0  0  0  0  0  0
   45.9137   32.4752   42.3094 H   0  0  0  0  0  0  0  0  0  0  0  0
   47.3701   32.8559   43.3576 H   0  0  0  0  0  0  0  0  0  0  0  0
   45.2925   34.1155   37.6220 H   0  0  0  0  0  0  0  0  0  0  0  0
   48.8757   31.7049   36.9410 H   0  0  0  0  0  0  0  0  0  0  0  0
   45.1550   29.4067   35.9398 H   0  0  0  0  0  0  0  0  0  0  0  0
   42.7174   29.8662   34.7026 H   0  0  0  0  0  0  0  0  0  0  0  0
   42.8102   31.4065   34.9617 H   0  0  0  0  0  0  0  0  0  0  0  0
   45.0713   31.1550   33.0054 H   0  0  0  0  0  0  0  0  0  0  0  0
   44.8561   28.5513   33.5811 H   0  0  0  0  0  0  0  0  0  0  0  0
  1  2  1  0
  2  3  1  0
  3  4  1  0
  3  8  1  0
  4  5  1  0
  5  6  1  0
  7  6  1  0
  8  7  1  0
  9  1  1  0
 10  9  1  0
 11 10  2  0
 12 13  2  0
 13 10  1  0
 14 13  1  0
 15 14  2  0
 16 15  1  0
 16 17  2  0
 17 12  1  0
 18 16  1  0
 19 18  1  0
 20 19  1  0
 20 18  1  0
 21 20  1  0
  1 22  1  0
  1 23  1  0
  2 24  1  0
  2 25  1  0
  4 26  1  0
  4 27  1  0
  5 28  1  0
  5 29  1  0
  7 30  1  0
  7 31  1  0
  8 32  1  0
  8 33  1  0
 12 34  1  0
 14 35  1  0
 18 36  1  6
 19 37  1  0
 19 38  1  0
 20 39  1  6
 21 40  1  0
M  ISO  8  22   8  23   8  24   8  25   8  26  13  27  13  28  13  29  13
M  ISO  8  30  13  31  13  32  13  33  13  34  14  35  14  36  13  37  13
M  ISO  3  38  13  39  13  40   3
M  END
>  <minimizedAffinity>  (1) 
-3.97318673

>  <minimizedRMSD>  (1) 
0.0237824265

$$$$
