
     RDKit          3D

 41 43  0  0  1  0  0  0  0  0999 V2000
   47.8750   33.5410   39.7990 O   0  0  0  0  0  0  0  0  0  0  0  0
   47.7790   34.5370   40.8060 C   0  0  0  0  0  0  0  0  0  0  0  0
   46.3530   34.5550   41.3060 C   0  0  0  0  0  0  0  0  0  0  0  0
   46.2130   34.8510   42.6990 N   0  0  0  0  0  0  0  0  0  0  0  0
   45.0680   35.7110   42.8470 C   0  0  0  0  0  0  0  0  0  0  0  0
   44.4700   35.7330   44.2000 C   0  0  0  0  0  0  0  0  0  0  0  0
   45.3170   35.1180   45.1550 O   0  0  0  0  0  0  0  0  0  0  0  0
   45.3820   33.8140   44.7500 C   0  0  0  0  0  0  0  0  0  0  0  0
   46.2790   33.7300   43.5550 C   0  0  0  0  0  0  0  0  0  0  0  0
   47.9190   33.8700   38.4450 C   0  0  0  0  0  0  0  0  0  0  0  0
   48.5640   34.8460   38.0680 O   0  0  0  0  0  0  0  0  0  0  0  0
   45.9790   33.3150   36.8740 C   0  0  0  0  0  0  0  0  0  0  0  0
   47.1280   32.9310   37.6000 C   0  0  0  0  0  0  0  0  0  0  0  0
   47.6080   31.6040   37.5620 C   0  0  0  0  0  0  0  0  0  0  0  0
   46.9070   30.6860   36.7860 N   0  0  0  0  0  0  0  0  0  0  0  0
   45.8040   31.1420   36.1150 C   0  0  0  0  0  0  0  0  0  0  0  0
   45.3430   32.4050   36.1470 N   0  0  0  0  0  0  0  0  0  0  0  0
   45.0520   30.1260   35.2970 C   0  0  1  0  0  0  0  0  0  0  0  0
   44.2520   30.5500   34.1500 C   0  0  0  0  0  0  0  0  0  0  0  0
   45.5660   29.9420   33.8550 C   0  0  1  0  0  0  0  0  0  0  0  0
   46.7360   30.7590   33.4920 C   0  0  0  0  0  0  0  0  0  0  0  0
   47.3530   30.4480   32.4630 O   0  0  0  0  0  0  0  0  0  0  0  0
   48.4626   34.2985   41.6341 H   0  0  0  0  0  0  0  0  0  0  0  0
   48.0553   35.5211   40.3996 H   0  0  0  0  0  0  0  0  0  0  0  0
   45.7995   35.3160   40.7364 H   0  0  0  0  0  0  0  0  0  0  0  0
   45.9600   33.5376   41.1628 H   0  0  0  0  0  0  0  0  0  0  0  0
   45.3769   36.7361   42.5943 H   0  0  0  0  0  0  0  0  0  0  0  0
   44.2942   35.3086   42.1767 H   0  0  0  0  0  0  0  0  0  0  0  0
   44.2970   36.7780   44.4968 H   0  0  0  0  0  0  0  0  0  0  0  0
   43.5243   35.1721   44.1672 H   0  0  0  0  0  0  0  0  0  0  0  0
   45.7878   33.1933   45.5625 H   0  0  0  0  0  0  0  0  0  0  0  0
   44.3766   33.4498   44.4919 H   0  0  0  0  0  0  0  0  0  0  0  0
   45.9990   32.8375   42.9761 H   0  0  0  0  0  0  0  0  0  0  0  0
   47.3095   33.6857   43.9372 H   0  0  0  0  0  0  0  0  0  0  0  0
   45.6167   34.3530   36.9106 H   0  0  0  0  0  0  0  0  0  0  0  0
   48.5044   31.3062   38.1258 H   0  0  0  0  0  0  0  0  0  0  0  0
   44.8395   29.4962   36.1735 H   0  0  0  0  0  0  0  0  0  0  0  0
   43.3331   30.0000   33.8988 H   0  0  0  0  0  0  0  0  0  0  0  0
   43.7762   31.5007   33.8677 H   0  0  0  0  0  0  0  0  0  0  0  0
   45.8870   29.1277   33.1887 H   0  0  0  0  0  0  0  0  0  0  0  0
   47.0504   31.6127   34.1104 H   0  0  0  0  0  0  0  0  0  0  0  0
  1  2  1  0
  2  3  1  0
  3  4  1  0
  4  5  1  0
  4  9  1  0
  5  6  1  0
  6  7  1  0
  8  7  1  0
  9  8  1  0
 10  1  1  0
 11 10  2  0
 12 13  2  0
 13 10  1  0
 14 13  1  0
 15 14  2  0
 16 17  2  0
 16 15  1  0
 17 12  1  0
 18 16  1  0
 19 18  1  0
 20 19  1  0
 20 18  1  0
 21 20  1  0
 22 21  2  0
  2 23  1  0
  2 24  1  0
  3 25  1  0
  3 26  1  0
  5 27  1  0
  5 28  1  0
  6 29  1  0
  6 30  1  0
  8 31  1  0
  8 32  1  0
  9 33  1  0
  9 34  1  0
 12 35  1  0
 14 36  1  0
 18 37  1  1
 19 38  1  0
 19 39  1  0
 20 40  1  6
 21 41  1  0
M  ISO  8  23   8  24   8  25   8  26   8  27  13  28  13  29  13  30  13
M  ISO  8  31  13  32  13  33  13  34  13  35  14  36  14  37  13  38  13
M  ISO  3  39  13  40  13  41   6
M  END
>  <minimizedAffinity>  (1) 
-3.95562983

>  <minimizedRMSD>  (1) 
0.927061558

$$$$
