
     RDKit          3D

 40 42  0  0  1  0  0  0  0  0999 V2000
   47.8470   34.5670   40.8960 C   0  0  0  0  0  0  0  0  0  0  0  0
   46.4070   34.6200   41.3550 C   0  0  0  0  0  0  0  0  0  0  0  0
   46.2390   34.8830   42.7530 N   0  0  0  0  0  0  0  0  0  0  0  0
   45.0860   35.7370   42.8910 C   0  0  0  0  0  0  0  0  0  0  0  0
   44.4670   35.7240   44.2380 C   0  0  0  0  0  0  0  0  0  0  0  0
   45.3070   35.1070   45.1930 O   0  0  0  0  0  0  0  0  0  0  0  0
   45.3800   33.8060   44.7700 C   0  0  0  0  0  0  0  0  0  0  0  0
   46.2880   33.7460   43.5820 C   0  0  0  0  0  0  0  0  0  0  0  0
   47.9420   33.5610   39.8910 O   0  0  0  0  0  0  0  0  0  0  0  0
   47.9320   33.8890   38.5350 C   0  0  0  0  0  0  0  0  0  0  0  0
   48.5710   34.8610   38.1310 O   0  0  0  0  0  0  0  0  0  0  0  0
   46.0200   33.3800   36.9160 C   0  0  0  0  0  0  0  0  0  0  0  0
   47.1020   32.9590   37.7230 C   0  0  0  0  0  0  0  0  0  0  0  0
   47.4680   31.6000   37.8020 C   0  0  0  0  0  0  0  0  0  0  0  0
   46.7270   30.6860   37.0590 N   0  0  0  0  0  0  0  0  0  0  0  0
   45.6940   31.1820   36.3020 C   0  0  0  0  0  0  0  0  0  0  0  0
   45.3380   32.4760   36.2210 N   0  0  0  0  0  0  0  0  0  0  0  0
   44.9030   30.1610   35.5300 C   0  0  1  0  0  0  0  0  0  0  0  0
   44.1810   30.5550   34.3230 C   0  0  0  0  0  0  0  0  0  0  0  0
   45.4550   29.8370   34.1240 C   0  0  1  0  0  0  0  0  0  0  0  0
   46.9040   30.7590   33.5840 S   0  0  0  0  0  0  0  0  0  0  0  0
   48.1445   35.5412   40.4809 H   0  0  0  0  0  0  0  0  0  0  0  0
   48.5132   34.3343   41.7398 H   0  0  0  0  0  0  0  0  0  0  0  0
   45.8958   35.4148   40.7919 H   0  0  0  0  0  0  0  0  0  0  0  0
   45.9828   33.6219   41.1710 H   0  0  0  0  0  0  0  0  0  0  0  0
   45.3938   36.7685   42.6646 H   0  0  0  0  0  0  0  0  0  0  0  0
   44.3267   35.3511   42.1949 H   0  0  0  0  0  0  0  0  0  0  0  0
   44.2724   36.7604   44.5510 H   0  0  0  0  0  0  0  0  0  0  0  0
   43.5318   35.1477   44.1803 H   0  0  0  0  0  0  0  0  0  0  0  0
   45.7814   33.1750   45.5767 H   0  0  0  0  0  0  0  0  0  0  0  0
   44.3787   33.4397   44.4994 H   0  0  0  0  0  0  0  0  0  0  0  0
   46.0085   32.8690   42.9796 H   0  0  0  0  0  0  0  0  0  0  0  0
   47.3140   33.6883   43.9744 H   0  0  0  0  0  0  0  0  0  0  0  0
   45.7459   34.4440   36.8641 H   0  0  0  0  0  0  0  0  0  0  0  0
   48.3104   31.2732   38.4294 H   0  0  0  0  0  0  0  0  0  0  0  0
   44.6143   29.6124   36.4387 H   0  0  0  0  0  0  0  0  0  0  0  0
   43.2341   30.0544   34.0724 H   0  0  0  0  0  0  0  0  0  0  0  0
   43.7876   31.5143   33.9557 H   0  0  0  0  0  0  0  0  0  0  0  0
   45.7641   28.9384   33.5700 H   0  0  0  0  0  0  0  0  0  0  0  0
   47.5984   31.2008   34.6792 H   0  0  0  0  0  0  0  0  0  0  0  0
  1  2  1  0
  2  3  1  0
  3  4  1  0
  3  8  1  0
  4  5  1  0
  5  6  1  0
  7  6  1  0
  8  7  1  0
  9  1  1  0
 10  9  1  0
 11 10  2  0
 12 13  2  0
 13 14  1  0
 13 10  1  0
 15 14  2  0
 16 15  1  0
 17 16  2  0
 17 12  1  0
 18 16  1  0
 19 18  1  0
 20 19  1  0
 20 18  1  0
 21 20  1  0
  1 22  1  0
  1 23  1  0
  2 24  1  0
  2 25  1  0
  4 26  1  0
  4 27  1  0
  5 28  1  0
  5 29  1  0
  7 30  1  0
  7 31  1  0
  8 32  1  0
  8 33  1  0
 12 34  1  0
 14 35  1  0
 18 36  1  1
 19 37  1  0
 19 38  1  0
 20 39  1  1
 21 40  1  0
M  ISO  8  22   8  23   8  24   8  25   8  26  13  27  13  28  13  29  13
M  ISO  8  30  13  31  13  32  13  33  13  34  14  35  14  36  13  37  13
M  ISO  3  38  13  39  13  40  11
M  END
>  <minimizedAffinity>  (1) 
-3.83853459

>  <minimizedRMSD>  (1) 
0.799552381

$$$$
