
     RDKit          3D

 33 36  0  0  1  0  0  0  0  0999 V2000
   46.9300   34.7620   41.7580 C   0  0  1  0  0  0  0  0  0  0  0  0
   48.2950   35.4750   41.7800 C   0  0  0  0  0  0  0  0  0  0  0  0
   48.1760   34.0550   41.6610 C   0  0  2  0  0  0  0  0  0  0  0  0
   48.6420   33.0320   40.7740 C   0  0  0  0  0  0  0  0  0  0  0  0
   49.1820   31.7860   41.1630 C   0  0  0  0  0  0  0  0  0  0  0  0
   49.6870   30.7850   40.3760 C   0  0  0  0  0  0  0  0  0  0  0  0
   49.6820   30.9920   39.0200 C   0  0  0  0  0  0  0  0  0  0  0  0
   49.1840   32.1650   38.5060 C   0  0  0  0  0  0  0  0  0  0  0  0
   49.1910   32.3100   37.1370 C   0  0  0  0  0  0  0  0  0  0  0  0
   48.6860   33.4630   36.5720 C   0  0  0  0  0  0  0  0  0  0  0  0
   48.1780   34.4550   37.4130 C   0  0  0  0  0  0  0  0  0  0  0  0
   48.2140   34.2180   38.7450 C   0  0  0  0  0  0  0  0  0  0  0  0
   48.7000   33.1010   39.3940 C   0  0  0  0  0  0  0  0  0  0  0  0
   44.5820   36.0060   44.4180 C   0  0  0  0  0  0  0  0  0  0  0  0
   45.2950   35.9380   43.1790 C   0  0  0  0  0  0  0  0  0  0  0  0
   46.1670   34.8910   43.0450 C   0  0  0  0  0  0  0  0  0  0  0  0
   46.3300   33.9730   44.0560 N   0  0  0  0  0  0  0  0  0  0  0  0
   45.6300   34.0770   45.2150 C   0  0  0  0  0  0  0  0  0  0  0  0
   44.7630   35.0870   45.3920 N   0  0  0  0  0  0  0  0  0  0  0  0
   46.0063   34.7201   41.1621 H   0  0  0  0  0  0  0  0  0  0  0  0
   48.6206   36.0799   40.9209 H   0  0  0  0  0  0  0  0  0  0  0  0
   48.8129   36.1717   42.4555 H   0  0  0  0  0  0  0  0  0  0  0  0
   48.6748   33.2172   42.1702 H   0  0  0  0  0  0  0  0  0  0  0  0
   49.1993   31.5932   42.2458 H   0  0  0  0  0  0  0  0  0  0  0  0
   50.0797   29.8549   40.8127 H   0  0  0  0  0  0  0  0  0  0  0  0
   50.0766   30.2190   38.3441 H   0  0  0  0  0  0  0  0  0  0  0  0
   49.5965   31.5119   36.4978 H   0  0  0  0  0  0  0  0  0  0  0  0
   48.6837   33.5981   35.4803 H   0  0  0  0  0  0  0  0  0  0  0  0
   47.7652   35.3913   37.0093 H   0  0  0  0  0  0  0  0  0  0  0  0
   47.8066   35.0118   39.3884 H   0  0  0  0  0  0  0  0  0  0  0  0
   43.8686   36.8271   44.5816 H   0  0  0  0  0  0  0  0  0  0  0  0
   45.1511   36.6824   42.3820 H   0  0  0  0  0  0  0  0  0  0  0  0
   45.7736   33.3317   46.0112 H   0  0  0  0  0  0  0  0  0  0  0  0
  1  2  1  0
  1 16  1  0
  3  1  1  0
  3  2  1  0
  4  5  2  0
  4  3  1  0
  6  5  1  0
  7  6  2  0
  8  7  1  0
  8 13  2  0
  9  8  1  0
 10  9  2  0
 10 11  1  0
 11 12  2  0
 12 13  1  0
 13  4  1  0
 14 19  2  0
 15 14  1  0
 16 15  2  0
 16 17  1  0
 17 18  2  0
 18 19  1  0
  1 20  1  6
  2 21  1  0
  2 22  1  0
  3 23  1  1
  5 24  1  0
  6 25  1  0
  7 26  1  0
  9 27  1  0
 10 28  1  0
 11 29  1  0
 12 30  1  0
 14 31  1  0
 15 32  1  0
 18 33  1  0
M  ISO  8  20  13  21  13  22  13  23  13  24  14  25  14  26  14  27  14
M  ISO  6  28  14  29  14  30  14  31  14  32  14  33  14
M  END
>  <minimizedAffinity>  (1) 
-5.70345306

>  <minimizedRMSD>  (1) 
0.996113122

$$$$
