
     RDKit          3D

 35 38  0  0  0  0  0  0  0  0999 V2000
   44.4660   36.0050   44.7690 C   0  0  0  0  0  0  0  0  0  0  0  0
   45.1280   36.0000   43.5230 C   0  0  0  0  0  0  0  0  0  0  0  0
   46.0170   34.9450   43.2810 C   0  0  0  0  0  0  0  0  0  0  0  0
   46.2060   33.9810   44.2430 N   0  0  0  0  0  0  0  0  0  0  0  0
   45.5370   34.0490   45.4170 C   0  0  0  0  0  0  0  0  0  0  0  0
   44.6780   35.0480   45.6780 N   0  0  0  0  0  0  0  0  0  0  0  0
   46.7560   34.8080   42.0710 N   0  0  0  0  0  0  0  0  0  0  0  0
   47.9960   35.3370   41.9420 C   0  0  0  0  0  0  0  0  0  0  0  0
   48.6740   35.1730   40.7400 C   0  0  0  0  0  0  0  0  0  0  0  0
   48.0400   34.4760   39.7420 C   0  0  0  0  0  0  0  0  0  0  0  0
   48.6360   34.2480   38.4740 N   0  0  0  0  0  0  0  0  0  0  0  0
   46.8020   33.9570   39.8920 N   0  0  0  0  0  0  0  0  0  0  0  0
   46.1280   34.1130   41.0740 C   0  0  0  0  0  0  0  0  0  0  0  0
   44.9750   33.6380   41.2360 O   0  0  0  0  0  0  0  0  0  0  0  0
   45.7520   33.0160   46.4220 C   0  0  0  0  0  0  0  0  0  0  0  0
   45.2450   32.9890   47.7060 C   0  0  0  0  0  0  0  0  0  0  0  0
   45.6640   31.8800   48.3210 N   0  0  0  0  0  0  0  0  0  0  0  0
   46.4300   31.1620   47.5010 C   0  0  0  0  0  0  0  0  0  0  0  0
   47.0930   29.9570   47.6590 C   0  0  0  0  0  0  0  0  0  0  0  0
   47.8380   29.4360   46.5960 C   0  0  0  0  0  0  0  0  0  0  0  0
   47.9160   30.1270   45.3810 C   0  0  0  0  0  0  0  0  0  0  0  0
   47.2370   31.3260   45.2720 C   0  0  0  0  0  0  0  0  0  0  0  0
   46.4950   31.8620   46.3050 C   0  0  0  0  0  0  0  0  0  0  0  0
   43.7586   36.8157   44.9979 H   0  0  0  0  0  0  0  0  0  0  0  0
   44.9539   36.7884   42.7759 H   0  0  0  0  0  0  0  0  0  0  0  0
   48.4587   35.8872   42.7746 H   0  0  0  0  0  0  0  0  0  0  0  0
   49.6826   35.5870   40.5937 H   0  0  0  0  0  0  0  0  0  0  0  0
   49.5797   34.6101   38.2759 H   0  0  0  0  0  0  0  0  0  0  0  0
   48.1248   33.7204   37.7520 H   0  0  0  0  0  0  0  0  0  0  0  0
   44.5983   33.7591   48.1519 H   0  0  0  0  0  0  0  0  0  0  0  0
   45.4290   31.6179   49.2890 H   0  0  0  0  0  0  0  0  0  0  0  0
   47.0343   29.4133   48.6134 H   0  0  0  0  0  0  0  0  0  0  0  0
   48.3655   28.4781   46.7154 H   0  0  0  0  0  0  0  0  0  0  0  0
   48.5000   29.7279   44.5386 H   0  0  0  0  0  0  0  0  0  0  0  0
   47.2903   31.8766   44.3212 H   0  0  0  0  0  0  0  0  0  0  0  0
  1  6  2  0
  2  1  1  0
  3  2  2  0
  3  4  1  0
  4  5  2  0
  5  6  1  0
  5 15  1  0
  7  3  1  0
  8  7  1  0
  9  8  2  0
 10 12  2  0
 10  9  1  0
 11 10  1  0
 12 13  1  0
 13 14  2  0
 13  7  1  0
 15 16  2  0
 16 17  1  0
 18 19  2  0
 18 17  1  0
 20 19  1  0
 21 20  2  0
 22 21  1  0
 22 23  2  0
 23 15  1  0
 23 18  1  0
  1 24  1  0
  2 25  1  0
  8 26  1  0
  9 27  1  0
 11 28  1  0
 11 29  1  0
 16 30  1  0
 17 31  1  0
 19 32  1  0
 20 33  1  0
 21 34  1  0
 22 35  1  0
M  ISO  8  24  14  25  14  26  14  27  14  30  14  31   9  32  14  33  14
M  ISO  2  34  14  35  14
M  END
>  <minimizedAffinity>  (1) 
-6.94734049

>  <minimizedRMSD>  (1) 
0.470905304

$$$$
