
     RDKit          3D

 31 33  0  0  0  0  0  0  0  0999 V2000
   44.4460   35.8930   44.8270 C   0  0  0  0  0  0  0  0  0  0  0  0
   45.1040   35.8860   43.5780 C   0  0  0  0  0  0  0  0  0  0  0  0
   46.0490   34.9020   43.3310 C   0  0  0  0  0  0  0  0  0  0  0  0
   46.3050   33.9710   44.3180 N   0  0  0  0  0  0  0  0  0  0  0  0
   45.6590   34.0040   45.5040 C   0  0  0  0  0  0  0  0  0  0  0  0
   44.7310   34.9730   45.7420 N   0  0  0  0  0  0  0  0  0  0  0  0
   46.7810   34.7820   42.1180 N   0  0  0  0  0  0  0  0  0  0  0  0
   48.0010   35.3370   41.9800 C   0  0  0  0  0  0  0  0  0  0  0  0
   48.6590   35.1800   40.7650 C   0  0  0  0  0  0  0  0  0  0  0  0
   48.0290   34.4660   39.7730 C   0  0  0  0  0  0  0  0  0  0  0  0
   48.6200   34.2520   38.4990 N   0  0  0  0  0  0  0  0  0  0  0  0
   46.8050   33.9190   39.9360 N   0  0  0  0  0  0  0  0  0  0  0  0
   46.1530   34.0720   41.1290 C   0  0  0  0  0  0  0  0  0  0  0  0
   45.0030   33.5660   41.3060 O   0  0  0  0  0  0  0  0  0  0  0  0
   45.9610   32.9990   46.5180 C   0  0  0  0  0  0  0  0  0  0  0  0
   45.1930   32.9410   47.6640 C   0  0  0  0  0  0  0  0  0  0  0  0
   45.4920   31.9740   48.6340 C   0  0  0  0  0  0  0  0  0  0  0  0
   46.5520   31.1290   48.3710 C   0  0  0  0  0  0  0  0  0  0  0  0
   47.3160   31.1910   47.2230 C   0  0  0  0  0  0  0  0  0  0  0  0
   47.0200   32.1480   46.2710 C   0  0  0  0  0  0  0  0  0  0  0  0
   43.6928   36.6648   45.0439 H   0  0  0  0  0  0  0  0  0  0  0  0
   44.8718   36.6453   42.8167 H   0  0  0  0  0  0  0  0  0  0  0  0
   48.4635   35.8985   42.8052 H   0  0  0  0  0  0  0  0  0  0  0  0
   49.6561   35.6150   40.6020 H   0  0  0  0  0  0  0  0  0  0  0  0
   49.5531   34.6363   38.2931 H   0  0  0  0  0  0  0  0  0  0  0  0
   48.1154   33.7125   37.7813 H   0  0  0  0  0  0  0  0  0  0  0  0
   44.3593   33.6428   47.8136 H   0  0  0  0  0  0  0  0  0  0  0  0
   44.9084   31.8921   49.5628 H   0  0  0  0  0  0  0  0  0  0  0  0
   46.8019   30.3624   49.1193 H   0  0  0  0  0  0  0  0  0  0  0  0
   48.1484   30.4888   47.0682 H   0  0  0  0  0  0  0  0  0  0  0  0
   47.6093   32.2293   45.3458 H   0  0  0  0  0  0  0  0  0  0  0  0
  1  6  2  0
  2  1  1  0
  3  2  2  0
  3  4  1  0
  4  5  2  0
  5  6  1  0
  5 15  1  0
  7  3  1  0
  8  7  1  0
  9  8  2  0
 10 12  2  0
 10  9  1  0
 11 10  1  0
 12 13  1  0
 13 14  2  0
 13  7  1  0
 15 16  2  0
 16 17  1  0
 18 17  2  0
 19 18  1  0
 20 15  1  0
 20 19  2  0
  1 21  1  0
  2 22  1  0
  8 23  1  0
  9 24  1  0
 11 25  1  0
 11 26  1  0
 16 27  1  0
 17 28  1  0
 18 29  1  0
 19 30  1  0
 20 31  1  0
M  ISO  8  21  14  22  14  23  14  24  14  27  14  28  14  29  14  30  14
M  ISO  1  31  14
M  END
>  <minimizedAffinity>  (1) 
-6.77171421

>  <minimizedRMSD>  (1) 
0.178875834

$$$$
