
     RDKit          3D

 29 31  0  0  0  0  0  0  0  0999 V2000
   44.4560   35.9000   44.8050 C   0  0  0  0  0  0  0  0  0  0  0  0
   45.1060   35.8930   43.5610 C   0  0  0  0  0  0  0  0  0  0  0  0
   46.0540   34.8860   43.3110 C   0  0  0  0  0  0  0  0  0  0  0  0
   46.2960   33.9700   44.2880 N   0  0  0  0  0  0  0  0  0  0  0  0
   45.6440   34.0180   45.4740 C   0  0  0  0  0  0  0  0  0  0  0  0
   44.7350   34.9760   45.7210 N   0  0  0  0  0  0  0  0  0  0  0  0
   46.7770   34.7710   42.0940 N   0  0  0  0  0  0  0  0  0  0  0  0
   48.0100   35.3500   41.9570 C   0  0  0  0  0  0  0  0  0  0  0  0
   48.6720   35.2070   40.7450 C   0  0  0  0  0  0  0  0  0  0  0  0
   48.0450   34.4920   39.7560 C   0  0  0  0  0  0  0  0  0  0  0  0
   48.6090   34.2760   38.4710 N   0  0  0  0  0  0  0  0  0  0  0  0
   46.8330   33.9350   39.9210 N   0  0  0  0  0  0  0  0  0  0  0  0
   46.1670   34.0670   41.1100 C   0  0  0  0  0  0  0  0  0  0  0  0
   45.0260   33.5520   41.2900 O   0  0  0  0  0  0  0  0  0  0  0  0
   45.9490   33.0070   46.4780 C   0  0  0  0  0  0  0  0  0  0  0  0
   46.9810   32.1130   46.2720 C   0  0  0  0  0  0  0  0  0  0  0  0
   47.1830   31.1970   47.2900 C   0  0  0  0  0  0  0  0  0  0  0  0
   46.4490   31.1410   48.4180 N   0  0  0  0  0  0  0  0  0  0  0  0
   45.4480   32.0400   48.5720 C   0  0  0  0  0  0  0  0  0  0  0  0
   45.2150   32.9520   47.6040 N   0  0  0  0  0  0  0  0  0  0  0  0
   43.7088   36.6768   45.0248 H   0  0  0  0  0  0  0  0  0  0  0  0
   44.8793   36.6558   42.8015 H   0  0  0  0  0  0  0  0  0  0  0  0
   48.4642   35.9136   42.7853 H   0  0  0  0  0  0  0  0  0  0  0  0
   49.6650   35.6517   40.5832 H   0  0  0  0  0  0  0  0  0  0  0  0
   49.5363   34.6625   38.2440 H   0  0  0  0  0  0  0  0  0  0  0  0
   48.0908   33.7328   37.7658 H   0  0  0  0  0  0  0  0  0  0  0  0
   47.5994   32.1277   45.3624 H   0  0  0  0  0  0  0  0  0  0  0  0
   47.9967   30.4666   47.1698 H   0  0  0  0  0  0  0  0  0  0  0  0
   44.8282   32.0273   49.4807 H   0  0  0  0  0  0  0  0  0  0  0  0
  1  6  2  0
  2  1  1  0
  3  2  2  0
  3  4  1  0
  4  5  2  0
  5  6  1  0
  5 15  1  0
  7  3  1  0
  8  7  1  0
  9  8  2  0
 10 12  2  0
 10  9  1  0
 11 10  1  0
 12 13  1  0
 13 14  2  0
 13  7  1  0
 15 20  1  0
 16 15  2  0
 16 17  1  0
 17 18  2  0
 18 19  1  0
 20 19  2  0
  1 21  1  0
  2 22  1  0
  8 23  1  0
  9 24  1  0
 11 25  1  0
 11 26  1  0
 16 27  1  0
 17 28  1  0
 19 29  1  0
M  ISO  7  21  14  22  14  23  14  24  14  27  14  28  14  29  14
M  END
>  <minimizedAffinity>  (1) 
-6.55818796

>  <minimizedRMSD>  (1) 
0.249564454

$$$$
