
     RDKit          3D

 28 30  0  0  0  0  0  0  0  0999 V2000
   44.4410   35.9490   44.7940 C   0  0  0  0  0  0  0  0  0  0  0  0
   45.0840   35.9310   43.5490 C   0  0  0  0  0  0  0  0  0  0  0  0
   46.0240   34.9190   43.2990 C   0  0  0  0  0  0  0  0  0  0  0  0
   46.2530   34.0140   44.2880 N   0  0  0  0  0  0  0  0  0  0  0  0
   45.6150   34.0620   45.4790 C   0  0  0  0  0  0  0  0  0  0  0  0
   44.7020   35.0410   45.7270 N   0  0  0  0  0  0  0  0  0  0  0  0
   45.8920   33.0870   46.4810 N   0  0  0  0  0  0  0  0  0  0  0  0
   45.2350   32.8140   47.6210 C   0  0  0  0  0  0  0  0  0  0  0  0
   45.9130   31.7670   48.2570 C   0  0  0  0  0  0  0  0  0  0  0  0
   46.9820   31.4210   47.4830 N   0  0  0  0  0  0  0  0  0  0  0  0
   46.9390   32.2380   46.4200 C   0  0  0  0  0  0  0  0  0  0  0  0
   46.7490   34.7780   42.0850 N   0  0  0  0  0  0  0  0  0  0  0  0
   47.9850   35.3410   41.9590 C   0  0  0  0  0  0  0  0  0  0  0  0
   48.6570   35.1770   40.7530 C   0  0  0  0  0  0  0  0  0  0  0  0
   48.0230   34.4520   39.7660 C   0  0  0  0  0  0  0  0  0  0  0  0
   48.6440   34.2430   38.5090 N   0  0  0  0  0  0  0  0  0  0  0  0
   46.8020   33.9110   39.9270 N   0  0  0  0  0  0  0  0  0  0  0  0
   46.1370   34.0690   41.1090 C   0  0  0  0  0  0  0  0  0  0  0  0
   44.9940   33.5740   41.2860 O   0  0  0  0  0  0  0  0  0  0  0  0
   43.7011   36.7355   45.0037 H   0  0  0  0  0  0  0  0  0  0  0  0
   44.8577   36.6910   42.7866 H   0  0  0  0  0  0  0  0  0  0  0  0
   44.3300   33.3205   47.9875 H   0  0  0  0  0  0  0  0  0  0  0  0
   45.6325   31.3038   49.2145 H   0  0  0  0  0  0  0  0  0  0  0  0
   47.6693   32.2182   45.5976 H   0  0  0  0  0  0  0  0  0  0  0  0
   48.4365   35.9077   42.7866 H   0  0  0  0  0  0  0  0  0  0  0  0
   49.6558   35.6089   40.5923 H   0  0  0  0  0  0  0  0  0  0  0  0
   49.5796   34.6328   38.3256 H   0  0  0  0  0  0  0  0  0  0  0  0
   48.1596   33.7013   37.7790 H   0  0  0  0  0  0  0  0  0  0  0  0
  1  6  2  0
  2  1  1  0
  3  2  2  0
  3  4  1  0
  4  5  2  0
  5  6  1  0
  5  7  1  0
  7  8  1  0
  8  9  2  0
 10  9  1  0
 11  7  1  0
 11 10  2  0
 12  3  1  0
 13 12  1  0
 14 13  2  0
 15 17  2  0
 15 14  1  0
 16 15  1  0
 17 18  1  0
 18 19  2  0
 18 12  1  0
  1 20  1  0
  2 21  1  0
  8 22  1  0
  9 23  1  0
 11 24  1  0
 13 25  1  0
 14 26  1  0
 16 27  1  0
 16 28  1  0
M  ISO  7  20  14  21  14  22  14  23  14  24  14  25  14  26  14
M  END
>  <minimizedAffinity>  (1) 
-6.53781128

>  <minimizedRMSD>  (1) 
0.11857868

$$$$
