
     RDKit          3D

 34 36  0  0  0  0  0  0  0  0999 V2000
   44.5090   35.8400   44.9630 C   0  0  0  0  0  0  0  0  0  0  0  0
   45.1610   35.8730   43.7220 C   0  0  0  0  0  0  0  0  0  0  0  0
   46.0310   34.8450   43.4030 C   0  0  0  0  0  0  0  0  0  0  0  0
   46.2300   33.8290   44.3080 N   0  0  0  0  0  0  0  0  0  0  0  0
   45.5750   33.8380   45.5000 C   0  0  0  0  0  0  0  0  0  0  0  0
   44.7260   34.8290   45.8250 N   0  0  0  0  0  0  0  0  0  0  0  0
   46.7620   34.7560   42.1710 N   0  0  0  0  0  0  0  0  0  0  0  0
   47.9910   35.3160   42.0650 C   0  0  0  0  0  0  0  0  0  0  0  0
   48.6630   35.2030   40.8480 C   0  0  0  0  0  0  0  0  0  0  0  0
   48.0200   34.5190   39.8260 C   0  0  0  0  0  0  0  0  0  0  0  0
   48.6450   34.3680   38.5690 N   0  0  0  0  0  0  0  0  0  0  0  0
   46.8030   33.9800   39.9760 N   0  0  0  0  0  0  0  0  0  0  0  0
   46.1480   34.0930   41.1680 C   0  0  0  0  0  0  0  0  0  0  0  0
   45.0000   33.5910   41.3290 O   0  0  0  0  0  0  0  0  0  0  0  0
   45.8000   32.7310   46.4670 C   0  0  0  0  0  0  0  0  0  0  0  0
   47.2070   32.6640   46.9840 C   0  0  0  0  0  0  0  0  0  0  0  0
   47.0490   31.7610   48.1940 C   0  0  0  0  0  0  0  0  0  0  0  0
   45.7440   32.2310   48.8000 C   0  0  0  0  0  0  0  0  0  0  0  0
   45.0290   33.0490   47.7520 C   0  0  0  0  0  0  0  0  0  0  0  0
   43.8136   36.6479   45.2347 H   0  0  0  0  0  0  0  0  0  0  0  0
   44.9847   36.6986   43.0168 H   0  0  0  0  0  0  0  0  0  0  0  0
   48.4463   35.8451   42.9151 H   0  0  0  0  0  0  0  0  0  0  0  0
   49.6627   35.6387   40.7041 H   0  0  0  0  0  0  0  0  0  0  0  0
   49.5812   34.7662   38.4082 H   0  0  0  0  0  0  0  0  0  0  0  0
   48.1647   33.8597   37.8128 H   0  0  0  0  0  0  0  0  0  0  0  0
   45.5142   31.8151   45.9289 H   0  0  0  0  0  0  0  0  0  0  0  0
   47.8866   32.2223   46.2403 H   0  0  0  0  0  0  0  0  0  0  0  0
   47.6446   33.6465   47.2148 H   0  0  0  0  0  0  0  0  0  0  0  0
   46.9879   30.7045   47.8938 H   0  0  0  0  0  0  0  0  0  0  0  0
   47.8972   31.8184   48.8921 H   0  0  0  0  0  0  0  0  0  0  0  0
   45.1286   31.3652   49.0857 H   0  0  0  0  0  0  0  0  0  0  0  0
   45.9288   32.8319   49.7027 H   0  0  0  0  0  0  0  0  0  0  0  0
   45.0812   34.1223   47.9871 H   0  0  0  0  0  0  0  0  0  0  0  0
   43.9572   32.8123   47.6797 H   0  0  0  0  0  0  0  0  0  0  0  0
  1  6  2  0
  2  1  1  0
  3  2  2  0
  3  4  1  0
  4  5  2  0
  5  6  1  0
  5 15  1  0
  7  3  1  0
  8  7  1  0
  9  8  2  0
 10 12  2  0
 10  9  1  0
 11 10  1  0
 12 13  1  0
 13 14  2  0
 13  7  1  0
 15 16  1  0
 15 19  1  0
 16 17  1  0
 17 18  1  0
 19 18  1  0
  1 20  1  0
  2 21  1  0
  8 22  1  0
  9 23  1  0
 11 24  1  0
 11 25  1  0
 15 26  1  0
 16 27  1  0
 16 28  1  0
 17 29  1  0
 17 30  1  0
 18 31  1  0
 18 32  1  0
 19 33  1  0
 19 34  1  0
M  ISO  8  20  14  21  14  22  14  23  14  26  13  27  13  28  13  29  13
M  ISO  5  30  13  31  13  32  13  33  13  34  13
M  END
>  <minimizedAffinity>  (1) 
-6.36347246

>  <minimizedRMSD>  (1) 
0.226980522

$$$$
