
     RDKit          3D

 28 30  0  0  0  0  0  0  0  0999 V2000
   44.4440   35.9220   44.7900 C   0  0  0  0  0  0  0  0  0  0  0  0
   45.0920   35.8970   43.5500 C   0  0  0  0  0  0  0  0  0  0  0  0
   46.0310   34.9160   43.2850 C   0  0  0  0  0  0  0  0  0  0  0  0
   46.2890   33.9910   44.2800 N   0  0  0  0  0  0  0  0  0  0  0  0
   45.6410   34.0520   45.4630 C   0  0  0  0  0  0  0  0  0  0  0  0
   44.7310   35.0040   45.7170 N   0  0  0  0  0  0  0  0  0  0  0  0
   46.7550   34.7820   42.0710 N   0  0  0  0  0  0  0  0  0  0  0  0
   47.9940   35.3490   41.9440 C   0  0  0  0  0  0  0  0  0  0  0  0
   48.6650   35.1860   40.7360 C   0  0  0  0  0  0  0  0  0  0  0  0
   48.0230   34.4540   39.7430 C   0  0  0  0  0  0  0  0  0  0  0  0
   48.6480   34.2420   38.4930 N   0  0  0  0  0  0  0  0  0  0  0  0
   46.8010   33.9140   39.9120 N   0  0  0  0  0  0  0  0  0  0  0  0
   46.1450   34.0730   41.0940 C   0  0  0  0  0  0  0  0  0  0  0  0
   45.0050   33.5760   41.2730 O   0  0  0  0  0  0  0  0  0  0  0  0
   45.9550   33.0510   46.4720 C   0  0  0  0  0  0  0  0  0  0  0  0
   45.2830   32.7740   47.6460 C   0  0  0  0  0  0  0  0  0  0  0  0
   45.9070   31.7410   48.3310 C   0  0  0  0  0  0  0  0  0  0  0  0
   46.9480   31.4230   47.5410 N   0  0  0  0  0  0  0  0  0  0  0  0
   46.9940   32.1670   46.4640 N   0  0  0  0  0  0  0  0  0  0  0  0
   43.6959   36.7001   45.0021 H   0  0  0  0  0  0  0  0  0  0  0  0
   44.8556   36.6548   42.7885 H   0  0  0  0  0  0  0  0  0  0  0  0
   48.4455   35.9161   42.7714 H   0  0  0  0  0  0  0  0  0  0  0  0
   49.6631   35.6187   40.5730 H   0  0  0  0  0  0  0  0  0  0  0  0
   49.5833   34.6336   38.3119 H   0  0  0  0  0  0  0  0  0  0  0  0
   48.1681   33.6960   37.7633 H   0  0  0  0  0  0  0  0  0  0  0  0
   44.3795   33.2987   47.9901 H   0  0  0  0  0  0  0  0  0  0  0  0
   45.6187   31.2895   49.2918 H   0  0  0  0  0  0  0  0  0  0  0  0
   47.6292   30.6814   47.7575 H   0  0  0  0  0  0  0  0  0  0  0  0
  1  6  2  0
  2  1  1  0
  3  2  2  0
  3  4  1  0
  4  5  2  0
  5  6  1  0
  5 15  1  0
  7  3  1  0
  8  7  1  0
  9  8  2  0
 10 12  2  0
 10  9  1  0
 11 10  1  0
 12 13  1  0
 13 14  2  0
 13  7  1  0
 15 16  1  0
 16 17  2  0
 18 17  1  0
 19 15  2  0
 19 18  1  0
  1 20  1  0
  2 21  1  0
  8 22  1  0
  9 23  1  0
 11 24  1  0
 11 25  1  0
 16 26  1  0
 17 27  1  0
 18 28  1  0
M  ISO  7  20  14  21  14  22  14  23  14  26  14  27  14  28   9
M  END
>  <minimizedAffinity>  (1) 
-6.26989317

>  <minimizedRMSD>  (1) 
0.18365252

$$$$
