
     RDKit          3D

 28 30  0  0  0  0  0  0  0  0999 V2000
   44.4380   36.0800   44.7570 C   0  0  0  0  0  0  0  0  0  0  0  0
   45.1090   36.0270   43.5290 C   0  0  0  0  0  0  0  0  0  0  0  0
   45.9900   34.9890   43.2730 C   0  0  0  0  0  0  0  0  0  0  0  0
   46.1620   34.0490   44.2550 N   0  0  0  0  0  0  0  0  0  0  0  0
   45.5000   34.1250   45.4320 C   0  0  0  0  0  0  0  0  0  0  0  0
   44.6430   35.1410   45.6760 N   0  0  0  0  0  0  0  0  0  0  0  0
   46.7300   34.8210   42.0740 N   0  0  0  0  0  0  0  0  0  0  0  0
   47.9820   35.3390   41.9550 C   0  0  0  0  0  0  0  0  0  0  0  0
   48.6630   35.1470   40.7610 C   0  0  0  0  0  0  0  0  0  0  0  0
   48.0220   34.4380   39.7640 C   0  0  0  0  0  0  0  0  0  0  0  0
   48.6470   34.1980   38.5180 N   0  0  0  0  0  0  0  0  0  0  0  0
   46.7740   33.9330   39.9110 N   0  0  0  0  0  0  0  0  0  0  0  0
   46.1040   34.1220   41.0860 C   0  0  0  0  0  0  0  0  0  0  0  0
   44.9420   33.6650   41.2520 O   0  0  0  0  0  0  0  0  0  0  0  0
   45.7890   33.0410   46.3900 C   0  0  0  0  0  0  0  0  0  0  0  0
   45.3070   32.8110   47.6250 C   0  0  0  0  0  0  0  0  0  0  0  0
   45.7180   31.7350   48.3360 C   0  0  0  0  0  0  0  0  0  0  0  0
   46.6740   30.8990   47.6780 C   0  0  0  0  0  0  0  0  0  0  0  0
   46.9200   31.7640   46.0090 S   0  0  0  0  0  0  0  0  0  0  0  0
   43.7375   36.9029   44.9625 H   0  0  0  0  0  0  0  0  0  0  0  0
   44.9374   36.8058   42.7714 H   0  0  0  0  0  0  0  0  0  0  0  0
   48.4431   35.8959   42.7840 H   0  0  0  0  0  0  0  0  0  0  0  0
   49.6777   35.5455   40.6139 H   0  0  0  0  0  0  0  0  0  0  0  0
   49.5968   34.5550   38.3410 H   0  0  0  0  0  0  0  0  0  0  0  0
   48.1523   33.6663   37.7876 H   0  0  0  0  0  0  0  0  0  0  0  0
   44.5721   33.5038   48.0609 H   0  0  0  0  0  0  0  0  0  0  0  0
   45.3436   31.5190   49.3475 H   0  0  0  0  0  0  0  0  0  0  0  0
   47.1499   29.9794   48.0494 H   0  0  0  0  0  0  0  0  0  0  0  0
  1  6  2  0
  2  1  1  0
  3  2  2  0
  3  4  1  0
  4  5  2  0
  5  6  1  0
  5 15  1  0
  7  3  1  0
  8  7  1  0
  9  8  2  0
 10 12  2  0
 10  9  1  0
 11 10  1  0
 12 13  1  0
 13 14  2  0
 13  7  1  0
 15 16  2  0
 16 17  1  0
 18 17  2  0
 19 15  1  0
 19 18  1  0
  1 20  1  0
  2 21  1  0
  8 22  1  0
  9 23  1  0
 11 24  1  0
 11 25  1  0
 16 26  1  0
 17 27  1  0
 18 28  1  0
M  ISO  7  20  14  21  14  22  14  23  14  26  14  27  14  28  14
M  END
>  <minimizedAffinity>  (1) 
-6.26276445

>  <minimizedRMSD>  (1) 
0.465744853

$$$$
