
     RDKit          3D

 24 25  0  0  0  0  0  0  0  0999 V2000
   46.7490   34.8140   42.0640 N   0  0  0  0  0  0  0  0  0  0  0  0
   47.9940   35.3430   41.9450 C   0  0  0  0  0  0  0  0  0  0  0  0
   48.6670   35.1680   40.7450 C   0  0  0  0  0  0  0  0  0  0  0  0
   48.0350   34.4690   39.7470 C   0  0  0  0  0  0  0  0  0  0  0  0
   48.6350   34.2330   38.4880 N   0  0  0  0  0  0  0  0  0  0  0  0
   46.8000   33.9580   39.9000 N   0  0  0  0  0  0  0  0  0  0  0  0
   46.1170   34.1200   41.0780 C   0  0  0  0  0  0  0  0  0  0  0  0
   44.9640   33.6530   41.2450 O   0  0  0  0  0  0  0  0  0  0  0  0
   44.4560   35.9870   44.7820 C   0  0  0  0  0  0  0  0  0  0  0  0
   45.1060   35.9770   43.5380 C   0  0  0  0  0  0  0  0  0  0  0  0
   46.0100   34.9620   43.2750 C   0  0  0  0  0  0  0  0  0  0  0  0
   46.2220   34.0110   44.2540 N   0  0  0  0  0  0  0  0  0  0  0  0
   45.5720   34.0570   45.4380 C   0  0  0  0  0  0  0  0  0  0  0  0
   44.6900   35.0490   45.6960 N   0  0  0  0  0  0  0  0  0  0  0  0
   45.8550   32.9910   46.4470 C   0  0  0  0  0  0  0  0  0  0  0  0
   44.9560   33.1660   47.4920 F   0  0  0  0  0  0  0  0  0  0  0  0
   45.6800   31.7260   45.9520 F   0  0  0  0  0  0  0  0  0  0  0  0
   47.1420   33.1010   46.9280 F   0  0  0  0  0  0  0  0  0  0  0  0
   48.4558   35.8948   42.7770 H   0  0  0  0  0  0  0  0  0  0  0  0
   49.6773   35.5773   40.5974 H   0  0  0  0  0  0  0  0  0  0  0  0
   49.5804   34.5922   38.2926 H   0  0  0  0  0  0  0  0  0  0  0  0
   48.1265   33.7020   37.7666 H   0  0  0  0  0  0  0  0  0  0  0  0
   43.7368   36.7886   45.0063 H   0  0  0  0  0  0  0  0  0  0  0  0
   44.9020   36.7571   42.7898 H   0  0  0  0  0  0  0  0  0  0  0  0
  1 11  1  0
  2  1  1  0
  3  2  2  0
  4  6  2  0
  4  3  1  0
  5  4  1  0
  6  7  1  0
  7  8  2  0
  7  1  1  0
  9 14  2  0
 10  9  1  0
 11 10  2  0
 11 12  1  0
 12 13  2  0
 13 14  1  0
 13 15  1  0
 15 18  1  0
 15 16  1  0
 17 15  1  0
  2 19  1  0
  3 20  1  0
  5 21  1  0
  5 22  1  0
  9 23  1  0
 10 24  1  0
M  ISO  4  19  14  20  14  23  14  24  14
M  END
>  <minimizedAffinity>  (1) 
-6.15288639

>  <minimizedRMSD>  (1) 
0.55388689

$$$$
