
     RDKit          3D

 30 31  0  0  0  0  0  0  0  0999 V2000
   46.8440   34.7100   42.0860 N   0  0  0  0  0  0  0  0  0  0  0  0
   48.0330   35.3520   41.9310 C   0  0  0  0  0  0  0  0  0  0  0  0
   48.6750   35.2740   40.7020 C   0  0  0  0  0  0  0  0  0  0  0  0
   48.0480   34.5380   39.7080 C   0  0  0  0  0  0  0  0  0  0  0  0
   48.6180   34.3980   38.4170 N   0  0  0  0  0  0  0  0  0  0  0  0
   46.8760   33.9200   39.8980 N   0  0  0  0  0  0  0  0  0  0  0  0
   46.2360   33.9900   41.1050 C   0  0  0  0  0  0  0  0  0  0  0  0
   45.1390   33.4190   41.3030 O   0  0  0  0  0  0  0  0  0  0  0  0
   44.5420   35.6490   44.8860 C   0  0  0  0  0  0  0  0  0  0  0  0
   45.1480   35.7060   43.6240 C   0  0  0  0  0  0  0  0  0  0  0  0
   46.1490   34.7620   43.3300 C   0  0  0  0  0  0  0  0  0  0  0  0
   46.4800   33.8430   44.2760 N   0  0  0  0  0  0  0  0  0  0  0  0
   45.8690   33.8210   45.4820 C   0  0  0  0  0  0  0  0  0  0  0  0
   44.9090   34.7170   45.7820 N   0  0  0  0  0  0  0  0  0  0  0  0
   46.2420   32.8070   46.5140 C   0  0  0  0  0  0  0  0  0  0  0  0
   45.2260   32.8180   47.6580 C   0  0  0  0  0  0  0  0  0  0  0  0
   46.2360   31.4020   45.9430 C   0  0  0  0  0  0  0  0  0  0  0  0
   48.4766   35.9209   42.7614 H   0  0  0  0  0  0  0  0  0  0  0  0
   49.6386   35.7741   40.5248 H   0  0  0  0  0  0  0  0  0  0  0  0
   49.5192   34.8473   38.2004 H   0  0  0  0  0  0  0  0  0  0  0  0
   48.1308   33.8470   37.6959 H   0  0  0  0  0  0  0  0  0  0  0  0
   43.7575   36.3748   45.1462 H   0  0  0  0  0  0  0  0  0  0  0  0
   44.8504   36.4653   42.8859 H   0  0  0  0  0  0  0  0  0  0  0  0
   47.2504   33.0713   46.8651 H   0  0  0  0  0  0  0  0  0  0  0  0
   45.7579   32.8122   48.6208 H   0  0  0  0  0  0  0  0  0  0  0  0
   44.6046   33.7229   47.5878 H   0  0  0  0  0  0  0  0  0  0  0  0
   44.5851   31.9267   47.5878 H   0  0  0  0  0  0  0  0  0  0  0  0
   46.2329   30.6719   46.7657 H   0  0  0  0  0  0  0  0  0  0  0  0
   45.3372   31.2614   45.3246 H   0  0  0  0  0  0  0  0  0  0  0  0
   47.1335   31.2537   45.3246 H   0  0  0  0  0  0  0  0  0  0  0  0
  1 11  1  0
  2  1  1  0
  3  2  2  0
  4  6  2  0
  4  3  1  0
  5  4  1  0
  6  7  1  0
  7  8  2  0
  7  1  1  0
  9 14  2  0
 10  9  1  0
 11 10  2  0
 11 12  1  0
 12 13  2  0
 13 14  1  0
 13 15  1  0
 15 16  1  0
 17 15  1  0
  2 18  1  0
  3 19  1  0
  5 20  1  0
  5 21  1  0
  9 22  1  0
 10 23  1  0
 15 24  1  0
 16 25  1  0
 16 26  1  0
 16 27  1  0
 17 28  1  0
 17 29  1  0
 17 30  1  0
M  ISO  8  18  14  19  14  22  14  23  14  24   8  25   8  26   8  27   8
M  ISO  3  28   8  29   8  30   8
M  END
>  <minimizedAffinity>  (1) 
-5.728477

>  <minimizedRMSD>  (1) 
0.49838382

$$$$
