
     RDKit          3D

 23 24  0  0  0  0  0  0  0  0999 V2000
   46.7230   34.8240   42.0240 N   0  0  0  0  0  0  0  0  0  0  0  0
   47.9750   35.3320   41.9110 C   0  0  0  0  0  0  0  0  0  0  0  0
   48.6730   35.1550   40.7360 C   0  0  0  0  0  0  0  0  0  0  0  0
   48.0360   34.4560   39.7320 C   0  0  0  0  0  0  0  0  0  0  0  0
   48.6540   34.2090   38.4770 N   0  0  0  0  0  0  0  0  0  0  0  0
   46.8000   33.9650   39.8720 N   0  0  0  0  0  0  0  0  0  0  0  0
   46.1060   34.1410   41.0380 C   0  0  0  0  0  0  0  0  0  0  0  0
   44.9320   33.6860   41.1980 O   0  0  0  0  0  0  0  0  0  0  0  0
   44.4810   36.1400   44.7230 C   0  0  0  0  0  0  0  0  0  0  0  0
   45.1560   36.1030   43.4930 C   0  0  0  0  0  0  0  0  0  0  0  0
   45.9790   34.9970   43.2280 C   0  0  0  0  0  0  0  0  0  0  0  0
   46.0820   34.0210   44.1730 N   0  0  0  0  0  0  0  0  0  0  0  0
   45.4210   34.0860   45.3460 C   0  0  0  0  0  0  0  0  0  0  0  0
   44.6190   35.1560   45.6110 N   0  0  0  0  0  0  0  0  0  0  0  0
   45.5830   33.0240   46.2780 N   0  0  0  0  0  0  0  0  0  0  0  0
   48.4294   35.8803   42.7494 H   0  0  0  0  0  0  0  0  0  0  0  0
   49.6903   35.5525   40.6050 H   0  0  0  0  0  0  0  0  0  0  0  0
   49.6064   34.5564   38.2947 H   0  0  0  0  0  0  0  0  0  0  0  0
   48.1497   33.6825   37.7494 H   0  0  0  0  0  0  0  0  0  0  0  0
   43.8284   36.9939   44.9575 H   0  0  0  0  0  0  0  0  0  0  0  0
   45.0437   36.9151   42.7596 H   0  0  0  0  0  0  0  0  0  0  0  0
   45.0882   33.0513   47.1810 H   0  0  0  0  0  0  0  0  0  0  0  0
   46.1951   32.2276   46.0500 H   0  0  0  0  0  0  0  0  0  0  0  0
  1 11  1  0
  2  1  1  0
  3  2  2  0
  4  6  2  0
  4  3  1  0
  5  4  1  0
  6  7  1  0
  7  8  2  0
  7  1  1  0
  9 14  2  0
 10  9  1  0
 11 10  2  0
 11 12  1  0
 12 13  2  0
 13 14  1  0
 13 15  1  0
  2 16  1  0
  3 17  1  0
  5 18  1  0
  5 19  1  0
  9 20  1  0
 10 21  1  0
 15 22  1  0
 15 23  1  0
M  ISO  4  16  14  17  14  20  14  21  14
M  END
>  <minimizedAffinity>  (1) 
-5.54276848

>  <minimizedRMSD>  (1) 
0.132617816

$$$$
