
     RDKit          3D

 23 24  0  0  0  0  0  0  0  0999 V2000
   46.7620   34.7970   42.0540 N   0  0  0  0  0  0  0  0  0  0  0  0
   47.9900   35.3520   41.9160 C   0  0  0  0  0  0  0  0  0  0  0  0
   48.6650   35.1950   40.7140 C   0  0  0  0  0  0  0  0  0  0  0  0
   48.0420   34.4770   39.7210 C   0  0  0  0  0  0  0  0  0  0  0  0
   48.6460   34.2580   38.4570 N   0  0  0  0  0  0  0  0  0  0  0  0
   46.8110   33.9310   39.8850 N   0  0  0  0  0  0  0  0  0  0  0  0
   46.1530   34.0880   41.0650 C   0  0  0  0  0  0  0  0  0  0  0  0
   45.0020   33.5880   41.2420 O   0  0  0  0  0  0  0  0  0  0  0  0
   44.4660   35.9520   44.7640 C   0  0  0  0  0  0  0  0  0  0  0  0
   45.1200   35.9390   43.5230 C   0  0  0  0  0  0  0  0  0  0  0  0
   46.0310   34.9310   43.2640 C   0  0  0  0  0  0  0  0  0  0  0  0
   46.2350   34.0090   44.2430 N   0  0  0  0  0  0  0  0  0  0  0  0
   45.6060   34.0270   45.4290 C   0  0  0  0  0  0  0  0  0  0  0  0
   44.7200   35.0050   45.6830 N   0  0  0  0  0  0  0  0  0  0  0  0
   45.8720   33.0020   46.4410 C   0  0  0  0  0  0  0  0  0  0  0  0
   45.1930   32.9780   47.4990 O   0  0  0  0  0  0  0  0  0  0  0  0
   48.4443   35.9176   42.7429 H   0  0  0  0  0  0  0  0  0  0  0  0
   49.6637   35.6299   40.5610 H   0  0  0  0  0  0  0  0  0  0  0  0
   49.5808   34.6426   38.2594 H   0  0  0  0  0  0  0  0  0  0  0  0
   48.1499   33.7143   37.7364 H   0  0  0  0  0  0  0  0  0  0  0  0
   43.7377   36.7456   44.9872 H   0  0  0  0  0  0  0  0  0  0  0  0
   44.9125   36.7147   42.7712 H   0  0  0  0  0  0  0  0  0  0  0  0
   46.6631   32.2558   46.2760 H   0  0  0  0  0  0  0  0  0  0  0  0
  1 11  1  0
  2  1  1  0
  3  2  2  0
  4  6  2  0
  4  3  1  0
  5  4  1  0
  6  7  1  0
  7  8  2  0
  7  1  1  0
  9 14  2  0
 10  9  1  0
 11 10  2  0
 11 12  1  0
 12 13  2  0
 13 14  1  0
 13 15  1  0
 15 16  2  0
  2 17  1  0
  3 18  1  0
  5 19  1  0
  5 20  1  0
  9 21  1  0
 10 22  1  0
 15 23  1  0
M  ISO  5  17  14  18  14  21  14  22  14  23   6
M  END
>  <minimizedAffinity>  (1) 
-5.50384378

>  <minimizedRMSD>  (1) 
0.269895494

$$$$
