
     RDKit          3D

 24 25  0  0  0  0  0  0  0  0999 V2000
   46.7750   34.7980   42.0320 N   0  0  0  0  0  0  0  0  0  0  0  0
   47.9980   35.3600   41.9070 C   0  0  0  0  0  0  0  0  0  0  0  0
   48.6710   35.1990   40.7010 C   0  0  0  0  0  0  0  0  0  0  0  0
   48.0400   34.4750   39.7150 C   0  0  0  0  0  0  0  0  0  0  0  0
   48.6430   34.2530   38.4490 N   0  0  0  0  0  0  0  0  0  0  0  0
   46.8230   33.9320   39.8760 N   0  0  0  0  0  0  0  0  0  0  0  0
   46.1580   34.0860   41.0560 C   0  0  0  0  0  0  0  0  0  0  0  0
   45.0150   33.5860   41.2350 O   0  0  0  0  0  0  0  0  0  0  0  0
   44.4670   35.9480   44.7540 C   0  0  0  0  0  0  0  0  0  0  0  0
   45.1190   35.9350   43.5170 C   0  0  0  0  0  0  0  0  0  0  0  0
   46.0370   34.9320   43.2530 C   0  0  0  0  0  0  0  0  0  0  0  0
   46.2680   33.9860   44.2310 N   0  0  0  0  0  0  0  0  0  0  0  0
   45.6190   34.0290   45.4170 C   0  0  0  0  0  0  0  0  0  0  0  0
   44.7220   35.0070   45.6770 N   0  0  0  0  0  0  0  0  0  0  0  0
   45.9080   32.9760   46.4450 C   0  0  0  0  0  0  0  0  0  0  0  0
   48.4475   35.9279   42.7349 H   0  0  0  0  0  0  0  0  0  0  0  0
   49.6689   35.6333   40.5411 H   0  0  0  0  0  0  0  0  0  0  0  0
   49.5771   34.6381   38.2489 H   0  0  0  0  0  0  0  0  0  0  0  0
   48.1464   33.7069   37.7307 H   0  0  0  0  0  0  0  0  0  0  0  0
   43.7356   36.7397   44.9737 H   0  0  0  0  0  0  0  0  0  0  0  0
   44.9061   36.7093   42.7653 H   0  0  0  0  0  0  0  0  0  0  0  0
   45.7905   33.4041   47.4514 H   0  0  0  0  0  0  0  0  0  0  0  0
   45.2066   32.1381   46.3188 H   0  0  0  0  0  0  0  0  0  0  0  0
   46.9389   32.6135   46.3188 H   0  0  0  0  0  0  0  0  0  0  0  0
  1 11  1  0
  2  1  1  0
  3  2  2  0
  4  6  2  0
  4  3  1  0
  5  4  1  0
  6  7  1  0
  7  8  2  0
  7  1  1  0
  9 14  2  0
 10  9  1  0
 11 10  2  0
 11 12  1  0
 12 13  2  0
 13 14  1  0
 13 15  1  0
  2 16  1  0
  3 17  1  0
  5 18  1  0
  5 19  1  0
  9 20  1  0
 10 21  1  0
 15 22  1  0
 15 23  1  0
 15 24  1  0
M  ISO  7  16  14  17  14  20  14  21  14  22   8  23   8  24   8
M  END
>  <minimizedAffinity>  (1) 
-5.46077108

>  <minimizedRMSD>  (1) 
0.0422811806

$$$$
