
     RDKit          3D

 22 23  0  0  0  0  0  0  0  0999 V2000
   46.7560   34.7860   42.0500 N   0  0  0  0  0  0  0  0  0  0  0  0
   47.9900   35.3400   41.9350 C   0  0  0  0  0  0  0  0  0  0  0  0
   48.6710   35.1790   40.7310 C   0  0  0  0  0  0  0  0  0  0  0  0
   48.0490   34.4660   39.7340 C   0  0  0  0  0  0  0  0  0  0  0  0
   48.6890   34.2660   38.4870 N   0  0  0  0  0  0  0  0  0  0  0  0
   46.8240   33.9300   39.8820 N   0  0  0  0  0  0  0  0  0  0  0  0
   46.1520   34.0870   41.0640 C   0  0  0  0  0  0  0  0  0  0  0  0
   45.0010   33.5900   41.2220 O   0  0  0  0  0  0  0  0  0  0  0  0
   44.4580   35.9910   44.7470 C   0  0  0  0  0  0  0  0  0  0  0  0
   45.1260   35.9690   43.5160 C   0  0  0  0  0  0  0  0  0  0  0  0
   46.0210   34.9210   43.2530 C   0  0  0  0  0  0  0  0  0  0  0  0
   46.1870   33.9800   44.2220 N   0  0  0  0  0  0  0  0  0  0  0  0
   45.5320   34.0210   45.4010 C   0  0  0  0  0  0  0  0  0  0  0  0
   44.6640   35.0410   45.6510 N   0  0  0  0  0  0  0  0  0  0  0  0
   45.7040   33.0590   46.3870 O   0  0  0  0  0  0  0  0  0  0  0  0
   48.4390   35.8998   42.7687 H   0  0  0  0  0  0  0  0  0  0  0  0
   49.6730   35.6080   40.5828 H   0  0  0  0  0  0  0  0  0  0  0  0
   49.6280   34.6556   38.3217 H   0  0  0  0  0  0  0  0  0  0  0  0
   48.2156   33.7309   37.7451 H   0  0  0  0  0  0  0  0  0  0  0  0
   43.7533   36.8064   44.9675 H   0  0  0  0  0  0  0  0  0  0  0  0
   44.9522   36.7583   42.7698 H   0  0  0  0  0  0  0  0  0  0  0  0
   45.2030   33.1275   47.2381 H   0  0  0  0  0  0  0  0  0  0  0  0
  1 11  1  0
  2  1  1  0
  3  2  2  0
  4  6  2  0
  4  3  1  0
  5  4  1  0
  6  7  1  0
  7  8  2  0
  7  1  1  0
  9 14  2  0
 10  9  1  0
 11 10  2  0
 11 12  1  0
 12 13  2  0
 13 14  1  0
 13 15  1  0
  2 16  1  0
  3 17  1  0
  5 18  1  0
  5 19  1  0
  9 20  1  0
 10 21  1  0
 15 22  1  0
M  ISO  5  16  14  17  14  20  14  21  14  22   3
M  END
>  <minimizedAffinity>  (1) 
-5.42300367

>  <minimizedRMSD>  (1) 
0.0288926587

$$$$
