
     RDKit          3D

 28 30  0  0  0  0  0  0  0  0999 V2000
   44.4140   36.0390   44.7090 C   0  0  0  0  0  0  0  0  0  0  0  0
   45.0850   35.9700   43.4830 C   0  0  0  0  0  0  0  0  0  0  0  0
   46.0080   34.9580   43.2530 C   0  0  0  0  0  0  0  0  0  0  0  0
   46.2260   34.0460   44.2590 N   0  0  0  0  0  0  0  0  0  0  0  0
   45.5600   34.1410   45.4340 C   0  0  0  0  0  0  0  0  0  0  0  0
   44.6670   35.1210   45.6590 N   0  0  0  0  0  0  0  0  0  0  0  0
   45.7680   33.2120   46.4900 N   0  0  0  0  0  0  0  0  0  0  0  0
   45.1900   32.8950   47.6370 N   0  0  0  0  0  0  0  0  0  0  0  0
   45.8570   31.8980   48.2330 C   0  0  0  0  0  0  0  0  0  0  0  0
   46.9360   31.5480   47.4170 C   0  0  0  0  0  0  0  0  0  0  0  0
   46.8510   32.4040   46.3130 C   0  0  0  0  0  0  0  0  0  0  0  0
   46.7450   34.7950   42.0430 N   0  0  0  0  0  0  0  0  0  0  0  0
   47.9840   35.3550   41.9230 C   0  0  0  0  0  0  0  0  0  0  0  0
   48.6700   35.1730   40.7280 C   0  0  0  0  0  0  0  0  0  0  0  0
   48.0490   34.4400   39.7470 C   0  0  0  0  0  0  0  0  0  0  0  0
   48.6470   34.1840   38.4800 N   0  0  0  0  0  0  0  0  0  0  0  0
   46.8210   33.8990   39.8990 N   0  0  0  0  0  0  0  0  0  0  0  0
   46.1400   34.0740   41.0740 C   0  0  0  0  0  0  0  0  0  0  0  0
   44.9900   33.5830   41.2480 O   0  0  0  0  0  0  0  0  0  0  0  0
   43.6833   36.8399   44.8949 H   0  0  0  0  0  0  0  0  0  0  0  0
   44.8815   36.7170   42.7016 H   0  0  0  0  0  0  0  0  0  0  0  0
   45.6000   31.4352   49.1972 H   0  0  0  0  0  0  0  0  0  0  0  0
   47.6894   30.7682   47.6023 H   0  0  0  0  0  0  0  0  0  0  0  0
   47.5375   32.4215   45.4537 H   0  0  0  0  0  0  0  0  0  0  0  0
   48.4264   35.9332   42.7476 H   0  0  0  0  0  0  0  0  0  0  0  0
   49.6720   35.5998   40.5740 H   0  0  0  0  0  0  0  0  0  0  0  0
   49.5842   34.5553   38.2684 H   0  0  0  0  0  0  0  0  0  0  0  0
   48.1423   33.6276   37.7753 H   0  0  0  0  0  0  0  0  0  0  0  0
  1  6  2  0
  2  1  1  0
  3  2  2  0
  3  4  1  0
  4  5  2  0
  5  6  1  0
  5  7  1  0
  7  8  1  0
  8  9  2  0
 10  9  1  0
 11  7  1  0
 11 10  2  0
 12  3  1  0
 13 12  1  0
 14 13  2  0
 15 17  2  0
 15 14  1  0
 16 15  1  0
 17 18  1  0
 18 19  2  0
 18 12  1  0
  1 20  1  0
  2 21  1  0
  9 22  1  0
 10 23  1  0
 11 24  1  0
 13 25  1  0
 14 26  1  0
 16 27  1  0
 16 28  1  0
M  ISO  7  20  14  21  14  22  14  23  14  24  14  25  14  26  14
M  END
>  <minimizedAffinity>  (1) 
-6.64479017

>  <minimizedRMSD>  (1) 
0.139947966

$$$$
