
     RDKit          3D

 31 33  0  0  1  0  0  0  0  0999 V2000
   46.9480   34.9830   41.5610 C   0  0  1  0  0  0  0  0  0  0  0  0
   48.4380   35.3300   41.6690 C   0  0  0  0  0  0  0  0  0  0  0  0
   47.9700   33.9870   41.2180 C   0  0  2  0  0  0  0  0  0  0  0  0
   44.6290   35.8470   44.3780 C   0  0  0  0  0  0  0  0  0  0  0  0
   45.3130   35.9290   43.1280 C   0  0  0  0  0  0  0  0  0  0  0  0
   46.2410   34.9430   42.8660 C   0  0  0  0  0  0  0  0  0  0  0  0
   46.4660   33.9470   43.7910 N   0  0  0  0  0  0  0  0  0  0  0  0
   45.7890   33.9110   44.9660 C   0  0  0  0  0  0  0  0  0  0  0  0
   44.8810   34.8510   45.2550 N   0  0  0  0  0  0  0  0  0  0  0  0
   48.2540   33.5890   39.8770 N   0  0  0  0  0  0  0  0  0  0  0  0
   48.4360   34.7320   39.0380 C   0  0  0  0  0  0  0  0  0  0  0  0
   48.2910   34.3920   37.5660 C   0  0  0  0  0  0  0  0  0  0  0  0
   46.9850   33.9020   37.2150 N   0  0  0  0  0  0  0  0  0  0  0  0
   46.3310   33.3310   38.3810 C   0  0  0  0  0  0  0  0  0  0  0  0
   47.3640   32.6480   39.2870 C   0  0  0  0  0  0  0  0  0  0  0  0
   46.0565   35.3416   41.0256 H   0  0  0  0  0  0  0  0  0  0  0  0
   48.8993   36.0266   40.9535 H   0  0  0  0  0  0  0  0  0  0  0  0
   49.1048   35.7098   42.4571 H   0  0  0  0  0  0  0  0  0  0  0  0
   48.1171   32.9459   41.5412 H   0  0  0  0  0  0  0  0  0  0  0  0
   43.8803   36.6116   44.6328 H   0  0  0  0  0  0  0  0  0  0  0  0
   45.1103   36.7375   42.4101 H   0  0  0  0  0  0  0  0  0  0  0  0
   45.9876   33.1037   45.6863 H   0  0  0  0  0  0  0  0  0  0  0  0
   47.6830   35.4890   39.3025 H   0  0  0  0  0  0  0  0  0  0  0  0
   49.4567   35.1093   39.1983 H   0  0  0  0  0  0  0  0  0  0  0  0
   48.4917   35.2996   36.9779 H   0  0  0  0  0  0  0  0  0  0  0  0
   49.0075   33.5862   37.3485 H   0  0  0  0  0  0  0  0  0  0  0  0
   46.4158   34.6805   36.8532 H   0  0  0  0  0  0  0  0  0  0  0  0
   45.8273   34.1311   38.9432 H   0  0  0  0  0  0  0  0  0  0  0  0
   45.5948   32.5839   38.0495 H   0  0  0  0  0  0  0  0  0  0  0  0
   46.8350   32.1086   40.0865 H   0  0  0  0  0  0  0  0  0  0  0  0
   47.9569   31.9574   38.6693 H   0  0  0  0  0  0  0  0  0  0  0  0
  1  2  1  0
  1  6  1  0
  3  1  1  0
  3  2  1  0
  4  9  2  0
  5  4  1  0
  6  5  2  0
  6  7  1  0
  7  8  2  0
  8  9  1  0
 10  3  1  0
 11 10  1  0
 12 11  1  0
 13 12  1  0
 13 14  1  0
 14 15  1  0
 15 10  1  0
  1 16  1  6
  2 17  1  0
  2 18  1  0
  3 19  1  1
  4 20  1  0
  5 21  1  0
  8 22  1  0
 11 23  1  0
 11 24  1  0
 12 25  1  0
 12 26  1  0
 13 27  1  0
 14 28  1  0
 14 29  1  0
 15 30  1  0
 15 31  1  0
M  ISO  8  16  13  17  13  18  13  19  13  20  14  21  14  22  14  23  13
M  ISO  8  24  13  25  13  26  13  27   5  28  13  29  13  30  13  31  13
M  END
>  <minimizedAffinity>  (1) 
-4.82685852

>  <minimizedRMSD>  (1) 
0.798483074

$$$$
