
     RDKit          3D

 34 36  0  0  0  0  0  0  0  0999 V2000
   45.4430   34.1570   41.8690 N   0  0  0  0  0  0  0  0  0  0  0  0
   46.6910   34.3500   41.3380 C   0  0  0  0  0  0  0  0  0  0  0  0
   46.8670   34.0190   39.9990 C   0  0  0  0  0  0  0  0  0  0  0  0
   45.7680   33.5220   39.3140 C   0  0  0  0  0  0  0  0  0  0  0  0
   45.8230   33.1430   37.9350 N   0  0  0  0  0  0  0  0  0  0  0  0
   44.5430   33.3460   39.8860 N   0  0  0  0  0  0  0  0  0  0  0  0
   44.3840   33.6750   41.1960 C   0  0  0  0  0  0  0  0  0  0  0  0
   43.2670   33.5250   41.7560 O   0  0  0  0  0  0  0  0  0  0  0  0
   44.5260   35.9470   45.0420 C   0  0  0  0  0  0  0  0  0  0  0  0
   44.7050   35.7220   43.6750 C   0  0  0  0  0  0  0  0  0  0  0  0
   45.2070   34.4950   43.2370 C   0  0  0  0  0  0  0  0  0  0  0  0
   45.4950   33.5720   44.1860 N   0  0  0  0  0  0  0  0  0  0  0  0
   45.3140   33.8140   45.5010 C   0  0  0  0  0  0  0  0  0  0  0  0
   44.8360   34.9840   45.9230 N   0  0  0  0  0  0  0  0  0  0  0  0
   45.6350   32.8160   46.4890 N   0  0  0  0  0  0  0  0  0  0  0  0
   45.3940   32.6410   47.7720 N   0  0  0  0  0  0  0  0  0  0  0  0
   45.9190   31.5090   48.1920 C   0  0  0  0  0  0  0  0  0  0  0  0
   46.5480   30.9030   47.1080 C   0  0  0  0  0  0  0  0  0  0  0  0
   46.3510   31.7620   46.0290 C   0  0  0  0  0  0  0  0  0  0  0  0
   48.1410   34.1730   39.2930 C   0  0  0  0  0  0  0  0  0  0  0  0
   48.6950   35.3970   39.5150 F   0  0  0  0  0  0  0  0  0  0  0  0
   47.9050   34.0210   37.9200 F   0  0  0  0  0  0  0  0  0  0  0  0
   48.9690   33.1220   39.6390 F   0  0  0  0  0  0  0  0  0  0  0  0
   47.8030   34.8740   42.1350 C   0  0  0  0  0  0  0  0  0  0  0  0
   48.1690   36.1740   41.8380 F   0  0  0  0  0  0  0  0  0  0  0  0
   48.9870   34.1920   41.7630 F   0  0  0  0  0  0  0  0  0  0  0  0
   47.7650   34.5740   43.4780 F   0  0  0  0  0  0  0  0  0  0  0  0
   46.7040   33.2370   37.4098 H   0  0  0  0  0  0  0  0  0  0  0  0
   44.9815   32.7762   37.4678 H   0  0  0  0  0  0  0  0  0  0  0  0
   44.1319   36.9113   45.3951 H   0  0  0  0  0  0  0  0  0  0  0  0
   44.4518   36.5073   42.9475 H   0  0  0  0  0  0  0  0  0  0  0  0
   45.8694   31.1127   49.2169 H   0  0  0  0  0  0  0  0  0  0  0  0
   47.0884   29.9449   47.1042 H   0  0  0  0  0  0  0  0  0  0  0  0
   46.7087   31.6128   44.9996 H   0  0  0  0  0  0  0  0  0  0  0  0
  1 11  1  0
  2  1  1  0
  2 24  1  0
  3  2  2  0
  4  6  2  0
  4  3  1  0
  5  4  1  0
  6  7  1  0
  7  8  2  0
  7  1  1  0
  9 14  2  0
 10  9  1  0
 11 10  2  0
 11 12  1  0
 12 13  2  0
 13 14  1  0
 13 15  1  0
 15 16  1  0
 16 17  2  0
 18 17  1  0
 19 15  1  0
 19 18  2  0
 20 21  1  0
 20 23  1  0
 20  3  1  0
 22 20  1  0
 24 27  1  0
 25 24  1  0
 26 24  1  0
  5 28  1  0
  5 29  1  0
  9 30  1  0
 10 31  1  0
 17 32  1  0
 18 33  1  0
 19 34  1  0
M  ISO  5  30  14  31  14  32  14  33  14  34  14
M  END
>  <minimizedAffinity>  (1) 
-6.99271488

>  <minimizedRMSD>  (1) 
0.425436139

$$$$
