
     RDKit          3D

 38 41  0  0  0  0  0  0  0  0999 V2000
   45.3590   34.0790   41.2280 N   0  0  0  0  0  0  0  0  0  0  0  0
   46.6040   33.9390   40.6800 C   0  0  0  0  0  0  0  0  0  0  0  0
   46.6700   33.4830   39.3560 C   0  0  0  0  0  0  0  0  0  0  0  0
   45.4790   33.2140   38.7130 C   0  0  0  0  0  0  0  0  0  0  0  0
   45.4200   32.7440   37.3600 N   0  0  0  0  0  0  0  0  0  0  0  0
   44.2590   33.3630   39.2770 N   0  0  0  0  0  0  0  0  0  0  0  0
   44.1940   33.8070   40.5730 C   0  0  0  0  0  0  0  0  0  0  0  0
   43.0760   33.9630   41.1360 O   0  0  0  0  0  0  0  0  0  0  0  0
   44.7740   36.1670   44.2730 C   0  0  0  0  0  0  0  0  0  0  0  0
   44.8710   35.8240   42.9190 C   0  0  0  0  0  0  0  0  0  0  0  0
   45.2150   34.5200   42.5620 C   0  0  0  0  0  0  0  0  0  0  0  0
   45.4470   33.6120   43.5730 N   0  0  0  0  0  0  0  0  0  0  0  0
   45.3440   33.9860   44.8700 C   0  0  0  0  0  0  0  0  0  0  0  0
   45.0120   35.2450   45.2120 N   0  0  0  0  0  0  0  0  0  0  0  0
   45.6040   33.0580   45.9290 N   0  0  0  0  0  0  0  0  0  0  0  0
   45.4190   33.0070   47.2270 N   0  0  0  0  0  0  0  0  0  0  0  0
   45.8560   31.8670   47.7300 C   0  0  0  0  0  0  0  0  0  0  0  0
   46.3620   31.1290   46.6710 C   0  0  0  0  0  0  0  0  0  0  0  0
   46.1960   31.9010   45.5300 C   0  0  0  0  0  0  0  0  0  0  0  0
   47.7940   34.4210   41.3920 C   0  0  0  0  0  0  0  0  0  0  0  0
   48.4060   35.6240   41.1980 C   0  0  0  0  0  0  0  0  0  0  0  0
   49.4990   35.8470   41.9900 C   0  0  0  0  0  0  0  0  0  0  0  0
   49.5420   34.6870   42.7140 C   0  0  0  0  0  0  0  0  0  0  0  0
   48.5680   33.9700   42.3140 O   0  0  0  0  0  0  0  0  0  0  0  0
   47.9250   33.2530   38.6470 C   0  0  0  0  0  0  0  0  0  0  0  0
   48.8830   32.7550   39.4780 F   0  0  0  0  0  0  0  0  0  0  0  0
   48.3380   34.4470   38.0650 F   0  0  0  0  0  0  0  0  0  0  0  0
   47.6890   32.3840   37.5740 F   0  0  0  0  0  0  0  0  0  0  0  0
   46.2895   32.5931   36.8288 H   0  0  0  0  0  0  0  0  0  0  0  0
   44.5081   32.5572   36.9190 H   0  0  0  0  0  0  0  0  0  0  0  0
   44.5026   37.1926   44.5638 H   0  0  0  0  0  0  0  0  0  0  0  0
   44.6772   36.5779   42.1417 H   0  0  0  0  0  0  0  0  0  0  0  0
   45.8246   31.5616   48.7863 H   0  0  0  0  0  0  0  0  0  0  0  0
   46.8088   30.1253   46.7249 H   0  0  0  0  0  0  0  0  0  0  0  0
   46.4864   31.6301   44.5042 H   0  0  0  0  0  0  0  0  0  0  0  0
   48.0484   36.3586   40.4614 H   0  0  0  0  0  0  0  0  0  0  0  0
   50.1636   36.7224   42.0330 H   0  0  0  0  0  0  0  0  0  0  0  0
   50.2753   34.4244   43.4908 H   0  0  0  0  0  0  0  0  0  0  0  0
  1 11  1  0
  2  1  1  0
  2 20  1  0
  3  2  2  0
  4  6  2  0
  4  3  1  0
  5  4  1  0
  6  7  1  0
  7  8  2  0
  7  1  1  0
  9 14  2  0
 10  9  1  0
 11 10  2  0
 11 12  1  0
 12 13  2  0
 13 14  1  0
 13 15  1  0
 15 16  1  0
 16 17  2  0
 18 17  1  0
 19 15  1  0
 19 18  2  0
 20 24  1  0
 21 20  2  0
 21 22  1  0
 22 23  2  0
 24 23  1  0
 25  3  1  0
 25 26  1  0
 27 25  1  0
 28 25  1  0
  5 29  1  0
  5 30  1  0
  9 31  1  0
 10 32  1  0
 17 33  1  0
 18 34  1  0
 19 35  1  0
 21 36  1  0
 22 37  1  0
 23 38  1  0
M  ISO  8  31  14  32  14  33  14  34  14  35  14  36  14  37  14  38  14
M  END
>  <minimizedAffinity>  (1) 
-6.96591091

>  <minimizedRMSD>  (1) 
1.21784019

$$$$
