
     RDKit          3D

 23 24  0  0  0  0  0  0  0  0999 V2000
   44.6150   35.3950   45.4580 C   0  0  0  0  0  0  0  0  0  0  0  0
   44.5970   35.5540   44.0540 C   0  0  0  0  0  0  0  0  0  0  0  0
   45.1720   34.5300   43.2600 C   0  0  0  0  0  0  0  0  0  0  0  0
   45.7090   33.4530   43.8680 N   0  0  0  0  0  0  0  0  0  0  0  0
   45.7060   33.3360   45.2300 C   0  0  0  0  0  0  0  0  0  0  0  0
   45.1710   34.2870   46.0020 N   0  0  0  0  0  0  0  0  0  0  0  0
   46.2690   32.2040   45.9010 N   0  0  0  0  0  0  0  0  0  0  0  0
   47.1750   31.4980   45.1790 C   0  0  0  0  0  0  0  0  0  0  0  0
   47.5840   30.4580   46.0200 C   0  0  0  0  0  0  0  0  0  0  0  0
   46.9280   30.5640   47.1950 N   0  0  0  0  0  0  0  0  0  0  0  0
   46.1240   31.6340   47.1210 C   0  0  0  0  0  0  0  0  0  0  0  0
   45.1960   32.2140   48.0910 C   0  0  0  0  0  0  0  0  0  0  0  0
   45.3330   31.4100   49.3770 C   0  0  0  0  0  0  0  0  0  0  0  0
   44.1787   36.1689   46.1067 H   0  0  0  0  0  0  0  0  0  0  0  0
   44.1500   36.4460   43.5909 H   0  0  0  0  0  0  0  0  0  0  0  0
   45.1800   34.6129   42.1632 H   0  0  0  0  0  0  0  0  0  0  0  0
   47.5149   31.7001   44.1526 H   0  0  0  0  0  0  0  0  0  0  0  0
   48.3198   29.6809   45.7656 H   0  0  0  0  0  0  0  0  0  0  0  0
   45.4526   33.2676   48.2755 H   0  0  0  0  0  0  0  0  0  0  0  0
   44.1630   32.1781   47.7147 H   0  0  0  0  0  0  0  0  0  0  0  0
   45.2189   32.0798   50.2421 H   0  0  0  0  0  0  0  0  0  0  0  0
   44.5542   30.6339   49.4089 H   0  0  0  0  0  0  0  0  0  0  0  0
   46.3249   30.9356   49.4089 H   0  0  0  0  0  0  0  0  0  0  0  0
  1  6  2  0
  2  1  1  0
  3  4  1  0
  3  2  2  0
  4  5  2  0
  5  7  1  0
  5  6  1  0
  7 11  1  0
  8  7  1  0
  8  9  2  0
  9 10  1  0
 11 10  2  0
 11 12  1  0
 12 13  1  0
  1 14  1  0
  2 15  1  0
  3 16  1  0
  8 17  1  0
  9 18  1  0
 12 19  1  0
 12 20  1  0
 13 21  1  0
 13 22  1  0
 13 23  1  0
M  ISO  8  14  14  15  14  16  14  17  14  18  14  19   8  20   8  21   8
M  ISO  2  22   8  23   8
M  END
>  <minimizedAffinity>  (1) 
-4.23301601

>  <minimizedRMSD>  (1) 
1.60847676

$$$$
