
     RDKit          3D

 38 41  0  0  0  0  0  0  0  0999 V2000
   45.5110   34.0740   41.2180 N   0  0  0  0  0  0  0  0  0  0  0  0
   46.7270   34.1090   40.6410 C   0  0  0  0  0  0  0  0  0  0  0  0
   46.8800   33.6720   39.3340 C   0  0  0  0  0  0  0  0  0  0  0  0
   45.7490   33.2220   38.7020 C   0  0  0  0  0  0  0  0  0  0  0  0
   45.7630   32.7430   37.3520 N   0  0  0  0  0  0  0  0  0  0  0  0
   44.5290   33.1900   39.2870 N   0  0  0  0  0  0  0  0  0  0  0  0
   44.3930   33.6260   40.5830 C   0  0  0  0  0  0  0  0  0  0  0  0
   43.2730   33.6120   41.1650 O   0  0  0  0  0  0  0  0  0  0  0  0
   44.7680   36.1290   44.2650 C   0  0  0  0  0  0  0  0  0  0  0  0
   44.9200   35.7910   42.9210 C   0  0  0  0  0  0  0  0  0  0  0  0
   45.3280   34.5140   42.5510 C   0  0  0  0  0  0  0  0  0  0  0  0
   45.5600   33.6460   43.5680 N   0  0  0  0  0  0  0  0  0  0  0  0
   45.4110   33.9820   44.8590 C   0  0  0  0  0  0  0  0  0  0  0  0
   45.0190   35.2120   45.2080 N   0  0  0  0  0  0  0  0  0  0  0  0
   45.6630   33.0410   45.9190 N   0  0  0  0  0  0  0  0  0  0  0  0
   45.4380   32.9670   47.2120 N   0  0  0  0  0  0  0  0  0  0  0  0
   45.9030   31.8300   47.7100 C   0  0  0  0  0  0  0  0  0  0  0  0
   46.4680   31.1210   46.6590 C   0  0  0  0  0  0  0  0  0  0  0  0
   46.3060   31.9090   45.5260 C   0  0  0  0  0  0  0  0  0  0  0  0
   47.8660   34.5860   41.3450 N   0  0  0  0  0  0  0  0  0  0  0  0
   48.4870   33.6250   42.0630 C   0  0  0  0  0  0  0  0  0  0  0  0
   49.5850   34.1970   42.7100 C   0  0  0  0  0  0  0  0  0  0  0  0
   49.5910   35.4870   42.3620 N   0  0  0  0  0  0  0  0  0  0  0  0
   48.5540   35.7130   41.5410 C   0  0  0  0  0  0  0  0  0  0  0  0
   48.1700   33.6730   38.6190 C   0  0  0  0  0  0  0  0  0  0  0  0
   48.6350   34.9620   38.4260 F   0  0  0  0  0  0  0  0  0  0  0  0
   47.9740   33.0540   37.3770 F   0  0  0  0  0  0  0  0  0  0  0  0
   49.0560   32.8720   39.3090 F   0  0  0  0  0  0  0  0  0  0  0  0
   46.6450   32.7273   36.8202 H   0  0  0  0  0  0  0  0  0  0  0  0
   44.8911   32.4143   36.9131 H   0  0  0  0  0  0  0  0  0  0  0  0
   44.4443   37.1413   44.5486 H   0  0  0  0  0  0  0  0  0  0  0  0
   44.7149   36.5427   42.1446 H   0  0  0  0  0  0  0  0  0  0  0  0
   45.8508   31.5082   48.7606 H   0  0  0  0  0  0  0  0  0  0  0  0
   46.9481   30.1327   46.7123 H   0  0  0  0  0  0  0  0  0  0  0  0
   46.6352   31.6638   44.5055 H   0  0  0  0  0  0  0  0  0  0  0  0
   48.1801   32.5706   42.1273 H   0  0  0  0  0  0  0  0  0  0  0  0
   50.3005   33.6880   43.3725 H   0  0  0  0  0  0  0  0  0  0  0  0
   48.3064   36.6870   41.0937 H   0  0  0  0  0  0  0  0  0  0  0  0
  1 11  1  0
  2  1  1  0
  2 20  1  0
  3  2  2  0
  4  6  2  0
  4  3  1  0
  5  4  1  0
  6  7  1  0
  7  8  2  0
  7  1  1  0
  9 14  2  0
 10  9  1  0
 11 10  2  0
 11 12  1  0
 12 13  2  0
 13 14  1  0
 13 15  1  0
 15 16  1  0
 16 17  2  0
 18 17  1  0
 19 15  1  0
 19 18  2  0
 20 24  1  0
 20 21  1  0
 21 22  2  0
 23 22  1  0
 24 23  2  0
 25 28  1  0
 25  3  1  0
 26 25  1  0
 27 25  1  0
  5 29  1  0
  5 30  1  0
  9 31  1  0
 10 32  1  0
 17 33  1  0
 18 34  1  0
 19 35  1  0
 21 36  1  0
 22 37  1  0
 24 38  1  0
M  ISO  8  31  14  32  14  33  14  34  14  35  14  36  14  37  14  38  14
M  END
>  <minimizedAffinity>  (1) 
-6.78698587

>  <minimizedRMSD>  (1) 
0.908041835

$$$$
