
     RDKit          3D

 37 40  0  0  0  0  0  0  0  0999 V2000
   44.8120   33.6920   40.2030 N   0  0  0  0  0  0  0  0  0  0  0  0
   45.7170   34.2790   41.0320 C   0  0  0  0  0  0  0  0  0  0  0  0
   47.0470   34.3510   40.5930 C   0  0  0  0  0  0  0  0  0  0  0  0
   47.3450   33.8290   39.3650 C   0  0  0  0  0  0  0  0  0  0  0  0
   48.6660   33.8510   38.8250 N   0  0  0  0  0  0  0  0  0  0  0  0
   46.4250   33.2490   38.5610 N   0  0  0  0  0  0  0  0  0  0  0  0
   45.1200   33.1750   38.9880 C   0  0  0  0  0  0  0  0  0  0  0  0
   44.2370   32.6380   38.2620 O   0  0  0  0  0  0  0  0  0  0  0  0
   41.1630   34.3390   40.7670 C   0  0  0  0  0  0  0  0  0  0  0  0
   42.4780   34.5340   40.3470 C   0  0  0  0  0  0  0  0  0  0  0  0
   43.4580   33.5910   40.5850 C   0  0  0  0  0  0  0  0  0  0  0  0
   43.0440   32.4770   41.2490 N   0  0  0  0  0  0  0  0  0  0  0  0
   41.7820   32.2830   41.6560 C   0  0  0  0  0  0  0  0  0  0  0  0
   40.8480   33.2030   41.4190 N   0  0  0  0  0  0  0  0  0  0  0  0
   41.3890   31.0880   42.3510 N   0  0  0  0  0  0  0  0  0  0  0  0
   40.2520   30.5180   42.6880 N   0  0  0  0  0  0  0  0  0  0  0  0
   40.4510   29.3880   43.3390 C   0  0  0  0  0  0  0  0  0  0  0  0
   41.8380   29.2170   43.4310 C   0  0  0  0  0  0  0  0  0  0  0  0
   42.3970   30.3180   42.7920 C   0  0  0  0  0  0  0  0  0  0  0  0
   45.3580   34.7560   42.3870 C   0  0  0  0  0  0  0  0  0  0  0  0
   44.8040   35.9540   42.7290 C   0  0  0  0  0  0  0  0  0  0  0  0
   44.5630   35.8130   44.5360 S   0  0  0  0  0  0  0  0  0  0  0  0
   45.2980   34.0590   44.5150 C   0  0  0  0  0  0  0  0  0  0  0  0
   45.5340   33.9230   43.4240 N   0  0  0  0  0  0  0  0  0  0  0  0
   48.1040   34.9740   41.4110 C   0  0  0  0  0  0  0  0  0  0  0  0
   47.5790   35.8710   42.3200 F   0  0  0  0  0  0  0  0  0  0  0  0
   48.9670   35.6580   40.5400 F   0  0  0  0  0  0  0  0  0  0  0  0
   48.8630   33.9790   41.9800 F   0  0  0  0  0  0  0  0  0  0  0  0
   48.8492   33.4469   37.8955 H   0  0  0  0  0  0  0  0  0  0  0  0
   49.4361   34.2710   39.3649 H   0  0  0  0  0  0  0  0  0  0  0  0
   40.3946   35.1009   40.5691 H   0  0  0  0  0  0  0  0  0  0  0  0
   42.7406   35.4598   39.8141 H   0  0  0  0  0  0  0  0  0  0  0  0
   39.6780   28.7117   43.7329 H   0  0  0  0  0  0  0  0  0  0  0  0
   42.3740   28.3842   43.9096 H   0  0  0  0  0  0  0  0  0  0  0  0
   43.4711   30.5216   42.6697 H   0  0  0  0  0  0  0  0  0  0  0  0
   44.5601   36.8032   42.0738 H   0  0  0  0  0  0  0  0  0  0  0  0
   45.4519   33.3607   45.3509 H   0  0  0  0  0  0  0  0  0  0  0  0
  1 11  1  0
  1  2  1  0
  2 20  1  0
  3  2  2  0
  3 25  1  0
  4  3  1  0
  5  4  1  0
  6  7  1  0
  6  4  2  0
  7  1  1  0
  8  7  2  0
  9 14  2  0
 10 11  2  0
 10  9  1  0
 11 12  1  0
 12 13  2  0
 13 15  1  0
 14 13  1  0
 15 16  1  0
 15 19  1  0
 16 17  2  0
 17 18  1  0
 19 18  2  0
 20 21  2  0
 20 24  1  0
 21 22  1  0
 23 22  1  0
 24 23  2  0
 25 28  1  0
 25 26  1  0
 27 25  1  0
  5 29  1  0
  5 30  1  0
  9 31  1  0
 10 32  1  0
 17 33  1  0
 18 34  1  0
 19 35  1  0
 21 36  1  0
 23 37  1  0
M  ISO  7  31  14  32  14  33  14  34  14  35  14  36  14  37  14
M  END
>  <minimizedAffinity>  (1) 
-6.74039745

>  <minimizedRMSD>  (1) 
4.30271578

$$$$
