
     RDKit          3D

 40 42  0  0  0  0  0  0  0  0999 V2000
   45.4310   34.1720   41.6340 N   0  0  0  0  0  0  0  0  0  0  0  0
   46.7200   34.1850   41.1590 C   0  0  0  0  0  0  0  0  0  0  0  0
   46.8730   33.8400   39.8060 C   0  0  0  0  0  0  0  0  0  0  0  0
   45.7490   33.5250   39.0900 C   0  0  0  0  0  0  0  0  0  0  0  0
   45.7910   33.1570   37.7080 N   0  0  0  0  0  0  0  0  0  0  0  0
   44.5050   33.5310   39.6250 N   0  0  0  0  0  0  0  0  0  0  0  0
   44.3350   33.8620   40.9280 C   0  0  0  0  0  0  0  0  0  0  0  0
   43.1960   33.8830   41.4710 O   0  0  0  0  0  0  0  0  0  0  0  0
   44.5710   36.0040   44.8100 C   0  0  0  0  0  0  0  0  0  0  0  0
   44.7350   35.7640   43.4440 C   0  0  0  0  0  0  0  0  0  0  0  0
   45.2230   34.5350   43.0060 C   0  0  0  0  0  0  0  0  0  0  0  0
   45.5150   33.6280   43.9620 N   0  0  0  0  0  0  0  0  0  0  0  0
   45.3610   33.8510   45.2690 C   0  0  0  0  0  0  0  0  0  0  0  0
   44.8870   35.0450   45.6950 N   0  0  0  0  0  0  0  0  0  0  0  0
   45.6780   32.8900   46.2670 N   0  0  0  0  0  0  0  0  0  0  0  0
   45.4750   32.7380   47.5570 N   0  0  0  0  0  0  0  0  0  0  0  0
   46.0420   31.6080   47.9910 C   0  0  0  0  0  0  0  0  0  0  0  0
   46.6520   30.9940   46.8910 C   0  0  0  0  0  0  0  0  0  0  0  0
   46.3980   31.8410   45.8110 C   0  0  0  0  0  0  0  0  0  0  0  0
   48.1870   33.8320   39.1620 C   0  0  0  0  0  0  0  0  0  0  0  0
   48.6390   35.0670   38.8590 F   0  0  0  0  0  0  0  0  0  0  0  0
   48.0630   33.1250   37.9460 F   0  0  0  0  0  0  0  0  0  0  0  0
   49.0370   33.0550   39.8990 F   0  0  0  0  0  0  0  0  0  0  0  0
   47.8750   34.5810   42.0370 C   0  0  0  0  0  0  0  0  0  0  0  0
   48.6280   33.4730   42.6610 C   0  0  0  0  0  0  0  0  0  0  0  0
   48.5890   35.8170   41.6380 C   0  0  0  0  0  0  0  0  0  0  0  0
   46.6926   33.1233   37.2112 H   0  0  0  0  0  0  0  0  0  0  0  0
   44.9196   32.9258   37.2099 H   0  0  0  0  0  0  0  0  0  0  0  0
   44.1851   36.9732   45.1589 H   0  0  0  0  0  0  0  0  0  0  0  0
   44.4787   36.5457   42.7137 H   0  0  0  0  0  0  0  0  0  0  0  0
   46.0312   31.2298   49.0239 H   0  0  0  0  0  0  0  0  0  0  0  0
   47.2116   30.0470   46.8800 H   0  0  0  0  0  0  0  0  0  0  0  0
   46.7257   31.6828   44.7729 H   0  0  0  0  0  0  0  0  0  0  0  0
   47.4002   34.9619   42.9532 H   0  0  0  0  0  0  0  0  0  0  0  0
   48.5687   33.5603   43.7559 H   0  0  0  0  0  0  0  0  0  0  0  0
   48.1951   32.5122   42.3458 H   0  0  0  0  0  0  0  0  0  0  0  0
   49.6807   33.5218   42.3458 H   0  0  0  0  0  0  0  0  0  0  0  0
   48.9053   36.3645   42.5381 H   0  0  0  0  0  0  0  0  0  0  0  0
   49.4735   35.5526   41.0399 H   0  0  0  0  0  0  0  0  0  0  0  0
   47.9181   36.4512   41.0399 H   0  0  0  0  0  0  0  0  0  0  0  0
  1 11  1  0
  2  1  1  0
  2 24  1  0
  3  2  2  0
  4  6  2  0
  4  3  1  0
  5  4  1  0
  6  7  1  0
  7  8  2  0
  7  1  1  0
  9 14  2  0
 10  9  1  0
 11 10  2  0
 11 12  1  0
 12 13  2  0
 13 14  1  0
 13 15  1  0
 15 16  1  0
 16 17  2  0
 18 17  1  0
 19 15  1  0
 19 18  2  0
 20  3  1  0
 20 23  1  0
 21 20  1  0
 22 20  1  0
 24 25  1  0
 26 24  1  0
  5 27  1  0
  5 28  1  0
  9 29  1  0
 10 30  1  0
 17 31  1  0
 18 32  1  0
 19 33  1  0
 24 34  1  0
 25 35  1  0
 25 36  1  0
 25 37  1  0
 26 38  1  0
 26 39  1  0
 26 40  1  0
M  ISO  8  29  14  30  14  31  14  32  14  33  14  34   8  35   8  36   8
M  ISO  4  37   8  38   8  39   8  40   8
M  END
>  <minimizedAffinity>  (1) 
-6.67591381

>  <minimizedRMSD>  (1) 
0.68733865

$$$$
