
     RDKit          3D

 38 40  0  0  0  0  0  0  0  0999 V2000
   45.4210   33.8540   41.1510 N   0  0  0  0  0  0  0  0  0  0  0  0
   46.5970   34.1380   40.5240 C   0  0  0  0  0  0  0  0  0  0  0  0
   46.7290   33.7150   39.2000 C   0  0  0  0  0  0  0  0  0  0  0  0
   45.6550   33.0470   38.6440 C   0  0  0  0  0  0  0  0  0  0  0  0
   45.6580   32.5490   37.2950 N   0  0  0  0  0  0  0  0  0  0  0  0
   44.4920   32.7820   39.3030 N   0  0  0  0  0  0  0  0  0  0  0  0
   44.3830   33.2050   40.5970 C   0  0  0  0  0  0  0  0  0  0  0  0
   43.3210   32.9840   41.2440 O   0  0  0  0  0  0  0  0  0  0  0  0
   44.5160   35.8110   44.2310 C   0  0  0  0  0  0  0  0  0  0  0  0
   44.6390   35.4840   42.8790 C   0  0  0  0  0  0  0  0  0  0  0  0
   45.2310   34.2830   42.4970 C   0  0  0  0  0  0  0  0  0  0  0  0
   45.6590   33.4910   43.4990 N   0  0  0  0  0  0  0  0  0  0  0  0
   45.5450   33.8040   44.7910 C   0  0  0  0  0  0  0  0  0  0  0  0
   44.9750   34.9610   45.1620 N   0  0  0  0  0  0  0  0  0  0  0  0
   46.0240   32.9580   45.8420 N   0  0  0  0  0  0  0  0  0  0  0  0
   45.9030   32.8550   47.1390 N   0  0  0  0  0  0  0  0  0  0  0  0
   46.6090   31.8410   47.6270 C   0  0  0  0  0  0  0  0  0  0  0  0
   47.2430   31.2340   46.5460 C   0  0  0  0  0  0  0  0  0  0  0  0
   46.8520   31.9660   45.4260 C   0  0  0  0  0  0  0  0  0  0  0  0
   47.6810   34.7610   41.1620 N   0  0  0  0  0  0  0  0  0  0  0  0
   48.7100   34.2640   41.9700 C   0  0  0  0  0  0  0  0  0  0  0  0
   49.5290   33.4910   41.4060 N   0  0  0  0  0  0  0  0  0  0  0  0
   49.0020   34.4900   43.3550 N   0  0  0  0  0  0  0  0  0  0  0  0
   49.6640   33.1050   40.4900 H   0  0  0  0  0  0  0  0  0  0  0  0
   47.9240   33.9240   38.3860 C   0  0  0  0  0  0  0  0  0  0  0  0
   48.5880   35.0580   38.7680 F   0  0  0  0  0  0  0  0  0  0  0  0
   47.5530   34.0030   37.0480 F   0  0  0  0  0  0  0  0  0  0  0  0
   48.7350   32.7920   38.4860 F   0  0  0  0  0  0  0  0  0  0  0  0
   44.8319   32.0569   36.9259 H   0  0  0  0  0  0  0  0  0  0  0  0
   46.4862   32.6844   36.6979 H   0  0  0  0  0  0  0  0  0  0  0  0
   44.0459   36.7592   44.5307 H   0  0  0  0  0  0  0  0  0  0  0  0
   44.2663   36.1787   42.1119 H   0  0  0  0  0  0  0  0  0  0  0  0
   46.6793   31.5389   48.6824 H   0  0  0  0  0  0  0  0  0  0  0  0
   47.9115   30.3608   46.5707 H   0  0  0  0  0  0  0  0  0  0  0  0
   47.1602   31.7736   44.3877 H   0  0  0  0  0  0  0  0  0  0  0  0
   47.7281   35.7780   41.0057 H   0  0  0  0  0  0  0  0  0  0  0  0
   49.8154   34.0328   43.7911 H   0  0  0  0  0  0  0  0  0  0  0  0
   48.3984   35.1096   43.9141 H   0  0  0  0  0  0  0  0  0  0  0  0
  1 11  1  0
  2  1  1  0
  2 20  1  0
  3  2  2  0
  4  3  1  0
  4  6  2  0
  5  4  1  0
  6  7  1  0
  7  1  1  0
  7  8  2  0
  9 14  2  0
 10  9  1  0
 11 10  2  0
 11 12  1  0
 12 13  2  0
 13 14  1  0
 13 15  1  0
 15 16  1  0
 16 17  2  0
 18 17  1  0
 19 15  1  0
 19 18  2  0
 20 21  1  0
 21 23  1  0
 22 21  2  0
 24 22  1  0
 25 28  1  0
 25 26  1  0
 25  3  1  0
 27 25  1  0
  5 29  1  0
  5 30  1  0
  9 31  1  0
 10 32  1  0
 17 33  1  0
 18 34  1  0
 19 35  1  0
 20 36  1  0
 23 37  1  0
 23 38  1  0
M  ISO  5  31  14  32  14  33  14  34  14  35  14
M  END
>  <minimizedAffinity>  (1) 
-6.6185298

>  <minimizedRMSD>  (1) 
0.897301853

$$$$
