
     RDKit          3D

 38 41  0  0  0  0  0  0  0  0999 V2000
   45.4250   34.0850   41.1460 N   0  0  0  0  0  0  0  0  0  0  0  0
   46.6870   34.0270   40.6240 C   0  0  0  0  0  0  0  0  0  0  0  0
   46.8130   33.5890   39.2960 C   0  0  0  0  0  0  0  0  0  0  0  0
   45.6600   33.2570   38.6360 C   0  0  0  0  0  0  0  0  0  0  0  0
   45.6480   32.7950   37.2750 N   0  0  0  0  0  0  0  0  0  0  0  0
   44.4230   33.3260   39.1840 N   0  0  0  0  0  0  0  0  0  0  0  0
   44.3110   33.7530   40.4760 C   0  0  0  0  0  0  0  0  0  0  0  0
   43.1780   33.8320   41.0220 O   0  0  0  0  0  0  0  0  0  0  0  0
   44.6990   36.1130   44.2130 C   0  0  0  0  0  0  0  0  0  0  0  0
   44.8280   35.7840   42.8630 C   0  0  0  0  0  0  0  0  0  0  0  0
   45.2460   34.5250   42.4800 C   0  0  0  0  0  0  0  0  0  0  0  0
   45.5160   33.6470   43.4890 N   0  0  0  0  0  0  0  0  0  0  0  0
   45.3920   33.9660   44.7820 C   0  0  0  0  0  0  0  0  0  0  0  0
   44.9860   35.1910   45.1480 N   0  0  0  0  0  0  0  0  0  0  0  0
   45.7080   33.0550   45.8360 N   0  0  0  0  0  0  0  0  0  0  0  0
   45.5220   32.9580   47.1290 N   0  0  0  0  0  0  0  0  0  0  0  0
   46.0630   31.8630   47.6320 C   0  0  0  0  0  0  0  0  0  0  0  0
   46.6600   31.1830   46.5700 C   0  0  0  0  0  0  0  0  0  0  0  0
   46.4170   31.9650   45.4380 C   0  0  0  0  0  0  0  0  0  0  0  0
   48.0950   33.4720   38.6010 C   0  0  0  0  0  0  0  0  0  0  0  0
   49.0630   32.9590   39.4140 F   0  0  0  0  0  0  0  0  0  0  0  0
   48.4770   34.7330   38.1560 F   0  0  0  0  0  0  0  0  0  0  0  0
   47.9100   32.7120   37.4480 F   0  0  0  0  0  0  0  0  0  0  0  0
   47.9300   34.4270   41.3240 C   0  0  0  0  0  0  0  0  0  0  0  0
   47.9500   35.5690   42.2940 C   0  0  0  0  0  0  0  0  0  0  0  0
   48.7790   35.5610   41.0260 C   0  0  0  0  0  0  0  0  0  0  0  0
   46.5321   32.7022   36.7548 H   0  0  0  0  0  0  0  0  0  0  0  0
   44.7553   32.5568   36.8199 H   0  0  0  0  0  0  0  0  0  0  0  0
   44.3653   37.1184   44.5095 H   0  0  0  0  0  0  0  0  0  0  0  0
   44.5940   36.5362   42.0953 H   0  0  0  0  0  0  0  0  0  0  0  0
   46.0461   31.5478   48.6857 H   0  0  0  0  0  0  0  0  0  0  0  0
   47.2077   30.2301   46.6146 H   0  0  0  0  0  0  0  0  0  0  0  0
   46.7405   31.7398   44.4111 H   0  0  0  0  0  0  0  0  0  0  0  0
   48.1327   33.3461   41.3503 H   0  0  0  0  0  0  0  0  0  0  0  0
   47.0805   36.2363   42.3868 H   0  0  0  0  0  0  0  0  0  0  0  0
   48.1471   35.6925   43.3691 H   0  0  0  0  0  0  0  0  0  0  0  0
   49.8725   35.4579   41.0868 H   0  0  0  0  0  0  0  0  0  0  0  0
   48.8880   36.2416   40.1687 H   0  0  0  0  0  0  0  0  0  0  0  0
  1 11  1  0
  2  1  1  0
  2 24  1  0
  3  2  2  0
  4  6  2  0
  4  3  1  0
  5  4  1  0
  6  7  1  0
  7  8  2  0
  7  1  1  0
  9 14  2  0
 10  9  1  0
 11 10  2  0
 11 12  1  0
 12 13  2  0
 13 14  1  0
 13 15  1  0
 15 16  1  0
 16 17  2  0
 18 17  1  0
 19 15  1  0
 19 18  2  0
 20  3  1  0
 20 21  1  0
 22 20  1  0
 23 20  1  0
 24 25  1  0
 26 24  1  0
 26 25  1  0
  5 27  1  0
  5 28  1  0
  9 29  1  0
 10 30  1  0
 17 31  1  0
 18 32  1  0
 19 33  1  0
 24 34  1  0
 25 35  1  0
 25 36  1  0
 26 37  1  0
 26 38  1  0
M  ISO  8  29  14  30  14  31  14  32  14  33  14  34  13  35  13  36  13
M  ISO  2  37  13  38  13
M  END
>  <minimizedAffinity>  (1) 
-6.49419785

>  <minimizedRMSD>  (1) 
1.1081382

$$$$
