
     RDKit          3D

 42 45  0  0  0  0  0  0  0  0999 V2000
   45.0240   33.9610   41.4190 N   0  0  0  0  0  0  0  0  0  0  0  0
   46.2020   33.9400   40.7270 C   0  0  0  0  0  0  0  0  0  0  0  0
   46.1870   33.5450   39.3920 C   0  0  0  0  0  0  0  0  0  0  0  0
   44.9610   33.1970   38.8610 C   0  0  0  0  0  0  0  0  0  0  0  0
   44.8120   32.7710   37.5100 N   0  0  0  0  0  0  0  0  0  0  0  0
   43.8120   33.2260   39.5620 N   0  0  0  0  0  0  0  0  0  0  0  0
   43.8360   33.6170   40.8790 C   0  0  0  0  0  0  0  0  0  0  0  0
   42.7770   33.6510   41.5540 O   0  0  0  0  0  0  0  0  0  0  0  0
   44.6110   35.9100   44.5850 C   0  0  0  0  0  0  0  0  0  0  0  0
   44.6050   35.6080   43.2270 C   0  0  0  0  0  0  0  0  0  0  0  0
   44.9950   34.3580   42.7800 C   0  0  0  0  0  0  0  0  0  0  0  0
   45.3730   33.4680   43.7250 N   0  0  0  0  0  0  0  0  0  0  0  0
   45.3780   33.7630   45.0350 C   0  0  0  0  0  0  0  0  0  0  0  0
   45.0010   34.9710   45.4670 N   0  0  0  0  0  0  0  0  0  0  0  0
   45.7830   32.7970   46.0170 N   0  0  0  0  0  0  0  0  0  0  0  0
   45.7150   32.6940   47.3270 N   0  0  0  0  0  0  0  0  0  0  0  0
   46.2600   31.5530   47.7440 C   0  0  0  0  0  0  0  0  0  0  0  0
   46.7070   30.8780   46.6080 C   0  0  0  0  0  0  0  0  0  0  0  0
   46.3910   31.6920   45.5250 C   0  0  0  0  0  0  0  0  0  0  0  0
   47.4350   34.2990   41.3630 N   0  0  0  0  0  0  0  0  0  0  0  0
   48.2240   33.1560   41.7580 C   0  0  0  0  0  0  0  0  0  0  0  0
   49.2850   33.3950   42.7590 C   0  0  0  0  0  0  0  0  0  0  0  0
   49.5990   34.7010   43.0110 O   0  0  0  0  0  0  0  0  0  0  0  0
   49.4580   35.5060   41.8810 C   0  0  0  0  0  0  0  0  0  0  0  0
   47.9630   35.6120   41.6470 C   0  0  0  0  0  0  0  0  0  0  0  0
   47.3930   33.4880   38.5640 C   0  0  0  0  0  0  0  0  0  0  0  0
   48.2060   34.5640   38.7720 F   0  0  0  0  0  0  0  0  0  0  0  0
   46.9870   33.4510   37.2220 F   0  0  0  0  0  0  0  0  0  0  0  0
   48.0180   32.2670   38.7880 F   0  0  0  0  0  0  0  0  0  0  0  0
   43.8807   32.5193   37.1491 H   0  0  0  0  0  0  0  0  0  0  0  0
   45.6355   32.7146   36.8940 H   0  0  0  0  0  0  0  0  0  0  0  0
   44.3003   36.9057   44.9343 H   0  0  0  0  0  0  0  0  0  0  0  0
   44.2869   36.3708   42.5011 H   0  0  0  0  0  0  0  0  0  0  0  0
   46.3421   31.2084   48.7854 H   0  0  0  0  0  0  0  0  0  0  0  0
   47.2083   29.8994   46.5752 H   0  0  0  0  0  0  0  0  0  0  0  0
   46.5969   31.4777   44.4659 H   0  0  0  0  0  0  0  0  0  0  0  0
   48.0443   32.1567   41.3348 H   0  0  0  0  0  0  0  0  0  0  0  0
   49.7942   32.5666   43.2732 H   0  0  0  0  0  0  0  0  0  0  0  0
   49.8911   36.5011   42.0607 H   0  0  0  0  0  0  0  0  0  0  0  0
   49.9799   35.0836   41.0097 H   0  0  0  0  0  0  0  0  0  0  0  0
   47.7701   36.2790   40.7938 H   0  0  0  0  0  0  0  0  0  0  0  0
   47.4756   36.0212   42.5442 H   0  0  0  0  0  0  0  0  0  0  0  0
  1 11  1  0
  2 20  1  0
  2  1  1  0
  3  2  2  0
  4  3  1  0
  4  6  2  0
  5  4  1  0
  6  7  1  0
  7  1  1  0
  7  8  2  0
  9 14  2  0
 10  9  1  0
 11 10  2  0
 11 12  1  0
 12 13  2  0
 13 14  1  0
 13 15  1  0
 15 16  1  0
 16 17  2  0
 18 17  1  0
 19 15  1  0
 19 18  2  0
 20 25  1  0
 20 21  1  0
 21 22  2  0
 22 23  1  0
 24 23  1  0
 25 24  1  0
 26 27  1  0
 26 29  1  0
 26  3  1  0
 28 26  1  0
  5 30  1  0
  5 31  1  0
  9 32  1  0
 10 33  1  0
 17 34  1  0
 18 35  1  0
 19 36  1  0
 21 37  1  0
 22 38  1  0
 24 39  1  0
 24 40  1  0
 25 41  1  0
 25 42  1  0
M  ISO  8  32  14  33  14  34  14  35  14  36  14  37  13  38  13  39  13
M  ISO  3  40  13  41  13  42  13
M  END
>  <minimizedAffinity>  (1) 
-6.49160242

>  <minimizedRMSD>  (1) 
1.14878297

$$$$
