
     RDKit          3D

 24 26  0  0  1  0  0  0  0  0999 V2000
   47.0110   34.9840   41.6700 C   0  0  1  0  0  0  0  0  0  0  0  0
   48.4450   35.5090   41.7890 C   0  0  0  0  0  0  0  0  0  0  0  0
   48.1470   34.0810   41.4440 C   0  0  2  0  0  0  0  0  0  0  0  0
   44.6010   35.8590   44.4070 C   0  0  0  0  0  0  0  0  0  0  0  0
   45.3160   35.9280   43.1750 C   0  0  0  0  0  0  0  0  0  0  0  0
   46.2690   34.9510   42.9630 C   0  0  0  0  0  0  0  0  0  0  0  0
   46.4850   33.9870   43.9140 N   0  0  0  0  0  0  0  0  0  0  0  0
   45.7780   33.9620   45.0720 C   0  0  0  0  0  0  0  0  0  0  0  0
   44.8470   34.8950   45.3070 N   0  0  0  0  0  0  0  0  0  0  0  0
   48.4370   33.5190   40.1180 C   0  0  0  0  0  0  0  0  0  0  0  0
   48.0460   34.1450   38.9440 C   0  0  0  0  0  0  0  0  0  0  0  0
   48.4560   33.3880   37.8670 C   0  0  0  0  0  0  0  0  0  0  0  0
   49.0990   32.3020   38.4700 C   0  0  0  0  0  0  0  0  0  0  0  0
   49.0530   32.4400   39.7720 O   0  0  0  0  0  0  0  0  0  0  0  0
   46.1082   35.2031   41.0809 H   0  0  0  0  0  0  0  0  0  0  0  0
   48.8518   36.1912   41.0280 H   0  0  0  0  0  0  0  0  0  0  0  0
   49.0342   36.0289   42.5588 H   0  0  0  0  0  0  0  0  0  0  0  0
   48.4550   33.1136   41.8674 H   0  0  0  0  0  0  0  0  0  0  0  0
   43.8304   36.6133   44.6242 H   0  0  0  0  0  0  0  0  0  0  0  0
   45.1192   36.7166   42.4338 H   0  0  0  0  0  0  0  0  0  0  0  0
   45.9697   33.1758   45.8170 H   0  0  0  0  0  0  0  0  0  0  0  0
   47.4957   35.0954   38.8818 H   0  0  0  0  0  0  0  0  0  0  0  0
   48.3125   33.5891   36.7951 H   0  0  0  0  0  0  0  0  0  0  0  0
   49.5694   31.4638   37.9351 H   0  0  0  0  0  0  0  0  0  0  0  0
  1  2  1  0
  1  6  1  0
  3  1  1  0
  3  2  1  0
  4  9  2  0
  5  4  1  0
  6  5  2  0
  6  7  1  0
  7  8  2  0
  8  9  1  0
 10  3  1  0
 11 10  2  0
 12 13  2  0
 12 11  1  0
 13 14  1  0
 14 10  1  0
  1 15  1  6
  2 16  1  0
  2 17  1  0
  3 18  1  1
  4 19  1  0
  5 20  1  0
  8 21  1  0
 11 22  1  0
 12 23  1  0
 13 24  1  0
M  ISO  8  15  13  16  13  17  13  18  13  19  14  20  14  21  14  22  14
M  ISO  2  23  14  24  14
M  END
>  <minimizedAffinity>  (1) 
-4.60658789

>  <minimizedRMSD>  (1) 
0.423876077

$$$$
