
     RDKit          3D

 34 36  0  0  1  0  0  0  0  0999 V2000
   45.8830   34.3360   41.1070 N   0  0  0  0  0  0  0  0  0  0  0  0
   46.7340   33.5970   40.1880 C   0  0  0  0  0  0  0  0  0  0  0  0
   47.9540   34.3290   39.7470 C   0  0  0  0  0  0  0  0  0  0  0  0
   48.4960   35.3110   40.7400 C   0  0  0  0  0  0  0  0  0  0  0  0
   47.9380   35.1450   42.1040 C   0  0  0  0  0  0  0  0  0  0  0  0
   46.4340   35.0960   42.1620 C   0  0  2  0  0  0  0  0  0  0  0  0
   42.2830   35.3000   40.8180 C   0  0  0  0  0  0  0  0  0  0  0  0
   43.6710   35.4800   40.9540 C   0  0  0  0  0  0  0  0  0  0  0  0
   44.4670   34.3190   40.9670 C   0  0  0  0  0  0  0  0  0  0  0  0
   43.8670   33.0790   40.8480 N   0  0  0  0  0  0  0  0  0  0  0  0
   42.5100   32.9980   40.7200 C   0  0  0  0  0  0  0  0  0  0  0  0
   41.7330   34.0980   40.7060 N   0  0  0  0  0  0  0  0  0  0  0  0
   46.0520   34.7250   43.5420 C   0  0  0  0  0  0  0  0  0  0  0  0
   45.1030   35.3060   44.3500 C   0  0  0  0  0  0  0  0  0  0  0  0
   44.7650   34.9250   45.6260 C   0  0  0  0  0  0  0  0  0  0  0  0
   45.4270   33.8540   46.1850 C   0  0  0  0  0  0  0  0  0  0  0  0
   46.3740   33.2610   45.4020 C   0  0  0  0  0  0  0  0  0  0  0  0
   46.6660   33.6720   44.1600 N   0  0  0  0  0  0  0  0  0  0  0  0
   47.0520   32.6691   40.6858 H   0  0  0  0  0  0  0  0  0  0  0  0
   46.1341   33.4180   39.2835 H   0  0  0  0  0  0  0  0  0  0  0  0
   48.7392   33.5880   39.5363 H   0  0  0  0  0  0  0  0  0  0  0  0
   47.6589   34.9152   38.8642 H   0  0  0  0  0  0  0  0  0  0  0  0
   49.5875   35.1854   40.7931 H   0  0  0  0  0  0  0  0  0  0  0  0
   48.2068   36.3139   40.3929 H   0  0  0  0  0  0  0  0  0  0  0  0
   48.3287   34.2060   42.5231 H   0  0  0  0  0  0  0  0  0  0  0  0
   48.2443   36.0324   42.6773 H   0  0  0  0  0  0  0  0  0  0  0  0
   45.9788   36.0789   41.9705 H   0  0  0  0  0  0  0  0  0  0  0  0
   41.6312   36.1860   40.8040 H   0  0  0  0  0  0  0  0  0  0  0  0
   44.1146   36.4824   41.0460 H   0  0  0  0  0  0  0  0  0  0  0  0
   42.0390   32.0084   40.6258 H   0  0  0  0  0  0  0  0  0  0  0  0
   44.5580   36.1649   43.9313 H   0  0  0  0  0  0  0  0  0  0  0  0
   43.9856   35.4615   46.1870 H   0  0  0  0  0  0  0  0  0  0  0  0
   45.2053   33.4981   47.2020 H   0  0  0  0  0  0  0  0  0  0  0  0
   46.9260   32.4018   45.8108 H   0  0  0  0  0  0  0  0  0  0  0  0
  1  6  1  0
  2  1  1  0
  3  2  1  0
  3  4  1  0
  4  5  1  0
  5  6  1  0
  6 13  1  0
  7  8  2  0
  8  9  1  0
  9  1  1  0
 10  9  2  0
 11 10  1  0
 12 11  2  0
 12  7  1  0
 13 18  1  0
 13 14  2  0
 14 15  1  0
 15 16  2  0
 17 16  1  0
 18 17  2  0
  2 19  1  0
  2 20  1  0
  3 21  1  0
  3 22  1  0
  4 23  1  0
  4 24  1  0
  5 25  1  0
  5 26  1  0
  6 27  1  6
  7 28  1  0
  8 29  1  0
 11 30  1  0
 14 31  1  0
 15 32  1  0
 16 33  1  0
 17 34  1  0
M  ISO  8  19  13  20  13  21  13  22  13  23  13  24  13  25  13  26  13
M  ISO  8  27  13  28  14  29  14  30  14  31  14  32  14  33  14  34  14
M  END
>  <minimizedAffinity>  (1) 
-5.62451315

>  <minimizedRMSD>  (1) 
3.91817045

$$$$
