
     RDKit          3D

 32 34  0  0  1  0  0  0  0  0999 V2000
   45.6730   34.3030   41.3000 N   0  0  0  0  0  0  0  0  0  0  0  0
   46.5320   33.5060   40.4490 C   0  0  0  0  0  0  0  0  0  0  0  0
   47.7640   34.2260   39.9940 C   0  0  0  0  0  0  0  0  0  0  0  0
   48.3170   35.2310   40.9660 C   0  0  0  0  0  0  0  0  0  0  0  0
   47.7230   35.1170   42.3200 C   0  0  0  0  0  0  0  0  0  0  0  0
   46.2150   35.1240   42.3180 C   0  0  2  0  0  0  0  0  0  0  0  0
   42.1130   35.3180   40.7600 C   0  0  0  0  0  0  0  0  0  0  0  0
   43.4980   35.4230   40.8630 C   0  0  0  0  0  0  0  0  0  0  0  0
   44.2680   34.3110   41.1710 C   0  0  0  0  0  0  0  0  0  0  0  0
   43.5940   33.1430   41.3590 N   0  0  0  0  0  0  0  0  0  0  0  0
   42.2470   33.0590   41.2540 C   0  0  0  0  0  0  0  0  0  0  0  0
   41.5200   34.1470   40.9550 N   0  0  0  0  0  0  0  0  0  0  0  0
   45.7530   34.8910   43.6500 N   0  0  0  0  0  0  0  0  0  0  0  0
   44.8830   35.7040   44.3190 C   0  0  0  0  0  0  0  0  0  0  0  0
   44.6760   35.1550   45.5670 C   0  0  0  0  0  0  0  0  0  0  0  0
   45.4230   34.0140   45.6430 N   0  0  0  0  0  0  0  0  0  0  0  0
   46.0750   33.8750   44.4540 C   0  0  0  0  0  0  0  0  0  0  0  0
   46.8398   32.6100   41.0079 H   0  0  0  0  0  0  0  0  0  0  0  0
   45.9521   33.2595   39.5473 H   0  0  0  0  0  0  0  0  0  0  0  0
   48.5444   33.4753   39.8006 H   0  0  0  0  0  0  0  0  0  0  0  0
   47.4702   34.7967   39.1007 H   0  0  0  0  0  0  0  0  0  0  0  0
   49.4036   35.0795   41.0463 H   0  0  0  0  0  0  0  0  0  0  0  0
   48.0685   36.2312   40.5814 H   0  0  0  0  0  0  0  0  0  0  0  0
   48.0662   34.1750   42.7725 H   0  0  0  0  0  0  0  0  0  0  0  0
   48.0498   35.9980   42.8919 H   0  0  0  0  0  0  0  0  0  0  0  0
   45.8263   36.1132   42.0344 H   0  0  0  0  0  0  0  0  0  0  0  0
   41.5107   36.2058   40.5170 H   0  0  0  0  0  0  0  0  0  0  0  0
   43.9852   36.3955   40.6988 H   0  0  0  0  0  0  0  0  0  0  0  0
   41.7452   32.0934   41.4147 H   0  0  0  0  0  0  0  0  0  0  0  0
   44.4297   36.6288   43.9325 H   0  0  0  0  0  0  0  0  0  0  0  0
   44.0276   35.5617   46.3571 H   0  0  0  0  0  0  0  0  0  0  0  0
   46.7599   33.0535   44.1970 H   0  0  0  0  0  0  0  0  0  0  0  0
  1  6  1  0
  2  1  1  0
  3  2  1  0
  3  4  1  0
  4  5  1  0
  6  5  1  0
  6 13  1  0
  7  8  2  0
  7 12  1  0
  8  9  1  0
  9  1  1  0
  9 10  2  0
 11 10  1  0
 12 11  2  0
 13 14  1  0
 13 17  1  0
 14 15  2  0
 15 16  1  0
 17 16  2  0
  2 18  1  0
  2 19  1  0
  3 20  1  0
  3 21  1  0
  4 22  1  0
  4 23  1  0
  5 24  1  0
  5 25  1  0
  6 26  1  6
  7 27  1  0
  8 28  1  0
 11 29  1  0
 14 30  1  0
 15 31  1  0
 17 32  1  0
M  ISO  8  18  13  19  13  20  13  21  13  22  13  23  13  24  13  25  13
M  ISO  7  26  13  27  14  28  14  29  14  30  14  31  14  32  14
M  END
>  <minimizedAffinity>  (1) 
-5.32931805

>  <minimizedRMSD>  (1) 
3.78445363

$$$$
