
     RDKit          3D

 31 33  0  0  1  0  0  0  0  0999 V2000
   46.5100   34.5700   42.3730 N   0  0  0  0  0  0  0  0  0  0  0  0
   47.6050   35.4280   42.0050 C   0  0  0  0  0  0  0  0  0  0  0  0
   48.5760   34.8000   41.0740 C   0  0  0  0  0  0  0  0  0  0  0  0
   48.0020   33.8020   40.1150 C   0  0  0  0  0  0  0  0  0  0  0  0
   46.5080   33.8420   40.0440 C   0  0  0  0  0  0  0  0  0  0  0  0
   45.8550   33.7410   41.3950 C   0  0  2  0  0  0  0  0  0  0  0  0
   45.7380   33.5450   45.8820 C   0  0  0  0  0  0  0  0  0  0  0  0
   46.3240   33.4940   44.6130 C   0  0  0  0  0  0  0  0  0  0  0  0
   46.0030   34.4800   43.6940 C   0  0  0  0  0  0  0  0  0  0  0  0
   45.1260   35.4420   44.1010 N   0  0  0  0  0  0  0  0  0  0  0  0
   44.5700   35.4780   45.3240 C   0  0  0  0  0  0  0  0  0  0  0  0
   44.8800   34.5290   46.2070 N   0  0  0  0  0  0  0  0  0  0  0  0
   44.4410   34.0260   41.2520 N   0  0  0  0  0  0  0  0  0  0  0  0
   43.3880   33.2150   41.5020 C   0  0  0  0  0  0  0  0  0  0  0  0
   42.2220   33.8500   41.2450 N   0  0  0  0  0  0  0  0  0  0  0  0
   42.5670   35.0740   40.8300 C   0  0  0  0  0  0  0  0  0  0  0  0
   43.9040   35.1780   40.8350 N   0  0  0  0  0  0  0  0  0  0  0  0
   47.1935   36.3264   41.5218 H   0  0  0  0  0  0  0  0  0  0  0  0
   48.1538   35.6591   42.9299 H   0  0  0  0  0  0  0  0  0  0  0  0
   49.0479   35.6012   40.4863 H   0  0  0  0  0  0  0  0  0  0  0  0
   49.2793   34.2387   41.7068 H   0  0  0  0  0  0  0  0  0  0  0  0
   48.4050   34.0090   39.1126 H   0  0  0  0  0  0  0  0  0  0  0  0
   48.2847   32.8023   40.4766 H   0  0  0  0  0  0  0  0  0  0  0  0
   46.2041   34.7906   39.5773 H   0  0  0  0  0  0  0  0  0  0  0  0
   46.1822   32.9726   39.4540 H   0  0  0  0  0  0  0  0  0  0  0  0
   45.9603   32.7169   41.7825 H   0  0  0  0  0  0  0  0  0  0  0  0
   45.9819   32.7704   46.6240 H   0  0  0  0  0  0  0  0  0  0  0  0
   47.0250   32.6881   44.3501 H   0  0  0  0  0  0  0  0  0  0  0  0
   43.8677   36.2808   45.5929 H   0  0  0  0  0  0  0  0  0  0  0  0
   43.4689   32.1798   41.8650 H   0  0  0  0  0  0  0  0  0  0  0  0
   41.8663   35.8680   40.5323 H   0  0  0  0  0  0  0  0  0  0  0  0
  1  9  1  0
  2  1  1  0
  3  2  1  0
  4  3  1  0
  5  4  1  0
  5  6  1  0
  6  1  1  0
  7 12  2  0
  8  7  1  0
  9 10  1  0
  9  8  2  0
 10 11  2  0
 11 12  1  0
 13  6  1  0
 13 14  1  0
 15 14  2  0
 16 17  2  0
 16 15  1  0
 17 13  1  0
  2 18  1  0
  2 19  1  0
  3 20  1  0
  3 21  1  0
  4 22  1  0
  4 23  1  0
  5 24  1  0
  5 25  1  0
  6 26  1  1
  7 27  1  0
  8 28  1  0
 11 29  1  0
 14 30  1  0
 16 31  1  0
M  ISO  8  18  13  19  13  20  13  21  13  22  13  23  13  24  13  25  13
M  ISO  6  26  13  27  14  28  14  29  14  30  14  31  14
M  END
>  <minimizedAffinity>  (1) 
-4.90846395

>  <minimizedRMSD>  (1) 
4.35684919

$$$$
