
     RDKit          3D

 34 35  0  0  1  0  0  0  0  0999 V2000
   46.4670   33.8440   42.0240 N   0  0  0  0  0  0  0  0  0  0  0  0
   46.1730   32.5320   41.5130 C   0  0  0  0  0  0  0  0  0  0  0  0
   46.0120   32.5010   40.0240 C   0  0  0  0  0  0  0  0  0  0  0  0
   46.8970   33.4520   39.2700 C   0  0  0  0  0  0  0  0  0  0  0  0
   47.9290   34.1450   40.0970 C   0  0  0  0  0  0  0  0  0  0  0  0
   47.4000   34.7210   41.3760 C   0  0  2  0  0  0  0  0  0  0  0  0
   44.5620   35.9520   44.4740 C   0  0  0  0  0  0  0  0  0  0  0  0
   45.1210   35.5410   43.2660 C   0  0  0  0  0  0  0  0  0  0  0  0
   45.8560   34.3540   43.1990 C   0  0  0  0  0  0  0  0  0  0  0  0
   45.9880   33.6440   44.3580 N   0  0  0  0  0  0  0  0  0  0  0  0
   45.4310   34.0690   45.5180 C   0  0  0  0  0  0  0  0  0  0  0  0
   44.7260   35.2160   45.5660 N   0  0  0  0  0  0  0  0  0  0  0  0
   48.5590   35.1370   42.2580 C   0  0  0  0  0  0  0  0  0  0  0  0
   49.3280   36.2750   41.6020 C   0  0  0  0  0  0  0  0  0  0  0  0
   49.5190   33.9850   42.4920 C   0  0  0  0  0  0  0  0  0  0  0  0
   46.9959   31.8565   41.7898 H   0  0  0  0  0  0  0  0  0  0  0  0
   45.2147   32.2174   41.9520 H   0  0  0  0  0  0  0  0  0  0  0  0
   46.2342   31.4808   39.6779 H   0  0  0  0  0  0  0  0  0  0  0  0
   44.9780   32.8158   39.8199 H   0  0  0  0  0  0  0  0  0  0  0  0
   47.4153   32.8845   38.4830 H   0  0  0  0  0  0  0  0  0  0  0  0
   46.2374   34.2403   38.8782 H   0  0  0  0  0  0  0  0  0  0  0  0
   48.7180   33.4196   40.3447 H   0  0  0  0  0  0  0  0  0  0  0  0
   48.3021   34.9891   39.4984 H   0  0  0  0  0  0  0  0  0  0  0  0
   46.8138   35.6238   41.1496 H   0  0  0  0  0  0  0  0  0  0  0  0
   43.9845   36.8869   44.5227 H   0  0  0  0  0  0  0  0  0  0  0  0
   44.9835   36.1525   42.3620 H   0  0  0  0  0  0  0  0  0  0  0  0
   45.5561   33.4698   46.4320 H   0  0  0  0  0  0  0  0  0  0  0  0
   48.1404   35.4583   43.2232 H   0  0  0  0  0  0  0  0  0  0  0  0
   49.7635   36.9195   42.3798 H   0  0  0  0  0  0  0  0  0  0  0  0
   50.1323   35.8611   40.9761 H   0  0  0  0  0  0  0  0  0  0  0  0
   48.6440   36.8668   40.9761 H   0  0  0  0  0  0  0  0  0  0  0  0
   49.6486   33.8295   43.5732 H   0  0  0  0  0  0  0  0  0  0  0  0
   49.1121   33.0703   42.0362 H   0  0  0  0  0  0  0  0  0  0  0  0
   50.4921   34.2202   42.0362 H   0  0  0  0  0  0  0  0  0  0  0  0
  1  9  1  0
  2  1  1  0
  3  2  1  0
  4  3  1  0
  4  5  1  0
  5  6  1  0
  6  1  1  0
  6 13  1  0
  7 12  2  0
  8  7  1  0
  9  8  2  0
  9 10  1  0
 10 11  2  0
 11 12  1  0
 13 15  1  0
 14 13  1  0
  2 16  1  0
  2 17  1  0
  3 18  1  0
  3 19  1  0
  4 20  1  0
  4 21  1  0
  5 22  1  0
  5 23  1  0
  6 24  1  6
  7 25  1  0
  8 26  1  0
 11 27  1  0
 13 28  1  0
 14 29  1  0
 14 30  1  0
 14 31  1  0
 15 32  1  0
 15 33  1  0
 15 34  1  0
M  ISO  8  16  13  17  13  18  13  19  13  20  13  21  13  22  13  23  13
M  ISO  8  24  13  25  14  26  14  27  14  28   8  29   8  30   8  31   8
M  ISO  3  32   8  33   8  34   8
M  END
>  <minimizedAffinity>  (1) 
-4.90424919

>  <minimizedRMSD>  (1) 
0.976240337

$$$$
