
     RDKit          3D

 28 29  0  0  1  0  0  0  0  0999 V2000
   46.7260   34.1390   41.7700 N   0  0  0  0  0  0  0  0  0  0  0  0
   46.1990   33.1280   40.9130 C   0  0  0  0  0  0  0  0  0  0  0  0
   46.4090   33.3910   39.4580 C   0  0  0  0  0  0  0  0  0  0  0  0
   47.6790   34.1090   39.1180 C   0  0  0  0  0  0  0  0  0  0  0  0
   48.6330   34.2410   40.2500 C   0  0  0  0  0  0  0  0  0  0  0  0
   48.0110   34.7200   41.5310 C   0  0  2  0  0  0  0  0  0  0  0  0
   44.7740   36.2580   44.1770 C   0  0  0  0  0  0  0  0  0  0  0  0
   45.4230   35.8900   43.0010 C   0  0  0  0  0  0  0  0  0  0  0  0
   46.0310   34.6400   42.9080 C   0  0  0  0  0  0  0  0  0  0  0  0
   45.9500   33.8340   44.0040 N   0  0  0  0  0  0  0  0  0  0  0  0
   45.3120   34.2180   45.1310 C   0  0  0  0  0  0  0  0  0  0  0  0
   44.7310   35.4230   45.2110 N   0  0  0  0  0  0  0  0  0  0  0  0
   48.9600   34.4370   42.6340 C   0  0  0  0  0  0  0  0  0  0  0  0
   49.0220   33.2700   43.0930 O   0  0  0  0  0  0  0  0  0  0  0  0
   49.8150   35.3540   43.2300 O   0  0  0  0  0  0  0  0  0  0  0  0
   46.6848   32.1738   41.1651 H   0  0  0  0  0  0  0  0  0  0  0  0
   45.1116   33.1080   41.0778 H   0  0  0  0  0  0  0  0  0  0  0  0
   46.4139   32.4237   38.9343 H   0  0  0  0  0  0  0  0  0  0  0  0
   45.5893   34.0547   39.1456 H   0  0  0  0  0  0  0  0  0  0  0  0
   48.1798   33.5572   38.3089 H   0  0  0  0  0  0  0  0  0  0  0  0
   47.3933   35.1309   38.8281 H   0  0  0  0  0  0  0  0  0  0  0  0
   49.0866   33.2561   40.4347 H   0  0  0  0  0  0  0  0  0  0  0  0
   49.3694   35.0025   39.9537 H   0  0  0  0  0  0  0  0  0  0  0  0
   47.8269   35.8023   41.4618 H   0  0  0  0  0  0  0  0  0  0  0  0
   44.2942   37.2451   44.2509 H   0  0  0  0  0  0  0  0  0  0  0  0
   45.4554   36.5841   42.1483 H   0  0  0  0  0  0  0  0  0  0  0  0
   45.2689   33.5346   45.9919 H   0  0  0  0  0  0  0  0  0  0  0  0
   50.4147   35.0673   43.9636 H   0  0  0  0  0  0  0  0  0  0  0  0
  1  9  1  0
  2  1  1  0
  3  2  1  0
  4  3  1  0
  4  5  1  0
  5  6  1  0
  6  1  1  0
  6 13  1  0
  7 12  2  0
  8  7  1  0
  9  8  2  0
  9 10  1  0
 10 11  2  0
 11 12  1  0
 13 14  2  0
 13 15  1  0
  2 16  1  0
  2 17  1  0
  3 18  1  0
  3 19  1  0
  4 20  1  0
  4 21  1  0
  5 22  1  0
  5 23  1  0
  6 24  1  6
  7 25  1  0
  8 26  1  0
 11 27  1  0
 15 28  1  0
M  ISO  8  16  13  17  13  18  13  19  13  20  13  21  13  22  13  23  13
M  ISO  5  24  13  25  14  26  14  27  14  28   3
M  END
>  <minimizedAffinity>  (1) 
-4.81960392

>  <minimizedRMSD>  (1) 
0.844605923

$$$$
