
     RDKit          3D

 27 28  0  0  1  0  0  0  0  0999 V2000
   46.6700   34.1020   41.9990 N   0  0  0  0  0  0  0  0  0  0  0  0
   46.2800   32.9220   41.2830 C   0  0  0  0  0  0  0  0  0  0  0  0
   46.3150   33.0730   39.8060 C   0  0  0  0  0  0  0  0  0  0  0  0
   47.3950   33.9630   39.2810 C   0  0  0  0  0  0  0  0  0  0  0  0
   48.3890   34.4120   40.2980 C   0  0  0  0  0  0  0  0  0  0  0  0
   47.7950   34.8770   41.5980 C   0  0  2  0  0  0  0  0  0  0  0  0
   44.6380   36.1270   44.4190 C   0  0  0  0  0  0  0  0  0  0  0  0
   45.2760   35.7930   43.2260 C   0  0  0  0  0  0  0  0  0  0  0  0
   45.9730   34.5770   43.1420 C   0  0  0  0  0  0  0  0  0  0  0  0
   45.9780   33.7870   44.2590 N   0  0  0  0  0  0  0  0  0  0  0  0
   45.3450   34.1440   45.4030 C   0  0  0  0  0  0  0  0  0  0  0  0
   44.6820   35.3070   45.4750 N   0  0  0  0  0  0  0  0  0  0  0  0
   48.8610   34.8100   42.6640 C   0  0  0  0  0  0  0  0  0  0  0  0
   50.0340   35.1430   42.4540 O   0  0  0  0  0  0  0  0  0  0  0  0
   46.9620   32.1058   41.5636 H   0  0  0  0  0  0  0  0  0  0  0  0
   45.2352   32.7139   41.5572 H   0  0  0  0  0  0  0  0  0  0  0  0
   46.4530   32.0746   39.3654 H   0  0  0  0  0  0  0  0  0  0  0  0
   45.3643   33.5502   39.5261 H   0  0  0  0  0  0  0  0  0  0  0  0
   47.9349   33.4169   38.4934 H   0  0  0  0  0  0  0  0  0  0  0  0
   46.8950   34.8723   38.9162 H   0  0  0  0  0  0  0  0  0  0  0  0
   49.0638   33.5700   40.5119 H   0  0  0  0  0  0  0  0  0  0  0  0
   48.9041   35.2819   39.8644 H   0  0  0  0  0  0  0  0  0  0  0  0
   47.4376   35.9077   41.4567 H   0  0  0  0  0  0  0  0  0  0  0  0
   44.0906   37.0782   44.4934 H   0  0  0  0  0  0  0  0  0  0  0  0
   45.2342   36.4726   42.3620 H   0  0  0  0  0  0  0  0  0  0  0  0
   45.3754   33.4763   46.2766 H   0  0  0  0  0  0  0  0  0  0  0  0
   48.5845   34.4513   43.6664 H   0  0  0  0  0  0  0  0  0  0  0  0
  1  9  1  0
  2  1  1  0
  3  2  1  0
  4  3  1  0
  4  5  1  0
  5  6  1  0
  6  1  1  0
  6 13  1  0
  7 12  2  0
  8  7  1  0
  9  8  2  0
  9 10  1  0
 10 11  2  0
 11 12  1  0
 14 13  2  0
  2 15  1  0
  2 16  1  0
  3 17  1  0
  3 18  1  0
  4 19  1  0
  4 20  1  0
  5 21  1  0
  5 22  1  0
  6 23  1  6
  7 24  1  0
  8 25  1  0
 11 26  1  0
 13 27  1  0
M  ISO  8  15  13  16  13  17  13  18  13  19  13  20  13  21  13  22  13
M  ISO  5  23  13  24  14  25  14  26  14  27   6
M  END
>  <minimizedAffinity>  (1) 
-4.40356016

>  <minimizedRMSD>  (1) 
0.754984677

$$$$
