
     RDKit          3D

 33 35  0  0  1  0  0  0  0  0999 V2000
   46.9940   32.9760   41.1720 N   0  0  0  0  0  0  0  0  0  0  0  0
   46.3190   31.8130   41.6770 C   0  0  0  0  0  0  0  0  0  0  0  0
   44.8690   32.0270   41.9310 C   0  0  0  0  0  0  0  0  0  0  0  0
   44.1750   32.9550   40.9770 C   0  0  0  0  0  0  0  0  0  0  0  0
   44.9850   33.4000   39.8250 C   0  0  0  0  0  0  0  0  0  0  0  0
   46.4020   33.7810   40.1330 C   0  0  2  0  0  0  0  0  0  0  0  0
   49.8640   34.9420   42.5520 C   0  0  0  0  0  0  0  0  0  0  0  0
   48.5620   34.6700   42.1380 C   0  0  0  0  0  0  0  0  0  0  0  0
   48.2550   33.4160   41.6340 C   0  0  0  0  0  0  0  0  0  0  0  0
   49.2820   32.5220   41.5800 N   0  0  0  0  0  0  0  0  0  0  0  0
   50.5390   32.7880   41.9800 C   0  0  0  0  0  0  0  0  0  0  0  0
   50.8200   33.9970   42.4630 N   0  0  0  0  0  0  0  0  0  0  0  0
   47.1770   33.4600   38.8820 C   0  0  0  0  0  0  0  0  0  0  0  0
   48.0960   34.3080   38.3480 C   0  0  0  0  0  0  0  0  0  0  0  0
   48.7930   33.9860   37.1970 C   0  0  0  0  0  0  0  0  0  0  0  0
   48.5090   32.7930   36.6430 N   0  0  0  0  0  0  0  0  0  0  0  0
   47.5940   31.9350   37.1640 C   0  0  0  0  0  0  0  0  0  0  0  0
   46.9270   32.2760   38.2910 N   0  0  0  0  0  0  0  0  0  0  0  0
   46.4269   31.0020   40.9417 H   0  0  0  0  0  0  0  0  0  0  0  0
   46.7821   31.5668   42.6439 H   0  0  0  0  0  0  0  0  0  0  0  0
   44.3678   31.0493   41.8774 H   0  0  0  0  0  0  0  0  0  0  0  0
   44.8034   32.5059   42.9191 H   0  0  0  0  0  0  0  0  0  0  0  0
   43.2856   32.4383   40.5873 H   0  0  0  0  0  0  0  0  0  0  0  0
   43.9416   33.8629   41.5526 H   0  0  0  0  0  0  0  0  0  0  0  0
   44.4887   34.2757   39.3814 H   0  0  0  0  0  0  0  0  0  0  0  0
   45.0481   32.5330   39.1510 H   0  0  0  0  0  0  0  0  0  0  0  0
   46.4224   34.8323   40.4561 H   0  0  0  0  0  0  0  0  0  0  0  0
   50.1132   35.9350   42.9543 H   0  0  0  0  0  0  0  0  0  0  0  0
   47.7839   35.4442   42.2105 H   0  0  0  0  0  0  0  0  0  0  0  0
   51.3223   32.0189   41.9092 H   0  0  0  0  0  0  0  0  0  0  0  0
   48.2896   35.2715   38.8421 H   0  0  0  0  0  0  0  0  0  0  0  0
   49.5376   34.6671   36.7593 H   0  0  0  0  0  0  0  0  0  0  0  0
   47.3967   30.9703   36.6736 H   0  0  0  0  0  0  0  0  0  0  0  0
  1  9  1  0
  1  2  1  0
  2  3  1  0
  4  3  1  0
  5  6  1  0
  5  4  1  0
  6  1  1  0
  8  7  2  0
  9  8  1  0
 10  9  2  0
 10 11  1  0
 11 12  2  0
 12  7  1  0
 13  6  1  0
 14 13  2  0
 15 14  1  0
 16 17  1  0
 16 15  2  0
 17 18  2  0
 18 13  1  0
  2 19  1  0
  2 20  1  0
  3 21  1  0
  3 22  1  0
  4 23  1  0
  4 24  1  0
  5 25  1  0
  5 26  1  0
  6 27  1  1
  7 28  1  0
  8 29  1  0
 11 30  1  0
 14 31  1  0
 15 32  1  0
 17 33  1  0
M  ISO  8  19  13  20  13  21  13  22  13  23  13  24  13  25  13  26  13
M  ISO  7  27  13  28  14  29  14  30  14  31  14  32  14  33  14
M  END
>  <minimizedAffinity>  (1) 
-3.97363472

>  <minimizedRMSD>  (1) 
5.42092896

$$$$
