
     RDKit          3D

 30 32  0  0  1  0  0  0  0  0999 V2000
   46.7540   34.8940   41.6870 C   0  0  1  0  0  0  0  0  0  0  0  0
   48.2310   35.2970   41.7190 C   0  0  0  0  0  0  0  0  0  0  0  0
   47.8150   33.9060   41.4370 C   0  0  2  0  0  0  0  0  0  0  0  0
   44.5610   36.0100   44.5170 C   0  0  0  0  0  0  0  0  0  0  0  0
   45.2100   35.9950   43.2470 C   0  0  0  0  0  0  0  0  0  0  0  0
   46.0810   34.9490   43.0150 C   0  0  0  0  0  0  0  0  0  0  0  0
   46.2860   33.9890   43.9850 N   0  0  0  0  0  0  0  0  0  0  0  0
   45.6410   34.0520   45.1760 C   0  0  0  0  0  0  0  0  0  0  0  0
   44.7890   35.0510   45.4410 N   0  0  0  0  0  0  0  0  0  0  0  0
   47.8150   33.2770   40.1750 N   0  0  0  0  0  0  0  0  0  0  0  0
   48.0350   34.1890   39.1010 C   0  0  0  0  0  0  0  0  0  0  0  0
   48.4700   33.5820   37.8140 C   0  0  0  0  0  0  0  0  0  0  0  0
   49.4130   32.6070   37.9070 O   0  0  0  0  0  0  0  0  0  0  0  0
   49.5820   31.9690   39.0880 C   0  0  0  0  0  0  0  0  0  0  0  0
   48.4180   32.0110   40.0360 C   0  0  0  0  0  0  0  0  0  0  0  0
   45.8413   35.1688   41.1379 H   0  0  0  0  0  0  0  0  0  0  0  0
   48.6522   35.9226   40.9182 H   0  0  0  0  0  0  0  0  0  0  0  0
   48.8971   35.7872   42.4443 H   0  0  0  0  0  0  0  0  0  0  0  0
   48.1719   32.9601   41.8705 H   0  0  0  0  0  0  0  0  0  0  0  0
   43.8572   36.8227   44.7500 H   0  0  0  0  0  0  0  0  0  0  0  0
   45.0265   36.7747   42.4930 H   0  0  0  0  0  0  0  0  0  0  0  0
   45.8194   33.2741   45.9330 H   0  0  0  0  0  0  0  0  0  0  0  0
   47.0940   34.7286   38.9185 H   0  0  0  0  0  0  0  0  0  0  0  0
   48.8659   34.8341   39.4227 H   0  0  0  0  0  0  0  0  0  0  0  0
   48.8770   34.3856   37.1827 H   0  0  0  0  0  0  0  0  0  0  0  0
   47.5765   33.0938   37.3976 H   0  0  0  0  0  0  0  0  0  0  0  0
   49.8003   30.9130   38.8709 H   0  0  0  0  0  0  0  0  0  0  0  0
   50.3968   32.5038   39.5979 H   0  0  0  0  0  0  0  0  0  0  0  0
   47.6552   31.3066   39.6728 H   0  0  0  0  0  0  0  0  0  0  0  0
   48.8158   31.7468   41.0269 H   0  0  0  0  0  0  0  0  0  0  0  0
  1  2  1  0
  1  6  1  0
  3  1  1  0
  3  2  1  0
  4  9  2  0
  5  4  1  0
  6  5  2  0
  6  7  1  0
  7  8  2  0
  8  9  1  0
 10  3  1  0
 11 10  1  0
 12 13  1  0
 12 11  1  0
 13 14  1  0
 14 15  1  0
 15 10  1  0
  1 16  1  6
  2 17  1  0
  2 18  1  0
  3 19  1  1
  4 20  1  0
  5 21  1  0
  8 22  1  0
 11 23  1  0
 11 24  1  0
 12 25  1  0
 12 26  1  0
 14 27  1  0
 14 28  1  0
 15 29  1  0
 15 30  1  0
M  ISO  8  16  13  17  13  18  13  19  13  20  14  21  14  22  14  23  13
M  ISO  7  24  13  25  13  26  13  27  13  28  13  29  13  30  13
M  END
>  <minimizedAffinity>  (1) 
-4.56259489

>  <minimizedRMSD>  (1) 
0.747979939

$$$$
