
     RDKit          3D

 34 36  0  0  1  0  0  0  0  0999 V2000
   46.5460   34.0550   41.7910 N   0  0  0  0  0  0  0  0  0  0  0  0
   46.1120   32.8960   41.0800 C   0  0  0  0  0  0  0  0  0  0  0  0
   46.0770   33.0260   39.6010 C   0  0  0  0  0  0  0  0  0  0  0  0
   47.1330   33.9180   39.0230 C   0  0  0  0  0  0  0  0  0  0  0  0
   48.1950   34.3200   39.9920 C   0  0  0  0  0  0  0  0  0  0  0  0
   47.6990   34.7610   41.3240 C   0  0  2  0  0  0  0  0  0  0  0  0
   44.6950   36.1510   44.2700 C   0  0  0  0  0  0  0  0  0  0  0  0
   45.2770   35.8020   43.0480 C   0  0  0  0  0  0  0  0  0  0  0  0
   45.9090   34.5660   42.9440 C   0  0  0  0  0  0  0  0  0  0  0  0
   45.9190   33.7540   44.0650 N   0  0  0  0  0  0  0  0  0  0  0  0
   45.3500   34.1200   45.2210 C   0  0  0  0  0  0  0  0  0  0  0  0
   44.7410   35.3100   45.3250 N   0  0  0  0  0  0  0  0  0  0  0  0
   49.0670   34.5670   42.5210 S   0  0  0  0  0  0  0  0  0  0  0  0
   49.7960   32.9370   42.4130 C   0  0  0  0  0  0  0  0  0  0  0  0
   51.0080   32.5830   41.8560 C   0  0  0  0  0  0  0  0  0  0  0  0
   51.3920   31.2580   41.8730 C   0  0  0  0  0  0  0  0  0  0  0  0
   50.6120   30.3070   42.4200 N   0  0  0  0  0  0  0  0  0  0  0  0
   49.4350   30.6670   42.9580 C   0  0  0  0  0  0  0  0  0  0  0  0
   49.0200   31.9580   42.9610 N   0  0  0  0  0  0  0  0  0  0  0  0
   46.7937   32.0700   41.3311 H   0  0  0  0  0  0  0  0  0  0  0  0
   45.0712   32.7241   41.3916 H   0  0  0  0  0  0  0  0  0  0  0  0
   46.2009   32.0231   39.1664 H   0  0  0  0  0  0  0  0  0  0  0  0
   45.1108   33.4901   39.3540 H   0  0  0  0  0  0  0  0  0  0  0  0
   47.6123   33.3876   38.1870 H   0  0  0  0  0  0  0  0  0  0  0  0
   46.6269   34.8427   38.7085 H   0  0  0  0  0  0  0  0  0  0  0  0
   48.8613   33.4581   40.1446 H   0  0  0  0  0  0  0  0  0  0  0  0
   48.7004   35.1909   39.5492 H   0  0  0  0  0  0  0  0  0  0  0  0
   47.3771   35.8080   41.2232 H   0  0  0  0  0  0  0  0  0  0  0  0
   44.1927   37.1241   44.3734 H   0  0  0  0  0  0  0  0  0  0  0  0
   45.2366   36.4878   42.1889 H   0  0  0  0  0  0  0  0  0  0  0  0
   45.3824   33.4427   46.0871 H   0  0  0  0  0  0  0  0  0  0  0  0
   51.6587   33.3465   41.4048 H   0  0  0  0  0  0  0  0  0  0  0  0
   52.3573   30.9723   41.4296 H   0  0  0  0  0  0  0  0  0  0  0  0
   48.7921   29.8957   43.4071 H   0  0  0  0  0  0  0  0  0  0  0  0
  1  9  1  0
  2  1  1  0
  3  2  1  0
  4  3  1  0
  4  5  1  0
  5  6  1  0
  6  1  1  0
  6 13  1  0
  7 12  2  0
  8  7  1  0
  9  8  2  0
  9 10  1  0
 10 11  2  0
 11 12  1  0
 14 13  1  0
 14 19  2  0
 15 16  2  0
 15 14  1  0
 16 17  1  0
 17 18  2  0
 18 19  1  0
  2 20  1  0
  2 21  1  0
  3 22  1  0
  3 23  1  0
  4 24  1  0
  4 25  1  0
  5 26  1  0
  5 27  1  0
  6 28  1  6
  7 29  1  0
  8 30  1  0
 11 31  1  0
 15 32  1  0
 16 33  1  0
 18 34  1  0
M  ISO  8  20  13  21  13  22  13  23  13  24  13  25  13  26  13  27  13
M  ISO  7  28  13  29  14  30  14  31  14  32  14  33  14  34  14
M  END
>  <minimizedAffinity>  (1) 
-4.69199991

>  <minimizedRMSD>  (1) 
0.580155075

$$$$
