
     RDKit          3D

 33 35  0  0  1  0  0  0  0  0999 V2000
   46.6740   34.0500   41.8620 N   0  0  0  0  0  0  0  0  0  0  0  0
   46.3830   32.8000   41.2320 C   0  0  0  0  0  0  0  0  0  0  0  0
   46.2980   32.8620   39.7440 C   0  0  0  0  0  0  0  0  0  0  0  0
   47.2360   33.8420   39.0980 C   0  0  0  0  0  0  0  0  0  0  0  0
   48.2420   34.4290   40.0210 C   0  0  0  0  0  0  0  0  0  0  0  0
   47.7180   34.8830   41.3460 C   0  0  2  0  0  0  0  0  0  0  0  0
   44.6860   36.0620   44.3100 C   0  0  0  0  0  0  0  0  0  0  0  0
   45.3200   35.7370   43.1090 C   0  0  0  0  0  0  0  0  0  0  0  0
   46.0020   34.5330   43.0140 C   0  0  0  0  0  0  0  0  0  0  0  0
   46.0280   33.7180   44.1290 N   0  0  0  0  0  0  0  0  0  0  0  0
   45.4300   34.0790   45.2770 C   0  0  0  0  0  0  0  0  0  0  0  0
   44.7640   35.2360   45.3690 N   0  0  0  0  0  0  0  0  0  0  0  0
   49.1270   34.9170   42.5020 S   0  0  0  0  0  0  0  0  0  0  0  0
   50.1700   33.4590   42.3500 C   0  0  0  0  0  0  0  0  0  0  0  0
   49.8200   32.5860   41.1670 C   0  0  0  0  0  0  0  0  0  0  0  0
   49.6030   32.1050   42.5440 C   0  0  0  0  0  0  0  0  0  0  0  0
   47.1759   32.0867   41.5014 H   0  0  0  0  0  0  0  0  0  0  0  0
   45.3889   32.4935   41.5896 H   0  0  0  0  0  0  0  0  0  0  0  0
   46.5225   31.8611   39.3467 H   0  0  0  0  0  0  0  0  0  0  0  0
   45.2804   33.2059   39.5068 H   0  0  0  0  0  0  0  0  0  0  0  0
   47.7722   33.3233   38.2896 H   0  0  0  0  0  0  0  0  0  0  0  0
   46.6175   34.6765   38.7360 H   0  0  0  0  0  0  0  0  0  0  0  0
   49.0155   33.6690   40.2057 H   0  0  0  0  0  0  0  0  0  0  0  0
   48.6169   35.3339   39.5203 H   0  0  0  0  0  0  0  0  0  0  0  0
   47.2655   35.8779   41.2214 H   0  0  0  0  0  0  0  0  0  0  0  0
   44.1184   37.0008   44.3908 H   0  0  0  0  0  0  0  0  0  0  0  0
   45.2792   36.4251   42.2517 H   0  0  0  0  0  0  0  0  0  0  0  0
   45.4887   33.4151   46.1521 H   0  0  0  0  0  0  0  0  0  0  0  0
   51.0531   33.9631   42.7695 H   0  0  0  0  0  0  0  0  0  0  0  0
   48.9602   32.8397   40.5295 H   0  0  0  0  0  0  0  0  0  0  0  0
   50.3608   32.2120   40.2851 H   0  0  0  0  0  0  0  0  0  0  0  0
   50.2360   31.3009   42.9473 H   0  0  0  0  0  0  0  0  0  0  0  0
   48.7364   31.7056   43.0912 H   0  0  0  0  0  0  0  0  0  0  0  0
  1  9  1  0
  2  1  1  0
  3  2  1  0
  4  3  1  0
  4  5  1  0
  5  6  1  0
  6  1  1  0
  6 13  1  0
  7 12  2  0
  8  7  1  0
  9  8  2  0
  9 10  1  0
 10 11  2  0
 11 12  1  0
 14 13  1  0
 14 16  1  0
 15 14  1  0
 15 16  1  0
  2 17  1  0
  2 18  1  0
  3 19  1  0
  3 20  1  0
  4 21  1  0
  4 22  1  0
  5 23  1  0
  5 24  1  0
  6 25  1  6
  7 26  1  0
  8 27  1  0
 11 28  1  0
 14 29  1  0
 15 30  1  0
 15 31  1  0
 16 32  1  0
 16 33  1  0
M  ISO  8  17  13  18  13  19  13  20  13  21  13  22  13  23  13  24  13
M  ISO  8  25  13  26  14  27  14  28  14  29  13  30  13  31  13  32  13
M  ISO  1  33  13
M  END
>  <minimizedAffinity>  (1) 
-4.46484423

>  <minimizedRMSD>  (1) 
0.743505836

$$$$
