
     RDKit          3D

 38 39  0  0  1  0  0  0  0  0999 V2000
   43.7290   33.4040   40.0390 N   0  0  0  0  0  0  0  0  0  0  0  0
   43.7630   32.3950   39.0120 C   0  0  0  0  0  0  0  0  0  0  0  0
   44.7970   32.5910   37.9730 C   0  0  0  0  0  0  0  0  0  0  0  0
   46.0700   33.2240   38.4470 C   0  0  0  0  0  0  0  0  0  0  0  0
   46.1720   33.3530   39.9220 C   0  0  0  0  0  0  0  0  0  0  0  0
   44.9630   33.8340   40.6310 C   0  0  2  0  0  0  0  0  0  0  0  0
   41.0660   35.7670   41.1550 C   0  0  0  0  0  0  0  0  0  0  0  0
   42.3170   35.3540   40.6520 C   0  0  0  0  0  0  0  0  0  0  0  0
   42.5260   33.9990   40.5180 C   0  0  0  0  0  0  0  0  0  0  0  0
   41.5210   33.1070   40.8760 N   0  0  0  0  0  0  0  0  0  0  0  0
   40.3530   33.5470   41.3490 C   0  0  0  0  0  0  0  0  0  0  0  0
   40.1230   34.8680   41.4890 N   0  0  0  0  0  0  0  0  0  0  0  0
   45.0300   33.2630   42.3570 S   0  0  0  0  0  0  0  0  0  0  0  0
   45.7120   34.4380   43.5000 C   0  0  0  0  0  0  0  0  0  0  0  0
   47.2390   34.3600   43.3450 C   0  0  0  0  0  0  0  0  0  0  0  0
   45.3720   35.8830   43.1400 C   0  0  0  0  0  0  0  0  0  0  0  0
   45.3240   34.2340   44.9330 C   0  0  0  0  0  0  0  0  0  0  0  0
   43.9451   31.4235   39.4948 H   0  0  0  0  0  0  0  0  0  0  0  0
   42.7942   32.4526   38.4943 H   0  0  0  0  0  0  0  0  0  0  0  0
   44.3713   33.2316   37.1866 H   0  0  0  0  0  0  0  0  0  0  0  0
   45.0701   31.5848   37.6223 H   0  0  0  0  0  0  0  0  0  0  0  0
   46.9124   32.6104   38.0952 H   0  0  0  0  0  0  0  0  0  0  0  0
   46.0870   34.2451   38.0381 H   0  0  0  0  0  0  0  0  0  0  0  0
   46.4243   32.3619   40.3271 H   0  0  0  0  0  0  0  0  0  0  0  0
   46.9356   34.1260   40.0935 H   0  0  0  0  0  0  0  0  0  0  0  0
   44.9717   34.9319   40.5636 H   0  0  0  0  0  0  0  0  0  0  0  0
   40.8583   36.8404   41.2760 H   0  0  0  0  0  0  0  0  0  0  0  0
   43.0935   36.0834   40.3781 H   0  0  0  0  0  0  0  0  0  0  0  0
   39.5709   32.8252   41.6271 H   0  0  0  0  0  0  0  0  0  0  0  0
   47.7078   34.3361   44.3398 H   0  0  0  0  0  0  0  0  0  0  0  0
   47.5053   33.4471   42.7921 H   0  0  0  0  0  0  0  0  0  0  0  0
   47.5969   35.2410   42.7921 H   0  0  0  0  0  0  0  0  0  0  0  0
   45.2344   36.4678   44.0615 H   0  0  0  0  0  0  0  0  0  0  0  0
   46.1926   36.3166   42.5496 H   0  0  0  0  0  0  0  0  0  0  0  0
   44.4441   35.9052   42.5496 H   0  0  0  0  0  0  0  0  0  0  0  0
   46.1069   34.6456   45.5870 H   0  0  0  0  0  0  0  0  0  0  0  0
   44.3722   34.7483   45.1319 H   0  0  0  0  0  0  0  0  0  0  0  0
   45.2081   33.1584   45.1319 H   0  0  0  0  0  0  0  0  0  0  0  0
  1  9  1  0
  1  6  1  0
  2  1  1  0
  3  4  1  0
  3  2  1  0
  4  5  1  0
  5  6  1  0
  6 13  1  0
  7 12  2  0
  8  7  1  0
  9  8  2  0
  9 10  1  0
 10 11  2  0
 11 12  1  0
 13 14  1  0
 14 17  1  0
 15 14  1  0
 16 14  1  0
  2 18  1  0
  2 19  1  0
  3 20  1  0
  3 21  1  0
  4 22  1  0
  4 23  1  0
  5 24  1  0
  5 25  1  0
  6 26  1  1
  7 27  1  0
  8 28  1  0
 11 29  1  0
 15 30  1  0
 15 31  1  0
 15 32  1  0
 16 33  1  0
 16 34  1  0
 16 35  1  0
 17 36  1  0
 17 37  1  0
 17 38  1  0
M  ISO  8  18  13  19  13  20  13  21  13  22  13  23  13  24  13  25  13
M  ISO  8  26  13  27  14  28  14  29  14  30   8  31   8  32   8  33   8
M  ISO  5  34   8  35   8  36   8  37   8  38   8
M  END
>  <minimizedAffinity>  (1) 
-4.04467821

>  <minimizedRMSD>  (1) 
4.35252094

$$$$
