
     RDKit          3D

 26 27  0  0  1  0  0  0  0  0999 V2000
   47.0310   34.7260   41.7480 C   0  0  1  0  0  0  0  0  0  0  0  0
   48.3260   35.5260   41.6940 C   0  0  0  0  0  0  0  0  0  0  0  0
   48.2750   34.0180   41.6270 C   0  0  1  0  0  0  0  0  0  0  0  0
   44.6500   35.9990   44.3410 C   0  0  0  0  0  0  0  0  0  0  0  0
   45.3770   35.9350   43.1380 C   0  0  0  0  0  0  0  0  0  0  0  0
   46.2490   34.8710   42.9870 C   0  0  0  0  0  0  0  0  0  0  0  0
   46.3570   33.9620   43.9860 N   0  0  0  0  0  0  0  0  0  0  0  0
   45.6480   34.0460   45.1340 C   0  0  0  0  0  0  0  0  0  0  0  0
   44.7970   35.0640   45.3070 N   0  0  0  0  0  0  0  0  0  0  0  0
   49.1520   33.3740   42.6220 C   0  0  0  0  0  0  0  0  0  0  0  0
   50.6250   33.6050   42.4020 C   0  0  0  0  0  0  0  0  0  0  0  0
   48.9830   31.8450   42.6100 C   0  0  0  0  0  0  0  0  0  0  0  0
   46.0957   34.6227   41.1783 H   0  0  0  0  0  0  0  0  0  0  0  0
   48.5815   36.1172   40.8023 H   0  0  0  0  0  0  0  0  0  0  0  0
   48.8244   36.2802   42.3208 H   0  0  0  0  0  0  0  0  0  0  0  0
   48.4689   33.1567   40.9708 H   0  0  0  0  0  0  0  0  0  0  0  0
   43.9456   36.8289   44.4995 H   0  0  0  0  0  0  0  0  0  0  0  0
   45.2576   36.6963   42.3530 H   0  0  0  0  0  0  0  0  0  0  0  0
   45.7696   33.2846   45.9185 H   0  0  0  0  0  0  0  0  0  0  0  0
   48.8400   33.8361   43.5702 H   0  0  0  0  0  0  0  0  0  0  0  0
   51.1329   33.6847   43.3745 H   0  0  0  0  0  0  0  0  0  0  0  0
   51.0477   32.7622   41.8355 H   0  0  0  0  0  0  0  0  0  0  0  0
   50.7694   34.5368   41.8355 H   0  0  0  0  0  0  0  0  0  0  0  0
   48.9418   31.4725   43.6442 H   0  0  0  0  0  0  0  0  0  0  0  0
   48.0505   31.5833   42.0886 H   0  0  0  0  0  0  0  0  0  0  0  0
   49.8359   31.3859   42.0886 H   0  0  0  0  0  0  0  0  0  0  0  0
  1  6  1  0
  2  1  1  0
  3  2  1  0
  3  1  1  0
  3 10  1  0
  4  9  2  0
  5  4  1  0
  6  5  2  0
  6  7  1  0
  7  8  2  0
  8  9  1  0
 11 10  1  0
 12 10  1  0
  1 13  1  6
  2 14  1  0
  2 15  1  0
  3 16  1  6
  4 17  1  0
  5 18  1  0
  8 19  1  0
 10 20  1  0
 11 21  1  0
 11 22  1  0
 11 23  1  0
 12 24  1  0
 12 25  1  0
 12 26  1  0
M  ISO  8  13  13  14  13  15  13  16  13  17  14  18  14  19  14  20   8
M  ISO  6  21   8  22   8  23   8  24   8  25   8  26   8
M  END
>  <minimizedAffinity>  (1) 
-4.43201113

>  <minimizedRMSD>  (1) 
0.999032676

$$$$
