
     RDKit          3D

 52 56  0  0  1  0  0  0  0  0999 V2000
   46.9840   33.2290   39.8890 N   0  0  0  0  0  0  0  0  0  0  0  0
   45.6740   32.8940   40.3300 C   0  0  0  0  0  0  0  0  0  0  0  0
   44.5860   33.1990   39.3730 C   0  0  0  0  0  0  0  0  0  0  0  0
   44.9620   33.0480   37.9410 C   0  0  0  0  0  0  0  0  0  0  0  0
   46.3020   32.4420   37.6930 C   0  0  0  0  0  0  0  0  0  0  0  0
   47.4230   32.9300   38.5580 C   0  0  2  0  0  0  0  0  0  0  0  0
   49.2770   35.6790   41.5580 C   0  0  0  0  0  0  0  0  0  0  0  0
   48.3080   35.1970   40.6850 C   0  0  0  0  0  0  0  0  0  0  0  0
   47.9460   33.8700   40.7070 C   0  0  0  0  0  0  0  0  0  0  0  0
   48.5940   33.0870   41.6280 N   0  0  0  0  0  0  0  0  0  0  0  0
   49.5250   33.5610   42.4630 C   0  0  0  0  0  0  0  0  0  0  0  0
   49.8630   34.8510   42.4280 N   0  0  0  0  0  0  0  0  0  0  0  0
   48.6110   31.5620   38.5800 S   0  0  0  0  0  0  0  0  0  0  0  0
   50.8410   32.5290   37.7460 N   0  0  0  0  0  0  0  0  0  0  0  0
   52.0890   31.7920   37.7710 C   0  0  0  0  0  0  0  0  0  0  0  0
   51.6530   30.3910   38.1240 C   0  0  0  0  0  0  0  0  0  0  0  0
   50.4550   30.1990   37.2360 C   0  0  0  0  0  0  0  0  0  0  0  0
   49.8360   31.6190   37.2940 C   0  0  1  0  0  0  0  0  0  0  0  0
   49.5160   31.9640   35.9040 C   0  0  0  0  0  0  0  0  0  0  0  0
   48.4920   32.8730   35.5540 C   0  0  0  0  0  0  0  0  0  0  0  0
   48.3080   33.0090   34.2390 N   0  0  0  0  0  0  0  0  0  0  0  0
   49.1750   32.2200   33.6010 C   0  0  0  0  0  0  0  0  0  0  0  0
   49.5380   31.8970   32.3130 C   0  0  0  0  0  0  0  0  0  0  0  0
   50.5480   31.0200   31.9770 C   0  0  0  0  0  0  0  0  0  0  0  0
   51.2420   30.4240   33.0080 C   0  0  0  0  0  0  0  0  0  0  0  0
   50.9280   30.7010   34.3190 C   0  0  0  0  0  0  0  0  0  0  0  0
   49.8870   31.6040   34.5990 C   0  0  0  0  0  0  0  0  0  0  0  0
   45.6512   31.8139   40.5373 H   0  0  0  0  0  0  0  0  0  0  0  0
   45.4830   33.5174   41.2159 H   0  0  0  0  0  0  0  0  0  0  0  0
   43.7457   32.5203   39.5808 H   0  0  0  0  0  0  0  0  0  0  0  0
   44.3298   34.2588   39.5186 H   0  0  0  0  0  0  0  0  0  0  0  0
   44.2066   32.4116   37.4569 H   0  0  0  0  0  0  0  0  0  0  0  0
   45.0092   34.0674   37.5304 H   0  0  0  0  0  0  0  0  0  0  0  0
   46.2114   31.3561   37.8433 H   0  0  0  0  0  0  0  0  0  0  0  0
   46.5723   32.7386   36.6688 H   0  0  0  0  0  0  0  0  0  0  0  0
   47.8511   33.8653   38.1683 H   0  0  0  0  0  0  0  0  0  0  0  0
   49.5611   36.7414   41.5325 H   0  0  0  0  0  0  0  0  0  0  0  0
   47.8272   35.8821   39.9712 H   0  0  0  0  0  0  0  0  0  0  0  0
   50.0134   32.8853   43.1806 H   0  0  0  0  0  0  0  0  0  0  0  0
   50.6116   32.8709   38.6901 H   0  0  0  0  0  0  0  0  0  0  0  0
   52.5815   31.8162   36.7877 H   0  0  0  0  0  0  0  0  0  0  0  0
   52.8221   32.2075   38.4781 H   0  0  0  0  0  0  0  0  0  0  0  0
   52.4409   29.6583   37.8950 H   0  0  0  0  0  0  0  0  0  0  0  0
   51.4372   30.2516   39.1936 H   0  0  0  0  0  0  0  0  0  0  0  0
   49.7685   29.4392   37.6376 H   0  0  0  0  0  0  0  0  0  0  0  0
   50.6863   29.8388   36.2227 H   0  0  0  0  0  0  0  0  0  0  0  0
   47.8982   33.4209   36.3005 H   0  0  0  0  0  0  0  0  0  0  0  0
   47.6119   33.6217   33.7907 H   0  0  0  0  0  0  0  0  0  0  0  0
   48.9820   32.3731   31.4919 H   0  0  0  0  0  0  0  0  0  0  0  0
   50.7905   30.8043   30.9260 H   0  0  0  0  0  0  0  0  0  0  0  0
   52.0555   29.7194   32.7805 H   0  0  0  0  0  0  0  0  0  0  0  0
   51.4846   30.2218   35.1379 H   0  0  0  0  0  0  0  0  0  0  0  0
  1  2  1  0
  1  9  1  0
  3  2  1  0
  4  3  1  0
  5  4  1  0
  5  6  1  0
  6 13  1  0
  6  1  1  0
  7 12  2  0
  8  9  2  0
  8  7  1  0
  9 10  1  0
 10 11  2  0
 12 11  1  0
 14 15  1  0
 15 16  1  0
 17 18  1  0
 17 16  1  0
 18 14  1  0
 18 13  1  1
 19 18  1  0
 20 19  2  0
 21 20  1  0
 22 21  1  0
 22 27  2  0
 23 22  1  0
 24 23  2  0
 24 25  1  0
 25 26  2  0
 26 27  1  0
 27 19  1  0
  2 28  1  0
  2 29  1  0
  3 30  1  0
  3 31  1  0
  4 32  1  0
  4 33  1  0
  5 34  1  0
  5 35  1  0
  6 36  1  6
  7 37  1  0
  8 38  1  0
 11 39  1  0
 14 40  1  0
 15 41  1  0
 15 42  1  0
 16 43  1  0
 16 44  1  0
 17 45  1  0
 17 46  1  0
 20 47  1  0
 21 48  1  0
 23 49  1  0
 24 50  1  0
 25 51  1  0
 26 52  1  0
M  ISO  8  28  13  29  13  30  13  31  13  32  13  33  13  34  13  35  13
M  ISO  8  36  13  37  14  38  14  39  14  40   5  41  13  42  13  43  13
M  ISO  8  44  13  45  13  46  13  47  14  48   9  49  14  50  14  51  14
M  ISO  1  52  14
M  END
>  <minimizedAffinity>  (1) 
-5.56150627

>  <minimizedRMSD>  (1) 
1.08995652

$$$$
