
     RDKit          3D

 29 30  0  0  1  0  0  0  0  0999 V2000
   46.5830   34.8570   41.8320 C   0  0  1  0  0  0  0  0  0  0  0  0
   48.0590   35.2770   41.8460 C   0  0  0  0  0  0  0  0  0  0  0  0
   47.6370   33.8750   41.5580 C   0  0  2  0  0  0  0  0  0  0  0  0
   44.5020   35.9950   44.7350 C   0  0  0  0  0  0  0  0  0  0  0  0
   45.1010   35.9710   43.4630 C   0  0  0  0  0  0  0  0  0  0  0  0
   45.9510   34.9050   43.1850 C   0  0  0  0  0  0  0  0  0  0  0  0
   46.1590   33.9440   44.1570 N   0  0  0  0  0  0  0  0  0  0  0  0
   45.5630   34.0130   45.3520 C   0  0  0  0  0  0  0  0  0  0  0  0
   44.7360   35.0400   45.6350 N   0  0  0  0  0  0  0  0  0  0  0  0
   47.9570   33.3610   40.2010 C   0  0  0  0  0  0  0  0  0  0  0  0
   48.2130   34.5030   39.2100 C   0  0  0  0  0  0  0  0  0  0  0  0
   49.1110   32.3860   40.1650 C   0  0  0  0  0  0  0  0  0  0  0  0
   46.7650   32.6150   39.6180 C   0  0  0  0  0  0  0  0  0  0  0  0
   45.6595   35.1242   41.2975 H   0  0  0  0  0  0  0  0  0  0  0  0
   48.4638   35.9113   41.0437 H   0  0  0  0  0  0  0  0  0  0  0  0
   48.7339   35.7671   42.5632 H   0  0  0  0  0  0  0  0  0  0  0  0
   47.8117   32.8745   41.9804 H   0  0  0  0  0  0  0  0  0  0  0  0
   43.8240   36.8217   44.9935 H   0  0  0  0  0  0  0  0  0  0  0  0
   44.9064   36.7595   42.7211 H   0  0  0  0  0  0  0  0  0  0  0  0
   45.7473   33.2320   46.1043 H   0  0  0  0  0  0  0  0  0  0  0  0
   48.4208   35.4300   39.7645 H   0  0  0  0  0  0  0  0  0  0  0  0
   49.0773   34.2526   38.5773 H   0  0  0  0  0  0  0  0  0  0  0  0
   47.3245   34.6455   38.5773 H   0  0  0  0  0  0  0  0  0  0  0  0
   49.4099   32.1335   41.1931 H   0  0  0  0  0  0  0  0  0  0  0  0
   48.8019   31.4713   39.6379 H   0  0  0  0  0  0  0  0  0  0  0  0
   49.9612   32.8435   39.6379 H   0  0  0  0  0  0  0  0  0  0  0  0
   46.1412   32.2246   40.4356 H   0  0  0  0  0  0  0  0  0  0  0  0
   46.1698   33.3020   38.9986 H   0  0  0  0  0  0  0  0  0  0  0  0
   47.1227   31.7793   38.9986 H   0  0  0  0  0  0  0  0  0  0  0  0
  1  2  1  0
  1  6  1  0
  3  1  1  0
  3  2  1  0
  4  9  2  0
  5  4  1  0
  6  5  2  0
  6  7  1  0
  7  8  2  0
  8  9  1  0
 10  3  1  0
 11 10  1  0
 12 10  1  0
 13 10  1  0
  1 14  1  6
  2 15  1  0
  2 16  1  0
  3 17  1  1
  4 18  1  0
  5 19  1  0
  8 20  1  0
 11 21  1  0
 11 22  1  0
 11 23  1  0
 12 24  1  0
 12 25  1  0
 12 26  1  0
 13 27  1  0
 13 28  1  0
 13 29  1  0
M  ISO  8  14  13  15  13  16  13  17  13  18  14  19  14  20  14  21   8
M  ISO  8  22   8  23   8  24   8  25   8  26   8  27   8  28   8  29   8
M  END
>  <minimizedAffinity>  (1) 
-4.3347888

>  <minimizedRMSD>  (1) 
0.756022692

$$$$
