
     RDKit          3D

 52 56  0  0  1  0  0  0  0  0999 V2000
   48.4960   31.6320   38.6340 S   0  0  0  0  0  0  0  0  0  0  0  0
   46.8840   33.2950   39.9590 N   0  0  0  0  0  0  0  0  0  0  0  0
   45.5640   32.9500   40.4170 C   0  0  0  0  0  0  0  0  0  0  0  0
   44.4830   33.2830   39.4510 C   0  0  0  0  0  0  0  0  0  0  0  0
   44.8460   33.1410   38.0160 C   0  0  0  0  0  0  0  0  0  0  0  0
   46.1640   32.4840   37.7750 C   0  0  0  0  0  0  0  0  0  0  0  0
   47.3090   33.0050   38.6050 C   0  0  2  0  0  0  0  0  0  0  0  0
   49.2580   35.7100   41.5250 C   0  0  0  0  0  0  0  0  0  0  0  0
   48.2990   35.2220   40.6430 C   0  0  0  0  0  0  0  0  0  0  0  0
   47.8500   33.9290   40.7710 C   0  0  0  0  0  0  0  0  0  0  0  0
   48.3980   33.1960   41.7860 N   0  0  0  0  0  0  0  0  0  0  0  0
   49.3190   33.6740   42.6260 C   0  0  0  0  0  0  0  0  0  0  0  0
   49.7470   34.9350   42.4940 N   0  0  0  0  0  0  0  0  0  0  0  0
   50.7700   32.4730   37.7610 N   0  0  0  0  0  0  0  0  0  0  0  0
   51.9770   31.7330   37.7840 C   0  0  0  0  0  0  0  0  0  0  0  0
   51.4860   30.3470   38.1290 C   0  0  0  0  0  0  0  0  0  0  0  0
   50.2730   30.2380   37.2750 C   0  0  0  0  0  0  0  0  0  0  0  0
   49.6930   31.7200   37.3180 C   0  0  1  0  0  0  0  0  0  0  0  0
   49.3190   31.7870   35.9110 C   0  0  0  0  0  0  0  0  0  0  0  0
   48.2330   32.3430   35.3380 N   0  0  0  0  0  0  0  0  0  0  0  0
   47.9480   32.3910   34.0360 C   0  0  0  0  0  0  0  0  0  0  0  0
   48.7680   31.8570   33.1030 N   0  0  0  0  0  0  0  0  0  0  0  0
   49.8860   31.2730   33.5400 C   0  0  0  0  0  0  0  0  0  0  0  0
   50.7200   30.7230   32.6050 C   0  0  0  0  0  0  0  0  0  0  0  0
   51.8800   30.1020   32.9870 C   0  0  0  0  0  0  0  0  0  0  0  0
   52.1980   30.0370   34.3260 C   0  0  0  0  0  0  0  0  0  0  0  0
   51.3190   30.6080   35.2180 C   0  0  0  0  0  0  0  0  0  0  0  0
   50.1270   31.2530   34.8930 C   0  0  0  0  0  0  0  0  0  0  0  0
   45.5360   31.8671   40.6079 H   0  0  0  0  0  0  0  0  0  0  0  0
   45.3757   33.5444   41.3232 H   0  0  0  0  0  0  0  0  0  0  0  0
   43.6303   32.6182   39.6530 H   0  0  0  0  0  0  0  0  0  0  0  0
   44.2573   34.3488   39.6032 H   0  0  0  0  0  0  0  0  0  0  0  0
   44.0673   32.5413   37.5220 H   0  0  0  0  0  0  0  0  0  0  0  0
   44.9248   34.1603   37.6100 H   0  0  0  0  0  0  0  0  0  0  0  0
   46.0518   31.4106   37.9879 H   0  0  0  0  0  0  0  0  0  0  0  0
   46.4244   32.7032   36.7290 H   0  0  0  0  0  0  0  0  0  0  0  0
   47.7216   33.9371   38.1916 H   0  0  0  0  0  0  0  0  0  0  0  0
   49.6163   36.7449   41.4221 H   0  0  0  0  0  0  0  0  0  0  0  0
   47.9017   35.8682   39.8464 H   0  0  0  0  0  0  0  0  0  0  0  0
   49.7244   33.0339   43.4234 H   0  0  0  0  0  0  0  0  0  0  0  0
   50.5694   32.8072   38.7144 H   0  0  0  0  0  0  0  0  0  0  0  0
   52.4746   31.7486   36.8031 H   0  0  0  0  0  0  0  0  0  0  0  0
   52.7265   32.1267   38.4863 H   0  0  0  0  0  0  0  0  0  0  0  0
   52.2308   29.5808   37.8679 H   0  0  0  0  0  0  0  0  0  0  0  0
   51.2935   30.1946   39.2012 H   0  0  0  0  0  0  0  0  0  0  0  0
   49.5551   29.5170   37.6930 H   0  0  0  0  0  0  0  0  0  0  0  0
   50.4820   29.8763   36.2574 H   0  0  0  0  0  0  0  0  0  0  0  0
   47.0176   32.8799   33.7114 H   0  0  0  0  0  0  0  0  0  0  0  0
   50.4571   30.7799   31.5384 H   0  0  0  0  0  0  0  0  0  0  0  0
   52.5493   29.6607   32.2338 H   0  0  0  0  0  0  0  0  0  0  0  0
   53.1208   29.5466   34.6696 H   0  0  0  0  0  0  0  0  0  0  0  0
   51.5812   30.5500   36.2847 H   0  0  0  0  0  0  0  0  0  0  0  0
  2  3  1  0
  2 10  1  0
  4  3  1  0
  5  4  1  0
  6  5  1  0
  6  7  1  0
  7  1  1  0
  7  2  1  0
  8 13  2  0
  9 10  2  0
  9  8  1  0
 10 11  1  0
 11 12  2  0
 13 12  1  0
 14 15  1  0
 15 16  1  0
 17 18  1  0
 17 16  1  0
 18 14  1  0
 18  1  1  1
 19 18  1  0
 20 19  2  0
 21 20  1  0
 22 23  1  0
 22 21  2  0
 23 28  2  0
 24 25  2  0
 24 23  1  0
 25 26  1  0
 26 27  2  0
 28 27  1  0
 28 19  1  0
  3 29  1  0
  3 30  1  0
  4 31  1  0
  4 32  1  0
  5 33  1  0
  5 34  1  0
  6 35  1  0
  6 36  1  0
  7 37  1  6
  8 38  1  0
  9 39  1  0
 12 40  1  0
 14 41  1  0
 15 42  1  0
 15 43  1  0
 16 44  1  0
 16 45  1  0
 17 46  1  0
 17 47  1  0
 21 48  1  0
 24 49  1  0
 25 50  1  0
 26 51  1  0
 27 52  1  0
M  ISO  8  29  13  30  13  31  13  32  13  33  13  34  13  35  13  36  13
M  ISO  8  37  13  38  14  39  14  40  14  41   5  42  13  43  13  44  13
M  ISO  8  45  13  46  13  47  13  48  14  49  14  50  14  51  14  52  14
M  END
>  <minimizedAffinity>  (1) 
-5.27302122

>  <minimizedRMSD>  (1) 
1.20893323

$$$$
