
     RDKit          3D

 44 47  0  0  1  0  0  0  0  0999 V2000
   44.5740   33.5490   41.1650 N   0  0  0  0  0  0  0  0  0  0  0  0
   43.3750   32.8670   40.7850 C   0  0  0  0  0  0  0  0  0  0  0  0
   42.9370   33.1510   39.3860 C   0  0  0  0  0  0  0  0  0  0  0  0
   44.0480   33.3120   38.4110 C   0  0  0  0  0  0  0  0  0  0  0  0
   45.4140   33.0120   38.9450 C   0  0  0  0  0  0  0  0  0  0  0  0
   45.7230   33.6000   40.3000 C   0  0  2  0  0  0  0  0  0  0  0  0
   44.7620   36.0740   43.9260 C   0  0  0  0  0  0  0  0  0  0  0  0
   44.5700   35.5620   42.6440 C   0  0  0  0  0  0  0  0  0  0  0  0
   44.7270   34.2170   42.4060 C   0  0  0  0  0  0  0  0  0  0  0  0
   45.0710   33.4570   43.4920 N   0  0  0  0  0  0  0  0  0  0  0  0
   45.2510   33.9550   44.7170 C   0  0  0  0  0  0  0  0  0  0  0  0
   45.0970   35.2570   44.9310 N   0  0  0  0  0  0  0  0  0  0  0  0
   47.0090   32.4780   40.9750 S   0  0  0  0  0  0  0  0  0  0  0  0
   48.5650   34.4810   40.3430 N   0  0  0  0  0  0  0  0  0  0  0  0
   48.8060   35.5890   41.2260 C   0  0  0  0  0  0  0  0  0  0  0  0
   48.2490   35.1050   42.5420 C   0  0  0  0  0  0  0  0  0  0  0  0
   48.7430   33.6800   42.5920 C   0  0  0  0  0  0  0  0  0  0  0  0
   48.6030   33.2870   41.0890 C   0  0  1  0  0  0  0  0  0  0  0  0
   49.7810   32.5260   40.7660 N   0  0  0  0  0  0  0  0  0  0  0  0
   50.8960   32.3980   41.5560 C   0  0  0  0  0  0  0  0  0  0  0  0
   51.7960   31.6330   40.8750 N   0  0  0  0  0  0  0  0  0  0  0  0
   51.1780   31.3320   39.6970 C   0  0  0  0  0  0  0  0  0  0  0  0
   49.9260   31.8700   39.5940 N   0  0  0  0  0  0  0  0  0  0  0  0
   43.5462   31.7847   40.8817 H   0  0  0  0  0  0  0  0  0  0  0  0
   42.5767   33.2284   41.4500 H   0  0  0  0  0  0  0  0  0  0  0  0
   42.3027   32.3178   39.0491 H   0  0  0  0  0  0  0  0  0  0  0  0
   42.4051   34.1134   39.4148 H   0  0  0  0  0  0  0  0  0  0  0  0
   44.0421   34.3537   38.0575 H   0  0  0  0  0  0  0  0  0  0  0  0
   43.8636   32.5762   37.6143 H   0  0  0  0  0  0  0  0  0  0  0  0
   45.5175   31.9193   39.0177 H   0  0  0  0  0  0  0  0  0  0  0  0
   46.1224   33.4776   38.2440 H   0  0  0  0  0  0  0  0  0  0  0  0
   46.0305   34.6537   40.2279 H   0  0  0  0  0  0  0  0  0  0  0  0
   44.6379   37.1511   44.1117 H   0  0  0  0  0  0  0  0  0  0  0  0
   44.2921   36.2359   41.8202 H   0  0  0  0  0  0  0  0  0  0  0  0
   45.5263   33.2887   45.5478 H   0  0  0  0  0  0  0  0  0  0  0  0
   49.2914   34.4561   39.6132 H   0  0  0  0  0  0  0  0  0  0  0  0
   49.8820   35.8025   41.3072 H   0  0  0  0  0  0  0  0  0  0  0  0
   48.3453   36.5260   40.8798 H   0  0  0  0  0  0  0  0  0  0  0  0
   48.6439   35.6938   43.3830 H   0  0  0  0  0  0  0  0  0  0  0  0
   47.1555   35.1964   42.6192 H   0  0  0  0  0  0  0  0  0  0  0  0
   49.7873   33.6225   42.9327 H   0  0  0  0  0  0  0  0  0  0  0  0
   48.2005   33.0277   43.2922 H   0  0  0  0  0  0  0  0  0  0  0  0
   51.0377   32.8333   42.5562 H   0  0  0  0  0  0  0  0  0  0  0  0
   51.6404   30.7185   38.9097 H   0  0  0  0  0  0  0  0  0  0  0  0
  1  9  1  0
  2  1  1  0
  3  2  1  0
  4  5  1  0
  4  3  1  0
  5  6  1  0
  6 13  1  0
  6  1  1  0
  7 12  2  0
  8  7  1  0
  9  8  2  0
  9 10  1  0
 10 11  2  0
 11 12  1  0
 14 18  1  0
 14 15  1  0
 15 16  1  0
 16 17  1  0
 18 13  1  1
 18 17  1  0
 19 18  1  0
 19 20  1  0
 21 20  2  0
 22 21  1  0
 23 22  2  0
 23 19  1  0
  2 24  1  0
  2 25  1  0
  3 26  1  0
  3 27  1  0
  4 28  1  0
  4 29  1  0
  5 30  1  0
  5 31  1  0
  6 32  1  6
  7 33  1  0
  8 34  1  0
 11 35  1  0
 14 36  1  0
 15 37  1  0
 15 38  1  0
 16 39  1  0
 16 40  1  0
 17 41  1  0
 17 42  1  0
 20 43  1  0
 22 44  1  0
M  ISO  8  24  13  25  13  26  13  27  13  28  13  29  13  30  13  31  13
M  ISO  8  32  13  33  14  34  14  35  14  36   5  37  13  38  13  39  13
M  ISO  5  40  13  41  13  42  13  43  14  44  14
M  END
>  <minimizedAffinity>  (1) 
-5.15043831

>  <minimizedRMSD>  (1) 
4.89577532

$$$$
