
     RDKit          3D

 27 29  0  0  1  0  0  0  0  0999 V2000
   47.6540   35.3240   41.5440 C   0  0  1  0  0  0  0  0  0  0  0  0
   49.1080   35.7340   41.7920 C   0  0  0  0  0  0  0  0  0  0  0  0
   48.7750   34.6080   40.9120 C   0  0  1  0  0  0  0  0  0  0  0  0
   45.0460   34.6160   44.1380 C   0  0  0  0  0  0  0  0  0  0  0  0
   45.6670   35.1730   43.0070 C   0  0  0  0  0  0  0  0  0  0  0  0
   46.9610   34.7690   42.7380 C   0  0  0  0  0  0  0  0  0  0  0  0
   47.5410   33.8660   43.5780 N   0  0  0  0  0  0  0  0  0  0  0  0
   46.9280   33.3530   44.6480 C   0  0  0  0  0  0  0  0  0  0  0  0
   45.6830   33.7310   44.9210 N   0  0  0  0  0  0  0  0  0  0  0  0
   49.1580   33.2180   41.2530 C   0  0  0  0  0  0  0  0  0  0  0  0
   50.2910   32.9930   42.0150 C   0  0  0  0  0  0  0  0  0  0  0  0
   50.7420   31.7520   42.4120 C   0  0  0  0  0  0  0  0  0  0  0  0
   50.0280   30.6370   42.0330 C   0  0  0  0  0  0  0  0  0  0  0  0
   48.8910   30.8150   41.2730 C   0  0  0  0  0  0  0  0  0  0  0  0
   48.4740   32.0750   40.8980 C   0  0  0  0  0  0  0  0  0  0  0  0
   46.7278   35.7639   41.1458 H   0  0  0  0  0  0  0  0  0  0  0  0
   49.4987   36.6708   41.3681 H   0  0  0  0  0  0  0  0  0  0  0  0
   49.7431   35.8759   42.6788 H   0  0  0  0  0  0  0  0  0  0  0  0
   49.0036   34.3466   39.8683 H   0  0  0  0  0  0  0  0  0  0  0  0
   44.0161   34.9115   44.3869 H   0  0  0  0  0  0  0  0  0  0  0  0
   45.1463   35.8983   42.3644 H   0  0  0  0  0  0  0  0  0  0  0  0
   47.4456   32.6284   45.2938 H   0  0  0  0  0  0  0  0  0  0  0  0
   50.8760   33.8705   42.3276 H   0  0  0  0  0  0  0  0  0  0  0  0
   51.6539   31.6545   43.0193 H   0  0  0  0  0  0  0  0  0  0  0  0
   50.3563   29.6297   42.3290 H   0  0  0  0  0  0  0  0  0  0  0  0
   48.3067   29.9369   40.9606 H   0  0  0  0  0  0  0  0  0  0  0  0
   47.5607   32.1716   40.2925 H   0  0  0  0  0  0  0  0  0  0  0  0
  1  2  1  0
  1  6  1  0
  3 10  1  0
  3  1  1  0
  3  2  1  0
  4  9  2  0
  5  4  1  0
  6  5  2  0
  6  7  1  0
  7  8  2  0
  8  9  1  0
 10 11  2  0
 11 12  1  0
 13 12  2  0
 14 13  1  0
 15 10  1  0
 15 14  2  0
  1 16  1  6
  2 17  1  0
  2 18  1  0
  3 19  1  6
  4 20  1  0
  5 21  1  0
  8 22  1  0
 11 23  1  0
 12 24  1  0
 13 25  1  0
 14 26  1  0
 15 27  1  0
M  ISO  8  16  13  17  13  18  13  19  13  20  14  21  14  22  14  23  14
M  ISO  4  24  14  25  14  26  14  27  14
M  END
>  <minimizedAffinity>  (1) 
-4.32363653

>  <minimizedRMSD>  (1) 
1.75785446

$$$$
