
     RDKit          3D

 48 51  0  0  1  0  0  0  0  0999 V2000
   46.0340   33.5600   40.3650 N   0  0  0  0  0  0  0  0  0  0  0  0
   44.7150   33.4950   40.9010 C   0  0  0  0  0  0  0  0  0  0  0  0
   43.6380   33.9220   39.9770 C   0  0  0  0  0  0  0  0  0  0  0  0
   43.8780   33.5880   38.5480 C   0  0  0  0  0  0  0  0  0  0  0  0
   45.0870   32.7620   38.2500 C   0  0  0  0  0  0  0  0  0  0  0  0
   46.3260   33.0840   39.0340 C   0  0  2  0  0  0  0  0  0  0  0  0
   49.0960   35.4280   41.4370 C   0  0  0  0  0  0  0  0  0  0  0  0
   48.0480   35.0160   40.6260 C   0  0  0  0  0  0  0  0  0  0  0  0
   47.1450   34.0780   41.0680 C   0  0  0  0  0  0  0  0  0  0  0  0
   47.3580   33.6000   42.3340 N   0  0  0  0  0  0  0  0  0  0  0  0
   48.3690   34.0010   43.1090 C   0  0  0  0  0  0  0  0  0  0  0  0
   49.2350   34.9130   42.6610 N   0  0  0  0  0  0  0  0  0  0  0  0
   47.2330   31.4950   39.1680 S   0  0  0  0  0  0  0  0  0  0  0  0
   49.6980   32.3220   38.8620 N   0  0  0  0  0  0  0  0  0  0  0  0
   50.8350   31.4990   39.2180 C   0  0  0  0  0  0  0  0  0  0  0  0
   50.2200   30.1340   39.4380 C   0  0  0  0  0  0  0  0  0  0  0  0
   49.2760   30.0470   38.2610 C   0  0  0  0  0  0  0  0  0  0  0  0
   48.7500   31.5100   38.2110 C   0  0  1  0  0  0  0  0  0  0  0  0
   48.6470   31.8450   36.8090 N   0  0  0  0  0  0  0  0  0  0  0  0
   48.4280   30.7820   35.9710 C   0  0  0  0  0  0  0  0  0  0  0  0
   48.2830   31.0280   34.6210 C   0  0  0  0  0  0  0  0  0  0  0  0
   48.3640   32.3380   34.1720 C   0  0  0  0  0  0  0  0  0  0  0  0
   48.2290   32.5500   32.9400 O   0  0  0  0  0  0  0  0  0  0  0  0
   48.5790   33.3470   35.0350 N   0  0  0  0  0  0  0  0  0  0  0  0
   48.7260   33.1410   36.3690 C   0  0  0  0  0  0  0  0  0  0  0  0
   48.9290   34.0880   37.1730 O   0  0  0  0  0  0  0  0  0  0  0  0
   44.5180   32.4536   41.1955 H   0  0  0  0  0  0  0  0  0  0  0  0
   44.6924   34.2011   41.7441 H   0  0  0  0  0  0  0  0  0  0  0  0
   42.7035   33.4340   40.2909 H   0  0  0  0  0  0  0  0  0  0  0  0
   43.5937   35.0195   40.0368 H   0  0  0  0  0  0  0  0  0  0  0  0
   42.9988   33.0380   38.1812 H   0  0  0  0  0  0  0  0  0  0  0  0
   44.0545   34.5525   38.0494 H   0  0  0  0  0  0  0  0  0  0  0  0
   44.8305   31.7105   38.4466 H   0  0  0  0  0  0  0  0  0  0  0  0
   45.3394   32.9815   37.2021 H   0  0  0  0  0  0  0  0  0  0  0  0
   46.8926   33.8818   38.5315 H   0  0  0  0  0  0  0  0  0  0  0  0
   49.8121   36.1788   41.0715 H   0  0  0  0  0  0  0  0  0  0  0  0
   47.9385   35.4444   39.6188 H   0  0  0  0  0  0  0  0  0  0  0  0
   48.4884   33.5793   44.1179 H   0  0  0  0  0  0  0  0  0  0  0  0
   49.2827   32.7286   39.7124 H   0  0  0  0  0  0  0  0  0  0  0  0
   51.5729   31.4722   38.4027 H   0  0  0  0  0  0  0  0  0  0  0  0
   51.3793   31.8732   40.0976 H   0  0  0  0  0  0  0  0  0  0  0  0
   50.9797   29.3391   39.4056 H   0  0  0  0  0  0  0  0  0  0  0  0
   49.7349   30.0088   40.4173 H   0  0  0  0  0  0  0  0  0  0  0  0
   49.8045   29.7736   37.3358 H   0  0  0  0  0  0  0  0  0  0  0  0
   48.4924   29.2811   38.3575 H   0  0  0  0  0  0  0  0  0  0  0  0
   48.3693   29.7570   36.3658 H   0  0  0  0  0  0  0  0  0  0  0  0
   48.1069   30.2025   33.9156 H   0  0  0  0  0  0  0  0  0  0  0  0
   48.6340   34.3091   34.6714 H   0  0  0  0  0  0  0  0  0  0  0  0
  1  2  1  0
  1  9  1  0
  3  2  1  0
  4  3  1  0
  5  4  1  0
  5  6  1  0
  6 13  1  0
  6  1  1  0
  7 12  2  0
  8  9  2  0
  8  7  1  0
  9 10  1  0
 10 11  2  0
 12 11  1  0
 14 15  1  0
 15 16  1  0
 17 16  1  0
 18 17  1  0
 18 14  1  0
 18 13  1  1
 19 18  1  0
 20 19  1  0
 21 20  2  0
 22 21  1  0
 22 24  1  0
 23 22  2  0
 24 25  1  0
 25 19  1  0
 25 26  2  0
  2 27  1  0
  2 28  1  0
  3 29  1  0
  3 30  1  0
  4 31  1  0
  4 32  1  0
  5 33  1  0
  5 34  1  0
  6 35  1  6
  7 36  1  0
  8 37  1  0
 11 38  1  0
 14 39  1  0
 15 40  1  0
 15 41  1  0
 16 42  1  0
 16 43  1  0
 17 44  1  0
 17 45  1  0
 20 46  1  0
 21 47  1  0
 24 48  1  0
M  ISO  8  27  13  28  13  29  13  30  13  31  13  32  13  33  13  34  13
M  ISO  8  35  13  36  14  37  14  38  14  39   5  40  13  41  13  42  13
M  ISO  6  43  13  44  13  45  13  46  14  47  14  48   9
M  END
>  <minimizedAffinity>  (1) 
-5.05302525

>  <minimizedRMSD>  (1) 
2.01368284

$$$$
