
     RDKit          3D

 41 43  0  0  1  0  0  0  0  0999 V2000
   44.3810   33.3860   42.2250 N   0  0  0  0  0  0  0  0  0  0  0  0
   43.1080   32.8480   41.8660 C   0  0  0  0  0  0  0  0  0  0  0  0
   42.1920   33.8270   41.2170 C   0  0  0  0  0  0  0  0  0  0  0  0
   42.8620   34.7580   40.2820 C   0  0  0  0  0  0  0  0  0  0  0  0
   44.3290   34.5830   40.0970 C   0  0  0  0  0  0  0  0  0  0  0  0
   45.1300   34.2010   41.3100 C   0  0  2  0  0  0  0  0  0  0  0  0
   45.8830   33.7390   45.6300 C   0  0  0  0  0  0  0  0  0  0  0  0
   45.2590   34.1030   44.4460 C   0  0  0  0  0  0  0  0  0  0  0  0
   45.0050   33.1670   43.4770 C   0  0  0  0  0  0  0  0  0  0  0  0
   45.3980   31.8840   43.7520 N   0  0  0  0  0  0  0  0  0  0  0  0
   46.0000   31.5470   44.8990 C   0  0  0  0  0  0  0  0  0  0  0  0
   46.2430   32.4710   45.8390 N   0  0  0  0  0  0  0  0  0  0  0  0
   46.5250   33.2380   40.6540 S   0  0  0  0  0  0  0  0  0  0  0  0
   48.2010   33.1630   42.6210 N   0  0  0  0  0  0  0  0  0  0  0  0
   49.3160   32.2440   42.6730 C   0  0  0  0  0  0  0  0  0  0  0  0
   49.3700   31.6750   41.2780 C   0  0  0  0  0  0  0  0  0  0  0  0
   49.1330   32.8980   40.4290 C   0  0  0  0  0  0  0  0  0  0  0  0
   48.1000   33.6580   41.3140 C   0  0  1  0  0  0  0  0  0  0  0  0
   48.6630   35.0260   41.2540 C   0  0  0  0  0  0  0  0  0  0  0  0
   49.7780   35.2770   41.9820 F   0  0  0  0  0  0  0  0  0  0  0  0
   47.6980   35.7900   41.9690 F   0  0  0  0  0  0  0  0  0  0  0  0
   48.5860   35.6490   40.0240 F   0  0  0  0  0  0  0  0  0  0  0  0
   43.2707   32.0131   41.1685 H   0  0  0  0  0  0  0  0  0  0  0  0
   42.6227   32.5335   42.8017 H   0  0  0  0  0  0  0  0  0  0  0  0
   41.4285   33.2665   40.6576 H   0  0  0  0  0  0  0  0  0  0  0  0
   41.7647   34.4419   42.0228 H   0  0  0  0  0  0  0  0  0  0  0  0
   42.3860   34.6407   39.2973 H   0  0  0  0  0  0  0  0  0  0  0  0
   42.7455   35.7539   40.7344 H   0  0  0  0  0  0  0  0  0  0  0  0
   44.4766   33.7974   39.3413 H   0  0  0  0  0  0  0  0  0  0  0  0
   44.7011   35.5780   39.8113 H   0  0  0  0  0  0  0  0  0  0  0  0
   45.4345   35.0955   41.8732 H   0  0  0  0  0  0  0  0  0  0  0  0
   46.0820   34.4988   46.4001 H   0  0  0  0  0  0  0  0  0  0  0  0
   44.9657   35.1506   44.2832 H   0  0  0  0  0  0  0  0  0  0  0  0
   46.2980   30.5023   45.0717 H   0  0  0  0  0  0  0  0  0  0  0  0
   47.3323   32.6715   42.8755 H   0  0  0  0  0  0  0  0  0  0  0  0
   50.2493   32.7720   42.9185 H   0  0  0  0  0  0  0  0  0  0  0  0
   49.1975   31.4707   43.4463 H   0  0  0  0  0  0  0  0  0  0  0  0
   50.3522   31.2268   41.0673 H   0  0  0  0  0  0  0  0  0  0  0  0
   48.6455   30.8663   41.1014 H   0  0  0  0  0  0  0  0  0  0  0  0
   50.0553   33.4809   40.2891 H   0  0  0  0  0  0  0  0  0  0  0  0
   48.7933   32.6873   39.4042 H   0  0  0  0  0  0  0  0  0  0  0  0
  1  9  1  0
  2  1  1  0
  3  2  1  0
  4  3  1  0
  5  4  1  0
  5  6  1  0
  6  1  1  0
  7 12  2  0
  8  7  1  0
  9 10  1  0
  9  8  2  0
 10 11  2  0
 11 12  1  0
 13  6  1  0
 14 15  1  0
 16 15  1  0
 17 16  1  0
 17 18  1  0
 18 13  1  6
 18 14  1  0
 19 18  1  0
 19 21  1  0
 19 20  1  0
 22 19  1  0
  2 23  1  0
  2 24  1  0
  3 25  1  0
  3 26  1  0
  4 27  1  0
  4 28  1  0
  5 29  1  0
  5 30  1  0
  6 31  1  1
  7 32  1  0
  8 33  1  0
 11 34  1  0
 14 35  1  0
 15 36  1  0
 15 37  1  0
 16 38  1  0
 16 39  1  0
 17 40  1  0
 17 41  1  0
M  ISO  8  23  13  24  13  25  13  26  13  27  13  28  13  29  13  30  13
M  ISO  8  31  13  32  14  33  14  34  14  35   5  36  13  37  13  38  13
M  ISO  3  39  13  40  13  41  13
M  END
>  <minimizedAffinity>  (1) 
-4.88364267

>  <minimizedRMSD>  (1) 
5.31343174

$$$$
