
     RDKit          3D

 46 49  0  0  1  0  0  0  0  0999 V2000
   47.4720   34.1740   41.4120 N   0  0  0  0  0  0  0  0  0  0  0  0
   48.2260   35.1220   40.6440 C   0  0  0  0  0  0  0  0  0  0  0  0
   49.1900   35.9340   41.4310 C   0  0  0  0  0  0  0  0  0  0  0  0
   49.8320   35.2160   42.5590 C   0  0  0  0  0  0  0  0  0  0  0  0
   49.5320   33.7570   42.6520 C   0  0  0  0  0  0  0  0  0  0  0  0
   48.1080   33.3500   42.4080 C   0  0  2  0  0  0  0  0  0  0  0  0
   43.7920   33.8170   41.9260 C   0  0  0  0  0  0  0  0  0  0  0  0
   45.1250   34.0440   42.2360 C   0  0  0  0  0  0  0  0  0  0  0  0
   46.0830   33.9750   41.2530 C   0  0  0  0  0  0  0  0  0  0  0  0
   45.6320   33.6750   39.9950 N   0  0  0  0  0  0  0  0  0  0  0  0
   44.3470   33.4590   39.7060 C   0  0  0  0  0  0  0  0  0  0  0  0
   43.4290   33.5300   40.6720 N   0  0  0  0  0  0  0  0  0  0  0  0
   48.2230   31.6370   41.7420 S   0  0  0  0  0  0  0  0  0  0  0  0
   50.3640   32.3750   40.4000 N   0  0  0  0  0  0  0  0  0  0  0  0
   51.5320   31.5210   40.3150 C   0  0  0  0  0  0  0  0  0  0  0  0
   51.0290   30.1810   40.7890 C   0  0  0  0  0  0  0  0  0  0  0  0
   49.6720   30.0950   40.1290 C   0  0  0  0  0  0  0  0  0  0  0  0
   49.2200   31.5840   40.2420 C   0  0  1  0  0  0  0  0  0  0  0  0
   48.5330   31.8200   38.9740 C   0  0  0  0  0  0  0  0  0  0  0  0
   47.4620   31.1180   38.4020 C   0  0  0  0  0  0  0  0  0  0  0  0
   47.0070   31.4890   37.1470 C   0  0  0  0  0  0  0  0  0  0  0  0
   47.5920   32.5100   36.4970 N   0  0  0  0  0  0  0  0  0  0  0  0
   48.6180   33.1720   37.0630 C   0  0  0  0  0  0  0  0  0  0  0  0
   49.1040   32.8570   38.2800 N   0  0  0  0  0  0  0  0  0  0  0  0
   48.7891   34.5705   39.8767 H   0  0  0  0  0  0  0  0  0  0  0  0
   47.4968   35.8292   40.2219 H   0  0  0  0  0  0  0  0  0  0  0  0
   49.9819   36.2799   40.7504 H   0  0  0  0  0  0  0  0  0  0  0  0
   48.6111   36.7565   41.8765 H   0  0  0  0  0  0  0  0  0  0  0  0
   50.9212   35.3312   42.4569 H   0  0  0  0  0  0  0  0  0  0  0  0
   49.4197   35.6658   43.4743 H   0  0  0  0  0  0  0  0  0  0  0  0
   50.1594   33.2388   41.9118 H   0  0  0  0  0  0  0  0  0  0  0  0
   49.7385   33.4830   43.6971 H   0  0  0  0  0  0  0  0  0  0  0  0
   47.5172   33.4403   43.3315 H   0  0  0  0  0  0  0  0  0  0  0  0
   43.0294   33.8735   42.7167 H   0  0  0  0  0  0  0  0  0  0  0  0
   45.4157   34.2796   43.2704 H   0  0  0  0  0  0  0  0  0  0  0  0
   44.0456   33.2232   38.6747 H   0  0  0  0  0  0  0  0  0  0  0  0
   50.3402   32.8399   41.3188 H   0  0  0  0  0  0  0  0  0  0  0  0
   51.8982   31.4588   39.2796 H   0  0  0  0  0  0  0  0  0  0  0  0
   52.3779   31.8944   40.9109 H   0  0  0  0  0  0  0  0  0  0  0  0
   51.6877   29.3666   40.4531 H   0  0  0  0  0  0  0  0  0  0  0  0
   50.9931   30.0861   41.8843 H   0  0  0  0  0  0  0  0  0  0  0  0
   48.9951   29.4206   40.6740 H   0  0  0  0  0  0  0  0  0  0  0  0
   49.6793   29.6897   39.1064 H   0  0  0  0  0  0  0  0  0  0  0  0
   46.9897   30.2843   38.9423 H   0  0  0  0  0  0  0  0  0  0  0  0
   46.1684   30.9489   36.6832 H   0  0  0  0  0  0  0  0  0  0  0  0
   49.0786   34.0039   36.5099 H   0  0  0  0  0  0  0  0  0  0  0  0
  1  6  1  0
  2  1  1  0
  2  3  1  0
  3  4  1  0
  4  5  1  0
  6  5  1  0
  7  8  2  0
  9  1  1  0
  9  8  1  0
 10  9  2  0
 11 10  1  0
 11 12  2  0
 12  7  1  0
 13  6  1  0
 15 14  1  0
 15 16  1  0
 17 18  1  0
 17 16  1  0
 18 14  1  0
 18 13  1  1
 19 18  1  0
 20 19  2  0
 21 20  1  0
 22 23  1  0
 22 21  2  0
 23 24  2  0
 24 19  1  0
  2 25  1  0
  2 26  1  0
  3 27  1  0
  3 28  1  0
  4 29  1  0
  4 30  1  0
  5 31  1  0
  5 32  1  0
  6 33  1  1
  7 34  1  0
  8 35  1  0
 11 36  1  0
 14 37  1  0
 15 38  1  0
 15 39  1  0
 16 40  1  0
 16 41  1  0
 17 42  1  0
 17 43  1  0
 20 44  1  0
 21 45  1  0
 23 46  1  0
M  ISO  8  25  13  26  13  27  13  28  13  29  13  30  13  31  13  32  13
M  ISO  8  33  13  34  14  35  14  36  14  37   5  38  13  39  13  40  13
M  ISO  6  41  13  42  13  43  13  44  14  45  14  46  14
M  END
>  <minimizedAffinity>  (1) 
-4.82112741

>  <minimizedRMSD>  (1) 
4.22976208

$$$$
