
     RDKit          3D

 20 21  0  0  1  0  0  0  0  0999 V2000
   47.0270   35.0360   41.6550 C   0  0  1  0  0  0  0  0  0  0  0  0
   48.4650   35.5450   41.7970 C   0  0  0  0  0  0  0  0  0  0  0  0
   48.1600   34.1330   41.4070 C   0  0  2  0  0  0  0  0  0  0  0  0
   44.6040   35.8450   44.4000 C   0  0  0  0  0  0  0  0  0  0  0  0
   45.3160   35.9350   43.1750 C   0  0  0  0  0  0  0  0  0  0  0  0
   46.2810   34.9740   42.9440 C   0  0  0  0  0  0  0  0  0  0  0  0
   46.5060   33.9960   43.8820 N   0  0  0  0  0  0  0  0  0  0  0  0
   45.8000   33.9470   45.0400 C   0  0  0  0  0  0  0  0  0  0  0  0
   44.8600   34.8640   45.2920 N   0  0  0  0  0  0  0  0  0  0  0  0
   48.3550   33.6800   40.0040 C   0  0  0  0  0  0  0  0  0  0  0  0
   48.3560   32.4430   39.7620 O   0  0  0  0  0  0  0  0  0  0  0  0
   48.5280   34.6230   38.9980 O   0  0  0  0  0  0  0  0  0  0  0  0
   46.1280   35.2767   41.0685 H   0  0  0  0  0  0  0  0  0  0  0  0
   48.8808   36.2473   41.0595 H   0  0  0  0  0  0  0  0  0  0  0  0
   49.0539   36.0361   42.5857 H   0  0  0  0  0  0  0  0  0  0  0  0
   48.4969   33.1642   41.8043 H   0  0  0  0  0  0  0  0  0  0  0  0
   43.8274   36.5901   44.6273 H   0  0  0  0  0  0  0  0  0  0  0  0
   45.1092   36.7315   42.4451 H   0  0  0  0  0  0  0  0  0  0  0  0
   46.0014   33.1515   45.7726 H   0  0  0  0  0  0  0  0  0  0  0  0
   48.6584   34.3295   38.0615 H   0  0  0  0  0  0  0  0  0  0  0  0
  1  2  1  0
  1  6  1  0
  3  1  1  0
  3  2  1  0
  4  9  2  0
  5  4  1  0
  6  5  2  0
  6  7  1  0
  7  8  2  0
  8  9  1  0
 10  3  1  0
 11 10  2  0
 12 10  1  0
  1 13  1  6
  2 14  1  0
  2 15  1  0
  3 16  1  1
  4 17  1  0
  5 18  1  0
  8 19  1  0
 12 20  1  0
M  ISO  8  13  13  14  13  15  13  16  13  17  14  18  14  19  14  20   3
M  END
>  <minimizedAffinity>  (1) 
-4.31432152

>  <minimizedRMSD>  (1) 
0.757045031

$$$$
