
     RDKit          3D

 48 51  0  0  1  0  0  0  0  0999 V2000
   46.9520   34.5190   41.6570 N   0  0  0  0  0  0  0  0  0  0  0  0
   47.8390   34.8710   40.5790 C   0  0  0  0  0  0  0  0  0  0  0  0
   49.0340   35.6480   40.9970 C   0  0  0  0  0  0  0  0  0  0  0  0
   49.5730   35.2950   42.3360 C   0  0  0  0  0  0  0  0  0  0  0  0
   48.9660   34.0780   42.9520 C   0  0  0  0  0  0  0  0  0  0  0  0
   47.4630   34.0110   42.9080 C   0  0  2  0  0  0  0  0  0  0  0  0
   43.3520   35.3320   42.2000 C   0  0  0  0  0  0  0  0  0  0  0  0
   44.7270   35.3210   42.4320 C   0  0  0  0  0  0  0  0  0  0  0  0
   45.5470   34.6330   41.5680 C   0  0  0  0  0  0  0  0  0  0  0  0
   44.9340   33.9940   40.5170 N   0  0  0  0  0  0  0  0  0  0  0  0
   43.6150   34.0160   40.3130 C   0  0  0  0  0  0  0  0  0  0  0  0
   42.8280   34.6870   41.1560 N   0  0  0  0  0  0  0  0  0  0  0  0
   47.0980   32.2120   42.9820 S   0  0  0  0  0  0  0  0  0  0  0  0
   49.5830   31.4290   42.7950 N   0  0  0  0  0  0  0  0  0  0  0  0
   50.0160   30.1320   43.2740 C   0  0  0  0  0  0  0  0  0  0  0  0
   48.7280   29.4080   43.5600 C   0  0  0  0  0  0  0  0  0  0  0  0
   47.9200   29.7680   42.3310 C   0  0  0  0  0  0  0  0  0  0  0  0
   48.3540   31.2470   42.1250 C   0  0  1  0  0  0  0  0  0  0  0  0
   48.5160   31.4660   40.6880 C   0  0  0  0  0  0  0  0  0  0  0  0
   49.6230   31.8370   39.9520 C   0  0  0  0  0  0  0  0  0  0  0  0
   49.5980   32.0690   38.5950 C   0  0  0  0  0  0  0  0  0  0  0  0
   48.3980   31.9220   37.9320 C   0  0  0  0  0  0  0  0  0  0  0  0
   47.2600   31.5490   38.6270 C   0  0  0  0  0  0  0  0  0  0  0  0
   47.2910   31.3150   40.0080 C   0  0  0  0  0  0  0  0  0  0  0  0
   47.2745   35.4727   39.8514 H   0  0  0  0  0  0  0  0  0  0  0  0
   48.2108   33.9258   40.1568 H   0  0  0  0  0  0  0  0  0  0  0  0
   49.8277   35.4802   40.2541 H   0  0  0  0  0  0  0  0  0  0  0  0
   48.7123   36.6980   41.0610 H   0  0  0  0  0  0  0  0  0  0  0  0
   50.6551   35.1248   42.2357 H   0  0  0  0  0  0  0  0  0  0  0  0
   49.3268   36.1356   43.0014 H   0  0  0  0  0  0  0  0  0  0  0  0
   49.3602   33.1978   42.4230 H   0  0  0  0  0  0  0  0  0  0  0  0
   49.2359   34.1121   44.0178 H   0  0  0  0  0  0  0  0  0  0  0  0
   47.0102   34.6028   43.7172 H   0  0  0  0  0  0  0  0  0  0  0  0
   42.6903   35.8799   42.8870 H   0  0  0  0  0  0  0  0  0  0  0  0
   45.1505   35.8557   43.2950 H   0  0  0  0  0  0  0  0  0  0  0  0
   43.1793   33.4838   39.4546 H   0  0  0  0  0  0  0  0  0  0  0  0
   49.4583   32.0731   43.5890 H   0  0  0  0  0  0  0  0  0  0  0  0
   50.5997   29.6049   42.5049 H   0  0  0  0  0  0  0  0  0  0  0  0
   50.6709   30.2003   44.1552 H   0  0  0  0  0  0  0  0  0  0  0  0
   48.8831   28.3218   43.6384 H   0  0  0  0  0  0  0  0  0  0  0  0
   48.2533   29.6832   44.5134 H   0  0  0  0  0  0  0  0  0  0  0  0
   48.1925   29.1416   41.4688 H   0  0  0  0  0  0  0  0  0  0  0  0
   46.8352   29.6208   42.4381 H   0  0  0  0  0  0  0  0  0  0  0  0
   50.5808   31.9541   40.4801 H   0  0  0  0  0  0  0  0  0  0  0  0
   50.5099   32.3634   38.0549 H   0  0  0  0  0  0  0  0  0  0  0  0
   48.3446   32.1015   36.8481 H   0  0  0  0  0  0  0  0  0  0  0  0
   46.3109   31.4339   38.0830 H   0  0  0  0  0  0  0  0  0  0  0  0
   46.3799   31.0201   40.5492 H   0  0  0  0  0  0  0  0  0  0  0  0
  1  6  1  0
  2  3  1  0
  2  1  1  0
  3  4  1  0
  4  5  1  0
  6  5  1  0
  6 13  1  0
  7  8  2  0
  9  1  1  0
  9  8  1  0
 10  9  2  0
 11 10  1  0
 11 12  2  0
 12  7  1  0
 14 15  1  0
 15 16  1  0
 17 16  1  0
 18 17  1  0
 18 14  1  0
 18 13  1  1
 19 18  1  0
 20 19  2  0
 21 20  1  0
 22 21  2  0
 22 23  1  0
 23 24  2  0
 24 19  1  0
  2 25  1  0
  2 26  1  0
  3 27  1  0
  3 28  1  0
  4 29  1  0
  4 30  1  0
  5 31  1  0
  5 32  1  0
  6 33  1  1
  7 34  1  0
  8 35  1  0
 11 36  1  0
 14 37  1  0
 15 38  1  0
 15 39  1  0
 16 40  1  0
 16 41  1  0
 17 42  1  0
 17 43  1  0
 20 44  1  0
 21 45  1  0
 22 46  1  0
 23 47  1  0
 24 48  1  0
M  ISO  8  25  13  26  13  27  13  28  13  29  13  30  13  31  13  32  13
M  ISO  8  33  13  34  14  35  14  36  14  37   5  38  13  39  13  40  13
M  ISO  8  41  13  42  13  43  13  44  14  45  14  46  14  47  14  48  14
M  END
>  <minimizedAffinity>  (1) 
-4.66653919

>  <minimizedRMSD>  (1) 
5.19755888

$$$$
