
     RDKit          3D

 40 42  0  0  1  0  0  0  0  0999 V2000
   47.5330   33.2200   39.6390 N   0  0  0  0  0  0  0  0  0  0  0  0
   46.1860   32.7940   39.8430 C   0  0  0  0  0  0  0  0  0  0  0  0
   45.2770   33.0180   38.6860 C   0  0  0  0  0  0  0  0  0  0  0  0
   45.9330   32.9280   37.3460 C   0  0  0  0  0  0  0  0  0  0  0  0
   47.3120   32.3650   37.3700 C   0  0  0  0  0  0  0  0  0  0  0  0
   48.2270   32.9490   38.4180 C   0  0  2  0  0  0  0  0  0  0  0  0
   49.2610   35.8490   41.6730 C   0  0  0  0  0  0  0  0  0  0  0  0
   48.5020   35.2840   40.6610 C   0  0  0  0  0  0  0  0  0  0  0  0
   48.2800   33.9290   40.6140 C   0  0  0  0  0  0  0  0  0  0  0  0
   48.8540   33.2020   41.6230 N   0  0  0  0  0  0  0  0  0  0  0  0
   49.5840   33.7510   42.5950 C   0  0  0  0  0  0  0  0  0  0  0  0
   49.7890   35.0680   42.6240 N   0  0  0  0  0  0  0  0  0  0  0  0
   49.4670   31.6210   38.7350 S   0  0  0  0  0  0  0  0  0  0  0  0
   51.8060   32.4290   37.8170 N   0  0  0  0  0  0  0  0  0  0  0  0
   52.9880   31.5990   37.9490 C   0  0  0  0  0  0  0  0  0  0  0  0
   52.4380   30.2420   38.3120 C   0  0  0  0  0  0  0  0  0  0  0  0
   51.2400   30.1450   37.3950 C   0  0  0  0  0  0  0  0  0  0  0  0
   50.7330   31.6070   37.4430 C   0  0  1  0  0  0  0  0  0  0  0  0
   50.2420   31.9440   36.1330 N   0  0  0  0  0  0  0  0  0  0  0  0
   46.1980   31.7167   40.0648 H   0  0  0  0  0  0  0  0  0  0  0  0
   45.7909   33.4036   40.6689 H   0  0  0  0  0  0  0  0  0  0  0  0
   44.4783   32.2628   38.7273 H   0  0  0  0  0  0  0  0  0  0  0  0
   44.9052   34.0490   38.7798 H   0  0  0  0  0  0  0  0  0  0  0  0
   45.9826   33.9405   36.9190 H   0  0  0  0  0  0  0  0  0  0  0  0
   45.3234   32.2372   36.7450 H   0  0  0  0  0  0  0  0  0  0  0  0
   47.2345   31.2828   37.5510 H   0  0  0  0  0  0  0  0  0  0  0  0
   47.7613   32.6173   36.3982 H   0  0  0  0  0  0  0  0  0  0  0  0
   48.6614   33.8997   38.0752 H   0  0  0  0  0  0  0  0  0  0  0  0
   49.4294   36.9358   41.6952 H   0  0  0  0  0  0  0  0  0  0  0  0
   48.0703   35.9305   39.8828 H   0  0  0  0  0  0  0  0  0  0  0  0
   50.0198   33.1129   43.3779 H   0  0  0  0  0  0  0  0  0  0  0  0
   51.5984   32.8857   38.7166 H   0  0  0  0  0  0  0  0  0  0  0  0
   53.5438   31.5554   37.0007 H   0  0  0  0  0  0  0  0  0  0  0  0
   53.6962   31.9843   38.6973 H   0  0  0  0  0  0  0  0  0  0  0  0
   53.1673   29.4448   38.1055 H   0  0  0  0  0  0  0  0  0  0  0  0
   52.1956   30.1279   39.3789 H   0  0  0  0  0  0  0  0  0  0  0  0
   50.4882   29.4410   37.7813 H   0  0  0  0  0  0  0  0  0  0  0  0
   51.4631   29.7688   36.3857 H   0  0  0  0  0  0  0  0  0  0  0  0
   49.3960   32.5247   36.2223 H   0  0  0  0  0  0  0  0  0  0  0  0
   50.9652   32.4677   35.6195 H   0  0  0  0  0  0  0  0  0  0  0  0
  1  2  1  0
  1  9  1  0
  3  2  1  0
  4  5  1  0
  4  3  1  0
  5  6  1  0
  6 13  1  0
  6  1  1  0
  7 12  2  0
  8  7  1  0
  9  8  2  0
  9 10  1  0
 10 11  2  0
 11 12  1  0
 14 15  1  0
 15 16  1  0
 17 18  1  0
 17 16  1  0
 18 14  1  0
 18 13  1  1
 19 18  1  0
  2 20  1  0
  2 21  1  0
  3 22  1  0
  3 23  1  0
  4 24  1  0
  4 25  1  0
  5 26  1  0
  5 27  1  0
  6 28  1  6
  7 29  1  0
  8 30  1  0
 11 31  1  0
 14 32  1  0
 15 33  1  0
 15 34  1  0
 16 35  1  0
 16 36  1  0
 17 37  1  0
 17 38  1  0
 19 39  1  0
 19 40  1  0
M  ISO  8  20  13  21  13  22  13  23  13  24  13  25  13  26  13  27  13
M  ISO  8  28  13  29  14  30  14  31  14  32   5  33  13  34  13  35  13
M  ISO  5  36  13  37  13  38  13  39   5  40   5
M  END
>  <minimizedAffinity>  (1) 
-4.64211988

>  <minimizedRMSD>  (1) 
0.362101316

$$$$
