
     RDKit          3D

 45 48  0  0  1  0  0  0  0  0999 V2000
   46.7980   33.3360   39.9860 N   0  0  0  0  0  0  0  0  0  0  0  0
   45.4630   33.0170   40.4060 C   0  0  0  0  0  0  0  0  0  0  0  0
   44.4080   33.3310   39.4040 C   0  0  0  0  0  0  0  0  0  0  0  0
   44.8160   33.1350   37.9870 C   0  0  0  0  0  0  0  0  0  0  0  0
   46.1610   32.5270   37.7650 C   0  0  0  0  0  0  0  0  0  0  0  0
   47.2660   33.0100   38.6670 C   0  0  2  0  0  0  0  0  0  0  0  0
   49.2280   35.7160   41.5380 C   0  0  0  0  0  0  0  0  0  0  0  0
   48.3070   35.2130   40.6260 C   0  0  0  0  0  0  0  0  0  0  0  0
   47.7380   33.9770   40.8180 C   0  0  0  0  0  0  0  0  0  0  0  0
   48.1420   33.3090   41.9450 N   0  0  0  0  0  0  0  0  0  0  0  0
   49.0260   33.7960   42.8170 C   0  0  0  0  0  0  0  0  0  0  0  0
   49.5660   34.9970   42.6110 N   0  0  0  0  0  0  0  0  0  0  0  0
   48.4200   31.5800   38.8040 S   0  0  0  0  0  0  0  0  0  0  0  0
   50.5900   32.4990   37.6190 N   0  0  0  0  0  0  0  0  0  0  0  0
   51.8590   31.8080   37.7310 C   0  0  0  0  0  0  0  0  0  0  0  0
   51.4810   30.4530   38.2760 C   0  0  0  0  0  0  0  0  0  0  0  0
   50.2300   30.1350   37.4990 C   0  0  0  0  0  0  0  0  0  0  0  0
   49.5790   31.5480   37.4190 C   0  0  1  0  0  0  0  0  0  0  0  0
   49.0450   31.5770   36.0900 C   0  0  0  0  0  0  0  0  0  0  0  0
   48.8580   32.7210   35.2790 C   0  0  0  0  0  0  0  0  0  0  0  0
   48.3480   32.5640   34.0190 C   0  0  0  0  0  0  0  0  0  0  0  0
   48.0270   31.2120   33.5930 C   0  0  0  0  0  0  0  0  0  0  0  0
   48.4650   30.1470   35.0190 S   0  0  0  0  0  0  0  0  0  0  0  0
   45.4198   31.9397   40.6240 H   0  0  0  0  0  0  0  0  0  0  0  0
   45.2543   33.6432   41.2860 H   0  0  0  0  0  0  0  0  0  0  0  0
   43.5423   32.6824   39.6038 H   0  0  0  0  0  0  0  0  0  0  0  0
   44.1828   34.4018   39.5163 H   0  0  0  0  0  0  0  0  0  0  0  0
   44.0700   32.4819   37.5105 H   0  0  0  0  0  0  0  0  0  0  0  0
   44.8757   34.1453   37.5561 H   0  0  0  0  0  0  0  0  0  0  0  0
   46.0651   31.4401   37.9042 H   0  0  0  0  0  0  0  0  0  0  0  0
   46.4567   32.8291   36.7495 H   0  0  0  0  0  0  0  0  0  0  0  0
   47.7205   33.9228   38.2544 H   0  0  0  0  0  0  0  0  0  0  0  0
   49.6782   36.7064   41.3755 H   0  0  0  0  0  0  0  0  0  0  0  0
   48.0316   35.8093   39.7436 H   0  0  0  0  0  0  0  0  0  0  0  0
   49.3084   33.2085   43.7031 H   0  0  0  0  0  0  0  0  0  0  0  0
   50.4043   33.0261   38.4842 H   0  0  0  0  0  0  0  0  0  0  0  0
   52.3428   31.7143   36.7476 H   0  0  0  0  0  0  0  0  0  0  0  0
   52.5789   32.3393   38.3709 H   0  0  0  0  0  0  0  0  0  0  0  0
   52.2699   29.7112   38.0828 H   0  0  0  0  0  0  0  0  0  0  0  0
   51.3386   30.4398   39.3667 H   0  0  0  0  0  0  0  0  0  0  0  0
   50.4624   29.7377   36.4999 H   0  0  0  0  0  0  0  0  0  0  0  0
   49.5927   29.3616   37.9525 H   0  0  0  0  0  0  0  0  0  0  0  0
   49.1185   33.7212   35.6555 H   0  0  0  0  0  0  0  0  0  0  0  0
   48.1874   33.4263   33.3552 H   0  0  0  0  0  0  0  0  0  0  0  0
   47.6113   30.8963   32.6247 H   0  0  0  0  0  0  0  0  0  0  0  0
  1  2  1  0
  1  9  1  0
  3  2  1  0
  4  3  1  0
  5  4  1  0
  5  6  1  0
  6 13  1  0
  6  1  1  0
  7 12  2  0
  8  9  2  0
  8  7  1  0
  9 10  1  0
 10 11  2  0
 12 11  1  0
 14 15  1  0
 15 16  1  0
 17 16  1  0
 18 17  1  0
 18 14  1  0
 18 13  1  1
 19 18  1  0
 20 19  2  0
 21 20  1  0
 22 21  2  0
 22 23  1  0
 23 19  1  0
  2 24  1  0
  2 25  1  0
  3 26  1  0
  3 27  1  0
  4 28  1  0
  4 29  1  0
  5 30  1  0
  5 31  1  0
  6 32  1  6
  7 33  1  0
  8 34  1  0
 11 35  1  0
 14 36  1  0
 15 37  1  0
 15 38  1  0
 16 39  1  0
 16 40  1  0
 17 41  1  0
 17 42  1  0
 20 43  1  0
 21 44  1  0
 22 45  1  0
M  ISO  8  24  13  25  13  26  13  27  13  28  13  29  13  30  13  31  13
M  ISO  8  32  13  33  14  34  14  35  14  36   5  37  13  38  13  39  13
M  ISO  6  40  13  41  13  42  13  43  14  44  14  45  14
M  END
>  <minimizedAffinity>  (1) 
-4.45469475

>  <minimizedRMSD>  (1) 
1.28415453

$$$$
