
     RDKit          3D

 23 24  0  0  1  0  0  0  0  0999 V2000
   46.9980   34.8220   41.7440 C   0  0  1  0  0  0  0  0  0  0  0  0
   48.3870   35.4670   41.8290 C   0  0  0  0  0  0  0  0  0  0  0  0
   48.2080   33.9940   41.6600 C   0  0  2  0  0  0  0  0  0  0  0  0
   44.5990   35.9500   44.3920 C   0  0  0  0  0  0  0  0  0  0  0  0
   45.3180   35.9150   43.1840 C   0  0  0  0  0  0  0  0  0  0  0  0
   46.2450   34.8770   43.0330 C   0  0  0  0  0  0  0  0  0  0  0  0
   46.3990   33.9650   44.0590 N   0  0  0  0  0  0  0  0  0  0  0  0
   45.6790   34.0560   45.1910 C   0  0  0  0  0  0  0  0  0  0  0  0
   44.7910   35.0320   45.3590 N   0  0  0  0  0  0  0  0  0  0  0  0
   48.5850   33.3010   40.3680 C   0  0  0  0  0  0  0  0  0  0  0  0
   48.0620   34.2200   39.2540 C   0  0  0  0  0  0  0  0  0  0  0  0
   46.1002   34.9000   41.1132 H   0  0  0  0  0  0  0  0  0  0  0  0
   48.7668   36.0793   40.9978 H   0  0  0  0  0  0  0  0  0  0  0  0
   48.9109   36.1219   42.5408 H   0  0  0  0  0  0  0  0  0  0  0  0
   48.5743   33.1146   42.2099 H   0  0  0  0  0  0  0  0  0  0  0  0
   43.8597   36.7487   44.5517 H   0  0  0  0  0  0  0  0  0  0  0  0
   45.1598   36.6664   42.3964 H   0  0  0  0  0  0  0  0  0  0  0  0
   45.8263   33.3133   45.9889 H   0  0  0  0  0  0  0  0  0  0  0  0
   49.6767   33.1879   40.2947 H   0  0  0  0  0  0  0  0  0  0  0  0
   48.1575   32.2896   40.3027 H   0  0  0  0  0  0  0  0  0  0  0  0
   47.5651   35.0931   39.7020 H   0  0  0  0  0  0  0  0  0  0  0  0
   48.9038   34.5568   38.6311 H   0  0  0  0  0  0  0  0  0  0  0  0
   47.3426   33.6683   38.6311 H   0  0  0  0  0  0  0  0  0  0  0  0
  1  2  1  0
  1  6  1  0
  3  1  1  0
  3  2  1  0
  4  9  2  0
  5  4  1  0
  6  5  2  0
  6  7  1  0
  7  8  2  0
  8  9  1  0
 10  3  1  0
 11 10  1  0
  1 12  1  6
  2 13  1  0
  2 14  1  0
  3 15  1  1
  4 16  1  0
  5 17  1  0
  8 18  1  0
 10 19  1  0
 10 20  1  0
 11 21  1  0
 11 22  1  0
 11 23  1  0
M  ISO  8  12  13  13  13  14  13  15  13  16  14  17  14  18  14  19   8
M  ISO  4  20   8  21   8  22   8  23   8
M  END
>  <minimizedAffinity>  (1) 
-4.10543871

>  <minimizedRMSD>  (1) 
0.643876731

$$$$
