
     RDKit          3D

 26 27  0  0  0  0  0  0  0  0999 V2000
   45.2230   32.9160   42.1900 C   0  0  0  0  0  0  0  0  0  0  0  0
   46.2340   33.5500   41.3610 N   0  0  0  0  0  0  0  0  0  0  0  0
   47.2100   34.3810   41.7710 C   0  0  0  0  0  0  0  0  0  0  0  0
   48.0860   34.8940   40.8530 C   0  0  0  0  0  0  0  0  0  0  0  0
   49.1570   35.8060   41.2990 C   0  0  0  0  0  0  0  0  0  0  0  0
   47.9890   34.5760   39.5190 C   0  0  0  0  0  0  0  0  0  0  0  0
   48.7820   35.0350   38.6600 O   0  0  0  0  0  0  0  0  0  0  0  0
   47.0010   33.7400   39.1390 N   0  0  0  0  0  0  0  0  0  0  0  0
   46.1320   33.2340   40.0600 C   0  0  0  0  0  0  0  0  0  0  0  0
   45.2650   32.4730   39.5700 O   0  0  0  0  0  0  0  0  0  0  0  0
   44.3150   35.8210   44.4660 C   0  0  0  0  0  0  0  0  0  0  0  0
   44.4650   35.0500   43.2930 C   0  0  0  0  0  0  0  0  0  0  0  0
   45.0350   33.7830   43.3760 C   0  0  0  0  0  0  0  0  0  0  0  0
   45.4250   33.3530   44.6170 N   0  0  0  0  0  0  0  0  0  0  0  0
   45.2750   34.1080   45.7350 C   0  0  0  0  0  0  0  0  0  0  0  0
   44.7270   35.3240   45.6480 N   0  0  0  0  0  0  0  0  0  0  0  0
   45.5612   31.9167   42.5015 H   0  0  0  0  0  0  0  0  0  0  0  0
   44.2798   32.7941   41.6373 H   0  0  0  0  0  0  0  0  0  0  0  0
   47.3029   34.6456   42.8347 H   0  0  0  0  0  0  0  0  0  0  0  0
   49.1845   35.8294   42.3984 H   0  0  0  0  0  0  0  0  0  0  0  0
   50.1247   35.4504   40.9155 H   0  0  0  0  0  0  0  0  0  0  0  0
   48.9601   36.8180   40.9155 H   0  0  0  0  0  0  0  0  0  0  0  0
   46.9023   33.4822   38.1467 H   0  0  0  0  0  0  0  0  0  0  0  0
   43.8638   36.8229   44.4149 H   0  0  0  0  0  0  0  0  0  0  0  0
   44.1343   35.4471   42.3219 H   0  0  0  0  0  0  0  0  0  0  0  0
   45.6037   33.7200   46.7104 H   0  0  0  0  0  0  0  0  0  0  0  0
  1 13  1  0
  2  3  1  0
  2  1  1  0
  4  5  1  0
  4  3  2  0
  6  4  1  0
  7  6  2  0
  8  6  1  0
  8  9  1  0
  9  2  1  0
 10  9  2  0
 11 16  2  0
 12 13  2  0
 12 11  1  0
 13 14  1  0
 14 15  2  0
 16 15  1  0
  1 17  1  0
  1 18  1  0
  3 19  1  0
  5 20  1  0
  5 21  1  0
  5 22  1  0
  8 23  1  0
 11 24  1  0
 12 25  1  0
 15 26  1  0
M  ISO  8  17   8  18   8  19  14  20   8  21   8  22   8  23   9  24  14
M  ISO  2  25  14  26  14
M  END
>  <minimizedAffinity>  (1) 
-4.56298971

>  <minimizedRMSD>  (1) 
3.09849143

$$$$
