
     RDKit          3D

 24 26  0  0  0  0  0  0  0  0999 V2000
   46.8190   34.7650   41.7720 C   0  0  0  0  0  0  0  0  0  0  0  0
   48.1930   34.3700   41.9340 N   0  0  0  0  0  0  0  0  0  0  0  0
   49.1610   35.1860   42.4470 C   0  0  0  0  0  0  0  0  0  0  0  0
   50.3580   34.5280   42.4730 N   0  0  0  0  0  0  0  0  0  0  0  0
   50.1550   33.3030   41.9840 C   0  0  0  0  0  0  0  0  0  0  0  0
   51.0160   32.2170   41.7810 C   0  0  0  0  0  0  0  0  0  0  0  0
   50.4940   31.1090   41.2620 N   0  0  0  0  0  0  0  0  0  0  0  0
   49.1730   31.0190   40.9350 C   0  0  0  0  0  0  0  0  0  0  0  0
   48.3430   32.0710   41.1330 N   0  0  0  0  0  0  0  0  0  0  0  0
   48.8170   33.2030   41.6500 C   0  0  0  0  0  0  0  0  0  0  0  0
   44.5570   36.0510   44.5290 C   0  0  0  0  0  0  0  0  0  0  0  0
   45.2260   35.9910   43.2810 C   0  0  0  0  0  0  0  0  0  0  0  0
   46.0850   34.8970   43.0540 C   0  0  0  0  0  0  0  0  0  0  0  0
   46.2140   33.9750   44.0430 N   0  0  0  0  0  0  0  0  0  0  0  0
   45.5560   34.0720   45.2240 C   0  0  0  0  0  0  0  0  0  0  0  0
   44.7350   35.1070   45.4530 N   0  0  0  0  0  0  0  0  0  0  0  0
   46.7947   35.7359   41.2556 H   0  0  0  0  0  0  0  0  0  0  0  0
   46.3209   33.9721   41.1948 H   0  0  0  0  0  0  0  0  0  0  0  0
   49.0006   36.2193   42.7884 H   0  0  0  0  0  0  0  0  0  0  0  0
   52.0831   32.2780   42.0408 H   0  0  0  0  0  0  0  0  0  0  0  0
   48.7787   30.0854   40.5074 H   0  0  0  0  0  0  0  0  0  0  0  0
   43.8790   36.8914   44.7388 H   0  0  0  0  0  0  0  0  0  0  0  0
   45.0802   36.7696   42.5177 H   0  0  0  0  0  0  0  0  0  0  0  0
   45.6957   33.3006   45.9956 H   0  0  0  0  0  0  0  0  0  0  0  0
  1  2  1  0
  1 13  1  0
  2  3  1  0
  3  4  2  0
  5  4  1  0
  6  5  2  0
  7  6  1  0
  8  9  1  0
  8  7  2  0
  9 10  2  0
 10  2  1  0
 10  5  1  0
 11 16  2  0
 12 11  1  0
 13 12  2  0
 13 14  1  0
 14 15  2  0
 15 16  1  0
  1 17  1  0
  1 18  1  0
  3 19  1  0
  6 20  1  0
  8 21  1  0
 11 22  1  0
 12 23  1  0
 15 24  1  0
M  ISO  8  17   8  18   8  19  14  20  14  21  14  22  14  23  14  24  14
M  END
>  <minimizedAffinity>  (1) 
-4.54456806

>  <minimizedRMSD>  (1) 
2.07216215

$$$$
