
     RDKit          3D

 23 24  0  0  0  0  0  0  0  0999 V2000
   47.0200   34.8040   41.9250 C   0  0  0  0  0  0  0  0  0  0  0  0
   44.5730   36.0480   44.5570 C   0  0  0  0  0  0  0  0  0  0  0  0
   45.3140   36.0150   43.3560 C   0  0  0  0  0  0  0  0  0  0  0  0
   46.1990   34.9270   43.1530 C   0  0  0  0  0  0  0  0  0  0  0  0
   46.2770   33.9830   44.1300 N   0  0  0  0  0  0  0  0  0  0  0  0
   45.5420   34.0520   45.2810 C   0  0  0  0  0  0  0  0  0  0  0  0
   44.6960   35.0900   45.4750 N   0  0  0  0  0  0  0  0  0  0  0  0
   46.3340   34.2280   40.8020 N   0  0  0  0  0  0  0  0  0  0  0  0
   44.9920   33.9970   40.9200 C   0  0  0  0  0  0  0  0  0  0  0  0
   44.3250   33.4450   39.8470 C   0  0  0  0  0  0  0  0  0  0  0  0
   45.0260   33.1490   38.7030 C   0  0  0  0  0  0  0  0  0  0  0  0
   44.3800   32.6480   37.7510 O   0  0  0  0  0  0  0  0  0  0  0  0
   46.3450   33.3820   38.6000 N   0  0  0  0  0  0  0  0  0  0  0  0
   46.9850   33.9250   39.6660 C   0  0  0  0  0  0  0  0  0  0  0  0
   48.2310   34.1330   39.5370 O   0  0  0  0  0  0  0  0  0  0  0  0
   47.3623   35.8095   41.6390 H   0  0  0  0  0  0  0  0  0  0  0  0
   47.8462   34.1202   42.1697 H   0  0  0  0  0  0  0  0  0  0  0  0
   43.8794   36.8822   44.7389 H   0  0  0  0  0  0  0  0  0  0  0  0
   45.2078   36.8086   42.6017 H   0  0  0  0  0  0  0  0  0  0  0  0
   45.6381   33.2672   46.0458 H   0  0  0  0  0  0  0  0  0  0  0  0
   44.4571   34.2455   41.8485 H   0  0  0  0  0  0  0  0  0  0  0  0
   43.2451   33.2441   39.9061 H   0  0  0  0  0  0  0  0  0  0  0  0
   46.8565   33.1546   37.7354 H   0  0  0  0  0  0  0  0  0  0  0  0
  1  4  1  0
  2  7  2  0
  3  2  1  0
  4  3  2  0
  4  5  1  0
  5  6  2  0
  6  7  1  0
  8  9  1  0
  8  1  1  0
 10  9  2  0
 11 10  1  0
 12 11  2  0
 13 11  1  0
 13 14  1  0
 14  8  1  0
 15 14  2  0
  1 16  1  0
  1 17  1  0
  2 18  1  0
  3 19  1  0
  6 20  1  0
  9 21  1  0
 10 22  1  0
 13 23  1  0
M  ISO  8  16   8  17   8  18  14  19  14  20  14  21  14  22  14  23   9
M  END
>  <minimizedAffinity>  (1) 
-4.34145641

>  <minimizedRMSD>  (1) 
0.416196406

$$$$
