
     RDKit          3D

 21 22  0  0  0  0  0  0  0  0999 V2000
   46.5440   34.6070   41.5740 C   0  0  0  0  0  0  0  0  0  0  0  0
   44.6260   36.1780   44.4470 C   0  0  0  0  0  0  0  0  0  0  0  0
   45.2060   36.0240   43.1680 C   0  0  0  0  0  0  0  0  0  0  0  0
   45.9060   34.8480   42.8930 C   0  0  0  0  0  0  0  0  0  0  0  0
   45.9890   33.9060   43.8850 N   0  0  0  0  0  0  0  0  0  0  0  0
   45.4150   34.0930   45.1080 C   0  0  0  0  0  0  0  0  0  0  0  0
   44.7440   35.2160   45.3820 N   0  0  0  0  0  0  0  0  0  0  0  0
   47.9450   34.1700   41.8000 C   0  0  0  0  0  0  0  0  0  0  0  0
   48.8420   35.1270   42.2840 C   0  0  0  0  0  0  0  0  0  0  0  0
   50.1670   34.7790   42.5160 C   0  0  0  0  0  0  0  0  0  0  0  0
   50.5470   33.5110   42.2610 N   0  0  0  0  0  0  0  0  0  0  0  0
   49.6950   32.5840   41.7950 C   0  0  0  0  0  0  0  0  0  0  0  0
   48.3980   32.9060   41.5650 N   0  0  0  0  0  0  0  0  0  0  0  0
   46.5356   35.5347   40.9829 H   0  0  0  0  0  0  0  0  0  0  0  0
   45.9914   33.8305   41.0248 H   0  0  0  0  0  0  0  0  0  0  0  0
   44.0698   37.0973   44.6826 H   0  0  0  0  0  0  0  0  0  0  0  0
   45.1083   36.8121   42.4069 H   0  0  0  0  0  0  0  0  0  0  0  0
   45.5052   33.3115   45.8768 H   0  0  0  0  0  0  0  0  0  0  0  0
   48.4994   36.1536   42.4808 H   0  0  0  0  0  0  0  0  0  0  0  0
   50.8866   35.5183   42.8975 H   0  0  0  0  0  0  0  0  0  0  0  0
   50.0497   31.5613   41.5994 H   0  0  0  0  0  0  0  0  0  0  0  0
  1  8  1  0
  1  4  1  0
  2  7  2  0
  3  2  1  0
  4  3  2  0
  4  5  1  0
  5  6  2  0
  6  7  1  0
  8  9  2  0
  9 10  1  0
 11 10  2  0
 12 11  1  0
 13 12  2  0
 13  8  1  0
  1 14  1  0
  1 15  1  0
  2 16  1  0
  3 17  1  0
  6 18  1  0
  9 19  1  0
 10 20  1  0
 12 21  1  0
M  ISO  8  14   8  15   8  16  14  17  14  18  14  19  14  20  14  21  14
M  END
>  <minimizedAffinity>  (1) 
-4.31914234

>  <minimizedRMSD>  (1) 
1.88404131

$$$$
