
     RDKit          3D

 30 32  0  0  1  0  0  0  0  0999 V2000
   47.9720   35.6270   42.1830 C   0  0  1  0  0  0  0  0  0  0  0  0
   49.3700   35.0070   42.2790 C   0  0  0  0  0  0  0  0  0  0  0  0
   48.7710   35.3530   40.9790 C   0  0  1  0  0  0  0  0  0  0  0  0
   45.9650   33.1130   44.1040 C   0  0  0  0  0  0  0  0  0  0  0  0
   47.0590   33.9310   43.7190 C   0  0  0  0  0  0  0  0  0  0  0  0
   46.8740   34.7420   42.6160 C   0  0  0  0  0  0  0  0  0  0  0  0
   45.6760   34.7080   41.9770 N   0  0  0  0  0  0  0  0  0  0  0  0
   44.6460   33.9240   42.3560 C   0  0  0  0  0  0  0  0  0  0  0  0
   44.7950   33.1240   43.4260 N   0  0  0  0  0  0  0  0  0  0  0  0
   48.1710   31.8750   38.5040 C   0  0  0  0  0  0  0  0  0  0  0  0
   47.7530   33.1100   38.0540 C   0  0  0  0  0  0  0  0  0  0  0  0
   47.9290   34.2310   38.8270 C   0  0  0  0  0  0  0  0  0  0  0  0
   48.5200   34.2090   40.0730 C   0  0  0  0  0  0  0  0  0  0  0  0
   48.9140   32.9210   40.4520 C   0  0  0  0  0  0  0  0  0  0  0  0
   48.7720   31.7640   39.7410 C   0  0  0  0  0  0  0  0  0  0  0  0
   47.9450   30.4490   37.5180 S   0  0  0  0  0  0  0  0  0  0  0  0
   46.5740   30.4460   36.9150 O   0  0  0  0  0  0  0  0  0  0  0  0
   48.0780   29.2010   38.3450 O   0  0  0  0  0  0  0  0  0  0  0  0
   47.4369   36.5229   42.5309 H   0  0  0  0  0  0  0  0  0  0  0  0
   50.2107   35.5951   42.6756 H   0  0  0  0  0  0  0  0  0  0  0  0
   49.7985   34.1002   42.7307 H   0  0  0  0  0  0  0  0  0  0  0  0
   49.0117   35.9990   40.1219 H   0  0  0  0  0  0  0  0  0  0  0  0
   46.0716   32.4525   44.9771 H   0  0  0  0  0  0  0  0  0  0  0  0
   48.0094   33.9198   44.2727 H   0  0  0  0  0  0  0  0  0  0  0  0
   43.6982   33.9390   41.7979 H   0  0  0  0  0  0  0  0  0  0  0  0
   47.2745   33.1976   37.0674 H   0  0  0  0  0  0  0  0  0  0  0  0
   47.5806   35.1967   38.4321 H   0  0  0  0  0  0  0  0  0  0  0  0
   49.3940   32.8299   41.4375 H   0  0  0  0  0  0  0  0  0  0  0  0
   49.1179   30.7962   40.1330 H   0  0  0  0  0  0  0  0  0  0  0  0
   48.9040   30.4720   36.5399 H   0  0  0  0  0  0  0  0  0  0  0  0
  1  2  1  0
  1  6  1  0
  3  1  1  0
  3  2  1  0
  5  4  2  0
  6  5  1  0
  7  8  1  0
  7  6  2  0
  8  9  2  0
  9  4  1  0
 10 15  2  0
 11 10  1  0
 11 12  2  0
 12 13  1  0
 13 14  2  0
 13  3  1  0
 15 14  1  0
 16 18  2  0
 16 10  1  0
 17 16  2  0
  1 19  1  1
  2 20  1  0
  2 21  1  0
  3 22  1  6
  4 23  1  0
  5 24  1  0
  8 25  1  0
 11 26  1  0
 12 27  1  0
 14 28  1  0
 15 29  1  0
 16 30  1  0
M  ISO  8  19  13  20  13  21  13  22  13  23  14  24  14  25  14  26  14
M  ISO  4  27  14  28  14  29  14  30  11
M  END
>  <minimizedAffinity>  (1) 
-4.08409023

>  <minimizedRMSD>  (1) 
5.25644159

$$$$
