
     RDKit          3D

 20 21  0  0  0  0  0  0  0  0999 V2000
   44.6250   36.0020   44.4140 C   0  0  0  0  0  0  0  0  0  0  0  0
   45.3140   35.9450   43.1840 C   0  0  0  0  0  0  0  0  0  0  0  0
   46.1900   34.8710   42.9680 C   0  0  0  0  0  0  0  0  0  0  0  0
   46.3200   33.9460   43.9650 N   0  0  0  0  0  0  0  0  0  0  0  0
   45.6490   34.0250   45.1340 C   0  0  0  0  0  0  0  0  0  0  0  0
   44.8030   35.0580   45.3490 N   0  0  0  0  0  0  0  0  0  0  0  0
   46.9660   34.7290   41.6910 C   0  0  0  0  0  0  0  0  0  0  0  0
   48.3350   34.3810   41.9370 N   0  0  0  0  0  0  0  0  0  0  0  0
   48.8130   33.1540   41.5780 C   0  0  0  0  0  0  0  0  0  0  0  0
   50.1590   33.0670   41.9210 C   0  0  0  0  0  0  0  0  0  0  0  0
   50.4850   34.2510   42.4880 N   0  0  0  0  0  0  0  0  0  0  0  0
   49.4000   35.0130   42.4900 C   0  0  0  0  0  0  0  0  0  0  0  0
   43.9315   36.8334   44.6086 H   0  0  0  0  0  0  0  0  0  0  0  0
   45.1685   36.7200   42.4171 H   0  0  0  0  0  0  0  0  0  0  0  0
   45.7895   33.2544   45.9063 H   0  0  0  0  0  0  0  0  0  0  0  0
   46.9335   35.6841   41.1463 H   0  0  0  0  0  0  0  0  0  0  0  0
   46.5084   33.9218   41.1002 H   0  0  0  0  0  0  0  0  0  0  0  0
   48.2267   32.3591   41.0938 H   0  0  0  0  0  0  0  0  0  0  0  0
   50.8254   32.2063   41.7625 H   0  0  0  0  0  0  0  0  0  0  0  0
   49.3675   36.0362   42.8924 H   0  0  0  0  0  0  0  0  0  0  0  0
  1  6  2  0
  2  1  1  0
  3  2  2  0
  3  4  1  0
  4  5  2  0
  5  6  1  0
  7  8  1  0
  7  3  1  0
  8 12  1  0
  9 10  2  0
  9  8  1  0
 10 11  1  0
 11 12  2  0
  1 13  1  0
  2 14  1  0
  5 15  1  0
  7 16  1  0
  7 17  1  0
  9 18  1  0
 10 19  1  0
 12 20  1  0
M  ISO  8  13  14  14  14  15  14  16   8  17   8  18  14  19  14  20  14
M  END
>  <minimizedAffinity>  (1) 
-3.98186231

>  <minimizedRMSD>  (1) 
1.45181978

$$$$
