
     RDKit          3D

 20 20  0  0  0  0  0  0  0  0999 V2000
   47.3330   34.9340   41.8810 C   0  0  0  0  0  0  0  0  0  0  0  0
   44.5620   35.8780   44.2970 C   0  0  0  0  0  0  0  0  0  0  0  0
   45.4050   35.9100   43.1610 C   0  0  0  0  0  0  0  0  0  0  0  0
   46.4200   34.9460   43.0530 C   0  0  0  0  0  0  0  0  0  0  0  0
   46.5190   34.0430   44.0600 N   0  0  0  0  0  0  0  0  0  0  0  0
   45.7090   34.0230   45.1400 C   0  0  0  0  0  0  0  0  0  0  0  0
   44.7370   34.9460   45.2430 N   0  0  0  0  0  0  0  0  0  0  0  0
   46.5880   34.4350   40.7470 N   0  0  0  0  0  0  0  0  0  0  0  0
   47.1600   34.0550   39.5010 C   0  0  0  0  0  0  0  0  0  0  0  0
   48.4320   34.2910   39.3370 N   0  0  0  0  0  0  0  0  0  0  0  0
   46.4300   33.4470   38.4520 N   0  0  0  0  0  0  0  0  0  0  0  0
   48.9900   34.7360   40.0890 H   0  0  0  0  0  0  0  0  0  0  0  0
   47.6908   35.9535   41.6746 H   0  0  0  0  0  0  0  0  0  0  0  0
   48.2056   34.2944   42.0796 H   0  0  0  0  0  0  0  0  0  0  0  0
   43.7590   36.6222   44.4038 H   0  0  0  0  0  0  0  0  0  0  0  0
   45.2682   36.6728   42.3803 H   0  0  0  0  0  0  0  0  0  0  0  0
   45.8424   33.2629   45.9239 H   0  0  0  0  0  0  0  0  0  0  0  0
   45.5667   34.3481   40.8487 H   0  0  0  0  0  0  0  0  0  0  0  0
   46.9042   33.1957   37.5729 H   0  0  0  0  0  0  0  0  0  0  0  0
   45.4245   33.2558   38.5677 H   0  0  0  0  0  0  0  0  0  0  0  0
  1  4  1  0
  2  7  2  0
  3  2  1  0
  4  3  2  0
  4  5  1  0
  5  6  2  0
  6  7  1  0
  8  1  1  0
  9  8  1  0
 10  9  2  0
 10 12  1  0
 11  9  1  0
  1 13  1  0
  1 14  1  0
  2 15  1  0
  3 16  1  0
  6 17  1  0
  8 18  1  0
 11 19  1  0
 11 20  1  0
M  ISO  5  13   8  14   8  15  14  16  14  17  14
M  END
>  <minimizedAffinity>  (1) 
-3.74383521

>  <minimizedRMSD>  (1) 
0.898484707

$$$$
