
     RDKit          3D

 19 20  0  0  0  0  0  0  0  0999 V2000
   44.5880   36.0440   44.5150 C   0  0  0  0  0  0  0  0  0  0  0  0
   45.3390   36.0540   43.3180 C   0  0  0  0  0  0  0  0  0  0  0  0
   46.2210   35.0000   43.0870 C   0  0  0  0  0  0  0  0  0  0  0  0
   46.3040   34.0120   44.0400 N   0  0  0  0  0  0  0  0  0  0  0  0
   45.5700   34.0370   45.1720 C   0  0  0  0  0  0  0  0  0  0  0  0
   44.7240   35.0500   45.3940 N   0  0  0  0  0  0  0  0  0  0  0  0
   47.0470   34.9320   41.8570 C   0  0  0  0  0  0  0  0  0  0  0  0
   46.2630   34.2030   40.7970 C   0  0  0  0  0  0  0  0  0  0  0  0
   46.8230   33.4930   39.7190 C   0  0  0  0  0  0  0  0  0  0  0  0
   45.4420   32.8580   38.8190 S   0  0  0  0  0  0  0  0  0  0  0  0
   44.2250   33.6600   40.0570 C   0  0  0  0  0  0  0  0  0  0  0  0
   44.9640   34.1390   40.7450 N   0  0  0  0  0  0  0  0  0  0  0  0
   43.8847   36.8636   44.7238 H   0  0  0  0  0  0  0  0  0  0  0  0
   45.2305   36.8707   42.5891 H   0  0  0  0  0  0  0  0  0  0  0  0
   45.6667   33.2272   45.9101 H   0  0  0  0  0  0  0  0  0  0  0  0
   47.2826   35.9493   41.5111 H   0  0  0  0  0  0  0  0  0  0  0  0
   47.9882   34.4012   42.0628 H   0  0  0  0  0  0  0  0  0  0  0  0
   47.8902   33.3617   39.4868 H   0  0  0  0  0  0  0  0  0  0  0  0
   43.1254   33.6522   40.0839 H   0  0  0  0  0  0  0  0  0  0  0  0
  1  6  2  0
  2  1  1  0
  3  2  2  0
  3  4  1  0
  4  5  2  0
  5  6  1  0
  7  3  1  0
  8  7  1  0
  9  8  2  0
 10  9  1  0
 10 11  1  0
 11 12  2  0
 12  8  1  0
  1 13  1  0
  2 14  1  0
  5 15  1  0
  7 16  1  0
  7 17  1  0
  9 18  1  0
 11 19  1  0
M  ISO  7  13  14  14  14  15  14  16   8  17   8  18  14  19  14
M  END
>  <minimizedAffinity>  (1) 
-3.74327087

>  <minimizedRMSD>  (1) 
0.315315396

$$$$
