
     RDKit          3D

 20 21  0  0  0  0  0  0  0  0999 V2000
   47.0780   34.9620   41.8610 C   0  0  0  0  0  0  0  0  0  0  0  0
   44.5770   36.0270   44.5120 C   0  0  0  0  0  0  0  0  0  0  0  0
   45.3340   36.0510   43.3200 C   0  0  0  0  0  0  0  0  0  0  0  0
   46.2400   35.0140   43.0920 C   0  0  0  0  0  0  0  0  0  0  0  0
   46.3450   34.0380   44.0300 N   0  0  0  0  0  0  0  0  0  0  0  0
   45.6070   34.0370   45.1660 C   0  0  0  0  0  0  0  0  0  0  0  0
   44.7270   35.0350   45.3990 N   0  0  0  0  0  0  0  0  0  0  0  0
   46.3300   34.2410   40.8360 N   0  0  0  0  0  0  0  0  0  0  0  0
   46.9320   33.6820   39.7750 N   0  0  0  0  0  0  0  0  0  0  0  0
   46.0080   33.0890   39.0010 C   0  0  0  0  0  0  0  0  0  0  0  0
   44.7750   33.2700   39.5810 C   0  0  0  0  0  0  0  0  0  0  0  0
   45.0270   33.9960   40.7270 C   0  0  0  0  0  0  0  0  0  0  0  0
   47.2965   35.9830   41.5148 H   0  0  0  0  0  0  0  0  0  0  0  0
   48.0304   34.4522   42.0685 H   0  0  0  0  0  0  0  0  0  0  0  0
   43.8557   36.8326   44.7142 H   0  0  0  0  0  0  0  0  0  0  0  0
   45.2128   36.8654   42.5906 H   0  0  0  0  0  0  0  0  0  0  0  0
   45.7242   33.2243   45.8980 H   0  0  0  0  0  0  0  0  0  0  0  0
   46.2047   32.5501   38.0624 H   0  0  0  0  0  0  0  0  0  0  0  0
   43.8015   32.9143   39.2126 H   0  0  0  0  0  0  0  0  0  0  0  0
   44.2619   34.3244   41.4458 H   0  0  0  0  0  0  0  0  0  0  0  0
  1  4  1  0
  2  7  2  0
  3  2  1  0
  4  3  2  0
  4  5  1  0
  5  6  2  0
  6  7  1  0
  8  1  1  0
  9  8  1  0
 10 11  1  0
 10  9  2  0
 11 12  2  0
 12  8  1  0
  1 13  1  0
  1 14  1  0
  2 15  1  0
  3 16  1  0
  6 17  1  0
 10 18  1  0
 11 19  1  0
 12 20  1  0
M  ISO  8  13   8  14   8  15  14  16  14  17  14  18  14  19  14  20  14
M  END
>  <minimizedAffinity>  (1) 
-3.64676046

>  <minimizedRMSD>  (1) 
0.406415641

$$$$
