
     RDKit          3D

 19 20  0  0  0  0  0  0  0  0999 V2000
   44.5900   36.0210   44.5190 C   0  0  0  0  0  0  0  0  0  0  0  0
   45.3380   36.0580   43.3210 C   0  0  0  0  0  0  0  0  0  0  0  0
   46.2380   35.0080   43.0810 C   0  0  0  0  0  0  0  0  0  0  0  0
   46.3340   34.0240   44.0090 N   0  0  0  0  0  0  0  0  0  0  0  0
   45.6040   34.0140   45.1500 C   0  0  0  0  0  0  0  0  0  0  0  0
   44.7340   35.0200   45.3910 N   0  0  0  0  0  0  0  0  0  0  0  0
   47.0560   34.9840   41.8410 C   0  0  0  0  0  0  0  0  0  0  0  0
   46.3320   34.2480   40.8210 N   0  0  0  0  0  0  0  0  0  0  0  0
   44.9760   34.1210   40.7670 C   0  0  0  0  0  0  0  0  0  0  0  0
   44.7770   33.3660   39.6670 N   0  0  0  0  0  0  0  0  0  0  0  0
   45.9220   33.0420   39.0740 C   0  0  0  0  0  0  0  0  0  0  0  0
   46.9150   33.6110   39.8180 N   0  0  0  0  0  0  0  0  0  0  0  0
   43.8773   36.8300   44.7370 H   0  0  0  0  0  0  0  0  0  0  0  0
   45.2192   36.8813   42.6012 H   0  0  0  0  0  0  0  0  0  0  0  0
   45.7182   33.1941   45.8743 H   0  0  0  0  0  0  0  0  0  0  0  0
   47.2371   36.0130   41.4969 H   0  0  0  0  0  0  0  0  0  0  0  0
   48.0229   34.4983   42.0388 H   0  0  0  0  0  0  0  0  0  0  0  0
   44.2243   34.5349   41.4553 H   0  0  0  0  0  0  0  0  0  0  0  0
   46.0448   32.4358   38.1644 H   0  0  0  0  0  0  0  0  0  0  0  0
  1  6  2  0
  2  1  1  0
  3  2  2  0
  3  4  1  0
  4  5  2  0
  5  6  1  0
  7  3  1  0
  8  7  1  0
  9  8  1  0
 10  9  2  0
 11 10  1  0
 11 12  2  0
 12  8  1  0
  1 13  1  0
  2 14  1  0
  5 15  1  0
  7 16  1  0
  7 17  1  0
  9 18  1  0
 11 19  1  0
M  ISO  7  13  14  14  14  15  14  16   8  17   8  18  14  19  14
M  END
>  <minimizedAffinity>  (1) 
-3.61231995

>  <minimizedRMSD>  (1) 
0.446289808

$$$$
