
     RDKit          3D

 14 14  0  0  0  0  0  0  0  0999 V2000
   44.5490   36.0630   44.4830 C   0  0  0  0  0  0  0  0  0  0  0  0
   45.1800   35.9910   43.2230 C   0  0  0  0  0  0  0  0  0  0  0  0
   46.0180   34.9040   42.9740 C   0  0  0  0  0  0  0  0  0  0  0  0
   46.1860   33.9650   43.9630 N   0  0  0  0  0  0  0  0  0  0  0  0
   45.5500   34.0810   45.1700 C   0  0  0  0  0  0  0  0  0  0  0  0
   44.7470   35.1150   45.4180 N   0  0  0  0  0  0  0  0  0  0  0  0
   46.7300   34.7320   41.6840 C   0  0  0  0  0  0  0  0  0  0  0  0
   45.8030   34.5030   40.6620 O   0  0  0  0  0  0  0  0  0  0  0  0
   43.8828   36.9096   44.7054 H   0  0  0  0  0  0  0  0  0  0  0  0
   45.0163   36.7675   42.4612 H   0  0  0  0  0  0  0  0  0  0  0  0
   45.7035   33.3131   45.9425 H   0  0  0  0  0  0  0  0  0  0  0  0
   47.3049   35.6425   41.4592 H   0  0  0  0  0  0  0  0  0  0  0  0
   47.4131   33.8728   41.7561 H   0  0  0  0  0  0  0  0  0  0  0  0
   44.9222   34.2854   41.0581 H   0  0  0  0  0  0  0  0  0  0  0  0
  1  6  2  0
  2  1  1  0
  3  2  2  0
  3  4  1  0
  4  5  2  0
  5  6  1  0
  7  3  1  0
  8  7  1  0
  1  9  1  0
  2 10  1  0
  5 11  1  0
  7 12  1  0
  7 13  1  0
  8 14  1  0
M  ISO  6   9  14  10  14  11  14  12   8  13   8  14   3
M  END
>  <minimizedAffinity>  (1) 
-3.17154622

>  <minimizedRMSD>  (1) 
0.326915145

$$$$
