
     RDKit          3D

 14 14  0  0  0  0  0  0  0  0999 V2000
   44.5470   36.0090   44.5070 C   0  0  0  0  0  0  0  0  0  0  0  0
   45.2860   35.9500   43.2970 C   0  0  0  0  0  0  0  0  0  0  0  0
   46.1900   34.9020   43.1300 C   0  0  0  0  0  0  0  0  0  0  0  0
   46.3030   33.9990   44.1530 N   0  0  0  0  0  0  0  0  0  0  0  0
   45.5840   34.0850   45.2920 C   0  0  0  0  0  0  0  0  0  0  0  0
   44.7110   35.0860   45.4670 N   0  0  0  0  0  0  0  0  0  0  0  0
   47.0030   34.7600   41.9010 C   0  0  0  0  0  0  0  0  0  0  0  0
   46.1910   33.8040   40.6100 S   0  0  0  0  0  0  0  0  0  0  0  0
   43.8268   36.8261   44.6607 H   0  0  0  0  0  0  0  0  0  0  0  0
   45.1494   36.7096   42.5132 H   0  0  0  0  0  0  0  0  0  0  0  0
   45.7155   33.3294   46.0805 H   0  0  0  0  0  0  0  0  0  0  0  0
   47.2178   35.7645   41.5076 H   0  0  0  0  0  0  0  0  0  0  0  0
   47.9181   34.2166   42.1792 H   0  0  0  0  0  0  0  0  0  0  0  0
   45.3853   32.8554   41.1825 H   0  0  0  0  0  0  0  0  0  0  0  0
  1  6  2  0
  2  1  1  0
  3  2  2  0
  3  4  1  0
  4  5  2  0
  5  6  1  0
  7  3  1  0
  8  7  1  0
  1  9  1  0
  2 10  1  0
  5 11  1  0
  7 12  1  0
  7 13  1  0
  8 14  1  0
M  ISO  6   9  14  10  14  11  14  12   8  13   8  14  11
M  END
>  <minimizedAffinity>  (1) 
-3.02960587

>  <minimizedRMSD>  (1) 
0.0172056016

$$$$
