
     RDKit          3D

 20 21  0  0  0  0  0  0  0  0999 V2000
   46.7310   34.7990   41.9520 C   0  0  0  0  0  0  0  0  0  0  0  0
   44.4790   36.0520   44.7380 C   0  0  0  0  0  0  0  0  0  0  0  0
   45.1400   36.0030   43.4920 C   0  0  0  0  0  0  0  0  0  0  0  0
   45.9980   34.9230   43.2370 C   0  0  0  0  0  0  0  0  0  0  0  0
   46.1500   33.9630   44.2230 N   0  0  0  0  0  0  0  0  0  0  0  0
   45.4920   34.0680   45.3900 C   0  0  0  0  0  0  0  0  0  0  0  0
   44.6620   35.1030   45.6480 N   0  0  0  0  0  0  0  0  0  0  0  0
   47.4190   33.4940   42.0270 N   0  0  0  0  0  0  0  0  0  0  0  0
   48.8190   33.4430   42.1170 C   0  0  0  0  0  0  0  0  0  0  0  0
   49.5930   34.4990   42.4330 N   0  0  0  0  0  0  0  0  0  0  0  0
   50.8640   34.1410   42.4390 O   0  0  0  0  0  0  0  0  0  0  0  0
   50.9540   32.8820   42.1360 C   0  0  0  0  0  0  0  0  0  0  0  0
   49.6910   32.4140   41.9290 N   0  0  0  0  0  0  0  0  0  0  0  0
   47.4608   35.6148   41.8432 H   0  0  0  0  0  0  0  0  0  0  0  0
   46.0570   34.8608   41.0849 H   0  0  0  0  0  0  0  0  0  0  0  0
   43.8014   36.8899   44.9586 H   0  0  0  0  0  0  0  0  0  0  0  0
   44.9863   36.7913   42.7403 H   0  0  0  0  0  0  0  0  0  0  0  0
   45.6327   33.2909   46.1557 H   0  0  0  0  0  0  0  0  0  0  0  0
   46.8716   32.6216   42.0133 H   0  0  0  0  0  0  0  0  0  0  0  0
   51.8829   32.2978   42.0600 H   0  0  0  0  0  0  0  0  0  0  0  0
  1  8  1  0
  1  4  1  0
  2  7  2  0
  3  2  1  0
  4  3  2  0
  4  5  1  0
  5  6  2  0
  6  7  1  0
  8  9  1  0
  9 10  2  0
 10 11  1  0
 12 11  1  0
 13  9  1  0
 13 12  2  0
  1 14  1  0
  1 15  1  0
  2 16  1  0
  3 17  1  0
  6 18  1  0
  8 19  1  0
 12 20  1  0
M  ISO  6  14   8  15   8  16  14  17  14  18  14  20  14
M  END
>  <minimizedAffinity>  (1) 
-4.12632895

>  <minimizedRMSD>  (1) 
3.12633276

$$$$
