
     RDKit          3D

 19 20  0  0  0  0  0  0  0  0999 V2000
   44.5990   35.5670   45.1860 C   0  0  0  0  0  0  0  0  0  0  0  0
   44.5140   35.6920   43.7800 C   0  0  0  0  0  0  0  0  0  0  0  0
   45.0340   34.6650   42.9870 C   0  0  0  0  0  0  0  0  0  0  0  0
   45.5900   33.6060   43.6120 N   0  0  0  0  0  0  0  0  0  0  0  0
   45.6620   33.5040   44.9710 C   0  0  0  0  0  0  0  0  0  0  0  0
   45.1730   34.4710   45.7390 N   0  0  0  0  0  0  0  0  0  0  0  0
   46.2560   32.3760   45.6180 N   0  0  0  0  0  0  0  0  0  0  0  0
   47.0850   31.6270   44.8640 C   0  0  0  0  0  0  0  0  0  0  0  0
   47.5270   30.6080   45.7140 C   0  0  0  0  0  0  0  0  0  0  0  0
   46.9590   30.7710   46.9310 N   0  0  0  0  0  0  0  0  0  0  0  0
   46.1890   31.8490   46.8620 C   0  0  0  0  0  0  0  0  0  0  0  0
   45.3670   32.4460   47.8940 C   0  0  0  0  0  0  0  0  0  0  0  0
   45.8000   32.4480   49.0730 O   0  0  0  0  0  0  0  0  0  0  0  0
   44.1981   36.3615   45.8326 H   0  0  0  0  0  0  0  0  0  0  0  0
   44.0494   36.5771   43.3209 H   0  0  0  0  0  0  0  0  0  0  0  0
   44.9914   34.7183   41.8891 H   0  0  0  0  0  0  0  0  0  0  0  0
   47.3552   31.7832   43.8092 H   0  0  0  0  0  0  0  0  0  0  0  0
   48.2243   29.8035   45.4375 H   0  0  0  0  0  0  0  0  0  0  0  0
   44.3886   32.8864   47.6516 H   0  0  0  0  0  0  0  0  0  0  0  0
  1  6  2  0
  2  1  1  0
  3  4  1  0
  3  2  2  0
  4  5  2  0
  5  7  1  0
  5  6  1  0
  7 11  1  0
  8  7  1  0
  8  9  2  0
  9 10  1  0
 11 10  2  0
 11 12  1  0
 12 13  2  0
  1 14  1  0
  2 15  1  0
  3 16  1  0
  8 17  1  0
  9 18  1  0
 12 19  1  0
M  ISO  6  14  14  15  14  16  14  17  14  18  14  19   6
M  END
>  <minimizedAffinity>  (1) 
-3.99614334

>  <minimizedRMSD>  (1) 
1.7518425

$$$$
