
     RDKit          3D

 24 26  0  0  1  0  0  0  0  0999 V2000
   48.0000   35.5790   41.9820 C   0  0  1  0  0  0  0  0  0  0  0  0
   49.3760   34.9190   41.9310 C   0  0  0  0  0  0  0  0  0  0  0  0
   48.6430   35.2530   40.7030 C   0  0  1  0  0  0  0  0  0  0  0  0
   46.1810   33.1260   44.1540 C   0  0  0  0  0  0  0  0  0  0  0  0
   47.2340   33.8970   43.6280 C   0  0  0  0  0  0  0  0  0  0  0  0
   46.9370   34.7340   42.5710 C   0  0  0  0  0  0  0  0  0  0  0  0
   45.6440   34.7700   42.0950 N   0  0  0  0  0  0  0  0  0  0  0  0
   44.6700   34.0220   42.6220 C   0  0  0  0  0  0  0  0  0  0  0  0
   44.9280   33.1960   43.6520 N   0  0  0  0  0  0  0  0  0  0  0  0
   48.2560   34.0800   39.8720 C   0  0  0  0  0  0  0  0  0  0  0  0
   48.6220   32.7510   39.8480 C   0  0  0  0  0  0  0  0  0  0  0  0
   47.9550   32.0880   38.8880 N   0  0  0  0  0  0  0  0  0  0  0  0
   47.1640   32.9660   38.2920 C   0  0  0  0  0  0  0  0  0  0  0  0
   47.3320   34.1550   38.8670 N   0  0  0  0  0  0  0  0  0  0  0  0
   47.5334   36.4996   42.3627 H   0  0  0  0  0  0  0  0  0  0  0  0
   50.2741   35.4886   42.2120 H   0  0  0  0  0  0  0  0  0  0  0  0
   49.8271   34.0092   42.3538 H   0  0  0  0  0  0  0  0  0  0  0  0
   48.7980   35.8717   39.8068 H   0  0  0  0  0  0  0  0  0  0  0  0
   46.3830   32.4481   44.9964 H   0  0  0  0  0  0  0  0  0  0  0  0
   48.2514   33.8354   44.0417 H   0  0  0  0  0  0  0  0  0  0  0  0
   43.6514   34.0821   42.2112 H   0  0  0  0  0  0  0  0  0  0  0  0
   49.3605   32.2948   40.5236 H   0  0  0  0  0  0  0  0  0  0  0  0
   46.4800   32.7489   37.4583 H   0  0  0  0  0  0  0  0  0  0  0  0
   46.8341   35.0138   38.5923 H   0  0  0  0  0  0  0  0  0  0  0  0
  1  6  1  0
  2  1  1  0
  3  2  1  0
  3  1  1  0
  5  4  2  0
  6  5  1  0
  7  6  2  0
  7  8  1  0
  8  9  2  0
  9  4  1  0
 10  3  1  0
 11 10  2  0
 12 11  1  0
 13 14  1  0
 13 12  2  0
 14 10  1  0
  1 15  1  6
  2 16  1  0
  2 17  1  0
  3 18  1  6
  4 19  1  0
  5 20  1  0
  8 21  1  0
 11 22  1  0
 13 23  1  0
 14 24  1  0
M  ISO  8  15  13  16  13  17  13  18  13  19  14  20  14  21  14  22  14
M  ISO  2  23  14  24   9
M  END
>  <minimizedAffinity>  (1) 
-4.02399778

>  <minimizedRMSD>  (1) 
3.54825807

$$$$
