
     RDKit          3D

 37 39  0  0  1  0  0  0  0  0999 V2000
   47.1760   33.0520   40.6080 N   0  0  0  0  0  0  0  0  0  0  0  0
   47.3650   33.7620   39.3650 C   0  0  0  0  0  0  0  0  0  0  0  0
   48.3220   34.8660   39.6590 C   0  0  0  0  0  0  0  0  0  0  0  0
   48.2380   34.9200   41.1940 C   0  0  0  0  0  0  0  0  0  0  0  0
   48.2050   33.4450   41.4900 C   0  0  2  0  0  0  0  0  0  0  0  0
   49.5060   32.9040   41.3020 N   0  0  0  0  0  0  0  0  0  0  0  0
   49.5090   31.8620   40.4130 C   0  0  0  0  0  0  0  0  0  0  0  0
   50.7140   31.2170   40.1150 C   0  0  0  0  0  0  0  0  0  0  0  0
   51.9050   31.6050   40.6970 C   0  0  0  0  0  0  0  0  0  0  0  0
   53.0130   31.0570   40.4600 O   0  0  0  0  0  0  0  0  0  0  0  0
   51.8710   32.6290   41.5630 N   0  0  0  0  0  0  0  0  0  0  0  0
   50.6980   33.2250   41.8260 C   0  0  0  0  0  0  0  0  0  0  0  0
   50.6620   34.1820   42.6360 O   0  0  0  0  0  0  0  0  0  0  0  0
   47.8680   33.2400   42.8710 N   0  0  0  0  0  0  0  0  0  0  0  0
   46.5160   32.8030   42.9570 C   0  0  0  0  0  0  0  0  0  0  0  0
   44.5980   35.7780   44.3580 C   0  0  0  0  0  0  0  0  0  0  0  0
   45.2340   34.9760   43.3860 C   0  0  0  0  0  0  0  0  0  0  0  0
   45.8030   33.7900   43.8430 C   0  0  0  0  0  0  0  0  0  0  0  0
   45.7140   33.4830   45.1660 N   0  0  0  0  0  0  0  0  0  0  0  0
   45.1000   34.2640   46.0800 C   0  0  0  0  0  0  0  0  0  0  0  0
   44.5390   35.4290   45.6430 N   0  0  0  0  0  0  0  0  0  0  0  0
   47.2252   32.0366   40.4425 H   0  0  0  0  0  0  0  0  0  0  0  0
   46.4077   34.1714   39.0102 H   0  0  0  0  0  0  0  0  0  0  0  0
   47.7494   33.0970   38.5776 H   0  0  0  0  0  0  0  0  0  0  0  0
   49.3388   34.6218   39.3177 H   0  0  0  0  0  0  0  0  0  0  0  0
   48.0888   35.8164   39.1567 H   0  0  0  0  0  0  0  0  0  0  0  0
   49.1187   35.4083   41.6367 H   0  0  0  0  0  0  0  0  0  0  0  0
   47.3941   35.4987   41.5978 H   0  0  0  0  0  0  0  0  0  0  0  0
   48.5723   31.5353   39.9377 H   0  0  0  0  0  0  0  0  0  0  0  0
   50.7130   30.3809   39.4002 H   0  0  0  0  0  0  0  0  0  0  0  0
   52.7348   32.9537   42.0204 H   0  0  0  0  0  0  0  0  0  0  0  0
   48.4888   32.5246   43.2756 H   0  0  0  0  0  0  0  0  0  0  0  0
   46.0569   32.7889   41.9575 H   0  0  0  0  0  0  0  0  0  0  0  0
   46.4527   31.7837   43.3656 H   0  0  0  0  0  0  0  0  0  0  0  0
   44.1345   36.7248   44.0437 H   0  0  0  0  0  0  0  0  0  0  0  0
   45.2777   35.2712   42.3273 H   0  0  0  0  0  0  0  0  0  0  0  0
   45.0535   33.9718   47.1395 H   0  0  0  0  0  0  0  0  0  0  0  0
  1  5  1  0
  2  3  1  0
  2  1  1  0
  3  4  1  0
  4  5  1  0
  5 14  1  1
  6  5  1  0
  6 12  1  0
  7  6  1  0
  8  7  2  0
  8  9  1  0
  9 11  1  0
 10  9  2  0
 11 12  1  0
 12 13  2  0
 14 15  1  0
 15 18  1  0
 16 21  2  0
 17 18  2  0
 17 16  1  0
 18 19  1  0
 19 20  2  0
 21 20  1  0
  1 22  1  0
  2 23  1  0
  2 24  1  0
  3 25  1  0
  3 26  1  0
  4 27  1  0
  4 28  1  0
  7 29  1  0
  8 30  1  0
 11 31  1  0
 14 32  1  0
 15 33  1  0
 15 34  1  0
 16 35  1  0
 17 36  1  0
 20 37  1  0
M  ISO  8  22   5  23  13  24  13  25  13  26  13  27  13  28  13  29  14
M  ISO  8  30  14  31   9  32   5  33   8  34   8  35  14  36  14  37  14
M  END
>  <minimizedAffinity>  (1) 
-5.34548283

>  <minimizedRMSD>  (1) 
2.10343146

$$$$
