
     RDKit          3D

 38 40  0  0  1  0  0  0  0  0999 V2000
   47.0640   32.8050   39.7570 N   0  0  0  0  0  0  0  0  0  0  0  0
   47.5790   33.1820   38.4590 C   0  0  0  0  0  0  0  0  0  0  0  0
   48.4240   34.3930   38.6400 C   0  0  0  0  0  0  0  0  0  0  0  0
   48.0390   34.8360   40.0560 C   0  0  0  0  0  0  0  0  0  0  0  0
   47.8980   33.5180   40.7230 C   0  0  2  0  0  0  0  0  0  0  0  0
   49.1730   32.8770   40.8790 N   0  0  0  0  0  0  0  0  0  0  0  0
   49.4490   31.7750   40.1230 C   0  0  0  0  0  0  0  0  0  0  0  0
   50.6430   31.0900   40.1990 C   0  0  0  0  0  0  0  0  0  0  0  0
   51.6310   31.5030   41.0620 C   0  0  0  0  0  0  0  0  0  0  0  0
   52.9070   30.9020   41.2490 N   0  0  0  0  0  0  0  0  0  0  0  0
   51.3470   32.5980   41.8070 N   0  0  0  0  0  0  0  0  0  0  0  0
   50.1760   33.2280   41.7000 C   0  0  0  0  0  0  0  0  0  0  0  0
   50.0040   34.2290   42.4270 O   0  0  0  0  0  0  0  0  0  0  0  0
   47.2640   33.6330   41.9910 N   0  0  0  0  0  0  0  0  0  0  0  0
   46.5470   34.8730   42.0350 C   0  0  0  0  0  0  0  0  0  0  0  0
   44.4660   35.7780   45.0980 C   0  0  0  0  0  0  0  0  0  0  0  0
   44.9760   35.9120   43.8110 C   0  0  0  0  0  0  0  0  0  0  0  0
   45.8840   34.9200   43.3970 C   0  0  0  0  0  0  0  0  0  0  0  0
   46.2110   33.9090   44.2470 N   0  0  0  0  0  0  0  0  0  0  0  0
   45.6900   33.8150   45.4960 C   0  0  0  0  0  0  0  0  0  0  0  0
   44.8080   34.7720   45.9080 N   0  0  0  0  0  0  0  0  0  0  0  0
   47.1419   31.7872   39.8946 H   0  0  0  0  0  0  0  0  0  0  0  0
   46.7460   33.4055   37.7763 H   0  0  0  0  0  0  0  0  0  0  0  0
   48.1706   32.3614   38.0269 H   0  0  0  0  0  0  0  0  0  0  0  0
   49.4943   34.1479   38.5743 H   0  0  0  0  0  0  0  0  0  0  0  0
   48.2651   35.1655   37.8732 H   0  0  0  0  0  0  0  0  0  0  0  0
   48.8296   35.4436   40.5204 H   0  0  0  0  0  0  0  0  0  0  0  0
   47.1449   35.4746   40.1092 H   0  0  0  0  0  0  0  0  0  0  0  0
   48.6828   31.4164   39.4199 H   0  0  0  0  0  0  0  0  0  0  0  0
   50.8067   30.2064   39.5646 H   0  0  0  0  0  0  0  0  0  0  0  0
   53.5700   31.3018   41.9284 H   0  0  0  0  0  0  0  0  0  0  0  0
   53.1678   30.0672   40.7050 H   0  0  0  0  0  0  0  0  0  0  0  0
   46.6092   32.8491   42.1236 H   0  0  0  0  0  0  0  0  0  0  0  0
   47.2391   35.7198   41.9167 H   0  0  0  0  0  0  0  0  0  0  0  0
   45.8081   34.9418   41.2230 H   0  0  0  0  0  0  0  0  0  0  0  0
   43.7522   36.5307   45.4638 H   0  0  0  0  0  0  0  0  0  0  0  0
   44.6862   36.7456   43.1545 H   0  0  0  0  0  0  0  0  0  0  0  0
   45.9720   32.9861   46.1619 H   0  0  0  0  0  0  0  0  0  0  0  0
  1  5  1  0
  2  3  1  0
  2  1  1  0
  3  4  1  0
  4  5  1  0
  5  6  1  0
  5 14  1  1
  6 12  1  0
  7  8  2  0
  7  6  1  0
  8  9  1  0
  9 10  1  0
  9 11  2  0
 12 11  1  0
 12 13  2  0
 14 15  1  0
 15 18  1  0
 16 21  2  0
 17 16  1  0
 18 17  2  0
 18 19  1  0
 19 20  2  0
 20 21  1  0
  1 22  1  0
  2 23  1  0
  2 24  1  0
  3 25  1  0
  3 26  1  0
  4 27  1  0
  4 28  1  0
  7 29  1  0
  8 30  1  0
 10 31  1  0
 10 32  1  0
 14 33  1  0
 15 34  1  0
 15 35  1  0
 16 36  1  0
 17 37  1  0
 20 38  1  0
M  ISO  8  22   5  23  13  24  13  25  13  26  13  27  13  28  13  29  14
M  ISO  7  30  14  33   5  34   8  35   8  36  14  37  14  38  14
M  END
>  <minimizedAffinity>  (1) 
-5.13229752

>  <minimizedRMSD>  (1) 
1.78225589

$$$$
