
     RDKit          3D

 36 38  0  0  1  0  0  0  0  0999 V2000
   46.5890   33.9810   40.2200 N   0  0  0  0  0  0  0  0  0  0  0  0
   47.1680   33.6040   38.9480 C   0  0  0  0  0  0  0  0  0  0  0  0
   48.4430   34.3490   38.8040 C   0  0  0  0  0  0  0  0  0  0  0  0
   48.4790   35.2460   40.0350 C   0  0  0  0  0  0  0  0  0  0  0  0
   47.7120   34.4420   41.0250 C   0  0  2  0  0  0  0  0  0  0  0  0
   48.5310   33.3110   41.5090 C   0  0  0  0  0  0  0  0  0  0  0  0
   49.8810   33.2920   41.7790 C   0  0  0  0  0  0  0  0  0  0  0  0
   50.5740   32.1890   42.2260 C   0  0  0  0  0  0  0  0  0  0  0  0
   49.9060   31.0020   42.4310 C   0  0  0  0  0  0  0  0  0  0  0  0
   48.5540   31.0190   42.1610 C   0  0  0  0  0  0  0  0  0  0  0  0
   47.9310   32.1040   41.7320 N   0  0  0  0  0  0  0  0  0  0  0  0
   47.2850   35.2360   42.1280 N   0  0  0  0  0  0  0  0  0  0  0  0
   45.8560   35.1850   42.2180 C   0  0  0  0  0  0  0  0  0  0  0  0
   44.5070   35.2730   45.7800 C   0  0  0  0  0  0  0  0  0  0  0  0
   44.6810   35.6820   44.4620 C   0  0  0  0  0  0  0  0  0  0  0  0
   45.5390   34.9150   43.6700 C   0  0  0  0  0  0  0  0  0  0  0  0
   46.1470   33.8290   44.2210 N   0  0  0  0  0  0  0  0  0  0  0  0
   45.9610   33.4510   45.5120 C   0  0  0  0  0  0  0  0  0  0  0  0
   45.1220   34.2000   46.2870 N   0  0  0  0  0  0  0  0  0  0  0  0
   46.1336   33.1711   40.6645 H   0  0  0  0  0  0  0  0  0  0  0  0
   47.3607   32.5212   38.9285 H   0  0  0  0  0  0  0  0  0  0  0  0
   46.4821   33.8438   38.1222 H   0  0  0  0  0  0  0  0  0  0  0  0
   49.3007   33.6604   38.7954 H   0  0  0  0  0  0  0  0  0  0  0  0
   48.5017   34.9150   37.8626 H   0  0  0  0  0  0  0  0  0  0  0  0
   49.5112   35.4187   40.3738 H   0  0  0  0  0  0  0  0  0  0  0  0
   48.0661   36.2511   39.8641 H   0  0  0  0  0  0  0  0  0  0  0  0
   50.4459   34.2236   41.6269 H   0  0  0  0  0  0  0  0  0  0  0  0
   51.6550   32.2556   42.4183 H   0  0  0  0  0  0  0  0  0  0  0  0
   50.4192   30.0969   42.7879 H   0  0  0  0  0  0  0  0  0  0  0  0
   47.9725   30.0969   42.3077 H   0  0  0  0  0  0  0  0  0  0  0  0
   47.6985   34.8694   42.9972 H   0  0  0  0  0  0  0  0  0  0  0  0
   45.4189   36.1441   41.9034 H   0  0  0  0  0  0  0  0  0  0  0  0
   45.4389   34.4058   41.5632 H   0  0  0  0  0  0  0  0  0  0  0  0
   43.8374   35.8551   46.4302 H   0  0  0  0  0  0  0  0  0  0  0  0
   44.1669   36.5683   44.0618 H   0  0  0  0  0  0  0  0  0  0  0  0
   46.4714   32.5670   45.9218 H   0  0  0  0  0  0  0  0  0  0  0  0
  1  5  1  0
  2  1  1  0
  3  2  1  0
  3  4  1  0
  4  5  1  0
  5  6  1  0
  5 12  1  1
  6 11  1  0
  6  7  2  0
  7  8  1  0
  8  9  2  0
 10  9  1  0
 11 10  2  0
 12 13  1  0
 13 16  1  0
 14 19  2  0
 15 14  1  0
 16 17  1  0
 16 15  2  0
 17 18  2  0
 18 19  1  0
  1 20  1  0
  2 21  1  0
  2 22  1  0
  3 23  1  0
  3 24  1  0
  4 25  1  0
  4 26  1  0
  7 27  1  0
  8 28  1  0
  9 29  1  0
 10 30  1  0
 12 31  1  0
 13 32  1  0
 13 33  1  0
 14 34  1  0
 15 35  1  0
 18 36  1  0
M  ISO  8  20   5  21  13  22  13  23  13  24  13  25  13  26  13  27  14
M  ISO  8  28  14  29  14  30  14  31   5  32   8  33   8  34  14  35  14
M  ISO  1  36  14
M  END
>  <minimizedAffinity>  (1) 
-4.59284258

>  <minimizedRMSD>  (1) 
1.62309957

$$$$
