
     RDKit          3D

 39 40  0  0  1  0  0  0  0  0999 V2000
   46.9970   33.2340   40.5550 N   0  0  0  0  0  0  0  0  0  0  0  0
   47.1520   33.1570   39.1220 C   0  0  0  0  0  0  0  0  0  0  0  0
   48.1550   34.1470   38.7340 C   0  0  0  0  0  0  0  0  0  0  0  0
   48.4910   34.8790   40.0120 C   0  0  0  0  0  0  0  0  0  0  0  0
   48.1140   33.9460   41.0960 C   0  0  2  0  0  0  0  0  0  0  0  0
   49.2460   33.1020   41.5480 C   0  0  0  0  0  0  0  0  0  0  0  0
   50.3140   33.8360   42.3200 C   0  0  0  0  0  0  0  0  0  0  0  0
   49.9300   32.2470   40.5510 C   0  0  0  0  0  0  0  0  0  0  0  0
   48.6430   32.1120   42.5660 C   0  0  0  0  0  0  0  0  0  0  0  0
   47.7220   34.6930   42.2630 N   0  0  0  0  0  0  0  0  0  0  0  0
   46.3660   35.1030   42.1580 C   0  0  0  0  0  0  0  0  0  0  0  0
   44.4120   35.6880   45.3630 C   0  0  0  0  0  0  0  0  0  0  0  0
   44.8690   35.9290   44.0550 C   0  0  0  0  0  0  0  0  0  0  0  0
   45.7690   35.0140   43.5350 C   0  0  0  0  0  0  0  0  0  0  0  0
   46.1350   33.9690   44.3190 N   0  0  0  0  0  0  0  0  0  0  0  0
   45.6880   33.7530   45.5690 C   0  0  0  0  0  0  0  0  0  0  0  0
   44.8070   34.6470   46.0800 N   0  0  0  0  0  0  0  0  0  0  0  0
   46.9651   32.2843   40.9523 H   0  0  0  0  0  0  0  0  0  0  0  0
   47.4877   32.1498   38.8343 H   0  0  0  0  0  0  0  0  0  0  0  0
   46.1951   33.3573   38.6178 H   0  0  0  0  0  0  0  0  0  0  0  0
   49.0484   33.6531   38.3242 H   0  0  0  0  0  0  0  0  0  0  0  0
   47.7861   34.8265   37.9516 H   0  0  0  0  0  0  0  0  0  0  0  0
   49.5659   35.1084   40.0553 H   0  0  0  0  0  0  0  0  0  0  0  0
   47.9613   35.8399   40.0901 H   0  0  0  0  0  0  0  0  0  0  0  0
   50.1362   33.7138   43.3986 H   0  0  0  0  0  0  0  0  0  0  0  0
   51.3010   33.4245   42.0622 H   0  0  0  0  0  0  0  0  0  0  0  0
   50.2836   34.9049   42.0622 H   0  0  0  0  0  0  0  0  0  0  0  0
   50.5355   31.4901   41.0710 H   0  0  0  0  0  0  0  0  0  0  0  0
   49.1799   31.7468   39.9207 H   0  0  0  0  0  0  0  0  0  0  0  0
   50.5826   32.8690   39.9207 H   0  0  0  0  0  0  0  0  0  0  0  0
   48.8557   32.4612   43.5872 H   0  0  0  0  0  0  0  0  0  0  0  0
   47.5546   32.0517   42.4183 H   0  0  0  0  0  0  0  0  0  0  0  0
   49.0887   31.1173   42.4183 H   0  0  0  0  0  0  0  0  0  0  0  0
   47.8334   34.1005   43.0981 H   0  0  0  0  0  0  0  0  0  0  0  0
   46.3123   36.1381   41.7897 H   0  0  0  0  0  0  0  0  0  0  0  0
   45.8172   34.4630   41.4514 H   0  0  0  0  0  0  0  0  0  0  0  0
   43.6962   36.3940   45.8094 H   0  0  0  0  0  0  0  0  0  0  0  0
   44.5290   36.7995   43.4748 H   0  0  0  0  0  0  0  0  0  0  0  0
   46.0245   32.8843   46.1539 H   0  0  0  0  0  0  0  0  0  0  0  0
  1  5  1  0
  2  1  1  0
  3  2  1  0
  3  4  1  0
  4  5  1  0
  5  6  1  0
  5 10  1  1
  6  7  1  0
  6  9  1  0
  8  6  1  0
 11 10  1  0
 11 14  1  0
 12 17  2  0
 13 12  1  0
 14 13  2  0
 14 15  1  0
 15 16  2  0
 16 17  1  0
  1 18  1  0
  2 19  1  0
  2 20  1  0
  3 21  1  0
  3 22  1  0
  4 23  1  0
  4 24  1  0
  7 25  1  0
  7 26  1  0
  7 27  1  0
  8 28  1  0
  8 29  1  0
  8 30  1  0
  9 31  1  0
  9 32  1  0
  9 33  1  0
 10 34  1  0
 11 35  1  0
 11 36  1  0
 12 37  1  0
 13 38  1  0
 16 39  1  0
M  ISO  8  18   5  19  13  20  13  21  13  22  13  23  13  24  13  25   8
M  ISO  8  26   8  27   8  28   8  29   8  30   8  31   8  32   8  33   8
M  ISO  6  34   5  35   8  36   8  37  14  38  14  39  14
M  END
>  <minimizedAffinity>  (1) 
-4.5426178

>  <minimizedRMSD>  (1) 
1.39954627

$$$$
