
     RDKit          3D

 34 36  0  0  1  0  0  0  0  0999 V2000
   46.6580   33.6280   39.3180 N   0  0  0  0  0  0  0  0  0  0  0  0
   47.2280   33.5340   37.9940 C   0  0  0  0  0  0  0  0  0  0  0  0
   48.4460   34.3700   37.9570 C   0  0  0  0  0  0  0  0  0  0  0  0
   48.4830   35.0200   39.3350 C   0  0  0  0  0  0  0  0  0  0  0  0
   47.7730   34.0300   40.1710 C   0  0  2  0  0  0  0  0  0  0  0  0
   48.6010   32.8370   40.4300 C   0  0  0  0  0  0  0  0  0  0  0  0
   48.1170   31.5840   40.8080 C   0  0  0  0  0  0  0  0  0  0  0  0
   49.1320   30.7190   40.9790 N   0  0  0  0  0  0  0  0  0  0  0  0
   50.2710   31.3690   40.7240 C   0  0  0  0  0  0  0  0  0  0  0  0
   49.9230   32.6240   40.4020 N   0  0  0  0  0  0  0  0  0  0  0  0
   47.3220   34.6170   41.3970 N   0  0  0  0  0  0  0  0  0  0  0  0
   45.8980   34.5520   41.4410 C   0  0  0  0  0  0  0  0  0  0  0  0
   44.5230   35.9350   44.7180 C   0  0  0  0  0  0  0  0  0  0  0  0
   44.8120   35.9070   43.3380 C   0  0  0  0  0  0  0  0  0  0  0  0
   45.4990   34.7850   42.8760 C   0  0  0  0  0  0  0  0  0  0  0  0
   45.8410   33.8130   43.7630 N   0  0  0  0  0  0  0  0  0  0  0  0
   45.5560   33.8580   45.0810 C   0  0  0  0  0  0  0  0  0  0  0  0
   44.8820   34.9500   45.5460 N   0  0  0  0  0  0  0  0  0  0  0  0
   46.2812   32.7173   39.6172 H   0  0  0  0  0  0  0  0  0  0  0  0
   47.4871   32.4880   37.7732 H   0  0  0  0  0  0  0  0  0  0  0  0
   46.5043   33.8823   37.2424 H   0  0  0  0  0  0  0  0  0  0  0  0
   49.3407   33.7519   37.7912 H   0  0  0  0  0  0  0  0  0  0  0  0
   48.4320   35.1061   37.1397 H   0  0  0  0  0  0  0  0  0  0  0  0
   49.5176   35.1634   39.6799 H   0  0  0  0  0  0  0  0  0  0  0  0
   48.0309   36.0225   39.3608 H   0  0  0  0  0  0  0  0  0  0  0  0
   47.0538   31.3383   40.9467 H   0  0  0  0  0  0  0  0  0  0  0  0
   51.2901   30.9575   40.7690 H   0  0  0  0  0  0  0  0  0  0  0  0
   50.6071   33.3539   40.1567 H   0  0  0  0  0  0  0  0  0  0  0  0
   47.7170   34.0989   42.1948 H   0  0  0  0  0  0  0  0  0  0  0  0
   45.4627   35.3289   40.7953 H   0  0  0  0  0  0  0  0  0  0  0  0
   45.5346   33.5778   41.0820 H   0  0  0  0  0  0  0  0  0  0  0  0
   43.9817   36.8003   45.1280 H   0  0  0  0  0  0  0  0  0  0  0  0
   44.5126   36.7236   42.6645 H   0  0  0  0  0  0  0  0  0  0  0  0
   45.8562   33.0436   45.7568 H   0  0  0  0  0  0  0  0  0  0  0  0
  1  5  1  0
  2  1  1  0
  3  2  1  0
  3  4  1  0
  4  5  1  0
  5  6  1  0
  5 11  1  1
  6  7  2  0
  7  8  1  0
  9  8  2  0
 10  6  1  0
 10  9  1  0
 11 12  1  0
 12 15  1  0
 13 18  2  0
 14 13  1  0
 15 14  2  0
 15 16  1  0
 16 17  2  0
 17 18  1  0
  1 19  1  0
  2 20  1  0
  2 21  1  0
  3 22  1  0
  3 23  1  0
  4 24  1  0
  4 25  1  0
  7 26  1  0
  9 27  1  0
 10 28  1  0
 11 29  1  0
 12 30  1  0
 12 31  1  0
 13 32  1  0
 14 33  1  0
 17 34  1  0
M  ISO  8  19   5  20  13  21  13  22  13  23  13  24  13  25  13  26  14
M  ISO  8  27  14  28   9  29   5  30   8  31   8  32  14  33  14  34  14
M  END
>  <minimizedAffinity>  (1) 
-4.53880978

>  <minimizedRMSD>  (1) 
0.661084771

$$$$
