
     RDKit          3D

 35 37  0  0  1  0  0  0  0  0999 V2000
   46.5180   33.9350   40.1840 N   0  0  0  0  0  0  0  0  0  0  0  0
   47.0680   33.5460   38.8980 C   0  0  0  0  0  0  0  0  0  0  0  0
   48.3660   34.2310   38.7450 C   0  0  0  0  0  0  0  0  0  0  0  0
   48.4390   35.1420   39.9600 C   0  0  0  0  0  0  0  0  0  0  0  0
   47.6710   34.3660   40.9730 C   0  0  2  0  0  0  0  0  0  0  0  0
   48.4620   33.2060   41.4280 C   0  0  0  0  0  0  0  0  0  0  0  0
   49.8060   33.1260   41.6800 C   0  0  0  0  0  0  0  0  0  0  0  0
   50.4650   31.9950   42.1040 C   0  0  0  0  0  0  0  0  0  0  0  0
   49.7610   30.8640   42.2960 N   0  0  0  0  0  0  0  0  0  0  0  0
   48.4360   30.9070   42.0580 C   0  0  0  0  0  0  0  0  0  0  0  0
   47.8150   32.0210   41.6450 N   0  0  0  0  0  0  0  0  0  0  0  0
   47.2760   35.1910   42.0680 N   0  0  0  0  0  0  0  0  0  0  0  0
   45.8460   35.1520   42.1860 C   0  0  0  0  0  0  0  0  0  0  0  0
   44.5160   35.2800   45.7530 C   0  0  0  0  0  0  0  0  0  0  0  0
   44.6880   35.6780   44.4180 C   0  0  0  0  0  0  0  0  0  0  0  0
   45.5470   34.8830   43.6380 C   0  0  0  0  0  0  0  0  0  0  0  0
   46.1510   33.8010   44.2000 N   0  0  0  0  0  0  0  0  0  0  0  0
   45.9600   33.4500   45.4970 C   0  0  0  0  0  0  0  0  0  0  0  0
   45.1320   34.2110   46.2550 N   0  0  0  0  0  0  0  0  0  0  0  0
   46.0494   33.1358   40.6342 H   0  0  0  0  0  0  0  0  0  0  0  0
   47.2125   32.4560   38.8656 H   0  0  0  0  0  0  0  0  0  0  0  0
   46.3839   33.8260   38.0834 H   0  0  0  0  0  0  0  0  0  0  0  0
   49.1941   33.5070   38.7474 H   0  0  0  0  0  0  0  0  0  0  0  0
   48.4486   34.7800   37.7954 H   0  0  0  0  0  0  0  0  0  0  0  0
   49.4795   35.2985   40.2807 H   0  0  0  0  0  0  0  0  0  0  0  0
   48.0438   36.1530   39.7817 H   0  0  0  0  0  0  0  0  0  0  0  0
   50.4050   34.0366   41.5319 H   0  0  0  0  0  0  0  0  0  0  0  0
   51.5501   32.0148   42.2832 H   0  0  0  0  0  0  0  0  0  0  0  0
   47.8412   29.9939   42.2081 H   0  0  0  0  0  0  0  0  0  0  0  0
   47.7045   34.8412   42.9369 H   0  0  0  0  0  0  0  0  0  0  0  0
   45.4125   36.1157   41.8803 H   0  0  0  0  0  0  0  0  0  0  0  0
   45.4132   34.3750   41.5388 H   0  0  0  0  0  0  0  0  0  0  0  0
   43.8527   35.8684   46.4040 H   0  0  0  0  0  0  0  0  0  0  0  0
   44.1797   36.5618   44.0051 H   0  0  0  0  0  0  0  0  0  0  0  0
   46.4643   32.5701   45.9229 H   0  0  0  0  0  0  0  0  0  0  0  0
  1  5  1  0
  2  1  1  0
  3  2  1  0
  3  4  1  0
  4  5  1  0
  5  6  1  0
  5 12  1  1
  6 11  1  0
  6  7  2  0
  7  8  1  0
  8  9  2  0
 10  9  1  0
 11 10  2  0
 12 13  1  0
 13 16  1  0
 14 19  2  0
 15 14  1  0
 16 17  1  0
 16 15  2  0
 17 18  2  0
 18 19  1  0
  1 20  1  0
  2 21  1  0
  2 22  1  0
  3 23  1  0
  3 24  1  0
  4 25  1  0
  4 26  1  0
  7 27  1  0
  8 28  1  0
 10 29  1  0
 12 30  1  0
 13 31  1  0
 13 32  1  0
 14 33  1  0
 15 34  1  0
 18 35  1  0
M  ISO  8  20   5  21  13  22  13  23  13  24  13  25  13  26  13  27  14
M  ISO  8  28  14  29  14  30   5  31   8  32   8  33  14  34  14  35  14
M  END
>  <minimizedAffinity>  (1) 
-4.49060774

>  <minimizedRMSD>  (1) 
1.56472778

$$$$
