
     RDKit          3D

 34 36  0  0  1  0  0  0  0  0999 V2000
   46.4150   33.9670   40.1590 N   0  0  0  0  0  0  0  0  0  0  0  0
   46.9890   33.5380   38.9020 C   0  0  0  0  0  0  0  0  0  0  0  0
   48.3020   34.1990   38.7550 C   0  0  0  0  0  0  0  0  0  0  0  0
   48.4180   35.0610   40.0010 C   0  0  0  0  0  0  0  0  0  0  0  0
   47.5730   34.3400   40.9680 C   0  0  2  0  0  0  0  0  0  0  0  0
   48.2560   33.1020   41.4420 C   0  0  0  0  0  0  0  0  0  0  0  0
   48.0040   31.7460   41.6090 C   0  0  0  0  0  0  0  0  0  0  0  0
   49.0370   31.0080   42.1240 C   0  0  0  0  0  0  0  0  0  0  0  0
   50.2120   31.5630   42.4440 C   0  0  0  0  0  0  0  0  0  0  0  0
   49.9020   33.3220   41.9950 S   0  0  0  0  0  0  0  0  0  0  0  0
   47.1890   35.1910   42.0590 N   0  0  0  0  0  0  0  0  0  0  0  0
   45.7660   35.1390   42.1740 C   0  0  0  0  0  0  0  0  0  0  0  0
   44.5150   35.2800   45.7830 C   0  0  0  0  0  0  0  0  0  0  0  0
   44.6450   35.6970   44.4520 C   0  0  0  0  0  0  0  0  0  0  0  0
   45.4670   34.9130   43.6360 C   0  0  0  0  0  0  0  0  0  0  0  0
   46.0740   33.8210   44.1750 N   0  0  0  0  0  0  0  0  0  0  0  0
   45.9320   33.4410   45.4680 C   0  0  0  0  0  0  0  0  0  0  0  0
   45.1280   34.2090   46.2620 N   0  0  0  0  0  0  0  0  0  0  0  0
   45.8904   33.1996   40.6027 H   0  0  0  0  0  0  0  0  0  0  0  0
   47.1183   32.4456   38.9033 H   0  0  0  0  0  0  0  0  0  0  0  0
   46.3274   33.8084   38.0658 H   0  0  0  0  0  0  0  0  0  0  0  0
   49.1122   33.4560   38.7162 H   0  0  0  0  0  0  0  0  0  0  0  0
   48.3817   34.7827   37.8261 H   0  0  0  0  0  0  0  0  0  0  0  0
   49.4599   35.1183   40.3490 H   0  0  0  0  0  0  0  0  0  0  0  0
   48.1093   36.1048   39.8421 H   0  0  0  0  0  0  0  0  0  0  0  0
   47.0368   31.2937   41.3446 H   0  0  0  0  0  0  0  0  0  0  0  0
   48.8966   29.9281   42.2790 H   0  0  0  0  0  0  0  0  0  0  0  0
   51.1163   31.0960   42.8614 H   0  0  0  0  0  0  0  0  0  0  0  0
   47.6234   34.8590   42.9319 H   0  0  0  0  0  0  0  0  0  0  0  0
   45.3217   36.0870   41.8365 H   0  0  0  0  0  0  0  0  0  0  0  0
   45.3436   34.3369   41.5510 H   0  0  0  0  0  0  0  0  0  0  0  0
   43.8763   35.8676   46.4589 H   0  0  0  0  0  0  0  0  0  0  0  0
   44.1297   36.5906   44.0701 H   0  0  0  0  0  0  0  0  0  0  0  0
   46.4433   32.5504   45.8623 H   0  0  0  0  0  0  0  0  0  0  0  0
  1  5  1  0
  2  1  1  0
  3  2  1  0
  3  4  1  0
  4  5  1  0
  5  6  1  0
  5 11  1  1
  6  7  2  0
  6 10  1  0
  7  8  1  0
  8  9  2  0
 10  9  1  0
 11 12  1  0
 12 15  1  0
 13 18  2  0
 14 13  1  0
 15 16  1  0
 15 14  2  0
 16 17  2  0
 17 18  1  0
  1 19  1  0
  2 20  1  0
  2 21  1  0
  3 22  1  0
  3 23  1  0
  4 24  1  0
  4 25  1  0
  7 26  1  0
  8 27  1  0
  9 28  1  0
 11 29  1  0
 12 30  1  0
 12 31  1  0
 13 32  1  0
 14 33  1  0
 17 34  1  0
M  ISO  8  19   5  20  13  21  13  22  13  23  13  24  13  25  13  26  14
M  ISO  8  27  14  28  14  29   5  30   8  31   8  32  14  33  14  34  14
M  END
>  <minimizedAffinity>  (1) 
-4.45388794

>  <minimizedRMSD>  (1) 
1.47771525

$$$$
