
     RDKit          3D

 34 36  0  0  1  0  0  0  0  0999 V2000
   46.5740   33.7630   40.3680 N   0  0  0  0  0  0  0  0  0  0  0  0
   47.0440   33.3900   39.0490 C   0  0  0  0  0  0  0  0  0  0  0  0
   48.3210   34.0930   38.8010 C   0  0  0  0  0  0  0  0  0  0  0  0
   48.3780   35.0860   39.9560 C   0  0  0  0  0  0  0  0  0  0  0  0
   47.7610   34.3060   41.0450 C   0  0  2  0  0  0  0  0  0  0  0  0
   48.6230   33.1930   41.4890 C   0  0  0  0  0  0  0  0  0  0  0  0
   49.9130   33.4340   41.8960 C   0  0  0  0  0  0  0  0  0  0  0  0
   50.5090   32.2480   42.2590 C   0  0  0  0  0  0  0  0  0  0  0  0
   49.5750   31.3060   42.0680 N   0  0  0  0  0  0  0  0  0  0  0  0
   48.4670   31.8710   41.6140 N   0  0  0  0  0  0  0  0  0  0  0  0
   47.3880   35.1370   42.1460 N   0  0  0  0  0  0  0  0  0  0  0  0
   45.9590   35.1730   42.2090 C   0  0  0  0  0  0  0  0  0  0  0  0
   44.5230   35.2590   45.7530 C   0  0  0  0  0  0  0  0  0  0  0  0
   44.7140   35.6850   44.4280 C   0  0  0  0  0  0  0  0  0  0  0  0
   45.5930   34.9260   43.6500 C   0  0  0  0  0  0  0  0  0  0  0  0
   46.1940   33.8430   44.2160 N   0  0  0  0  0  0  0  0  0  0  0  0
   45.9950   33.4520   45.4940 C   0  0  0  0  0  0  0  0  0  0  0  0
   45.1360   34.1960   46.2500 N   0  0  0  0  0  0  0  0  0  0  0  0
   46.2128   32.9402   40.8714 H   0  0  0  0  0  0  0  0  0  0  0  0
   47.2020   32.3024   39.0032 H   0  0  0  0  0  0  0  0  0  0  0  0
   46.3013   33.6683   38.2868 H   0  0  0  0  0  0  0  0  0  0  0  0
   49.1715   33.3962   38.8330 H   0  0  0  0  0  0  0  0  0  0  0  0
   48.3760   34.5678   37.8103 H   0  0  0  0  0  0  0  0  0  0  0  0
   49.4150   35.3625   40.1974 H   0  0  0  0  0  0  0  0  0  0  0  0
   47.8764   36.0430   39.7499 H   0  0  0  0  0  0  0  0  0  0  0  0
   50.3949   34.4223   41.9269 H   0  0  0  0  0  0  0  0  0  0  0  0
   51.5352   32.1036   42.6280 H   0  0  0  0  0  0  0  0  0  0  0  0
   49.6997   30.2993   42.2466 H   0  0  0  0  0  0  0  0  0  0  0  0
   47.7667   34.7482   43.0214 H   0  0  0  0  0  0  0  0  0  0  0  0
   45.5881   36.1566   41.8850 H   0  0  0  0  0  0  0  0  0  0  0  0
   45.5104   34.4174   41.5473 H   0  0  0  0  0  0  0  0  0  0  0  0
   43.8401   35.8287   46.4003 H   0  0  0  0  0  0  0  0  0  0  0  0
   44.1991   36.5691   44.0241 H   0  0  0  0  0  0  0  0  0  0  0  0
   46.5047   32.5697   45.9084 H   0  0  0  0  0  0  0  0  0  0  0  0
  1  5  1  0
  2  1  1  0
  3  2  1  0
  3  4  1  0
  4  5  1  0
  5  6  1  0
  5 11  1  1
  6 10  2  0
  6  7  1  0
  7  8  2  0
  9  8  1  0
 10  9  1  0
 11 12  1  0
 12 15  1  0
 13 18  2  0
 14 13  1  0
 15 16  1  0
 15 14  2  0
 16 17  2  0
 17 18  1  0
  1 19  1  0
  2 20  1  0
  2 21  1  0
  3 22  1  0
  3 23  1  0
  4 24  1  0
  4 25  1  0
  7 26  1  0
  8 27  1  0
  9 28  1  0
 11 29  1  0
 12 30  1  0
 12 31  1  0
 13 32  1  0
 14 33  1  0
 17 34  1  0
M  ISO  8  19   5  20  13  21  13  22  13  23  13  24  13  25  13  26  14
M  ISO  8  27  14  28   9  29   5  30   8  31   8  32  14  33  14  34  14
M  END
>  <minimizedAffinity>  (1) 
-4.40862322

>  <minimizedRMSD>  (1) 
1.65853906

$$$$
