
     RDKit          3D

 39 41  0  0  1  0  0  0  0  0999 V2000
   47.0210   32.5310   39.8030 N   0  0  0  0  0  0  0  0  0  0  0  0
   47.7090   32.7300   38.5400 C   0  0  0  0  0  0  0  0  0  0  0  0
   48.4350   34.0210   38.6430 C   0  0  0  0  0  0  0  0  0  0  0  0
   48.0100   34.5480   40.0090 C   0  0  0  0  0  0  0  0  0  0  0  0
   47.8480   33.2840   40.7700 C   0  0  2  0  0  0  0  0  0  0  0  0
   49.0630   32.5740   40.8440 N   0  0  0  0  0  0  0  0  0  0  0  0
   48.9990   31.1800   41.2000 C   0  0  0  0  0  0  0  0  0  0  0  0
   50.4990   30.8510   41.2630 C   0  0  0  0  0  0  0  0  0  0  0  0
   51.2150   32.1740   41.4290 C   0  0  0  0  0  0  0  0  0  0  0  0
   50.0780   33.1330   41.7140 C   0  0  0  0  0  0  0  0  0  0  0  0
   47.1230   33.4950   41.9790 N   0  0  0  0  0  0  0  0  0  0  0  0
   46.6760   34.8590   42.0040 C   0  0  0  0  0  0  0  0  0  0  0  0
   44.4490   35.9570   44.9110 C   0  0  0  0  0  0  0  0  0  0  0  0
   45.0210   36.0430   43.6470 C   0  0  0  0  0  0  0  0  0  0  0  0
   45.9180   35.0140   43.3070 C   0  0  0  0  0  0  0  0  0  0  0  0
   46.1570   34.0280   44.2170 N   0  0  0  0  0  0  0  0  0  0  0  0
   45.5760   33.9820   45.4400 C   0  0  0  0  0  0  0  0  0  0  0  0
   44.7060   34.9820   45.7700 N   0  0  0  0  0  0  0  0  0  0  0  0
   46.9853   31.5315   40.0491 H   0  0  0  0  0  0  0  0  0  0  0  0
   46.9820   32.7696   37.7154 H   0  0  0  0  0  0  0  0  0  0  0  0
   48.4044   31.9025   38.3358 H   0  0  0  0  0  0  0  0  0  0  0  0
   49.5233   33.8666   38.6003 H   0  0  0  0  0  0  0  0  0  0  0  0
   48.2037   34.7142   37.8208 H   0  0  0  0  0  0  0  0  0  0  0  0
   48.7862   35.1888   40.4529 H   0  0  0  0  0  0  0  0  0  0  0  0
   47.1100   35.1801   39.9882 H   0  0  0  0  0  0  0  0  0  0  0  0
   48.5069   31.0292   42.1722 H   0  0  0  0  0  0  0  0  0  0  0  0
   48.4157   30.5522   40.5103 H   0  0  0  0  0  0  0  0  0  0  0  0
   50.7095   30.1935   42.1193 H   0  0  0  0  0  0  0  0  0  0  0  0
   50.8326   30.3258   40.3558 H   0  0  0  0  0  0  0  0  0  0  0  0
   51.9244   32.1387   42.2690 H   0  0  0  0  0  0  0  0  0  0  0  0
   51.8171   32.4579   40.5533 H   0  0  0  0  0  0  0  0  0  0  0  0
   50.3335   34.1657   41.4343 H   0  0  0  0  0  0  0  0  0  0  0  0
   49.7911   33.2144   42.7728 H   0  0  0  0  0  0  0  0  0  0  0  0
   46.3114   32.8618   42.0135 H   0  0  0  0  0  0  0  0  0  0  0  0
   47.5350   35.5455   41.9752 H   0  0  0  0  0  0  0  0  0  0  0  0
   46.0454   35.0973   41.1347 H   0  0  0  0  0  0  0  0  0  0  0  0
   43.7427   36.7435   45.2152 H   0  0  0  0  0  0  0  0  0  0  0  0
   44.7866   36.8653   42.9550 H   0  0  0  0  0  0  0  0  0  0  0  0
   45.7975   33.1663   46.1440 H   0  0  0  0  0  0  0  0  0  0  0  0
  1  5  1  0
  2  3  1  0
  2  1  1  0
  3  4  1  0
  4  5  1  0
  5  6  1  0
  5 11  1  1
  6  7  1  0
  6 10  1  0
  7  8  1  0
  8  9  1  0
  9 10  1  0
 11 12  1  0
 12 15  1  0
 13 18  2  0
 14 13  1  0
 15 14  2  0
 15 16  1  0
 16 17  2  0
 17 18  1  0
  1 19  1  0
  2 20  1  0
  2 21  1  0
  3 22  1  0
  3 23  1  0
  4 24  1  0
  4 25  1  0
  7 26  1  0
  7 27  1  0
  8 28  1  0
  8 29  1  0
  9 30  1  0
  9 31  1  0
 10 32  1  0
 10 33  1  0
 11 34  1  0
 12 35  1  0
 12 36  1  0
 13 37  1  0
 14 38  1  0
 17 39  1  0
M  ISO  8  19   5  20  13  21  13  22  13  23  13  24  13  25  13  26  13
M  ISO  8  27  13  28  13  29  13  30  13  31  13  32  13  33  13  34   5
M  ISO  5  35   8  36   8  37  14  38  14  39  14
M  END
>  <minimizedAffinity>  (1) 
-4.36995268

>  <minimizedRMSD>  (1) 
1.7942462

$$$$
