
     RDKit          3D

 34 36  0  0  1  0  0  0  0  0999 V2000
   46.4480   33.6970   39.0750 N   0  0  0  0  0  0  0  0  0  0  0  0
   47.0680   33.4620   37.7840 C   0  0  0  0  0  0  0  0  0  0  0  0
   48.4210   34.0620   37.8170 C   0  0  0  0  0  0  0  0  0  0  0  0
   48.4190   34.8260   39.1390 C   0  0  0  0  0  0  0  0  0  0  0  0
   47.5830   33.9430   39.9780 C   0  0  2  0  0  0  0  0  0  0  0  0
   48.2490   32.7120   40.2870 N   0  0  0  0  0  0  0  0  0  0  0  0
   49.4280   32.8670   40.9580 C   0  0  0  0  0  0  0  0  0  0  0  0
   49.9670   31.6080   41.1960 C   0  0  0  0  0  0  0  0  0  0  0  0
   49.1110   30.7220   40.6670 N   0  0  0  0  0  0  0  0  0  0  0  0
   48.0890   31.3910   40.1270 C   0  0  0  0  0  0  0  0  0  0  0  0
   47.1590   34.5920   41.1730 N   0  0  0  0  0  0  0  0  0  0  0  0
   45.7420   34.4210   41.2940 C   0  0  0  0  0  0  0  0  0  0  0  0
   44.5910   35.9820   44.5860 C   0  0  0  0  0  0  0  0  0  0  0  0
   44.8220   35.9220   43.2150 C   0  0  0  0  0  0  0  0  0  0  0  0
   45.4030   34.7380   42.7250 C   0  0  0  0  0  0  0  0  0  0  0  0
   45.6980   33.7470   43.6080 N   0  0  0  0  0  0  0  0  0  0  0  0
   45.4590   33.8390   44.9440 C   0  0  0  0  0  0  0  0  0  0  0  0
   44.8940   34.9880   45.4150 N   0  0  0  0  0  0  0  0  0  0  0  0
   45.9113   32.8720   39.3786 H   0  0  0  0  0  0  0  0  0  0  0  0
   46.4692   33.9321   36.9900 H   0  0  0  0  0  0  0  0  0  0  0  0
   47.1305   32.3833   37.5779 H   0  0  0  0  0  0  0  0  0  0  0  0
   49.1995   33.2849   37.8094 H   0  0  0  0  0  0  0  0  0  0  0  0
   48.6370   34.6984   36.9461 H   0  0  0  0  0  0  0  0  0  0  0  0
   49.4352   34.9272   39.5479 H   0  0  0  0  0  0  0  0  0  0  0  0
   48.0500   35.8595   39.0632 H   0  0  0  0  0  0  0  0  0  0  0  0
   49.8755   33.8257   41.2592 H   0  0  0  0  0  0  0  0  0  0  0  0
   50.9099   31.3830   41.7159 H   0  0  0  0  0  0  0  0  0  0  0  0
   47.2328   30.9219   39.6201 H   0  0  0  0  0  0  0  0  0  0  0  0
   47.6320   34.1712   41.9854 H   0  0  0  0  0  0  0  0  0  0  0  0
   45.2154   35.1086   40.6158 H   0  0  0  0  0  0  0  0  0  0  0  0
   45.4368   33.3987   41.0262 H   0  0  0  0  0  0  0  0  0  0  0  0
   44.1371   36.8933   45.0026 H   0  0  0  0  0  0  0  0  0  0  0  0
   44.5635   36.7578   42.5482 H   0  0  0  0  0  0  0  0  0  0  0  0
   45.7135   33.0124   45.6237 H   0  0  0  0  0  0  0  0  0  0  0  0
  1  5  1  0
  2  3  1  0
  2  1  1  0
  3  4  1  0
  4  5  1  0
  5  6  1  0
  5 11  1  1
  6  7  1  0
  7  8  2  0
  9  8  1  0
 10  6  1  0
 10  9  2  0
 11 12  1  0
 12 15  1  0
 13 18  2  0
 14 13  1  0
 15 14  2  0
 15 16  1  0
 16 17  2  0
 17 18  1  0
  1 19  1  0
  2 20  1  0
  2 21  1  0
  3 22  1  0
  3 23  1  0
  4 24  1  0
  4 25  1  0
  7 26  1  0
  8 27  1  0
 10 28  1  0
 11 29  1  0
 12 30  1  0
 12 31  1  0
 13 32  1  0
 14 33  1  0
 17 34  1  0
M  ISO  8  19   5  20  13  21  13  22  13  23  13  24  13  25  13  26  14
M  ISO  8  27  14  28  14  29   5  30   8  31   8  32  14  33  14  34  14
M  END
>  <minimizedAffinity>  (1) 
-4.36208868

>  <minimizedRMSD>  (1) 
0.437943041

$$$$
