
     RDKit          3D

 34 36  0  0  1  0  0  0  0  0999 V2000
   46.3820   33.8720   40.0650 N   0  0  0  0  0  0  0  0  0  0  0  0
   46.8700   33.4990   38.7540 C   0  0  0  0  0  0  0  0  0  0  0  0
   48.2350   34.0510   38.6080 C   0  0  0  0  0  0  0  0  0  0  0  0
   48.3610   34.9710   39.8280 C   0  0  0  0  0  0  0  0  0  0  0  0
   47.5860   34.2140   40.8320 C   0  0  2  0  0  0  0  0  0  0  0  0
   48.2690   33.0130   41.2340 N   0  0  0  0  0  0  0  0  0  0  0  0
   47.6210   31.8930   41.5450 N   0  0  0  0  0  0  0  0  0  0  0  0
   48.4550   30.9140   41.8870 C   0  0  0  0  0  0  0  0  0  0  0  0
   49.7350   31.4020   41.8030 C   0  0  0  0  0  0  0  0  0  0  0  0
   49.5680   32.7090   41.3940 C   0  0  0  0  0  0  0  0  0  0  0  0
   47.2630   35.0190   41.9650 N   0  0  0  0  0  0  0  0  0  0  0  0
   45.8360   35.0830   42.0700 C   0  0  0  0  0  0  0  0  0  0  0  0
   44.5430   35.3240   45.6570 C   0  0  0  0  0  0  0  0  0  0  0  0
   44.6860   35.7090   44.3260 C   0  0  0  0  0  0  0  0  0  0  0  0
   45.5140   34.8990   43.5360 C   0  0  0  0  0  0  0  0  0  0  0  0
   46.1120   33.8160   44.1030 N   0  0  0  0  0  0  0  0  0  0  0  0
   45.9500   33.4690   45.4070 C   0  0  0  0  0  0  0  0  0  0  0  0
   45.1420   34.2610   46.1720 N   0  0  0  0  0  0  0  0  0  0  0  0
   45.8840   33.0845   40.5040 H   0  0  0  0  0  0  0  0  0  0  0  0
   46.8973   32.4032   38.6623 H   0  0  0  0  0  0  0  0  0  0  0  0
   46.2084   33.8953   37.9696 H   0  0  0  0  0  0  0  0  0  0  0  0
   48.9905   33.2520   38.6345 H   0  0  0  0  0  0  0  0  0  0  0  0
   48.3948   34.5709   37.6519 H   0  0  0  0  0  0  0  0  0  0  0  0
   49.4101   35.0931   40.1354 H   0  0  0  0  0  0  0  0  0  0  0  0
   48.0052   35.9983   39.6603 H   0  0  0  0  0  0  0  0  0  0  0  0
   48.1691   29.8943   42.1843 H   0  0  0  0  0  0  0  0  0  0  0  0
   50.6764   30.8733   42.0132 H   0  0  0  0  0  0  0  0  0  0  0  0
   50.3946   33.4138   41.2206 H   0  0  0  0  0  0  0  0  0  0  0  0
   47.6577   34.5969   42.8176 H   0  0  0  0  0  0  0  0  0  0  0  0
   45.4709   36.0594   41.7187 H   0  0  0  0  0  0  0  0  0  0  0  0
   45.3529   34.3112   41.4528 H   0  0  0  0  0  0  0  0  0  0  0  0
   43.9017   35.9321   46.3119 H   0  0  0  0  0  0  0  0  0  0  0  0
   44.1792   36.5963   43.9187 H   0  0  0  0  0  0  0  0  0  0  0  0
   46.4500   32.5850   45.8297 H   0  0  0  0  0  0  0  0  0  0  0  0
  1  5  1  0
  2  1  1  0
  3  2  1  0
  3  4  1  0
  4  5  1  0
  5  6  1  0
  5 11  1  1
  6 10  1  0
  6  7  1  0
  7  8  2  0
  9  8  1  0
 10  9  2  0
 11 12  1  0
 12 15  1  0
 13 18  2  0
 14 13  1  0
 15 16  1  0
 15 14  2  0
 16 17  2  0
 17 18  1  0
  1 19  1  0
  2 20  1  0
  2 21  1  0
  3 22  1  0
  3 23  1  0
  4 24  1  0
  4 25  1  0
  8 26  1  0
  9 27  1  0
 10 28  1  0
 11 29  1  0
 12 30  1  0
 12 31  1  0
 13 32  1  0
 14 33  1  0
 17 34  1  0
M  ISO  8  19   5  20  13  21  13  22  13  23  13  24  13  25  13  26  14
M  ISO  8  27  14  28  14  29   5  30   8  31   8  32  14  33  14  34  14
M  END
>  <minimizedAffinity>  (1) 
-4.35605669

>  <minimizedRMSD>  (1) 
1.30535233

$$$$
