
     RDKit          3D

 30 31  0  0  1  0  0  0  0  0999 V2000
   46.6060   33.6890   39.0940 N   0  0  0  0  0  0  0  0  0  0  0  0
   47.1910   33.5540   37.7700 C   0  0  0  0  0  0  0  0  0  0  0  0
   48.4660   34.3020   37.7620 C   0  0  0  0  0  0  0  0  0  0  0  0
   48.4860   34.9620   39.1350 C   0  0  0  0  0  0  0  0  0  0  0  0
   47.7650   33.9720   39.9540 C   0  0  1  0  0  0  0  0  0  0  0  0
   47.3500   34.5250   41.2070 N   0  0  0  0  0  0  0  0  0  0  0  0
   45.9180   34.4850   41.2480 C   0  0  0  0  0  0  0  0  0  0  0  0
   44.6050   35.9770   44.5090 C   0  0  0  0  0  0  0  0  0  0  0  0
   44.8820   35.9240   43.1420 C   0  0  0  0  0  0  0  0  0  0  0  0
   45.5280   34.7820   42.6730 C   0  0  0  0  0  0  0  0  0  0  0  0
   45.8480   33.8000   43.5570 N   0  0  0  0  0  0  0  0  0  0  0  0
   45.5710   33.8670   44.8860 C   0  0  0  0  0  0  0  0  0  0  0  0
   44.9370   34.9860   45.3470 N   0  0  0  0  0  0  0  0  0  0  0  0
   48.5130   32.7370   40.1780 C   0  0  0  0  0  0  0  0  0  0  0  0
   48.0720   31.5690   40.3440 O   0  0  0  0  0  0  0  0  0  0  0  0
   49.9130   32.6080   40.2530 O   0  0  0  0  0  0  0  0  0  0  0  0
   46.1389   32.8170   39.3808 H   0  0  0  0  0  0  0  0  0  0  0  0
   47.3782   32.4926   37.5499 H   0  0  0  0  0  0  0  0  0  0  0  0
   46.5074   33.9510   37.0051 H   0  0  0  0  0  0  0  0  0  0  0  0
   49.3220   33.6225   37.6377 H   0  0  0  0  0  0  0  0  0  0  0  0
   48.5403   35.0224   36.9341 H   0  0  0  0  0  0  0  0  0  0  0  0
   49.5152   35.1068   39.4951 H   0  0  0  0  0  0  0  0  0  0  0  0
   48.0389   35.9669   39.1535 H   0  0  0  0  0  0  0  0  0  0  0  0
   47.7388   33.9689   41.9819 H   0  0  0  0  0  0  0  0  0  0  0  0
   45.4961   35.2430   40.5716 H   0  0  0  0  0  0  0  0  0  0  0  0
   45.5356   33.5057   40.9243 H   0  0  0  0  0  0  0  0  0  0  0  0
   44.0957   36.8645   44.9127 H   0  0  0  0  0  0  0  0  0  0  0  0
   44.6032   36.7459   42.4661 H   0  0  0  0  0  0  0  0  0  0  0  0
   45.8477   33.0486   45.5669 H   0  0  0  0  0  0  0  0  0  0  0  0
   50.3206   31.7194   40.4091 H   0  0  0  0  0  0  0  0  0  0  0  0
  1  5  1  0
  2  1  1  0
  3  2  1  0
  3  4  1  0
  4  5  1  0
  5 14  1  0
  5  6  1  1
  6  7  1  0
  7 10  1  0
  8 13  2  0
  9  8  1  0
 10  9  2  0
 10 11  1  0
 11 12  2  0
 12 13  1  0
 14 16  1  0
 14 15  2  0
  1 17  1  0
  2 18  1  0
  2 19  1  0
  3 20  1  0
  3 21  1  0
  4 22  1  0
  4 23  1  0
  6 24  1  0
  7 25  1  0
  7 26  1  0
  8 27  1  0
  9 28  1  0
 12 29  1  0
 16 30  1  0
M  ISO  8  17   5  18  13  19  13  20  13  21  13  22  13  23  13  24   5
M  ISO  6  25   8  26   8  27  14  28  14  29  14  30   3
M  END
>  <minimizedAffinity>  (1) 
-4.33432531

>  <minimizedRMSD>  (1) 
0.450659275

$$$$
