
     RDKit          3D

 34 36  0  0  1  0  0  0  0  0999 V2000
   46.4610   33.6030   39.0760 N   0  0  0  0  0  0  0  0  0  0  0  0
   47.0290   33.4870   37.7450 C   0  0  0  0  0  0  0  0  0  0  0  0
   48.4430   33.9240   37.8260 C   0  0  0  0  0  0  0  0  0  0  0  0
   48.4220   34.7660   39.1230 C   0  0  0  0  0  0  0  0  0  0  0  0
   47.5550   33.8530   39.9660 C   0  0  2  0  0  0  0  0  0  0  0  0
   48.3770   32.6250   40.2880 C   0  0  0  0  0  0  0  0  0  0  0  0
   49.5620   32.7110   41.2150 C   0  0  0  0  0  0  0  0  0  0  0  0
   48.2960   31.9090   41.5660 C   0  0  0  0  0  0  0  0  0  0  0  0
   47.1700   34.5300   41.1650 N   0  0  0  0  0  0  0  0  0  0  0  0
   45.7340   34.4990   41.2690 C   0  0  0  0  0  0  0  0  0  0  0  0
   44.5860   35.9850   44.5830 C   0  0  0  0  0  0  0  0  0  0  0  0
   44.8310   35.9100   43.2020 C   0  0  0  0  0  0  0  0  0  0  0  0
   45.4130   34.7430   42.7170 C   0  0  0  0  0  0  0  0  0  0  0  0
   45.7110   33.7480   43.5990 N   0  0  0  0  0  0  0  0  0  0  0  0
   45.4690   33.8370   44.9270 C   0  0  0  0  0  0  0  0  0  0  0  0
   44.9000   34.9750   45.4040 N   0  0  0  0  0  0  0  0  0  0  0  0
   45.9835   32.7283   39.3363 H   0  0  0  0  0  0  0  0  0  0  0  0
   46.4767   34.1294   37.0434 H   0  0  0  0  0  0  0  0  0  0  0  0
   46.9634   32.4500   37.3841 H   0  0  0  0  0  0  0  0  0  0  0  0
   49.1259   33.0661   37.9131 H   0  0  0  0  0  0  0  0  0  0  0  0
   48.7992   34.4688   36.9392 H   0  0  0  0  0  0  0  0  0  0  0  0
   49.4273   34.8947   39.5505 H   0  0  0  0  0  0  0  0  0  0  0  0
   48.0650   35.8010   39.0162 H   0  0  0  0  0  0  0  0  0  0  0  0
   48.2232   32.3128   39.2445 H   0  0  0  0  0  0  0  0  0  0  0  0
   50.4998   32.1913   40.9692 H   0  0  0  0  0  0  0  0  0  0  0  0
   50.1433   33.5184   41.6842 H   0  0  0  0  0  0  0  0  0  0  0  0
   47.6191   32.2680   42.3553 H   0  0  0  0  0  0  0  0  0  0  0  0
   48.0918   30.8697   41.8630 H   0  0  0  0  0  0  0  0  0  0  0  0
   47.5872   34.0575   41.9796 H   0  0  0  0  0  0  0  0  0  0  0  0
   45.2892   35.2858   40.6420 H   0  0  0  0  0  0  0  0  0  0  0  0
   45.3279   33.5363   40.9251 H   0  0  0  0  0  0  0  0  0  0  0  0
   44.1261   36.8934   44.9992 H   0  0  0  0  0  0  0  0  0  0  0  0
   44.5728   36.7417   42.5299 H   0  0  0  0  0  0  0  0  0  0  0  0
   45.7264   33.0089   45.6037 H   0  0  0  0  0  0  0  0  0  0  0  0
  1  5  1  0
  2  3  1  0
  2  1  1  0
  3  4  1  0
  4  5  1  0
  5  6  1  0
  5  9  1  1
  6  7  1  0
  6  8  1  0
  7  8  1  0
  9 10  1  0
 10 13  1  0
 11 16  2  0
 12 11  1  0
 13 12  2  0
 13 14  1  0
 14 15  2  0
 15 16  1  0
  1 17  1  0
  2 18  1  0
  2 19  1  0
  3 20  1  0
  3 21  1  0
  4 22  1  0
  4 23  1  0
  6 24  1  0
  7 25  1  0
  7 26  1  0
  8 27  1  0
  8 28  1  0
  9 29  1  0
 10 30  1  0
 10 31  1  0
 11 32  1  0
 12 33  1  0
 15 34  1  0
M  ISO  8  17   5  18  13  19  13  20  13  21  13  22  13  23  13  24  13
M  ISO  8  25  13  26  13  27  13  28  13  29   5  30   8  31   8  32  14
M  ISO  2  33  14  34  14
M  END
>  <minimizedAffinity>  (1) 
-4.17689419

>  <minimizedRMSD>  (1) 
0.791195691

$$$$
