
     RDKit          3D

 41 43  0  0  1  0  0  0  0  0999 V2000
   45.6140   34.2580   41.5800 C   0  0  0  0  0  0  0  0  0  0  0  0
   44.3820   36.0550   44.7150 C   0  0  0  0  0  0  0  0  0  0  0  0
   44.6070   35.8420   43.3430 C   0  0  0  0  0  0  0  0  0  0  0  0
   45.2830   34.6580   42.9950 C   0  0  0  0  0  0  0  0  0  0  0  0
   45.6700   33.8120   43.9780 N   0  0  0  0  0  0  0  0  0  0  0  0
   45.4420   34.0400   45.2770 C   0  0  0  0  0  0  0  0  0  0  0  0
   44.7850   35.1860   45.6430 N   0  0  0  0  0  0  0  0  0  0  0  0
   45.8420   33.1610   46.3230 N   0  0  0  0  0  0  0  0  0  0  0  0
   45.1720   33.1090   47.5010 C   0  0  0  0  0  0  0  0  0  0  0  0
   45.5110   32.2750   48.5550 C   0  0  0  0  0  0  0  0  0  0  0  0
   46.6070   31.4650   48.3470 C   0  0  0  0  0  0  0  0  0  0  0  0
   46.9980   30.5900   49.3970 N   0  0  0  0  0  0  0  0  0  0  0  0
   47.2800   31.5050   47.1860 N   0  0  0  0  0  0  0  0  0  0  0  0
   46.9180   32.3350   46.1740 C   0  0  0  0  0  0  0  0  0  0  0  0
   47.5600   32.3620   45.0920 O   0  0  0  0  0  0  0  0  0  0  0  0
   46.9940   34.5600   41.3950 N   0  0  0  0  0  0  0  0  0  0  0  0
   46.3460   33.6090   39.3120 N   0  0  0  0  0  0  0  0  0  0  0  0
   46.9780   33.4000   38.0290 C   0  0  0  0  0  0  0  0  0  0  0  0
   48.2900   34.0810   38.0530 C   0  0  0  0  0  0  0  0  0  0  0  0
   48.2980   34.7720   39.3960 C   0  0  0  0  0  0  0  0  0  0  0  0
   47.4570   33.8880   40.2240 C   0  0  1  0  0  0  0  0  0  0  0  0
   48.0620   32.5790   40.6160 C   0  0  0  0  0  0  0  0  0  0  0  0
   48.2620   32.5350   41.9890 F   0  0  0  0  0  0  0  0  0  0  0  0
   47.2850   31.5040   40.2400 F   0  0  0  0  0  0  0  0  0  0  0  0
   49.2990   32.3630   40.0430 F   0  0  0  0  0  0  0  0  0  0  0  0
   45.4364   33.1820   41.4363 H   0  0  0  0  0  0  0  0  0  0  0  0
   44.9851   34.7941   40.8540 H   0  0  0  0  0  0  0  0  0  0  0  0
   43.8567   36.9677   45.0328 H   0  0  0  0  0  0  0  0  0  0  0  0
   44.2723   36.5628   42.5824 H   0  0  0  0  0  0  0  0  0  0  0  0
   44.3032   33.7716   47.6283 H   0  0  0  0  0  0  0  0  0  0  0  0
   44.9423   32.2604   49.4965 H   0  0  0  0  0  0  0  0  0  0  0  0
   47.8123   29.9711   49.2753 H   0  0  0  0  0  0  0  0  0  0  0  0
   46.4670   30.5749   50.2795 H   0  0  0  0  0  0  0  0  0  0  0  0
   47.1140   35.5767   41.2814 H   0  0  0  0  0  0  0  0  0  0  0  0
   45.8345   32.7655   39.6080 H   0  0  0  0  0  0  0  0  0  0  0  0
   46.3515   33.8236   37.2302 H   0  0  0  0  0  0  0  0  0  0  0  0
   47.1076   32.3248   37.8361 H   0  0  0  0  0  0  0  0  0  0  0  0
   49.1126   33.3544   37.9787 H   0  0  0  0  0  0  0  0  0  0  0  0
   48.4305   34.7748   37.2110 H   0  0  0  0  0  0  0  0  0  0  0  0
   49.3187   34.8403   39.8003 H   0  0  0  0  0  0  0  0  0  0  0  0
   47.9311   35.8082   39.3545 H   0  0  0  0  0  0  0  0  0  0  0  0
  1  4  1  0
  2  7  2  0
  3  2  1  0
  4  3  2  0
  4  5  1  0
  5  6  2  0
  6  7  1  0
  6  8  1  0
  8  9  1  0
  9 10  2  0
 11 10  1  0
 11 12  1  0
 13 11  2  0
 14  8  1  0
 14 13  1  0
 15 14  2  0
 16  1  1  0
 17 21  1  0
 18 19  1  0
 18 17  1  0
 19 20  1  0
 20 21  1  0
 21 22  1  0
 21 16  1  1
 22 23  1  0
 24 22  1  0
 25 22  1  0
  1 26  1  0
  1 27  1  0
  2 28  1  0
  3 29  1  0
  9 30  1  0
 10 31  1  0
 12 32  1  0
 12 33  1  0
 16 34  1  0
 17 35  1  0
 18 36  1  0
 18 37  1  0
 19 38  1  0
 19 39  1  0
 20 40  1  0
 20 41  1  0
M  ISO  8  26   8  27   8  28  14  29  14  30  14  31  14  34   5  35   5
M  ISO  6  36  13  37  13  38  13  39  13  40  13  41  13
M  END
>  <minimizedAffinity>  (1) 
-6.4244194

>  <minimizedRMSD>  (1) 
0.561661363

$$$$
