
     RDKit          3D

 46 49  0  0  1  0  0  0  0  0999 V2000
   45.8880   34.7690   41.2900 C   0  0  0  0  0  0  0  0  0  0  0  0
   44.6160   35.6240   44.7750 C   0  0  0  0  0  0  0  0  0  0  0  0
   44.8200   35.7870   43.3970 C   0  0  0  0  0  0  0  0  0  0  0  0
   45.5570   34.7890   42.7670 C   0  0  0  0  0  0  0  0  0  0  0  0
   46.0090   33.7640   43.5100 N   0  0  0  0  0  0  0  0  0  0  0  0
   45.8090   33.6120   44.8350 C   0  0  0  0  0  0  0  0  0  0  0  0
   45.0930   34.5810   45.4480 N   0  0  0  0  0  0  0  0  0  0  0  0
   46.4160   32.4020   45.3700 C   0  0  0  0  0  0  0  0  0  0  0  0
   47.2240   31.6120   44.5840 C   0  0  0  0  0  0  0  0  0  0  0  0
   47.8300   30.4620   45.0130 C   0  0  0  0  0  0  0  0  0  0  0  0
   47.6540   30.0210   46.3050 C   0  0  0  0  0  0  0  0  0  0  0  0
   46.8590   30.7660   47.1370 C   0  0  0  0  0  0  0  0  0  0  0  0
   46.6630   30.3510   48.4370 C   0  0  0  0  0  0  0  0  0  0  0  0
   45.8720   31.0670   49.3120 C   0  0  0  0  0  0  0  0  0  0  0  0
   45.2760   32.2330   48.8290 C   0  0  0  0  0  0  0  0  0  0  0  0
   45.5040   32.6010   47.5270 C   0  0  0  0  0  0  0  0  0  0  0  0
   46.2830   31.9090   46.6370 C   0  0  0  0  0  0  0  0  0  0  0  0
   47.3090   34.7340   41.2020 N   0  0  0  0  0  0  0  0  0  0  0  0
   46.4850   33.7420   39.1800 N   0  0  0  0  0  0  0  0  0  0  0  0
   47.0200   33.4780   37.8660 C   0  0  0  0  0  0  0  0  0  0  0  0
   48.3340   34.1470   37.7690 C   0  0  0  0  0  0  0  0  0  0  0  0
   48.4750   34.8670   39.1110 C   0  0  0  0  0  0  0  0  0  0  0  0
   47.6560   34.0150   40.0010 C   0  0  1  0  0  0  0  0  0  0  0  0
   48.2410   32.6850   40.3740 C   0  0  0  0  0  0  0  0  0  0  0  0
   48.4900   32.6360   41.7400 F   0  0  0  0  0  0  0  0  0  0  0  0
   47.4310   31.6310   40.0310 F   0  0  0  0  0  0  0  0  0  0  0  0
   49.4600   32.4560   39.7580 F   0  0  0  0  0  0  0  0  0  0  0  0
   45.4543   33.8772   40.8140 H   0  0  0  0  0  0  0  0  0  0  0  0
   45.4759   35.6492   40.7748 H   0  0  0  0  0  0  0  0  0  0  0  0
   44.0402   36.3871   45.3191 H   0  0  0  0  0  0  0  0  0  0  0  0
   44.4212   36.6522   42.8471 H   0  0  0  0  0  0  0  0  0  0  0  0
   47.3938   31.9252   43.5433 H   0  0  0  0  0  0  0  0  0  0  0  0
   48.4619   29.8864   44.3206 H   0  0  0  0  0  0  0  0  0  0  0  0
   48.1369   29.0983   46.6593 H   0  0  0  0  0  0  0  0  0  0  0  0
   47.1486   29.4273   48.7849 H   0  0  0  0  0  0  0  0  0  0  0  0
   45.7174   30.7323   50.3484 H   0  0  0  0  0  0  0  0  0  0  0  0
   44.6353   32.8457   49.4802 H   0  0  0  0  0  0  0  0  0  0  0  0
   45.0238   33.5239   47.1696 H   0  0  0  0  0  0  0  0  0  0  0  0
   47.6815   35.6932   41.1567 H   0  0  0  0  0  0  0  0  0  0  0  0
   45.9733   32.9222   39.5364 H   0  0  0  0  0  0  0  0  0  0  0  0
   47.1407   32.3941   37.7222 H   0  0  0  0  0  0  0  0  0  0  0  0
   46.3381   33.8575   37.0908 H   0  0  0  0  0  0  0  0  0  0  0  0
   49.1398   33.4107   37.6324 H   0  0  0  0  0  0  0  0  0  0  0  0
   48.4017   34.8304   36.9097 H   0  0  0  0  0  0  0  0  0  0  0  0
   49.5241   34.8977   39.4404 H   0  0  0  0  0  0  0  0  0  0  0  0
   48.1568   35.9197   39.0866 H   0  0  0  0  0  0  0  0  0  0  0  0
  1  4  1  0
  2  7  2  0
  3  2  1  0
  4  3  2  0
  4  5  1  0
  5  6  2  0
  6  8  1  0
  6  7  1  0
  8 17  2  0
  9 10  2  0
  9  8  1  0
 10 11  1  0
 11 12  2  0
 12 13  1  0
 13 14  2  0
 15 14  1  0
 16 15  2  0
 17 12  1  0
 17 16  1  0
 18  1  1  0
 19 23  1  0
 20 19  1  0
 21 20  1  0
 21 22  1  0
 22 23  1  0
 23 24  1  0
 23 18  1  1
 24 25  1  0
 26 24  1  0
 27 24  1  0
  1 28  1  0
  1 29  1  0
  2 30  1  0
  3 31  1  0
  9 32  1  0
 10 33  1  0
 11 34  1  0
 13 35  1  0
 14 36  1  0
 15 37  1  0
 16 38  1  0
 18 39  1  0
 19 40  1  0
 20 41  1  0
 20 42  1  0
 21 43  1  0
 21 44  1  0
 22 45  1  0
 22 46  1  0
M  ISO  8  28   8  29   8  30  14  31  14  32  14  33  14  34  14  35  14
M  ISO  8  36  14  37  14  38  14  39   5  40   5  41  13  42  13  43  13
M  ISO  3  44  13  45  13  46  13
M  END
>  <minimizedAffinity>  (1) 
-6.29732943

>  <minimizedRMSD>  (1) 
0.784609914

$$$$
