
     RDKit          3D

 41 44  0  0  1  0  0  0  0  0999 V2000
   45.9310   35.1310   41.7150 C   0  0  0  0  0  0  0  0  0  0  0  0
   44.5540   35.6040   45.2350 C   0  0  0  0  0  0  0  0  0  0  0  0
   44.7790   35.8960   43.8780 C   0  0  0  0  0  0  0  0  0  0  0  0
   45.5780   34.9920   43.1730 C   0  0  0  0  0  0  0  0  0  0  0  0
   46.0810   33.9110   43.8220 N   0  0  0  0  0  0  0  0  0  0  0  0
   45.8510   33.6530   45.1250 C   0  0  0  0  0  0  0  0  0  0  0  0
   45.0760   34.5190   45.8300 N   0  0  0  0  0  0  0  0  0  0  0  0
   46.4460   32.4780   45.6710 N   0  0  0  0  0  0  0  0  0  0  0  0
   47.2700   31.5820   45.0540 C   0  0  0  0  0  0  0  0  0  0  0  0
   47.6040   30.6180   45.9320 N   0  0  0  0  0  0  0  0  0  0  0  0
   46.9830   30.9250   47.0860 C   0  0  0  0  0  0  0  0  0  0  0  0
   46.9640   30.2950   48.3220 C   0  0  0  0  0  0  0  0  0  0  0  0
   46.2480   30.8250   49.3260 N   0  0  0  0  0  0  0  0  0  0  0  0
   45.5490   31.9580   49.1520 C   0  0  0  0  0  0  0  0  0  0  0  0
   45.5420   32.5960   47.9730 N   0  0  0  0  0  0  0  0  0  0  0  0
   46.2440   32.0970   46.9490 C   0  0  0  0  0  0  0  0  0  0  0  0
   47.3440   34.9680   41.6270 N   0  0  0  0  0  0  0  0  0  0  0  0
   46.4020   33.7750   39.7740 N   0  0  0  0  0  0  0  0  0  0  0  0
   46.8640   33.3810   38.4580 C   0  0  0  0  0  0  0  0  0  0  0  0
   48.1850   34.0180   38.2270 C   0  0  0  0  0  0  0  0  0  0  0  0
   48.3890   34.8660   39.4710 C   0  0  0  0  0  0  0  0  0  0  0  0
   47.6240   34.1210   40.5020 C   0  0  1  0  0  0  0  0  0  0  0  0
   48.2310   32.8490   40.9890 C   0  0  0  0  0  0  0  0  0  0  0  0
   48.6800   32.9910   42.2910 F   0  0  0  0  0  0  0  0  0  0  0  0
   47.3400   31.7880   40.9180 F   0  0  0  0  0  0  0  0  0  0  0  0
   49.3330   32.4600   40.2450 F   0  0  0  0  0  0  0  0  0  0  0  0
   45.4209   34.3559   41.1243 H   0  0  0  0  0  0  0  0  0  0  0  0
   45.6164   36.1080   41.3194 H   0  0  0  0  0  0  0  0  0  0  0  0
   43.9294   36.2872   45.8292 H   0  0  0  0  0  0  0  0  0  0  0  0
   44.3494   36.7875   43.3976 H   0  0  0  0  0  0  0  0  0  0  0  0
   47.6067   31.6385   44.0083 H   0  0  0  0  0  0  0  0  0  0  0  0
   47.5325   29.3664   48.4783 H   0  0  0  0  0  0  0  0  0  0  0  0
   44.9714   32.3704   49.9924 H   0  0  0  0  0  0  0  0  0  0  0  0
   47.7940   35.8850   41.4946 H   0  0  0  0  0  0  0  0  0  0  0  0
   45.9110   32.9962   40.2359 H   0  0  0  0  0  0  0  0  0  0  0  0
   46.9634   32.2866   38.4092 H   0  0  0  0  0  0  0  0  0  0  0  0
   46.1455   33.7004   37.6888 H   0  0  0  0  0  0  0  0  0  0  0  0
   48.9766   33.2600   38.1332 H   0  0  0  0  0  0  0  0  0  0  0  0
   48.2226   34.6039   37.2968 H   0  0  0  0  0  0  0  0  0  0  0  0
   49.4544   34.9305   39.7369 H   0  0  0  0  0  0  0  0  0  0  0  0
   48.0573   35.9076   39.3488 H   0  0  0  0  0  0  0  0  0  0  0  0
  1  4  1  0
  2  7  2  0
  3  2  1  0
  4  5  1  0
  4  3  2  0
  5  6  2  0
  6  8  1  0
  6  7  1  0
  8 16  1  0
  9  8  1  0
  9 10  2  0
 10 11  1  0
 11 12  2  0
 12 13  1  0
 14 13  2  0
 15 14  1  0
 16 11  1  0
 16 15  2  0
 17  1  1  0
 18 22  1  0
 19 18  1  0
 20 19  1  0
 20 21  1  0
 21 22  1  0
 22 23  1  0
 22 17  1  1
 23 24  1  0
 25 23  1  0
 26 23  1  0
  1 27  1  0
  1 28  1  0
  2 29  1  0
  3 30  1  0
  9 31  1  0
 12 32  1  0
 14 33  1  0
 17 34  1  0
 18 35  1  0
 19 36  1  0
 19 37  1  0
 20 38  1  0
 20 39  1  0
 21 40  1  0
 21 41  1  0
M  ISO  8  27   8  28   8  29  14  30  14  31  14  32  14  33  14  34   5
M  ISO  7  35   5  36  13  37  13  38  13  39  13  40  13  41  13
M  END
>  <minimizedAffinity>  (1) 
-6.22995234

>  <minimizedRMSD>  (1) 
0.873107731

$$$$
