
     RDKit          3D

 40 42  0  0  1  0  0  0  0  0999 V2000
   45.8040   34.0470   41.6100 C   0  0  0  0  0  0  0  0  0  0  0  0
   44.3960   36.1260   44.4840 C   0  0  0  0  0  0  0  0  0  0  0  0
   44.7140   35.7940   43.1580 C   0  0  0  0  0  0  0  0  0  0  0  0
   45.3800   34.5750   42.9720 C   0  0  0  0  0  0  0  0  0  0  0  0
   45.6720   33.8060   44.0440 N   0  0  0  0  0  0  0  0  0  0  0  0
   45.3510   34.1570   45.3030 C   0  0  0  0  0  0  0  0  0  0  0  0
   44.7010   35.3400   45.5140 N   0  0  0  0  0  0  0  0  0  0  0  0
   45.7400   33.2190   46.3070 N   0  0  0  0  0  0  0  0  0  0  0  0
   45.1920   33.0760   47.5280 C   0  0  0  0  0  0  0  0  0  0  0  0
   45.6860   32.1230   48.3750 C   0  0  0  0  0  0  0  0  0  0  0  0
   46.7470   31.2990   47.9870 C   0  0  0  0  0  0  0  0  0  0  0  0
   47.2020   30.4250   48.7610 O   0  0  0  0  0  0  0  0  0  0  0  0
   47.2540   31.4950   46.7390 N   0  0  0  0  0  0  0  0  0  0  0  0
   46.7650   32.4450   45.8910 C   0  0  0  0  0  0  0  0  0  0  0  0
   47.3440   32.4860   44.7940 O   0  0  0  0  0  0  0  0  0  0  0  0
   47.1800   34.3840   41.4680 N   0  0  0  0  0  0  0  0  0  0  0  0
   46.5290   33.6320   39.3030 N   0  0  0  0  0  0  0  0  0  0  0  0
   47.1280   33.6190   37.9830 C   0  0  0  0  0  0  0  0  0  0  0  0
   48.3960   34.3780   38.0560 C   0  0  0  0  0  0  0  0  0  0  0  0
   48.4220   34.9000   39.4880 C   0  0  0  0  0  0  0  0  0  0  0  0
   47.6470   33.8670   40.2160 C   0  0  1  0  0  0  0  0  0  0  0  0
   48.3290   32.5520   40.4320 C   0  0  0  0  0  0  0  0  0  0  0  0
   48.5580   32.3560   41.7820 F   0  0  0  0  0  0  0  0  0  0  0  0
   47.5950   31.4930   39.9200 F   0  0  0  0  0  0  0  0  0  0  0  0
   49.5650   32.4850   39.8180 F   0  0  0  0  0  0  0  0  0  0  0  0
   45.6714   32.9560   41.5651 H   0  0  0  0  0  0  0  0  0  0  0  0
   45.1975   34.4834   40.8027 H   0  0  0  0  0  0  0  0  0  0  0  0
   43.8736   37.0740   44.6800 H   0  0  0  0  0  0  0  0  0  0  0  0
   44.4558   36.4515   42.3148 H   0  0  0  0  0  0  0  0  0  0  0  0
   44.3560   33.7187   47.8410 H   0  0  0  0  0  0  0  0  0  0  0  0
   45.2430   32.0030   49.3747 H   0  0  0  0  0  0  0  0  0  0  0  0
   48.0361   30.9039   46.4232 H   0  0  0  0  0  0  0  0  0  0  0  0
   47.2905   35.4079   41.4842 H   0  0  0  0  0  0  0  0  0  0  0  0
   46.0780   32.7285   39.5061 H   0  0  0  0  0  0  0  0  0  0  0  0
   46.4490   34.0930   37.2589 H   0  0  0  0  0  0  0  0  0  0  0  0
   47.3162   32.5858   37.6559 H   0  0  0  0  0  0  0  0  0  0  0  0
   49.2575   33.7223   37.8617 H   0  0  0  0  0  0  0  0  0  0  0  0
   48.4555   35.1821   37.3077 H   0  0  0  0  0  0  0  0  0  0  0  0
   49.4518   34.9671   39.8687 H   0  0  0  0  0  0  0  0  0  0  0  0
   48.0108   35.9147   39.5940 H   0  0  0  0  0  0  0  0  0  0  0  0
  1  4  1  0
  2  7  2  0
  3  2  1  0
  4  3  2  0
  4  5  1  0
  5  6  2  0
  6  7  1  0
  6  8  1  0
  8  9  1  0
  9 10  2  0
 11 10  1  0
 11 12  2  0
 13 11  1  0
 14  8  1  0
 14 13  1  0
 15 14  2  0
 16  1  1  0
 17 21  1  0
 18 19  1  0
 18 17  1  0
 19 20  1  0
 20 21  1  0
 21 22  1  0
 21 16  1  1
 22 23  1  0
 24 22  1  0
 25 22  1  0
  1 26  1  0
  1 27  1  0
  2 28  1  0
  3 29  1  0
  9 30  1  0
 10 31  1  0
 13 32  1  0
 16 33  1  0
 17 34  1  0
 18 35  1  0
 18 36  1  0
 19 37  1  0
 19 38  1  0
 20 39  1  0
 20 40  1  0
M  ISO  8  26   8  27   8  28  14  29  14  30  14  31  14  32   9  33   5
M  ISO  7  34   5  35  13  36  13  37  13  38  13  39  13  40  13
M  END
>  <minimizedAffinity>  (1) 
-6.08000708

>  <minimizedRMSD>  (1) 
0.749628723

$$$$
