
     RDKit          3D

 37 38  0  0  1  0  0  0  0  0999 V2000
   45.7360   34.3800   41.3230 C   0  0  0  0  0  0  0  0  0  0  0  0
   44.5790   36.0410   44.5500 C   0  0  0  0  0  0  0  0  0  0  0  0
   44.8110   35.9240   43.1800 C   0  0  0  0  0  0  0  0  0  0  0  0
   45.4000   34.7150   42.7590 C   0  0  0  0  0  0  0  0  0  0  0  0
   45.7040   33.7500   43.6800 N   0  0  0  0  0  0  0  0  0  0  0  0
   45.4570   33.9180   44.9940 C   0  0  0  0  0  0  0  0  0  0  0  0
   44.8910   35.0750   45.4200 N   0  0  0  0  0  0  0  0  0  0  0  0
   45.7880   32.8920   45.9250 N   0  0  0  0  0  0  0  0  0  0  0  0
   45.2270   32.9650   47.2310 C   0  0  0  0  0  0  0  0  0  0  0  0
   44.5420   33.9870   47.6200 N   0  0  0  0  0  0  0  0  0  0  0  0
   45.4770   31.8260   48.0750 N   0  0  0  0  0  0  0  0  0  0  0  0
   44.1600   33.9710   48.5910 H   0  0  0  0  0  0  0  0  0  0  0  0
   47.1470   34.5730   41.1930 N   0  0  0  0  0  0  0  0  0  0  0  0
   46.4550   33.6390   39.1140 N   0  0  0  0  0  0  0  0  0  0  0  0
   47.0490   33.4790   37.8050 C   0  0  0  0  0  0  0  0  0  0  0  0
   48.3540   34.1750   37.7960 C   0  0  0  0  0  0  0  0  0  0  0  0
   48.4130   34.8230   39.1670 C   0  0  0  0  0  0  0  0  0  0  0  0
   47.5890   33.9230   39.9960 C   0  0  1  0  0  0  0  0  0  0  0  0
   48.2150   32.6140   40.3470 C   0  0  0  0  0  0  0  0  0  0  0  0
   48.4040   32.5330   41.7240 F   0  0  0  0  0  0  0  0  0  0  0  0
   47.4620   31.5390   39.9150 F   0  0  0  0  0  0  0  0  0  0  0  0
   49.4570   32.4440   39.7860 F   0  0  0  0  0  0  0  0  0  0  0  0
   45.4712   33.3354   41.1022 H   0  0  0  0  0  0  0  0  0  0  0  0
   45.1761   35.0140   40.6198 H   0  0  0  0  0  0  0  0  0  0  0  0
   44.1206   36.9658   44.9304 H   0  0  0  0  0  0  0  0  0  0  0  0
   44.5506   36.7250   42.4724 H   0  0  0  0  0  0  0  0  0  0  0  0
   46.4155   32.1192   45.6606 H   0  0  0  0  0  0  0  0  0  0  0  0
   45.1036   31.8043   49.0347 H   0  0  0  0  0  0  0  0  0  0  0  0
   46.0292   31.0327   47.7192 H   0  0  0  0  0  0  0  0  0  0  0  0
   47.3558   35.5801   41.1383 H   0  0  0  0  0  0  0  0  0  0  0  0
   45.9747   32.7753   39.4044 H   0  0  0  0  0  0  0  0  0  0  0  0
   47.1967   32.4099   37.5923 H   0  0  0  0  0  0  0  0  0  0  0  0
   46.3883   33.9050   37.0356 H   0  0  0  0  0  0  0  0  0  0  0  0
   49.1803   33.4615   37.6614 H   0  0  0  0  0  0  0  0  0  0  0  0
   48.4505   34.8986   36.9732 H   0  0  0  0  0  0  0  0  0  0  0  0
   49.4472   34.8668   39.5392 H   0  0  0  0  0  0  0  0  0  0  0  0
   48.0555   35.8633   39.1702 H   0  0  0  0  0  0  0  0  0  0  0  0
  1  4  1  0
  2  7  2  0
  3  2  1  0
  4  3  2  0
  4  5  1  0
  5  6  2  0
  6  7  1  0
  6  8  1  0
  8  9  1  0
  9 10  2  0
  9 11  1  0
 10 12  1  0
 13  1  1  0
 14 18  1  0
 15 14  1  0
 16 15  1  0
 16 17  1  0
 17 18  1  0
 18 19  1  0
 18 13  1  1
 19 20  1  0
 21 19  1  0
 22 19  1  0
  1 23  1  0
  1 24  1  0
  2 25  1  0
  3 26  1  0
  8 27  1  0
 11 28  1  0
 11 29  1  0
 13 30  1  0
 14 31  1  0
 15 32  1  0
 15 33  1  0
 16 34  1  0
 16 35  1  0
 17 36  1  0
 17 37  1  0
M  ISO  8  23   8  24   8  25  14  26  14  30   5  31   5  32  13  33  13
M  ISO  4  34  13  35  13  36  13  37  13
M  END
>  <minimizedAffinity>  (1) 
-5.95069742

>  <minimizedRMSD>  (1) 
0.129469663

$$$$
