
     RDKit          3D

 45 47  0  0  1  0  0  0  0  0999 V2000
   47.1980   34.4220   41.6390 N   0  0  0  0  0  0  0  0  0  0  0  0
   46.5650   33.6330   39.4820 N   0  0  0  0  0  0  0  0  0  0  0  0
   47.1670   33.6060   38.1650 C   0  0  0  0  0  0  0  0  0  0  0  0
   48.4070   34.3950   38.2230 C   0  0  0  0  0  0  0  0  0  0  0  0
   48.4280   34.9390   39.6450 C   0  0  0  0  0  0  0  0  0  0  0  0
   47.6660   33.9120   40.3860 C   0  0  1  0  0  0  0  0  0  0  0  0
   48.3930   32.6210   40.6360 C   0  0  0  0  0  0  0  0  0  0  0  0
   48.7130   32.4930   41.9790 F   0  0  0  0  0  0  0  0  0  0  0  0
   47.6430   31.5300   40.2360 F   0  0  0  0  0  0  0  0  0  0  0  0
   49.5710   32.5280   39.9360 F   0  0  0  0  0  0  0  0  0  0  0  0
   45.8660   33.9610   41.8390 C   0  0  0  0  0  0  0  0  0  0  0  0
   44.4550   35.9570   44.7530 C   0  0  0  0  0  0  0  0  0  0  0  0
   44.7660   35.6740   43.4260 C   0  0  0  0  0  0  0  0  0  0  0  0
   45.4370   34.4580   43.1990 C   0  0  0  0  0  0  0  0  0  0  0  0
   45.7430   33.6410   44.2520 N   0  0  0  0  0  0  0  0  0  0  0  0
   45.4180   33.9660   45.5170 C   0  0  0  0  0  0  0  0  0  0  0  0
   44.7700   35.1280   45.7760 N   0  0  0  0  0  0  0  0  0  0  0  0
   45.7820   33.0460   46.5390 N   0  0  0  0  0  0  0  0  0  0  0  0
   44.9530   32.9720   47.7170 C   0  0  0  0  0  0  0  0  0  0  0  0
   45.2840   31.7960   48.5890 C   0  0  0  0  0  0  0  0  0  0  0  0
   46.7410   31.5700   48.8140 C   0  0  0  0  0  0  0  0  0  0  0  0
   47.6190   32.2540   47.8000 C   0  0  0  0  0  0  0  0  0  0  0  0
   46.9400   32.1770   46.4650 C   0  0  0  0  0  0  0  0  0  0  0  0
   47.2116   35.4518   41.6230 H   0  0  0  0  0  0  0  0  0  0  0  0
   46.1350   32.7236   39.7034 H   0  0  0  0  0  0  0  0  0  0  0  0
   46.4776   34.0454   37.4290 H   0  0  0  0  0  0  0  0  0  0  0  0
   47.3832   32.5710   37.8617 H   0  0  0  0  0  0  0  0  0  0  0  0
   49.2846   33.7594   38.0340 H   0  0  0  0  0  0  0  0  0  0  0  0
   48.4400   35.1903   37.4638 H   0  0  0  0  0  0  0  0  0  0  0  0
   49.4571   35.0226   40.0244 H   0  0  0  0  0  0  0  0  0  0  0  0
   48.0068   35.9511   39.7358 H   0  0  0  0  0  0  0  0  0  0  0  0
   45.2031   34.3664   41.0603 H   0  0  0  0  0  0  0  0  0  0  0  0
   45.8134   32.8637   41.7829 H   0  0  0  0  0  0  0  0  0  0  0  0
   43.9298   36.8963   44.9807 H   0  0  0  0  0  0  0  0  0  0  0  0
   44.5036   36.3584   42.6058 H   0  0  0  0  0  0  0  0  0  0  0  0
   45.0910   33.8932   48.3022 H   0  0  0  0  0  0  0  0  0  0  0  0
   43.9120   32.8530   47.3821 H   0  0  0  0  0  0  0  0  0  0  0  0
   44.8074   31.9520   49.5681 H   0  0  0  0  0  0  0  0  0  0  0  0
   44.9124   30.9060   48.0600 H   0  0  0  0  0  0  0  0  0  0  0  0
   47.0020   31.9496   49.8129 H   0  0  0  0  0  0  0  0  0  0  0  0
   46.9190   30.4887   48.7188 H   0  0  0  0  0  0  0  0  0  0  0  0
   47.7649   33.3068   48.0835 H   0  0  0  0  0  0  0  0  0  0  0  0
   48.6021   31.7626   47.7554 H   0  0  0  0  0  0  0  0  0  0  0  0
   46.6262   31.1433   46.2578 H   0  0  0  0  0  0  0  0  0  0  0  0
   47.6181   32.4874   45.6564 H   0  0  0  0  0  0  0  0  0  0  0  0
  1 11  1  0
  2  6  1  0
  3  4  1  0
  3  2  1  0
  4  5  1  0
  5  6  1  0
  6  7  1  0
  6  1  1  1
  7  8  1  0
  9  7  1  0
 10  7  1  0
 11 14  1  0
 12 17  2  0
 13 12  1  0
 14 13  2  0
 14 15  1  0
 15 16  2  0
 16 17  1  0
 16 18  1  0
 18 19  1  0
 19 20  1  0
 20 21  1  0
 22 21  1  0
 23 18  1  0
 23 22  1  0
  1 24  1  0
  2 25  1  0
  3 26  1  0
  3 27  1  0
  4 28  1  0
  4 29  1  0
  5 30  1  0
  5 31  1  0
 11 32  1  0
 11 33  1  0
 12 34  1  0
 13 35  1  0
 19 36  1  0
 19 37  1  0
 20 38  1  0
 20 39  1  0
 21 40  1  0
 21 41  1  0
 22 42  1  0
 22 43  1  0
 23 44  1  0
 23 45  1  0
M  ISO  8  24   5  25   5  26  13  27  13  28  13  29  13  30  13  31  13
M  ISO  8  32   8  33   8  34  14  35  14  36  13  37  13  38  13  39  13
M  ISO  6  40  13  41  13  42  13  43  13  44  13  45  13
M  END
>  <minimizedAffinity>  (1) 
-5.86564255

>  <minimizedRMSD>  (1) 
0.726418853

$$$$
