
     RDKit          3D

 40 42  0  0  1  0  0  0  0  0999 V2000
   45.7620   34.1320   41.7020 C   0  0  0  0  0  0  0  0  0  0  0  0
   44.4310   35.9410   44.7780 C   0  0  0  0  0  0  0  0  0  0  0  0
   44.6960   35.7230   43.4250 C   0  0  0  0  0  0  0  0  0  0  0  0
   45.3830   34.5440   43.1000 C   0  0  0  0  0  0  0  0  0  0  0  0
   45.7440   33.6980   44.1100 N   0  0  0  0  0  0  0  0  0  0  0  0
   45.4730   33.9410   45.3950 C   0  0  0  0  0  0  0  0  0  0  0  0
   44.8030   35.0850   45.7290 N   0  0  0  0  0  0  0  0  0  0  0  0
   45.8780   33.0080   46.4430 C   0  0  0  0  0  0  0  0  0  0  0  0
   45.1770   32.9710   47.6310 C   0  0  0  0  0  0  0  0  0  0  0  0
   45.5890   32.0660   48.6140 C   0  0  0  0  0  0  0  0  0  0  0  0
   46.6810   31.2610   48.3350 C   0  0  0  0  0  0  0  0  0  0  0  0
   47.3720   31.2990   47.1590 C   0  0  0  0  0  0  0  0  0  0  0  0
   46.9620   32.1940   46.1910 C   0  0  0  0  0  0  0  0  0  0  0  0
   47.1540   34.4570   41.5610 N   0  0  0  0  0  0  0  0  0  0  0  0
   46.5170   33.6550   39.4130 N   0  0  0  0  0  0  0  0  0  0  0  0
   47.1250   33.6040   38.1060 C   0  0  0  0  0  0  0  0  0  0  0  0
   48.3990   34.3530   38.1630 C   0  0  0  0  0  0  0  0  0  0  0  0
   48.4020   34.9170   39.5630 C   0  0  0  0  0  0  0  0  0  0  0  0
   47.6250   33.9190   40.3290 C   0  0  1  0  0  0  0  0  0  0  0  0
   48.3040   32.6100   40.5860 C   0  0  0  0  0  0  0  0  0  0  0  0
   48.5200   32.4430   41.9530 F   0  0  0  0  0  0  0  0  0  0  0  0
   47.5810   31.5450   40.0980 F   0  0  0  0  0  0  0  0  0  0  0  0
   49.5500   32.5190   40.0010 F   0  0  0  0  0  0  0  0  0  0  0  0
   45.6053   33.0518   41.5654 H   0  0  0  0  0  0  0  0  0  0  0  0
   45.1481   34.6468   40.9482 H   0  0  0  0  0  0  0  0  0  0  0  0
   43.8940   36.8553   45.0707 H   0  0  0  0  0  0  0  0  0  0  0  0
   44.3818   36.4400   42.6522 H   0  0  0  0  0  0  0  0  0  0  0  0
   44.3170   33.6357   47.8002 H   0  0  0  0  0  0  0  0  0  0  0  0
   45.0630   31.9957   49.5775 H   0  0  0  0  0  0  0  0  0  0  0  0
   47.0105   30.5495   49.1065 H   0  0  0  0  0  0  0  0  0  0  0  0
   48.2319   30.6349   46.9870 H   0  0  0  0  0  0  0  0  0  0  0  0
   47.4938   32.2569   45.2302 H   0  0  0  0  0  0  0  0  0  0  0  0
   47.2729   35.4801   41.5606 H   0  0  0  0  0  0  0  0  0  0  0  0
   46.0655   32.7571   39.6386 H   0  0  0  0  0  0  0  0  0  0  0  0
   46.4549   34.0638   37.3647 H   0  0  0  0  0  0  0  0  0  0  0  0
   47.3091   32.5603   37.8115 H   0  0  0  0  0  0  0  0  0  0  0  0
   49.2578   33.6841   38.0049 H   0  0  0  0  0  0  0  0  0  0  0  0
   48.4812   35.1263   37.3851 H   0  0  0  0  0  0  0  0  0  0  0  0
   49.4274   35.0022   39.9521 H   0  0  0  0  0  0  0  0  0  0  0  0
   47.9795   35.9309   39.6213 H   0  0  0  0  0  0  0  0  0  0  0  0
  1  4  1  0
  2  7  2  0
  3  2  1  0
  4  3  2  0
  4  5  1  0
  5  6  2  0
  6  7  1  0
  6  8  1  0
  8  9  2  0
  9 10  1  0
 11 10  2  0
 12 11  1  0
 13  8  1  0
 13 12  2  0
 14  1  1  0
 15 19  1  0
 16 17  1  0
 16 15  1  0
 17 18  1  0
 18 19  1  0
 19 20  1  0
 19 14  1  1
 20 21  1  0
 22 20  1  0
 23 20  1  0
  1 24  1  0
  1 25  1  0
  2 26  1  0
  3 27  1  0
  9 28  1  0
 10 29  1  0
 11 30  1  0
 12 31  1  0
 13 32  1  0
 14 33  1  0
 15 34  1  0
 16 35  1  0
 16 36  1  0
 17 37  1  0
 17 38  1  0
 18 39  1  0
 18 40  1  0
M  ISO  8  24   8  25   8  26  14  27  14  28  14  29  14  30  14  31  14
M  ISO  8  32  14  33   5  34   5  35  13  36  13  37  13  38  13  39  13
M  ISO  1  40  13
M  END
>  <minimizedAffinity>  (1) 
-5.70780706

>  <minimizedRMSD>  (1) 
0.587765217

$$$$
