
     RDKit          3D

 43 45  0  0  1  0  0  0  0  0999 V2000
   45.9400   35.0210   42.1740 C   0  0  0  0  0  0  0  0  0  0  0  0
   44.4560   35.3680   45.6640 C   0  0  0  0  0  0  0  0  0  0  0  0
   44.6510   35.6800   44.3190 C   0  0  0  0  0  0  0  0  0  0  0  0
   45.5700   34.8670   43.6380 C   0  0  0  0  0  0  0  0  0  0  0  0
   46.1960   33.8590   44.3050 N   0  0  0  0  0  0  0  0  0  0  0  0
   45.9760   33.5910   45.6080 C   0  0  0  0  0  0  0  0  0  0  0  0
   45.0890   34.3690   46.2860 N   0  0  0  0  0  0  0  0  0  0  0  0
   48.0080   30.4080   47.3540 C   0  0  0  0  0  0  0  0  0  0  0  0
   47.7040   31.4910   48.1460 C   0  0  0  0  0  0  0  0  0  0  0  0
   47.0240   32.5690   47.5830 C   0  0  0  0  0  0  0  0  0  0  0  0
   46.6900   32.4890   46.2460 C   0  0  0  0  0  0  0  0  0  0  0  0
   46.9890   31.4090   45.4430 C   0  0  0  0  0  0  0  0  0  0  0  0
   47.6660   30.3460   46.0170 C   0  0  0  0  0  0  0  0  0  0  0  0
   48.8650   29.0560   48.0690 S   0  0  0  0  0  0  0  0  0  0  0  0
   49.9790   28.5860   47.1880 O   0  0  0  0  0  0  0  0  0  0  0  0
   49.4600   29.5070   49.3730 O   0  0  0  0  0  0  0  0  0  0  0  0
   47.3340   35.3080   42.1480 N   0  0  0  0  0  0  0  0  0  0  0  0
   47.1550   33.0700   41.3580 N   0  0  0  0  0  0  0  0  0  0  0  0
   47.7160   32.3060   40.2700 C   0  0  0  0  0  0  0  0  0  0  0  0
   48.5140   33.2190   39.4280 C   0  0  0  0  0  0  0  0  0  0  0  0
   48.2580   34.5930   40.0510 C   0  0  0  0  0  0  0  0  0  0  0  0
   48.0030   34.2460   41.4620 C   0  0  1  0  0  0  0  0  0  0  0  0
   49.2100   33.8480   42.2610 C   0  0  0  0  0  0  0  0  0  0  0  0
   49.6360   34.9040   43.0470 F   0  0  0  0  0  0  0  0  0  0  0  0
   48.9670   32.7500   43.0640 F   0  0  0  0  0  0  0  0  0  0  0  0
   50.2850   33.4970   41.4730 F   0  0  0  0  0  0  0  0  0  0  0  0
   45.7316   34.0894   41.6274 H   0  0  0  0  0  0  0  0  0  0  0  0
   45.3559   35.8197   41.6934 H   0  0  0  0  0  0  0  0  0  0  0  0
   43.7446   35.9754   46.2427 H   0  0  0  0  0  0  0  0  0  0  0  0
   44.1204   36.5074   43.8252 H   0  0  0  0  0  0  0  0  0  0  0  0
   47.9932   31.5057   49.2072 H   0  0  0  0  0  0  0  0  0  0  0  0
   46.7624   33.4530   48.1831 H   0  0  0  0  0  0  0  0  0  0  0  0
   46.6995   31.3922   44.3819 H   0  0  0  0  0  0  0  0  0  0  0  0
   47.9282   29.4630   45.4157 H   0  0  0  0  0  0  0  0  0  0  0  0
   47.9786   28.0263   48.2443 H   0  0  0  0  0  0  0  0  0  0  0  0
   47.4965   36.1973   41.6544 H   0  0  0  0  0  0  0  0  0  0  0  0
   47.1789   32.5269   42.2329 H   0  0  0  0  0  0  0  0  0  0  0  0
   48.3603   31.5084   40.6685 H   0  0  0  0  0  0  0  0  0  0  0  0
   46.9131   31.8456   39.6756 H   0  0  0  0  0  0  0  0  0  0  0  0
   48.1714   33.1909   38.3831 H   0  0  0  0  0  0  0  0  0  0  0  0
   49.5810   32.9532   39.3991 H   0  0  0  0  0  0  0  0  0  0  0  0
   49.1372   35.2468   39.9526 H   0  0  0  0  0  0  0  0  0  0  0  0
   47.4373   35.1501   39.5755 H   0  0  0  0  0  0  0  0  0  0  0  0
  1  4  1  0
  2  7  2  0
  3  2  1  0
  4  5  1  0
  4  3  2  0
  5  6  2  0
  6 11  1  0
  6  7  1  0
  8 14  1  0
  8  9  2  0
 10  9  1  0
 11 10  2  0
 12 13  2  0
 12 11  1  0
 13  8  1  0
 14 16  2  0
 15 14  2  0
 17  1  1  0
 18 22  1  0
 19 18  1  0
 20 21  1  0
 20 19  1  0
 21 22  1  0
 22 17  1  1
 22 23  1  0
 23 24  1  0
 23 25  1  0
 26 23  1  0
  1 27  1  0
  1 28  1  0
  2 29  1  0
  3 30  1  0
  9 31  1  0
 10 32  1  0
 12 33  1  0
 13 34  1  0
 14 35  1  0
 17 36  1  0
 18 37  1  0
 19 38  1  0
 19 39  1  0
 20 40  1  0
 20 41  1  0
 21 42  1  0
 21 43  1  0
M  ISO  8  27   8  28   8  29  14  30  14  31  14  32  14  33  14  34  14
M  ISO  8  35  11  36   5  37   5  38  13  39  13  40  13  41  13  42  13
M  ISO  1  43  13
M  END
>  <minimizedAffinity>  (1) 
-5.70185661

>  <minimizedRMSD>  (1) 
2.11451554

$$$$
