
     RDKit          3D

 44 46  0  0  1  0  0  0  0  0999 V2000
   47.1960   34.5530   41.1720 N   0  0  0  0  0  0  0  0  0  0  0  0
   46.4480   33.6620   39.0830 N   0  0  0  0  0  0  0  0  0  0  0  0
   47.0240   33.4840   37.7680 C   0  0  0  0  0  0  0  0  0  0  0  0
   48.3440   34.1490   37.7560 C   0  0  0  0  0  0  0  0  0  0  0  0
   48.4300   34.7930   39.1320 C   0  0  0  0  0  0  0  0  0  0  0  0
   47.5870   33.9020   39.9560 C   0  0  1  0  0  0  0  0  0  0  0  0
   48.1820   32.5680   40.2800 C   0  0  0  0  0  0  0  0  0  0  0  0
   48.2990   32.4200   41.6520 F   0  0  0  0  0  0  0  0  0  0  0  0
   47.4480   31.5260   39.7650 F   0  0  0  0  0  0  0  0  0  0  0  0
   49.4640   32.4140   39.7780 F   0  0  0  0  0  0  0  0  0  0  0  0
   45.7760   34.4680   41.2710 C   0  0  0  0  0  0  0  0  0  0  0  0
   44.6180   35.9620   44.5790 C   0  0  0  0  0  0  0  0  0  0  0  0
   44.8620   35.9090   43.2050 C   0  0  0  0  0  0  0  0  0  0  0  0
   45.4350   34.7300   42.7130 C   0  0  0  0  0  0  0  0  0  0  0  0
   45.7150   33.7230   43.5960 N   0  0  0  0  0  0  0  0  0  0  0  0
   45.4690   33.8090   44.9080 C   0  0  0  0  0  0  0  0  0  0  0  0
   44.9140   34.9420   45.4090 N   0  0  0  0  0  0  0  0  0  0  0  0
   45.7810   32.7300   45.7820 N   0  0  0  0  0  0  0  0  0  0  0  0
   46.0630   31.4240   45.2760 C   0  0  0  0  0  0  0  0  0  0  0  0
   46.0800   30.3910   46.3610 C   0  0  0  0  0  0  0  0  0  0  0  0
   45.0200   30.5670   47.3250 N   0  0  0  0  0  0  0  0  0  0  0  0
   45.0320   31.8600   47.9520 C   0  0  0  0  0  0  0  0  0  0  0  0
   45.8300   32.8880   47.2030 C   0  0  0  0  0  0  0  0  0  0  0  0
   47.4878   35.5406   41.1509 H   0  0  0  0  0  0  0  0  0  0  0  0
   45.9392   32.8151   39.3743 H   0  0  0  0  0  0  0  0  0  0  0  0
   47.1439   32.4116   37.5546 H   0  0  0  0  0  0  0  0  0  0  0  0
   46.3682   33.9205   37.0003 H   0  0  0  0  0  0  0  0  0  0  0  0
   49.1521   33.4163   37.6136 H   0  0  0  0  0  0  0  0  0  0  0  0
   48.4507   34.8745   36.9361 H   0  0  0  0  0  0  0  0  0  0  0  0
   49.4669   34.8101   39.4987 H   0  0  0  0  0  0  0  0  0  0  0  0
   48.1021   35.8429   39.1458 H   0  0  0  0  0  0  0  0  0  0  0  0
   45.3036   35.2227   40.6250 H   0  0  0  0  0  0  0  0  0  0  0  0
   45.4117   33.4817   40.9476 H   0  0  0  0  0  0  0  0  0  0  0  0
   44.1664   36.8721   45.0006 H   0  0  0  0  0  0  0  0  0  0  0  0
   44.6162   36.7517   42.5421 H   0  0  0  0  0  0  0  0  0  0  0  0
   45.2904   31.1539   44.5411 H   0  0  0  0  0  0  0  0  0  0  0  0
   47.0614   31.4476   44.8149 H   0  0  0  0  0  0  0  0  0  0  0  0
   45.9736   29.3976   45.9007 H   0  0  0  0  0  0  0  0  0  0  0  0
   47.0340   30.4948   46.8988 H   0  0  0  0  0  0  0  0  0  0  0  0
   44.1172   30.4449   46.8444 H   0  0  0  0  0  0  0  0  0  0  0  0
   43.9945   32.2166   48.0318 H   0  0  0  0  0  0  0  0  0  0  0  0
   45.5105   31.7357   48.9346 H   0  0  0  0  0  0  0  0  0  0  0  0
   46.8794   32.8151   47.5246 H   0  0  0  0  0  0  0  0  0  0  0  0
   45.3879   33.8686   47.4331 H   0  0  0  0  0  0  0  0  0  0  0  0
  1 11  1  0
  2  6  1  0
  3  2  1  0
  4  3  1  0
  4  5  1  0
  5  6  1  0
  6  7  1  0
  6  1  1  1
  7  8  1  0
  9  7  1  0
 10  7  1  0
 11 14  1  0
 12 17  2  0
 13 12  1  0
 14 13  2  0
 14 15  1  0
 15 16  2  0
 16 17  1  0
 16 18  1  0
 18 23  1  0
 19 18  1  0
 19 20  1  0
 20 21  1  0
 21 22  1  0
 23 22  1  0
  1 24  1  0
  2 25  1  0
  3 26  1  0
  3 27  1  0
  4 28  1  0
  4 29  1  0
  5 30  1  0
  5 31  1  0
 11 32  1  0
 11 33  1  0
 12 34  1  0
 13 35  1  0
 19 36  1  0
 19 37  1  0
 20 38  1  0
 20 39  1  0
 21 40  1  0
 22 41  1  0
 22 42  1  0
 23 43  1  0
 23 44  1  0
M  ISO  8  24   5  25   5  26  13  27  13  28  13  29  13  30  13  31  13
M  ISO  8  32   8  33   8  34  14  35  14  36  13  37  13  38  13  39  13
M  ISO  5  40   5  41  13  42  13  43  13  44  13
M  END
>  <minimizedAffinity>  (1) 
-5.69441271

>  <minimizedRMSD>  (1) 
0.0263407212

$$$$
