
     RDKit          3D

 36 38  0  0  1  0  0  0  0  0999 V2000
   47.1930   34.3630   41.6360 N   0  0  0  0  0  0  0  0  0  0  0  0
   46.5320   33.5890   39.4680 N   0  0  0  0  0  0  0  0  0  0  0  0
   47.1200   33.5880   38.1490 C   0  0  0  0  0  0  0  0  0  0  0  0
   48.3730   34.3780   38.2060 C   0  0  0  0  0  0  0  0  0  0  0  0
   48.4010   34.9020   39.6340 C   0  0  0  0  0  0  0  0  0  0  0  0
   47.6500   33.8620   40.3700 C   0  0  1  0  0  0  0  0  0  0  0  0
   48.3720   32.5700   40.5930 C   0  0  0  0  0  0  0  0  0  0  0  0
   48.6870   32.4210   41.9330 F   0  0  0  0  0  0  0  0  0  0  0  0
   47.6190   31.4760   40.1940 F   0  0  0  0  0  0  0  0  0  0  0  0
   49.5530   32.4870   39.8990 F   0  0  0  0  0  0  0  0  0  0  0  0
   45.8640   33.8910   41.8340 C   0  0  0  0  0  0  0  0  0  0  0  0
   44.3860   35.9650   44.6690 C   0  0  0  0  0  0  0  0  0  0  0  0
   44.6930   35.6340   43.3490 C   0  0  0  0  0  0  0  0  0  0  0  0
   45.4220   34.4440   43.1830 C   0  0  0  0  0  0  0  0  0  0  0  0
   45.7740   33.7120   44.2660 N   0  0  0  0  0  0  0  0  0  0  0  0
   45.4560   34.0690   45.5280 C   0  0  0  0  0  0  0  0  0  0  0  0
   44.7470   35.2240   45.7160 N   0  0  0  0  0  0  0  0  0  0  0  0
   45.8990   33.1920   46.5620 N   0  0  0  0  0  0  0  0  0  0  0  0
   47.0040   32.4910   46.8660 C   0  0  0  0  0  0  0  0  0  0  0  0
   46.7920   31.8320   48.0210 N   0  0  0  0  0  0  0  0  0  0  0  0
   45.5480   32.1200   48.4450 C   0  0  0  0  0  0  0  0  0  0  0  0
   45.0110   32.9610   47.5320 N   0  0  0  0  0  0  0  0  0  0  0  0
   47.2022   35.3929   41.6297 H   0  0  0  0  0  0  0  0  0  0  0  0
   46.1100   32.6733   39.6787 H   0  0  0  0  0  0  0  0  0  0  0  0
   46.4238   34.0436   37.4295 H   0  0  0  0  0  0  0  0  0  0  0  0
   47.3317   32.5582   37.8255 H   0  0  0  0  0  0  0  0  0  0  0  0
   49.2476   33.7423   38.0037 H   0  0  0  0  0  0  0  0  0  0  0  0
   48.4063   35.1813   37.4553 H   0  0  0  0  0  0  0  0  0  0  0  0
   49.4325   34.9864   40.0066 H   0  0  0  0  0  0  0  0  0  0  0  0
   47.9737   35.9100   39.7402 H   0  0  0  0  0  0  0  0  0  0  0  0
   45.2040   34.2590   41.0346 H   0  0  0  0  0  0  0  0  0  0  0  0
   45.8180   32.7922   41.8129 H   0  0  0  0  0  0  0  0  0  0  0  0
   43.8155   36.8868   44.8554 H   0  0  0  0  0  0  0  0  0  0  0  0
   44.3862   36.2602   42.4983 H   0  0  0  0  0  0  0  0  0  0  0  0
   47.9283   32.4604   46.2704 H   0  0  0  0  0  0  0  0  0  0  0  0
   45.0619   31.7443   49.3574 H   0  0  0  0  0  0  0  0  0  0  0  0
  1 11  1  0
  2  6  1  0
  3  4  1  0
  3  2  1  0
  4  5  1  0
  5  6  1  0
  6  7  1  0
  6  1  1  1
  7  8  1  0
  9  7  1  0
 10  7  1  0
 11 14  1  0
 12 17  2  0
 13 12  1  0
 14 13  2  0
 14 15  1  0
 15 16  2  0
 16 17  1  0
 16 18  1  0
 18 19  1  0
 18 22  1  0
 19 20  2  0
 20 21  1  0
 22 21  2  0
  1 23  1  0
  2 24  1  0
  3 25  1  0
  3 26  1  0
  4 27  1  0
  4 28  1  0
  5 29  1  0
  5 30  1  0
 11 31  1  0
 11 32  1  0
 12 33  1  0
 13 34  1  0
 19 35  1  0
 21 36  1  0
M  ISO  8  23   5  24   5  25  13  26  13  27  13  28  13  29  13  30  13
M  ISO  6  31   8  32   8  33  14  34  14  35  14  36  14
M  END
>  <minimizedAffinity>  (1) 
-5.48929977

>  <minimizedRMSD>  (1) 
0.761256099

$$$$
