
     RDKit          3D

 20 21  0  0  0  0  0  0  0  0999 V2000
   44.5470   35.7270   44.9070 C   0  0  0  0  0  0  0  0  0  0  0  0
   44.4550   35.7190   43.5060 C   0  0  0  0  0  0  0  0  0  0  0  0
   44.9530   34.6080   42.8170 C   0  0  0  0  0  0  0  0  0  0  0  0
   45.5040   33.5890   43.5320 N   0  0  0  0  0  0  0  0  0  0  0  0
   45.5790   33.6240   44.8820 C   0  0  0  0  0  0  0  0  0  0  0  0
   45.1090   34.6810   45.5780 N   0  0  0  0  0  0  0  0  0  0  0  0
   46.1460   32.5770   45.6560 N   0  0  0  0  0  0  0  0  0  0  0  0
   47.0510   31.7910   45.0040 C   0  0  0  0  0  0  0  0  0  0  0  0
   47.4720   30.8470   45.9330 C   0  0  0  0  0  0  0  0  0  0  0  0
   46.8470   31.0610   47.0890 N   0  0  0  0  0  0  0  0  0  0  0  0
   46.0410   32.1130   46.9230 C   0  0  0  0  0  0  0  0  0  0  0  0
   45.1110   32.8030   47.8490 C   0  0  0  0  0  0  0  0  0  0  0  0
   44.1605   36.5886   45.4711 H   0  0  0  0  0  0  0  0  0  0  0  0
   44.0035   36.5635   42.9648 H   0  0  0  0  0  0  0  0  0  0  0  0
   44.9004   34.5588   41.7194 H   0  0  0  0  0  0  0  0  0  0  0  0
   47.3796   31.8852   43.9585 H   0  0  0  0  0  0  0  0  0  0  0  0
   48.2054   30.0494   45.7433 H   0  0  0  0  0  0  0  0  0  0  0  0
   45.4012   32.5877   48.8880 H   0  0  0  0  0  0  0  0  0  0  0  0
   45.1561   33.8879   47.6730 H   0  0  0  0  0  0  0  0  0  0  0  0
   44.0858   32.4453   47.6730 H   0  0  0  0  0  0  0  0  0  0  0  0
  1  6  2  0
  2  1  1  0
  3  2  2  0
  3  4  1  0
  4  5  2  0
  5  6  1  0
  5  7  1  0
  7 11  1  0
  8  7  1  0
  8  9  2  0
  9 10  1  0
 11 10  2  0
 11 12  1  0
  1 13  1  0
  2 14  1  0
  3 15  1  0
  8 16  1  0
  9 17  1  0
 12 18  1  0
 12 19  1  0
 12 20  1  0
M  ISO  8  13  14  14  14  15  14  16  14  17  14  18   8  19   8  20   8
M  END
>  <minimizedAffinity>  (1) 
-3.81097651

>  <minimizedRMSD>  (1) 
1.36071789

$$$$
