
     RDKit          3D

 43 45  0  0  1  0  0  0  0  0999 V2000
   47.4150   35.0380   42.0580 N   0  0  0  0  0  0  0  0  0  0  0  0
   46.5360   33.9160   40.1460 N   0  0  0  0  0  0  0  0  0  0  0  0
   47.0140   33.6150   38.8150 C   0  0  0  0  0  0  0  0  0  0  0  0
   48.2940   34.3170   38.6190 C   0  0  0  0  0  0  0  0  0  0  0  0
   48.4830   35.0970   39.9180 C   0  0  0  0  0  0  0  0  0  0  0  0
   47.7460   34.2720   40.8940 C   0  0  1  0  0  0  0  0  0  0  0  0
   48.4110   32.9980   41.3110 C   0  0  0  0  0  0  0  0  0  0  0  0
   48.8530   33.0870   42.6160 F   0  0  0  0  0  0  0  0  0  0  0  0
   47.5810   31.9020   41.1770 F   0  0  0  0  0  0  0  0  0  0  0  0
   49.5340   32.7130   40.5510 F   0  0  0  0  0  0  0  0  0  0  0  0
   45.9940   35.1170   42.1560 C   0  0  0  0  0  0  0  0  0  0  0  0
   44.5670   35.2020   45.6840 C   0  0  0  0  0  0  0  0  0  0  0  0
   44.7310   35.5990   44.3600 C   0  0  0  0  0  0  0  0  0  0  0  0
   45.6620   34.8540   43.6140 C   0  0  0  0  0  0  0  0  0  0  0  0
   46.3120   33.8360   44.2130 N   0  0  0  0  0  0  0  0  0  0  0  0
   46.1310   33.4760   45.4960 C   0  0  0  0  0  0  0  0  0  0  0  0
   45.2390   34.1770   46.2380 N   0  0  0  0  0  0  0  0  0  0  0  0
   46.8490   32.3620   46.1310 C   0  0  0  0  0  0  0  0  0  0  0  0
   47.1660   32.5550   47.5810 C   0  0  0  0  0  0  0  0  0  0  0  0
   47.5380   31.1400   48.0180 C   0  0  0  0  0  0  0  0  0  0  0  0
   46.8650   30.2050   47.0090 C   0  0  0  0  0  0  0  0  0  0  0  0
   45.9350   31.1330   46.2150 C   0  0  0  0  0  0  0  0  0  0  0  0
   47.8112   35.9852   41.9754 H   0  0  0  0  0  0  0  0  0  0  0  0
   46.0776   33.0936   40.5637 H   0  0  0  0  0  0  0  0  0  0  0  0
   47.1635   32.5304   38.7089 H   0  0  0  0  0  0  0  0  0  0  0  0
   46.2806   33.9426   38.0635 H   0  0  0  0  0  0  0  0  0  0  0  0
   49.1151   33.6006   38.4689 H   0  0  0  0  0  0  0  0  0  0  0  0
   48.2927   34.9646   37.7298 H   0  0  0  0  0  0  0  0  0  0  0  0
   49.5474   35.1733   40.1849 H   0  0  0  0  0  0  0  0  0  0  0  0
   48.1256   36.1358   39.8624 H   0  0  0  0  0  0  0  0  0  0  0  0
   45.6450   36.1168   41.8585 H   0  0  0  0  0  0  0  0  0  0  0  0
   45.5025   34.3903   41.4925 H   0  0  0  0  0  0  0  0  0  0  0  0
   43.8509   35.7551   46.3095 H   0  0  0  0  0  0  0  0  0  0  0  0
   44.1698   36.4396   43.9259 H   0  0  0  0  0  0  0  0  0  0  0  0
   47.7566   32.2728   45.5159 H   0  0  0  0  0  0  0  0  0  0  0  0
   48.0084   33.2492   47.7166 H   0  0  0  0  0  0  0  0  0  0  0  0
   46.3403   32.9944   48.1599 H   0  0  0  0  0  0  0  0  0  0  0  0
   48.6296   31.0062   47.9961 H   0  0  0  0  0  0  0  0  0  0  0  0
   47.2083   30.9326   49.0467 H   0  0  0  0  0  0  0  0  0  0  0  0
   47.6109   29.7389   46.3484 H   0  0  0  0  0  0  0  0  0  0  0  0
   46.3279   29.3745   47.4906 H   0  0  0  0  0  0  0  0  0  0  0  0
   45.0026   31.3473   46.7579 H   0  0  0  0  0  0  0  0  0  0  0  0
   45.5784   30.7386   45.2520 H   0  0  0  0  0  0  0  0  0  0  0  0
  1 11  1  0
  2  6  1  0
  3  2  1  0
  4  3  1  0
  4  5  1  0
  5  6  1  0
  6  7  1  0
  6  1  1  1
  7  8  1  0
  9  7  1  0
 10  7  1  0
 11 14  1  0
 12 17  2  0
 13 12  1  0
 14 15  1  0
 14 13  2  0
 15 16  2  0
 16 18  1  0
 16 17  1  0
 18 22  1  0
 18 19  1  0
 19 20  1  0
 21 20  1  0
 22 21  1  0
  1 23  1  0
  2 24  1  0
  3 25  1  0
  3 26  1  0
  4 27  1  0
  4 28  1  0
  5 29  1  0
  5 30  1  0
 11 31  1  0
 11 32  1  0
 12 33  1  0
 13 34  1  0
 18 35  1  0
 19 36  1  0
 19 37  1  0
 20 38  1  0
 20 39  1  0
 21 40  1  0
 21 41  1  0
 22 42  1  0
 22 43  1  0
M  ISO  8  23   5  24   5  25  13  26  13  27  13  28  13  29  13  30  13
M  ISO  8  31   8  32   8  33  14  34  14  35  13  36  13  37  13  38  13
M  ISO  5  39  13  40  13  41  13  42  13  43  13
M  END
>  <minimizedAffinity>  (1) 
-5.32285357

>  <minimizedRMSD>  (1) 
1.22970366

$$$$
