
     RDKit          3D

 37 39  0  0  1  0  0  0  0  0999 V2000
   47.1570   34.4410   41.5790 N   0  0  0  0  0  0  0  0  0  0  0  0
   46.5250   33.6500   39.4240 N   0  0  0  0  0  0  0  0  0  0  0  0
   47.1320   33.6010   38.1120 C   0  0  0  0  0  0  0  0  0  0  0  0
   48.3970   34.3620   38.1690 C   0  0  0  0  0  0  0  0  0  0  0  0
   48.4030   34.9160   39.5840 C   0  0  0  0  0  0  0  0  0  0  0  0
   47.6340   33.9120   40.3340 C   0  0  1  0  0  0  0  0  0  0  0  0
   48.3170   32.6040   40.5880 C   0  0  0  0  0  0  0  0  0  0  0  0
   48.5660   32.4470   41.9480 F   0  0  0  0  0  0  0  0  0  0  0  0
   47.5760   31.5340   40.1340 F   0  0  0  0  0  0  0  0  0  0  0  0
   49.5490   32.5180   39.9690 F   0  0  0  0  0  0  0  0  0  0  0  0
   45.7800   34.0940   41.7220 C   0  0  0  0  0  0  0  0  0  0  0  0
   44.3950   36.0400   44.6900 C   0  0  0  0  0  0  0  0  0  0  0  0
   44.6860   35.7670   43.3530 C   0  0  0  0  0  0  0  0  0  0  0  0
   45.3740   34.5680   43.1060 C   0  0  0  0  0  0  0  0  0  0  0  0
   45.7080   33.7680   44.1430 N   0  0  0  0  0  0  0  0  0  0  0  0
   45.4110   34.0630   45.4240 C   0  0  0  0  0  0  0  0  0  0  0  0
   44.7470   35.2180   45.6770 N   0  0  0  0  0  0  0  0  0  0  0  0
   45.8470   33.0850   46.4230 C   0  0  0  0  0  0  0  0  0  0  0  0
   45.4080   32.6160   47.6530 C   0  0  0  0  0  0  0  0  0  0  0  0
   46.3410   31.6560   48.0480 C   0  0  0  0  0  0  0  0  0  0  0  0
   47.2910   31.5670   47.0860 N   0  0  0  0  0  0  0  0  0  0  0  0
   46.9970   32.4150   46.1230 N   0  0  0  0  0  0  0  0  0  0  0  0
   47.2590   35.4659   41.5826 H   0  0  0  0  0  0  0  0  0  0  0  0
   46.0741   32.7518   39.6496 H   0  0  0  0  0  0  0  0  0  0  0  0
   46.4568   34.0531   37.3706 H   0  0  0  0  0  0  0  0  0  0  0  0
   47.3244   32.5589   37.8172 H   0  0  0  0  0  0  0  0  0  0  0  0
   49.2617   33.7037   37.9991 H   0  0  0  0  0  0  0  0  0  0  0  0
   48.4661   35.1439   37.3984 H   0  0  0  0  0  0  0  0  0  0  0  0
   49.4290   34.9993   39.9719 H   0  0  0  0  0  0  0  0  0  0  0  0
   47.9800   35.9289   39.6554 H   0  0  0  0  0  0  0  0  0  0  0  0
   45.1764   34.5976   40.9525 H   0  0  0  0  0  0  0  0  0  0  0  0
   45.6212   33.0121   41.6025 H   0  0  0  0  0  0  0  0  0  0  0  0
   43.8561   36.9664   44.9375 H   0  0  0  0  0  0  0  0  0  0  0  0
   44.3941   36.4498   42.5414 H   0  0  0  0  0  0  0  0  0  0  0  0
   44.5103   32.9349   48.2030 H   0  0  0  0  0  0  0  0  0  0  0  0
   46.3103   31.0722   48.9798 H   0  0  0  0  0  0  0  0  0  0  0  0
   48.1078   30.9398   47.1050 H   0  0  0  0  0  0  0  0  0  0  0  0
  1 11  1  0
  2  6  1  0
  3  4  1  0
  3  2  1  0
  4  5  1  0
  5  6  1  0
  6  7  1  0
  6  1  1  1
  7  8  1  0
  9  7  1  0
 10  7  1  0
 11 14  1  0
 12 17  2  0
 13 12  1  0
 14 13  2  0
 14 15  1  0
 15 16  2  0
 16 17  1  0
 16 18  1  0
 18 19  1  0
 19 20  2  0
 21 20  1  0
 22 18  2  0
 22 21  1  0
  1 23  1  0
  2 24  1  0
  3 25  1  0
  3 26  1  0
  4 27  1  0
  4 28  1  0
  5 29  1  0
  5 30  1  0
 11 31  1  0
 11 32  1  0
 12 33  1  0
 13 34  1  0
 19 35  1  0
 20 36  1  0
 21 37  1  0
M  ISO  8  23   5  24   5  25  13  26  13  27  13  28  13  29  13  30  13
M  ISO  7  31   8  32   8  33  14  34  14  35  14  36  14  37   9
M  END
>  <minimizedAffinity>  (1) 
-5.25759935

>  <minimizedRMSD>  (1) 
0.629878342

$$$$
