
     RDKit          3D

 36 38  0  0  1  0  0  0  0  0999 V2000
   47.1700   34.5110   41.1910 N   0  0  0  0  0  0  0  0  0  0  0  0
   46.4630   33.6460   39.0800 N   0  0  0  0  0  0  0  0  0  0  0  0
   47.0580   33.4920   37.7750 C   0  0  0  0  0  0  0  0  0  0  0  0
   48.3630   34.1900   37.7860 C   0  0  0  0  0  0  0  0  0  0  0  0
   48.4160   34.8160   39.1630 C   0  0  0  0  0  0  0  0  0  0  0  0
   47.5910   33.8890   39.9770 C   0  0  1  0  0  0  0  0  0  0  0  0
   48.2080   32.5680   40.2950 C   0  0  0  0  0  0  0  0  0  0  0  0
   48.3360   32.4130   41.6680 F   0  0  0  0  0  0  0  0  0  0  0  0
   47.4840   31.5130   39.7730 F   0  0  0  0  0  0  0  0  0  0  0  0
   49.4880   32.4290   39.7790 F   0  0  0  0  0  0  0  0  0  0  0  0
   45.7510   34.3830   41.2930 C   0  0  0  0  0  0  0  0  0  0  0  0
   44.4840   36.0770   44.4660 C   0  0  0  0  0  0  0  0  0  0  0  0
   44.7270   35.9140   43.0960 C   0  0  0  0  0  0  0  0  0  0  0  0
   45.3960   34.7440   42.7180 C   0  0  0  0  0  0  0  0  0  0  0  0
   45.7680   33.8450   43.6680 N   0  0  0  0  0  0  0  0  0  0  0  0
   45.5140   34.0400   44.9790 C   0  0  0  0  0  0  0  0  0  0  0  0
   44.8680   35.1660   45.3720 N   0  0  0  0  0  0  0  0  0  0  0  0
   45.9440   33.0270   45.9570 C   0  0  0  0  0  0  0  0  0  0  0  0
   46.9500   32.1100   45.5570 C   0  0  0  0  0  0  0  0  0  0  0  0
   47.1680   31.0510   47.0640 S   0  0  0  0  0  0  0  0  0  0  0  0
   45.8340   32.0600   47.9680 C   0  0  0  0  0  0  0  0  0  0  0  0
   45.5020   32.8440   47.2100 N   0  0  0  0  0  0  0  0  0  0  0  0
   47.4297   35.5077   41.1798 H   0  0  0  0  0  0  0  0  0  0  0  0
   45.9600   32.7896   39.3530 H   0  0  0  0  0  0  0  0  0  0  0  0
   46.4030   33.9357   37.0107 H   0  0  0  0  0  0  0  0  0  0  0  0
   47.1949   32.4263   37.5391 H   0  0  0  0  0  0  0  0  0  0  0  0
   49.1905   33.4791   37.6449 H   0  0  0  0  0  0  0  0  0  0  0  0
   48.4619   34.9272   36.9756 H   0  0  0  0  0  0  0  0  0  0  0  0
   49.4490   34.8609   39.5385 H   0  0  0  0  0  0  0  0  0  0  0  0
   48.0536   35.8544   39.1838 H   0  0  0  0  0  0  0  0  0  0  0  0
   45.2548   35.0692   40.5909 H   0  0  0  0  0  0  0  0  0  0  0  0
   45.4216   33.3635   41.0439 H   0  0  0  0  0  0  0  0  0  0  0  0
   43.9612   36.9817   44.8097 H   0  0  0  0  0  0  0  0  0  0  0  0
   44.4093   36.6647   42.3574 H   0  0  0  0  0  0  0  0  0  0  0  0
   47.4721   32.0435   44.5911 H   0  0  0  0  0  0  0  0  0  0  0  0
   45.4646   31.9186   48.9944 H   0  0  0  0  0  0  0  0  0  0  0  0
  1 11  1  0
  2  6  1  0
  3  4  1  0
  3  2  1  0
  4  5  1  0
  5  6  1  0
  6  7  1  0
  6  1  1  1
  7  8  1  0
  9  7  1  0
 10  7  1  0
 11 14  1  0
 12 17  2  0
 13 12  1  0
 14 13  2  0
 14 15  1  0
 15 16  2  0
 16 17  1  0
 16 18  1  0
 18 22  1  0
 19 18  2  0
 19 20  1  0
 20 21  1  0
 22 21  2  0
  1 23  1  0
  2 24  1  0
  3 25  1  0
  3 26  1  0
  4 27  1  0
  4 28  1  0
  5 29  1  0
  5 30  1  0
 11 31  1  0
 11 32  1  0
 12 33  1  0
 13 34  1  0
 19 35  1  0
 21 36  1  0
M  ISO  8  23   5  24   5  25  13  26  13  27  13  28  13  29  13  30  13
M  ISO  6  31   8  32   8  33  14  34  14  35  14  36  14
M  END
>  <minimizedAffinity>  (1) 
-5.24693823

>  <minimizedRMSD>  (1) 
0.276198715

$$$$
