
     RDKit          3D

 32 33  0  0  1  0  0  0  0  0999 V2000
   46.4560   33.6640   39.0580 N   0  0  0  0  0  0  0  0  0  0  0  0
   47.0480   33.4860   37.7490 C   0  0  0  0  0  0  0  0  0  0  0  0
   48.3570   34.1590   37.7490 C   0  0  0  0  0  0  0  0  0  0  0  0
   48.4240   34.7940   39.1240 C   0  0  0  0  0  0  0  0  0  0  0  0
   47.5830   33.8970   39.9410 C   0  0  2  0  0  0  0  0  0  0  0  0
   48.1840   32.5700   40.2690 C   0  0  0  0  0  0  0  0  0  0  0  0
   48.2850   32.4100   41.6520 F   0  0  0  0  0  0  0  0  0  0  0  0
   47.4490   31.5220   39.7470 F   0  0  0  0  0  0  0  0  0  0  0  0
   49.4570   32.4100   39.7770 F   0  0  0  0  0  0  0  0  0  0  0  0
   47.1710   34.5370   41.1590 N   0  0  0  0  0  0  0  0  0  0  0  0
   45.7460   34.4490   41.2420 C   0  0  0  0  0  0  0  0  0  0  0  0
   44.6160   36.0400   44.5200 C   0  0  0  0  0  0  0  0  0  0  0  0
   44.8770   35.9540   43.1420 C   0  0  0  0  0  0  0  0  0  0  0  0
   45.4000   34.7380   42.6890 C   0  0  0  0  0  0  0  0  0  0  0  0
   45.6240   33.7350   43.5740 N   0  0  0  0  0  0  0  0  0  0  0  0
   45.3670   33.8430   44.8840 C   0  0  0  0  0  0  0  0  0  0  0  0
   44.8520   35.0260   45.3600 N   0  0  0  0  0  0  0  0  0  0  0  0
   45.6020   32.7950   45.8060 N   0  0  0  0  0  0  0  0  0  0  0  0
   45.9404   32.8187   39.3418 H   0  0  0  0  0  0  0  0  0  0  0  0
   46.3985   33.9319   36.9813 H   0  0  0  0  0  0  0  0  0  0  0  0
   47.1675   32.4157   37.5249 H   0  0  0  0  0  0  0  0  0  0  0  0
   49.1726   33.4341   37.6098 H   0  0  0  0  0  0  0  0  0  0  0  0
   48.4655   34.8884   36.9328 H   0  0  0  0  0  0  0  0  0  0  0  0
   49.4578   34.8182   39.4991 H   0  0  0  0  0  0  0  0  0  0  0  0
   48.0845   35.8402   39.1371 H   0  0  0  0  0  0  0  0  0  0  0  0
   47.5986   34.0611   41.9663 H   0  0  0  0  0  0  0  0  0  0  0  0
   45.2768   35.1916   40.5799 H   0  0  0  0  0  0  0  0  0  0  0  0
   45.3817   33.4599   40.9275 H   0  0  0  0  0  0  0  0  0  0  0  0
   44.2022   36.9761   44.9231 H   0  0  0  0  0  0  0  0  0  0  0  0
   44.6815   36.7939   42.4591 H   0  0  0  0  0  0  0  0  0  0  0  0
   45.3869   32.9294   46.8043 H   0  0  0  0  0  0  0  0  0  0  0  0
   45.9881   31.8980   45.4786 H   0  0  0  0  0  0  0  0  0  0  0  0
  1  5  1  0
  2  3  1  0
  2  1  1  0
  3  4  1  0
  4  5  1  0
  5  6  1  0
  5 10  1  1
  6  7  1  0
  8  6  1  0
  9  6  1  0
 10 11  1  0
 11 14  1  0
 12 17  2  0
 13 12  1  0
 14 13  2  0
 14 15  1  0
 15 16  2  0
 16 17  1  0
 16 18  1  0
  1 19  1  0
  2 20  1  0
  2 21  1  0
  3 22  1  0
  3 23  1  0
  4 24  1  0
  4 25  1  0
 10 26  1  0
 11 27  1  0
 11 28  1  0
 12 29  1  0
 13 30  1  0
 18 31  1  0
 18 32  1  0
M  ISO  8  19   5  20  13  21  13  22  13  23  13  24  13  25  13  26   5
M  ISO  4  27   8  28   8  29  14  30  14
M  END
>  <minimizedAffinity>  (1) 
-4.67746019

>  <minimizedRMSD>  (1) 
0.0644211695

$$$$
