
     RDKit          3D

 31 32  0  0  1  0  0  0  0  0999 V2000
   46.4540   33.6580   39.0590 N   0  0  0  0  0  0  0  0  0  0  0  0
   47.0370   33.4810   37.7500 C   0  0  0  0  0  0  0  0  0  0  0  0
   48.3490   34.1650   37.7520 C   0  0  0  0  0  0  0  0  0  0  0  0
   48.4280   34.7960   39.1240 C   0  0  0  0  0  0  0  0  0  0  0  0
   47.5840   33.9080   39.9380 C   0  0  2  0  0  0  0  0  0  0  0  0
   48.1890   32.5720   40.2740 C   0  0  0  0  0  0  0  0  0  0  0  0
   48.2920   32.4170   41.6510 F   0  0  0  0  0  0  0  0  0  0  0  0
   47.4530   31.5220   39.7480 F   0  0  0  0  0  0  0  0  0  0  0  0
   49.4570   32.4110   39.7700 F   0  0  0  0  0  0  0  0  0  0  0  0
   47.1820   34.5390   41.1620 N   0  0  0  0  0  0  0  0  0  0  0  0
   45.7600   34.4570   41.2410 C   0  0  0  0  0  0  0  0  0  0  0  0
   44.6270   36.0650   44.5130 C   0  0  0  0  0  0  0  0  0  0  0  0
   44.8990   35.9750   43.1450 C   0  0  0  0  0  0  0  0  0  0  0  0
   45.4040   34.7580   42.6790 C   0  0  0  0  0  0  0  0  0  0  0  0
   45.5960   33.7490   43.5710 N   0  0  0  0  0  0  0  0  0  0  0  0
   45.3320   33.8520   44.8720 C   0  0  0  0  0  0  0  0  0  0  0  0
   44.8390   35.0390   45.3410 N   0  0  0  0  0  0  0  0  0  0  0  0
   45.5440   32.7920   45.7610 O   0  0  0  0  0  0  0  0  0  0  0  0
   45.9495   32.8083   39.3494 H   0  0  0  0  0  0  0  0  0  0  0  0
   46.3833   33.9245   36.9845 H   0  0  0  0  0  0  0  0  0  0  0  0
   47.1575   32.4120   37.5206 H   0  0  0  0  0  0  0  0  0  0  0  0
   49.1666   33.4439   37.6052 H   0  0  0  0  0  0  0  0  0  0  0  0
   48.4449   34.9012   36.9403 H   0  0  0  0  0  0  0  0  0  0  0  0
   49.4633   34.8093   39.4954 H   0  0  0  0  0  0  0  0  0  0  0  0
   48.1001   35.8458   39.1409 H   0  0  0  0  0  0  0  0  0  0  0  0
   47.6072   34.0528   41.9643 H   0  0  0  0  0  0  0  0  0  0  0  0
   45.2968   35.1954   40.5701 H   0  0  0  0  0  0  0  0  0  0  0  0
   45.3962   33.4649   40.9353 H   0  0  0  0  0  0  0  0  0  0  0  0
   44.2276   37.0063   44.9185 H   0  0  0  0  0  0  0  0  0  0  0  0
   44.7237   36.8229   42.4665 H   0  0  0  0  0  0  0  0  0  0  0  0
   45.3366   32.9034   46.7226 H   0  0  0  0  0  0  0  0  0  0  0  0
  1  5  1  0
  2  3  1  0
  2  1  1  0
  3  4  1  0
  4  5  1  0
  5  6  1  0
  5 10  1  1
  6  7  1  0
  8  6  1  0
  9  6  1  0
 10 11  1  0
 11 14  1  0
 12 17  2  0
 13 12  1  0
 14 13  2  0
 14 15  1  0
 15 16  2  0
 16 17  1  0
 16 18  1  0
  1 19  1  0
  2 20  1  0
  2 21  1  0
  3 22  1  0
  3 23  1  0
  4 24  1  0
  4 25  1  0
 10 26  1  0
 11 27  1  0
 11 28  1  0
 12 29  1  0
 13 30  1  0
 18 31  1  0
M  ISO  8  19   5  20  13  21  13  22  13  23  13  24  13  25  13  26   5
M  ISO  5  27   8  28   8  29  14  30  14  31   3
M  END
>  <minimizedAffinity>  (1) 
-4.65797186

>  <minimizedRMSD>  (1) 
0.0771301985

$$$$
