
     RDKit          3D

 34 35  0  0  1  0  0  0  0  0999 V2000
   47.2060   34.9440   42.0110 N   0  0  0  0  0  0  0  0  0  0  0  0
   46.4840   33.8470   40.0200 N   0  0  0  0  0  0  0  0  0  0  0  0
   47.0670   33.5840   38.7240 C   0  0  0  0  0  0  0  0  0  0  0  0
   48.3310   34.3010   38.6280 C   0  0  0  0  0  0  0  0  0  0  0  0
   48.4040   35.0690   39.9480 C   0  0  0  0  0  0  0  0  0  0  0  0
   47.6240   34.2090   40.8670 C   0  0  1  0  0  0  0  0  0  0  0  0
   48.2860   32.9520   41.2950 C   0  0  0  0  0  0  0  0  0  0  0  0
   48.5960   33.0270   42.6580 F   0  0  0  0  0  0  0  0  0  0  0  0
   47.4940   31.8470   41.0540 F   0  0  0  0  0  0  0  0  0  0  0  0
   49.4740   32.7110   40.6530 F   0  0  0  0  0  0  0  0  0  0  0  0
   45.7860   34.8760   42.0930 C   0  0  0  0  0  0  0  0  0  0  0  0
   44.4990   35.4900   45.6310 C   0  0  0  0  0  0  0  0  0  0  0  0
   44.7220   35.7370   44.2830 C   0  0  0  0  0  0  0  0  0  0  0  0
   45.4550   34.7800   43.5690 C   0  0  0  0  0  0  0  0  0  0  0  0
   45.9030   33.6780   44.2280 N   0  0  0  0  0  0  0  0  0  0  0  0
   45.6720   33.4710   45.5210 C   0  0  0  0  0  0  0  0  0  0  0  0
   44.9660   34.3830   46.2290 N   0  0  0  0  0  0  0  0  0  0  0  0
   46.3330   31.9690   46.2230 S   0  0  0  0  0  0  0  0  0  0  0  0
   46.7120   32.1640   47.9810 C   0  0  0  0  0  0  0  0  0  0  0  0
   47.0130   30.9120   48.5050 F   0  0  0  0  0  0  0  0  0  0  0  0
   45.6370   32.6950   48.6720 F   0  0  0  0  0  0  0  0  0  0  0  0
   47.8420   32.9440   48.1070 F   0  0  0  0  0  0  0  0  0  0  0  0
   47.5029   35.9262   41.9213 H   0  0  0  0  0  0  0  0  0  0  0  0
   46.0117   33.0072   40.3842 H   0  0  0  0  0  0  0  0  0  0  0  0
   47.2439   32.5044   38.6096 H   0  0  0  0  0  0  0  0  0  0  0  0
   46.3838   33.9196   37.9299 H   0  0  0  0  0  0  0  0  0  0  0  0
   49.1743   33.6011   38.5327 H   0  0  0  0  0  0  0  0  0  0  0  0
   48.3871   34.9563   37.7463 H   0  0  0  0  0  0  0  0  0  0  0  0
   49.4445   35.1735   40.2894 H   0  0  0  0  0  0  0  0  0  0  0  0
   48.0178   36.0966   39.8777 H   0  0  0  0  0  0  0  0  0  0  0  0
   45.3347   35.7801   41.6584 H   0  0  0  0  0  0  0  0  0  0  0  0
   45.3918   34.0135   41.5356 H   0  0  0  0  0  0  0  0  0  0  0  0
   43.9260   36.2189   46.2228 H   0  0  0  0  0  0  0  0  0  0  0  0
   44.3392   36.6460   43.7960 H   0  0  0  0  0  0  0  0  0  0  0  0
  1 11  1  0
  2  6  1  0
  3  2  1  0
  4  3  1  0
  4  5  1  0
  5  6  1  0
  6  7  1  0
  6  1  1  1
  7  8  1  0
  9  7  1  0
 10  7  1  0
 11 14  1  0
 12 17  2  0
 13 12  1  0
 14 15  1  0
 14 13  2  0
 15 16  2  0
 16 18  1  0
 16 17  1  0
 18 19  1  0
 19 22  1  0
 19 20  1  0
 19 21  1  0
  1 23  1  0
  2 24  1  0
  3 25  1  0
  3 26  1  0
  4 27  1  0
  4 28  1  0
  5 29  1  0
  5 30  1  0
 11 31  1  0
 11 32  1  0
 12 33  1  0
 13 34  1  0
M  ISO  8  23   5  24   5  25  13  26  13  27  13  28  13  29  13  30  13
M  ISO  4  31   8  32   8  33  14  34  14
M  END
>  <minimizedAffinity>  (1) 
-5.20394421

>  <minimizedRMSD>  (1) 
1.48129725

$$$$
