
     RDKit          3D

 44 46  0  0  1  0  0  0  0  0999 V2000
   45.9820   35.1560   42.1520 C   0  0  0  0  0  0  0  0  0  0  0  0
   44.4900   35.2820   45.6630 C   0  0  0  0  0  0  0  0  0  0  0  0
   44.6890   35.6450   44.3250 C   0  0  0  0  0  0  0  0  0  0  0  0
   45.6400   34.9020   43.6080 C   0  0  0  0  0  0  0  0  0  0  0  0
   46.2980   33.8970   44.2360 N   0  0  0  0  0  0  0  0  0  0  0  0
   46.0810   33.5800   45.5120 C   0  0  0  0  0  0  0  0  0  0  0  0
   45.1640   34.2840   46.2320 N   0  0  0  0  0  0  0  0  0  0  0  0
   47.0200   32.2180   46.1750 S   0  0  0  0  0  0  0  0  0  0  0  0
   44.2110   28.6130   46.0180 C   0  0  0  0  0  0  0  0  0  0  0  0
   44.5550   29.1600   47.2540 C   0  0  0  0  0  0  0  0  0  0  0  0
   45.4120   30.2600   47.3020 C   0  0  0  0  0  0  0  0  0  0  0  0
   45.9090   30.7920   46.1060 C   0  0  0  0  0  0  0  0  0  0  0  0
   45.5810   30.2650   44.8730 C   0  0  0  0  0  0  0  0  0  0  0  0
   44.7220   29.1640   44.8430 C   0  0  0  0  0  0  0  0  0  0  0  0
   43.1450   27.2360   45.8490 S   0  0  0  0  0  0  0  0  0  0  0  0
   43.4160   26.5480   44.5550 O   0  0  0  0  0  0  0  0  0  0  0  0
   43.2520   26.3170   47.0180 O   0  0  0  0  0  0  0  0  0  0  0  0
   47.3930   35.0520   42.0620 N   0  0  0  0  0  0  0  0  0  0  0  0
   46.4920   33.9240   40.1450 N   0  0  0  0  0  0  0  0  0  0  0  0
   46.9890   33.5920   38.8250 C   0  0  0  0  0  0  0  0  0  0  0  0
   48.2740   34.2710   38.6320 C   0  0  0  0  0  0  0  0  0  0  0  0
   48.4680   35.0680   39.9220 C   0  0  0  0  0  0  0  0  0  0  0  0
   47.7050   34.2690   40.9040 C   0  0  1  0  0  0  0  0  0  0  0  0
   48.3430   32.9950   41.3320 C   0  0  0  0  0  0  0  0  0  0  0  0
   48.8450   33.1240   42.6300 F   0  0  0  0  0  0  0  0  0  0  0  0
   47.4590   31.9190   41.2830 F   0  0  0  0  0  0  0  0  0  0  0  0
   49.4200   32.6330   40.5550 F   0  0  0  0  0  0  0  0  0  0  0  0
   45.5009   34.4044   41.5089 H   0  0  0  0  0  0  0  0  0  0  0  0
   45.6271   36.1426   41.8193 H   0  0  0  0  0  0  0  0  0  0  0  0
   43.7543   35.8383   46.2625 H   0  0  0  0  0  0  0  0  0  0  0  0
   44.1290   36.4697   43.8600 H   0  0  0  0  0  0  0  0  0  0  0  0
   44.1542   28.7280   48.1828 H   0  0  0  0  0  0  0  0  0  0  0  0
   45.6939   30.7041   48.2681 H   0  0  0  0  0  0  0  0  0  0  0  0
   45.9828   30.6978   43.9449 H   0  0  0  0  0  0  0  0  0  0  0  0
   44.4433   28.7232   43.8745 H   0  0  0  0  0  0  0  0  0  0  0  0
   41.8470   27.6738   45.8302 H   0  0  0  0  0  0  0  0  0  0  0  0
   47.8078   35.9905   41.9718 H   0  0  0  0  0  0  0  0  0  0  0  0
   46.0114   33.1177   40.5690 H   0  0  0  0  0  0  0  0  0  0  0  0
   47.1274   32.5039   38.7426 H   0  0  0  0  0  0  0  0  0  0  0  0
   46.2706   33.9156   38.0574 H   0  0  0  0  0  0  0  0  0  0  0  0
   49.0858   33.5410   38.4975 H   0  0  0  0  0  0  0  0  0  0  0  0
   48.2862   34.9075   37.7350 H   0  0  0  0  0  0  0  0  0  0  0  0
   49.5313   35.1277   40.1972 H   0  0  0  0  0  0  0  0  0  0  0  0
   48.1324   36.1130   39.8487 H   0  0  0  0  0  0  0  0  0  0  0  0
  1  4  1  0
  2  7  2  0
  3  2  1  0
  4  5  1  0
  4  3  2  0
  5  6  2  0
  6  8  1  0
  6  7  1  0
  9 10  2  0
 10 11  1  0
 12  8  1  0
 12 11  2  0
 13 12  1  0
 14 13  2  0
 14  9  1  0
 15  9  1  0
 15 17  2  0
 16 15  2  0
 18  1  1  0
 19 23  1  0
 20 19  1  0
 21 20  1  0
 21 22  1  0
 22 23  1  0
 23 24  1  0
 23 18  1  1
 24 25  1  0
 26 24  1  0
 27 24  1  0
  1 28  1  0
  1 29  1  0
  2 30  1  0
  3 31  1  0
 10 32  1  0
 11 33  1  0
 13 34  1  0
 14 35  1  0
 15 36  1  0
 18 37  1  0
 19 38  1  0
 20 39  1  0
 20 40  1  0
 21 41  1  0
 21 42  1  0
 22 43  1  0
 22 44  1  0
M  ISO  8  28   8  29   8  30  14  31  14  32  14  33  14  34  14  35  14
M  ISO  8  36  11  37   5  38   5  39  13  40  13  41  13  42  13  43  13
M  ISO  1  44  13
M  END
>  <minimizedAffinity>  (1) 
-5.20084953

>  <minimizedRMSD>  (1) 
1.3904556

$$$$
