
     RDKit          3D

 41 43  0  0  1  0  0  0  0  0999 V2000
   45.9950   35.1140   42.1320 C   0  0  0  0  0  0  0  0  0  0  0  0
   44.4900   35.3160   45.6380 C   0  0  0  0  0  0  0  0  0  0  0  0
   44.7040   35.6550   44.2970 C   0  0  0  0  0  0  0  0  0  0  0  0
   45.6400   34.8870   43.5920 C   0  0  0  0  0  0  0  0  0  0  0  0
   46.2750   33.8790   44.2370 N   0  0  0  0  0  0  0  0  0  0  0  0
   46.0510   33.5800   45.5140 C   0  0  0  0  0  0  0  0  0  0  0  0
   45.1440   34.3170   46.2110 N   0  0  0  0  0  0  0  0  0  0  0  0
   46.9590   32.2070   46.1990 S   0  0  0  0  0  0  0  0  0  0  0  0
   45.8870   30.7800   46.0580 C   0  0  0  0  0  0  0  0  0  0  0  0
   45.3310   30.0700   47.1060 C   0  0  0  0  0  0  0  0  0  0  0  0
   44.5180   28.9820   46.8430 C   0  0  0  0  0  0  0  0  0  0  0  0
   44.2690   28.6140   45.5400 C   0  0  0  0  0  0  0  0  0  0  0  0
   44.8000   29.2870   44.4410 C   0  0  0  0  0  0  0  0  0  0  0  0
   45.6070   30.3680   44.7710 C   0  0  0  0  0  0  0  0  0  0  0  0
   47.4130   34.9920   42.0640 N   0  0  0  0  0  0  0  0  0  0  0  0
   46.5220   33.9050   40.1230 N   0  0  0  0  0  0  0  0  0  0  0  0
   47.0080   33.6040   38.7930 C   0  0  0  0  0  0  0  0  0  0  0  0
   48.2820   34.2910   38.6120 C   0  0  0  0  0  0  0  0  0  0  0  0
   48.4710   35.0640   39.9170 C   0  0  0  0  0  0  0  0  0  0  0  0
   47.7240   34.2310   40.8890 C   0  0  1  0  0  0  0  0  0  0  0  0
   48.3740   32.9580   41.2760 C   0  0  0  0  0  0  0  0  0  0  0  0
   48.7720   33.0180   42.6120 F   0  0  0  0  0  0  0  0  0  0  0  0
   47.5580   31.8640   41.0830 F   0  0  0  0  0  0  0  0  0  0  0  0
   49.5250   32.6900   40.5640 F   0  0  0  0  0  0  0  0  0  0  0  0
   45.5127   34.3568   41.4964 H   0  0  0  0  0  0  0  0  0  0  0  0
   45.6513   36.0962   41.7754 H   0  0  0  0  0  0  0  0  0  0  0  0
   43.7627   35.8920   46.2290 H   0  0  0  0  0  0  0  0  0  0  0  0
   44.1629   36.4851   43.8192 H   0  0  0  0  0  0  0  0  0  0  0  0
   45.5343   30.3690   48.1449 H   0  0  0  0  0  0  0  0  0  0  0  0
   44.0721   28.4130   47.6721 H   0  0  0  0  0  0  0  0  0  0  0  0
   43.6188   27.7458   45.3571 H   0  0  0  0  0  0  0  0  0  0  0  0
   44.5974   28.9878   43.4021 H   0  0  0  0  0  0  0  0  0  0  0  0
   46.0566   30.9384   43.9449 H   0  0  0  0  0  0  0  0  0  0  0  0
   47.8438   35.9256   42.0027 H   0  0  0  0  0  0  0  0  0  0  0  0
   46.0425   33.0886   40.5285 H   0  0  0  0  0  0  0  0  0  0  0  0
   47.1505   32.5187   38.6845 H   0  0  0  0  0  0  0  0  0  0  0  0
   46.2828   33.9385   38.0366 H   0  0  0  0  0  0  0  0  0  0  0  0
   49.0984   33.5690   38.4630 H   0  0  0  0  0  0  0  0  0  0  0  0
   48.2900   34.9441   37.7269 H   0  0  0  0  0  0  0  0  0  0  0  0
   49.5348   35.1345   40.1877 H   0  0  0  0  0  0  0  0  0  0  0  0
   48.1189   36.1049   39.8671 H   0  0  0  0  0  0  0  0  0  0  0  0
  1  4  1  0
  2  7  2  0
  3  2  1  0
  4  5  1  0
  4  3  2  0
  5  6  2  0
  6  8  1  0
  6  7  1  0
  9  8  1  0
  9 10  2  0
 11 10  1  0
 12 11  2  0
 13 14  2  0
 13 12  1  0
 14  9  1  0
 15  1  1  0
 16 20  1  0
 17 16  1  0
 18 17  1  0
 18 19  1  0
 19 20  1  0
 20 21  1  0
 20 15  1  1
 21 22  1  0
 23 21  1  0
 24 21  1  0
  1 25  1  0
  1 26  1  0
  2 27  1  0
  3 28  1  0
 10 29  1  0
 11 30  1  0
 12 31  1  0
 13 32  1  0
 14 33  1  0
 15 34  1  0
 16 35  1  0
 17 36  1  0
 17 37  1  0
 18 38  1  0
 18 39  1  0
 19 40  1  0
 19 41  1  0
M  ISO  8  25   8  26   8  27  14  28  14  29  14  30  14  31  14  32  14
M  ISO  8  33  14  34   5  35   5  36  13  37  13  38  13  39  13  40  13
M  ISO  1  41  13
M  END
>  <minimizedAffinity>  (1) 
-5.12479591

>  <minimizedRMSD>  (1) 
1.07126749

$$$$
