
     RDKit          3D

 40 41  0  0  1  0  0  0  0  0999 V2000
   47.2590   34.8090   41.7360 N   0  0  0  0  0  0  0  0  0  0  0  0
   46.4840   33.7520   39.7290 N   0  0  0  0  0  0  0  0  0  0  0  0
   47.0420   33.5170   38.4150 C   0  0  0  0  0  0  0  0  0  0  0  0
   48.3260   34.2290   38.3270 C   0  0  0  0  0  0  0  0  0  0  0  0
   48.4300   34.9580   39.6560 C   0  0  0  0  0  0  0  0  0  0  0  0
   47.6380   34.0830   40.5630 C   0  0  1  0  0  0  0  0  0  0  0  0
   48.2900   32.8120   40.9530 C   0  0  0  0  0  0  0  0  0  0  0  0
   48.5300   32.7990   42.3220 F   0  0  0  0  0  0  0  0  0  0  0  0
   47.5260   31.7040   40.6180 F   0  0  0  0  0  0  0  0  0  0  0  0
   49.5140   32.6100   40.3510 F   0  0  0  0  0  0  0  0  0  0  0  0
   45.8360   34.8070   41.7990 C   0  0  0  0  0  0  0  0  0  0  0  0
   44.4810   35.6520   45.2660 C   0  0  0  0  0  0  0  0  0  0  0  0
   44.7120   35.7980   43.8980 C   0  0  0  0  0  0  0  0  0  0  0  0
   45.4860   34.8080   43.2770 C   0  0  0  0  0  0  0  0  0  0  0  0
   45.9610   33.7810   44.0190 N   0  0  0  0  0  0  0  0  0  0  0  0
   45.7200   33.6700   45.3290 C   0  0  0  0  0  0  0  0  0  0  0  0
   44.9710   34.6240   45.9430 N   0  0  0  0  0  0  0  0  0  0  0  0
   46.4050   32.2440   46.1480 S   0  0  0  0  0  0  0  0  0  0  0  0
   46.2820   32.3650   47.9460 C   0  0  0  0  0  0  0  0  0  0  0  0
   47.3920   31.6730   48.6740 C   0  0  0  0  0  0  0  0  0  0  0  0
   44.9930   31.6160   48.3170 C   0  0  0  0  0  0  0  0  0  0  0  0
   47.6072   35.7767   41.6786 H   0  0  0  0  0  0  0  0  0  0  0  0
   46.0114   32.9069   40.0803 H   0  0  0  0  0  0  0  0  0  0  0  0
   47.2030   32.4391   38.2661 H   0  0  0  0  0  0  0  0  0  0  0  0
   46.3523   33.8800   37.6388 H   0  0  0  0  0  0  0  0  0  0  0  0
   49.1586   33.5210   38.2025 H   0  0  0  0  0  0  0  0  0  0  0  0
   48.3760   34.9095   37.4642 H   0  0  0  0  0  0  0  0  0  0  0  0
   49.4760   35.0326   39.9882 H   0  0  0  0  0  0  0  0  0  0  0  0
   48.0664   35.9955   39.6180 H   0  0  0  0  0  0  0  0  0  0  0  0
   45.4298   35.7041   41.3088 H   0  0  0  0  0  0  0  0  0  0  0  0
   45.4096   33.9341   41.2831 H   0  0  0  0  0  0  0  0  0  0  0  0
   43.8792   36.4065   45.7938 H   0  0  0  0  0  0  0  0  0  0  0  0
   44.3058   36.6500   43.3332 H   0  0  0  0  0  0  0  0  0  0  0  0
   46.3128   33.4284   48.2259 H   0  0  0  0  0  0  0  0  0  0  0  0
   47.2359   31.7703   49.7585 H   0  0  0  0  0  0  0  0  0  0  0  0
   47.4027   30.6079   48.3992 H   0  0  0  0  0  0  0  0  0  0  0  0
   48.3530   32.1323   48.3992 H   0  0  0  0  0  0  0  0  0  0  0  0
   44.9019   31.5631   49.4119 H   0  0  0  0  0  0  0  0  0  0  0  0
   44.1258   32.1509   47.9023 H   0  0  0  0  0  0  0  0  0  0  0  0
   45.0283   30.5978   47.9023 H   0  0  0  0  0  0  0  0  0  0  0  0
  1 11  1  0
  2  6  1  0
  3  2  1  0
  4  3  1  0
  4  5  1  0
  5  6  1  0
  6  7  1  0
  6  1  1  1
  7  8  1  0
  9  7  1  0
 10  7  1  0
 11 14  1  0
 12 17  2  0
 13 12  1  0
 14 13  2  0
 14 15  1  0
 15 16  2  0
 16 17  1  0
 16 18  1  0
 18 19  1  0
 19 21  1  0
 19 20  1  0
  1 22  1  0
  2 23  1  0
  3 24  1  0
  3 25  1  0
  4 26  1  0
  4 27  1  0
  5 28  1  0
  5 29  1  0
 11 30  1  0
 11 31  1  0
 12 32  1  0
 13 33  1  0
 19 34  1  0
 20 35  1  0
 20 36  1  0
 20 37  1  0
 21 38  1  0
 21 39  1  0
 21 40  1  0
M  ISO  8  22   5  23   5  24  13  25  13  26  13  27  13  28  13  29  13
M  ISO  8  30   8  31   8  32  14  33  14  34   8  35   8  36   8  37   8
M  ISO  3  38   8  39   8  40   8
M  END
>  <minimizedAffinity>  (1) 
-5.03299713

>  <minimizedRMSD>  (1) 
1.34848619

$$$$
