
     RDKit          3D

 37 38  0  0  1  0  0  0  0  0999 V2000
   47.3690   35.0000   42.0360 N   0  0  0  0  0  0  0  0  0  0  0  0
   46.5110   33.8960   40.1010 N   0  0  0  0  0  0  0  0  0  0  0  0
   47.0250   33.5940   38.7790 C   0  0  0  0  0  0  0  0  0  0  0  0
   48.3060   34.3020   38.6080 C   0  0  0  0  0  0  0  0  0  0  0  0
   48.4620   35.0750   39.9080 C   0  0  0  0  0  0  0  0  0  0  0  0
   47.7050   34.2450   40.8700 C   0  0  1  0  0  0  0  0  0  0  0  0
   48.3790   32.9780   41.2900 C   0  0  0  0  0  0  0  0  0  0  0  0
   48.7620   33.0670   42.6260 F   0  0  0  0  0  0  0  0  0  0  0  0
   47.5600   31.8850   41.0950 F   0  0  0  0  0  0  0  0  0  0  0  0
   49.5380   32.7220   40.5880 F   0  0  0  0  0  0  0  0  0  0  0  0
   45.9440   35.0880   42.1150 C   0  0  0  0  0  0  0  0  0  0  0  0
   44.4980   35.3880   45.6320 C   0  0  0  0  0  0  0  0  0  0  0  0
   44.7200   35.7150   44.2930 C   0  0  0  0  0  0  0  0  0  0  0  0
   45.5920   34.8790   43.5760 C   0  0  0  0  0  0  0  0  0  0  0  0
   46.1620   33.8170   44.2110 N   0  0  0  0  0  0  0  0  0  0  0  0
   45.9250   33.5400   45.4910 C   0  0  0  0  0  0  0  0  0  0  0  0
   45.0820   34.3430   46.1930 N   0  0  0  0  0  0  0  0  0  0  0  0
   46.7600   32.1070   46.1590 S   0  0  0  0  0  0  0  0  0  0  0  0
   47.3130   32.3960   47.8580 C   0  0  0  0  0  0  0  0  0  0  0  0
   46.1620   32.0420   48.7780 C   0  0  0  0  0  0  0  0  0  0  0  0
   47.7736   35.9448   41.9684 H   0  0  0  0  0  0  0  0  0  0  0  0
   46.0400   33.0752   40.5076 H   0  0  0  0  0  0  0  0  0  0  0  0
   47.1830   32.5099   38.6800 H   0  0  0  0  0  0  0  0  0  0  0  0
   46.3076   33.9173   38.0104 H   0  0  0  0  0  0  0  0  0  0  0  0
   49.1335   33.5900   38.4724 H   0  0  0  0  0  0  0  0  0  0  0  0
   48.3212   34.9508   37.7198 H   0  0  0  0  0  0  0  0  0  0  0  0
   49.5200   35.1541   40.1984 H   0  0  0  0  0  0  0  0  0  0  0  0
   48.1008   36.1122   39.8462 H   0  0  0  0  0  0  0  0  0  0  0  0
   45.6030   36.0779   41.7776 H   0  0  0  0  0  0  0  0  0  0  0  0
   45.4580   34.3390   41.4725 H   0  0  0  0  0  0  0  0  0  0  0  0
   43.8222   36.0137   46.2335 H   0  0  0  0  0  0  0  0  0  0  0  0
   44.2362   36.5839   43.8229 H   0  0  0  0  0  0  0  0  0  0  0  0
   48.1826   31.7611   48.0830 H   0  0  0  0  0  0  0  0  0  0  0  0
   47.6100   33.4462   47.9955 H   0  0  0  0  0  0  0  0  0  0  0  0
   46.4853   32.1414   49.8247 H   0  0  0  0  0  0  0  0  0  0  0  0
   45.3186   32.7223   48.5885 H   0  0  0  0  0  0  0  0  0  0  0  0
   45.8466   31.0053   48.5885 H   0  0  0  0  0  0  0  0  0  0  0  0
  1 11  1  0
  2  6  1  0
  3  2  1  0
  4  3  1  0
  4  5  1  0
  5  6  1  0
  6  7  1  0
  6  1  1  1
  7  8  1  0
  9  7  1  0
 10  7  1  0
 11 14  1  0
 12 17  2  0
 13 12  1  0
 14 15  1  0
 14 13  2  0
 15 16  2  0
 16 18  1  0
 16 17  1  0
 18 19  1  0
 19 20  1  0
  1 21  1  0
  2 22  1  0
  3 23  1  0
  3 24  1  0
  4 25  1  0
  4 26  1  0
  5 27  1  0
  5 28  1  0
 11 29  1  0
 11 30  1  0
 12 31  1  0
 13 32  1  0
 19 33  1  0
 19 34  1  0
 20 35  1  0
 20 36  1  0
 20 37  1  0
M  ISO  8  21   5  22   5  23  13  24  13  25  13  26  13  27  13  28  13
M  ISO  8  29   8  30   8  31  14  32  14  33   8  34   8  35   8  36   8
M  ISO  1  37   8
M  END
>  <minimizedAffinity>  (1) 
-4.7792201

>  <minimizedRMSD>  (1) 
1.16478205

$$$$
