
     RDKit          3D

 43 44  0  0  1  0  0  0  0  0999 V2000
   47.4940   35.0230   42.4520 N   0  0  0  0  0  0  0  0  0  0  0  0
   46.6240   33.7840   40.6010 N   0  0  0  0  0  0  0  0  0  0  0  0
   47.0690   33.5020   39.2540 C   0  0  0  0  0  0  0  0  0  0  0  0
   48.2770   34.3090   38.9870 C   0  0  0  0  0  0  0  0  0  0  0  0
   48.4460   35.1290   40.2560 C   0  0  0  0  0  0  0  0  0  0  0  0
   47.8330   34.2680   41.2900 C   0  0  1  0  0  0  0  0  0  0  0  0
   48.6270   33.0660   41.6900 C   0  0  0  0  0  0  0  0  0  0  0  0
   49.0950   33.2270   42.9850 F   0  0  0  0  0  0  0  0  0  0  0  0
   47.8740   31.9080   41.5880 F   0  0  0  0  0  0  0  0  0  0  0  0
   49.7480   32.8720   40.9040 F   0  0  0  0  0  0  0  0  0  0  0  0
   46.0690   35.1330   42.5190 C   0  0  0  0  0  0  0  0  0  0  0  0
   44.4610   35.0430   45.9700 C   0  0  0  0  0  0  0  0  0  0  0  0
   44.6870   35.4630   44.6630 C   0  0  0  0  0  0  0  0  0  0  0  0
   45.6950   34.8070   43.9480 C   0  0  0  0  0  0  0  0  0  0  0  0
   46.3850   33.8120   44.5670 N   0  0  0  0  0  0  0  0  0  0  0  0
   46.1490   33.4250   45.8290 C   0  0  0  0  0  0  0  0  0  0  0  0
   45.1760   34.0550   46.5240 N   0  0  0  0  0  0  0  0  0  0  0  0
   47.1610   32.1030   46.4530 S   0  0  0  0  0  0  0  0  0  0  0  0
   46.2020   30.5620   46.2570 C   0  0  0  0  0  0  0  0  0  0  0  0
   45.1430   30.5770   47.3430 C   0  0  0  0  0  0  0  0  0  0  0  0
   47.1240   29.3910   46.3580 C   0  0  0  0  0  0  0  0  0  0  0  0
   45.5360   30.6550   44.8770 C   0  0  0  0  0  0  0  0  0  0  0  0
   47.9129   35.9620   42.3912 H   0  0  0  0  0  0  0  0  0  0  0  0
   46.2636   32.9311   41.0523 H   0  0  0  0  0  0  0  0  0  0  0  0
   47.3071   32.4325   39.1570 H   0  0  0  0  0  0  0  0  0  0  0  0
   46.2776   33.7536   38.5326 H   0  0  0  0  0  0  0  0  0  0  0  0
   49.1512   33.6633   38.8172 H   0  0  0  0  0  0  0  0  0  0  0  0
   48.1847   34.9314   38.0847 H   0  0  0  0  0  0  0  0  0  0  0  0
   49.5094   35.3101   40.4714 H   0  0  0  0  0  0  0  0  0  0  0  0
   47.9864   36.1264   40.1930 H   0  0  0  0  0  0  0  0  0  0  0  0
   45.7517   36.1549   42.2640 H   0  0  0  0  0  0  0  0  0  0  0  0
   45.5775   34.4531   41.8076 H   0  0  0  0  0  0  0  0  0  0  0  0
   43.6757   35.5345   46.5631 H   0  0  0  0  0  0  0  0  0  0  0  0
   44.0988   36.2755   44.2114 H   0  0  0  0  0  0  0  0  0  0  0  0
   45.6294   30.5701   48.3296 H   0  0  0  0  0  0  0  0  0  0  0  0
   44.5285   31.4839   47.2435 H   0  0  0  0  0  0  0  0  0  0  0  0
   44.5031   29.6878   47.2435 H   0  0  0  0  0  0  0  0  0  0  0  0
   47.3069   29.1587   47.4175 H   0  0  0  0  0  0  0  0  0  0  0  0
   46.6663   28.5204   45.8654 H   0  0  0  0  0  0  0  0  0  0  0  0
   48.0777   29.6316   45.8654 H   0  0  0  0  0  0  0  0  0  0  0  0
   44.4536   30.8061   45.0017 H   0  0  0  0  0  0  0  0  0  0  0  0
   45.9628   31.5023   44.3202 H   0  0  0  0  0  0  0  0  0  0  0  0
   45.7144   29.7232   44.3202 H   0  0  0  0  0  0  0  0  0  0  0  0
  1 11  1  0
  2  6  1  0
  3  2  1  0
  4  3  1  0
  4  5  1  0
  5  6  1  0
  6  7  1  0
  6  1  1  1
  7  8  1  0
  9  7  1  0
 10  7  1  0
 11 14  1  0
 12 17  2  0
 13 12  1  0
 14 15  1  0
 14 13  2  0
 15 16  2  0
 16 18  1  0
 16 17  1  0
 19 21  1  0
 19 18  1  0
 19 20  1  0
 22 19  1  0
  1 23  1  0
  2 24  1  0
  3 25  1  0
  3 26  1  0
  4 27  1  0
  4 28  1  0
  5 29  1  0
  5 30  1  0
 11 31  1  0
 11 32  1  0
 12 33  1  0
 13 34  1  0
 20 35  1  0
 20 36  1  0
 20 37  1  0
 21 38  1  0
 21 39  1  0
 21 40  1  0
 22 41  1  0
 22 42  1  0
 22 43  1  0
M  ISO  8  23   5  24   5  25  13  26  13  27  13  28  13  29  13  30  13
M  ISO  8  31   8  32   8  33  14  34  14  35   8  36   8  37   8  38   8
M  ISO  5  39   8  40   8  41   8  42   8  43   8
M  END
>  <minimizedAffinity>  (1) 
-4.55796862

>  <minimizedRMSD>  (1) 
1.41850841

$$$$
