
     RDKit          3D

 37 39  0  0  1  0  0  0  0  0999 V2000
   46.1470   35.2820   41.8520 C   0  0  0  0  0  0  0  0  0  0  0  0
   44.6410   35.3300   45.3630 C   0  0  0  0  0  0  0  0  0  0  0  0
   44.8920   35.7450   44.0570 C   0  0  0  0  0  0  0  0  0  0  0  0
   45.7700   34.9650   43.2940 C   0  0  0  0  0  0  0  0  0  0  0  0
   46.3270   33.8540   43.8590 N   0  0  0  0  0  0  0  0  0  0  0  0
   46.0680   33.4850   45.1050 C   0  0  0  0  0  0  0  0  0  0  0  0
   45.2170   34.2320   45.8620 N   0  0  0  0  0  0  0  0  0  0  0  0
   46.8800   32.0150   45.6750 S   0  0  0  0  0  0  0  0  0  0  0  0
   46.0640   31.5170   47.2090 C   0  0  0  0  0  0  0  0  0  0  0  0
   45.3220   30.4020   47.4020 N   0  0  0  0  0  0  0  0  0  0  0  0
   44.8870   30.3500   48.6140 O   0  0  0  0  0  0  0  0  0  0  0  0
   45.3440   31.4350   49.2210 C   0  0  0  0  0  0  0  0  0  0  0  0
   46.0770   32.1760   48.3730 N   0  0  0  0  0  0  0  0  0  0  0  0
   45.1360   31.8150   50.5370 O   0  0  0  0  0  0  0  0  0  0  0  0
   47.5240   35.0530   41.7420 N   0  0  0  0  0  0  0  0  0  0  0  0
   46.5560   33.8710   39.9370 N   0  0  0  0  0  0  0  0  0  0  0  0
   46.9610   33.5070   38.5950 C   0  0  0  0  0  0  0  0  0  0  0  0
   48.2520   34.1620   38.3220 C   0  0  0  0  0  0  0  0  0  0  0  0
   48.4970   35.0050   39.5690 C   0  0  0  0  0  0  0  0  0  0  0  0
   47.7900   34.2310   40.6200 C   0  0  1  0  0  0  0  0  0  0  0  0
   48.4370   32.9760   41.0560 C   0  0  0  0  0  0  0  0  0  0  0  0
   48.9430   33.1210   42.3510 F   0  0  0  0  0  0  0  0  0  0  0  0
   47.5810   31.9010   41.0150 F   0  0  0  0  0  0  0  0  0  0  0  0
   49.5300   32.6260   40.2800 F   0  0  0  0  0  0  0  0  0  0  0  0
   45.5962   34.6257   41.1621 H   0  0  0  0  0  0  0  0  0  0  0  0
   45.8945   36.3210   41.5938 H   0  0  0  0  0  0  0  0  0  0  0  0
   43.9570   35.9161   45.9944 H   0  0  0  0  0  0  0  0  0  0  0  0
   44.4201   36.6479   43.6423 H   0  0  0  0  0  0  0  0  0  0  0  0
   45.5329   32.6553   50.8782 H   0  0  0  0  0  0  0  0  0  0  0  0
   48.0115   35.9532   41.6286 H   0  0  0  0  0  0  0  0  0  0  0  0
   46.1018   33.0746   40.4064 H   0  0  0  0  0  0  0  0  0  0  0  0
   47.0720   32.4151   38.5206 H   0  0  0  0  0  0  0  0  0  0  0  0
   46.2043   33.8287   37.8643 H   0  0  0  0  0  0  0  0  0  0  0  0
   49.0501   33.4168   38.1886 H   0  0  0  0  0  0  0  0  0  0  0  0
   48.2417   34.7586   37.3979 H   0  0  0  0  0  0  0  0  0  0  0  0
   49.5716   35.0865   39.7896 H   0  0  0  0  0  0  0  0  0  0  0  0
   48.1443   36.0426   39.4747 H   0  0  0  0  0  0  0  0  0  0  0  0
  1  4  1  0
  2  7  2  0
  3  2  1  0
  4  5  1  0
  4  3  2  0
  5  6  2  0
  6  8  1  0
  6  7  1  0
  8  9  1  0
  9 10  2  0
  9 13  1  0
 10 11  1  0
 11 12  1  0
 12 14  1  0
 13 12  2  0
 15  1  1  0
 16 20  1  0
 17 16  1  0
 18 17  1  0
 18 19  1  0
 19 20  1  0
 20 21  1  0
 20 15  1  1
 21 22  1  0
 23 21  1  0
 24 21  1  0
  1 25  1  0
  1 26  1  0
  2 27  1  0
  3 28  1  0
 14 29  1  0
 15 30  1  0
 16 31  1  0
 17 32  1  0
 17 33  1  0
 18 34  1  0
 18 35  1  0
 19 36  1  0
 19 37  1  0
M  ISO  8  25   8  26   8  27  14  28  14  29   3  30   5  31   5  32  13
M  ISO  5  33  13  34  13  35  13  36  13  37  13
M  END
>  <minimizedAffinity>  (1) 
-5.52955961

>  <minimizedRMSD>  (1) 
0.307922482

$$$$
