
     RDKit          3D

 43 46  0  0  1  0  0  0  0  0999 V2000
   45.9790   34.9340   42.2990 C   0  0  0  0  0  0  0  0  0  0  0  0
   44.4510   35.2420   45.7790 C   0  0  0  0  0  0  0  0  0  0  0  0
   44.6680   35.5210   44.4350 C   0  0  0  0  0  0  0  0  0  0  0  0
   45.6260   34.7550   43.7620 C   0  0  0  0  0  0  0  0  0  0  0  0
   46.2870   33.7880   44.4480 N   0  0  0  0  0  0  0  0  0  0  0  0
   46.0640   33.5350   45.7460 C   0  0  0  0  0  0  0  0  0  0  0  0
   45.1260   34.2820   46.4110 N   0  0  0  0  0  0  0  0  0  0  0  0
   47.0160   32.2390   46.4820 S   0  0  0  0  0  0  0  0  0  0  0  0
   45.9100   30.8300   46.6880 C   0  0  0  0  0  0  0  0  0  0  0  0
   45.4540   30.3350   47.8780 N   0  0  0  0  0  0  0  0  0  0  0  0
   44.6780   29.3160   47.6500 O   0  0  0  0  0  0  0  0  0  0  0  0
   44.6270   29.1490   46.3390 C   0  0  0  0  0  0  0  0  0  0  0  0
   45.3790   30.0700   45.7260 N   0  0  0  0  0  0  0  0  0  0  0  0
   43.8730   28.1240   45.6560 N   0  0  0  0  0  0  0  0  0  0  0  0
   43.1260   27.2080   46.2120 N   0  0  0  0  0  0  0  0  0  0  0  0
   42.5570   26.4020   45.2890 C   0  0  0  0  0  0  0  0  0  0  0  0
   43.0180   26.8980   44.0870 C   0  0  0  0  0  0  0  0  0  0  0  0
   43.8450   27.9790   44.2980 C   0  0  0  0  0  0  0  0  0  0  0  0
   47.3560   35.1900   42.2510 N   0  0  0  0  0  0  0  0  0  0  0  0
   47.1530   33.0090   41.3550 N   0  0  0  0  0  0  0  0  0  0  0  0
   47.7110   32.3020   40.2210 C   0  0  0  0  0  0  0  0  0  0  0  0
   48.4600   33.2670   39.4040 C   0  0  0  0  0  0  0  0  0  0  0  0
   48.2370   34.5930   40.1090 C   0  0  0  0  0  0  0  0  0  0  0  0
   48.0110   34.1720   41.5190 C   0  0  1  0  0  0  0  0  0  0  0  0
   49.2170   33.7340   42.2600 C   0  0  0  0  0  0  0  0  0  0  0  0
   49.6960   34.7630   43.0610 F   0  0  0  0  0  0  0  0  0  0  0  0
   48.9930   32.6180   43.0360 F   0  0  0  0  0  0  0  0  0  0  0  0
   50.2860   33.4220   41.4190 F   0  0  0  0  0  0  0  0  0  0  0  0
   45.7426   34.0189   41.7362 H   0  0  0  0  0  0  0  0  0  0  0  0
   45.4051   35.7574   41.8489 H   0  0  0  0  0  0  0  0  0  0  0  0
   43.7040   35.8277   46.3348 H   0  0  0  0  0  0  0  0  0  0  0  0
   44.1074   36.3146   43.9194 H   0  0  0  0  0  0  0  0  0  0  0  0
   41.8831   25.5489   45.4568 H   0  0  0  0  0  0  0  0  0  0  0  0
   42.7612   26.4879   43.0991 H   0  0  0  0  0  0  0  0  0  0  0  0
   44.3652   28.5877   43.5438 H   0  0  0  0  0  0  0  0  0  0  0  0
   47.5185   36.0982   41.7930 H   0  0  0  0  0  0  0  0  0  0  0  0
   47.1753   32.4186   42.1987 H   0  0  0  0  0  0  0  0  0  0  0  0
   48.3862   31.5078   40.5724 H   0  0  0  0  0  0  0  0  0  0  0  0
   46.9080   31.8420   39.6264 H   0  0  0  0  0  0  0  0  0  0  0  0
   48.0669   33.2987   38.3771 H   0  0  0  0  0  0  0  0  0  0  0  0
   49.5254   33.0089   39.3128 H   0  0  0  0  0  0  0  0  0  0  0  0
   49.1210   35.2422   40.0244 H   0  0  0  0  0  0  0  0  0  0  0  0
   47.4079   35.1805   39.6877 H   0  0  0  0  0  0  0  0  0  0  0  0
  1  4  1  0
  2  7  2  0
  3  2  1  0
  4  3  2  0
  4  5  1  0
  5  6  2  0
  6  7  1  0
  6  8  1  0
  8  9  1  0
  9 10  2  0
 11 10  1  0
 12 11  1  0
 13 12  2  0
 13  9  1  0
 14 15  1  0
 14 12  1  0
 16 15  2  0
 17 18  2  0
 17 16  1  0
 18 14  1  0
 19  1  1  0
 20 24  1  0
 21 20  1  0
 22 23  1  0
 22 21  1  0
 23 24  1  0
 24 19  1  1
 24 25  1  0
 25 27  1  0
 25 26  1  0
 28 25  1  0
  1 29  1  0
  1 30  1  0
  2 31  1  0
  3 32  1  0
 16 33  1  0
 17 34  1  0
 18 35  1  0
 19 36  1  0
 20 37  1  0
 21 38  1  0
 21 39  1  0
 22 40  1  0
 22 41  1  0
 23 42  1  0
 23 43  1  0
M  ISO  8  29   8  30   8  31  14  32  14  33  14  34  14  35  14  36   5
M  ISO  7  37   5  38  13  39  13  40  13  41  13  42  13  43  13
M  END
>  <minimizedAffinity>  (1) 
-5.48285437

>  <minimizedRMSD>  (1) 
3.93668318

$$$$
