
     RDKit          3D

 39 41  0  0  1  0  0  0  0  0999 V2000
   45.9550   35.0580   42.0990 C   0  0  0  0  0  0  0  0  0  0  0  0
   44.4680   35.3830   45.5920 C   0  0  0  0  0  0  0  0  0  0  0  0
   44.6850   35.6760   44.2520 C   0  0  0  0  0  0  0  0  0  0  0  0
   45.6030   34.8730   43.5650 C   0  0  0  0  0  0  0  0  0  0  0  0
   46.2200   33.8690   44.2320 N   0  0  0  0  0  0  0  0  0  0  0  0
   46.0040   33.5960   45.5220 C   0  0  0  0  0  0  0  0  0  0  0  0
   45.1070   34.3780   46.2020 N   0  0  0  0  0  0  0  0  0  0  0  0
   46.9020   32.2400   46.2380 S   0  0  0  0  0  0  0  0  0  0  0  0
   45.9540   30.7580   45.8790 C   0  0  0  0  0  0  0  0  0  0  0  0
   45.4430   30.4100   44.6580 N   0  0  0  0  0  0  0  0  0  0  0  0
   44.8110   29.2760   44.7530 O   0  0  0  0  0  0  0  0  0  0  0  0
   44.9090   28.8920   46.0070 C   0  0  0  0  0  0  0  0  0  0  0  0
   45.6040   29.7730   46.7340 N   0  0  0  0  0  0  0  0  0  0  0  0
   44.3240   27.6300   46.5720 C   0  0  0  0  0  0  0  0  0  0  0  0
   42.9880   27.4900   46.2800 F   0  0  0  0  0  0  0  0  0  0  0  0
   44.4750   27.5990   47.9530 F   0  0  0  0  0  0  0  0  0  0  0  0
   44.9730   26.5100   46.0840 F   0  0  0  0  0  0  0  0  0  0  0  0
   47.3490   34.9540   42.0100 N   0  0  0  0  0  0  0  0  0  0  0  0
   46.5260   33.8600   40.0660 N   0  0  0  0  0  0  0  0  0  0  0  0
   47.0390   33.5930   38.7350 C   0  0  0  0  0  0  0  0  0  0  0  0
   48.3010   34.3040   38.5800 C   0  0  0  0  0  0  0  0  0  0  0  0
   48.4620   35.0620   39.8990 C   0  0  0  0  0  0  0  0  0  0  0  0
   47.6970   34.2120   40.8540 C   0  0  1  0  0  0  0  0  0  0  0  0
   48.3590   32.9500   41.2560 C   0  0  0  0  0  0  0  0  0  0  0  0
   48.7220   32.9840   42.5960 F   0  0  0  0  0  0  0  0  0  0  0  0
   47.5490   31.8450   41.0450 F   0  0  0  0  0  0  0  0  0  0  0  0
   49.5330   32.6980   40.5650 F   0  0  0  0  0  0  0  0  0  0  0  0
   45.4758   34.2763   41.4913 H   0  0  0  0  0  0  0  0  0  0  0  0
   45.6033   36.0307   41.7245 H   0  0  0  0  0  0  0  0  0  0  0  0
   43.7536   35.9917   46.1657 H   0  0  0  0  0  0  0  0  0  0  0  0
   44.1587   36.5027   43.7524 H   0  0  0  0  0  0  0  0  0  0  0  0
   47.7599   35.8965   41.9490 H   0  0  0  0  0  0  0  0  0  0  0  0
   46.0673   33.0226   40.4524 H   0  0  0  0  0  0  0  0  0  0  0  0
   47.2029   32.5126   38.6094 H   0  0  0  0  0  0  0  0  0  0  0  0
   46.3180   33.9309   37.9761 H   0  0  0  0  0  0  0  0  0  0  0  0
   49.1316   33.5985   38.4304 H   0  0  0  0  0  0  0  0  0  0  0  0
   48.3073   34.9703   37.7048 H   0  0  0  0  0  0  0  0  0  0  0  0
   49.5204   35.1334   40.1900 H   0  0  0  0  0  0  0  0  0  0  0  0
   48.1053   36.1016   39.8540 H   0  0  0  0  0  0  0  0  0  0  0  0
  1  4  1  0
  2  7  2  0
  3  2  1  0
  4  5  1  0
  4  3  2  0
  5  6  2  0
  6  7  1  0
  6  8  1  0
  9  8  1  0
  9 13  1  0
 10 11  1  0
 10  9  2  0
 11 12  1  0
 12 14  1  0
 12 13  2  0
 14 16  1  0
 15 14  1  0
 17 14  1  0
 18  1  1  0
 19 23  1  0
 20 19  1  0
 21 20  1  0
 21 22  1  0
 22 23  1  0
 23 24  1  0
 23 18  1  1
 24 25  1  0
 26 24  1  0
 27 24  1  0
  1 28  1  0
  1 29  1  0
  2 30  1  0
  3 31  1  0
 18 32  1  0
 19 33  1  0
 20 34  1  0
 20 35  1  0
 21 36  1  0
 21 37  1  0
 22 38  1  0
 22 39  1  0
M  ISO  8  28   8  29   8  30  14  31  14  32   5  33   5  34  13  35  13
M  ISO  4  36  13  37  13  38  13  39  13
M  END
>  <minimizedAffinity>  (1) 
-5.14983416

>  <minimizedRMSD>  (1) 
2.96263337

$$$$
