
     RDKit          3D

 26 27  0  0  0  0  0  0  0  0999 V2000
   46.4670   34.3900   41.6780 N   0  0  0  0  0  0  0  0  0  0  0  0
   45.8700   33.8550   40.6570 N   0  0  0  0  0  0  0  0  0  0  0  0
   46.7240   33.6750   39.6190 C   0  0  0  0  0  0  0  0  0  0  0  0
   47.9560   34.1460   40.0550 C   0  0  0  0  0  0  0  0  0  0  0  0
   47.7620   34.5820   41.3350 C   0  0  0  0  0  0  0  0  0  0  0  0
   44.6320   36.1680   44.3830 C   0  0  0  0  0  0  0  0  0  0  0  0
   45.2050   35.9090   43.1180 C   0  0  0  0  0  0  0  0  0  0  0  0
   45.8720   34.7120   42.9180 C   0  0  0  0  0  0  0  0  0  0  0  0
   45.9410   33.8480   43.9490 N   0  0  0  0  0  0  0  0  0  0  0  0
   45.3910   34.0980   45.1640 C   0  0  0  0  0  0  0  0  0  0  0  0
   44.7420   35.2510   45.3780 N   0  0  0  0  0  0  0  0  0  0  0  0
   48.8110   35.1760   42.2150 C   0  0  0  0  0  0  0  0  0  0  0  0
   49.3650   36.4280   41.5680 C   0  0  0  0  0  0  0  0  0  0  0  0
   49.9750   34.2270   42.3940 C   0  0  0  0  0  0  0  0  0  0  0  0
   46.4894   33.2445   38.6343 H   0  0  0  0  0  0  0  0  0  0  0  0
   48.8968   34.1642   39.4852 H   0  0  0  0  0  0  0  0  0  0  0  0
   44.0969   37.1123   44.5617 H   0  0  0  0  0  0  0  0  0  0  0  0
   45.1227   36.6458   42.3054 H   0  0  0  0  0  0  0  0  0  0  0  0
   45.4776   33.3561   45.9715 H   0  0  0  0  0  0  0  0  0  0  0  0
   48.3430   35.3909   43.1870 H   0  0  0  0  0  0  0  0  0  0  0  0
   49.6784   37.1364   42.3490 H   0  0  0  0  0  0  0  0  0  0  0  0
   50.2308   36.1651   40.9425 H   0  0  0  0  0  0  0  0  0  0  0  0
   48.5882   36.8920   40.9425 H   0  0  0  0  0  0  0  0  0  0  0  0
   50.1621   34.0745   43.4672 H   0  0  0  0  0  0  0  0  0  0  0  0
   49.7372   33.2620   41.9225 H   0  0  0  0  0  0  0  0  0  0  0  0
   50.8723   34.6543   41.9225 H   0  0  0  0  0  0  0  0  0  0  0  0
  1  8  1  0
  2  1  1  0
  3  4  1  0
  3  2  2  0
  4  5  2  0
  5  1  1  0
  5 12  1  0
  6 11  2  0
  7  6  1  0
  8  7  2  0
  8  9  1  0
  9 10  2  0
 10 11  1  0
 12 14  1  0
 13 12  1  0
  3 15  1  0
  4 16  1  0
  6 17  1  0
  7 18  1  0
 10 19  1  0
 12 20  1  0
 13 21  1  0
 13 22  1  0
 13 23  1  0
 14 24  1  0
 14 25  1  0
 14 26  1  0
M  ISO  8  15  14  16  14  17  14  18  14  19  14  20   8  21   8  22   8
M  ISO  4  23   8  24   8  25   8  26   8
M  END
>  <minimizedAffinity>  (1) 
-4.97729111

>  <minimizedRMSD>  (1) 
0.882020593

$$$$
