
     RDKit          3D

 25 27  0  0  0  0  0  0  0  0999 V2000
   46.2600   34.2240   40.9790 N   0  0  0  0  0  0  0  0  0  0  0  0
   47.1750   34.3060   40.0650 N   0  0  0  0  0  0  0  0  0  0  0  0
   48.3150   34.8440   40.5440 C   0  0  0  0  0  0  0  0  0  0  0  0
   48.0680   35.1180   41.8940 C   0  0  0  0  0  0  0  0  0  0  0  0
   46.7840   34.7170   42.1120 C   0  0  0  0  0  0  0  0  0  0  0  0
   42.6100   33.9370   40.3010 C   0  0  0  0  0  0  0  0  0  0  0  0
   43.8910   34.5400   40.4460 C   0  0  0  0  0  0  0  0  0  0  0  0
   44.9480   33.7080   40.8110 C   0  0  0  0  0  0  0  0  0  0  0  0
   44.7230   32.3790   41.0120 N   0  0  0  0  0  0  0  0  0  0  0  0
   43.4780   31.8490   40.8610 C   0  0  0  0  0  0  0  0  0  0  0  0
   42.4340   32.6220   40.5080 N   0  0  0  0  0  0  0  0  0  0  0  0
   46.0690   34.8030   43.3820 C   0  0  0  0  0  0  0  0  0  0  0  0
   45.2120   35.8520   43.6460 C   0  0  0  0  0  0  0  0  0  0  0  0
   44.4800   36.0550   44.7930 C   0  0  0  0  0  0  0  0  0  0  0  0
   44.6550   35.0900   45.7420 N   0  0  0  0  0  0  0  0  0  0  0  0
   45.4800   34.0460   45.5370 C   0  0  0  0  0  0  0  0  0  0  0  0
   46.1790   33.8960   44.3800 N   0  0  0  0  0  0  0  0  0  0  0  0
   49.2463   35.0292   39.9886 H   0  0  0  0  0  0  0  0  0  0  0  0
   48.7618   35.5620   42.6230 H   0  0  0  0  0  0  0  0  0  0  0  0
   41.7492   34.5590   40.0144 H   0  0  0  0  0  0  0  0  0  0  0  0
   44.0405   35.6166   40.2772 H   0  0  0  0  0  0  0  0  0  0  0  0
   43.3229   30.7732   41.0300 H   0  0  0  0  0  0  0  0  0  0  0  0
   45.1024   36.6073   42.8539 H   0  0  0  0  0  0  0  0  0  0  0  0
   43.8129   36.9184   44.9328 H   0  0  0  0  0  0  0  0  0  0  0  0
   45.5921   33.2913   46.3294 H   0  0  0  0  0  0  0  0  0  0  0  0
  1  5  1  0
  2  3  2  0
  2  1  1  0
  3  4  1  0
  4  5  2  0
  5 12  1  0
  6  7  2  0
  6 11  1  0
  7  8  1  0
  8  1  1  0
  8  9  2  0
 10  9  1  0
 11 10  2  0
 12 13  2  0
 12 17  1  0
 13 14  1  0
 14 15  2  0
 16 15  1  0
 17 16  2  0
  3 18  1  0
  4 19  1  0
  6 20  1  0
  7 21  1  0
 10 22  1  0
 13 23  1  0
 14 24  1  0
 16 25  1  0
M  ISO  8  18  14  19  14  20  14  21  14  22  14  23  14  24  14  25  14
M  END
>  <minimizedAffinity>  (1) 
-4.8481822

>  <minimizedRMSD>  (1) 
4.06001759

$$$$
