
     RDKit          3D

 23 24  0  0  0  0  0  0  0  0999 V2000
   46.6500   34.4430   41.4990 N   0  0  0  0  0  0  0  0  0  0  0  0
   46.1440   33.7220   40.5340 N   0  0  0  0  0  0  0  0  0  0  0  0
   47.0070   33.6740   39.4790 C   0  0  0  0  0  0  0  0  0  0  0  0
   48.1140   34.4240   39.8390 C   0  0  0  0  0  0  0  0  0  0  0  0
   47.8550   34.8870   41.1020 C   0  0  0  0  0  0  0  0  0  0  0  0
   44.6930   36.0350   44.2370 C   0  0  0  0  0  0  0  0  0  0  0  0
   45.2700   35.8460   42.9550 C   0  0  0  0  0  0  0  0  0  0  0  0
   46.0380   34.7120   42.7440 C   0  0  0  0  0  0  0  0  0  0  0  0
   46.2010   33.8320   43.7770 N   0  0  0  0  0  0  0  0  0  0  0  0
   45.6390   34.0350   44.9950 C   0  0  0  0  0  0  0  0  0  0  0  0
   44.8940   35.1240   45.2190 N   0  0  0  0  0  0  0  0  0  0  0  0
   48.8280   35.7400   41.8330 C   0  0  0  0  0  0  0  0  0  0  0  0
   49.8410   34.8430   42.5530 C   0  0  0  0  0  0  0  0  0  0  0  0
   46.8536   33.1432   38.5278 H   0  0  0  0  0  0  0  0  0  0  0  0
   49.0149   34.6096   39.2357 H   0  0  0  0  0  0  0  0  0  0  0  0
   44.0791   36.9261   44.4347 H   0  0  0  0  0  0  0  0  0  0  0  0
   45.1122   36.5794   42.1505 H   0  0  0  0  0  0  0  0  0  0  0  0
   45.7961   33.3026   45.8006 H   0  0  0  0  0  0  0  0  0  0  0  0
   49.3546   36.3916   41.1202 H   0  0  0  0  0  0  0  0  0  0  0  0
   48.2960   36.3618   42.5681 H   0  0  0  0  0  0  0  0  0  0  0  0
   49.7186   34.9514   43.6408 H   0  0  0  0  0  0  0  0  0  0  0  0
   49.6703   33.7945   42.2675 H   0  0  0  0  0  0  0  0  0  0  0  0
   50.8611   35.1393   42.2675 H   0  0  0  0  0  0  0  0  0  0  0  0
  1  8  1  0
  2  1  1  0
  3  4  1  0
  3  2  2  0
  4  5  2  0
  5  1  1  0
  5 12  1  0
  6 11  2  0
  7  6  1  0
  8  7  2  0
  8  9  1  0
  9 10  2  0
 10 11  1  0
 12 13  1  0
  3 14  1  0
  4 15  1  0
  6 16  1  0
  7 17  1  0
 10 18  1  0
 12 19  1  0
 12 20  1  0
 13 21  1  0
 13 22  1  0
 13 23  1  0
M  ISO  8  14  14  15  14  16  14  17  14  18  14  19   8  20   8  21   8
M  ISO  2  22   8  23   8
M  END
>  <minimizedAffinity>  (1) 
-4.76276684

>  <minimizedRMSD>  (1) 
0.779157221

$$$$
