
     RDKit          3D

 24 26  0  0  0  0  0  0  0  0999 V2000
   45.8070   34.2040   40.8470 N   0  0  0  0  0  0  0  0  0  0  0  0
   46.7160   34.0900   39.9360 N   0  0  0  0  0  0  0  0  0  0  0  0
   47.9230   34.4680   40.3870 C   0  0  0  0  0  0  0  0  0  0  0  0
   47.7490   34.8550   41.7000 C   0  0  0  0  0  0  0  0  0  0  0  0
   46.4030   34.6710   41.9440 C   0  0  0  0  0  0  0  0  0  0  0  0
   42.1450   34.4810   40.1950 C   0  0  0  0  0  0  0  0  0  0  0  0
   43.5040   34.8470   40.3190 C   0  0  0  0  0  0  0  0  0  0  0  0
   44.4300   33.8920   40.7070 C   0  0  0  0  0  0  0  0  0  0  0  0
   43.9890   32.6420   40.9510 N   0  0  0  0  0  0  0  0  0  0  0  0
   42.6820   32.2910   40.8320 C   0  0  0  0  0  0  0  0  0  0  0  0
   41.7710   33.2170   40.4540 N   0  0  0  0  0  0  0  0  0  0  0  0
   45.7530   34.9520   43.2170 C   0  0  0  0  0  0  0  0  0  0  0  0
   45.0690   36.0660   43.5720 C   0  0  0  0  0  0  0  0  0  0  0  0
   44.5130   36.1870   44.8060 C   0  0  0  0  0  0  0  0  0  0  0  0
   44.7520   34.9820   45.6700 C   0  0  0  0  0  0  0  0  0  0  0  0
   45.7580   33.8460   44.5440 S   0  0  0  0  0  0  0  0  0  0  0  0
   48.8660   34.4690   39.8206 H   0  0  0  0  0  0  0  0  0  0  0  0
   48.5135   35.2276   42.3976 H   0  0  0  0  0  0  0  0  0  0  0  0
   41.3972   35.2270   39.8880 H   0  0  0  0  0  0  0  0  0  0  0  0
   43.8234   35.8786   40.1099 H   0  0  0  0  0  0  0  0  0  0  0  0
   42.3659   31.2586   41.0420 H   0  0  0  0  0  0  0  0  0  0  0  0
   44.9617   36.8875   42.8483 H   0  0  0  0  0  0  0  0  0  0  0  0
   43.9489   37.0717   45.1363 H   0  0  0  0  0  0  0  0  0  0  0  0
   44.4224   34.8044   46.7043 H   0  0  0  0  0  0  0  0  0  0  0  0
  1  5  1  0
  2  3  2  0
  2  1  1  0
  3  4  1  0
  4  5  2  0
  5 12  1  0
  6  7  2  0
  6 11  1  0
  7  8  1  0
  8  1  1  0
  8  9  2  0
 10  9  1  0
 11 10  2  0
 12 13  2  0
 12 16  1  0
 13 14  1  0
 14 15  2  0
 16 15  1  0
  3 17  1  0
  4 18  1  0
  6 19  1  0
  7 20  1  0
 10 21  1  0
 13 22  1  0
 14 23  1  0
 15 24  1  0
M  ISO  8  17  14  18  14  19  14  20  14  21  14  22  14  23  14  24  14
M  END
>  <minimizedAffinity>  (1) 
-4.52527046

>  <minimizedRMSD>  (1) 
4.07493258

$$$$
