
     RDKit          3D

 29 31  0  0  0  0  0  0  0  0999 V2000
   47.8930   34.0200   43.1490 N   0  0  0  0  0  0  0  0  0  0  0  0
   49.1860   34.2410   43.0770 N   0  0  0  0  0  0  0  0  0  0  0  0
   49.4590   35.1460   42.1050 C   0  0  0  0  0  0  0  0  0  0  0  0
   48.2450   35.5010   41.5450 C   0  0  0  0  0  0  0  0  0  0  0  0
   47.3020   34.7810   42.2210 C   0  0  0  0  0  0  0  0  0  0  0  0
   46.6300   30.9450   44.8290 C   0  0  0  0  0  0  0  0  0  0  0  0
   47.2950   31.7570   43.8670 C   0  0  0  0  0  0  0  0  0  0  0  0
   47.2600   33.1320   44.0550 C   0  0  0  0  0  0  0  0  0  0  0  0
   46.6010   33.6390   45.1390 N   0  0  0  0  0  0  0  0  0  0  0  0
   45.9810   32.8390   46.0350 C   0  0  0  0  0  0  0  0  0  0  0  0
   45.9920   31.4990   45.8850 N   0  0  0  0  0  0  0  0  0  0  0  0
   45.9010   34.8420   41.9640 N   0  0  0  0  0  0  0  0  0  0  0  0
   44.8270   35.5620   42.6330 C   0  0  0  0  0  0  0  0  0  0  0  0
   43.8120   35.7350   41.5580 C   0  0  0  0  0  0  0  0  0  0  0  0
   43.8500   34.3580   40.8820 C   0  0  0  0  0  0  0  0  0  0  0  0
   45.3370   34.0780   40.8420 C   0  0  0  0  0  0  0  0  0  0  0  0
   50.4514   35.5239   41.8180 H   0  0  0  0  0  0  0  0  0  0  0  0
   48.0747   36.2148   40.7256 H   0  0  0  0  0  0  0  0  0  0  0  0
   46.6352   29.8513   44.7117 H   0  0  0  0  0  0  0  0  0  0  0  0
   47.8169   31.3116   43.0072 H   0  0  0  0  0  0  0  0  0  0  0  0
   45.4619   33.2859   46.8957 H   0  0  0  0  0  0  0  0  0  0  0  0
   44.4197   34.9748   43.4693 H   0  0  0  0  0  0  0  0  0  0  0  0
   45.1555   36.5150   43.0734 H   0  0  0  0  0  0  0  0  0  0  0  0
   42.8173   35.9514   41.9748 H   0  0  0  0  0  0  0  0  0  0  0  0
   44.0154   36.5756   40.8783 H   0  0  0  0  0  0  0  0  0  0  0  0
   43.3156   33.6036   41.4781 H   0  0  0  0  0  0  0  0  0  0  0  0
   43.3633   34.3306   39.8959 H   0  0  0  0  0  0  0  0  0  0  0  0
   45.5311   33.0029   40.9706 H   0  0  0  0  0  0  0  0  0  0  0  0
   45.7851   34.3673   39.8799 H   0  0  0  0  0  0  0  0  0  0  0  0
  1  8  1  0
  2  1  1  0
  3  2  2  0
  4  3  1  0
  4  5  2  0
  5  1  1  0
  6 11  2  0
  7  8  2  0
  7  6  1  0
  8  9  1  0
  9 10  2  0
 11 10  1  0
 12  5  1  0
 12 13  1  0
 14 13  1  0
 15 14  1  0
 16 15  1  0
 16 12  1  0
  3 17  1  0
  4 18  1  0
  6 19  1  0
  7 20  1  0
 10 21  1  0
 13 22  1  0
 13 23  1  0
 14 24  1  0
 14 25  1  0
 15 26  1  0
 15 27  1  0
 16 28  1  0
 16 29  1  0
M  ISO  8  17  14  18  14  19  14  20  14  21  14  22  13  23  13  24  13
M  ISO  5  25  13  26  13  27  13  28  13  29  13
M  END
>  <minimizedAffinity>  (1) 
-4.44853592

>  <minimizedRMSD>  (1) 
4.14975691

$$$$
