
     RDKit          3D

 20 21  0  0  0  0  0  0  0  0999 V2000
   44.6860   36.0430   44.2270 C   0  0  0  0  0  0  0  0  0  0  0  0
   45.2690   35.8370   42.9480 C   0  0  0  0  0  0  0  0  0  0  0  0
   46.0430   34.6780   42.7530 C   0  0  0  0  0  0  0  0  0  0  0  0
   46.1920   33.8240   43.7840 N   0  0  0  0  0  0  0  0  0  0  0  0
   45.6260   34.0440   44.9920 C   0  0  0  0  0  0  0  0  0  0  0  0
   44.8840   35.1380   45.2070 N   0  0  0  0  0  0  0  0  0  0  0  0
   46.6470   34.4230   41.5010 N   0  0  0  0  0  0  0  0  0  0  0  0
   46.1450   33.7440   40.5250 N   0  0  0  0  0  0  0  0  0  0  0  0
   46.9900   33.7000   39.4710 C   0  0  0  0  0  0  0  0  0  0  0  0
   48.1140   34.4220   39.8410 C   0  0  0  0  0  0  0  0  0  0  0  0
   47.8740   34.8660   41.1200 C   0  0  0  0  0  0  0  0  0  0  0  0
   48.8530   35.6890   41.8830 C   0  0  0  0  0  0  0  0  0  0  0  0
   44.0751   36.9377   44.4173 H   0  0  0  0  0  0  0  0  0  0  0  0
   45.1198   36.5619   42.1342 H   0  0  0  0  0  0  0  0  0  0  0  0
   45.7762   33.3184   45.8050 H   0  0  0  0  0  0  0  0  0  0  0  0
   46.8196   33.1921   38.5103 H   0  0  0  0  0  0  0  0  0  0  0  0
   49.0141   34.6028   39.2351 H   0  0  0  0  0  0  0  0  0  0  0  0
   48.6873   35.5497   42.9615 H   0  0  0  0  0  0  0  0  0  0  0  0
   49.8753   35.3751   41.6255 H   0  0  0  0  0  0  0  0  0  0  0  0
   48.7194   36.7501   41.6255 H   0  0  0  0  0  0  0  0  0  0  0  0
  1  6  2  0
  2  1  1  0
  3  2  2  0
  3  4  1  0
  4  5  2  0
  5  6  1  0
  7  3  1  0
  8  7  1  0
  9 10  1  0
  9  8  2  0
 10 11  2  0
 11  7  1  0
 11 12  1  0
  1 13  1  0
  2 14  1  0
  5 15  1  0
  9 16  1  0
 10 17  1  0
 12 18  1  0
 12 19  1  0
 12 20  1  0
M  ISO  8  13  14  14  14  15  14  16  14  17  14  18   8  19   8  20   8
M  END
>  <minimizedAffinity>  (1) 
-4.39163208

>  <minimizedRMSD>  (1) 
0.662617683

$$$$
