
     RDKit          3D

 30 32  0  0  0  0  0  0  0  0999 V2000
   46.9120   34.6250   41.9570 N   0  0  0  0  0  0  0  0  0  0  0  0
   47.9210   35.2440   41.3930 N   0  0  0  0  0  0  0  0  0  0  0  0
   49.0730   34.9940   42.0630 C   0  0  0  0  0  0  0  0  0  0  0  0
   48.7270   34.1580   43.1170 C   0  0  0  0  0  0  0  0  0  0  0  0
   47.3680   33.9490   43.0190 C   0  0  0  0  0  0  0  0  0  0  0  0
   43.2990   35.5030   41.6610 C   0  0  0  0  0  0  0  0  0  0  0  0
   44.6330   35.5070   42.1530 C   0  0  0  0  0  0  0  0  0  0  0  0
   45.5670   34.6680   41.5170 C   0  0  0  0  0  0  0  0  0  0  0  0
   45.1590   33.9100   40.4840 N   0  0  0  0  0  0  0  0  0  0  0  0
   43.8780   33.9280   40.0390 C   0  0  0  0  0  0  0  0  0  0  0  0
   42.9600   34.7180   40.6230 N   0  0  0  0  0  0  0  0  0  0  0  0
   46.5290   33.1090   43.9380 C   0  0  0  0  0  0  0  0  0  0  0  0
   47.2940   31.8920   44.4080 C   0  0  0  0  0  0  0  0  0  0  0  0
   47.1170   31.7900   45.8950 C   0  0  0  0  0  0  0  0  0  0  0  0
   45.9630   32.7150   46.2150 C   0  0  0  0  0  0  0  0  0  0  0  0
   46.1210   33.8170   45.1860 C   0  0  0  0  0  0  0  0  0  0  0  0
   50.0762   35.3752   41.8214 H   0  0  0  0  0  0  0  0  0  0  0  0
   49.4037   33.7445   43.8792 H   0  0  0  0  0  0  0  0  0  0  0  0
   42.5403   36.1454   42.1319 H   0  0  0  0  0  0  0  0  0  0  0  0
   44.9249   36.1437   43.0012 H   0  0  0  0  0  0  0  0  0  0  0  0
   43.5870   33.2898   39.1916 H   0  0  0  0  0  0  0  0  0  0  0  0
   45.6431   32.8521   43.3386 H   0  0  0  0  0  0  0  0  0  0  0  0
   46.8981   30.9889   43.9205 H   0  0  0  0  0  0  0  0  0  0  0  0
   48.3598   31.9833   44.1515 H   0  0  0  0  0  0  0  0  0  0  0  0
   46.8768   30.7568   46.1860 H   0  0  0  0  0  0  0  0  0  0  0  0
   48.0317   32.0656   46.4404 H   0  0  0  0  0  0  0  0  0  0  0  0
   44.9981   32.1997   46.0988 H   0  0  0  0  0  0  0  0  0  0  0  0
   45.9737   33.0823   47.2518 H   0  0  0  0  0  0  0  0  0  0  0  0
   46.8964   34.5320   45.4983 H   0  0  0  0  0  0  0  0  0  0  0  0
   45.1975   34.3996   45.0528 H   0  0  0  0  0  0  0  0  0  0  0  0
  1  5  1  0
  2  1  1  0
  2  3  2  0
  3  4  1  0
  5  4  2  0
  5 12  1  0
  6  7  2  0
  8  1  1  0
  8  7  1  0
  9  8  2  0
 10  9  1  0
 10 11  2  0
 11  6  1  0
 12 13  1  0
 12 16  1  0
 13 14  1  0
 14 15  1  0
 16 15  1  0
  3 17  1  0
  4 18  1  0
  6 19  1  0
  7 20  1  0
 10 21  1  0
 12 22  1  0
 13 23  1  0
 13 24  1  0
 14 25  1  0
 14 26  1  0
 15 27  1  0
 15 28  1  0
 16 29  1  0
 16 30  1  0
M  ISO  8  17  14  18  14  19  14  20  14  21  14  22  13  23  13  24  13
M  ISO  6  25  13  26  13  27  13  28  13  29  13  30  13
M  END
>  <minimizedAffinity>  (1) 
-4.23669624

>  <minimizedRMSD>  (1) 
3.90596104

$$$$
