
     RDKit          3D

 23 25  0  0  0  0  0  0  0  0999 V2000
   46.2660   34.2190   40.8200 N   0  0  0  0  0  0  0  0  0  0  0  0
   47.1790   34.2470   39.9070 N   0  0  0  0  0  0  0  0  0  0  0  0
   48.3310   34.7700   40.3600 C   0  0  0  0  0  0  0  0  0  0  0  0
   48.0860   35.0900   41.6840 C   0  0  0  0  0  0  0  0  0  0  0  0
   46.7760   34.7370   41.9660 C   0  0  0  0  0  0  0  0  0  0  0  0
   42.5820   34.0240   40.2360 C   0  0  0  0  0  0  0  0  0  0  0  0
   43.8750   34.5700   40.3850 C   0  0  0  0  0  0  0  0  0  0  0  0
   44.9400   33.7270   40.6630 C   0  0  0  0  0  0  0  0  0  0  0  0
   44.6920   32.4010   40.7800 N   0  0  0  0  0  0  0  0  0  0  0  0
   43.4330   31.8960   40.6310 C   0  0  0  0  0  0  0  0  0  0  0  0
   42.4010   32.6990   40.3640 N   0  0  0  0  0  0  0  0  0  0  0  0
   46.0440   34.8770   43.2340 C   0  0  0  0  0  0  0  0  0  0  0  0
   46.1970   33.9050   44.2440 C   0  0  0  0  0  0  0  0  0  0  0  0
   45.0900   34.5260   45.6150 S   0  0  0  0  0  0  0  0  0  0  0  0
   44.6230   36.0140   44.5340 C   0  0  0  0  0  0  0  0  0  0  0  0
   45.2180   35.8340   43.5920 N   0  0  0  0  0  0  0  0  0  0  0  0
   49.2667   34.9129   39.7995 H   0  0  0  0  0  0  0  0  0  0  0  0
   48.8019   35.5428   42.3858 H   0  0  0  0  0  0  0  0  0  0  0  0
   41.7269   34.6801   40.0162 H   0  0  0  0  0  0  0  0  0  0  0  0
   44.0361   35.6532   40.2816 H   0  0  0  0  0  0  0  0  0  0  0  0
   43.2667   30.8134   40.7322 H   0  0  0  0  0  0  0  0  0  0  0  0
   46.8193   32.9981   44.2284 H   0  0  0  0  0  0  0  0  0  0  0  0
   43.9417   36.8454   44.7675 H   0  0  0  0  0  0  0  0  0  0  0  0
  1  5  1  0
  2  3  2  0
  2  1  1  0
  3  4  1  0
  4  5  2  0
  5 12  1  0
  6 11  2  0
  6  7  1  0
  7  8  2  0
  8  9  1  0
  8  1  1  0
 10  9  2  0
 11 10  1  0
 12 16  1  0
 12 13  2  0
 13 14  1  0
 15 14  1  0
 16 15  2  0
  3 17  1  0
  4 18  1  0
  6 19  1  0
  7 20  1  0
 10 21  1  0
 13 22  1  0
 15 23  1  0
M  ISO  7  17  14  18  14  19  14  20  14  21  14  22  14  23  14
M  END
>  <minimizedAffinity>  (1) 
-4.23570251

>  <minimizedRMSD>  (1) 
3.93528724

$$$$
