
     RDKit          3D

 18 19  0  0  0  0  0  0  0  0999 V2000
   44.6420   36.1400   44.3270 C   0  0  0  0  0  0  0  0  0  0  0  0
   45.2650   35.9340   43.0760 C   0  0  0  0  0  0  0  0  0  0  0  0
   46.0130   34.7770   42.8820 C   0  0  0  0  0  0  0  0  0  0  0  0
   46.1170   33.8940   43.8980 N   0  0  0  0  0  0  0  0  0  0  0  0
   45.5150   34.1040   45.0920 C   0  0  0  0  0  0  0  0  0  0  0  0
   44.7900   35.2110   45.3040 N   0  0  0  0  0  0  0  0  0  0  0  0
   46.6570   34.5240   41.6450 N   0  0  0  0  0  0  0  0  0  0  0  0
   46.1620   33.8780   40.6320 N   0  0  0  0  0  0  0  0  0  0  0  0
   47.0390   33.8110   39.5980 C   0  0  0  0  0  0  0  0  0  0  0  0
   48.1820   34.4870   40.0350 C   0  0  0  0  0  0  0  0  0  0  0  0
   47.9080   34.9120   41.2990 C   0  0  0  0  0  0  0  0  0  0  0  0
   48.7710   35.6350   42.1250 O   0  0  0  0  0  0  0  0  0  0  0  0
   44.0429   37.0448   44.5069 H   0  0  0  0  0  0  0  0  0  0  0  0
   45.1606   36.6750   42.2698 H   0  0  0  0  0  0  0  0  0  0  0  0
   45.6217   33.3598   45.8950 H   0  0  0  0  0  0  0  0  0  0  0  0
   46.8832   33.3271   38.6225 H   0  0  0  0  0  0  0  0  0  0  0  0
   49.1138   34.6437   39.4718 H   0  0  0  0  0  0  0  0  0  0  0  0
   48.4802   35.9003   43.0334 H   0  0  0  0  0  0  0  0  0  0  0  0
  1  6  2  0
  2  1  1  0
  3  2  2  0
  3  4  1  0
  4  5  2  0
  5  6  1  0
  7  3  1  0
  8  7  1  0
  9 10  1  0
  9  8  2  0
 10 11  2  0
 11  7  1  0
 11 12  1  0
  1 13  1  0
  2 14  1  0
  5 15  1  0
  9 16  1  0
 10 17  1  0
 12 18  1  0
M  ISO  6  13  14  14  14  15  14  16  14  17  14  18   3
M  END
>  <minimizedAffinity>  (1) 
-4.1825161

>  <minimizedRMSD>  (1) 
0.513035238

$$$$
