
     RDKit          3D

 18 19  0  0  0  0  0  0  0  0999 V2000
   44.7150   36.0260   44.2160 C   0  0  0  0  0  0  0  0  0  0  0  0
   45.2820   35.8250   42.9370 C   0  0  0  0  0  0  0  0  0  0  0  0
   46.0280   34.6690   42.7180 C   0  0  0  0  0  0  0  0  0  0  0  0
   46.1730   33.8010   43.7360 N   0  0  0  0  0  0  0  0  0  0  0  0
   45.6220   34.0070   44.9590 C   0  0  0  0  0  0  0  0  0  0  0  0
   44.9020   35.1080   45.1950 N   0  0  0  0  0  0  0  0  0  0  0  0
   46.6280   34.4090   41.4600 N   0  0  0  0  0  0  0  0  0  0  0  0
   46.0700   33.8280   40.4500 N   0  0  0  0  0  0  0  0  0  0  0  0
   46.9320   33.7400   39.4030 C   0  0  0  0  0  0  0  0  0  0  0  0
   48.1170   34.3250   39.8280 C   0  0  0  0  0  0  0  0  0  0  0  0
   47.8980   34.7340   41.1190 C   0  0  0  0  0  0  0  0  0  0  0  0
   49.0980   35.5550   42.1540 S   0  0  0  0  0  0  0  0  0  0  0  0
   44.1207   36.9295   44.4171 H   0  0  0  0  0  0  0  0  0  0  0  0
   45.1378   36.5632   42.1343 H   0  0  0  0  0  0  0  0  0  0  0  0
   45.7684   33.2657   45.7584 H   0  0  0  0  0  0  0  0  0  0  0  0
   46.7312   33.2949   38.4173 H   0  0  0  0  0  0  0  0  0  0  0  0
   49.0442   34.4378   39.2470 H   0  0  0  0  0  0  0  0  0  0  0  0
   48.7868   35.3421   43.4711 H   0  0  0  0  0  0  0  0  0  0  0  0
  1  6  2  0
  2  1  1  0
  3  2  2  0
  3  4  1  0
  4  5  2  0
  5  6  1  0
  7  3  1  0
  8  7  1  0
  9 10  1  0
  9  8  2  0
 10 11  2  0
 11  7  1  0
 11 12  1  0
  1 13  1  0
  2 14  1  0
  5 15  1  0
  9 16  1  0
 10 17  1  0
 12 18  1  0
M  ISO  6  13  14  14  14  15  14  16  14  17  14  18  11
M  END
>  <minimizedAffinity>  (1) 
-4.04180622

>  <minimizedRMSD>  (1) 
0.720521629

$$$$
