
     RDKit          3D

 30 32  0  0  0  0  0  0  0  0999 V2000
   46.3790   33.8900   40.8380 N   0  0  0  0  0  0  0  0  0  0  0  0
   45.2280   34.0820   41.4370 N   0  0  0  0  0  0  0  0  0  0  0  0
   44.2040   33.7310   40.6360 C   0  0  0  0  0  0  0  0  0  0  0  0
   44.7760   33.2830   39.4350 C   0  0  0  0  0  0  0  0  0  0  0  0
   46.1310   33.4060   39.6200 C   0  0  0  0  0  0  0  0  0  0  0  0
   49.4740   35.6500   41.9460 C   0  0  0  0  0  0  0  0  0  0  0  0
   48.1980   35.4350   41.3810 C   0  0  0  0  0  0  0  0  0  0  0  0
   47.6460   34.1530   41.3900 C   0  0  0  0  0  0  0  0  0  0  0  0
   48.3740   33.1690   41.9470 N   0  0  0  0  0  0  0  0  0  0  0  0
   49.6070   33.3780   42.4930 C   0  0  0  0  0  0  0  0  0  0  0  0
   50.1430   34.6000   42.4890 N   0  0  0  0  0  0  0  0  0  0  0  0
   47.0200   33.0300   38.5760 N   0  0  0  0  0  0  0  0  0  0  0  0
   47.1980   33.7960   37.3350 C   0  0  0  0  0  0  0  0  0  0  0  0
   48.7050   34.0780   37.3040 C   0  0  0  0  0  0  0  0  0  0  0  0
   49.3980   32.9210   37.1080 O   0  0  0  0  0  0  0  0  0  0  0  0
   48.9580   31.7840   37.6950 C   0  0  0  0  0  0  0  0  0  0  0  0
   47.8380   31.8500   38.6540 C   0  0  0  0  0  0  0  0  0  0  0  0
   43.1317   33.7847   40.8754 H   0  0  0  0  0  0  0  0  0  0  0  0
   44.2528   32.9139   38.5406 H   0  0  0  0  0  0  0  0  0  0  0  0
   49.9207   36.6552   41.9464 H   0  0  0  0  0  0  0  0  0  0  0  0
   47.6419   36.2733   40.9361 H   0  0  0  0  0  0  0  0  0  0  0  0
   50.1602   32.5374   42.9373 H   0  0  0  0  0  0  0  0  0  0  0  0
   46.8902   33.2047   36.4600 H   0  0  0  0  0  0  0  0  0  0  0  0
   46.5892   34.7117   37.3047 H   0  0  0  0  0  0  0  0  0  0  0  0
   48.9267   34.7773   36.4843 H   0  0  0  0  0  0  0  0  0  0  0  0
   49.0070   34.5178   38.2660 H   0  0  0  0  0  0  0  0  0  0  0  0
   48.6481   31.1054   36.8867 H   0  0  0  0  0  0  0  0  0  0  0  0
   49.8101   31.4647   38.3131 H   0  0  0  0  0  0  0  0  0  0  0  0
   48.2584   31.7965   39.6691 H   0  0  0  0  0  0  0  0  0  0  0  0
   47.1761   31.0087   38.4009 H   0  0  0  0  0  0  0  0  0  0  0  0
  1  8  1  0
  1  2  1  0
  3  2  2  0
  4  5  2  0
  4  3  1  0
  5  1  1  0
  6 11  2  0
  7  8  2  0
  7  6  1  0
  8  9  1  0
  9 10  2  0
 11 10  1  0
 12 17  1  0
 12  5  1  0
 13 12  1  0
 14 13  1  0
 15 14  1  0
 15 16  1  0
 16 17  1  0
  3 18  1  0
  4 19  1  0
  6 20  1  0
  7 21  1  0
 10 22  1  0
 13 23  1  0
 13 24  1  0
 14 25  1  0
 14 26  1  0
 16 27  1  0
 16 28  1  0
 17 29  1  0
 17 30  1  0
M  ISO  8  18  14  19  14  20  14  21  14  22  14  23  13  24  13  25  13
M  ISO  5  26  13  27  13  28  13  29  13  30  13
M  END
>  <minimizedAffinity>  (1) 
-3.90897226

>  <minimizedRMSD>  (1) 
5.41480589

$$$$
