
     RDKit          3D

 39 42  0  0  1  0  0  0  0  0999 V2000
   48.8390   35.0960   42.1790 C   0  0  2  0  0  0  0  0  0  0  0  0
   46.4760   34.4080   41.5960 N   0  0  0  0  0  0  0  0  0  0  0  0
   45.8750   33.9120   40.5560 N   0  0  0  0  0  0  0  0  0  0  0  0
   46.7350   33.7160   39.5300 C   0  0  0  0  0  0  0  0  0  0  0  0
   47.9710   34.1320   39.9900 C   0  0  0  0  0  0  0  0  0  0  0  0
   47.7920   34.5590   41.2780 C   0  0  0  0  0  0  0  0  0  0  0  0
   44.6670   36.2100   44.3050 C   0  0  0  0  0  0  0  0  0  0  0  0
   45.2480   35.9480   43.0480 C   0  0  0  0  0  0  0  0  0  0  0  0
   45.8720   34.7320   42.8360 C   0  0  0  0  0  0  0  0  0  0  0  0
   45.8960   33.8500   43.8530 N   0  0  0  0  0  0  0  0  0  0  0  0
   45.3390   34.0940   45.0660 C   0  0  0  0  0  0  0  0  0  0  0  0
   44.7340   35.2620   45.2820 N   0  0  0  0  0  0  0  0  0  0  0  0
   49.3070   36.4400   41.6820 C   0  0  0  0  0  0  0  0  0  0  0  0
   50.0470   34.1770   42.1960 C   0  0  0  0  0  0  0  0  0  0  0  0
   49.7300   32.7960   42.3510 N   0  0  0  0  0  0  0  0  0  0  0  0
   48.8140   32.1980   43.1640 C   0  0  0  0  0  0  0  0  0  0  0  0
   48.8770   30.8500   42.9600 N   0  0  0  0  0  0  0  0  0  0  0  0
   49.8210   30.6270   42.0300 C   0  0  0  0  0  0  0  0  0  0  0  0
   50.2920   29.4690   41.4530 C   0  0  0  0  0  0  0  0  0  0  0  0
   51.2600   29.5560   40.5350 N   0  0  0  0  0  0  0  0  0  0  0  0
   51.7990   30.7290   40.1450 C   0  0  0  0  0  0  0  0  0  0  0  0
   51.3450   31.8660   40.7020 N   0  0  0  0  0  0  0  0  0  0  0  0
   50.3740   31.8320   41.6310 C   0  0  0  0  0  0  0  0  0  0  0  0
   49.7970   28.1780   41.7890 N   0  0  0  0  0  0  0  0  0  0  0  0
   48.4044   35.1788   43.1861 H   0  0  0  0  0  0  0  0  0  0  0  0
   46.4996   33.3096   38.5353 H   0  0  0  0  0  0  0  0  0  0  0  0
   48.9168   34.1217   39.4284 H   0  0  0  0  0  0  0  0  0  0  0  0
   44.1646   37.1698   44.4957 H   0  0  0  0  0  0  0  0  0  0  0  0
   45.2058   36.7003   42.2465 H   0  0  0  0  0  0  0  0  0  0  0  0
   45.3862   33.3365   45.8622 H   0  0  0  0  0  0  0  0  0  0  0  0
   49.5333   37.0898   42.5402 H   0  0  0  0  0  0  0  0  0  0  0  0
   50.2128   36.3101   41.0716 H   0  0  0  0  0  0  0  0  0  0  0  0
   48.5164   36.9008   41.0716 H   0  0  0  0  0  0  0  0  0  0  0  0
   50.5885   34.3019   41.2467 H   0  0  0  0  0  0  0  0  0  0  0  0
   50.6485   34.4628   43.0715 H   0  0  0  0  0  0  0  0  0  0  0  0
   48.1399   32.7132   43.8641 H   0  0  0  0  0  0  0  0  0  0  0  0
   52.5947   30.7554   39.3859 H   0  0  0  0  0  0  0  0  0  0  0  0
   50.1836   27.3421   41.3278 H   0  0  0  0  0  0  0  0  0  0  0  0
   49.0521   28.0794   42.4935 H   0  0  0  0  0  0  0  0  0  0  0  0
  1 14  1  0
  2  9  1  0
  3  2  1  0
  4  5  1  0
  4  3  2  0
  5  6  2  0
  6  2  1  0
  6  1  1  0
  7 12  2  0
  8  7  1  0
  9  8  2  0
  9 10  1  0
 10 11  2  0
 11 12  1  0
 13  1  1  0
 14 15  1  0
 15 16  1  0
 17 16  2  0
 18 17  1  0
 19 24  1  0
 19 18  2  0
 20 19  1  0
 21 20  2  0
 21 22  1  0
 22 23  2  0
 23 18  1  0
 23 15  1  0
  1 25  1  1
  4 26  1  0
  5 27  1  0
  7 28  1  0
  8 29  1  0
 11 30  1  0
 13 31  1  0
 13 32  1  0
 13 33  1  0
 14 34  1  0
 14 35  1  0
 16 36  1  0
 21 37  1  0
 24 38  1  0
 24 39  1  0
M  ISO  8  25   8  26  14  27  14  28  14  29  14  30  14  31   8  32   8
M  ISO  5  33   8  34   8  35   8  36  14  37  14
M  END
>  <minimizedAffinity>  (1) 
-5.35947371

>  <minimizedRMSD>  (1) 
1.47727013

$$$$
