
     RDKit          3D

 27 28  0  0  1  0  0  0  0  0999 V2000
   46.2000   34.3710   41.7560 N   0  0  0  0  0  0  0  0  0  0  0  0
   45.5210   33.8780   40.7650 N   0  0  0  0  0  0  0  0  0  0  0  0
   46.3060   33.6870   39.6790 C   0  0  0  0  0  0  0  0  0  0  0  0
   47.5770   34.1010   40.0510 C   0  0  0  0  0  0  0  0  0  0  0  0
   47.4710   34.5200   41.3500 C   0  0  0  0  0  0  0  0  0  0  0  0
   44.5320   36.1350   44.5840 C   0  0  0  0  0  0  0  0  0  0  0  0
   45.0220   35.8740   43.2880 C   0  0  0  0  0  0  0  0  0  0  0  0
   45.6850   34.6900   43.0360 C   0  0  0  0  0  0  0  0  0  0  0  0
   45.8340   33.8250   44.0570 N   0  0  0  0  0  0  0  0  0  0  0  0
   45.3600   34.0780   45.3130 C   0  0  0  0  0  0  0  0  0  0  0  0
   44.7130   35.2310   45.5640 N   0  0  0  0  0  0  0  0  0  0  0  0
   48.5910   35.0560   42.1750 C   0  0  2  0  0  0  0  0  0  0  0  0
   49.2400   36.2250   41.4450 C   0  0  0  0  0  0  0  0  0  0  0  0
   49.6670   34.0240   42.3810 C   0  0  0  0  0  0  0  0  0  0  0  0
   50.8700   34.6240   42.7500 O   0  0  0  0  0  0  0  0  0  0  0  0
   45.9992   33.2858   38.7018 H   0  0  0  0  0  0  0  0  0  0  0  0
   48.4844   34.0940   39.4292 H   0  0  0  0  0  0  0  0  0  0  0  0
   44.0026   37.0762   44.7936 H   0  0  0  0  0  0  0  0  0  0  0  0
   44.8768   36.6093   42.4829 H   0  0  0  0  0  0  0  0  0  0  0  0
   45.5067   33.3415   46.1168 H   0  0  0  0  0  0  0  0  0  0  0  0
   48.1690   35.3570   43.1452 H   0  0  0  0  0  0  0  0  0  0  0  0
   49.6374   36.9409   42.1796 H   0  0  0  0  0  0  0  0  0  0  0  0
   50.0608   35.8532   40.8142 H   0  0  0  0  0  0  0  0  0  0  0  0
   48.4904   36.7251   40.8142 H   0  0  0  0  0  0  0  0  0  0  0  0
   49.3528   33.3300   43.1745 H   0  0  0  0  0  0  0  0  0  0  0  0
   49.8203   33.4836   41.4352 H   0  0  0  0  0  0  0  0  0  0  0  0
   50.9337   34.6558   43.7374 H   0  0  0  0  0  0  0  0  0  0  0  0
  1  8  1  0
  2  1  1  0
  3  4  1  0
  3  2  2  0
  4  5  2  0
  5  1  1  0
  5 12  1  0
  6 11  2  0
  7  6  1  0
  8  7  2  0
  8  9  1  0
  9 10  2  0
 10 11  1  0
 12 14  1  0
 13 12  1  0
 14 15  1  0
  3 16  1  0
  4 17  1  0
  6 18  1  0
  7 19  1  0
 10 20  1  0
 12 21  1  1
 13 22  1  0
 13 23  1  0
 13 24  1  0
 14 25  1  0
 14 26  1  0
 15 27  1  0
M  ISO  8  16  14  17  14  18  14  19  14  20  14  21   8  22   8  23   8
M  ISO  4  24   8  25   8  26   8  27   3
M  END
>  <minimizedAffinity>  (1) 
-5.27643967

>  <minimizedRMSD>  (1) 
0.305240184

$$$$
