
     RDKit          3D

 38 41  0  0  1  0  0  0  0  0999 V2000
   46.3680   33.4450   41.3830 C   0  0  1  0  0  0  0  0  0  0  0  0
   46.9000   34.8510   41.5020 C   0  0  0  0  0  0  0  0  0  0  0  0
   47.0310   33.9390   42.6240 C   0  0  1  0  0  0  0  0  0  0  0  0
   42.7930   34.0050   40.4540 C   0  0  0  0  0  0  0  0  0  0  0  0
   44.2090   34.1930   40.5300 C   0  0  0  0  0  0  0  0  0  0  0  0
   44.9180   33.2710   41.2910 C   0  0  0  0  0  0  0  0  0  0  0  0
   44.2510   32.2550   41.9160 N   0  0  0  0  0  0  0  0  0  0  0  0
   42.9250   32.1070   41.8250 C   0  0  0  0  0  0  0  0  0  0  0  0
   42.1880   32.9730   41.0980 N   0  0  0  0  0  0  0  0  0  0  0  0
   46.2950   34.1210   43.9050 C   0  0  0  0  0  0  0  0  0  0  0  0
   45.3530   35.1030   44.1940 C   0  0  0  0  0  0  0  0  0  0  0  0
   44.7310   35.1370   45.4120 C   0  0  0  0  0  0  0  0  0  0  0  0
   44.9810   34.2590   46.3670 N   0  0  0  0  0  0  0  0  0  0  0  0
   45.8930   33.3040   46.0930 C   0  0  0  0  0  0  0  0  0  0  0  0
   46.5140   33.2520   44.9090 N   0  0  0  0  0  0  0  0  0  0  0  0
   46.2070   32.2890   47.1430 C   0  0  0  0  0  0  0  0  0  0  0  0
   45.2500   32.5550   48.3030 C   0  0  0  0  0  0  0  0  0  0  0  0
   45.4360   31.2770   49.0960 C   0  0  0  0  0  0  0  0  0  0  0  0
   45.4250   30.2150   48.0180 C   0  0  0  0  0  0  0  0  0  0  0  0
   45.9000   30.8880   46.7480 C   0  0  0  0  0  0  0  0  0  0  0  0
   46.5160   32.5692   40.7341 H   0  0  0  0  0  0  0  0  0  0  0  0
   47.7914   35.1505   40.9314 H   0  0  0  0  0  0  0  0  0  0  0  0
   46.4729   35.8554   41.3654 H   0  0  0  0  0  0  0  0  0  0  0  0
   47.8774   33.5943   43.2362 H   0  0  0  0  0  0  0  0  0  0  0  0
   42.1845   34.7069   39.8650 H   0  0  0  0  0  0  0  0  0  0  0  0
   44.7108   35.0242   40.0130 H   0  0  0  0  0  0  0  0  0  0  0  0
   42.4315   31.2736   42.3464 H   0  0  0  0  0  0  0  0  0  0  0  0
   45.1057   35.8601   43.4353 H   0  0  0  0  0  0  0  0  0  0  0  0
   43.9917   35.9285   45.6043 H   0  0  0  0  0  0  0  0  0  0  0  0
   47.2819   32.3798   47.3582 H   0  0  0  0  0  0  0  0  0  0  0  0
   45.5471   33.4417   48.8822 H   0  0  0  0  0  0  0  0  0  0  0  0
   44.2125   32.7701   48.0076 H   0  0  0  0  0  0  0  0  0  0  0  0
   46.3928   31.2821   49.6386 H   0  0  0  0  0  0  0  0  0  0  0  0
   44.6669   31.1251   49.8676 H   0  0  0  0  0  0  0  0  0  0  0  0
   46.1027   29.3918   48.2884 H   0  0  0  0  0  0  0  0  0  0  0  0
   44.4194   29.7879   47.8901 H   0  0  0  0  0  0  0  0  0  0  0  0
   45.1112   30.8669   45.9816 H   0  0  0  0  0  0  0  0  0  0  0  0
   46.7749   30.3808   46.3153 H   0  0  0  0  0  0  0  0  0  0  0  0
  1  2  1  0
  1  3  1  0
  2  3  1  0
  3 10  1  0
  4  5  2  0
  4  9  1  0
  5  6  1  0
  6  1  1  0
  6  7  2  0
  8  7  1  0
  9  8  2  0
 10 11  2  0
 10 15  1  0
 11 12  1  0
 12 13  2  0
 14 13  1  0
 14 16  1  0
 15 14  2  0
 16 17  1  0
 17 18  1  0
 19 18  1  0
 20 16  1  0
 20 19  1  0
  1 21  1  6
  2 22  1  0
  2 23  1  0
  3 24  1  1
  4 25  1  0
  5 26  1  0
  8 27  1  0
 11 28  1  0
 12 29  1  0
 16 30  1  0
 17 31  1  0
 17 32  1  0
 18 33  1  0
 18 34  1  0
 19 35  1  0
 19 36  1  0
 20 37  1  0
 20 38  1  0
M  ISO  8  21  13  22  13  23  13  24  13  25  14  26  14  27  14  28  14
M  ISO  8  29  14  30  13  31  13  32  13  33  13  34  13  35  13  36  13
M  ISO  2  37  13  38  13
M  END
>  <minimizedAffinity>  (1) 
-5.29713678

>  <minimizedRMSD>  (1) 
4.31942558

$$$$
