
     RDKit          3D

 33 34  0  0  1  0  0  0  0  0999 V2000
   47.3210   34.1080   40.2030 C   0  0  2  0  0  0  0  0  0  0  0  0
   44.9120   33.6530   40.8260 N   0  0  0  0  0  0  0  0  0  0  0  0
   43.8810   33.1050   40.2620 N   0  0  0  0  0  0  0  0  0  0  0  0
   44.1780   32.6650   39.0150 C   0  0  0  0  0  0  0  0  0  0  0  0
   45.5160   32.9770   38.8090 C   0  0  0  0  0  0  0  0  0  0  0  0
   45.9450   33.5880   39.9430 C   0  0  0  0  0  0  0  0  0  0  0  0
   44.8270   36.0580   43.6670 C   0  0  0  0  0  0  0  0  0  0  0  0
   44.7720   35.5650   42.3390 C   0  0  0  0  0  0  0  0  0  0  0  0
   44.9530   34.2150   42.1280 C   0  0  0  0  0  0  0  0  0  0  0  0
   45.1730   33.4260   43.2020 N   0  0  0  0  0  0  0  0  0  0  0  0
   45.2270   33.8840   44.4660 C   0  0  0  0  0  0  0  0  0  0  0  0
   45.0530   35.2020   44.7020 N   0  0  0  0  0  0  0  0  0  0  0  0
   48.0150   34.3290   38.8640 C   0  0  0  0  0  0  0  0  0  0  0  0
   48.1390   33.0790   40.9530 C   0  0  0  0  0  0  0  0  0  0  0  0
   49.4220   33.6390   41.3320 N   0  0  0  0  0  0  0  0  0  0  0  0
   49.3320   34.2900   42.6180 C   0  0  0  0  0  0  0  0  0  0  0  0
   48.3750   34.0870   43.4580 N   0  0  0  0  0  0  0  0  0  0  0  0
   50.3690   35.2260   42.9920 N   0  0  0  0  0  0  0  0  0  0  0  0
   48.3400   34.5660   44.3660 H   0  0  0  0  0  0  0  0  0  0  0  0
   47.2426   35.0360   40.7883 H   0  0  0  0  0  0  0  0  0  0  0  0
   43.4986   32.1634   38.3102 H   0  0  0  0  0  0  0  0  0  0  0  0
   46.1098   32.7701   37.9065 H   0  0  0  0  0  0  0  0  0  0  0  0
   44.6872   37.1316   43.8615 H   0  0  0  0  0  0  0  0  0  0  0  0
   44.5887   36.2457   41.4945 H   0  0  0  0  0  0  0  0  0  0  0  0
   45.4113   33.1907   45.2999 H   0  0  0  0  0  0  0  0  0  0  0  0
   49.0500   34.6586   39.0375 H   0  0  0  0  0  0  0  0  0  0  0  0
   48.0204   33.3881   38.2941 H   0  0  0  0  0  0  0  0  0  0  0  0
   47.4754   35.0997   38.2941 H   0  0  0  0  0  0  0  0  0  0  0  0
   47.5949   32.7718   41.8583 H   0  0  0  0  0  0  0  0  0  0  0  0
   48.3055   32.2084   40.3015 H   0  0  0  0  0  0  0  0  0  0  0  0
   50.2785   33.5805   40.7629 H   0  0  0  0  0  0  0  0  0  0  0  0
   50.3276   35.7033   43.9038 H   0  0  0  0  0  0  0  0  0  0  0  0
   51.1490   35.4154   42.3466 H   0  0  0  0  0  0  0  0  0  0  0  0
  1 14  1  0
  2  9  1  0
  3  2  1  0
  4  3  2  0
  5  4  1  0
  5  6  2  0
  6  1  1  0
  6  2  1  0
  7 12  2  0
  8  7  1  0
  9  8  2  0
  9 10  1  0
 10 11  2  0
 11 12  1  0
 13  1  1  0
 14 15  1  0
 15 16  1  0
 16 18  1  0
 16 17  2  0
 17 19  1  0
  1 20  1  1
  4 21  1  0
  5 22  1  0
  7 23  1  0
  8 24  1  0
 11 25  1  0
 13 26  1  0
 13 27  1  0
 13 28  1  0
 14 29  1  0
 14 30  1  0
 15 31  1  0
 18 32  1  0
 18 33  1  0
M  ISO  8  20   8  21  14  22  14  23  14  24  14  25  14  26   8  27   8
M  ISO  3  28   8  29   8  30   8
M  END
>  <minimizedAffinity>  (1) 
-5.10348797

>  <minimizedRMSD>  (1) 
2.2187314

$$$$
