
     RDKit          3D

 33 35  0  0  1  0  0  0  0  0999 V2000
   46.2090   34.3920   41.7300 N   0  0  0  0  0  0  0  0  0  0  0  0
   45.5180   33.9420   40.7150 N   0  0  0  0  0  0  0  0  0  0  0  0
   46.3020   33.7690   39.6180 C   0  0  0  0  0  0  0  0  0  0  0  0
   47.5850   34.1480   40.0040 C   0  0  0  0  0  0  0  0  0  0  0  0
   47.4980   34.5250   41.3080 C   0  0  0  0  0  0  0  0  0  0  0  0
   44.5610   36.0820   44.5940 C   0  0  0  0  0  0  0  0  0  0  0  0
   45.0410   35.8600   43.2790 C   0  0  0  0  0  0  0  0  0  0  0  0
   45.7080   34.6770   43.0080 C   0  0  0  0  0  0  0  0  0  0  0  0
   45.8700   33.7920   44.0100 N   0  0  0  0  0  0  0  0  0  0  0  0
   45.4060   34.0150   45.2710 C   0  0  0  0  0  0  0  0  0  0  0  0
   44.7570   35.1500   45.5590 N   0  0  0  0  0  0  0  0  0  0  0  0
   48.6220   35.0090   42.1440 C   0  0  2  0  0  0  0  0  0  0  0  0
   49.2710   36.2040   41.4940 C   0  0  0  0  0  0  0  0  0  0  0  0
   49.6890   33.9410   42.2860 C   0  0  0  0  0  0  0  0  0  0  0  0
   49.1390   32.5580   42.0570 C   0  0  0  0  0  0  0  0  0  0  0  0
   50.0440   31.3790   42.4710 C   0  0  0  0  0  0  0  0  0  0  0  0
   48.7450   31.6730   43.1550 C   0  0  0  0  0  0  0  0  0  0  0  0
   45.9875   33.4046   38.6289 H   0  0  0  0  0  0  0  0  0  0  0  0
   48.4897   34.1434   39.3783 H   0  0  0  0  0  0  0  0  0  0  0  0
   44.0275   37.0139   44.8325 H   0  0  0  0  0  0  0  0  0  0  0  0
   44.8870   36.6114   42.4905 H   0  0  0  0  0  0  0  0  0  0  0  0
   45.5650   33.2602   46.0552 H   0  0  0  0  0  0  0  0  0  0  0  0
   48.2108   35.2694   43.1305 H   0  0  0  0  0  0  0  0  0  0  0  0
   49.6423   36.8877   42.2716 H   0  0  0  0  0  0  0  0  0  0  0  0
   50.1114   35.8696   40.8680 H   0  0  0  0  0  0  0  0  0  0  0  0
   48.5329   36.7268   40.8680 H   0  0  0  0  0  0  0  0  0  0  0  0
   50.4836   34.1332   41.5501 H   0  0  0  0  0  0  0  0  0  0  0  0
   50.0784   33.9852   43.3138 H   0  0  0  0  0  0  0  0  0  0  0  0
   48.6130   32.9048   41.1553 H   0  0  0  0  0  0  0  0  0  0  0  0
   50.1433   30.4981   41.8197 H   0  0  0  0  0  0  0  0  0  0  0  0
   51.0922   31.2563   42.7811 H   0  0  0  0  0  0  0  0  0  0  0  0
   48.7497   32.0541   44.1869 H   0  0  0  0  0  0  0  0  0  0  0  0
   47.8447   31.0776   43.3670 H   0  0  0  0  0  0  0  0  0  0  0  0
  1  8  1  0
  2  1  1  0
  3  4  1  0
  3  2  2  0
  4  5  2  0
  5  1  1  0
  5 12  1  0
  6 11  2  0
  7  6  1  0
  8  7  2  0
  8  9  1  0
  9 10  2  0
 10 11  1  0
 12 14  1  0
 13 12  1  0
 15 14  1  0
 15 16  1  0
 15 17  1  0
 16 17  1  0
  3 18  1  0
  4 19  1  0
  6 20  1  0
  7 21  1  0
 10 22  1  0
 12 23  1  1
 13 24  1  0
 13 25  1  0
 13 26  1  0
 14 27  1  0
 14 28  1  0
 15 29  1  0
 16 30  1  0
 16 31  1  0
 17 32  1  0
 17 33  1  0
M  ISO  8  18  14  19  14  20  14  21  14  22  14  23   8  24   8  25   8
M  ISO  8  26   8  27   8  28   8  29  13  30  13  31  13  32  13  33  13
M  END
>  <minimizedAffinity>  (1) 
-4.8623476

>  <minimizedRMSD>  (1) 
0.811812818

$$$$
