
     RDKit          3D

 28 29  0  0  1  0  0  0  0  0999 V2000
   46.4420   34.4280   41.6410 N   0  0  0  0  0  0  0  0  0  0  0  0
   45.8290   33.9160   40.6130 N   0  0  0  0  0  0  0  0  0  0  0  0
   46.6630   33.7420   39.5630 C   0  0  0  0  0  0  0  0  0  0  0  0
   47.9060   34.1930   39.9980 C   0  0  0  0  0  0  0  0  0  0  0  0
   47.7410   34.6100   41.2840 C   0  0  0  0  0  0  0  0  0  0  0  0
   44.6260   36.1470   44.3940 C   0  0  0  0  0  0  0  0  0  0  0  0
   45.1850   35.9080   43.1190 C   0  0  0  0  0  0  0  0  0  0  0  0
   45.8580   34.7320   42.8920 C   0  0  0  0  0  0  0  0  0  0  0  0
   45.9580   33.8420   43.9080 N   0  0  0  0  0  0  0  0  0  0  0  0
   45.4200   34.0690   45.1390 C   0  0  0  0  0  0  0  0  0  0  0  0
   44.7660   35.2040   45.3700 N   0  0  0  0  0  0  0  0  0  0  0  0
   48.7870   35.1740   42.1700 C   0  0  2  0  0  0  0  0  0  0  0  0
   49.3690   36.4260   41.5360 C   0  0  0  0  0  0  0  0  0  0  0  0
   49.9490   34.2070   42.3150 C   0  0  0  0  0  0  0  0  0  0  0  0
   49.5590   32.8850   42.6950 N   0  0  0  0  0  0  0  0  0  0  0  0
   46.4122   33.3309   38.5740 H   0  0  0  0  0  0  0  0  0  0  0  0
   48.8396   34.2094   39.4164 H   0  0  0  0  0  0  0  0  0  0  0  0
   44.0842   37.0824   44.5976 H   0  0  0  0  0  0  0  0  0  0  0  0
   45.0827   36.6545   42.3175 H   0  0  0  0  0  0  0  0  0  0  0  0
   45.5258   33.3187   45.9364 H   0  0  0  0  0  0  0  0  0  0  0  0
   48.3183   35.3786   43.1439 H   0  0  0  0  0  0  0  0  0  0  0  0
   49.6919   37.1206   42.3255 H   0  0  0  0  0  0  0  0  0  0  0  0
   50.2327   36.1533   40.9118 H   0  0  0  0  0  0  0  0  0  0  0  0
   48.6038   36.9105   40.9118 H   0  0  0  0  0  0  0  0  0  0  0  0
   50.4739   34.1493   41.3501 H   0  0  0  0  0  0  0  0  0  0  0  0
   50.5886   34.5953   43.1214 H   0  0  0  0  0  0  0  0  0  0  0  0
   49.5384   32.8151   43.7224 H   0  0  0  0  0  0  0  0  0  0  0  0
   48.6222   32.6817   42.3182 H   0  0  0  0  0  0  0  0  0  0  0  0
  1  8  1  0
  2  1  1  0
  3  4  1  0
  3  2  2  0
  4  5  2  0
  5  1  1  0
  5 12  1  0
  6 11  2  0
  7  6  1  0
  8  7  2  0
  8  9  1  0
  9 10  2  0
 10 11  1  0
 12 14  1  0
 13 12  1  0
 14 15  1  0
  3 16  1  0
  4 17  1  0
  6 18  1  0
  7 19  1  0
 10 20  1  0
 12 21  1  1
 13 22  1  0
 13 23  1  0
 13 24  1  0
 14 25  1  0
 14 26  1  0
 15 27  1  0
 15 28  1  0
M  ISO  8  16  14  17  14  18  14  19  14  20  14  21   8  22   8  23   8
M  ISO  5  24   8  25   8  26   8  27   5  28   5
M  END
>  <minimizedAffinity>  (1) 
-4.74846601

>  <minimizedRMSD>  (1) 
0.0939504057

$$$$
