
     RDKit          3D

 33 35  0  0  1  0  0  0  0  0999 V2000
   46.1970   34.3790   41.6310 N   0  0  0  0  0  0  0  0  0  0  0  0
   45.4960   33.9580   40.6210 N   0  0  0  0  0  0  0  0  0  0  0  0
   46.2830   33.7060   39.5510 C   0  0  0  0  0  0  0  0  0  0  0  0
   47.5790   34.0010   39.9490 C   0  0  0  0  0  0  0  0  0  0  0  0
   47.5010   34.4170   41.2450 C   0  0  0  0  0  0  0  0  0  0  0  0
   44.6400   36.2420   44.4530 C   0  0  0  0  0  0  0  0  0  0  0  0
   45.1280   35.9630   43.1500 C   0  0  0  0  0  0  0  0  0  0  0  0
   45.6900   34.7330   42.9030 C   0  0  0  0  0  0  0  0  0  0  0  0
   45.7470   33.8510   43.9250 N   0  0  0  0  0  0  0  0  0  0  0  0
   45.2830   34.1180   45.1680 C   0  0  0  0  0  0  0  0  0  0  0  0
   44.7350   35.3050   45.4240 N   0  0  0  0  0  0  0  0  0  0  0  0
   48.6300   34.8400   42.0990 C   0  0  2  0  0  0  0  0  0  0  0  0
   49.1660   36.1710   41.5920 C   0  0  0  0  0  0  0  0  0  0  0  0
   49.7790   33.8480   42.0120 C   0  0  0  0  0  0  0  0  0  0  0  0
   49.3350   32.5120   42.3640 N   0  0  0  0  0  0  0  0  0  0  0  0
   49.6740   31.4100   41.6500 C   0  0  0  0  0  0  0  0  0  0  0  0
   49.1240   30.2760   42.1950 C   0  0  0  0  0  0  0  0  0  0  0  0
   48.4460   30.7080   43.2520 N   0  0  0  0  0  0  0  0  0  0  0  0
   48.5570   32.0330   43.3710 C   0  0  0  0  0  0  0  0  0  0  0  0
   45.9610   33.3410   38.5645 H   0  0  0  0  0  0  0  0  0  0  0  0
   48.4903   33.9160   39.3388 H   0  0  0  0  0  0  0  0  0  0  0  0
   44.1850   37.2190   44.6731 H   0  0  0  0  0  0  0  0  0  0  0  0
   45.0579   36.7171   42.3523 H   0  0  0  0  0  0  0  0  0  0  0  0
   45.3578   33.3600   45.9616 H   0  0  0  0  0  0  0  0  0  0  0  0
   48.2627   34.9085   43.1336 H   0  0  0  0  0  0  0  0  0  0  0  0
   49.4242   36.8122   42.4477 H   0  0  0  0  0  0  0  0  0  0  0  0
   50.0637   35.9959   40.9809 H   0  0  0  0  0  0  0  0  0  0  0  0
   48.3975   36.6669   40.9809 H   0  0  0  0  0  0  0  0  0  0  0  0
   50.1702   33.8387   40.9840 H   0  0  0  0  0  0  0  0  0  0  0  0
   50.5643   34.1557   42.7181 H   0  0  0  0  0  0  0  0  0  0  0  0
   50.3075   31.4229   40.7508 H   0  0  0  0  0  0  0  0  0  0  0  0
   49.2229   29.2409   41.8362 H   0  0  0  0  0  0  0  0  0  0  0  0
   48.0919   32.6420   44.1602 H   0  0  0  0  0  0  0  0  0  0  0  0
  1  8  1  0
  2  1  1  0
  3  4  1  0
  3  2  2  0
  4  5  2  0
  5  1  1  0
  5 12  1  0
  6 11  2  0
  7  6  1  0
  8  7  2  0
  8  9  1  0
  9 10  2  0
 10 11  1  0
 13 12  1  0
 14 12  1  0
 14 15  1  0
 15 19  1  0
 16 17  2  0
 16 15  1  0
 17 18  1  0
 18 19  2  0
  3 20  1  0
  4 21  1  0
  6 22  1  0
  7 23  1  0
 10 24  1  0
 12 25  1  1
 13 26  1  0
 13 27  1  0
 13 28  1  0
 14 29  1  0
 14 30  1  0
 16 31  1  0
 17 32  1  0
 19 33  1  0
M  ISO  8  20  14  21  14  22  14  23  14  24  14  25   8  26   8  27   8
M  ISO  6  28   8  29   8  30   8  31  14  32  14  33  14
M  END
>  <minimizedAffinity>  (1) 
-4.72609472

>  <minimizedRMSD>  (1) 
0.638824701

$$$$
