
     RDKit          3D

 28 30  0  0  1  0  0  0  0  0999 V2000
   48.6490   33.8770   41.0220 C   0  0  1  0  0  0  0  0  0  0  0  0
   48.7110   35.3850   41.0540 C   0  0  0  0  0  0  0  0  0  0  0  0
   48.4930   34.6490   42.2890 C   0  0  1  0  0  0  0  0  0  0  0  0
   46.1530   33.0250   38.3770 C   0  0  0  0  0  0  0  0  0  0  0  0
   47.2700   33.6390   39.0300 C   0  0  0  0  0  0  0  0  0  0  0  0
   47.5130   33.2550   40.3420 C   0  0  0  0  0  0  0  0  0  0  0  0
   46.7000   32.3350   40.9420 N   0  0  0  0  0  0  0  0  0  0  0  0
   45.6610   31.7800   40.3010 C   0  0  0  0  0  0  0  0  0  0  0  0
   45.3780   32.1160   39.0210 N   0  0  0  0  0  0  0  0  0  0  0  0
   47.2080   34.7050   43.0360 C   0  0  0  0  0  0  0  0  0  0  0  0
   46.0880   35.4510   42.6950 C   0  0  0  0  0  0  0  0  0  0  0  0
   44.9500   35.3810   43.4800 C   0  0  0  0  0  0  0  0  0  0  0  0
   44.8680   34.6210   44.5670 N   0  0  0  0  0  0  0  0  0  0  0  0
   45.9550   33.9070   44.8840 C   0  0  0  0  0  0  0  0  0  0  0  0
   47.0630   33.9580   44.1440 N   0  0  0  0  0  0  0  0  0  0  0  0
   45.9280   33.0340   46.0930 C   0  0  0  0  0  0  0  0  0  0  0  0
   44.9630   33.4560   46.9800 F   0  0  0  0  0  0  0  0  0  0  0  0
   45.6430   31.7390   45.7470 F   0  0  0  0  0  0  0  0  0  0  0  0
   47.1440   33.1310   46.7680 F   0  0  0  0  0  0  0  0  0  0  0  0
   49.2927   33.0409   40.7112 H   0  0  0  0  0  0  0  0  0  0  0  0
   49.6685   35.8987   40.8829 H   0  0  0  0  0  0  0  0  0  0  0  0
   48.1814   36.1941   40.5298 H   0  0  0  0  0  0  0  0  0  0  0  0
   48.9922   34.6274   43.2690 H   0  0  0  0  0  0  0  0  0  0  0  0
   45.9194   33.2946   37.3364 H   0  0  0  0  0  0  0  0  0  0  0  0
   47.9037   34.3779   38.5177 H   0  0  0  0  0  0  0  0  0  0  0  0
   45.0316   31.0432   40.8216 H   0  0  0  0  0  0  0  0  0  0  0  0
   46.1048   36.0957   41.8039 H   0  0  0  0  0  0  0  0  0  0  0  0
   44.0746   35.9812   43.1912 H   0  0  0  0  0  0  0  0  0  0  0  0
  1  2  1  0
  1  3  1  0
  2  3  1  0
  3 10  1  0
  4  9  2  0
  4  5  1  0
  5  6  2  0
  6  7  1  0
  6  1  1  0
  8  7  2  0
  9  8  1  0
 10 15  1  0
 11 10  2  0
 11 12  1  0
 12 13  2  0
 13 14  1  0
 14 16  1  0
 15 14  2  0
 16 19  1  0
 16 17  1  0
 18 16  1  0
  1 20  1  1
  2 21  1  0
  2 22  1  0
  3 23  1  1
  4 24  1  0
  5 25  1  0
  8 26  1  0
 11 27  1  0
 12 28  1  0
M  ISO  8  20  13  21  13  22  13  23  13  24  14  25  14  26  14  27  14
M  ISO  1  28  14
M  END
>  <minimizedAffinity>  (1) 
-4.92003059

>  <minimizedRMSD>  (1) 
3.73168635

$$$$
