
     RDKit          3D

 47 51  0  0  1  0  0  0  0  0999 V2000
   50.0550   34.3090   42.2690 C   0  0  0  0  0  0  0  0  0  0  0  0
   49.7630   32.8940   42.2990 C   0  0  0  0  0  0  0  0  0  0  0  0
   48.8550   32.1510   43.0540 C   0  0  0  0  0  0  0  0  0  0  0  0
   48.7950   30.8190   42.8710 C   0  0  0  0  0  0  0  0  0  0  0  0
   49.6450   30.2220   41.9280 C   0  0  0  0  0  0  0  0  0  0  0  0
   50.5580   31.7100   41.3040 S   0  0  0  0  0  0  0  0  0  0  0  0
   49.7630   28.8680   41.5670 N   0  0  0  0  0  0  0  0  0  0  0  0
   49.5740   27.8040   42.3890 C   0  0  0  0  0  0  0  0  0  0  0  0
   49.7770   26.6750   41.6730 N   0  0  0  0  0  0  0  0  0  0  0  0
   50.0860   27.0610   40.4290 C   0  0  0  0  0  0  0  0  0  0  0  0
   50.3770   26.2650   39.3400 C   0  0  0  0  0  0  0  0  0  0  0  0
   50.3780   24.9940   39.4280 O   0  0  0  0  0  0  0  0  0  0  0  0
   50.6700   26.8280   38.1470 N   0  0  0  0  0  0  0  0  0  0  0  0
   50.6520   28.1780   38.1140 C   0  0  0  0  0  0  0  0  0  0  0  0
   50.9720   28.7250   36.8190 N   0  0  0  0  0  0  0  0  0  0  0  0
   50.3760   28.9950   39.1460 N   0  0  0  0  0  0  0  0  0  0  0  0
   50.0820   28.4580   40.3400 C   0  0  0  0  0  0  0  0  0  0  0  0
   48.8460   35.1860   42.1950 C   0  0  2  0  0  0  0  0  0  0  0  0
   46.5050   34.4130   41.6040 N   0  0  0  0  0  0  0  0  0  0  0  0
   45.9190   33.8940   40.5750 N   0  0  0  0  0  0  0  0  0  0  0  0
   46.7870   33.7230   39.5450 C   0  0  0  0  0  0  0  0  0  0  0  0
   48.0230   34.1860   39.9960 C   0  0  0  0  0  0  0  0  0  0  0  0
   47.8140   34.6100   41.2850 C   0  0  0  0  0  0  0  0  0  0  0  0
   44.6650   36.1670   44.3220 C   0  0  0  0  0  0  0  0  0  0  0  0
   45.2510   35.9240   43.0470 C   0  0  0  0  0  0  0  0  0  0  0  0
   45.8940   34.7250   42.8430 C   0  0  0  0  0  0  0  0  0  0  0  0
   45.9400   33.8370   43.8520 N   0  0  0  0  0  0  0  0  0  0  0  0
   45.3840   34.0640   45.0640 C   0  0  0  0  0  0  0  0  0  0  0  0
   44.7470   35.2270   45.3000 N   0  0  0  0  0  0  0  0  0  0  0  0
   49.3120   36.5140   41.6140 C   0  0  0  0  0  0  0  0  0  0  0  0
   50.6110   34.5654   43.1829 H   0  0  0  0  0  0  0  0  0  0  0  0
   50.6330   34.4917   41.3511 H   0  0  0  0  0  0  0  0  0  0  0  0
   48.1995   32.6453   43.7861 H   0  0  0  0  0  0  0  0  0  0  0  0
   48.0896   30.2072   43.4525 H   0  0  0  0  0  0  0  0  0  0  0  0
   49.3025   27.8521   43.4539 H   0  0  0  0  0  0  0  0  0  0  0  0
   50.8930   26.2630   37.3151 H   0  0  0  0  0  0  0  0  0  0  0  0
   50.9874   29.7455   36.6805 H   0  0  0  0  0  0  0  0  0  0  0  0
   51.1852   28.0953   36.0323 H   0  0  0  0  0  0  0  0  0  0  0  0
   48.3979   35.2925   43.1939 H   0  0  0  0  0  0  0  0  0  0  0  0
   46.5608   33.3034   38.5536 H   0  0  0  0  0  0  0  0  0  0  0  0
   48.9691   34.2071   39.4352 H   0  0  0  0  0  0  0  0  0  0  0  0
   44.1452   37.1170   44.5155 H   0  0  0  0  0  0  0  0  0  0  0  0
   45.1911   36.6755   42.2460 H   0  0  0  0  0  0  0  0  0  0  0  0
   45.4518   33.3016   45.8540 H   0  0  0  0  0  0  0  0  0  0  0  0
   49.5553   37.2072   42.4327 H   0  0  0  0  0  0  0  0  0  0  0  0
   50.2062   36.3497   40.9948 H   0  0  0  0  0  0  0  0  0  0  0  0
   48.5112   36.9445   40.9948 H   0  0  0  0  0  0  0  0  0  0  0  0
  1  2  1  0
  2  3  2  0
  4  3  1  0
  5  4  2  0
  6  5  1  0
  6  2  1  0
  7  5  1  0
  7  8  1  0
  9  8  2  0
 10  9  1  0
 11 12  2  0
 11 10  1  0
 13 11  1  0
 14 13  1  0
 14 16  2  0
 15 14  1  0
 16 17  1  0
 17 10  2  0
 17  7  1  0
 18  1  1  0
 19 26  1  0
 20 19  1  0
 21 22  1  0
 21 20  2  0
 22 23  2  0
 23 19  1  0
 23 18  1  0
 24 29  2  0
 25 24  1  0
 26 25  2  0
 26 27  1  0
 27 28  2  0
 28 29  1  0
 30 18  1  0
  1 31  1  0
  1 32  1  0
  3 33  1  0
  4 34  1  0
  8 35  1  0
 13 36  1  0
 15 37  1  0
 15 38  1  0
 18 39  1  1
 21 40  1  0
 22 41  1  0
 24 42  1  0
 25 43  1  0
 28 44  1  0
 30 45  1  0
 30 46  1  0
 30 47  1  0
M  ISO  8  31   8  32   8  33  14  34  14  35  14  36   9  39   8  40  14
M  ISO  7  41  14  42  14  43  14  44  14  45   8  46   8  47   8
M  END
>  <minimizedAffinity>  (1) 
-5.09848452

>  <minimizedRMSD>  (1) 
0.430120438

$$$$
