
     RDKit          3D

 34 36  0  0  1  0  0  0  0  0999 V2000
   48.8150   35.0620   42.1750 C   0  0  2  0  0  0  0  0  0  0  0  0
   46.4510   34.4230   41.5930 N   0  0  0  0  0  0  0  0  0  0  0  0
   45.8300   33.9560   40.5490 N   0  0  0  0  0  0  0  0  0  0  0  0
   46.6740   33.7630   39.5070 C   0  0  0  0  0  0  0  0  0  0  0  0
   47.9370   34.1550   39.9660 C   0  0  0  0  0  0  0  0  0  0  0  0
   47.7590   34.5580   41.2630 C   0  0  0  0  0  0  0  0  0  0  0  0
   44.6750   36.1820   44.3470 C   0  0  0  0  0  0  0  0  0  0  0  0
   45.2390   35.9430   43.0710 C   0  0  0  0  0  0  0  0  0  0  0  0
   45.8600   34.7340   42.8430 C   0  0  0  0  0  0  0  0  0  0  0  0
   45.9030   33.8330   43.8400 N   0  0  0  0  0  0  0  0  0  0  0  0
   45.3640   34.0610   45.0580 C   0  0  0  0  0  0  0  0  0  0  0  0
   44.7500   35.2250   45.3230 N   0  0  0  0  0  0  0  0  0  0  0  0
   49.3360   36.3910   41.6320 C   0  0  0  0  0  0  0  0  0  0  0  0
   49.9890   34.1360   42.1900 C   0  0  0  0  0  0  0  0  0  0  0  0
   49.6370   32.7380   42.3090 C   0  0  0  0  0  0  0  0  0  0  0  0
   48.7830   32.0590   43.1790 C   0  0  0  0  0  0  0  0  0  0  0  0
   48.6590   30.7250   43.0470 C   0  0  0  0  0  0  0  0  0  0  0  0
   49.3920   30.0750   42.0430 C   0  0  0  0  0  0  0  0  0  0  0  0
   50.2930   31.4940   41.2710 S   0  0  0  0  0  0  0  0  0  0  0  0
   49.3070   28.6270   41.8430 O   0  0  0  0  0  0  0  0  0  0  0  0
   48.3807   35.1551   43.1813 H   0  0  0  0  0  0  0  0  0  0  0  0
   46.4198   33.3784   38.5083 H   0  0  0  0  0  0  0  0  0  0  0  0
   48.8803   34.1420   39.4003 H   0  0  0  0  0  0  0  0  0  0  0  0
   44.1750   37.1395   44.5550 H   0  0  0  0  0  0  0  0  0  0  0  0
   45.1829   36.7048   42.2795 H   0  0  0  0  0  0  0  0  0  0  0  0
   45.4288   33.2876   45.8376 H   0  0  0  0  0  0  0  0  0  0  0  0
   49.5957   37.0534   42.4710 H   0  0  0  0  0  0  0  0  0  0  0  0
   50.2300   36.2106   41.0170 H   0  0  0  0  0  0  0  0  0  0  0  0
   48.5576   36.8662   41.0170 H   0  0  0  0  0  0  0  0  0  0  0  0
   50.5488   34.2727   41.2530 H   0  0  0  0  0  0  0  0  0  0  0  0
   50.5825   34.3906   43.0805 H   0  0  0  0  0  0  0  0  0  0  0  0
   48.2236   32.6016   43.9553 H   0  0  0  0  0  0  0  0  0  0  0  0
   47.9953   30.1553   43.7140 H   0  0  0  0  0  0  0  0  0  0  0  0
   49.8356   28.1944   41.1264 H   0  0  0  0  0  0  0  0  0  0  0  0
  1 14  1  0
  2  9  1  0
  3  2  1  0
  4  5  1  0
  4  3  2  0
  5  6  2  0
  6  2  1  0
  6  1  1  0
  7 12  2  0
  8  7  1  0
  9  8  2  0
  9 10  1  0
 10 11  2  0
 11 12  1  0
 13  1  1  0
 14 15  1  0
 15 16  2  0
 17 16  1  0
 18 17  2  0
 19 18  1  0
 19 15  1  0
 20 18  1  0
  1 21  1  1
  4 22  1  0
  5 23  1  0
  7 24  1  0
  8 25  1  0
 11 26  1  0
 13 27  1  0
 13 28  1  0
 13 29  1  0
 14 30  1  0
 14 31  1  0
 16 32  1  0
 17 33  1  0
 20 34  1  0
M  ISO  8  21   8  22  14  23  14  24  14  25  14  26  14  27   8  28   8
M  ISO  6  29   8  30   8  31   8  32  14  33  14  34   3
M  END
>  <minimizedAffinity>  (1) 
-5.07237864

>  <minimizedRMSD>  (1) 
0.0188164134

$$$$
