
     RDKit          3D

 46 50  0  0  1  0  0  0  0  0999 V2000
   48.8460   35.1870   42.1920 C   0  0  2  0  0  0  0  0  0  0  0  0
   46.5150   34.4190   41.6030 N   0  0  0  0  0  0  0  0  0  0  0  0
   45.9280   33.9000   40.5680 N   0  0  0  0  0  0  0  0  0  0  0  0
   46.7990   33.7310   39.5390 C   0  0  0  0  0  0  0  0  0  0  0  0
   48.0250   34.1910   39.9990 C   0  0  0  0  0  0  0  0  0  0  0  0
   47.8170   34.6110   41.2820 C   0  0  0  0  0  0  0  0  0  0  0  0
   44.6630   36.1610   44.3220 C   0  0  0  0  0  0  0  0  0  0  0  0
   45.2520   35.9270   43.0520 C   0  0  0  0  0  0  0  0  0  0  0  0
   45.9000   34.7280   42.8440 C   0  0  0  0  0  0  0  0  0  0  0  0
   45.9460   33.8340   43.8480 N   0  0  0  0  0  0  0  0  0  0  0  0
   45.3830   34.0660   45.0550 C   0  0  0  0  0  0  0  0  0  0  0  0
   44.7440   35.2220   45.2970 N   0  0  0  0  0  0  0  0  0  0  0  0
   49.3110   36.5220   41.6200 C   0  0  0  0  0  0  0  0  0  0  0  0
   50.0530   34.3090   42.2510 C   0  0  0  0  0  0  0  0  0  0  0  0
   49.7700   32.8930   42.2880 C   0  0  0  0  0  0  0  0  0  0  0  0
   48.8680   32.1570   43.0600 C   0  0  0  0  0  0  0  0  0  0  0  0
   48.8250   30.8220   42.8780 C   0  0  0  0  0  0  0  0  0  0  0  0
   49.6750   30.2310   41.9370 C   0  0  0  0  0  0  0  0  0  0  0  0
   50.5790   31.7180   41.2890 S   0  0  0  0  0  0  0  0  0  0  0  0
   49.8050   28.8660   41.5780 N   0  0  0  0  0  0  0  0  0  0  0  0
   49.6130   27.8800   42.4730 C   0  0  0  0  0  0  0  0  0  0  0  0
   49.8010   26.7140   41.8600 N   0  0  0  0  0  0  0  0  0  0  0  0
   50.1090   27.0030   40.5820 C   0  0  0  0  0  0  0  0  0  0  0  0
   50.4060   26.1950   39.4850 C   0  0  0  0  0  0  0  0  0  0  0  0
   50.6890   26.7470   38.2750 N   0  0  0  0  0  0  0  0  0  0  0  0
   50.6860   28.0850   38.1240 C   0  0  0  0  0  0  0  0  0  0  0  0
   50.3970   28.8890   39.1880 N   0  0  0  0  0  0  0  0  0  0  0  0
   50.1140   28.3740   40.3900 C   0  0  0  0  0  0  0  0  0  0  0  0
   50.4120   24.7800   39.6360 N   0  0  0  0  0  0  0  0  0  0  0  0
   48.4000   35.2917   43.1921 H   0  0  0  0  0  0  0  0  0  0  0  0
   46.5778   33.3149   38.5451 H   0  0  0  0  0  0  0  0  0  0  0  0
   48.9735   34.2129   39.4423 H   0  0  0  0  0  0  0  0  0  0  0  0
   44.1385   37.1082   44.5162 H   0  0  0  0  0  0  0  0  0  0  0  0
   45.1930   36.6825   42.2546 H   0  0  0  0  0  0  0  0  0  0  0  0
   45.4488   33.3026   45.8442 H   0  0  0  0  0  0  0  0  0  0  0  0
   49.5508   37.2103   42.4438 H   0  0  0  0  0  0  0  0  0  0  0  0
   50.2070   36.3639   41.0018 H   0  0  0  0  0  0  0  0  0  0  0  0
   48.5107   36.9547   41.0018 H   0  0  0  0  0  0  0  0  0  0  0  0
   50.6678   34.5121   41.3618 H   0  0  0  0  0  0  0  0  0  0  0  0
   50.5641   34.5477   43.1954 H   0  0  0  0  0  0  0  0  0  0  0  0
   48.2136   32.6511   43.7932 H   0  0  0  0  0  0  0  0  0  0  0  0
   48.1287   30.2036   43.4634 H   0  0  0  0  0  0  0  0  0  0  0  0
   49.3460   28.0148   43.5316 H   0  0  0  0  0  0  0  0  0  0  0  0
   50.9162   28.5293   37.1444 H   0  0  0  0  0  0  0  0  0  0  0  0
   50.6305   24.1770   38.8301 H   0  0  0  0  0  0  0  0  0  0  0  0
   50.1979   24.3588   40.5512 H   0  0  0  0  0  0  0  0  0  0  0  0
  1 14  1  0
  2  9  1  0
  3  2  1  0
  4  5  1  0
  4  3  2  0
  5  6  2  0
  6  2  1  0
  6  1  1  0
  7 12  2  0
  8  7  1  0
  9  8  2  0
  9 10  1  0
 10 11  2  0
 11 12  1  0
 13  1  1  0
 14 15  1  0
 15 16  2  0
 17 16  1  0
 18 17  2  0
 19 18  1  0
 19 15  1  0
 20 18  1  0
 20 21  1  0
 22 21  2  0
 23 22  1  0
 24 29  1  0
 24 23  2  0
 25 24  1  0
 26 25  2  0
 26 27  1  0
 27 28  2  0
 28 23  1  0
 28 20  1  0
  1 30  1  1
  4 31  1  0
  5 32  1  0
  7 33  1  0
  8 34  1  0
 11 35  1  0
 13 36  1  0
 13 37  1  0
 13 38  1  0
 14 39  1  0
 14 40  1  0
 16 41  1  0
 17 42  1  0
 21 43  1  0
 26 44  1  0
 29 45  1  0
 29 46  1  0
M  ISO  8  30   8  31  14  32  14  33  14  34  14  35  14  36   8  37   8
M  ISO  7  38   8  39   8  40   8  41  14  42  14  43  14  44  14
M  END
>  <minimizedAffinity>  (1) 
-5.05030537

>  <minimizedRMSD>  (1) 
0.375135064

$$$$
