
     RDKit          3D

 28 30  0  0  1  0  0  0  0  0999 V2000
   48.7650   34.1250   41.0890 C   0  0  1  0  0  0  0  0  0  0  0  0
   48.8210   35.6230   41.2540 C   0  0  0  0  0  0  0  0  0  0  0  0
   47.9520   34.8410   42.1130 C   0  0  1  0  0  0  0  0  0  0  0  0
   47.6500   33.8700   37.5360 C   0  0  0  0  0  0  0  0  0  0  0  0
   48.2220   34.4060   38.7280 C   0  0  0  0  0  0  0  0  0  0  0  0
   48.1810   33.5950   39.8570 C   0  0  0  0  0  0  0  0  0  0  0  0
   47.6120   32.3540   39.7860 N   0  0  0  0  0  0  0  0  0  0  0  0
   47.0820   31.8840   38.6410 C   0  0  0  0  0  0  0  0  0  0  0  0
   47.0960   32.6310   37.5140 N   0  0  0  0  0  0  0  0  0  0  0  0
   46.4640   34.9130   42.0400 C   0  0  0  0  0  0  0  0  0  0  0  0
   45.6160   35.5480   42.9390 C   0  0  0  0  0  0  0  0  0  0  0  0
   44.2640   35.5550   42.7320 C   0  0  0  0  0  0  0  0  0  0  0  0
   43.6970   34.9690   41.6840 N   0  0  0  0  0  0  0  0  0  0  0  0
   44.5130   34.3560   40.8160 C   0  0  0  0  0  0  0  0  0  0  0  0
   45.8400   34.3340   40.9930 N   0  0  0  0  0  0  0  0  0  0  0  0
   43.9040   33.7050   39.6540 C   0  0  0  0  0  0  0  0  0  0  0  0
   42.9810   32.8680   39.8350 O   0  0  0  0  0  0  0  0  0  0  0  0
   44.3170   33.9850   38.3550 O   0  0  0  0  0  0  0  0  0  0  0  0
   49.4604   33.2734   41.1242 H   0  0  0  0  0  0  0  0  0  0  0  0
   49.7228   36.0959   41.6701 H   0  0  0  0  0  0  0  0  0  0  0  0
   48.6778   36.4826   40.5827 H   0  0  0  0  0  0  0  0  0  0  0  0
   47.8316   34.7532   43.2029 H   0  0  0  0  0  0  0  0  0  0  0  0
   47.6581   34.4730   36.6161 H   0  0  0  0  0  0  0  0  0  0  0  0
   48.6724   35.4093   38.7528 H   0  0  0  0  0  0  0  0  0  0  0  0
   46.6322   30.8803   38.6222 H   0  0  0  0  0  0  0  0  0  0  0  0
   46.0352   36.0490   43.8240 H   0  0  0  0  0  0  0  0  0  0  0  0
   43.6206   36.0666   43.4630 H   0  0  0  0  0  0  0  0  0  0  0  0
   45.0415   34.6407   38.1964 H   0  0  0  0  0  0  0  0  0  0  0  0
  1  2  1  0
  1  3  1  0
  2  3  1  0
  4  5  2  0
  5  6  1  0
  6  1  1  0
  7  6  2  0
  8  7  1  0
  9  4  1  0
  9  8  2  0
 10  3  1  0
 10 11  2  0
 12 11  1  0
 13 12  2  0
 14 15  2  0
 14 13  1  0
 15 10  1  0
 16 17  2  0
 16 14  1  0
 18 16  1  0
  1 19  1  1
  2 20  1  0
  2 21  1  0
  3 22  1  1
  4 23  1  0
  5 24  1  0
  8 25  1  0
 11 26  1  0
 12 27  1  0
 18 28  1  0
M  ISO  8  19  13  20  13  21  13  22  13  23  14  24  14  25  14  26  14
M  ISO  2  27  14  28   3
M  END
>  <minimizedAffinity>  (1) 
-4.79106712

>  <minimizedRMSD>  (1) 
4.4974165

$$$$
