
     RDKit          3D

 40 42  0  0  1  0  0  0  0  0999 V2000
   48.8190   35.1510   42.1720 C   0  0  2  0  0  0  0  0  0  0  0  0
   46.4680   34.4230   41.5920 N   0  0  0  0  0  0  0  0  0  0  0  0
   45.8670   33.9200   40.5620 N   0  0  0  0  0  0  0  0  0  0  0  0
   46.7270   33.7440   39.5250 C   0  0  0  0  0  0  0  0  0  0  0  0
   47.9630   34.1820   39.9780 C   0  0  0  0  0  0  0  0  0  0  0  0
   47.7830   34.6030   41.2700 C   0  0  0  0  0  0  0  0  0  0  0  0
   44.6700   36.1810   44.3370 C   0  0  0  0  0  0  0  0  0  0  0  0
   45.2430   35.9400   43.0650 C   0  0  0  0  0  0  0  0  0  0  0  0
   45.8700   34.7350   42.8400 C   0  0  0  0  0  0  0  0  0  0  0  0
   45.9120   33.8370   43.8400 N   0  0  0  0  0  0  0  0  0  0  0  0
   45.3630   34.0730   45.0550 C   0  0  0  0  0  0  0  0  0  0  0  0
   44.7460   35.2370   45.3070 N   0  0  0  0  0  0  0  0  0  0  0  0
   49.3190   36.4740   41.5940 C   0  0  0  0  0  0  0  0  0  0  0  0
   50.0120   34.2530   42.2360 C   0  0  0  0  0  0  0  0  0  0  0  0
   49.6930   32.8540   42.3430 C   0  0  0  0  0  0  0  0  0  0  0  0
   48.8230   32.1570   43.1840 C   0  0  0  0  0  0  0  0  0  0  0  0
   48.7290   30.8200   43.0550 C   0  0  0  0  0  0  0  0  0  0  0  0
   49.5010   30.1650   42.0890 C   0  0  0  0  0  0  0  0  0  0  0  0
   50.3970   31.6030   41.3480 S   0  0  0  0  0  0  0  0  0  0  0  0
   49.7070   28.8690   41.6330 N   0  0  0  0  0  0  0  0  0  0  0  0
   50.9210   28.2170   41.9620 C   0  0  0  0  0  0  0  0  0  0  0  0
   51.4760   28.5190   43.1040 N   0  0  0  0  0  0  0  0  0  0  0  0
   51.5010   27.2580   41.0520 N   0  0  0  0  0  0  0  0  0  0  0  0
   52.3680   28.0230   43.3170 H   0  0  0  0  0  0  0  0  0  0  0  0
   48.3703   35.2624   43.1701 H   0  0  0  0  0  0  0  0  0  0  0  0
   46.4916   33.3376   38.5303 H   0  0  0  0  0  0  0  0  0  0  0  0
   48.9051   34.1899   39.4102 H   0  0  0  0  0  0  0  0  0  0  0  0
   44.1623   37.1358   44.5386 H   0  0  0  0  0  0  0  0  0  0  0  0
   45.1884   36.7005   42.2721 H   0  0  0  0  0  0  0  0  0  0  0  0
   45.4234   33.3052   45.8404 H   0  0  0  0  0  0  0  0  0  0  0  0
   49.5777   37.1585   42.4153 H   0  0  0  0  0  0  0  0  0  0  0  0
   50.2098   36.2905   40.9753 H   0  0  0  0  0  0  0  0  0  0  0  0
   48.5295   36.9255   40.9753 H   0  0  0  0  0  0  0  0  0  0  0  0
   50.6055   34.4024   41.3220 H   0  0  0  0  0  0  0  0  0  0  0  0
   50.5613   34.5224   43.1501 H   0  0  0  0  0  0  0  0  0  0  0  0
   48.2255   32.6904   43.9380 H   0  0  0  0  0  0  0  0  0  0  0  0
   48.0505   30.2470   43.7041 H   0  0  0  0  0  0  0  0  0  0  0  0
   48.9912   28.3915   41.0668 H   0  0  0  0  0  0  0  0  0  0  0  0
   52.3837   26.7861   41.2949 H   0  0  0  0  0  0  0  0  0  0  0  0
   51.0321   27.0457   40.1599 H   0  0  0  0  0  0  0  0  0  0  0  0
  1 14  1  0
  2  9  1  0
  3  2  1  0
  4  5  1  0
  4  3  2  0
  5  6  2  0
  6  2  1  0
  6  1  1  0
  7 12  2  0
  8  7  1  0
  9  8  2  0
  9 10  1  0
 10 11  2  0
 11 12  1  0
 13  1  1  0
 14 15  1  0
 15 16  2  0
 17 16  1  0
 18 17  2  0
 19 18  1  0
 19 15  1  0
 20 21  1  0
 20 18  1  0
 21 22  2  0
 22 24  1  0
 23 21  1  0
  1 25  1  1
  4 26  1  0
  5 27  1  0
  7 28  1  0
  8 29  1  0
 11 30  1  0
 13 31  1  0
 13 32  1  0
 13 33  1  0
 14 34  1  0
 14 35  1  0
 16 36  1  0
 17 37  1  0
 20 38  1  0
 23 39  1  0
 23 40  1  0
M  ISO  8  25   8  26  14  27  14  28  14  29  14  30  14  31   8  32   8
M  ISO  5  33   8  34   8  35   8  36  14  37  14
M  END
>  <minimizedAffinity>  (1) 
-4.99181414

>  <minimizedRMSD>  (1) 
0.521037519

$$$$
