
     RDKit          3D

 46 49  0  0  1  0  0  0  0  0999 V2000
   48.8270   35.1490   42.1750 C   0  0  2  0  0  0  0  0  0  0  0  0
   46.4730   34.4250   41.5970 N   0  0  0  0  0  0  0  0  0  0  0  0
   45.8660   33.9230   40.5630 N   0  0  0  0  0  0  0  0  0  0  0  0
   46.7280   33.7430   39.5270 C   0  0  0  0  0  0  0  0  0  0  0  0
   47.9680   34.1760   39.9760 C   0  0  0  0  0  0  0  0  0  0  0  0
   47.7850   34.5940   41.2620 C   0  0  0  0  0  0  0  0  0  0  0  0
   44.6700   36.1880   44.3300 C   0  0  0  0  0  0  0  0  0  0  0  0
   45.2470   35.9440   43.0620 C   0  0  0  0  0  0  0  0  0  0  0  0
   45.8730   34.7370   42.8450 C   0  0  0  0  0  0  0  0  0  0  0  0
   45.9150   33.8360   43.8440 N   0  0  0  0  0  0  0  0  0  0  0  0
   45.3650   34.0690   45.0580 C   0  0  0  0  0  0  0  0  0  0  0  0
   44.7450   35.2350   45.3090 N   0  0  0  0  0  0  0  0  0  0  0  0
   49.3110   36.4730   41.6020 C   0  0  0  0  0  0  0  0  0  0  0  0
   50.0200   34.2440   42.2180 C   0  0  0  0  0  0  0  0  0  0  0  0
   49.7040   32.8490   42.3480 C   0  0  0  0  0  0  0  0  0  0  0  0
   48.8300   32.1640   43.1930 C   0  0  0  0  0  0  0  0  0  0  0  0
   48.7400   30.8250   43.0820 C   0  0  0  0  0  0  0  0  0  0  0  0
   49.5210   30.1580   42.1270 C   0  0  0  0  0  0  0  0  0  0  0  0
   50.4210   31.5940   41.3690 S   0  0  0  0  0  0  0  0  0  0  0  0
   49.6280   28.8340   41.8040 N   0  0  0  0  0  0  0  0  0  0  0  0
   48.8550   28.1320   40.9510 C   0  0  0  0  0  0  0  0  0  0  0  0
   49.0600   26.7860   40.7000 C   0  0  0  0  0  0  0  0  0  0  0  0
   48.2160   26.0120   39.7680 C   0  0  0  0  0  0  0  0  0  0  0  0
   50.1160   26.2270   41.3930 C   0  0  0  0  0  0  0  0  0  0  0  0
   50.3670   24.9910   41.2140 O   0  0  0  0  0  0  0  0  0  0  0  0
   50.9210   26.8750   42.2550 N   0  0  0  0  0  0  0  0  0  0  0  0
   50.6520   28.1990   42.4470 C   0  0  0  0  0  0  0  0  0  0  0  0
   51.4420   28.7640   43.2700 O   0  0  0  0  0  0  0  0  0  0  0  0
   48.3915   35.2598   43.1790 H   0  0  0  0  0  0  0  0  0  0  0  0
   46.4905   33.3361   38.5330 H   0  0  0  0  0  0  0  0  0  0  0  0
   48.9102   34.1812   39.4084 H   0  0  0  0  0  0  0  0  0  0  0  0
   44.1615   37.1429   44.5290 H   0  0  0  0  0  0  0  0  0  0  0  0
   45.1967   36.7020   42.2665 H   0  0  0  0  0  0  0  0  0  0  0  0
   45.4255   33.3009   45.8431 H   0  0  0  0  0  0  0  0  0  0  0  0
   49.5617   37.1588   42.4247 H   0  0  0  0  0  0  0  0  0  0  0  0
   50.2041   36.3003   40.9836 H   0  0  0  0  0  0  0  0  0  0  0  0
   48.5170   36.9170   40.9836 H   0  0  0  0  0  0  0  0  0  0  0  0
   50.5899   34.3821   41.2873 H   0  0  0  0  0  0  0  0  0  0  0  0
   50.5909   34.5209   43.1165 H   0  0  0  0  0  0  0  0  0  0  0  0
   48.2264   32.7071   43.9351 H   0  0  0  0  0  0  0  0  0  0  0  0
   48.0595   30.2590   43.7351 H   0  0  0  0  0  0  0  0  0  0  0  0
   48.0313   28.6476   40.4356 H   0  0  0  0  0  0  0  0  0  0  0  0
   47.5239   25.3773   40.3409 H   0  0  0  0  0  0  0  0  0  0  0  0
   47.6406   26.7030   39.1344 H   0  0  0  0  0  0  0  0  0  0  0  0
   48.8547   25.3791   39.1344 H   0  0  0  0  0  0  0  0  0  0  0  0
   51.6946   26.3996   42.7412 H   0  0  0  0  0  0  0  0  0  0  0  0
  1 14  1  0
  2  9  1  0
  3  2  1  0
  4  5  1  0
  4  3  2  0
  5  6  2  0
  6  2  1  0
  6  1  1  0
  7 12  2  0
  8  7  1  0
  9  8  2  0
  9 10  1  0
 10 11  2  0
 11 12  1  0
 13  1  1  0
 14 15  1  0
 15 16  2  0
 17 16  1  0
 18 17  2  0
 19 18  1  0
 19 15  1  0
 20 18  1  0
 20 27  1  0
 21 20  1  0
 22 21  2  0
 22 24  1  0
 23 22  1  0
 24 26  1  0
 25 24  2  0
 26 27  1  0
 27 28  2  0
  1 29  1  1
  4 30  1  0
  5 31  1  0
  7 32  1  0
  8 33  1  0
 11 34  1  0
 13 35  1  0
 13 36  1  0
 13 37  1  0
 14 38  1  0
 14 39  1  0
 16 40  1  0
 17 41  1  0
 21 42  1  0
 23 43  1  0
 23 44  1  0
 23 45  1  0
 26 46  1  0
M  ISO  8  29   8  30  14  31  14  32  14  33  14  34  14  35   8  36   8
M  ISO  8  37   8  38   8  39   8  40  14  41  14  42  14  43   8  44   8
M  ISO  2  45   8  46   9
M  END
>  <minimizedAffinity>  (1) 
-4.98310804

>  <minimizedRMSD>  (1) 
0.737380624

$$$$
