
     RDKit          3D

 41 44  0  0  1  0  0  0  0  0999 V2000
   48.8290   35.1650   42.1750 C   0  0  2  0  0  0  0  0  0  0  0  0
   46.4880   34.4240   41.6020 N   0  0  0  0  0  0  0  0  0  0  0  0
   45.8840   33.9120   40.5700 N   0  0  0  0  0  0  0  0  0  0  0  0
   46.7460   33.7340   39.5350 C   0  0  0  0  0  0  0  0  0  0  0  0
   47.9860   34.1810   39.9840 C   0  0  0  0  0  0  0  0  0  0  0  0
   47.7920   34.6050   41.2780 C   0  0  0  0  0  0  0  0  0  0  0  0
   44.6670   36.1800   44.3300 C   0  0  0  0  0  0  0  0  0  0  0  0
   45.2460   35.9350   43.0680 C   0  0  0  0  0  0  0  0  0  0  0  0
   45.8820   34.7350   42.8450 C   0  0  0  0  0  0  0  0  0  0  0  0
   45.9230   33.8400   43.8470 N   0  0  0  0  0  0  0  0  0  0  0  0
   45.3680   34.0720   45.0600 C   0  0  0  0  0  0  0  0  0  0  0  0
   44.7420   35.2350   45.3010 N   0  0  0  0  0  0  0  0  0  0  0  0
   49.3150   36.4900   41.5910 C   0  0  0  0  0  0  0  0  0  0  0  0
   50.0240   34.2720   42.2430 C   0  0  0  0  0  0  0  0  0  0  0  0
   49.7190   32.8620   42.3270 C   0  0  0  0  0  0  0  0  0  0  0  0
   48.8410   32.1600   43.1530 C   0  0  0  0  0  0  0  0  0  0  0  0
   48.7620   30.8250   43.0100 C   0  0  0  0  0  0  0  0  0  0  0  0
   49.5510   30.1900   42.0510 C   0  0  0  0  0  0  0  0  0  0  0  0
   50.4540   31.6410   41.3240 S   0  0  0  0  0  0  0  0  0  0  0  0
   49.7290   28.8050   41.6220 C   0  0  0  0  0  0  0  0  0  0  0  0
   48.6830   27.9520   41.7650 C   0  0  0  0  0  0  0  0  0  0  0  0
   48.9690   26.6580   41.3230 C   0  0  0  0  0  0  0  0  0  0  0  0
   50.1870   26.3650   40.8170 N   0  0  0  0  0  0  0  0  0  0  0  0
   51.1690   27.2870   40.7160 C   0  0  0  0  0  0  0  0  0  0  0  0
   50.9310   28.5650   41.1360 N   0  0  0  0  0  0  0  0  0  0  0  0
   48.3853   35.2802   43.1749 H   0  0  0  0  0  0  0  0  0  0  0  0
   46.5117   33.3204   38.5430 H   0  0  0  0  0  0  0  0  0  0  0  0
   48.9294   34.1927   39.4185 H   0  0  0  0  0  0  0  0  0  0  0  0
   44.1561   37.1341   44.5269 H   0  0  0  0  0  0  0  0  0  0  0  0
   45.1902   36.6926   42.2725 H   0  0  0  0  0  0  0  0  0  0  0  0
   45.4300   33.3073   45.8483 H   0  0  0  0  0  0  0  0  0  0  0  0
   49.5682   37.1804   42.4091 H   0  0  0  0  0  0  0  0  0  0  0  0
   50.2066   36.3127   40.9717 H   0  0  0  0  0  0  0  0  0  0  0  0
   48.5202   36.9312   40.9717 H   0  0  0  0  0  0  0  0  0  0  0  0
   50.6285   34.4388   41.3392 H   0  0  0  0  0  0  0  0  0  0  0  0
   50.5539   34.5315   43.1714 H   0  0  0  0  0  0  0  0  0  0  0  0
   48.2293   32.6846   43.9017 H   0  0  0  0  0  0  0  0  0  0  0  0
   48.0807   30.2387   43.6442 H   0  0  0  0  0  0  0  0  0  0  0  0
   47.7108   28.2488   42.1854 H   0  0  0  0  0  0  0  0  0  0  0  0
   48.1995   25.8746   41.3872 H   0  0  0  0  0  0  0  0  0  0  0  0
   52.1495   27.0118   40.3002 H   0  0  0  0  0  0  0  0  0  0  0  0
  1 14  1  0
  2  9  1  0
  3  2  1  0
  4  5  1  0
  4  3  2  0
  5  6  2  0
  6  2  1  0
  6  1  1  0
  7 12  2  0
  8  7  1  0
  9  8  2  0
  9 10  1  0
 10 11  2  0
 11 12  1  0
 13  1  1  0
 14 15  1  0
 15 16  2  0
 17 16  1  0
 18 17  2  0
 19 18  1  0
 19 15  1  0
 20 21  2  0
 20 18  1  0
 22 21  1  0
 23 22  2  0
 24 23  1  0
 24 25  2  0
 25 20  1  0
  1 26  1  1
  4 27  1  0
  5 28  1  0
  7 29  1  0
  8 30  1  0
 11 31  1  0
 13 32  1  0
 13 33  1  0
 13 34  1  0
 14 35  1  0
 14 36  1  0
 16 37  1  0
 17 38  1  0
 21 39  1  0
 22 40  1  0
 24 41  1  0
M  ISO  8  26   8  27  14  28  14  29  14  30  14  31  14  32   8  33   8
M  ISO  8  34   8  35   8  36   8  37  14  38  14  39  14  40  14  41  14
M  END
>  <minimizedAffinity>  (1) 
-4.96427727

>  <minimizedRMSD>  (1) 
0.244452238

$$$$
