
     RDKit          3D

 42 45  0  0  1  0  0  0  0  0999 V2000
   48.8300   35.1640   42.1740 C   0  0  2  0  0  0  0  0  0  0  0  0
   46.4960   34.4220   41.6010 N   0  0  0  0  0  0  0  0  0  0  0  0
   45.8950   33.9090   40.5670 N   0  0  0  0  0  0  0  0  0  0  0  0
   46.7630   33.7350   39.5360 C   0  0  0  0  0  0  0  0  0  0  0  0
   47.9920   34.1830   39.9920 C   0  0  0  0  0  0  0  0  0  0  0  0
   47.7960   34.6050   41.2770 C   0  0  0  0  0  0  0  0  0  0  0  0
   44.6680   36.1750   44.3250 C   0  0  0  0  0  0  0  0  0  0  0  0
   45.2480   35.9340   43.0650 C   0  0  0  0  0  0  0  0  0  0  0  0
   45.8870   34.7350   42.8430 C   0  0  0  0  0  0  0  0  0  0  0  0
   45.9300   33.8390   43.8480 N   0  0  0  0  0  0  0  0  0  0  0  0
   45.3730   34.0730   45.0580 C   0  0  0  0  0  0  0  0  0  0  0  0
   44.7440   35.2330   45.2990 N   0  0  0  0  0  0  0  0  0  0  0  0
   49.3110   36.4990   41.6050 C   0  0  0  0  0  0  0  0  0  0  0  0
   50.0330   34.2820   42.2360 C   0  0  0  0  0  0  0  0  0  0  0  0
   49.7440   32.8690   42.3080 C   0  0  0  0  0  0  0  0  0  0  0  0
   48.8620   32.1580   43.1240 C   0  0  0  0  0  0  0  0  0  0  0  0
   48.8010   30.8200   42.9730 C   0  0  0  0  0  0  0  0  0  0  0  0
   49.6150   30.1970   42.0180 C   0  0  0  0  0  0  0  0  0  0  0  0
   50.5080   31.6590   41.3090 S   0  0  0  0  0  0  0  0  0  0  0  0
   49.7520   28.8170   41.6530 C   0  0  0  0  0  0  0  0  0  0  0  0
   48.6740   27.9620   41.7710 C   0  0  0  0  0  0  0  0  0  0  0  0
   48.9150   26.6580   41.3930 C   0  0  0  0  0  0  0  0  0  0  0  0
   50.1600   26.2540   40.9310 C   0  0  0  0  0  0  0  0  0  0  0  0
   51.2040   27.1510   40.8330 C   0  0  0  0  0  0  0  0  0  0  0  0
   50.9790   28.4470   41.2030 N   0  0  0  0  0  0  0  0  0  0  0  0
   48.3812   35.2659   43.1731 H   0  0  0  0  0  0  0  0  0  0  0  0
   46.5360   33.3225   38.5419 H   0  0  0  0  0  0  0  0  0  0  0  0
   48.9381   34.1964   39.4310 H   0  0  0  0  0  0  0  0  0  0  0  0
   44.1530   37.1272   44.5201 H   0  0  0  0  0  0  0  0  0  0  0  0
   45.1914   36.6922   42.2700 H   0  0  0  0  0  0  0  0  0  0  0  0
   45.4360   33.3094   45.8473 H   0  0  0  0  0  0  0  0  0  0  0  0
   49.5572   37.1823   42.4311 H   0  0  0  0  0  0  0  0  0  0  0  0
   50.2059   36.3332   40.9872 H   0  0  0  0  0  0  0  0  0  0  0  0
   48.5160   36.9421   40.9872 H   0  0  0  0  0  0  0  0  0  0  0  0
   50.6366   34.4625   41.3343 H   0  0  0  0  0  0  0  0  0  0  0  0
   50.5580   34.5389   43.1679 H   0  0  0  0  0  0  0  0  0  0  0  0
   48.2362   32.6738   43.8672 H   0  0  0  0  0  0  0  0  0  0  0  0
   48.1179   30.2223   43.5943 H   0  0  0  0  0  0  0  0  0  0  0  0
   47.6934   28.2971   42.1400 H   0  0  0  0  0  0  0  0  0  0  0  0
   48.1015   25.9206   41.4591 H   0  0  0  0  0  0  0  0  0  0  0  0
   50.3165   25.2050   40.6392 H   0  0  0  0  0  0  0  0  0  0  0  0
   52.1908   26.8313   40.4669 H   0  0  0  0  0  0  0  0  0  0  0  0
  1 14  1  0
  2  9  1  0
  3  2  1  0
  4  5  1  0
  4  3  2  0
  5  6  2  0
  6  2  1  0
  6  1  1  0
  7 12  2  0
  8  7  1  0
  9  8  2  0
  9 10  1  0
 10 11  2  0
 11 12  1  0
 13  1  1  0
 14 15  1  0
 15 16  2  0
 17 16  1  0
 18 17  2  0
 19 18  1  0
 19 15  1  0
 20 21  2  0
 20 18  1  0
 22 21  1  0
 23 22  2  0
 24 23  1  0
 24 25  2  0
 25 20  1  0
  1 26  1  1
  4 27  1  0
  5 28  1  0
  7 29  1  0
  8 30  1  0
 11 31  1  0
 13 32  1  0
 13 33  1  0
 13 34  1  0
 14 35  1  0
 14 36  1  0
 16 37  1  0
 17 38  1  0
 21 39  1  0
 22 40  1  0
 23 41  1  0
 24 42  1  0
M  ISO  8  26   8  27  14  28  14  29  14  30  14  31  14  32   8  33   8
M  ISO  8  34   8  35   8  36   8  37  14  38  14  39  14  40  14  41  14
M  ISO  1  42  14
M  END
>  <minimizedAffinity>  (1) 
-4.96094418

>  <minimizedRMSD>  (1) 
0.265454054

$$$$
