
     RDKit          3D

 47 50  0  0  1  0  0  0  0  0999 V2000
   48.8280   35.1630   42.1640 C   0  0  2  0  0  0  0  0  0  0  0  0
   46.4960   34.4180   41.5900 N   0  0  0  0  0  0  0  0  0  0  0  0
   45.8910   33.9040   40.5700 N   0  0  0  0  0  0  0  0  0  0  0  0
   46.7630   33.7250   39.5330 C   0  0  0  0  0  0  0  0  0  0  0  0
   47.9970   34.1770   39.9920 C   0  0  0  0  0  0  0  0  0  0  0  0
   47.8010   34.5990   41.2640 C   0  0  0  0  0  0  0  0  0  0  0  0
   44.6660   36.1660   44.3280 C   0  0  0  0  0  0  0  0  0  0  0  0
   45.2440   35.9280   43.0590 C   0  0  0  0  0  0  0  0  0  0  0  0
   45.8870   34.7370   42.8350 C   0  0  0  0  0  0  0  0  0  0  0  0
   45.9330   33.8440   43.8520 N   0  0  0  0  0  0  0  0  0  0  0  0
   45.3840   34.0640   45.0660 C   0  0  0  0  0  0  0  0  0  0  0  0
   44.7480   35.2290   45.3040 N   0  0  0  0  0  0  0  0  0  0  0  0
   49.3060   36.5040   41.6340 C   0  0  0  0  0  0  0  0  0  0  0  0
   50.0430   34.2820   42.2160 C   0  0  0  0  0  0  0  0  0  0  0  0
   49.7480   32.8710   42.2990 C   0  0  0  0  0  0  0  0  0  0  0  0
   48.8650   32.1370   43.0990 C   0  0  0  0  0  0  0  0  0  0  0  0
   48.8140   30.8020   42.9580 C   0  0  0  0  0  0  0  0  0  0  0  0
   49.6550   30.2010   42.0090 C   0  0  0  0  0  0  0  0  0  0  0  0
   50.5410   31.6850   41.3140 S   0  0  0  0  0  0  0  0  0  0  0  0
   49.7020   28.8290   41.7890 N   0  0  0  0  0  0  0  0  0  0  0  0
   50.4660   27.6780   42.2060 C   0  0  0  0  0  0  0  0  0  0  0  0
   51.1680   27.1600   40.9760 C   0  0  0  0  0  0  0  0  0  0  0  0
   50.2550   26.7860   39.9320 N   0  0  0  0  0  0  0  0  0  0  0  0
   48.8870   27.1160   40.1950 C   0  0  0  0  0  0  0  0  0  0  0  0
   48.6710   28.4610   40.8450 C   0  0  0  0  0  0  0  0  0  0  0  0
   48.3665   35.2552   43.1582 H   0  0  0  0  0  0  0  0  0  0  0  0
   46.5364   33.3093   38.5401 H   0  0  0  0  0  0  0  0  0  0  0  0
   48.9439   34.1891   39.4324 H   0  0  0  0  0  0  0  0  0  0  0  0
   44.1474   37.1162   44.5237 H   0  0  0  0  0  0  0  0  0  0  0  0
   45.1789   36.6859   42.2644 H   0  0  0  0  0  0  0  0  0  0  0  0
   45.4550   33.2996   45.8538 H   0  0  0  0  0  0  0  0  0  0  0  0
   49.5429   37.1685   42.4780 H   0  0  0  0  0  0  0  0  0  0  0  0
   50.2066   36.3557   41.0201 H   0  0  0  0  0  0  0  0  0  0  0  0
   48.5146   36.9588   41.0201 H   0  0  0  0  0  0  0  0  0  0  0  0
   50.6356   34.4576   41.3060 H   0  0  0  0  0  0  0  0  0  0  0  0
   50.5857   34.5460   43.1356 H   0  0  0  0  0  0  0  0  0  0  0  0
   48.2222   32.6457   43.8325 H   0  0  0  0  0  0  0  0  0  0  0  0
   48.1306   30.1957   43.5706 H   0  0  0  0  0  0  0  0  0  0  0  0
   51.2025   27.9675   42.9700 H   0  0  0  0  0  0  0  0  0  0  0  0
   49.8157   26.9078   42.6463 H   0  0  0  0  0  0  0  0  0  0  0  0
   51.8356   27.9466   40.5944 H   0  0  0  0  0  0  0  0  0  0  0  0
   51.7264   26.2582   41.2675 H   0  0  0  0  0  0  0  0  0  0  0  0
   50.3202   25.7670   39.7971 H   0  0  0  0  0  0  0  0  0  0  0  0
   48.3436   27.1075   39.2386 H   0  0  0  0  0  0  0  0  0  0  0  0
   48.5208   26.3653   40.9108 H   0  0  0  0  0  0  0  0  0  0  0  0
   48.6362   29.2256   40.0550 H   0  0  0  0  0  0  0  0  0  0  0  0
   47.7300   28.3942   41.4107 H   0  0  0  0  0  0  0  0  0  0  0  0
  1 14  1  0
  2  9  1  0
  3  2  1  0
  4  5  1  0
  4  3  2  0
  5  6  2  0
  6  2  1  0
  6  1  1  0
  7 12  2  0
  8  7  1  0
  9  8  2  0
  9 10  1  0
 10 11  2  0
 11 12  1  0
 13  1  1  0
 14 15  1  0
 15 16  2  0
 17 16  1  0
 18 17  2  0
 19 18  1  0
 19 15  1  0
 20 18  1  0
 20 21  1  0
 22 21  1  0
 23 24  1  0
 23 22  1  0
 24 25  1  0
 25 20  1  0
  1 26  1  1
  4 27  1  0
  5 28  1  0
  7 29  1  0
  8 30  1  0
 11 31  1  0
 13 32  1  0
 13 33  1  0
 13 34  1  0
 14 35  1  0
 14 36  1  0
 16 37  1  0
 17 38  1  0
 21 39  1  0
 21 40  1  0
 22 41  1  0
 22 42  1  0
 23 43  1  0
 24 44  1  0
 24 45  1  0
 25 46  1  0
 25 47  1  0
M  ISO  8  26   8  27  14  28  14  29  14  30  14  31  14  32   8  33   8
M  ISO  8  34   8  35   8  36   8  37  14  38  14  39  13  40  13  41  13
M  ISO  6  42  13  43   5  44  13  45  13  46  13  47  13
M  END
>  <minimizedAffinity>  (1) 
-4.94720364

>  <minimizedRMSD>  (1) 
0.263469547

$$$$
