
     RDKit          3D

 42 44  0  0  1  0  0  0  0  0999 V2000
   48.8290   35.1460   42.1810 C   0  0  2  0  0  0  0  0  0  0  0  0
   46.4800   34.4250   41.5950 N   0  0  0  0  0  0  0  0  0  0  0  0
   45.8740   33.9220   40.5620 N   0  0  0  0  0  0  0  0  0  0  0  0
   46.7360   33.7440   39.5250 C   0  0  0  0  0  0  0  0  0  0  0  0
   47.9710   34.1800   39.9800 C   0  0  0  0  0  0  0  0  0  0  0  0
   47.7830   34.5970   41.2690 C   0  0  0  0  0  0  0  0  0  0  0  0
   44.6710   36.1820   44.3280 C   0  0  0  0  0  0  0  0  0  0  0  0
   45.2450   35.9410   43.0640 C   0  0  0  0  0  0  0  0  0  0  0  0
   45.8770   34.7370   42.8400 C   0  0  0  0  0  0  0  0  0  0  0  0
   45.9190   33.8380   43.8410 N   0  0  0  0  0  0  0  0  0  0  0  0
   45.3670   34.0730   45.0540 C   0  0  0  0  0  0  0  0  0  0  0  0
   44.7450   35.2360   45.2980 N   0  0  0  0  0  0  0  0  0  0  0  0
   49.3090   36.4800   41.6080 C   0  0  0  0  0  0  0  0  0  0  0  0
   50.0240   34.2500   42.2200 C   0  0  0  0  0  0  0  0  0  0  0  0
   49.7190   32.8490   42.3290 C   0  0  0  0  0  0  0  0  0  0  0  0
   48.8450   32.1550   43.1650 C   0  0  0  0  0  0  0  0  0  0  0  0
   48.7650   30.8130   43.0420 C   0  0  0  0  0  0  0  0  0  0  0  0
   49.5530   30.1610   42.0900 C   0  0  0  0  0  0  0  0  0  0  0  0
   50.4520   31.6090   41.3450 S   0  0  0  0  0  0  0  0  0  0  0  0
   49.6830   28.7790   41.7360 C   0  0  0  0  0  0  0  0  0  0  0  0
   50.7550   28.1600   42.6390 C   0  0  0  0  0  0  0  0  0  0  0  0
   49.9880   28.5870   40.2840 C   0  0  0  0  0  0  0  0  0  0  0  0
   48.3961   35.2458   43.1873 H   0  0  0  0  0  0  0  0  0  0  0  0
   46.5015   33.3377   38.5300 H   0  0  0  0  0  0  0  0  0  0  0  0
   48.9153   34.1888   39.4159 H   0  0  0  0  0  0  0  0  0  0  0  0
   44.1630   37.1368   44.5284 H   0  0  0  0  0  0  0  0  0  0  0  0
   45.1897   36.7004   42.2701 H   0  0  0  0  0  0  0  0  0  0  0  0
   45.4286   33.3081   45.8421 H   0  0  0  0  0  0  0  0  0  0  0  0
   49.5557   37.1655   42.4321 H   0  0  0  0  0  0  0  0  0  0  0  0
   50.2034   36.3130   40.9898 H   0  0  0  0  0  0  0  0  0  0  0  0
   48.5132   36.9211   40.9898 H   0  0  0  0  0  0  0  0  0  0  0  0
   50.5992   34.4049   41.2952 H   0  0  0  0  0  0  0  0  0  0  0  0
   50.5850   34.5182   43.1274 H   0  0  0  0  0  0  0  0  0  0  0  0
   48.2344   32.6890   43.9080 H   0  0  0  0  0  0  0  0  0  0  0  0
   48.0845   30.2371   43.6864 H   0  0  0  0  0  0  0  0  0  0  0  0
   48.7220   28.2677   41.8946 H   0  0  0  0  0  0  0  0  0  0  0  0
   50.4822   28.3175   43.6929 H   0  0  0  0  0  0  0  0  0  0  0  0
   50.8271   27.0813   42.4362 H   0  0  0  0  0  0  0  0  0  0  0  0
   51.7253   28.6368   42.4362 H   0  0  0  0  0  0  0  0  0  0  0  0
   50.9146   28.0037   40.1780 H   0  0  0  0  0  0  0  0  0  0  0  0
   49.1584   28.0480   39.8032 H   0  0  0  0  0  0  0  0  0  0  0  0
   50.1153   29.5681   39.8032 H   0  0  0  0  0  0  0  0  0  0  0  0
  1 14  1  0
  2  9  1  0
  3  2  1  0
  4  5  1  0
  4  3  2  0
  5  6  2  0
  6  2  1  0
  6  1  1  0
  7 12  2  0
  8  7  1  0
  9  8  2  0
  9 10  1  0
 10 11  2  0
 11 12  1  0
 13  1  1  0
 14 15  1  0
 15 16  2  0
 17 16  1  0
 18 17  2  0
 19 18  1  0
 19 15  1  0
 20 18  1  0
 20 21  1  0
 22 20  1  0
  1 23  1  1
  4 24  1  0
  5 25  1  0
  7 26  1  0
  8 27  1  0
 11 28  1  0
 13 29  1  0
 13 30  1  0
 13 31  1  0
 14 32  1  0
 14 33  1  0
 16 34  1  0
 17 35  1  0
 20 36  1  0
 21 37  1  0
 21 38  1  0
 21 39  1  0
 22 40  1  0
 22 41  1  0
 22 42  1  0
M  ISO  8  23   8  24  14  25  14  26  14  27  14  28  14  29   8  30   8
M  ISO  8  31   8  32   8  33   8  34  14  35  14  36   8  37   8  38   8
M  ISO  4  39   8  40   8  41   8  42   8
M  END
>  <minimizedAffinity>  (1) 
-4.94126415

>  <minimizedRMSD>  (1) 
0.161157876

$$$$
