
     RDKit          3D

 32 35  0  0  1  0  0  0  0  0999 V2000
   46.4450   34.3000   43.1450 C   0  0  1  0  0  0  0  0  0  0  0  0
   45.7010   35.6130   43.1320 C   0  0  0  0  0  0  0  0  0  0  0  0
   44.9700   34.3790   43.3590 C   0  0  1  0  0  0  0  0  0  0  0  0
   48.0580   34.3230   39.7770 C   0  0  0  0  0  0  0  0  0  0  0  0
   47.4900   34.8000   40.9990 C   0  0  0  0  0  0  0  0  0  0  0  0
   47.0300   33.8350   41.8870 C   0  0  0  0  0  0  0  0  0  0  0  0
   47.1370   32.5130   41.5620 N   0  0  0  0  0  0  0  0  0  0  0  0
   47.6750   32.1000   40.4070 C   0  0  0  0  0  0  0  0  0  0  0  0
   48.1380   32.9920   39.5100 N   0  0  0  0  0  0  0  0  0  0  0  0
   43.9920   33.8340   42.3750 C   0  0  0  0  0  0  0  0  0  0  0  0
   43.7260   32.4940   42.1330 C   0  0  0  0  0  0  0  0  0  0  0  0
   42.7820   32.1250   41.2040 C   0  0  0  0  0  0  0  0  0  0  0  0
   42.0870   33.0170   40.5010 N   0  0  0  0  0  0  0  0  0  0  0  0
   42.3470   34.3240   40.7380 C   0  0  0  0  0  0  0  0  0  0  0  0
   43.2590   34.6840   41.6370 N   0  0  0  0  0  0  0  0  0  0  0  0
   41.5960   35.3650   39.9780 C   0  0  0  0  0  0  0  0  0  0  0  0
   40.4960   36.1170   40.7590 C   0  0  0  0  0  0  0  0  0  0  0  0
   40.1920   35.1570   39.5860 C   0  0  0  0  0  0  0  0  0  0  0  0
   47.2736   33.8364   43.7005 H   0  0  0  0  0  0  0  0  0  0  0  0
   45.8376   36.3292   43.9557 H   0  0  0  0  0  0  0  0  0  0  0  0
   45.6123   36.4464   42.4195 H   0  0  0  0  0  0  0  0  0  0  0  0
   44.2860   34.0260   44.1448 H   0  0  0  0  0  0  0  0  0  0  0  0
   48.4372   35.0456   39.0394 H   0  0  0  0  0  0  0  0  0  0  0  0
   47.4207   35.8744   41.2246 H   0  0  0  0  0  0  0  0  0  0  0  0
   47.7393   31.0237   40.1892 H   0  0  0  0  0  0  0  0  0  0  0  0
   44.2752   31.7200   42.6893 H   0  0  0  0  0  0  0  0  0  0  0  0
   42.5941   31.0543   41.0355 H   0  0  0  0  0  0  0  0  0  0  0  0
   42.4920   35.6365   39.4006 H   0  0  0  0  0  0  0  0  0  0  0  0
   40.2504   35.8312   41.7924 H   0  0  0  0  0  0  0  0  0  0  0  0
   40.2721   37.1648   41.0079 H   0  0  0  0  0  0  0  0  0  0  0  0
   39.8265   35.5613   38.6305 H   0  0  0  0  0  0  0  0  0  0  0  0
   39.5510   34.2715   39.4634 H   0  0  0  0  0  0  0  0  0  0  0  0
  1  3  1  0
  2  1  1  0
  2  3  1  0
  4  5  2  0
  5  6  1  0
  6  1  1  0
  7  6  2  0
  8  7  1  0
  9  4  1  0
  9  8  2  0
 10  3  1  0
 11 10  2  0
 12 11  1  0
 13 14  1  0
 13 12  2  0
 14 15  2  0
 15 10  1  0
 16 14  1  0
 16 17  1  0
 18 16  1  0
 18 17  1  0
  1 19  1  1
  2 20  1  0
  2 21  1  0
  3 22  1  1
  4 23  1  0
  5 24  1  0
  8 25  1  0
 11 26  1  0
 12 27  1  0
 16 28  1  0
 17 29  1  0
 17 30  1  0
 18 31  1  0
 18 32  1  0
M  ISO  8  19  13  20  13  21  13  22  13  23  14  24  14  25  14  26  14
M  ISO  6  27  14  28  13  29  13  30  13  31  13  32  13
M  END
>  <minimizedAffinity>  (1) 
-4.5324111

>  <minimizedRMSD>  (1) 
4.63020611

$$$$
