
     RDKit          3D

 39 42  0  0  1  0  0  0  0  0999 V2000
   48.8310   35.1630   42.1720 C   0  0  2  0  0  0  0  0  0  0  0  0
   46.4770   34.4210   41.5970 N   0  0  0  0  0  0  0  0  0  0  0  0
   45.8780   33.9120   40.5650 N   0  0  0  0  0  0  0  0  0  0  0  0
   46.7410   33.7360   39.5310 C   0  0  0  0  0  0  0  0  0  0  0  0
   47.9800   34.1820   39.9810 C   0  0  0  0  0  0  0  0  0  0  0  0
   47.7870   34.6010   41.2680 C   0  0  0  0  0  0  0  0  0  0  0  0
   44.6710   36.1870   44.3280 C   0  0  0  0  0  0  0  0  0  0  0  0
   45.2470   35.9400   43.0610 C   0  0  0  0  0  0  0  0  0  0  0  0
   45.8760   34.7340   42.8440 C   0  0  0  0  0  0  0  0  0  0  0  0
   45.9190   33.8350   43.8450 N   0  0  0  0  0  0  0  0  0  0  0  0
   45.3680   34.0720   45.0580 C   0  0  0  0  0  0  0  0  0  0  0  0
   44.7460   35.2370   45.3060 N   0  0  0  0  0  0  0  0  0  0  0  0
   49.3110   36.4860   41.5950 C   0  0  0  0  0  0  0  0  0  0  0  0
   50.0260   34.2670   42.2450 C   0  0  0  0  0  0  0  0  0  0  0  0
   49.7170   32.8610   42.3370 C   0  0  0  0  0  0  0  0  0  0  0  0
   48.8360   32.1640   43.1700 C   0  0  0  0  0  0  0  0  0  0  0  0
   48.7490   30.8260   43.0310 C   0  0  0  0  0  0  0  0  0  0  0  0
   49.5340   30.1770   42.0670 C   0  0  0  0  0  0  0  0  0  0  0  0
   50.4410   31.6280   41.3390 S   0  0  0  0  0  0  0  0  0  0  0  0
   49.6240   28.8290   41.7350 N   0  0  0  0  0  0  0  0  0  0  0  0
   48.6760   27.8480   41.7340 C   0  0  0  0  0  0  0  0  0  0  0  0
   49.2900   26.7000   41.3240 N   0  0  0  0  0  0  0  0  0  0  0  0
   50.6020   26.9890   41.0780 C   0  0  0  0  0  0  0  0  0  0  0  0
   50.7950   28.3100   41.3380 N   0  0  0  0  0  0  0  0  0  0  0  0
   48.3883   35.2766   43.1726 H   0  0  0  0  0  0  0  0  0  0  0  0
   46.5076   33.3240   38.5381 H   0  0  0  0  0  0  0  0  0  0  0  0
   48.9236   34.1948   39.4157 H   0  0  0  0  0  0  0  0  0  0  0  0
   44.1633   37.1426   44.5257 H   0  0  0  0  0  0  0  0  0  0  0  0
   45.1939   36.6962   42.2639 H   0  0  0  0  0  0  0  0  0  0  0  0
   45.4296   33.3065   45.8456 H   0  0  0  0  0  0  0  0  0  0  0  0
   49.5609   37.1747   42.4155 H   0  0  0  0  0  0  0  0  0  0  0  0
   50.2039   36.3137   40.9761 H   0  0  0  0  0  0  0  0  0  0  0  0
   48.5153   36.9263   40.9761 H   0  0  0  0  0  0  0  0  0  0  0  0
   50.6307   34.4270   41.3402 H   0  0  0  0  0  0  0  0  0  0  0  0
   50.5576   34.5308   43.1711 H   0  0  0  0  0  0  0  0  0  0  0  0
   48.2297   32.6940   43.9193 H   0  0  0  0  0  0  0  0  0  0  0  0
   48.0663   30.2466   43.6699 H   0  0  0  0  0  0  0  0  0  0  0  0
   47.6175   27.9608   42.0111 H   0  0  0  0  0  0  0  0  0  0  0  0
   51.3672   26.2790   40.7310 H   0  0  0  0  0  0  0  0  0  0  0  0
  1 14  1  0
  2  9  1  0
  3  2  1  0
  4  5  1  0
  4  3  2  0
  5  6  2  0
  6  2  1  0
  6  1  1  0
  7 12  2  0
  8  7  1  0
  9  8  2  0
  9 10  1  0
 10 11  2  0
 11 12  1  0
 13  1  1  0
 14 15  1  0
 15 16  2  0
 17 16  1  0
 18 17  2  0
 19 18  1  0
 19 15  1  0
 20 18  1  0
 21 20  1  0
 22 21  2  0
 23 22  1  0
 23 24  2  0
 24 20  1  0
  1 25  1  1
  4 26  1  0
  5 27  1  0
  7 28  1  0
  8 29  1  0
 11 30  1  0
 13 31  1  0
 13 32  1  0
 13 33  1  0
 14 34  1  0
 14 35  1  0
 16 36  1  0
 17 37  1  0
 21 38  1  0
 23 39  1  0
M  ISO  8  25   8  26  14  27  14  28  14  29  14  30  14  31   8  32   8
M  ISO  7  33   8  34   8  35   8  36  14  37  14  38  14  39  14
M  END
>  <minimizedAffinity>  (1) 
-4.93556738

>  <minimizedRMSD>  (1) 
0.186199501

$$$$
