
     RDKit          3D

 43 46  0  0  1  0  0  0  0  0999 V2000
   48.8180   35.1450   42.1660 C   0  0  2  0  0  0  0  0  0  0  0  0
   46.4750   34.4290   41.5990 N   0  0  0  0  0  0  0  0  0  0  0  0
   45.8660   33.9270   40.5640 N   0  0  0  0  0  0  0  0  0  0  0  0
   46.7250   33.7510   39.5270 C   0  0  0  0  0  0  0  0  0  0  0  0
   47.9600   34.1850   39.9800 C   0  0  0  0  0  0  0  0  0  0  0  0
   47.7780   34.6030   41.2700 C   0  0  0  0  0  0  0  0  0  0  0  0
   44.6690   36.1820   44.3330 C   0  0  0  0  0  0  0  0  0  0  0  0
   45.2430   35.9410   43.0720 C   0  0  0  0  0  0  0  0  0  0  0  0
   45.8750   34.7390   42.8440 C   0  0  0  0  0  0  0  0  0  0  0  0
   45.9160   33.8400   43.8440 N   0  0  0  0  0  0  0  0  0  0  0  0
   45.3650   34.0720   45.0570 C   0  0  0  0  0  0  0  0  0  0  0  0
   44.7440   35.2350   45.3060 N   0  0  0  0  0  0  0  0  0  0  0  0
   49.3230   36.4700   41.5960 C   0  0  0  0  0  0  0  0  0  0  0  0
   50.0070   34.2430   42.2280 C   0  0  0  0  0  0  0  0  0  0  0  0
   49.6900   32.8350   42.3200 C   0  0  0  0  0  0  0  0  0  0  0  0
   48.8260   32.1430   43.1710 C   0  0  0  0  0  0  0  0  0  0  0  0
   48.7320   30.8040   43.0280 C   0  0  0  0  0  0  0  0  0  0  0  0
   49.4960   30.1660   42.0440 C   0  0  0  0  0  0  0  0  0  0  0  0
   50.3920   31.6080   41.2950 S   0  0  0  0  0  0  0  0  0  0  0  0
   49.5940   28.7830   41.6750 C   0  0  0  0  0  0  0  0  0  0  0  0
   48.4670   27.9890   41.6640 C   0  0  0  0  0  0  0  0  0  0  0  0
   48.6680   26.6790   41.2970 C   0  0  0  0  0  0  0  0  0  0  0  0
   49.8880   26.1460   40.9540 C   0  0  0  0  0  0  0  0  0  0  0  0
   50.9940   26.9870   40.9810 C   0  0  0  0  0  0  0  0  0  0  0  0
   50.8540   28.3300   41.3470 C   0  0  0  0  0  0  0  0  0  0  0  0
   48.3694   35.2557   43.1642 H   0  0  0  0  0  0  0  0  0  0  0  0
   46.4886   33.3468   38.5316 H   0  0  0  0  0  0  0  0  0  0  0  0
   48.9028   34.1922   39.4133 H   0  0  0  0  0  0  0  0  0  0  0  0
   44.1595   37.1363   44.5322 H   0  0  0  0  0  0  0  0  0  0  0  0
   45.1879   36.7016   42.2793 H   0  0  0  0  0  0  0  0  0  0  0  0
   45.4262   33.3044   45.8425 H   0  0  0  0  0  0  0  0  0  0  0  0
   49.5819   37.1493   42.4215 H   0  0  0  0  0  0  0  0  0  0  0  0
   50.2145   36.2873   40.9781 H   0  0  0  0  0  0  0  0  0  0  0  0
   48.5360   36.9270   40.9781 H   0  0  0  0  0  0  0  0  0  0  0  0
   50.6056   34.4013   41.3188 H   0  0  0  0  0  0  0  0  0  0  0  0
   50.5472   34.5020   43.1506 H   0  0  0  0  0  0  0  0  0  0  0  0
   48.2392   32.6733   43.9355 H   0  0  0  0  0  0  0  0  0  0  0  0
   48.0625   30.2209   43.6775 H   0  0  0  0  0  0  0  0  0  0  0  0
   47.4731   28.3775   41.9310 H   0  0  0  0  0  0  0  0  0  0  0  0
   47.7933   26.0124   41.2765 H   0  0  0  0  0  0  0  0  0  0  0  0
   49.9855   25.0884   40.6676 H   0  0  0  0  0  0  0  0  0  0  0  0
   51.9859   26.5942   40.7129 H   0  0  0  0  0  0  0  0  0  0  0  0
   51.7229   29.0040   41.3723 H   0  0  0  0  0  0  0  0  0  0  0  0
  1 14  1  0
  2  9  1  0
  3  2  1  0
  4  5  1  0
  4  3  2  0
  5  6  2  0
  6  2  1  0
  6  1  1  0
  7 12  2  0
  8  7  1  0
  9  8  2  0
  9 10  1  0
 10 11  2  0
 11 12  1  0
 13  1  1  0
 14 15  1  0
 15 16  2  0
 17 16  1  0
 18 17  2  0
 19 18  1  0
 19 15  1  0
 20 18  1  0
 21 20  2  0
 22 21  1  0
 23 24  1  0
 23 22  2  0
 24 25  2  0
 25 20  1  0
  1 26  1  1
  4 27  1  0
  5 28  1  0
  7 29  1  0
  8 30  1  0
 11 31  1  0
 13 32  1  0
 13 33  1  0
 13 34  1  0
 14 35  1  0
 14 36  1  0
 16 37  1  0
 17 38  1  0
 21 39  1  0
 22 40  1  0
 23 41  1  0
 24 42  1  0
 25 43  1  0
M  ISO  8  26   8  27  14  28  14  29  14  30  14  31  14  32   8  33   8
M  ISO  8  34   8  35   8  36   8  37  14  38  14  39  14  40  14  41  14
M  ISO  2  42  14  43  14
M  END
>  <minimizedAffinity>  (1) 
-4.93411064

>  <minimizedRMSD>  (1) 
0.159372687

$$$$
