
     RDKit          3D

 40 43  0  0  1  0  0  0  0  0999 V2000
   48.8200   35.1470   42.1700 C   0  0  2  0  0  0  0  0  0  0  0  0
   46.4730   34.4250   41.5950 N   0  0  0  0  0  0  0  0  0  0  0  0
   45.8680   33.9230   40.5620 N   0  0  0  0  0  0  0  0  0  0  0  0
   46.7290   33.7460   39.5260 C   0  0  0  0  0  0  0  0  0  0  0  0
   47.9710   34.1820   39.9780 C   0  0  0  0  0  0  0  0  0  0  0  0
   47.7770   34.6000   41.2690 C   0  0  0  0  0  0  0  0  0  0  0  0
   44.6710   36.1830   44.3360 C   0  0  0  0  0  0  0  0  0  0  0  0
   45.2440   35.9410   43.0680 C   0  0  0  0  0  0  0  0  0  0  0  0
   45.8740   34.7370   42.8420 C   0  0  0  0  0  0  0  0  0  0  0  0
   45.9150   33.8390   43.8420 N   0  0  0  0  0  0  0  0  0  0  0  0
   45.3660   34.0720   45.0560 C   0  0  0  0  0  0  0  0  0  0  0  0
   44.7450   35.2350   45.3080 N   0  0  0  0  0  0  0  0  0  0  0  0
   49.3160   36.4750   41.5990 C   0  0  0  0  0  0  0  0  0  0  0  0
   50.0090   34.2460   42.2240 C   0  0  0  0  0  0  0  0  0  0  0  0
   49.7000   32.8380   42.3250 C   0  0  0  0  0  0  0  0  0  0  0  0
   48.8310   32.1550   43.1800 C   0  0  0  0  0  0  0  0  0  0  0  0
   48.7430   30.8160   43.0530 C   0  0  0  0  0  0  0  0  0  0  0  0
   49.5180   30.1680   42.0820 C   0  0  0  0  0  0  0  0  0  0  0  0
   50.4150   31.6050   41.3240 S   0  0  0  0  0  0  0  0  0  0  0  0
   49.6000   28.7980   41.7620 N   0  0  0  0  0  0  0  0  0  0  0  0
   48.6920   27.8860   41.5700 N   0  0  0  0  0  0  0  0  0  0  0  0
   49.2720   26.6870   41.2790 C   0  0  0  0  0  0  0  0  0  0  0  0
   50.6510   26.9020   41.2980 C   0  0  0  0  0  0  0  0  0  0  0  0
   50.8290   28.2460   41.6070 C   0  0  0  0  0  0  0  0  0  0  0  0
   48.3776   35.2566   43.1711 H   0  0  0  0  0  0  0  0  0  0  0  0
   46.4923   33.3402   38.5313 H   0  0  0  0  0  0  0  0  0  0  0  0
   48.9156   34.1896   39.4143 H   0  0  0  0  0  0  0  0  0  0  0  0
   44.1647   37.1386   44.5373 H   0  0  0  0  0  0  0  0  0  0  0  0
   45.1882   36.7008   42.2746 H   0  0  0  0  0  0  0  0  0  0  0  0
   45.4288   33.3041   45.8411 H   0  0  0  0  0  0  0  0  0  0  0  0
   49.5706   37.1566   42.4240 H   0  0  0  0  0  0  0  0  0  0  0  0
   50.2086   36.2979   40.9810 H   0  0  0  0  0  0  0  0  0  0  0  0
   48.5258   36.9264   40.9810 H   0  0  0  0  0  0  0  0  0  0  0  0
   50.5980   34.4019   41.3082 H   0  0  0  0  0  0  0  0  0  0  0  0
   50.5547   34.5092   43.1421 H   0  0  0  0  0  0  0  0  0  0  0  0
   48.2372   32.6934   43.9333 H   0  0  0  0  0  0  0  0  0  0  0  0
   48.0704   30.2385   43.7042 H   0  0  0  0  0  0  0  0  0  0  0  0
   48.7556   25.7384   41.0706 H   0  0  0  0  0  0  0  0  0  0  0  0
   51.4384   26.1580   41.1070 H   0  0  0  0  0  0  0  0  0  0  0  0
   51.7924   28.7672   41.7075 H   0  0  0  0  0  0  0  0  0  0  0  0
  1 14  1  0
  2  9  1  0
  3  2  1  0
  4  5  1  0
  4  3  2  0
  5  6  2  0
  6  2  1  0
  6  1  1  0
  7 12  2  0
  8  7  1  0
  9  8  2  0
  9 10  1  0
 10 11  2  0
 11 12  1  0
 13  1  1  0
 14 15  1  0
 15 16  2  0
 17 16  1  0
 18 17  2  0
 19 18  1  0
 19 15  1  0
 20 18  1  0
 21 20  1  0
 22 23  1  0
 22 21  2  0
 23 24  2  0
 24 20  1  0
  1 25  1  1
  4 26  1  0
  5 27  1  0
  7 28  1  0
  8 29  1  0
 11 30  1  0
 13 31  1  0
 13 32  1  0
 13 33  1  0
 14 34  1  0
 14 35  1  0
 16 36  1  0
 17 37  1  0
 22 38  1  0
 23 39  1  0
 24 40  1  0
M  ISO  8  25   8  26  14  27  14  28  14  29  14  30  14  31   8  32   8
M  ISO  8  33   8  34   8  35   8  36  14  37  14  38  14  39  14  40  14
M  END
>  <minimizedAffinity>  (1) 
-4.92807293

>  <minimizedRMSD>  (1) 
0.166744709

$$$$
