
     RDKit          3D

 46 49  0  0  1  0  0  0  0  0999 V2000
   48.8230   35.1640   42.1700 C   0  0  2  0  0  0  0  0  0  0  0  0
   46.4860   34.4260   41.6030 N   0  0  0  0  0  0  0  0  0  0  0  0
   45.8800   33.9130   40.5700 N   0  0  0  0  0  0  0  0  0  0  0  0
   46.7440   33.7360   39.5360 C   0  0  0  0  0  0  0  0  0  0  0  0
   47.9760   34.1810   39.9890 C   0  0  0  0  0  0  0  0  0  0  0  0
   47.7900   34.6030   41.2720 C   0  0  0  0  0  0  0  0  0  0  0  0
   44.6680   36.1820   44.3280 C   0  0  0  0  0  0  0  0  0  0  0  0
   45.2450   35.9420   43.0680 C   0  0  0  0  0  0  0  0  0  0  0  0
   45.8790   34.7370   42.8470 C   0  0  0  0  0  0  0  0  0  0  0  0
   45.9220   33.8400   43.8490 N   0  0  0  0  0  0  0  0  0  0  0  0
   45.3660   34.0730   45.0600 C   0  0  0  0  0  0  0  0  0  0  0  0
   44.7420   35.2350   45.3070 N   0  0  0  0  0  0  0  0  0  0  0  0
   49.3180   36.4830   41.5920 C   0  0  0  0  0  0  0  0  0  0  0  0
   50.0170   34.2690   42.2400 C   0  0  0  0  0  0  0  0  0  0  0  0
   49.7080   32.8680   42.3320 C   0  0  0  0  0  0  0  0  0  0  0  0
   48.8370   32.1610   43.1610 C   0  0  0  0  0  0  0  0  0  0  0  0
   48.7540   30.8190   43.0160 C   0  0  0  0  0  0  0  0  0  0  0  0
   49.5360   30.1850   42.0490 C   0  0  0  0  0  0  0  0  0  0  0  0
   50.4310   31.6380   41.3250 S   0  0  0  0  0  0  0  0  0  0  0  0
   50.1720   26.3010   40.7840 C   0  0  0  0  0  0  0  0  0  0  0  0
   48.9370   26.6520   41.3120 C   0  0  0  0  0  0  0  0  0  0  0  0
   48.6720   27.9530   41.7540 C   0  0  0  0  0  0  0  0  0  0  0  0
   49.7030   28.8600   41.6360 C   0  0  0  0  0  0  0  0  0  0  0  0
   50.9390   28.5470   41.1180 C   0  0  0  0  0  0  0  0  0  0  0  0
   51.1960   27.2490   40.6800 C   0  0  0  0  0  0  0  0  0  0  0  0
   50.4150   24.6420   40.2550 S   0  0  0  0  0  0  0  0  0  0  0  0
   50.8730   23.7530   41.3600 O   0  0  0  0  0  0  0  0  0  0  0  0
   51.3120   24.6320   39.0630 O   0  0  0  0  0  0  0  0  0  0  0  0
   48.3715   35.2829   43.1660 H   0  0  0  0  0  0  0  0  0  0  0  0
   46.5128   33.3238   38.5427 H   0  0  0  0  0  0  0  0  0  0  0  0
   48.9196   34.1916   39.4237 H   0  0  0  0  0  0  0  0  0  0  0  0
   44.1559   37.1355   44.5244 H   0  0  0  0  0  0  0  0  0  0  0  0
   45.1917   36.7010   42.2736 H   0  0  0  0  0  0  0  0  0  0  0  0
   45.4257   33.3060   45.8462 H   0  0  0  0  0  0  0  0  0  0  0  0
   49.5755   37.1691   42.4123 H   0  0  0  0  0  0  0  0  0  0  0  0
   50.2089   36.3008   40.9731 H   0  0  0  0  0  0  0  0  0  0  0  0
   48.5272   36.9319   40.9731 H   0  0  0  0  0  0  0  0  0  0  0  0
   50.6198   34.4290   41.3339 H   0  0  0  0  0  0  0  0  0  0  0  0
   50.5515   34.5326   43.1646 H   0  0  0  0  0  0  0  0  0  0  0  0
   48.2311   32.6834   43.9159 H   0  0  0  0  0  0  0  0  0  0  0  0
   48.0766   30.2325   43.6541 H   0  0  0  0  0  0  0  0  0  0  0  0
   48.1478   25.8892   41.3847 H   0  0  0  0  0  0  0  0  0  0  0  0
   47.6949   28.2361   42.1725 H   0  0  0  0  0  0  0  0  0  0  0  0
   51.7207   29.3179   41.0499 H   0  0  0  0  0  0  0  0  0  0  0  0
   52.1773   26.9772   40.2638 H   0  0  0  0  0  0  0  0  0  0  0  0
   49.2111   24.1101   39.8748 H   0  0  0  0  0  0  0  0  0  0  0  0
  1 14  1  0
  2  9  1  0
  3  2  1  0
  4  5  1  0
  4  3  2  0
  5  6  2  0
  6  2  1  0
  6  1  1  0
  7 12  2  0
  8  7  1  0
  9  8  2  0
  9 10  1  0
 10 11  2  0
 11 12  1  0
 13  1  1  0
 14 15  1  0
 15 16  2  0
 17 16  1  0
 18 17  2  0
 19 18  1  0
 19 15  1  0
 20 21  2  0
 21 22  1  0
 23 22  2  0
 23 18  1  0
 24 23  1  0
 25 20  1  0
 25 24  2  0
 26 20  1  0
 26 27  2  0
 28 26  2  0
  1 29  1  1
  4 30  1  0
  5 31  1  0
  7 32  1  0
  8 33  1  0
 11 34  1  0
 13 35  1  0
 13 36  1  0
 13 37  1  0
 14 38  1  0
 14 39  1  0
 16 40  1  0
 17 41  1  0
 21 42  1  0
 22 43  1  0
 24 44  1  0
 25 45  1  0
 26 46  1  0
M  ISO  8  29   8  30  14  31  14  32  14  33  14  34  14  35   8  36   8
M  ISO  8  37   8  38   8  39   8  40  14  41  14  42  14  43  14  44  14
M  ISO  2  45  14  46  11
M  END
>  <minimizedAffinity>  (1) 
-4.74686766

>  <minimizedRMSD>  (1) 
0.254453599

$$$$
