
     RDKit          3D

 44 48  0  0  1  0  0  0  0  0999 V2000
   44.6190   35.6000   44.6020 C   0  0  0  0  0  0  0  0  0  0  0  0
   44.2980   35.4480   43.2720 C   0  0  0  0  0  0  0  0  0  0  0  0
   44.7050   34.2600   42.6890 C   0  0  0  0  0  0  0  0  0  0  0  0
   45.3640   33.3940   43.4870 N   0  0  0  0  0  0  0  0  0  0  0  0
   45.6830   33.5170   44.7630 C   0  0  0  0  0  0  0  0  0  0  0  0
   45.2670   34.6460   45.2150 N   0  0  0  0  0  0  0  0  0  0  0  0
   46.3890   32.3870   45.3110 C   0  0  0  0  0  0  0  0  0  0  0  0
   47.2510   31.6330   44.5360 C   0  0  0  0  0  0  0  0  0  0  0  0
   47.9410   30.5420   45.0190 C   0  0  0  0  0  0  0  0  0  0  0  0
   47.7950   30.1530   46.3150 C   0  0  0  0  0  0  0  0  0  0  0  0
   46.9530   30.8740   47.1100 C   0  0  0  0  0  0  0  0  0  0  0  0
   46.8130   30.4680   48.4340 C   0  0  0  0  0  0  0  0  0  0  0  0
   45.9880   31.1420   49.2870 C   0  0  0  0  0  0  0  0  0  0  0  0
   45.2980   32.2400   48.7960 C   0  0  0  0  0  0  0  0  0  0  0  0
   45.4780   32.5930   47.4760 C   0  0  0  0  0  0  0  0  0  0  0  0
   46.2910   31.9470   46.5910 C   0  0  0  0  0  0  0  0  0  0  0  0
   44.3040   33.8180   41.3710 C   0  0  0  0  0  0  0  0  0  0  0  0
   43.9620   33.4420   40.2480 N   0  0  0  0  0  0  0  0  0  0  0  0
   43.4380   33.0450   39.2180 C   0  0  0  0  0  0  0  0  0  0  0  0
   44.6290   33.1840   38.6200 N   0  0  0  0  0  0  0  0  0  0  0  0
   45.7340   33.6240   39.2790 C   0  0  0  0  0  0  0  0  0  0  0  0
   46.9330   33.6570   38.5110 C   0  0  0  0  0  0  0  0  0  0  0  0
   48.0610   34.0280   39.1860 C   0  0  0  0  0  0  0  0  0  0  0  0
   48.1310   34.3650   40.5170 C   0  0  0  0  0  0  0  0  0  0  0  0
   46.8840   34.2840   41.1140 C   0  0  0  0  0  0  0  0  0  0  0  0
   45.5660   33.9370   40.6520 C   0  0  0  0  0  0  0  0  0  0  0  0
   44.3330   36.5145   45.1423 H   0  0  0  0  0  0  0  0  0  0  0  0
   43.7535   36.2203   42.7090 H   0  0  0  0  0  0  0  0  0  0  0  0
   47.3929   31.9177   43.4830 H   0  0  0  0  0  0  0  0  0  0  0  0
   48.6139   29.9822   44.3528 H   0  0  0  0  0  0  0  0  0  0  0  0
   48.3399   29.2828   46.7098 H   0  0  0  0  0  0  0  0  0  0  0  0
   47.3737   29.5940   48.7969 H   0  0  0  0  0  0  0  0  0  0  0  0
   45.8737   30.8235   50.3337 H   0  0  0  0  0  0  0  0  0  0  0  0
   44.6224   32.8162   49.4453 H   0  0  0  0  0  0  0  0  0  0  0  0
   44.9210   33.4664   47.1059 H   0  0  0  0  0  0  0  0  0  0  0  0
   43.4149   33.3356   41.8033 H   0  0  0  0  0  0  0  0  0  0  0  0
   44.3043   34.3043   39.8005 H   0  0  0  0  0  0  0  0  0  0  0  0
   43.0663   32.0107   39.2628 H   0  0  0  0  0  0  0  0  0  0  0  0
   42.5313   33.5185   38.8133 H   0  0  0  0  0  0  0  0  0  0  0  0
   44.7108   32.9480   37.6207 H   0  0  0  0  0  0  0  0  0  0  0  0
   46.9496   33.3999   37.4416 H   0  0  0  0  0  0  0  0  0  0  0  0
   48.9990   34.0601   38.6123 H   0  0  0  0  0  0  0  0  0  0  0  0
   49.0539   34.6595   41.0380 H   0  0  0  0  0  0  0  0  0  0  0  0
   46.9059   34.5435   42.1827 H   0  0  0  0  0  0  0  0  0  0  0  0
  1  6  2  0
  2  1  1  0
  3  2  2  0
  3  4  1  0
  4  5  2  0
  5  6  1  0
  5  7  1  0
  7 16  2  0
  8  9  2  0
  8  7  1  0
  9 10  1  0
 10 11  2  0
 11 12  1  0
 12 13  2  0
 14 13  1  0
 15 14  2  0
 16 11  1  0
 16 15  1  0
 17  3  1  0
 18 17  1  0
 19 18  1  0
 20 19  1  0
 20 21  1  0
 21 26  2  0
 22 23  2  0
 22 21  1  0
 23 24  1  0
 24 25  2  0
 26 25  1  0
 26 17  1  0
  1 27  1  0
  2 28  1  0
  8 29  1  0
  9 30  1  0
 10 31  1  0
 12 32  1  0
 13 33  1  0
 14 34  1  0
 15 35  1  0
 17 36  1  0
 18 37  1  0
 19 38  1  0
 19 39  1  0
 20 40  1  0
 22 41  1  0
 23 42  1  0
 24 43  1  0
 25 44  1  0
M  ISO  8  27  14  28  14  29  14  30  14  31  14  32  14  33  14  34  14
M  ISO  8  35  14  36  13  37   5  38  13  39  13  41  14  42  14  43  14
M  ISO  1  44  14
M  END
>  <minimizedAffinity>  (1) 
-6.74266195

>  <minimizedRMSD>  (1) 
2.42051029

$$$$
