
     RDKit          3D

 18 19  0  0  0  0  0  0  0  0999 V2000
   44.6070   35.4980   45.3120 C   0  0  0  0  0  0  0  0  0  0  0  0
   44.3790   35.7000   43.9480 C   0  0  0  0  0  0  0  0  0  0  0  0
   44.8380   34.7070   43.0780 C   0  0  0  0  0  0  0  0  0  0  0  0
   45.4670   33.6110   43.5550 N   0  0  0  0  0  0  0  0  0  0  0  0
   45.6680   33.4560   44.8970 C   0  0  0  0  0  0  0  0  0  0  0  0
   45.2410   34.3900   45.7570 N   0  0  0  0  0  0  0  0  0  0  0  0
   46.3280   32.3120   45.4320 N   0  0  0  0  0  0  0  0  0  0  0  0
   47.1310   31.6160   44.5930 C   0  0  0  0  0  0  0  0  0  0  0  0
   47.6620   30.5630   45.3100 C   0  0  0  0  0  0  0  0  0  0  0  0
   47.1780   30.6420   46.5460 N   0  0  0  0  0  0  0  0  0  0  0  0
   46.3680   31.6990   46.6370 C   0  0  0  0  0  0  0  0  0  0  0  0
   45.3800   32.4230   47.9580 S   0  0  0  0  0  0  0  0  0  0  0  0
   44.2650   36.2529   46.0353 H   0  0  0  0  0  0  0  0  0  0  0  0
   43.8629   36.5977   43.5768 H   0  0  0  0  0  0  0  0  0  0  0  0
   44.6855   34.8192   41.9944 H   0  0  0  0  0  0  0  0  0  0  0  0
   47.3245   31.8471   43.5351 H   0  0  0  0  0  0  0  0  0  0  0  0
   48.3568   29.7998   44.9295 H   0  0  0  0  0  0  0  0  0  0  0  0
   45.8935   32.0467   49.1711 H   0  0  0  0  0  0  0  0  0  0  0  0
  1  6  2  0
  2  1  1  0
  3  4  1  0
  3  2  2  0
  4  5  2  0
  5  7  1  0
  5  6  1  0
  7 11  1  0
  8  9  2  0
  8  7  1  0
  9 10  1  0
 10 11  2  0
 11 12  1  0
  1 13  1  0
  2 14  1  0
  3 15  1  0
  8 16  1  0
  9 17  1  0
 12 18  1  0
M  ISO  6  13  14  14  14  15  14  16  14  17  14  18  11
M  END
>  <minimizedAffinity>  (1) 
-3.68955874

>  <minimizedRMSD>  (1) 
1.78852725

$$$$
