
     RDKit          3D

 39 42  0  0  0  0  0  0  0  0999 V2000
   45.0950   35.4620   44.4510 C   0  0  0  0  0  0  0  0  0  0  0  0
   45.6230   35.4920   43.1440 C   0  0  0  0  0  0  0  0  0  0  0  0
   46.1430   34.3030   42.6540 C   0  0  0  0  0  0  0  0  0  0  0  0
   46.0910   33.2450   43.4720 N   0  0  0  0  0  0  0  0  0  0  0  0
   45.5890   33.1970   44.7260 C   0  0  0  0  0  0  0  0  0  0  0  0
   45.1160   34.3400   45.1330 N   0  0  0  0  0  0  0  0  0  0  0  0
   45.6980   31.8780   45.3060 C   0  0  0  0  0  0  0  0  0  0  0  0
   45.8060   30.7380   44.5320 C   0  0  0  0  0  0  0  0  0  0  0  0
   45.9030   29.4720   45.0450 C   0  0  0  0  0  0  0  0  0  0  0  0
   45.8980   29.2710   46.3970 C   0  0  0  0  0  0  0  0  0  0  0  0
   45.7940   30.3650   47.1950 C   0  0  0  0  0  0  0  0  0  0  0  0
   45.7890   30.1600   48.5750 C   0  0  0  0  0  0  0  0  0  0  0  0
   45.6860   31.2140   49.4390 C   0  0  0  0  0  0  0  0  0  0  0  0
   45.5890   32.4940   48.9140 C   0  0  0  0  0  0  0  0  0  0  0  0
   45.6000   32.6250   47.5510 C   0  0  0  0  0  0  0  0  0  0  0  0
   45.7000   31.6120   46.6400 C   0  0  0  0  0  0  0  0  0  0  0  0
   47.6960   33.9220   38.7020 C   0  0  0  0  0  0  0  0  0  0  0  0
   48.3470   34.6520   39.6790 C   0  0  0  0  0  0  0  0  0  0  0  0
   47.9000   34.8180   40.9770 C   0  0  0  0  0  0  0  0  0  0  0  0
   46.7190   34.2050   41.3170 C   0  0  0  0  0  0  0  0  0  0  0  0
   46.0450   33.4690   40.3640 C   0  0  0  0  0  0  0  0  0  0  0  0
   46.5120   33.3150   39.0610 C   0  0  0  0  0  0  0  0  0  0  0  0
   48.3650   33.7890   37.0950 S   0  0  0  0  0  0  0  0  0  0  0  0
   49.6410   33.0300   37.0500 O   0  0  0  0  0  0  0  0  0  0  0  0
   47.3170   33.0560   36.2670 O   0  0  0  0  0  0  0  0  0  0  0  0
   44.6682   36.3727   44.8966 H   0  0  0  0  0  0  0  0  0  0  0  0
   45.6226   36.4130   42.5425 H   0  0  0  0  0  0  0  0  0  0  0  0
   45.8146   30.8546   43.4382 H   0  0  0  0  0  0  0  0  0  0  0  0
   45.9855   28.6115   44.3648 H   0  0  0  0  0  0  0  0  0  0  0  0
   45.9754   28.2599   46.8232 H   0  0  0  0  0  0  0  0  0  0  0  0
   45.8689   29.1375   48.9726 H   0  0  0  0  0  0  0  0  0  0  0  0
   45.6802   31.0507   50.5268 H   0  0  0  0  0  0  0  0  0  0  0  0
   45.5061   33.3733   49.5697 H   0  0  0  0  0  0  0  0  0  0  0  0
   45.5205   33.6463   47.1503 H   0  0  0  0  0  0  0  0  0  0  0  0
   49.2940   35.1385   39.4024 H   0  0  0  0  0  0  0  0  0  0  0  0
   48.4664   35.4157   41.7063 H   0  0  0  0  0  0  0  0  0  0  0  0
   45.0989   32.9834   40.6454 H   0  0  0  0  0  0  0  0  0  0  0  0
   45.9453   32.7188   38.3306 H   0  0  0  0  0  0  0  0  0  0  0  0
   48.6549   35.0412   36.6209 H   0  0  0  0  0  0  0  0  0  0  0  0
  1  6  2  0
  2  1  1  0
  3  2  2  0
  3  4  1  0
  4  5  2  0
  5  6  1  0
  5  7  1  0
  7 16  2  0
  8  9  2  0
  8  7  1  0
  9 10  1  0
 10 11  2  0
 11 12  1  0
 12 13  2  0
 14 13  1  0
 15 14  2  0
 16 11  1  0
 16 15  1  0
 17 22  2  0
 17 18  1  0
 18 19  2  0
 19 20  1  0
 20  3  1  0
 21 20  2  0
 22 21  1  0
 23 17  1  0
 24 23  2  0
 25 23  2  0
  1 26  1  0
  2 27  1  0
  8 28  1  0
  9 29  1  0
 10 30  1  0
 12 31  1  0
 13 32  1  0
 14 33  1  0
 15 34  1  0
 18 35  1  0
 19 36  1  0
 21 37  1  0
 22 38  1  0
 23 39  1  0
M  ISO  8  26  14  27  14  28  14  29  14  30  14  31  14  32  14  33  14
M  ISO  6  34  14  35  14  36  14  37  14  38  14  39  11
M  END
>  <minimizedAffinity>  (1) 
-6.19669867

>  <minimizedRMSD>  (1) 
1.74988627

$$$$
