
     RDKit          3D

 33 36  0  0  0  0  0  0  0  0999 V2000
   46.5680   32.1700   45.5570 C   0  0  0  0  0  0  0  0  0  0  0  0
   47.3990   31.2790   44.8990 C   0  0  0  0  0  0  0  0  0  0  0  0
   47.8610   30.1130   45.4600 C   0  0  0  0  0  0  0  0  0  0  0  0
   47.5090   29.7690   46.7400 C   0  0  0  0  0  0  0  0  0  0  0  0
   46.6960   30.6160   47.4150 C   0  0  0  0  0  0  0  0  0  0  0  0
   46.3350   30.2700   48.7150 C   0  0  0  0  0  0  0  0  0  0  0  0
   45.5170   31.0790   49.4590 C   0  0  0  0  0  0  0  0  0  0  0  0
   45.0530   32.2630   48.8770 C   0  0  0  0  0  0  0  0  0  0  0  0
   45.4460   32.5420   47.5970 C   0  0  0  0  0  0  0  0  0  0  0  0
   46.2590   31.7700   46.8160 C   0  0  0  0  0  0  0  0  0  0  0  0
   44.8600   35.3110   44.4890 C   0  0  0  0  0  0  0  0  0  0  0  0
   45.5840   35.6030   43.3160 C   0  0  0  0  0  0  0  0  0  0  0  0
   46.6050   34.7090   42.9680 C   0  0  0  0  0  0  0  0  0  0  0  0
   46.7800   33.6740   43.7980 N   0  0  0  0  0  0  0  0  0  0  0  0
   46.1000   33.3780   44.9240 C   0  0  0  0  0  0  0  0  0  0  0  0
   45.1650   34.2410   45.1930 N   0  0  0  0  0  0  0  0  0  0  0  0
   47.4220   34.9110   41.7710 C   0  0  0  0  0  0  0  0  0  0  0  0
   47.1950   34.2560   40.5790 C   0  0  0  0  0  0  0  0  0  0  0  0
   48.1870   34.7460   39.7470 C   0  0  0  0  0  0  0  0  0  0  0  0
   48.9590   35.6540   40.4480 C   0  0  0  0  0  0  0  0  0  0  0  0
   48.4520   35.7130   41.6590 O   0  0  0  0  0  0  0  0  0  0  0  0
   47.7063   31.5179   43.8702 H   0  0  0  0  0  0  0  0  0  0  0  0
   48.5183   29.4503   44.8779 H   0  0  0  0  0  0  0  0  0  0  0  0
   47.8736   28.8394   47.2014 H   0  0  0  0  0  0  0  0  0  0  0  0
   46.7123   29.3332   49.1509 H   0  0  0  0  0  0  0  0  0  0  0  0
   45.2331   30.8048   50.4857 H   0  0  0  0  0  0  0  0  0  0  0  0
   44.3935   32.9475   49.4306 H   0  0  0  0  0  0  0  0  0  0  0  0
   45.0720   33.4769   47.1542 H   0  0  0  0  0  0  0  0  0  0  0  0
   44.0444   35.9734   44.8148 H   0  0  0  0  0  0  0  0  0  0  0  0
   45.3588   36.4888   42.7040 H   0  0  0  0  0  0  0  0  0  0  0  0
   46.4121   33.5196   40.3450 H   0  0  0  0  0  0  0  0  0  0  0  0
   48.3371   34.4588   38.6958 H   0  0  0  0  0  0  0  0  0  0  0  0
   49.8252   36.2153   40.0677 H   0  0  0  0  0  0  0  0  0  0  0  0
  1 10  2  0
  2  3  2  0
  2  1  1  0
  3  4  1  0
  4  5  2  0
  5  6  1  0
  6  7  2  0
  8  7  1  0
  9  8  2  0
 10  5  1  0
 10  9  1  0
 11 16  2  0
 12 11  1  0
 13 12  2  0
 13 14  1  0
 14 15  2  0
 15 16  1  0
 15  1  1  0
 17 13  1  0
 18 17  2  0
 19 20  2  0
 19 18  1  0
 20 21  1  0
 21 17  1  0
  2 22  1  0
  3 23  1  0
  4 24  1  0
  6 25  1  0
  7 26  1  0
  8 27  1  0
  9 28  1  0
 11 29  1  0
 12 30  1  0
 18 31  1  0
 19 32  1  0
 20 33  1  0
M  ISO  8  22  14  23  14  24  14  25  14  26  14  27  14  28  14  29  14
M  ISO  4  30  14  31  14  32  14  33  14
M  END
>  <minimizedAffinity>  (1) 
-5.99677658

>  <minimizedRMSD>  (1) 
0.908756196

$$$$
