
     RDKit          3D

 37 40  0  0  0  0  0  0  0  0999 V2000
   45.3940   31.7340   49.2190 C   0  0  0  0  0  0  0  0  0  0  0  0
   45.0290   32.5320   48.1190 C   0  0  0  0  0  0  0  0  0  0  0  0
   45.8830   32.5210   47.0120 C   0  0  0  0  0  0  0  0  0  0  0  0
   46.9810   31.7390   47.1130 N   0  0  0  0  0  0  0  0  0  0  0  0
   47.3460   30.9690   48.1580 C   0  0  0  0  0  0  0  0  0  0  0  0
   46.4960   31.0460   49.1270 N   0  0  0  0  0  0  0  0  0  0  0  0
   48.5870   30.2680   47.9000 C   0  0  0  0  0  0  0  0  0  0  0  0
   48.8290   29.6020   46.7130 C   0  0  0  0  0  0  0  0  0  0  0  0
   49.9900   28.9250   46.4360 C   0  0  0  0  0  0  0  0  0  0  0  0
   50.9930   28.8790   47.3580 C   0  0  0  0  0  0  0  0  0  0  0  0
   50.8010   29.5160   48.5330 C   0  0  0  0  0  0  0  0  0  0  0  0
   51.8340   29.4590   49.4580 C   0  0  0  0  0  0  0  0  0  0  0  0
   51.7080   30.0820   50.6690 C   0  0  0  0  0  0  0  0  0  0  0  0
   50.5260   30.7750   50.9550 C   0  0  0  0  0  0  0  0  0  0  0  0
   49.5370   30.7950   49.9940 C   0  0  0  0  0  0  0  0  0  0  0  0
   49.6210   30.1860   48.7750 C   0  0  0  0  0  0  0  0  0  0  0  0
   45.5630   33.3010   45.8870 N   0  0  0  0  0  0  0  0  0  0  0  0
   45.0560   34.5230   46.0120 C   0  0  0  0  0  0  0  0  0  0  0  0
   44.7540   35.2600   44.8620 C   0  0  0  0  0  0  0  0  0  0  0  0
   44.9630   34.7640   43.5810 C   0  0  0  0  0  0  0  0  0  0  0  0
   44.6490   35.5340   42.4290 N   0  0  0  0  0  0  0  0  0  0  0  0
   45.4790   33.5250   43.5020 N   0  0  0  0  0  0  0  0  0  0  0  0
   45.7620   32.8320   44.6220 C   0  0  0  0  0  0  0  0  0  0  0  0
   46.2440   31.6750   44.4900 O   0  0  0  0  0  0  0  0  0  0  0  0
   44.7707   31.6927   50.1244 H   0  0  0  0  0  0  0  0  0  0  0  0
   44.1113   33.1384   48.1296 H   0  0  0  0  0  0  0  0  0  0  0  0
   48.0429   29.6156   45.9436 H   0  0  0  0  0  0  0  0  0  0  0  0
   50.1116   28.4181   45.4674 H   0  0  0  0  0  0  0  0  0  0  0  0
   51.9293   28.3399   47.1513 H   0  0  0  0  0  0  0  0  0  0  0  0
   52.7568   28.9112   49.2165 H   0  0  0  0  0  0  0  0  0  0  0  0
   52.5228   30.0391   51.4067 H   0  0  0  0  0  0  0  0  0  0  0  0
   50.3899   31.2887   51.9181 H   0  0  0  0  0  0  0  0  0  0  0  0
   48.6117   31.3423   50.2270 H   0  0  0  0  0  0  0  0  0  0  0  0
   44.8757   34.9505   47.0094 H   0  0  0  0  0  0  0  0  0  0  0  0
   44.3351   36.2707   44.9762 H   0  0  0  0  0  0  0  0  0  0  0  0
   44.8126   35.1452   41.4894 H   0  0  0  0  0  0  0  0  0  0  0  0
   44.2577   36.4810   42.5335 H   0  0  0  0  0  0  0  0  0  0  0  0
  2  1  2  0
  3  4  2  0
  3  2  1  0
  4  5  1  0
  5  6  2  0
  6  1  1  0
  7  5  1  0
  7 16  1  0
  8  7  2  0
  9  8  1  0
  9 10  2  0
 10 11  1  0
 11 16  2  0
 11 12  1  0
 12 13  2  0
 13 14  1  0
 15 14  2  0
 16 15  1  0
 17 18  1  0
 17  3  1  0
 19 18  2  0
 20 19  1  0
 21 20  1  0
 22 20  2  0
 22 23  1  0
 23 17  1  0
 24 23  2  0
  1 25  1  0
  2 26  1  0
  8 27  1  0
  9 28  1  0
 10 29  1  0
 12 30  1  0
 13 31  1  0
 14 32  1  0
 15 33  1  0
 18 34  1  0
 19 35  1  0
 21 36  1  0
 21 37  1  0
M  ISO  8  25  14  26  14  27  14  28  14  29  14  30  14  31  14  32  14
M  ISO  3  33  14  34  14  35  14
M  END
>  <minimizedAffinity>  (1) 
-5.99029875

>  <minimizedRMSD>  (1) 
4.94160032

$$$$
