
     RDKit          3D

 29 31  0  0  0  0  0  0  0  0999 V2000
   47.0700   31.8050   44.9980 C   0  0  0  0  0  0  0  0  0  0  0  0
   47.8530   30.7290   44.6250 C   0  0  0  0  0  0  0  0  0  0  0  0
   48.1820   29.6920   45.4600 C   0  0  0  0  0  0  0  0  0  0  0  0
   47.7380   29.6690   46.7440 C   0  0  0  0  0  0  0  0  0  0  0  0
   46.9650   30.7050   47.1580 C   0  0  0  0  0  0  0  0  0  0  0  0
   46.5180   30.6700   48.4710 C   0  0  0  0  0  0  0  0  0  0  0  0
   45.7360   31.6770   48.9600 C   0  0  0  0  0  0  0  0  0  0  0  0
   45.4000   32.7270   48.1230 C   0  0  0  0  0  0  0  0  0  0  0  0
   45.8770   32.7010   46.8330 C   0  0  0  0  0  0  0  0  0  0  0  0
   46.6610   31.7220   46.2890 C   0  0  0  0  0  0  0  0  0  0  0  0
   45.5070   34.3510   42.7610 C   0  0  0  0  0  0  0  0  0  0  0  0
   46.6600   35.0240   42.3100 C   0  0  0  0  0  0  0  0  0  0  0  0
   47.8860   34.5630   42.8010 C   0  0  0  0  0  0  0  0  0  0  0  0
   47.8340   33.5290   43.6510 N   0  0  0  0  0  0  0  0  0  0  0  0
   46.7370   32.8770   44.0890 C   0  0  0  0  0  0  0  0  0  0  0  0
   45.6250   33.3480   43.5990 N   0  0  0  0  0  0  0  0  0  0  0  0
   49.1250   35.2090   42.3800 C   0  0  0  0  0  0  0  0  0  0  0  0
   49.0880   35.8590   41.3030 O   0  0  0  0  0  0  0  0  0  0  0  0
   50.2550   35.0950   43.1410 O   0  0  0  0  0  0  0  0  0  0  0  0
   48.2362   30.7027   43.5942 H   0  0  0  0  0  0  0  0  0  0  0  0
   48.8115   28.8708   45.0866 H   0  0  0  0  0  0  0  0  0  0  0  0
   47.9953   28.8421   47.4222 H   0  0  0  0  0  0  0  0  0  0  0  0
   46.7949   29.8270   49.1212 H   0  0  0  0  0  0  0  0  0  0  0  0
   45.3795   31.6542   50.0004 H   0  0  0  0  0  0  0  0  0  0  0  0
   44.7710   33.5565   48.4784 H   0  0  0  0  0  0  0  0  0  0  0  0
   45.6031   33.5434   46.1808 H   0  0  0  0  0  0  0  0  0  0  0  0
   44.5122   34.6651   42.4121 H   0  0  0  0  0  0  0  0  0  0  0  0
   46.5991   35.8686   41.6078 H   0  0  0  0  0  0  0  0  0  0  0  0
   51.0933   35.5350   42.8514 H   0  0  0  0  0  0  0  0  0  0  0  0
  1 10  1  0
  2  1  2  0
  2  3  1  0
  3  4  2  0
  4  5  1  0
  5  6  2  0
  6  7  1  0
  8  7  2  0
  9  8  1  0
 10  9  2  0
 10  5  1  0
 11 16  2  0
 12 11  1  0
 12 13  2  0
 13 14  1  0
 14 15  2  0
 15  1  1  0
 16 15  1  0
 17 13  1  0
 17 19  1  0
 18 17  2  0
  2 20  1  0
  3 21  1  0
  4 22  1  0
  6 23  1  0
  7 24  1  0
  8 25  1  0
  9 26  1  0
 11 27  1  0
 12 28  1  0
 19 29  1  0
M  ISO  8  20  14  21  14  22  14  23  14  24  14  25  14  26  14  27  14
M  ISO  2  28  14  29   3
M  END
>  <minimizedAffinity>  (1) 
-5.95900583

>  <minimizedRMSD>  (1) 
1.82267952

$$$$
