
     RDKit          3D

 32 35  0  0  0  0  0  0  0  0999 V2000
   46.5910   32.1360   45.5230 C   0  0  0  0  0  0  0  0  0  0  0  0
   47.4230   31.2340   44.8830 C   0  0  0  0  0  0  0  0  0  0  0  0
   47.8790   30.0760   45.4700 C   0  0  0  0  0  0  0  0  0  0  0  0
   47.5240   29.7570   46.7430 C   0  0  0  0  0  0  0  0  0  0  0  0
   46.7100   30.6160   47.4060 C   0  0  0  0  0  0  0  0  0  0  0  0
   46.3470   30.2860   48.7120 C   0  0  0  0  0  0  0  0  0  0  0  0
   45.5290   31.1070   49.4380 C   0  0  0  0  0  0  0  0  0  0  0  0
   45.0690   32.2730   48.8470 C   0  0  0  0  0  0  0  0  0  0  0  0
   45.4620   32.5390   47.5620 C   0  0  0  0  0  0  0  0  0  0  0  0
   46.2750   31.7590   46.7890 C   0  0  0  0  0  0  0  0  0  0  0  0
   44.8940   35.2840   44.4310 C   0  0  0  0  0  0  0  0  0  0  0  0
   45.6040   35.5560   43.2450 C   0  0  0  0  0  0  0  0  0  0  0  0
   46.6120   34.6470   42.9030 C   0  0  0  0  0  0  0  0  0  0  0  0
   46.8010   33.6060   43.7400 N   0  0  0  0  0  0  0  0  0  0  0  0
   46.1210   33.3430   44.8770 C   0  0  0  0  0  0  0  0  0  0  0  0
   45.1960   34.2260   45.1400 N   0  0  0  0  0  0  0  0  0  0  0  0
   47.3830   34.8390   41.7210 N   0  0  0  0  0  0  0  0  0  0  0  0
   47.1800   34.2640   40.5290 C   0  0  0  0  0  0  0  0  0  0  0  0
   48.1180   34.6970   39.6640 N   0  0  0  0  0  0  0  0  0  0  0  0
   48.9120   35.5460   40.3210 C   0  0  0  0  0  0  0  0  0  0  0  0
   48.4420   35.6170   41.5790 N   0  0  0  0  0  0  0  0  0  0  0  0
   47.7359   31.4542   43.8517 H   0  0  0  0  0  0  0  0  0  0  0  0
   48.5376   29.4014   44.9034 H   0  0  0  0  0  0  0  0  0  0  0  0
   47.8847   28.8334   47.2193 H   0  0  0  0  0  0  0  0  0  0  0  0
   46.7227   29.3555   49.1626 H   0  0  0  0  0  0  0  0  0  0  0  0
   45.2426   30.8477   50.4679 H   0  0  0  0  0  0  0  0  0  0  0  0
   44.4089   32.9633   49.3927 H   0  0  0  0  0  0  0  0  0  0  0  0
   45.0875   33.4690   47.1094 H   0  0  0  0  0  0  0  0  0  0  0  0
   44.0892   35.9579   44.7598 H   0  0  0  0  0  0  0  0  0  0  0  0
   45.3787   36.4342   42.6221 H   0  0  0  0  0  0  0  0  0  0  0  0
   46.3756   33.5516   40.2934 H   0  0  0  0  0  0  0  0  0  0  0  0
   49.7811   36.0827   39.9128 H   0  0  0  0  0  0  0  0  0  0  0  0
  1 10  2  0
  2  3  2  0
  2  1  1  0
  3  4  1  0
  4  5  2  0
  5  6  1  0
  6  7  2  0
  8  7  1  0
  9  8  2  0
 10  5  1  0
 10  9  1  0
 11 16  2  0
 12 11  1  0
 13 12  2  0
 13 14  1  0
 14 15  2  0
 15 16  1  0
 15  1  1  0
 17 13  1  0
 18 17  1  0
 19 20  1  0
 19 18  2  0
 20 21  2  0
 21 17  1  0
  2 22  1  0
  3 23  1  0
  4 24  1  0
  6 25  1  0
  7 26  1  0
  8 27  1  0
  9 28  1  0
 11 29  1  0
 12 30  1  0
 18 31  1  0
 20 32  1  0
M  ISO  8  22  14  23  14  24  14  25  14  26  14  27  14  28  14  29  14
M  ISO  3  30  14  31  14  32  14
M  END
>  <minimizedAffinity>  (1) 
-5.78569126

>  <minimizedRMSD>  (1) 
0.918136001

$$$$
