
     RDKit          3D

 33 36  0  0  0  0  0  0  0  0999 V2000
   45.8040   31.1490   45.3460 C   0  0  0  0  0  0  0  0  0  0  0  0
   45.4980   29.9140   44.7970 C   0  0  0  0  0  0  0  0  0  0  0  0
   45.0850   28.8320   45.5420 C   0  0  0  0  0  0  0  0  0  0  0  0
   44.9520   28.9230   46.8930 C   0  0  0  0  0  0  0  0  0  0  0  0
   45.2420   30.1200   47.4690 C   0  0  0  0  0  0  0  0  0  0  0  0
   45.1040   30.2120   48.8510 C   0  0  0  0  0  0  0  0  0  0  0  0
   45.3780   31.3800   49.5070 C   0  0  0  0  0  0  0  0  0  0  0  0
   45.7980   32.4770   48.7490 C   0  0  0  0  0  0  0  0  0  0  0  0
   45.9100   32.3130   47.3970 C   0  0  0  0  0  0  0  0  0  0  0  0
   45.6490   31.1690   46.6960 C   0  0  0  0  0  0  0  0  0  0  0  0
   47.5810   33.8990   43.5580 C   0  0  0  0  0  0  0  0  0  0  0  0
   46.5150   34.4390   42.8120 C   0  0  0  0  0  0  0  0  0  0  0  0
   45.2660   33.8280   42.9670 C   0  0  0  0  0  0  0  0  0  0  0  0
   45.2160   32.7900   43.8140 N   0  0  0  0  0  0  0  0  0  0  0  0
   46.2280   32.2620   44.5360 C   0  0  0  0  0  0  0  0  0  0  0  0
   47.3640   32.8750   44.3480 N   0  0  0  0  0  0  0  0  0  0  0  0
   44.1380   34.3120   42.2490 N   0  0  0  0  0  0  0  0  0  0  0  0
   43.6300   35.5030   42.0410 N   0  0  0  0  0  0  0  0  0  0  0  0
   42.5190   35.4020   41.2650 C   0  0  0  0  0  0  0  0  0  0  0  0
   42.3340   34.0460   40.9800 C   0  0  0  0  0  0  0  0  0  0  0  0
   43.3730   33.3770   41.6140 C   0  0  0  0  0  0  0  0  0  0  0  0
   45.5899   29.7914   43.7077 H   0  0  0  0  0  0  0  0  0  0  0  0
   44.8595   27.8808   45.0378 H   0  0  0  0  0  0  0  0  0  0  0  0
   44.6232   28.0630   47.4949 H   0  0  0  0  0  0  0  0  0  0  0  0
   44.7702   29.3336   49.4229 H   0  0  0  0  0  0  0  0  0  0  0  0
   45.2711   31.4543   50.5993 H   0  0  0  0  0  0  0  0  0  0  0  0
   46.0307   33.4408   49.2254 H   0  0  0  0  0  0  0  0  0  0  0  0
   46.2424   33.1863   46.8166 H   0  0  0  0  0  0  0  0  0  0  0  0
   48.5885   34.3333   43.4784 H   0  0  0  0  0  0  0  0  0  0  0  0
   46.6576   35.2987   42.1407 H   0  0  0  0  0  0  0  0  0  0  0  0
   41.8835   36.2327   40.9245 H   0  0  0  0  0  0  0  0  0  0  0  0
   41.5296   33.5999   40.3767 H   0  0  0  0  0  0  0  0  0  0  0  0
   43.5476   32.2910   41.6058 H   0  0  0  0  0  0  0  0  0  0  0  0
  1 10  1  0
  2  1  2  0
  2  3  1  0
  3  4  2  0
  4  5  1  0
  5  6  2  0
  6  7  1  0
  8  7  2  0
  9  8  1  0
 10  9  2  0
 10  5  1  0
 11 16  2  0
 12 13  2  0
 12 11  1  0
 13 14  1  0
 14 15  2  0
 15  1  1  0
 16 15  1  0
 17 13  1  0
 18 17  1  0
 19 18  2  0
 20 19  1  0
 20 21  2  0
 21 17  1  0
  2 22  1  0
  3 23  1  0
  4 24  1  0
  6 25  1  0
  7 26  1  0
  8 27  1  0
  9 28  1  0
 11 29  1  0
 12 30  1  0
 19 31  1  0
 20 32  1  0
 21 33  1  0
M  ISO  8  22  14  23  14  24  14  25  14  26  14  27  14  28  14  29  14
M  ISO  4  30  14  31  14  32  14  33  14
M  END
>  <minimizedAffinity>  (1) 
-5.69097519

>  <minimizedRMSD>  (1) 
2.85250473

$$$$
