
     RDKit          3D

 28 30  0  0  0  0  0  0  0  0999 V2000
   46.4580   32.4150   45.4650 C   0  0  0  0  0  0  0  0  0  0  0  0
   47.2730   31.6130   44.6860 C   0  0  0  0  0  0  0  0  0  0  0  0
   47.8160   30.4300   45.1150 C   0  0  0  0  0  0  0  0  0  0  0  0
   47.5710   29.9680   46.3770 C   0  0  0  0  0  0  0  0  0  0  0  0
   46.7730   30.7280   47.1770 C   0  0  0  0  0  0  0  0  0  0  0  0
   46.5260   30.2540   48.4620 C   0  0  0  0  0  0  0  0  0  0  0  0
   45.7360   30.9590   49.3270 C   0  0  0  0  0  0  0  0  0  0  0  0
   45.1910   32.1560   48.8870 C   0  0  0  0  0  0  0  0  0  0  0  0
   45.4730   32.5650   47.6080 C   0  0  0  0  0  0  0  0  0  0  0  0
   46.2530   31.9040   46.7050 C   0  0  0  0  0  0  0  0  0  0  0  0
   44.6360   35.6190   44.8620 C   0  0  0  0  0  0  0  0  0  0  0  0
   45.1100   35.9410   43.5770 C   0  0  0  0  0  0  0  0  0  0  0  0
   46.0190   35.0440   43.0070 C   0  0  0  0  0  0  0  0  0  0  0  0
   46.3460   33.9690   43.7430 N   0  0  0  0  0  0  0  0  0  0  0  0
   45.8980   33.6490   44.9760 C   0  0  0  0  0  0  0  0  0  0  0  0
   45.0560   34.5260   45.4460 N   0  0  0  0  0  0  0  0  0  0  0  0
   46.5290   35.3120   41.7220 N   0  0  0  0  0  0  0  0  0  0  0  0
   47.4985   31.9445   43.6617 H   0  0  0  0  0  0  0  0  0  0  0  0
   48.4555   29.8467   44.4363 H   0  0  0  0  0  0  0  0  0  0  0  0
   48.0011   29.0201   46.7327 H   0  0  0  0  0  0  0  0  0  0  0  0
   46.9713   29.3016   48.7853 H   0  0  0  0  0  0  0  0  0  0  0  0
   45.5383   30.5873   50.3432 H   0  0  0  0  0  0  0  0  0  0  0  0
   44.5502   32.7609   49.5454 H   0  0  0  0  0  0  0  0  0  0  0  0
   45.0280   33.5159   47.2798 H   0  0  0  0  0  0  0  0  0  0  0  0
   43.9190   36.2800   45.3710 H   0  0  0  0  0  0  0  0  0  0  0  0
   44.7833   36.8492   43.0493 H   0  0  0  0  0  0  0  0  0  0  0  0
   47.1993   34.6615   41.2880 H   0  0  0  0  0  0  0  0  0  0  0  0
   46.2317   36.1585   41.2162 H   0  0  0  0  0  0  0  0  0  0  0  0
  1 10  2  0
  2  3  2  0
  2  1  1  0
  3  4  1  0
  4  5  2  0
  5  6  1  0
  6  7  2  0
  8  7  1  0
  9  8  2  0
 10  5  1  0
 10  9  1  0
 11 16  2  0
 12 11  1  0
 13 12  2  0
 13 14  1  0
 14 15  2  0
 15 16  1  0
 15  1  1  0
 17 13  1  0
  2 18  1  0
  3 19  1  0
  4 20  1  0
  6 21  1  0
  7 22  1  0
  8 23  1  0
  9 24  1  0
 11 25  1  0
 12 26  1  0
 17 27  1  0
 17 28  1  0
M  ISO  8  18  14  19  14  20  14  21  14  22  14  23  14  24  14  25  14
M  ISO  1  26  14
M  END
>  <minimizedAffinity>  (1) 
-5.25073528

>  <minimizedRMSD>  (1) 
0.35165292

$$$$
