
     RDKit          3D

 27 29  0  0  0  0  0  0  0  0999 V2000
   46.8540   32.0570   45.1580 C   0  0  0  0  0  0  0  0  0  0  0  0
   47.6520   31.0880   44.5770 C   0  0  0  0  0  0  0  0  0  0  0  0
   48.1160   29.9810   45.2540 C   0  0  0  0  0  0  0  0  0  0  0  0
   47.7990   29.7790   46.5750 C   0  0  0  0  0  0  0  0  0  0  0  0
   47.0190   30.7130   47.1680 C   0  0  0  0  0  0  0  0  0  0  0  0
   46.6960   30.5100   48.5090 C   0  0  0  0  0  0  0  0  0  0  0  0
   45.9060   31.4160   49.1830 C   0  0  0  0  0  0  0  0  0  0  0  0
   45.4420   32.5290   48.4990 C   0  0  0  0  0  0  0  0  0  0  0  0
   45.8020   32.6640   47.1760 C   0  0  0  0  0  0  0  0  0  0  0  0
   46.5790   31.7990   46.4600 C   0  0  0  0  0  0  0  0  0  0  0  0
   44.9750   34.8960   43.6140 C   0  0  0  0  0  0  0  0  0  0  0  0
   45.9540   35.3920   42.7320 C   0  0  0  0  0  0  0  0  0  0  0  0
   47.1870   34.7300   42.7210 C   0  0  0  0  0  0  0  0  0  0  0  0
   47.3150   33.6790   43.5610 N   0  0  0  0  0  0  0  0  0  0  0  0
   46.3860   33.1950   44.4090 C   0  0  0  0  0  0  0  0  0  0  0  0
   45.2670   33.8630   44.3610 N   0  0  0  0  0  0  0  0  0  0  0  0
   48.4950   35.2820   41.6370 S   0  0  0  0  0  0  0  0  0  0  0  0
   47.9307   31.2072   43.5196 H   0  0  0  0  0  0  0  0  0  0  0  0
   48.7485   29.2496   44.7296 H   0  0  0  0  0  0  0  0  0  0  0  0
   48.1622   28.8988   47.1257 H   0  0  0  0  0  0  0  0  0  0  0  0
   47.0746   29.6200   49.0330 H   0  0  0  0  0  0  0  0  0  0  0  0
   45.6491   31.2594   50.2411 H   0  0  0  0  0  0  0  0  0  0  0  0
   44.8082   33.2785   48.9955 H   0  0  0  0  0  0  0  0  0  0  0  0
   45.4281   33.5527   46.6464 H   0  0  0  0  0  0  0  0  0  0  0  0
   43.9834   35.3684   43.6736 H   0  0  0  0  0  0  0  0  0  0  0  0
   45.7591   36.2583   42.0827 H   0  0  0  0  0  0  0  0  0  0  0  0
   49.5516   35.7279   42.3865 H   0  0  0  0  0  0  0  0  0  0  0  0
  1 10  1  0
  2  1  2  0
  2  3  1  0
  3  4  2  0
  4  5  1  0
  5  6  1  0
  6  7  2  0
  8  7  1  0
  9  8  2  0
 10  5  2  0
 10  9  1  0
 11 16  2  0
 12 11  1  0
 13 12  2  0
 13 14  1  0
 14 15  2  0
 15  1  1  0
 16 15  1  0
 17 13  1  0
  2 18  1  0
  3 19  1  0
  4 20  1  0
  6 21  1  0
  7 22  1  0
  8 23  1  0
  9 24  1  0
 11 25  1  0
 12 26  1  0
 17 27  1  0
M  ISO  8  18  14  19  14  20  14  21  14  22  14  23  14  24  14  25  14
M  ISO  2  26  14  27  11
M  END
>  <minimizedAffinity>  (1) 
-5.0976305

>  <minimizedRMSD>  (1) 
0.973458886

$$$$
