
     RDKit          3D

 39 42  0  0  0  0  0  0  0  0999 V2000
   47.0420   31.5500   47.2910 C   0  0  0  0  0  0  0  0  0  0  0  0
   46.1840   31.7990   48.3460 C   0  0  0  0  0  0  0  0  0  0  0  0
   45.1770   32.7270   48.3160 C   0  0  0  0  0  0  0  0  0  0  0  0
   44.9620   33.4790   47.2040 C   0  0  0  0  0  0  0  0  0  0  0  0
   45.7740   33.2720   46.1460 C   0  0  0  0  0  0  0  0  0  0  0  0
   45.5560   34.0390   45.0080 C   0  0  0  0  0  0  0  0  0  0  0  0
   46.3380   33.8850   43.8990 C   0  0  0  0  0  0  0  0  0  0  0  0
   47.3560   32.9520   43.9200 C   0  0  0  0  0  0  0  0  0  0  0  0
   47.5210   32.2280   45.0720 C   0  0  0  0  0  0  0  0  0  0  0  0
   46.7720   32.3360   46.2100 C   0  0  0  0  0  0  0  0  0  0  0  0
   49.5070   28.8020   46.7710 C   0  0  0  0  0  0  0  0  0  0  0  0
   50.2060   28.8540   47.9940 C   0  0  0  0  0  0  0  0  0  0  0  0
   49.7870   29.8260   48.9080 C   0  0  0  0  0  0  0  0  0  0  0  0
   48.7600   30.6050   48.5210 N   0  0  0  0  0  0  0  0  0  0  0  0
   48.0880   30.5590   47.3510 C   0  0  0  0  0  0  0  0  0  0  0  0
   48.5240   29.6350   46.5410 N   0  0  0  0  0  0  0  0  0  0  0  0
   50.4380   29.9490   50.1680 N   0  0  0  0  0  0  0  0  0  0  0  0
   50.5500   28.7020   50.9270 C   0  0  0  0  0  0  0  0  0  0  0  0
   51.0600   29.0310   52.2920 C   0  0  0  0  0  0  0  0  0  0  0  0
   51.9350   30.1120   52.3240 O   0  0  0  0  0  0  0  0  0  0  0  0
   51.2930   31.3020   51.9790 C   0  0  0  0  0  0  0  0  0  0  0  0
   50.9020   31.2930   50.5260 C   0  0  0  0  0  0  0  0  0  0  0  0
   46.3186   31.2147   49.2682 H   0  0  0  0  0  0  0  0  0  0  0  0
   44.5365   32.8650   49.1996 H   0  0  0  0  0  0  0  0  0  0  0  0
   44.1569   34.2277   47.1679 H   0  0  0  0  0  0  0  0  0  0  0  0
   44.7430   34.7799   45.0003 H   0  0  0  0  0  0  0  0  0  0  0  0
   46.1595   34.4956   43.0016 H   0  0  0  0  0  0  0  0  0  0  0  0
   48.0078   32.7963   43.0477 H   0  0  0  0  0  0  0  0  0  0  0  0
   48.3352   31.4884   45.0815 H   0  0  0  0  0  0  0  0  0  0  0  0
   49.7881   28.0603   46.0089 H   0  0  0  0  0  0  0  0  0  0  0  0
   51.0359   28.1674   48.2173 H   0  0  0  0  0  0  0  0  0  0  0  0
   49.5629   28.2228   51.0037 H   0  0  0  0  0  0  0  0  0  0  0  0
   51.2385   28.0094   50.4207 H   0  0  0  0  0  0  0  0  0  0  0  0
   50.1991   29.2637   52.9360 H   0  0  0  0  0  0  0  0  0  0  0  0
   51.6251   28.1539   52.6404 H   0  0  0  0  0  0  0  0  0  0  0  0
   50.3893   31.4167   52.5955 H   0  0  0  0  0  0  0  0  0  0  0  0
   51.9833   32.1402   52.1545 H   0  0  0  0  0  0  0  0  0  0  0  0
   51.7717   31.5604   49.9078 H   0  0  0  0  0  0  0  0  0  0  0  0
   50.0986   32.0238   50.3514 H   0  0  0  0  0  0  0  0  0  0  0  0
  1 15  1  0
  1  2  2  0
  3  2  1  0
  4  3  2  0
  5 10  2  0
  5  4  1  0
  6  5  1  0
  7  8  1  0
  7  6  2  0
  8  9  2  0
  9 10  1  0
 10  1  1  0
 11 12  2  0
 12 13  1  0
 13 17  1  0
 14 13  2  0
 15 14  1  0
 16 11  1  0
 16 15  2  0
 17 22  1  0
 17 18  1  0
 18 19  1  0
 19 20  1  0
 21 20  1  0
 22 21  1  0
  2 23  1  0
  3 24  1  0
  4 25  1  0
  6 26  1  0
  7 27  1  0
  8 28  1  0
  9 29  1  0
 11 30  1  0
 12 31  1  0
 18 32  1  0
 18 33  1  0
 19 34  1  0
 19 35  1  0
 21 36  1  0
 21 37  1  0
 22 38  1  0
 22 39  1  0
M  ISO  8  23  14  24  14  25  14  26  14  27  14  28  14  29  14  30  14
M  ISO  8  31  14  32  13  33  13  34  13  35  13  36  13  37  13  38  13
M  ISO  1  39  13
M  END
>  <minimizedAffinity>  (1) 
-4.94658756

>  <minimizedRMSD>  (1) 
8.42674065

$$$$
