
     RDKit          3D

 43 48  0  0  0  0  0  0  0  0999 V2000
   44.6050   35.7150   44.7290 C   0  0  0  0  0  0  0  0  0  0  0  0
   44.1450   35.5500   43.4080 C   0  0  0  0  0  0  0  0  0  0  0  0
   44.4530   34.3650   42.7940 C   0  0  0  0  0  0  0  0  0  0  0  0
   45.1670   33.4770   43.5190 N   0  0  0  0  0  0  0  0  0  0  0  0
   45.6180   33.6120   44.7790 C   0  0  0  0  0  0  0  0  0  0  0  0
   45.2810   34.7500   45.2730 N   0  0  0  0  0  0  0  0  0  0  0  0
   46.3360   32.4620   45.2380 C   0  0  0  0  0  0  0  0  0  0  0  0
   47.1530   31.7180   44.3950 C   0  0  0  0  0  0  0  0  0  0  0  0
   47.8470   30.6040   44.8000 C   0  0  0  0  0  0  0  0  0  0  0  0
   47.7640   30.1610   46.0930 C   0  0  0  0  0  0  0  0  0  0  0  0
   46.9790   30.8610   46.9420 C   0  0  0  0  0  0  0  0  0  0  0  0
   46.8970   30.4100   48.2550 C   0  0  0  0  0  0  0  0  0  0  0  0
   46.1200   31.0680   49.1820 C   0  0  0  0  0  0  0  0  0  0  0  0
   45.4230   32.1930   48.7620 C   0  0  0  0  0  0  0  0  0  0  0  0
   45.5500   32.5800   47.4550 C   0  0  0  0  0  0  0  0  0  0  0  0
   46.3020   31.9630   46.5080 C   0  0  0  0  0  0  0  0  0  0  0  0
   44.0170   34.0950   41.4330 C   0  0  0  0  0  0  0  0  0  0  0  0
   45.0000   33.7340   40.4280 C   0  0  0  0  0  0  0  0  0  0  0  0
   43.9330   33.4920   38.8820 S   0  0  0  0  0  0  0  0  0  0  0  0
   42.4130   33.9250   39.9070 C   0  0  0  0  0  0  0  0  0  0  0  0
   42.7910   34.1250   40.9330 N   0  0  0  0  0  0  0  0  0  0  0  0
   41.0780   33.9520   39.3460 N   0  0  0  0  0  0  0  0  0  0  0  0
   40.2930   35.0230   39.3980 C   0  0  0  0  0  0  0  0  0  0  0  0
   39.1120   34.7330   38.7880 N   0  0  0  0  0  0  0  0  0  0  0  0
   39.1970   33.4590   38.3620 C   0  0  0  0  0  0  0  0  0  0  0  0
   38.3900   32.5620   37.6920 C   0  0  0  0  0  0  0  0  0  0  0  0
   38.7840   31.3150   37.4090 N   0  0  0  0  0  0  0  0  0  0  0  0
   39.9920   30.8580   37.7600 C   0  0  0  0  0  0  0  0  0  0  0  0
   40.8120   31.7010   38.4170 N   0  0  0  0  0  0  0  0  0  0  0  0
   40.4430   32.9520   38.7120 C   0  0  0  0  0  0  0  0  0  0  0  0
   44.3962   36.6400   45.2864 H   0  0  0  0  0  0  0  0  0  0  0  0
   43.5675   36.3333   42.8953 H   0  0  0  0  0  0  0  0  0  0  0  0
   47.2490   32.0385   43.3471 H   0  0  0  0  0  0  0  0  0  0  0  0
   48.4759   30.0622   44.0782 H   0  0  0  0  0  0  0  0  0  0  0  0
   48.3150   29.2698   46.4279 H   0  0  0  0  0  0  0  0  0  0  0  0
   47.4607   29.5151   48.5572 H   0  0  0  0  0  0  0  0  0  0  0  0
   46.0536   30.7139   50.2213 H   0  0  0  0  0  0  0  0  0  0  0  0
   44.7868   32.7573   49.4597 H   0  0  0  0  0  0  0  0  0  0  0  0
   44.9906   33.4743   47.1431 H   0  0  0  0  0  0  0  0  0  0  0  0
   46.0894   33.6278   40.5368 H   0  0  0  0  0  0  0  0  0  0  0  0
   40.5553   35.9867   39.8590 H   0  0  0  0  0  0  0  0  0  0  0  0
   37.3858   32.8841   37.3791 H   0  0  0  0  0  0  0  0  0  0  0  0
   40.3041   29.8307   37.5206 H   0  0  0  0  0  0  0  0  0  0  0  0
  1  6  2  0
  2  1  1  0
  3  2  2  0
  3  4  1  0
  4  5  2  0
  5  7  1  0
  5  6  1  0
  7 16  2  0
  8  9  2  0
  8  7  1  0
  9 10  1  0
 10 11  2  0
 11 12  1  0
 12 13  2  0
 14 13  1  0
 15 14  2  0
 16 11  1  0
 16 15  1  0
 17  3  1  0
 18 17  2  0
 19 20  1  0
 19 18  1  0
 20 21  2  0
 21 17  1  0
 22 23  1  0
 22 20  1  0
 24 23  2  0
 25 30  2  0
 25 24  1  0
 26 25  1  0
 27 26  2  0
 27 28  1  0
 28 29  2  0
 29 30  1  0
 30 22  1  0
  1 31  1  0
  2 32  1  0
  8 33  1  0
  9 34  1  0
 10 35  1  0
 12 36  1  0
 13 37  1  0
 14 38  1  0
 15 39  1  0
 18 40  1  0
 23 41  1  0
 26 42  1  0
 28 43  1  0
M  ISO  8  31  14  32  14  33  14  34  14  35  14  36  14  37  14  38  14
M  ISO  5  39  14  40  14  41  14  42  14  43  14
M  END
>  <minimizedAffinity>  (1) 
-7.58362246

>  <minimizedRMSD>  (1) 
1.93012571

$$$$
