
     RDKit          3D

 46 50  0  0  0  0  0  0  0  0999 V2000
   44.7940   35.8390   44.6540 C   0  0  0  0  0  0  0  0  0  0  0  0
   44.1110   35.6160   43.4380 C   0  0  0  0  0  0  0  0  0  0  0  0
   44.2320   34.3630   42.8960 C   0  0  0  0  0  0  0  0  0  0  0  0
   44.9910   33.4740   43.5790 N   0  0  0  0  0  0  0  0  0  0  0  0
   45.6500   33.6630   44.7390 C   0  0  0  0  0  0  0  0  0  0  0  0
   45.4800   34.8670   45.1740 N   0  0  0  0  0  0  0  0  0  0  0  0
   46.3520   32.4980   45.1820 C   0  0  0  0  0  0  0  0  0  0  0  0
   47.1490   31.7490   44.3190 C   0  0  0  0  0  0  0  0  0  0  0  0
   47.8290   30.6180   44.7090 C   0  0  0  0  0  0  0  0  0  0  0  0
   47.7530   30.1610   46.0050 C   0  0  0  0  0  0  0  0  0  0  0  0
   46.9840   30.8710   46.8660 C   0  0  0  0  0  0  0  0  0  0  0  0
   46.9100   30.4070   48.1740 C   0  0  0  0  0  0  0  0  0  0  0  0
   46.1510   31.0770   49.1060 C   0  0  0  0  0  0  0  0  0  0  0  0
   45.4680   32.2180   48.7060 C   0  0  0  0  0  0  0  0  0  0  0  0
   45.5950   32.6060   47.4010 C   0  0  0  0  0  0  0  0  0  0  0  0
   46.3260   31.9910   46.4320 C   0  0  0  0  0  0  0  0  0  0  0  0
   43.5620   34.0190   41.6400 C   0  0  0  0  0  0  0  0  0  0  0  0
   44.3360   34.0310   40.4090 C   0  0  0  0  0  0  0  0  0  0  0  0
   43.0260   33.5320   39.1380 S   0  0  0  0  0  0  0  0  0  0  0  0
   41.7450   33.4180   40.5140 C   0  0  0  0  0  0  0  0  0  0  0  0
   42.2940   33.6860   41.4590 N   0  0  0  0  0  0  0  0  0  0  0  0
   40.5200   33.0220   39.8580 N   0  0  0  0  0  0  0  0  0  0  0  0
   39.9290   31.7050   39.7240 C   0  0  0  0  0  0  0  0  0  0  0  0
   38.7140   31.6840   40.6240 C   0  0  0  0  0  0  0  0  0  0  0  0
   38.0910   32.9690   40.7510 N   0  0  0  0  0  0  0  0  0  0  0  0
   38.2580   33.8560   39.6370 C   0  0  0  0  0  0  0  0  0  0  0  0
   39.7010   34.0680   39.2260 C   0  0  0  0  0  0  0  0  0  0  0  0
   44.7456   36.8188   45.1517 H   0  0  0  0  0  0  0  0  0  0  0  0
   43.5155   36.4036   42.9533 H   0  0  0  0  0  0  0  0  0  0  0  0
   47.2392   32.0782   43.2733 H   0  0  0  0  0  0  0  0  0  0  0  0
   48.4410   30.0723   43.9757 H   0  0  0  0  0  0  0  0  0  0  0  0
   48.2929   29.2587   46.3280 H   0  0  0  0  0  0  0  0  0  0  0  0
   47.4605   29.5003   48.4655 H   0  0  0  0  0  0  0  0  0  0  0  0
   46.0868   30.7172   50.1435 H   0  0  0  0  0  0  0  0  0  0  0  0
   44.8477   32.7886   49.4129 H   0  0  0  0  0  0  0  0  0  0  0  0
   45.0477   33.5123   47.1026 H   0  0  0  0  0  0  0  0  0  0  0  0
   45.3996   34.2672   40.2571 H   0  0  0  0  0  0  0  0  0  0  0  0
   39.6314   31.5268   38.6801 H   0  0  0  0  0  0  0  0  0  0  0  0
   40.6447   30.9182   40.0047 H   0  0  0  0  0  0  0  0  0  0  0  0
   37.9806   30.9781   40.2070 H   0  0  0  0  0  0  0  0  0  0  0  0
   39.0509   31.3802   41.6261 H   0  0  0  0  0  0  0  0  0  0  0  0
   37.0811   32.8186   40.8866 H   0  0  0  0  0  0  0  0  0  0  0  0
   37.7119   33.4386   38.7782 H   0  0  0  0  0  0  0  0  0  0  0  0
   37.8703   34.8363   39.9511 H   0  0  0  0  0  0  0  0  0  0  0  0
   39.7899   33.9995   38.1317 H   0  0  0  0  0  0  0  0  0  0  0  0
   40.0439   35.0629   39.5463 H   0  0  0  0  0  0  0  0  0  0  0  0
  1  6  2  0
  2  1  1  0
  3  2  2  0
  3  4  1  0
  4  5  2  0
  5  6  1  0
  5  7  1  0
  7 16  2  0
  8  9  2  0
  8  7  1  0
  9 10  1  0
 10 11  2  0
 11 12  1  0
 12 13  2  0
 14 13  1  0
 15 14  2  0
 16 11  1  0
 16 15  1  0
 17  3  1  0
 18 17  2  0
 19 18  1  0
 19 20  1  0
 20 21  2  0
 21 17  1  0
 22 20  1  0
 23 22  1  0
 23 24  1  0
 24 25  1  0
 26 25  1  0
 27 26  1  0
 27 22  1  0
  1 28  1  0
  2 29  1  0
  8 30  1  0
  9 31  1  0
 10 32  1  0
 12 33  1  0
 13 34  1  0
 14 35  1  0
 15 36  1  0
 18 37  1  0
 23 38  1  0
 23 39  1  0
 24 40  1  0
 24 41  1  0
 25 42  1  0
 26 43  1  0
 26 44  1  0
 27 45  1  0
 27 46  1  0
M  ISO  8  28  14  29  14  30  14  31  14  32  14  33  14  34  14  35  14
M  ISO  8  36  14  37  14  38  13  39  13  40  13  41  13  42   5  43  13
M  ISO  3  44  13  45  13  46  13
M  END
>  <minimizedAffinity>  (1) 
-7.33727264

>  <minimizedRMSD>  (1) 
2.31384182

$$$$
