
     RDKit          3D

 27 29  0  0  1  0  0  0  0  0999 V2000
   46.0490   33.1610   41.0880 C   0  0  1  0  0  0  0  0  0  0  0  0
   46.8100   34.4610   41.1210 C   0  0  0  0  0  0  0  0  0  0  0  0
   46.8180   33.5990   42.2890 C   0  0  1  0  0  0  0  0  0  0  0  0
   46.1540   33.9690   43.5690 C   0  0  0  0  0  0  0  0  0  0  0  0
   46.0580   33.1780   44.7070 C   0  0  0  0  0  0  0  0  0  0  0  0
   45.4310   33.6630   45.8340 C   0  0  0  0  0  0  0  0  0  0  0  0
   44.9010   34.8730   45.8950 N   0  0  0  0  0  0  0  0  0  0  0  0
   44.9960   35.6350   44.7940 C   0  0  0  0  0  0  0  0  0  0  0  0
   45.5990   35.1890   43.6870 N   0  0  0  0  0  0  0  0  0  0  0  0
   44.4250   36.9460   44.8550 N   0  0  0  0  0  0  0  0  0  0  0  0
   42.5930   34.3750   40.3600 C   0  0  0  0  0  0  0  0  0  0  0  0
   44.0210   34.3250   40.4060 C   0  0  0  0  0  0  0  0  0  0  0  0
   44.5880   33.2230   41.0350 C   0  0  0  0  0  0  0  0  0  0  0  0
   43.7740   32.2630   41.5670 N   0  0  0  0  0  0  0  0  0  0  0  0
   42.4430   32.3340   41.5100 C   0  0  0  0  0  0  0  0  0  0  0  0
   41.8380   33.3860   40.9090 N   0  0  0  0  0  0  0  0  0  0  0  0
   46.0321   32.2429   40.4824 H   0  0  0  0  0  0  0  0  0  0  0  0
   47.7232   34.5774   40.5189 H   0  0  0  0  0  0  0  0  0  0  0  0
   46.5521   35.5145   40.9374 H   0  0  0  0  0  0  0  0  0  0  0  0
   47.6112   33.1489   42.9040 H   0  0  0  0  0  0  0  0  0  0  0  0
   46.4830   32.1634   44.7083 H   0  0  0  0  0  0  0  0  0  0  0  0
   45.3686   33.0158   46.7212 H   0  0  0  0  0  0  0  0  0  0  0  0
   44.4732   37.5674   44.0350 H   0  0  0  0  0  0  0  0  0  0  0  0
   43.9658   37.2681   45.7189 H   0  0  0  0  0  0  0  0  0  0  0  0
   42.0969   35.2272   39.8726 H   0  0  0  0  0  0  0  0  0  0  0  0
   44.6406   35.1198   39.9651 H   0  0  0  0  0  0  0  0  0  0  0  0
   41.8333   31.5332   41.9539 H   0  0  0  0  0  0  0  0  0  0  0  0
  1  2  1  0
  1  3  1  0
  2  3  1  0
  3  4  1  0
  4  9  1  0
  4  5  2  0
  5  6  1  0
  6  7  2  0
  8 10  1  0
  8  7  1  0
  9  8  2  0
 11 12  2  0
 11 16  1  0
 12 13  1  0
 13  1  1  0
 13 14  2  0
 15 14  1  0
 16 15  2  0
  1 17  1  6
  2 18  1  0
  2 19  1  0
  3 20  1  1
  5 21  1  0
  6 22  1  0
 10 23  1  0
 10 24  1  0
 11 25  1  0
 12 26  1  0
 15 27  1  0
M  ISO  8  17  13  18  13  19  13  20  13  21  14  22  14  25  14  26  14
M  ISO  1  27  14
M  END
>  <minimizedAffinity>  (1) 
-3.90766501

>  <minimizedRMSD>  (1) 
0.421981752

$$$$
