
     RDKit          3D

 44 47  0  0  0  0  0  0  0  0999 V2000
   44.5720   35.8610   44.7360 C   0  0  0  0  0  0  0  0  0  0  0  0
   44.0640   35.7160   43.4320 C   0  0  0  0  0  0  0  0  0  0  0  0
   44.3260   34.5270   42.7930 C   0  0  0  0  0  0  0  0  0  0  0  0
   45.0400   33.6410   43.5030 N   0  0  0  0  0  0  0  0  0  0  0  0
   45.5430   33.7290   44.7370 C   0  0  0  0  0  0  0  0  0  0  0  0
   45.2440   34.8750   45.2420 N   0  0  0  0  0  0  0  0  0  0  0  0
   46.2580   32.5580   45.1520 C   0  0  0  0  0  0  0  0  0  0  0  0
   47.0330   31.8260   44.2780 C   0  0  0  0  0  0  0  0  0  0  0  0
   47.7320   30.6950   44.6410 C   0  0  0  0  0  0  0  0  0  0  0  0
   47.6910   30.2270   45.9290 C   0  0  0  0  0  0  0  0  0  0  0  0
   46.9400   30.9260   46.8070 C   0  0  0  0  0  0  0  0  0  0  0  0
   46.8970   30.4530   48.1130 C   0  0  0  0  0  0  0  0  0  0  0  0
   46.1530   31.1100   49.0660 C   0  0  0  0  0  0  0  0  0  0  0  0
   45.4520   32.2490   48.6930 C   0  0  0  0  0  0  0  0  0  0  0  0
   45.5450   32.6490   47.3860 C   0  0  0  0  0  0  0  0  0  0  0  0
   46.2590   32.0470   46.4010 C   0  0  0  0  0  0  0  0  0  0  0  0
   43.8390   34.3040   41.4480 C   0  0  0  0  0  0  0  0  0  0  0  0
   44.6090   33.4920   40.5580 C   0  0  0  0  0  0  0  0  0  0  0  0
   43.6050   33.4940   38.9710 S   0  0  0  0  0  0  0  0  0  0  0  0
   42.3180   34.6090   39.8290 C   0  0  0  0  0  0  0  0  0  0  0  0
   42.7540   34.7360   40.8500 N   0  0  0  0  0  0  0  0  0  0  0  0
   41.0900   35.0830   39.1130 C   0  0  0  0  0  0  0  0  0  0  0  0
   40.3500   35.9740   40.1190 C   0  0  0  0  0  0  0  0  0  0  0  0
   41.4650   35.9460   37.9240 C   0  0  0  0  0  0  0  0  0  0  0  0
   40.2200   33.9770   38.6200 C   0  0  0  0  0  0  0  0  0  0  0  0
   44.4037   36.7845   45.3095 H   0  0  0  0  0  0  0  0  0  0  0  0
   43.4849   36.5156   42.9469 H   0  0  0  0  0  0  0  0  0  0  0  0
   47.0971   32.1633   43.2329 H   0  0  0  0  0  0  0  0  0  0  0  0
   48.3302   30.1612   43.8879 H   0  0  0  0  0  0  0  0  0  0  0  0
   48.2433   29.3255   46.2326 H   0  0  0  0  0  0  0  0  0  0  0  0
   47.4606   29.5488   48.3863 H   0  0  0  0  0  0  0  0  0  0  0  0
   46.1144   30.7407   50.1014 H   0  0  0  0  0  0  0  0  0  0  0  0
   44.8449   32.8090   49.4195 H   0  0  0  0  0  0  0  0  0  0  0  0
   44.9826   33.5519   47.1057 H   0  0  0  0  0  0  0  0  0  0  0  0
   45.5649   32.9852   40.7563 H   0  0  0  0  0  0  0  0  0  0  0  0
   40.6076   35.6638   41.1424 H   0  0  0  0  0  0  0  0  0  0  0  0
   40.6468   37.0224   39.9680 H   0  0  0  0  0  0  0  0  0  0  0  0
   39.2650   35.8747   39.9680 H   0  0  0  0  0  0  0  0  0  0  0  0
   41.8798   36.9006   38.2801 H   0  0  0  0  0  0  0  0  0  0  0  0
   42.2174   35.4238   37.3147 H   0  0  0  0  0  0  0  0  0  0  0  0
   40.5699   36.1397   37.3147 H   0  0  0  0  0  0  0  0  0  0  0  0
   39.7941   33.4355   39.4775 H   0  0  0  0  0  0  0  0  0  0  0  0
   39.4061   34.3951   38.0094 H   0  0  0  0  0  0  0  0  0  0  0  0
   40.8180   33.2845   38.0094 H   0  0  0  0  0  0  0  0  0  0  0  0
  1  6  2  0
  2  1  1  0
  3  2  2  0
  3  4  1  0
  4  5  2  0
  5  7  1  0
  5  6  1  0
  7 16  2  0
  8  9  2  0
  8  7  1  0
  9 10  1  0
 10 11  2  0
 11 12  1  0
 12 13  2  0
 14 13  1  0
 15 14  2  0
 16 11  1  0
 16 15  1  0
 17  3  1  0
 18 17  2  0
 19 20  1  0
 19 18  1  0
 20 21  2  0
 21 17  1  0
 22 20  1  0
 22 23  1  0
 24 22  1  0
 25 22  1  0
  1 26  1  0
  2 27  1  0
  8 28  1  0
  9 29  1  0
 10 30  1  0
 12 31  1  0
 13 32  1  0
 14 33  1  0
 15 34  1  0
 18 35  1  0
 23 36  1  0
 23 37  1  0
 23 38  1  0
 24 39  1  0
 24 40  1  0
 24 41  1  0
 25 42  1  0
 25 43  1  0
 25 44  1  0
M  ISO  8  26  14  27  14  28  14  29  14  30  14  31  14  32  14  33  14
M  ISO  8  34  14  35  14  36   8  37   8  38   8  39   8  40   8  41   8
M  ISO  3  42   8  43   8  44   8
M  END
>  <minimizedAffinity>  (1) 
-6.950387

>  <minimizedRMSD>  (1) 
1.0326519

$$$$
