
     RDKit          3D

 39 43  0  0  0  0  0  0  0  0999 V2000
   44.6020   35.6000   44.6180 C   0  0  0  0  0  0  0  0  0  0  0  0
   44.3010   35.4380   43.2610 C   0  0  0  0  0  0  0  0  0  0  0  0
   44.7170   34.2700   42.6760 C   0  0  0  0  0  0  0  0  0  0  0  0
   45.3750   33.3960   43.4690 N   0  0  0  0  0  0  0  0  0  0  0  0
   45.6770   33.5250   44.7740 C   0  0  0  0  0  0  0  0  0  0  0  0
   45.2460   34.6520   45.2300 N   0  0  0  0  0  0  0  0  0  0  0  0
   46.3840   32.3930   45.3010 C   0  0  0  0  0  0  0  0  0  0  0  0
   47.2420   31.6280   44.5150 C   0  0  0  0  0  0  0  0  0  0  0  0
   47.9240   30.5390   44.9930 C   0  0  0  0  0  0  0  0  0  0  0  0
   47.7980   30.1360   46.2930 C   0  0  0  0  0  0  0  0  0  0  0  0
   46.9710   30.8580   47.0820 C   0  0  0  0  0  0  0  0  0  0  0  0
   46.8400   30.4520   48.4010 C   0  0  0  0  0  0  0  0  0  0  0  0
   46.0170   31.1360   49.2680 C   0  0  0  0  0  0  0  0  0  0  0  0
   45.3240   32.2390   48.7900 C   0  0  0  0  0  0  0  0  0  0  0  0
   45.5070   32.5760   47.4780 C   0  0  0  0  0  0  0  0  0  0  0  0
   46.3010   31.9420   46.5790 C   0  0  0  0  0  0  0  0  0  0  0  0
   44.4500   33.9970   41.2690 C   0  0  0  0  0  0  0  0  0  0  0  0
   45.3620   33.1630   40.5100 C   0  0  0  0  0  0  0  0  0  0  0  0
   44.5580   33.1340   38.8010 S   0  0  0  0  0  0  0  0  0  0  0  0
   43.1830   34.2370   39.4620 C   0  0  0  0  0  0  0  0  0  0  0  0
   43.4440   34.4100   40.5260 N   0  0  0  0  0  0  0  0  0  0  0  0
   42.0230   34.7150   38.6080 C   0  0  0  0  0  0  0  0  0  0  0  0
   40.7760   34.1390   38.4830 C   0  0  0  0  0  0  0  0  0  0  0  0
   40.1130   34.9500   37.6030 C   0  0  0  0  0  0  0  0  0  0  0  0
   40.9390   35.9650   37.2240 N   0  0  0  0  0  0  0  0  0  0  0  0
   42.0970   35.7990   37.8500 N   0  0  0  0  0  0  0  0  0  0  0  0
   44.2997   36.5110   45.1553 H   0  0  0  0  0  0  0  0  0  0  0  0
   43.7586   36.2081   42.6930 H   0  0  0  0  0  0  0  0  0  0  0  0
   47.3790   31.9108   43.4608 H   0  0  0  0  0  0  0  0  0  0  0  0
   48.5859   29.9783   44.3167 H   0  0  0  0  0  0  0  0  0  0  0  0
   48.3449   29.2635   46.6798 H   0  0  0  0  0  0  0  0  0  0  0  0
   47.3990   29.5747   48.7587 H   0  0  0  0  0  0  0  0  0  0  0  0
   45.9115   30.8154   50.3149 H   0  0  0  0  0  0  0  0  0  0  0  0
   44.6538   32.8193   49.4412 H   0  0  0  0  0  0  0  0  0  0  0  0
   44.9525   33.4530   47.1129 H   0  0  0  0  0  0  0  0  0  0  0  0
   46.2875   32.6717   40.8448 H   0  0  0  0  0  0  0  0  0  0  0  0
   40.3995   33.2322   38.9789 H   0  0  0  0  0  0  0  0  0  0  0  0
   39.0789   34.8057   37.2570 H   0  0  0  0  0  0  0  0  0  0  0  0
   40.7062   36.7250   36.5689 H   0  0  0  0  0  0  0  0  0  0  0  0
  1  6  2  0
  2  1  1  0
  3  2  2  0
  3  4  1  0
  4  5  2  0
  5  6  1  0
  5  7  1  0
  7 16  2  0
  8  9  2  0
  8  7  1  0
  9 10  1  0
 10 11  2  0
 11 12  1  0
 12 13  2  0
 14 13  1  0
 15 14  2  0
 16 11  1  0
 16 15  1  0
 17  3  1  0
 18 17  2  0
 19 20  1  0
 19 18  1  0
 20 21  2  0
 21 17  1  0
 22 20  1  0
 23 22  1  0
 24 23  2  0
 25 24  1  0
 25 26  1  0
 26 22  2  0
  1 27  1  0
  2 28  1  0
  8 29  1  0
  9 30  1  0
 10 31  1  0
 12 32  1  0
 13 33  1  0
 14 34  1  0
 15 35  1  0
 18 36  1  0
 23 37  1  0
 24 38  1  0
 25 39  1  0
M  ISO  8  27  14  28  14  29  14  30  14  31  14  32  14  33  14  34  14
M  ISO  5  35  14  36  14  37  14  38  14  39   9
M  END
>  <minimizedAffinity>  (1) 
-6.85475826

>  <minimizedRMSD>  (1) 
1.34931827

$$$$
