
     RDKit          3D

 35 38  0  0  0  0  0  0  0  0999 V2000
   44.5640   35.8000   44.6880 C   0  0  0  0  0  0  0  0  0  0  0  0
   44.1450   35.6550   43.3580 C   0  0  0  0  0  0  0  0  0  0  0  0
   44.4720   34.4790   42.7200 C   0  0  0  0  0  0  0  0  0  0  0  0
   45.1660   33.5880   43.4430 N   0  0  0  0  0  0  0  0  0  0  0  0
   45.5840   33.6930   44.7180 C   0  0  0  0  0  0  0  0  0  0  0  0
   45.2290   34.8230   45.2230 N   0  0  0  0  0  0  0  0  0  0  0  0
   46.2980   32.5320   45.1650 C   0  0  0  0  0  0  0  0  0  0  0  0
   47.0990   31.7840   44.3030 C   0  0  0  0  0  0  0  0  0  0  0  0
   47.7890   30.6660   44.6940 C   0  0  0  0  0  0  0  0  0  0  0  0
   47.7240   30.2160   45.9880 C   0  0  0  0  0  0  0  0  0  0  0  0
   46.9540   30.9210   46.8500 C   0  0  0  0  0  0  0  0  0  0  0  0
   46.8900   30.4650   48.1630 C   0  0  0  0  0  0  0  0  0  0  0  0
   46.1250   31.1330   49.1020 C   0  0  0  0  0  0  0  0  0  0  0  0
   45.4290   32.2650   48.6950 C   0  0  0  0  0  0  0  0  0  0  0  0
   45.5470   32.6450   47.3890 C   0  0  0  0  0  0  0  0  0  0  0  0
   46.2780   32.0350   46.4220 C   0  0  0  0  0  0  0  0  0  0  0  0
   44.0700   34.2490   41.3360 C   0  0  0  0  0  0  0  0  0  0  0  0
   44.7390   33.2420   40.5600 C   0  0  0  0  0  0  0  0  0  0  0  0
   43.8560   33.3550   38.8940 S   0  0  0  0  0  0  0  0  0  0  0  0
   42.7740   34.7300   39.5940 C   0  0  0  0  0  0  0  0  0  0  0  0
   43.1290   34.8550   40.6390 N   0  0  0  0  0  0  0  0  0  0  0  0
   41.7110   35.3900   38.7520 C   0  0  0  0  0  0  0  0  0  0  0  0
   40.8290   36.1050   39.5320 F   0  0  0  0  0  0  0  0  0  0  0  0
   41.0320   34.3600   38.1330 F   0  0  0  0  0  0  0  0  0  0  0  0
   42.2880   36.1780   37.7770 F   0  0  0  0  0  0  0  0  0  0  0  0
   44.3364   36.7122   45.2591 H   0  0  0  0  0  0  0  0  0  0  0  0
   43.5790   36.4470   42.8457 H   0  0  0  0  0  0  0  0  0  0  0  0
   47.1815   32.1078   43.2550 H   0  0  0  0  0  0  0  0  0  0  0  0
   48.4028   30.1227   43.9605 H   0  0  0  0  0  0  0  0  0  0  0  0
   48.2742   29.3202   46.3117 H   0  0  0  0  0  0  0  0  0  0  0  0
   47.4522   29.5662   48.4566 H   0  0  0  0  0  0  0  0  0  0  0  0
   46.0691   30.7782   50.1417 H   0  0  0  0  0  0  0  0  0  0  0  0
   44.8054   32.8344   49.3999 H   0  0  0  0  0  0  0  0  0  0  0  0
   44.9887   33.5436   47.0877 H   0  0  0  0  0  0  0  0  0  0  0  0
   45.5591   32.5733   40.8604 H   0  0  0  0  0  0  0  0  0  0  0  0
  1  6  2  0
  2  1  1  0
  3  2  2  0
  3  4  1  0
  4  5  2  0
  5  7  1  0
  5  6  1  0
  7 16  2  0
  8  9  2  0
  8  7  1  0
  9 10  1  0
 10 11  2  0
 11 12  1  0
 12 13  2  0
 14 13  1  0
 15 14  2  0
 16 11  1  0
 16 15  1  0
 17  3  1  0
 18 17  2  0
 19 20  1  0
 19 18  1  0
 20 21  2  0
 21 17  1  0
 22 23  1  0
 22 20  1  0
 24 22  1  0
 25 22  1  0
  1 26  1  0
  2 27  1  0
  8 28  1  0
  9 29  1  0
 10 30  1  0
 12 31  1  0
 13 32  1  0
 14 33  1  0
 15 34  1  0
 18 35  1  0
M  ISO  8  26  14  27  14  28  14  29  14  30  14  31  14  32  14  33  14
M  ISO  2  34  14  35  14
M  END
>  <minimizedAffinity>  (1) 
-6.73543644

>  <minimizedRMSD>  (1) 
1.02622247

$$$$
