
     RDKit          3D

 41 44  0  0  0  0  0  0  0  0999 V2000
   46.2890   32.5350   45.2240 C   0  0  0  0  0  0  0  0  0  0  0  0
   47.0640   31.8130   44.3210 C   0  0  0  0  0  0  0  0  0  0  0  0
   47.7550   30.6800   44.6580 C   0  0  0  0  0  0  0  0  0  0  0  0
   47.7150   30.1830   45.9450 C   0  0  0  0  0  0  0  0  0  0  0  0
   46.9660   30.8680   46.8480 C   0  0  0  0  0  0  0  0  0  0  0  0
   46.9330   30.3610   48.1410 C   0  0  0  0  0  0  0  0  0  0  0  0
   46.1900   31.0080   49.1150 C   0  0  0  0  0  0  0  0  0  0  0  0
   45.4930   32.1570   48.7650 C   0  0  0  0  0  0  0  0  0  0  0  0
   45.5850   32.5800   47.4690 C   0  0  0  0  0  0  0  0  0  0  0  0
   46.2930   31.9960   46.4700 C   0  0  0  0  0  0  0  0  0  0  0  0
   44.6140   35.8420   44.8770 C   0  0  0  0  0  0  0  0  0  0  0  0
   44.0930   35.7270   43.5880 C   0  0  0  0  0  0  0  0  0  0  0  0
   44.3380   34.5550   42.9240 C   0  0  0  0  0  0  0  0  0  0  0  0
   45.0620   33.6360   43.5960 N   0  0  0  0  0  0  0  0  0  0  0  0
   45.5750   33.7140   44.8310 C   0  0  0  0  0  0  0  0  0  0  0  0
   45.2920   34.8470   45.3660 N   0  0  0  0  0  0  0  0  0  0  0  0
   43.8310   34.3330   41.5790 C   0  0  0  0  0  0  0  0  0  0  0  0
   44.5920   33.5880   40.6210 C   0  0  0  0  0  0  0  0  0  0  0  0
   43.5170   33.5870   39.1000 S   0  0  0  0  0  0  0  0  0  0  0  0
   42.2250   34.6070   40.0460 C   0  0  0  0  0  0  0  0  0  0  0  0
   42.6890   34.7370   41.0610 N   0  0  0  0  0  0  0  0  0  0  0  0
   40.8910   35.0970   39.4940 C   0  0  0  0  0  0  0  0  0  0  0  0
   40.2590   36.1080   40.4130 C   0  0  0  0  0  0  0  0  0  0  0  0
   41.2330   35.7560   38.2040 C   0  0  0  0  0  0  0  0  0  0  0  0
   47.1245   32.1712   43.2827 H   0  0  0  0  0  0  0  0  0  0  0  0
   48.3497   30.1591   43.8931 H   0  0  0  0  0  0  0  0  0  0  0  0
   48.2649   29.2730   46.2269 H   0  0  0  0  0  0  0  0  0  0  0  0
   47.4949   29.4489   48.3906 H   0  0  0  0  0  0  0  0  0  0  0  0
   46.1530   30.6199   50.1436 H   0  0  0  0  0  0  0  0  0  0  0  0
   44.8897   32.7058   49.5031 H   0  0  0  0  0  0  0  0  0  0  0  0
   45.0257   33.4906   47.2081 H   0  0  0  0  0  0  0  0  0  0  0  0
   44.4542   36.7563   45.4674 H   0  0  0  0  0  0  0  0  0  0  0  0
   43.5127   36.5397   43.1268 H   0  0  0  0  0  0  0  0  0  0  0  0
   45.5808   33.1245   40.7529 H   0  0  0  0  0  0  0  0  0  0  0  0
   40.1756   34.2688   39.3834 H   0  0  0  0  0  0  0  0  0  0  0  0
   40.4407   35.8174   41.4582 H   0  0  0  0  0  0  0  0  0  0  0  0
   40.6988   37.0988   40.2261 H   0  0  0  0  0  0  0  0  0  0  0  0
   39.1757   36.1466   40.2261 H   0  0  0  0  0  0  0  0  0  0  0  0
   41.7313   36.7162   38.4035 H   0  0  0  0  0  0  0  0  0  0  0  0
   41.9074   35.1057   37.6275 H   0  0  0  0  0  0  0  0  0  0  0  0
   40.3130   35.9332   37.6275 H   0  0  0  0  0  0  0  0  0  0  0  0
  1 10  2  0
  2  3  2  0
  2  1  1  0
  3  4  1  0
  4  5  2  0
  5  6  1  0
  6  7  2  0
  8  7  1  0
  9  8  2  0
 10  5  1  0
 10  9  1  0
 11 16  2  0
 12 11  1  0
 13 12  2  0
 13 14  1  0
 14 15  2  0
 15  1  1  0
 15 16  1  0
 17 13  1  0
 18 17  2  0
 19 20  1  0
 19 18  1  0
 20 21  2  0
 21 17  1  0
 22 20  1  0
 22 23  1  0
 24 22  1  0
  2 25  1  0
  3 26  1  0
  4 27  1  0
  6 28  1  0
  7 29  1  0
  8 30  1  0
  9 31  1  0
 11 32  1  0
 12 33  1  0
 18 34  1  0
 22 35  1  0
 23 36  1  0
 23 37  1  0
 23 38  1  0
 24 39  1  0
 24 40  1  0
 24 41  1  0
M  ISO  8  25  14  26  14  27  14  28  14  29  14  30  14  31  14  32  14
M  ISO  8  33  14  34  14  35   8  36   8  37   8  38   8  39   8  40   8
M  ISO  1  41   8
M  END
>  <minimizedAffinity>  (1) 
-6.67032576

>  <minimizedRMSD>  (1) 
1.09026027

$$$$
