
     RDKit          3D

 35 38  0  0  0  0  0  0  0  0999 V2000
   44.5910   35.7650   44.7480 C   0  0  0  0  0  0  0  0  0  0  0  0
   44.1670   35.6420   43.4240 C   0  0  0  0  0  0  0  0  0  0  0  0
   44.4900   34.4750   42.7810 C   0  0  0  0  0  0  0  0  0  0  0  0
   45.1850   33.5660   43.4990 N   0  0  0  0  0  0  0  0  0  0  0  0
   45.6040   33.6600   44.7700 C   0  0  0  0  0  0  0  0  0  0  0  0
   45.2540   34.7860   45.2850 N   0  0  0  0  0  0  0  0  0  0  0  0
   46.3190   32.4950   45.2130 C   0  0  0  0  0  0  0  0  0  0  0  0
   47.1210   31.7500   44.3560 C   0  0  0  0  0  0  0  0  0  0  0  0
   47.8160   30.6350   44.7440 C   0  0  0  0  0  0  0  0  0  0  0  0
   47.7520   30.1820   46.0330 C   0  0  0  0  0  0  0  0  0  0  0  0
   46.9800   30.8840   46.8910 C   0  0  0  0  0  0  0  0  0  0  0  0
   46.9170   30.4220   48.2010 C   0  0  0  0  0  0  0  0  0  0  0  0
   46.1490   31.0860   49.1340 C   0  0  0  0  0  0  0  0  0  0  0  0
   45.4460   32.2170   48.7450 C   0  0  0  0  0  0  0  0  0  0  0  0
   45.5660   32.5980   47.4400 C   0  0  0  0  0  0  0  0  0  0  0  0
   46.2990   31.9960   46.4710 C   0  0  0  0  0  0  0  0  0  0  0  0
   44.0920   34.2470   41.3960 C   0  0  0  0  0  0  0  0  0  0  0  0
   44.6720   33.1480   40.6510 C   0  0  0  0  0  0  0  0  0  0  0  0
   43.8310   33.3100   38.9700 S   0  0  0  0  0  0  0  0  0  0  0  0
   42.8850   34.8060   39.6140 C   0  0  0  0  0  0  0  0  0  0  0  0
   43.2450   34.9050   40.6590 N   0  0  0  0  0  0  0  0  0  0  0  0
   41.9660   35.4300   38.6390 C   0  0  0  0  0  0  0  0  0  0  0  0
   40.7470   35.5860   38.8560 O   0  0  0  0  0  0  0  0  0  0  0  0
   42.6010   35.8130   37.4800 O   0  0  0  0  0  0  0  0  0  0  0  0
   44.3678   36.6741   45.3257 H   0  0  0  0  0  0  0  0  0  0  0  0
   43.6021   36.4411   42.9217 H   0  0  0  0  0  0  0  0  0  0  0  0
   47.2021   32.0739   43.3079 H   0  0  0  0  0  0  0  0  0  0  0  0
   48.4334   30.0971   44.0095 H   0  0  0  0  0  0  0  0  0  0  0  0
   48.3039   29.2870   46.3562 H   0  0  0  0  0  0  0  0  0  0  0  0
   47.4814   29.5244   48.4938 H   0  0  0  0  0  0  0  0  0  0  0  0
   46.0945   30.7243   50.1714 H   0  0  0  0  0  0  0  0  0  0  0  0
   44.8217   32.7798   49.4545 H   0  0  0  0  0  0  0  0  0  0  0  0
   45.0044   33.4951   47.1403 H   0  0  0  0  0  0  0  0  0  0  0  0
   45.4146   32.4069   40.9817 H   0  0  0  0  0  0  0  0  0  0  0  0
   43.5732   35.6588   37.3740 H   0  0  0  0  0  0  0  0  0  0  0  0
  1  6  2  0
  2  1  1  0
  3  2  2  0
  3  4  1  0
  4  5  2  0
  5  7  1  0
  5  6  1  0
  7 16  2  0
  8  9  2  0
  8  7  1  0
  9 10  1  0
 10 11  2  0
 11 12  1  0
 12 13  2  0
 14 13  1  0
 15 14  2  0
 16 11  1  0
 16 15  1  0
 17  3  1  0
 18 17  2  0
 19 20  1  0
 19 18  1  0
 20 21  2  0
 21 17  1  0
 22 23  2  0
 22 20  1  0
 24 22  1  0
  1 25  1  0
  2 26  1  0
  8 27  1  0
  9 28  1  0
 10 29  1  0
 12 30  1  0
 13 31  1  0
 14 32  1  0
 15 33  1  0
 18 34  1  0
 24 35  1  0
M  ISO  8  25  14  26  14  27  14  28  14  29  14  30  14  31  14  32  14
M  ISO  3  33  14  34  14  35   3
M  END
>  <minimizedAffinity>  (1) 
-6.63219595

>  <minimizedRMSD>  (1) 
0.98834908

$$$$
