
     RDKit          3D

 39 43  0  0  0  0  0  0  0  0999 V2000
   46.1060   32.5280   44.9630 C   0  0  0  0  0  0  0  0  0  0  0  0
   46.7240   31.7130   44.0160 C   0  0  0  0  0  0  0  0  0  0  0  0
   47.3440   30.5310   44.3250 C   0  0  0  0  0  0  0  0  0  0  0  0
   47.3880   30.0770   45.6290 C   0  0  0  0  0  0  0  0  0  0  0  0
   46.7950   30.8510   46.5760 C   0  0  0  0  0  0  0  0  0  0  0  0
   46.8480   30.3860   47.8820 C   0  0  0  0  0  0  0  0  0  0  0  0
   46.2670   31.1180   48.9020 C   0  0  0  0  0  0  0  0  0  0  0  0
   45.6380   32.3200   48.5760 C   0  0  0  0  0  0  0  0  0  0  0  0
   45.6370   32.7000   47.2600 C   0  0  0  0  0  0  0  0  0  0  0  0
   46.1880   32.0250   46.2210 C   0  0  0  0  0  0  0  0  0  0  0  0
   44.6370   35.9370   44.6830 C   0  0  0  0  0  0  0  0  0  0  0  0
   44.0850   35.8730   43.4020 C   0  0  0  0  0  0  0  0  0  0  0  0
   44.2460   34.6960   42.7220 C   0  0  0  0  0  0  0  0  0  0  0  0
   44.9230   33.7200   43.3680 N   0  0  0  0  0  0  0  0  0  0  0  0
   45.4620   33.7530   44.5970 C   0  0  0  0  0  0  0  0  0  0  0  0
   45.2580   34.8950   45.1480 N   0  0  0  0  0  0  0  0  0  0  0  0
   43.7030   34.5200   41.3800 C   0  0  0  0  0  0  0  0  0  0  0  0
   44.2970   33.5870   40.4670 C   0  0  0  0  0  0  0  0  0  0  0  0
   43.2460   33.7330   38.9350 S   0  0  0  0  0  0  0  0  0  0  0  0
   42.1860   35.0430   39.8230 C   0  0  0  0  0  0  0  0  0  0  0  0
   42.6660   35.1250   40.8340 N   0  0  0  0  0  0  0  0  0  0  0  0
   41.0230   35.6640   39.0910 C   0  0  0  0  0  0  0  0  0  0  0  0
   40.4850   34.7930   38.0010 C   0  0  0  0  0  0  0  0  0  0  0  0
   41.3270   36.0220   37.7050 C   0  0  0  0  0  0  0  0  0  0  0  0
   46.7133   32.0361   42.9646 H   0  0  0  0  0  0  0  0  0  0  0  0
   47.8119   29.9370   43.5261 H   0  0  0  0  0  0  0  0  0  0  0  0
   47.8819   29.1294   45.8898 H   0  0  0  0  0  0  0  0  0  0  0  0
   47.3524   29.4346   48.1066 H   0  0  0  0  0  0  0  0  0  0  0  0
   46.3000   30.7619   49.9422 H   0  0  0  0  0  0  0  0  0  0  0  0
   45.1599   32.9404   49.3483 H   0  0  0  0  0  0  0  0  0  0  0  0
   45.1378   33.6507   47.0214 H   0  0  0  0  0  0  0  0  0  0  0  0
   44.5477   36.8521   45.2868 H   0  0  0  0  0  0  0  0  0  0  0  0
   43.5477   36.7257   42.9614 H   0  0  0  0  0  0  0  0  0  0  0  0
   45.1690   32.9372   40.6324 H   0  0  0  0  0  0  0  0  0  0  0  0
   40.5799   36.2004   39.9430 H   0  0  0  0  0  0  0  0  0  0  0  0
   40.8972   33.7858   37.8407 H   0  0  0  0  0  0  0  0  0  0  0  0
   39.4920   34.4263   37.7019 H   0  0  0  0  0  0  0  0  0  0  0  0
   42.3508   35.9069   37.3196 H   0  0  0  0  0  0  0  0  0  0  0  0
   41.1957   36.9237   37.0888 H   0  0  0  0  0  0  0  0  0  0  0  0
  1 10  2  0
  2  3  2  0
  2  1  1  0
  3  4  1  0
  4  5  2  0
  5  6  1  0
  6  7  2  0
  8  7  1  0
  9  8  2  0
 10  5  1  0
 10  9  1  0
 11 16  2  0
 12 11  1  0
 13 14  1  0
 13 12  2  0
 14 15  2  0
 15  1  1  0
 15 16  1  0
 17 13  1  0
 18 17  2  0
 19 20  1  0
 19 18  1  0
 20 21  2  0
 21 17  1  0
 22 20  1  0
 23 22  1  0
 24 23  1  0
 24 22  1  0
  2 25  1  0
  3 26  1  0
  4 27  1  0
  6 28  1  0
  7 29  1  0
  8 30  1  0
  9 31  1  0
 11 32  1  0
 12 33  1  0
 18 34  1  0
 22 35  1  0
 23 36  1  0
 23 37  1  0
 24 38  1  0
 24 39  1  0
M  ISO  8  25  14  26  14  27  14  28  14  29  14  30  14  31  14  32  14
M  ISO  7  33  14  34  14  35  13  36  13  37  13  38  13  39  13
M  END
>  <minimizedAffinity>  (1) 
-6.58589983

>  <minimizedRMSD>  (1) 
0.968730569

$$$$
