
     RDKit          3D

 38 41  0  0  0  0  0  0  0  0999 V2000
   46.3000   32.5240   45.2400 C   0  0  0  0  0  0  0  0  0  0  0  0
   47.0790   31.8010   44.3460 C   0  0  0  0  0  0  0  0  0  0  0  0
   47.7740   30.6650   44.6840 C   0  0  0  0  0  0  0  0  0  0  0  0
   47.7300   30.1780   45.9600 C   0  0  0  0  0  0  0  0  0  0  0  0
   46.9790   30.8560   46.8620 C   0  0  0  0  0  0  0  0  0  0  0  0
   46.9340   30.3610   48.1570 C   0  0  0  0  0  0  0  0  0  0  0  0
   46.1910   31.0000   49.1250 C   0  0  0  0  0  0  0  0  0  0  0  0
   45.4910   32.1470   48.7810 C   0  0  0  0  0  0  0  0  0  0  0  0
   45.5880   32.5700   47.4800 C   0  0  0  0  0  0  0  0  0  0  0  0
   46.3010   31.9850   46.4850 C   0  0  0  0  0  0  0  0  0  0  0  0
   44.6180   35.8290   44.8930 C   0  0  0  0  0  0  0  0  0  0  0  0
   44.1330   35.7210   43.5810 C   0  0  0  0  0  0  0  0  0  0  0  0
   44.4020   34.5600   42.9080 C   0  0  0  0  0  0  0  0  0  0  0  0
   45.1100   33.6460   43.5980 N   0  0  0  0  0  0  0  0  0  0  0  0
   45.5910   33.7010   44.8420 C   0  0  0  0  0  0  0  0  0  0  0  0
   45.2850   34.8250   45.3810 N   0  0  0  0  0  0  0  0  0  0  0  0
   43.9360   34.3700   41.5470 C   0  0  0  0  0  0  0  0  0  0  0  0
   44.6390   33.4870   40.6700 C   0  0  0  0  0  0  0  0  0  0  0  0
   43.6710   33.5810   39.0700 S   0  0  0  0  0  0  0  0  0  0  0  0
   42.4850   34.8140   39.9100 C   0  0  0  0  0  0  0  0  0  0  0  0
   42.9200   34.8900   40.9250 N   0  0  0  0  0  0  0  0  0  0  0  0
   41.3150   35.3980   39.1590 C   0  0  0  0  0  0  0  0  0  0  0  0
   40.3190   35.9970   40.1280 C   0  0  0  0  0  0  0  0  0  0  0  0
   47.1433   32.1584   43.3077 H   0  0  0  0  0  0  0  0  0  0  0  0
   48.3707   30.1433   43.9212 H   0  0  0  0  0  0  0  0  0  0  0  0
   48.2829   29.2705   46.2443 H   0  0  0  0  0  0  0  0  0  0  0  0
   47.4962   29.4508   48.4130 H   0  0  0  0  0  0  0  0  0  0  0  0
   46.1535   30.6078   50.1520 H   0  0  0  0  0  0  0  0  0  0  0  0
   44.8850   32.6931   49.5189 H   0  0  0  0  0  0  0  0  0  0  0  0
   45.0287   33.4795   47.2154 H   0  0  0  0  0  0  0  0  0  0  0  0
   44.4395   36.7351   45.4906 H   0  0  0  0  0  0  0  0  0  0  0  0
   43.5605   36.5353   43.1128 H   0  0  0  0  0  0  0  0  0  0  0  0
   45.5385   32.8914   40.8848 H   0  0  0  0  0  0  0  0  0  0  0  0
   41.6757   36.1824   38.4773 H   0  0  0  0  0  0  0  0  0  0  0  0
   40.8220   34.5995   38.5851 H   0  0  0  0  0  0  0  0  0  0  0  0
   40.6468   35.7999   41.1594 H   0  0  0  0  0  0  0  0  0  0  0  0
   40.2560   37.0830   39.9645 H   0  0  0  0  0  0  0  0  0  0  0  0
   39.3302   35.5436   39.9645 H   0  0  0  0  0  0  0  0  0  0  0  0
  1 10  2  0
  2  3  2  0
  2  1  1  0
  3  4  1  0
  4  5  2  0
  5  6  1  0
  6  7  2  0
  8  7  1  0
  9  8  2  0
 10  5  1  0
 10  9  1  0
 11 16  2  0
 12 11  1  0
 13 12  2  0
 13 14  1  0
 14 15  2  0
 15  1  1  0
 15 16  1  0
 17 13  1  0
 18 17  2  0
 19 20  1  0
 19 18  1  0
 20 21  2  0
 21 17  1  0
 22 20  1  0
 22 23  1  0
  2 24  1  0
  3 25  1  0
  4 26  1  0
  6 27  1  0
  7 28  1  0
  8 29  1  0
  9 30  1  0
 11 31  1  0
 12 32  1  0
 18 33  1  0
 22 34  1  0
 22 35  1  0
 23 36  1  0
 23 37  1  0
 23 38  1  0
M  ISO  8  24  14  25  14  26  14  27  14  28  14  29  14  30  14  31  14
M  ISO  7  32  14  33  14  34   8  35   8  36   8  37   8  38   8
M  END
>  <minimizedAffinity>  (1) 
-6.21702147

>  <minimizedRMSD>  (1) 
1.01527691

$$$$
