
     RDKit          3D

 33 36  0  0  0  0  0  0  0  0999 V2000
   45.9980   32.1460   44.7130 C   0  0  0  0  0  0  0  0  0  0  0  0
   45.9550   31.1070   43.7970 C   0  0  0  0  0  0  0  0  0  0  0  0
   46.4890   29.8610   44.0290 C   0  0  0  0  0  0  0  0  0  0  0  0
   47.1120   29.5740   45.2110 C   0  0  0  0  0  0  0  0  0  0  0  0
   47.1720   30.5670   46.1250 C   0  0  0  0  0  0  0  0  0  0  0  0
   47.8040   30.2760   47.3270 C   0  0  0  0  0  0  0  0  0  0  0  0
   47.9070   31.2330   48.3130 C   0  0  0  0  0  0  0  0  0  0  0  0
   47.3630   32.4890   48.0710 C   0  0  0  0  0  0  0  0  0  0  0  0
   46.7570   32.6970   46.8600 C   0  0  0  0  0  0  0  0  0  0  0  0
   46.6260   31.7950   45.8570 C   0  0  0  0  0  0  0  0  0  0  0  0
   44.7680   35.6620   44.6570 C   0  0  0  0  0  0  0  0  0  0  0  0
   44.1600   35.7040   43.3930 C   0  0  0  0  0  0  0  0  0  0  0  0
   44.2140   34.5310   42.6500 C   0  0  0  0  0  0  0  0  0  0  0  0
   44.8400   33.5060   43.2350 N   0  0  0  0  0  0  0  0  0  0  0  0
   45.4280   33.4300   44.4330 C   0  0  0  0  0  0  0  0  0  0  0  0
   45.3290   34.5580   45.0460 N   0  0  0  0  0  0  0  0  0  0  0  0
   43.6140   34.4920   41.3360 C   0  0  0  0  0  0  0  0  0  0  0  0
   44.2250   33.6590   40.3190 C   0  0  0  0  0  0  0  0  0  0  0  0
   43.1150   33.9320   38.8210 S   0  0  0  0  0  0  0  0  0  0  0  0
   42.0650   35.1010   39.8590 C   0  0  0  0  0  0  0  0  0  0  0  0
   42.5580   35.1020   40.8540 N   0  0  0  0  0  0  0  0  0  0  0  0
   40.8920   35.8160   39.4260 O   0  0  0  0  0  0  0  0  0  0  0  0
   45.4657   31.2893   42.8288 H   0  0  0  0  0  0  0  0  0  0  0  0
   46.4136   29.0852   43.2529 H   0  0  0  0  0  0  0  0  0  0  0  0
   47.5440   28.5819   45.4087 H   0  0  0  0  0  0  0  0  0  0  0  0
   48.2256   29.2737   47.4932 H   0  0  0  0  0  0  0  0  0  0  0  0
   48.4068   31.0088   49.2669 H   0  0  0  0  0  0  0  0  0  0  0  0
   47.4171   33.2879   48.8252 H   0  0  0  0  0  0  0  0  0  0  0  0
   46.3341   33.6971   46.6840 H   0  0  0  0  0  0  0  0  0  0  0  0
   44.7692   36.5494   45.3070 H   0  0  0  0  0  0  0  0  0  0  0  0
   43.6695   36.6121   43.0127 H   0  0  0  0  0  0  0  0  0  0  0  0
   45.1185   33.0228   40.4016 H   0  0  0  0  0  0  0  0  0  0  0  0
   40.4122   36.4085   40.0575 H   0  0  0  0  0  0  0  0  0  0  0  0
  1 10  2  0
  2  3  2  0
  2  1  1  0
  3  4  1  0
  4  5  2  0
  5  6  1  0
  6  7  2  0
  8  7  1  0
  9  8  2  0
 10  5  1  0
 10  9  1  0
 11 16  2  0
 12 11  1  0
 13 14  1  0
 13 12  2  0
 14 15  2  0
 15  1  1  0
 15 16  1  0
 17 13  1  0
 18 17  2  0
 19 20  1  0
 19 18  1  0
 20 21  2  0
 21 17  1  0
 22 20  1  0
  2 23  1  0
  3 24  1  0
  4 25  1  0
  6 26  1  0
  7 27  1  0
  8 28  1  0
  9 29  1  0
 11 30  1  0
 12 31  1  0
 18 32  1  0
 22 33  1  0
M  ISO  8  23  14  24  14  25  14  26  14  27  14  28  14  29  14  30  14
M  ISO  3  31  14  32  14  33   3
M  END
>  <minimizedAffinity>  (1) 
-5.47277689

>  <minimizedRMSD>  (1) 
0.202920496

$$$$
