
     RDKit          3D

 33 36  0  0  0  0  0  0  0  0999 V2000
   45.9750   32.0410   44.6760 C   0  0  0  0  0  0  0  0  0  0  0  0
   45.9410   30.9340   43.8390 C   0  0  0  0  0  0  0  0  0  0  0  0
   46.4470   29.7040   44.1880 C   0  0  0  0  0  0  0  0  0  0  0  0
   47.0300   29.5040   45.4170 C   0  0  0  0  0  0  0  0  0  0  0  0
   47.0770   30.5660   46.2510 C   0  0  0  0  0  0  0  0  0  0  0  0
   47.6670   30.3590   47.4910 C   0  0  0  0  0  0  0  0  0  0  0  0
   47.7510   31.3970   48.3950 C   0  0  0  0  0  0  0  0  0  0  0  0
   47.2380   32.6370   48.0410 C   0  0  0  0  0  0  0  0  0  0  0  0
   46.6750   32.7510   46.8010 C   0  0  0  0  0  0  0  0  0  0  0  0
   46.5620   31.7720   45.8680 C   0  0  0  0  0  0  0  0  0  0  0  0
   44.7650   35.5470   44.3230 C   0  0  0  0  0  0  0  0  0  0  0  0
   44.2720   35.5200   43.0170 C   0  0  0  0  0  0  0  0  0  0  0  0
   44.3810   34.3300   42.3480 C   0  0  0  0  0  0  0  0  0  0  0  0
   44.9550   33.3130   43.0320 N   0  0  0  0  0  0  0  0  0  0  0  0
   45.4360   33.3070   44.2810 C   0  0  0  0  0  0  0  0  0  0  0  0
   45.2860   34.4670   44.8170 N   0  0  0  0  0  0  0  0  0  0  0  0
   43.8970   34.2040   40.9830 C   0  0  0  0  0  0  0  0  0  0  0  0
   44.5500   33.3030   40.0830 C   0  0  0  0  0  0  0  0  0  0  0  0
   43.5900   33.4870   38.4850 S   0  0  0  0  0  0  0  0  0  0  0  0
   42.4720   34.7650   39.3510 C   0  0  0  0  0  0  0  0  0  0  0  0
   42.9060   34.8010   40.3790 N   0  0  0  0  0  0  0  0  0  0  0  0
   41.0970   35.6050   38.5430 S   0  0  0  0  0  0  0  0  0  0  0  0
   45.4853   31.0467   42.8442 H   0  0  0  0  0  0  0  0  0  0  0  0
   46.3845   28.8691   43.4746 H   0  0  0  0  0  0  0  0  0  0  0  0
   47.4391   28.5251   45.7077 H   0  0  0  0  0  0  0  0  0  0  0  0
   48.0669   29.3680   47.7519 H   0  0  0  0  0  0  0  0  0  0  0  0
   48.2167   31.2447   49.3799 H   0  0  0  0  0  0  0  0  0  0  0  0
   47.2827   33.4931   48.7303 H   0  0  0  0  0  0  0  0  0  0  0  0
   46.2718   33.7383   46.5313 H   0  0  0  0  0  0  0  0  0  0  0  0
   44.7124   36.4679   44.9223 H   0  0  0  0  0  0  0  0  0  0  0  0
   43.8200   36.4075   42.5501 H   0  0  0  0  0  0  0  0  0  0  0  0
   45.4148   32.6533   40.2831 H   0  0  0  0  0  0  0  0  0  0  0  0
   40.2546   36.1197   39.4929 H   0  0  0  0  0  0  0  0  0  0  0  0
  1 10  2  0
  2  3  2  0
  2  1  1  0
  3  4  1  0
  4  5  2  0
  5  6  1  0
  6  7  2  0
  8  7  1  0
  9  8  2  0
 10  5  1  0
 10  9  1  0
 11 16  2  0
 12 11  1  0
 13 12  2  0
 13 14  1  0
 14 15  2  0
 15  1  1  0
 15 16  1  0
 17 13  1  0
 18 17  2  0
 19 20  1  0
 19 18  1  0
 20 21  2  0
 21 17  1  0
 22 20  1  0
  2 23  1  0
  3 24  1  0
  4 25  1  0
  6 26  1  0
  7 27  1  0
  8 28  1  0
  9 29  1  0
 11 30  1  0
 12 31  1  0
 18 32  1  0
 22 33  1  0
M  ISO  8  23  14  24  14  25  14  26  14  27  14  28  14  29  14  30  14
M  ISO  3  31  14  32  14  33  11
M  END
>  <minimizedAffinity>  (1) 
-5.37080669

>  <minimizedRMSD>  (1) 
0.329067051

$$$$
