
     RDKit          3D

 20 21  0  0  0  0  0  0  0  0999 V2000
   44.5950   36.2240   44.4470 C   0  0  0  0  0  0  0  0  0  0  0  0
   45.2590   36.1280   43.1910 C   0  0  0  0  0  0  0  0  0  0  0  0
   46.0030   34.9680   42.9570 C   0  0  0  0  0  0  0  0  0  0  0  0
   46.0410   34.0150   43.9370 N   0  0  0  0  0  0  0  0  0  0  0  0
   45.4050   34.1390   45.1060 C   0  0  0  0  0  0  0  0  0  0  0  0
   44.6800   35.2480   45.3580 N   0  0  0  0  0  0  0  0  0  0  0  0
   46.6900   34.7640   41.7740 O   0  0  0  0  0  0  0  0  0  0  0  0
   47.9450   34.1790   41.8760 C   0  0  0  0  0  0  0  0  0  0  0  0
   48.8960   35.0550   42.3560 C   0  0  0  0  0  0  0  0  0  0  0  0
   50.2170   34.6860   42.5380 C   0  0  0  0  0  0  0  0  0  0  0  0
   50.6190   33.4030   42.2370 C   0  0  0  0  0  0  0  0  0  0  0  0
   49.6110   32.5670   41.7560 C   0  0  0  0  0  0  0  0  0  0  0  0
   48.3270   32.9250   41.5790 N   0  0  0  0  0  0  0  0  0  0  0  0
   43.9990   37.1205   44.6732 H   0  0  0  0  0  0  0  0  0  0  0  0
   45.1897   36.9290   42.4402 H   0  0  0  0  0  0  0  0  0  0  0  0
   45.4726   33.3401   45.8592 H   0  0  0  0  0  0  0  0  0  0  0  0
   48.5936   36.0834   42.6029 H   0  0  0  0  0  0  0  0  0  0  0  0
   50.9450   35.4156   42.9223 H   0  0  0  0  0  0  0  0  0  0  0  0
   51.6572   33.0632   42.3663 H   0  0  0  0  0  0  0  0  0  0  0  0
   49.8885   31.5335   41.5015 H   0  0  0  0  0  0  0  0  0  0  0  0
  1  6  2  0
  2  1  1  0
  3  2  2  0
  3  4  1  0
  4  5  2  0
  5  6  1  0
  7  8  1  0
  7  3  1  0
  8  9  2  0
  9 10  1  0
 11 10  2  0
 12 11  1  0
 13 12  2  0
 13  8  1  0
  1 14  1  0
  2 15  1  0
  5 16  1  0
  9 17  1  0
 10 18  1  0
 11 19  1  0
 12 20  1  0
M  ISO  7  14  14  15  14  16  14  17  14  18  14  19  14  20  14
M  END
>  <minimizedAffinity>  (1) 
-4.50733566

>  <minimizedRMSD>  (1) 
1.18658841

$$$$
