
     RDKit          3D

 17 18  0  0  0  0  0  0  0  0999 V2000
   44.5050   36.1010   44.5890 C   0  0  0  0  0  0  0  0  0  0  0  0
   45.1750   36.0610   43.3470 C   0  0  0  0  0  0  0  0  0  0  0  0
   46.0390   34.9870   43.1100 C   0  0  0  0  0  0  0  0  0  0  0  0
   46.1610   34.0580   44.1170 N   0  0  0  0  0  0  0  0  0  0  0  0
   45.5070   34.1320   45.2830 C   0  0  0  0  0  0  0  0  0  0  0  0
   44.6750   35.1640   45.5140 N   0  0  0  0  0  0  0  0  0  0  0  0
   46.7490   34.8380   41.9350 O   0  0  0  0  0  0  0  0  0  0  0  0
   48.0750   34.4580   42.0730 C   0  0  0  0  0  0  0  0  0  0  0  0
   48.0360   33.2870   41.2850 C   0  0  0  0  0  0  0  0  0  0  0  0
   49.8190   32.6460   41.3830 S   0  0  0  0  0  0  0  0  0  0  0  0
   50.2490   34.1250   42.4890 C   0  0  0  0  0  0  0  0  0  0  0  0
   49.2730   34.6600   42.5570 N   0  0  0  0  0  0  0  0  0  0  0  0
   43.8197   36.9359   44.7971 H   0  0  0  0  0  0  0  0  0  0  0  0
   45.0229   36.8467   42.5924 H   0  0  0  0  0  0  0  0  0  0  0  0
   45.6490   33.3539   46.0474 H   0  0  0  0  0  0  0  0  0  0  0  0
   47.1810   32.8526   40.7461 H   0  0  0  0  0  0  0  0  0  0  0  0
   51.2142   34.3879   42.9464 H   0  0  0  0  0  0  0  0  0  0  0  0
  1  6  2  0
  2  1  1  0
  3  2  2  0
  3  4  1  0
  4  5  2  0
  5  6  1  0
  7  8  1  0
  7  3  1  0
  8 12  1  0
  9 10  1  0
  9  8  2  0
 10 11  1  0
 11 12  2  0
  1 13  1  0
  2 14  1  0
  5 15  1  0
  9 16  1  0
 11 17  1  0
M  ISO  5  13  14  14  14  15  14  16  14  17  14
M  END
>  <minimizedAffinity>  (1) 
-3.91116834

>  <minimizedRMSD>  (1) 
1.31151903

$$$$
