
     RDKit          3D

 15 15  0  0  0  0  0  0  0  0999 V2000
   44.5980   35.9640   44.4120 C   0  0  0  0  0  0  0  0  0  0  0  0
   45.3470   35.9900   43.2250 C   0  0  0  0  0  0  0  0  0  0  0  0
   46.2880   34.9750   43.0420 C   0  0  0  0  0  0  0  0  0  0  0  0
   46.4300   34.0230   44.0170 N   0  0  0  0  0  0  0  0  0  0  0  0
   45.6830   34.0440   45.1420 C   0  0  0  0  0  0  0  0  0  0  0  0
   44.7680   35.0130   45.3390 N   0  0  0  0  0  0  0  0  0  0  0  0
   47.1000   34.8820   41.9060 O   0  0  0  0  0  0  0  0  0  0  0  0
   48.4220   35.2260   41.9780 C   0  0  0  0  0  0  0  0  0  0  0  0
   49.1580   34.5970   43.0320 N   0  0  0  0  0  0  0  0  0  0  0  0
   49.0730   36.0150   41.2480 O   0  0  0  0  0  0  0  0  0  0  0  0
   43.8479   36.7496   44.5860 H   0  0  0  0  0  0  0  0  0  0  0  0
   45.1988   36.7769   42.4708 H   0  0  0  0  0  0  0  0  0  0  0  0
   45.8229   33.2631   45.9040 H   0  0  0  0  0  0  0  0  0  0  0  0
   50.1598   34.8027   43.1545 H   0  0  0  0  0  0  0  0  0  0  0  0
   48.6859   33.9386   43.6681 H   0  0  0  0  0  0  0  0  0  0  0  0
  1  6  2  0
  2  1  1  0
  3  2  2  0
  3  4  1  0
  4  5  2  0
  5  6  1  0
  7  8  1  0
  7  3  1  0
  8  9  1  0
 10  8  2  0
  1 11  1  0
  2 12  1  0
  5 13  1  0
  9 14  1  0
  9 15  1  0
M  ISO  3  11  14  12  14  13  14
M  END
>  <minimizedAffinity>  (1) 
-3.90215254

>  <minimizedRMSD>  (1) 
0.502201438

$$$$
