
     RDKit          3D

 14 14  0  0  0  0  0  0  0  0999 V2000
   44.6580   35.7010   44.2880 C   0  0  0  0  0  0  0  0  0  0  0  0
   45.5050   35.7530   43.1470 C   0  0  0  0  0  0  0  0  0  0  0  0
   46.5610   34.8330   43.0790 C   0  0  0  0  0  0  0  0  0  0  0  0
   46.6980   33.9560   44.1150 N   0  0  0  0  0  0  0  0  0  0  0  0
   45.8810   33.9330   45.1750 C   0  0  0  0  0  0  0  0  0  0  0  0
   44.8620   34.8110   45.2530 N   0  0  0  0  0  0  0  0  0  0  0  0
   47.4600   34.7760   42.0240 O   0  0  0  0  0  0  0  0  0  0  0  0
   48.7570   35.1930   42.1790 C   0  0  0  0  0  0  0  0  0  0  0  0
   49.1980   36.0490   41.3480 O   0  0  0  0  0  0  0  0  0  0  0  0
   49.6890   34.8060   43.1350 O   0  0  0  0  0  0  0  0  0  0  0  0
   43.8205   36.4090   44.3730 H   0  0  0  0  0  0  0  0  0  0  0  0
   45.3378   36.4886   42.3464 H   0  0  0  0  0  0  0  0  0  0  0  0
   46.0409   33.2000   45.9794 H   0  0  0  0  0  0  0  0  0  0  0  0
   50.5992   35.1952   43.1250 H   0  0  0  0  0  0  0  0  0  0  0  0
  1  6  2  0
  2  1  1  0
  3  2  2  0
  3  4  1  0
  4  5  2  0
  5  6  1  0
  7  8  1  0
  7  3  1  0
  8 10  1  0
  9  8  2  0
  1 11  1  0
  2 12  1  0
  5 13  1  0
 10 14  1  0
M  ISO  4  11  14  12  14  13  14  14   3
M  END
>  <minimizedAffinity>  (1) 
-3.87829757

>  <minimizedRMSD>  (1) 
0.759517848

$$$$
