
     RDKit          3D

 31 33  0  0  0  0  0  0  0  0999 V2000
   44.5770   34.8500   41.7670 C   0  0  0  0  0  0  0  0  0  0  0  0
   43.4670   33.8590   41.6650 C   0  0  0  0  0  0  0  0  0  0  0  0
   43.6290   32.5450   41.9530 N   0  0  0  0  0  0  0  0  0  0  0  0
   42.5620   31.7030   41.8560 C   0  0  0  0  0  0  0  0  0  0  0  0
   41.3170   32.1160   41.4770 N   0  0  0  0  0  0  0  0  0  0  0  0
   41.1440   33.4130   41.1890 C   0  0  0  0  0  0  0  0  0  0  0  0
   39.8900   33.8090   40.8050 C   0  0  0  0  0  0  0  0  0  0  0  0
   39.6440   35.1340   40.4870 C   0  0  0  0  0  0  0  0  0  0  0  0
   40.6860   36.0630   40.5600 C   0  0  0  0  0  0  0  0  0  0  0  0
   41.9210   35.5850   40.9560 C   0  0  0  0  0  0  0  0  0  0  0  0
   42.2160   34.2770   41.2830 C   0  0  0  0  0  0  0  0  0  0  0  0
   45.7410   34.3310   40.9630 C   0  0  0  0  0  0  0  0  0  0  0  0
   46.9220   35.0440   41.2900 O   0  0  0  0  0  0  0  0  0  0  0  0
   50.3570   34.1690   42.4220 C   0  0  0  0  0  0  0  0  0  0  0  0
   49.2310   34.9680   42.1300 C   0  0  0  0  0  0  0  0  0  0  0  0
   48.0910   34.3750   41.6180 C   0  0  0  0  0  0  0  0  0  0  0  0
   48.1350   33.0040   41.4220 N   0  0  0  0  0  0  0  0  0  0  0  0
   49.2110   32.2750   41.7060 C   0  0  0  0  0  0  0  0  0  0  0  0
   50.3160   32.8420   42.2010 N   0  0  0  0  0  0  0  0  0  0  0  0
   44.2491   35.8202   41.3654 H   0  0  0  0  0  0  0  0  0  0  0  0
   44.8703   34.9879   42.8182 H   0  0  0  0  0  0  0  0  0  0  0  0
   42.7108   30.6395   42.0945 H   0  0  0  0  0  0  0  0  0  0  0  0
   39.0756   33.0717   40.7491 H   0  0  0  0  0  0  0  0  0  0  0  0
   38.6371   35.4529   40.1795 H   0  0  0  0  0  0  0  0  0  0  0  0
   40.5305   37.1238   40.3140 H   0  0  0  0  0  0  0  0  0  0  0  0
   42.7433   36.3131   41.0160 H   0  0  0  0  0  0  0  0  0  0  0  0
   45.5264   34.4563   39.8914 H   0  0  0  0  0  0  0  0  0  0  0  0
   45.8900   33.2662   41.1956 H   0  0  0  0  0  0  0  0  0  0  0  0
   51.2681   34.6307   42.8302 H   0  0  0  0  0  0  0  0  0  0  0  0
   49.2596   36.0531   42.3080 H   0  0  0  0  0  0  0  0  0  0  0  0
   49.1912   31.1892   41.5309 H   0  0  0  0  0  0  0  0  0  0  0  0
  2  1  1  0
  2  3  2  0
  4  3  1  0
  5  4  2  0
  6 11  2  0
  6  5  1  0
  7  6  1  0
  8  9  1  0
  8  7  2  0
  9 10  2  0
 10 11  1  0
 11  2  1  0
 12 13  1  0
 12  1  1  0
 13 16  1  0
 15 14  2  0
 16 15  1  0
 17 16  2  0
 17 18  1  0
 18 19  2  0
 19 14  1  0
  1 20  1  0
  1 21  1  0
  4 22  1  0
  7 23  1  0
  8 24  1  0
  9 25  1  0
 10 26  1  0
 12 27  1  0
 12 28  1  0
 14 29  1  0
 15 30  1  0
 18 31  1  0
M  ISO  8  20   8  21   8  22  14  23  14  24  14  25  14  26  14  27   8
M  ISO  4  28   8  29  14  30  14  31  14
M  END
>  <minimizedAffinity>  (1) 
-4.72760391

>  <minimizedRMSD>  (1) 
8.13351345

$$$$
