
     RDKit          3D

 29 30  0  0  0  0  0  0  0  0999 V2000
   46.7360   34.3100   41.1570 C   0  0  0  0  0  0  0  0  0  0  0  0
   47.8980   35.2130   41.5150 C   0  0  0  0  0  0  0  0  0  0  0  0
   49.0650   34.4240   41.4670 N   0  0  0  0  0  0  0  0  0  0  0  0
   48.9860   33.1080   40.9690 C   0  0  0  0  0  0  0  0  0  0  0  0
   49.9370   32.2690   41.7950 C   0  0  0  0  0  0  0  0  0  0  0  0
   50.9050   33.2970   42.3350 C   0  0  0  0  0  0  0  0  0  0  0  0
   49.9970   34.5000   42.5310 C   0  0  0  0  0  0  0  0  0  0  0  0
   45.5500   34.8240   41.7010 O   0  0  0  0  0  0  0  0  0  0  0  0
   44.5460   35.6660   45.1810 C   0  0  0  0  0  0  0  0  0  0  0  0
   44.6990   35.7950   43.7950 C   0  0  0  0  0  0  0  0  0  0  0  0
   45.3410   34.8030   43.0730 C   0  0  0  0  0  0  0  0  0  0  0  0
   45.7980   33.7170   43.8020 N   0  0  0  0  0  0  0  0  0  0  0  0
   45.6440   33.6130   45.1150 C   0  0  0  0  0  0  0  0  0  0  0  0
   45.0260   34.5680   45.8120 N   0  0  0  0  0  0  0  0  0  0  0  0
   46.6413   34.2533   40.0626 H   0  0  0  0  0  0  0  0  0  0  0  0
   46.9175   33.3051   41.5658 H   0  0  0  0  0  0  0  0  0  0  0  0
   47.9708   36.0390   40.7922 H   0  0  0  0  0  0  0  0  0  0  0  0
   47.7612   35.6498   42.5152 H   0  0  0  0  0  0  0  0  0  0  0  0
   47.9593   32.7262   41.0697 H   0  0  0  0  0  0  0  0  0  0  0  0
   49.2539   33.0732   39.9027 H   0  0  0  0  0  0  0  0  0  0  0  0
   49.4069   31.7563   42.6112 H   0  0  0  0  0  0  0  0  0  0  0  0
   50.4261   31.4695   41.2191 H   0  0  0  0  0  0  0  0  0  0  0  0
   51.3483   32.9696   43.2870 H   0  0  0  0  0  0  0  0  0  0  0  0
   51.7659   33.4890   41.6778 H   0  0  0  0  0  0  0  0  0  0  0  0
   50.5741   35.4348   42.4752 H   0  0  0  0  0  0  0  0  0  0  0  0
   49.5062   34.4951   43.5154 H   0  0  0  0  0  0  0  0  0  0  0  0
   44.0374   36.4542   45.7555 H   0  0  0  0  0  0  0  0  0  0  0  0
   44.3089   36.6850   43.2795 H   0  0  0  0  0  0  0  0  0  0  0  0
   46.0317   32.7259   45.6373 H   0  0  0  0  0  0  0  0  0  0  0  0
  1  2  1  0
  1  8  1  0
  3  2  1  0
  3  7  1  0
  4  3  1  0
  4  5  1  0
  5  6  1  0
  6  7  1  0
  8 11  1  0
  9 14  2  0
 10  9  1  0
 11 10  2  0
 11 12  1  0
 12 13  2  0
 13 14  1  0
  1 15  1  0
  1 16  1  0
  2 17  1  0
  2 18  1  0
  4 19  1  0
  4 20  1  0
  5 21  1  0
  5 22  1  0
  6 23  1  0
  6 24  1  0
  7 25  1  0
  7 26  1  0
  9 27  1  0
 10 28  1  0
 13 29  1  0
M  ISO  8  15   8  16   8  17   8  18   8  19  13  20  13  21  13  22  13
M  ISO  7  23  13  24  13  25  13  26  13  27  14  28  14  29  14
M  END
>  <minimizedAffinity>  (1) 
-4.00251913

>  <minimizedRMSD>  (1) 
1.58520925

$$$$
