
     RDKit          3D

 24 25  0  0  0  0  0  0  0  0999 V2000
   46.7820   34.9230   42.0250 O   0  0  0  0  0  0  0  0  0  0  0  0
   44.4730   35.9840   44.7220 C   0  0  0  0  0  0  0  0  0  0  0  0
   45.1560   35.9980   43.4880 C   0  0  0  0  0  0  0  0  0  0  0  0
   46.0680   34.9930   43.2010 C   0  0  0  0  0  0  0  0  0  0  0  0
   46.2540   34.0280   44.1530 N   0  0  0  0  0  0  0  0  0  0  0  0
   45.6000   34.0200   45.3280 C   0  0  0  0  0  0  0  0  0  0  0  0
   44.7060   34.9970   45.6180 N   0  0  0  0  0  0  0  0  0  0  0  0
   48.1690   35.1390   41.9930 C   0  0  0  0  0  0  0  0  0  0  0  0
   48.6470   35.2470   40.5600 C   0  0  0  0  0  0  0  0  0  0  0  0
   47.8260   34.3030   39.7200 C   0  0  0  0  0  0  0  0  0  0  0  0
   48.4650   33.0550   39.2080 C   0  0  0  0  0  0  0  0  0  0  0  0
   48.1850   34.2390   38.2650 C   0  0  0  0  0  0  0  0  0  0  0  0
   43.7487   36.7779   44.9568 H   0  0  0  0  0  0  0  0  0  0  0  0
   44.9669   36.7997   42.7589 H   0  0  0  0  0  0  0  0  0  0  0  0
   45.7911   33.2180   46.0563 H   0  0  0  0  0  0  0  0  0  0  0  0
   48.4041   36.0720   42.5261 H   0  0  0  0  0  0  0  0  0  0  0  0
   48.6761   34.2921   42.4784 H   0  0  0  0  0  0  0  0  0  0  0  0
   48.5148   36.2778   40.1996 H   0  0  0  0  0  0  0  0  0  0  0  0
   49.7137   34.9866   40.4935 H   0  0  0  0  0  0  0  0  0  0  0  0
   46.9067   34.4943   40.2930 H   0  0  0  0  0  0  0  0  0  0  0  0
   49.4986   32.8077   39.4916 H   0  0  0  0  0  0  0  0  0  0  0  0
   48.2095   31.9851   39.2171 H   0  0  0  0  0  0  0  0  0  0  0  0
   49.0167   34.8430   37.8733 H   0  0  0  0  0  0  0  0  0  0  0  0
   47.6448   34.3762   37.3167 H   0  0  0  0  0  0  0  0  0  0  0  0
  1  4  1  0
  2  7  2  0
  3  2  1  0
  4  3  2  0
  4  5  1  0
  5  6  2  0
  6  7  1  0
  8  1  1  0
  9  8  1  0
 10  9  1  0
 11 10  1  0
 12 11  1  0
 12 10  1  0
  2 13  1  0
  3 14  1  0
  6 15  1  0
  8 16  1  0
  8 17  1  0
  9 18  1  0
  9 19  1  0
 10 20  1  0
 11 21  1  0
 11 22  1  0
 12 23  1  0
 12 24  1  0
M  ISO  8  13  14  14  14  15  14  16   8  17   8  18   8  19   8  20  13
M  ISO  4  21  13  22  13  23  13  24  13
M  END
>  <minimizedAffinity>  (1) 
-3.99028778

>  <minimizedRMSD>  (1) 
1.34174931

$$$$
