
     RDKit          3D

 24 25  0  0  0  0  0  0  0  0999 V2000
   46.7450   33.0550   44.8650 C   0  0  0  0  0  0  0  0  0  0  0  0
   45.7970   33.4690   45.9710 C   0  0  0  0  0  0  0  0  0  0  0  0
   46.1880   32.7190   47.1510 N   0  0  0  0  0  0  0  0  0  0  0  0
   47.3480   32.3310   47.6060 N   0  0  0  0  0  0  0  0  0  0  0  0
   47.2290   31.6480   48.7610 C   0  0  0  0  0  0  0  0  0  0  0  0
   45.8860   31.5950   49.0680 C   0  0  0  0  0  0  0  0  0  0  0  0
   45.2550   32.2790   48.0340 C   0  0  0  0  0  0  0  0  0  0  0  0
   46.9730   34.1480   43.9910 O   0  0  0  0  0  0  0  0  0  0  0  0
   44.2080   35.7780   42.1030 C   0  0  0  0  0  0  0  0  0  0  0  0
   45.1390   35.5210   43.1320 C   0  0  0  0  0  0  0  0  0  0  0  0
   46.0350   34.4650   43.0340 C   0  0  0  0  0  0  0  0  0  0  0  0
   45.9380   33.7210   41.8880 N   0  0  0  0  0  0  0  0  0  0  0  0
   45.0600   33.9610   40.9150 C   0  0  0  0  0  0  0  0  0  0  0  0
   44.1920   34.9930   41.0210 N   0  0  0  0  0  0  0  0  0  0  0  0
   47.7008   32.7341   45.3049 H   0  0  0  0  0  0  0  0  0  0  0  0
   46.2994   32.2244   44.2979 H   0  0  0  0  0  0  0  0  0  0  0  0
   45.8834   34.5490   46.1612 H   0  0  0  0  0  0  0  0  0  0  0  0
   44.7518   33.2631   45.6969 H   0  0  0  0  0  0  0  0  0  0  0  0
   48.0504   31.2135   49.3496 H   0  0  0  0  0  0  0  0  0  0  0  0
   45.4161   31.1165   49.9399 H   0  0  0  0  0  0  0  0  0  0  0  0
   44.1702   32.4384   47.9456 H   0  0  0  0  0  0  0  0  0  0  0  0
   43.5018   36.6168   42.1905 H   0  0  0  0  0  0  0  0  0  0  0  0
   45.1550   36.1656   44.0232 H   0  0  0  0  0  0  0  0  0  0  0  0
   45.0409   33.3179   40.0228 H   0  0  0  0  0  0  0  0  0  0  0  0
  1  2  1  0
  2  3  1  0
  3  4  1  0
  3  7  1  0
  4  5  2  0
  5  6  1  0
  7  6  2  0
  8  1  1  0
  9 10  2  0
 11 10  1  0
 11  8  1  0
 12 11  2  0
 13 14  2  0
 13 12  1  0
 14  9  1  0
  1 15  1  0
  1 16  1  0
  2 17  1  0
  2 18  1  0
  5 19  1  0
  6 20  1  0
  7 21  1  0
  9 22  1  0
 10 23  1  0
 13 24  1  0
M  ISO  8  15   8  16   8  17   8  18   8  19  14  20  14  21  14  22  14
M  ISO  2  23  14  24  14
M  END
>  <minimizedAffinity>  (1) 
-3.83386922

>  <minimizedRMSD>  (1) 
6.02411079

$$$$
