
     RDKit          3D

 33 34  0  0  0  0  0  0  0  0999 V2000
   46.8750   34.2160   42.9930 C   0  0  0  0  0  0  0  0  0  0  0  0
   48.3140   34.5740   42.8990 C   0  0  0  0  0  0  0  0  0  0  0  0
   49.1130   33.7760   41.9360 C   0  0  0  0  0  0  0  0  0  0  0  0
   48.4400   32.4100   41.8470 C   0  0  0  0  0  0  0  0  0  0  0  0
   49.0980   31.4890   42.8510 C   0  0  0  0  0  0  0  0  0  0  0  0
   50.4680   31.1070   42.3180 C   0  0  0  0  0  0  0  0  0  0  0  0
   51.0830   32.3130   41.6410 C   0  0  0  0  0  0  0  0  0  0  0  0
   50.5430   33.5670   42.3220 C   0  0  0  0  0  0  0  0  0  0  0  0
   46.0710   35.1320   42.2750 O   0  0  0  0  0  0  0  0  0  0  0  0
   42.5010   35.2110   41.2660 C   0  0  0  0  0  0  0  0  0  0  0  0
   43.7670   35.7120   41.6040 C   0  0  0  0  0  0  0  0  0  0  0  0
   44.7700   34.7880   41.9210 C   0  0  0  0  0  0  0  0  0  0  0  0
   44.4370   33.4630   41.8760 N   0  0  0  0  0  0  0  0  0  0  0  0
   43.2150   33.0030   41.5480 C   0  0  0  0  0  0  0  0  0  0  0  0
   42.2450   33.8920   41.2420 N   0  0  0  0  0  0  0  0  0  0  0  0
   46.7284   33.2080   42.5777 H   0  0  0  0  0  0  0  0  0  0  0  0
   46.5772   34.2471   44.0515 H   0  0  0  0  0  0  0  0  0  0  0  0
   48.3808   35.6305   42.6001 H   0  0  0  0  0  0  0  0  0  0  0  0
   48.7412   34.3637   43.8906 H   0  0  0  0  0  0  0  0  0  0  0  0
   49.1394   34.3322   40.9873 H   0  0  0  0  0  0  0  0  0  0  0  0
   47.3690   32.5074   42.0780 H   0  0  0  0  0  0  0  0  0  0  0  0
   48.5463   32.0009   40.8314 H   0  0  0  0  0  0  0  0  0  0  0  0
   49.2048   32.0057   43.8162 H   0  0  0  0  0  0  0  0  0  0  0  0
   48.4838   30.5887   43.0002 H   0  0  0  0  0  0  0  0  0  0  0  0
   51.1107   30.7824   43.1496 H   0  0  0  0  0  0  0  0  0  0  0  0
   50.3711   30.2827   41.5961 H   0  0  0  0  0  0  0  0  0  0  0  0
   52.1780   32.2776   41.7396 H   0  0  0  0  0  0  0  0  0  0  0  0
   50.8271   32.3207   40.5712 H   0  0  0  0  0  0  0  0  0  0  0  0
   51.1372   34.4379   42.0082 H   0  0  0  0  0  0  0  0  0  0  0  0
   50.6112   33.4462   43.4132 H   0  0  0  0  0  0  0  0  0  0  0  0
   41.6960   35.9170   41.0138 H   0  0  0  0  0  0  0  0  0  0  0  0
   43.9649   36.7939   41.6195 H   0  0  0  0  0  0  0  0  0  0  0  0
   43.0100   31.9224   41.5295 H   0  0  0  0  0  0  0  0  0  0  0  0
  2  1  1  0
  3  8  1  0
  3  2  1  0
  4  3  1  0
  4  5  1  0
  6  5  1  0
  7  6  1  0
  7  8  1  0
  9  1  1  0
 10 11  2  0
 11 12  1  0
 12  9  1  0
 13 12  2  0
 14 13  1  0
 15 10  1  0
 15 14  2  0
  1 16  1  0
  1 17  1  0
  2 18  1  0
  2 19  1  0
  3 20  1  0
  4 21  1  0
  4 22  1  0
  5 23  1  0
  5 24  1  0
  6 25  1  0
  6 26  1  0
  7 27  1  0
  7 28  1  0
  8 29  1  0
  8 30  1  0
 10 31  1  0
 11 32  1  0
 14 33  1  0
M  ISO  8  16   8  17   8  18   8  19   8  20  13  21  13  22  13  23  13
M  ISO  8  24  13  25  13  26  13  27  13  28  13  29  13  30  13  31  14
M  ISO  2  32  14  33  14
M  END
>  <minimizedAffinity>  (1) 
-3.60871601

>  <minimizedRMSD>  (1) 
4.6913681

$$$$
