
     RDKit          3D

 18 18  0  0  0  0  0  0  0  0999 V2000
   44.4690   36.0290   44.7620 C   0  0  0  0  0  0  0  0  0  0  0  0
   45.0760   36.0500   43.5000 C   0  0  0  0  0  0  0  0  0  0  0  0
   45.9510   35.0410   43.1300 C   0  0  0  0  0  0  0  0  0  0  0  0
   46.1740   34.0570   44.0500 N   0  0  0  0  0  0  0  0  0  0  0  0
   45.5930   34.0330   45.2660 C   0  0  0  0  0  0  0  0  0  0  0  0
   44.7380   35.0200   45.6250 N   0  0  0  0  0  0  0  0  0  0  0  0
   46.5970   34.9700   41.9170 O   0  0  0  0  0  0  0  0  0  0  0  0
   47.9150   34.5040   41.8060 C   0  0  0  0  0  0  0  0  0  0  0  0
   48.6940   35.4030   40.8760 C   0  0  0  0  0  0  0  0  0  0  0  0
   49.3020   36.3850   41.6550 O   0  0  0  0  0  0  0  0  0  0  0  0
   43.7744   36.8311   45.0522 H   0  0  0  0  0  0  0  0  0  0  0  0
   44.8575   36.8701   42.8002 H   0  0  0  0  0  0  0  0  0  0  0  0
   45.8129   33.2131   45.9656 H   0  0  0  0  0  0  0  0  0  0  0  0
   48.3887   34.5058   42.7988 H   0  0  0  0  0  0  0  0  0  0  0  0
   47.9076   33.4804   41.4032 H   0  0  0  0  0  0  0  0  0  0  0  0
   48.0144   35.8690   40.1473 H   0  0  0  0  0  0  0  0  0  0  0  0
   49.4486   34.8261   40.3212 H   0  0  0  0  0  0  0  0  0  0  0  0
   49.1713   36.1739   42.6133 H   0  0  0  0  0  0  0  0  0  0  0  0
  1  6  2  0
  2  1  1  0
  3  2  2  0
  3  4  1  0
  4  5  2  0
  5  6  1  0
  7  3  1  0
  8  7  1  0
  9 10  1  0
  9  8  1  0
  1 11  1  0
  2 12  1  0
  5 13  1  0
  8 14  1  0
  8 15  1  0
  9 16  1  0
  9 17  1  0
 10 18  1  0
M  ISO  8  11  14  12  14  13  14  14   8  15   8  16   8  17   8  18   3
M  END
>  <minimizedAffinity>  (1) 
-3.49931002

>  <minimizedRMSD>  (1) 
0.4832398

$$$$
