
     RDKit          3D

 18 18  0  0  0  0  0  0  0  0999 V2000
   44.5300   35.9890   44.7670 C   0  0  0  0  0  0  0  0  0  0  0  0
   44.8770   36.0450   43.4170 C   0  0  0  0  0  0  0  0  0  0  0  0
   45.6040   34.9660   42.8810 C   0  0  0  0  0  0  0  0  0  0  0  0
   45.9190   33.9300   43.7350 N   0  0  0  0  0  0  0  0  0  0  0  0
   45.5610   33.9220   45.0340 C   0  0  0  0  0  0  0  0  0  0  0  0
   44.8620   34.9600   45.5480 N   0  0  0  0  0  0  0  0  0  0  0  0
   46.0240   34.8730   41.5580 O   0  0  0  0  0  0  0  0  0  0  0  0
   47.0390   33.9800   41.1840 C   0  0  0  0  0  0  0  0  0  0  0  0
   48.1710   34.7310   40.5210 C   0  0  0  0  0  0  0  0  0  0  0  0
   49.0900   35.7630   41.6610 S   0  0  0  0  0  0  0  0  0  0  0  0
   43.9619   36.8238   45.2033 H   0  0  0  0  0  0  0  0  0  0  0  0
   44.5917   36.9042   42.7922 H   0  0  0  0  0  0  0  0  0  0  0  0
   45.8368   33.0723   45.6759 H   0  0  0  0  0  0  0  0  0  0  0  0
   47.4186   33.4648   42.0787 H   0  0  0  0  0  0  0  0  0  0  0  0
   46.6298   33.2450   40.4752 H   0  0  0  0  0  0  0  0  0  0  0  0
   48.8619   34.0007   40.0746 H   0  0  0  0  0  0  0  0  0  0  0  0
   47.7268   35.3931   39.7632 H   0  0  0  0  0  0  0  0  0  0  0  0
   48.7776   35.4122   42.9480 H   0  0  0  0  0  0  0  0  0  0  0  0
  1  6  2  0
  2  1  1  0
  3  2  2  0
  3  4  1  0
  4  5  2  0
  5  6  1  0
  7  3  1  0
  8  7  1  0
  9  8  1  0
  9 10  1  0
  1 11  1  0
  2 12  1  0
  5 13  1  0
  8 14  1  0
  8 15  1  0
  9 16  1  0
  9 17  1  0
 10 18  1  0
M  ISO  8  11  14  12  14  13  14  14   8  15   8  16   8  17   8  18  11
M  END
>  <minimizedAffinity>  (1) 
-3.30425382

>  <minimizedRMSD>  (1) 
0.99621135

$$$$
