
     RDKit          3D

 33 35  0  0  0  0  0  0  0  0999 V2000
   47.8080   34.0400   39.8200 C   0  0  0  0  0  0  0  0  0  0  0  0
   46.6920   33.9540   38.9340 N   0  0  0  0  0  0  0  0  0  0  0  0
   46.7630   33.2350   37.7090 C   0  0  0  0  0  0  0  0  0  0  0  0
   45.6900   33.1590   36.9040 N   0  0  0  0  0  0  0  0  0  0  0  0
   45.7940   32.4630   35.7610 C   0  0  0  0  0  0  0  0  0  0  0  0
   46.8890   31.8170   35.3270 N   0  0  0  0  0  0  0  0  0  0  0  0
   47.9890   31.8670   36.1010 C   0  0  0  0  0  0  0  0  0  0  0  0
   49.1270   31.2200   35.6890 C   0  0  0  0  0  0  0  0  0  0  0  0
   50.2740   31.2650   36.4860 C   0  0  0  0  0  0  0  0  0  0  0  0
   50.2000   31.9680   37.6590 C   0  0  0  0  0  0  0  0  0  0  0  0
   49.0480   32.6040   38.0430 C   0  0  0  0  0  0  0  0  0  0  0  0
   47.9130   32.5820   37.2940 C   0  0  0  0  0  0  0  0  0  0  0  0
   47.3330   33.8170   41.2290 C   0  0  0  0  0  0  0  0  0  0  0  0
   46.8480   35.0370   41.7620 O   0  0  0  0  0  0  0  0  0  0  0  0
   44.5400   35.8900   44.5440 C   0  0  0  0  0  0  0  0  0  0  0  0
   45.1730   36.0100   43.3040 C   0  0  0  0  0  0  0  0  0  0  0  0
   46.1360   35.0550   42.9540 C   0  0  0  0  0  0  0  0  0  0  0  0
   46.3940   34.0540   43.8740 N   0  0  0  0  0  0  0  0  0  0  0  0
   45.7680   33.9730   45.0540 C   0  0  0  0  0  0  0  0  0  0  0  0
   44.8410   34.8970   45.3810 N   0  0  0  0  0  0  0  0  0  0  0  0
   48.2672   35.0363   39.7390 H   0  0  0  0  0  0  0  0  0  0  0  0
   48.5534   33.2761   39.5539 H   0  0  0  0  0  0  0  0  0  0  0  0
   45.8122   34.4251   39.1886 H   0  0  0  0  0  0  0  0  0  0  0  0
   44.9006   32.4174   35.1209 H   0  0  0  0  0  0  0  0  0  0  0  0
   49.1362   30.6692   34.7369 H   0  0  0  0  0  0  0  0  0  0  0  0
   51.2005   30.7554   36.1829 H   0  0  0  0  0  0  0  0  0  0  0  0
   51.0861   32.0236   38.3085 H   0  0  0  0  0  0  0  0  0  0  0  0
   49.0413   33.1544   38.9954 H   0  0  0  0  0  0  0  0  0  0  0  0
   46.5258   33.0697   41.2300 H   0  0  0  0  0  0  0  0  0  0  0  0
   48.1690   33.4541   41.8449 H   0  0  0  0  0  0  0  0  0  0  0  0
   43.7789   36.6289   44.8350 H   0  0  0  0  0  0  0  0  0  0  0  0
   44.9213   36.8338   42.6199 H   0  0  0  0  0  0  0  0  0  0  0  0
   46.0078   33.1581   45.7529 H   0  0  0  0  0  0  0  0  0  0  0  0
  1 13  1  0
  2  1  1  0
  3  2  1  0
  4  3  2  0
  5  4  1  0
  6  5  2  0
  6  7  1  0
  7 12  2  0
  8  7  1  0
  8  9  2  0
  9 10  1  0
 10 11  2  0
 12  3  1  0
 12 11  1  0
 13 14  1  0
 14 17  1  0
 15 20  2  0
 16 15  1  0
 17 16  2  0
 17 18  1  0
 18 19  2  0
 19 20  1  0
  1 21  1  0
  1 22  1  0
  2 23  1  0
  5 24  1  0
  8 25  1  0
  9 26  1  0
 10 27  1  0
 11 28  1  0
 13 29  1  0
 13 30  1  0
 15 31  1  0
 16 32  1  0
 19 33  1  0
M  ISO  8  21   8  22   8  24  14  25  14  26  14  27  14  28  14  29   8
M  ISO  4  30   8  31  14  32  14  33  14
M  END
>  <minimizedAffinity>  (1) 
-4.72183943

>  <minimizedRMSD>  (1) 
3.2191782

$$$$
