
     RDKit          3D

 28 29  0  0  0  0  0  0  0  0999 V2000
   47.8990   35.1300   41.8190 C   0  0  0  0  0  0  0  0  0  0  0  0
   48.3380   34.8110   40.4040 C   0  0  0  0  0  0  0  0  0  0  0  0
   47.2000   34.2220   39.7430 N   0  0  0  0  0  0  0  0  0  0  0  0
   47.3750   33.6370   38.4430 C   0  0  0  0  0  0  0  0  0  0  0  0
   48.4190   34.1050   37.6590 C   0  0  0  0  0  0  0  0  0  0  0  0
   48.5940   33.5430   36.4030 C   0  0  0  0  0  0  0  0  0  0  0  0
   47.7570   32.5490   35.9390 C   0  0  0  0  0  0  0  0  0  0  0  0
   46.7450   32.1350   36.7700 C   0  0  0  0  0  0  0  0  0  0  0  0
   46.5630   32.6710   37.9940 N   0  0  0  0  0  0  0  0  0  0  0  0
   46.5040   34.9590   41.9270 O   0  0  0  0  0  0  0  0  0  0  0  0
   44.4630   36.0290   44.8300 C   0  0  0  0  0  0  0  0  0  0  0  0
   45.0220   36.0800   43.5540 C   0  0  0  0  0  0  0  0  0  0  0  0
   45.8800   35.0430   43.1570 C   0  0  0  0  0  0  0  0  0  0  0  0
   46.1020   34.0440   44.0790 N   0  0  0  0  0  0  0  0  0  0  0  0
   45.5450   34.0210   45.3130 C   0  0  0  0  0  0  0  0  0  0  0  0
   44.7300   35.0240   45.6660 N   0  0  0  0  0  0  0  0  0  0  0  0
   48.1606   36.1713   42.0583 H   0  0  0  0  0  0  0  0  0  0  0  0
   48.4072   34.4539   42.5223 H   0  0  0  0  0  0  0  0  0  0  0  0
   48.6442   35.7312   39.8849 H   0  0  0  0  0  0  0  0  0  0  0  0
   49.1980   34.1251   40.4004 H   0  0  0  0  0  0  0  0  0  0  0  0
   46.2752   34.2208   40.1964 H   0  0  0  0  0  0  0  0  0  0  0  0
   49.0885   34.8985   38.0225 H   0  0  0  0  0  0  0  0  0  0  0  0
   49.4165   33.8968   35.7641 H   0  0  0  0  0  0  0  0  0  0  0  0
   47.8950   32.1053   34.9420 H   0  0  0  0  0  0  0  0  0  0  0  0
   46.0629   31.3430   36.4272 H   0  0  0  0  0  0  0  0  0  0  0  0
   43.7875   36.8343   45.1545 H   0  0  0  0  0  0  0  0  0  0  0  0
   44.7956   36.9143   42.8737 H   0  0  0  0  0  0  0  0  0  0  0  0
   45.7570   33.1970   46.0102 H   0  0  0  0  0  0  0  0  0  0  0  0
  1 10  1  0
  2  1  1  0
  3  2  1  0
  4  3  1  0
  5  4  2  0
  6  5  1  0
  7  6  2  0
  7  8  1  0
  8  9  2  0
  9  4  1  0
 10 13  1  0
 11 16  2  0
 12 11  1  0
 13 12  2  0
 13 14  1  0
 14 15  2  0
 15 16  1  0
  1 17  1  0
  1 18  1  0
  2 19  1  0
  2 20  1  0
  3 21  1  0
  5 22  1  0
  6 23  1  0
  7 24  1  0
  8 25  1  0
 11 26  1  0
 12 27  1  0
 15 28  1  0
M  ISO  8  17   8  18   8  19   8  20   8  22  14  23  14  24  14  25  14
M  ISO  3  26  14  27  14  28  14
M  END
>  <minimizedAffinity>  (1) 
-4.31899071

>  <minimizedRMSD>  (1) 
3.58629704

$$$$
