
     RDKit          3D

 31 32  0  0  1  0  0  0  0  0999 V2000
   46.8240   33.3540   44.5600 C   0  0  0  0  0  0  0  0  0  0  0  0
   46.8350   32.4000   45.7450 C   0  0  0  0  0  0  0  0  0  0  0  0
   46.9280   33.2280   46.9110 N   0  0  0  0  0  0  0  0  0  0  0  0
   44.9050   32.4990   48.0110 N   0  0  0  0  0  0  0  0  0  0  0  0
   44.5970   31.3490   48.8510 C   0  0  0  0  0  0  0  0  0  0  0  0
   45.6450   30.3030   48.5650 C   0  0  0  0  0  0  0  0  0  0  0  0
   46.7320   31.0200   47.8010 C   0  0  0  0  0  0  0  0  0  0  0  0
   46.3500   32.4730   48.0090 C   0  0  1  0  0  0  0  0  0  0  0  0
   47.8480   33.0390   43.6660 O   0  0  0  0  0  0  0  0  0  0  0  0
   47.9730   34.4990   40.2590 C   0  0  0  0  0  0  0  0  0  0  0  0
   47.5930   33.5810   41.2250 C   0  0  0  0  0  0  0  0  0  0  0  0
   48.0930   33.8240   42.5280 C   0  0  0  0  0  0  0  0  0  0  0  0
   48.8950   34.9330   42.7090 N   0  0  0  0  0  0  0  0  0  0  0  0
   49.2270   35.7910   41.7190 C   0  0  0  0  0  0  0  0  0  0  0  0
   48.7480   35.5490   40.4870 N   0  0  0  0  0  0  0  0  0  0  0  0
   45.8562   33.2768   44.0428 H   0  0  0  0  0  0  0  0  0  0  0  0
   46.9780   34.3789   44.9286 H   0  0  0  0  0  0  0  0  0  0  0  0
   45.9085   31.8076   45.7686 H   0  0  0  0  0  0  0  0  0  0  0  0
   47.6722   31.6891   45.6851 H   0  0  0  0  0  0  0  0  0  0  0  0
   47.9140   33.4478   47.1121 H   0  0  0  0  0  0  0  0  0  0  0  0
   44.5250   32.3837   47.0606 H   0  0  0  0  0  0  0  0  0  0  0  0
   44.6295   31.6365   49.9123 H   0  0  0  0  0  0  0  0  0  0  0  0
   43.5889   30.9644   48.6370 H   0  0  0  0  0  0  0  0  0  0  0  0
   46.0429   29.8906   49.5039 H   0  0  0  0  0  0  0  0  0  0  0  0
   45.2333   29.4583   47.9932 H   0  0  0  0  0  0  0  0  0  0  0  0
   46.7167   30.7505   46.7346 H   0  0  0  0  0  0  0  0  0  0  0  0
   47.7499   30.7742   48.1379 H   0  0  0  0  0  0  0  0  0  0  0  0
   46.7181   32.9149   48.9467 H   0  0  0  0  0  0  0  0  0  0  0  0
   47.6063   34.3455   39.2334 H   0  0  0  0  0  0  0  0  0  0  0  0
   46.9464   32.7212   40.9954 H   0  0  0  0  0  0  0  0  0  0  0  0
   49.8701   36.6614   41.9158 H   0  0  0  0  0  0  0  0  0  0  0  0
  1  2  1  0
  2  3  1  0
  4  5  1  0
  6  5  1  0
  7  8  1  0
  7  6  1  0
  8  3  1  0
  8  4  1  0
  9  1  1  0
 10 15  2  0
 10 11  1  0
 11 12  2  0
 12 13  1  0
 12  9  1  0
 14 13  2  0
 15 14  1  0
  1 16  1  0
  1 17  1  0
  2 18  1  0
  2 19  1  0
  3 20  1  0
  4 21  1  0
  5 22  1  0
  5 23  1  0
  6 24  1  0
  6 25  1  0
  7 26  1  0
  7 27  1  0
  8 28  1  1
 10 29  1  0
 11 30  1  0
 14 31  1  0
M  ISO  8  16   8  17   8  18   8  19   8  20   5  21   5  22  13  23  13
M  ISO  8  24  13  25  13  26  13  27  13  28  13  29  14  30  14  31  14
M  END
>  <minimizedAffinity>  (1) 
-4.30006075

>  <minimizedRMSD>  (1) 
8.03775215

$$$$
