
     RDKit          3D

 21 21  0  0  0  0  0  0  0  0999 V2000
   47.6790   34.3410   41.6750 C   0  0  0  0  0  0  0  0  0  0  0  0
   48.6540   35.3760   41.1720 C   0  0  0  0  0  0  0  0  0  0  0  0
   48.7700   35.2330   39.7580 N   0  0  0  0  0  0  0  0  0  0  0  0
   48.1920   34.2920   38.8760 C   0  0  0  0  0  0  0  0  0  0  0  0
   48.2200   34.5480   37.6480 O   0  0  0  0  0  0  0  0  0  0  0  0
   46.4190   34.9050   41.8470 O   0  0  0  0  0  0  0  0  0  0  0  0
   44.4810   36.0530   44.7940 C   0  0  0  0  0  0  0  0  0  0  0  0
   45.0090   36.0730   43.5080 C   0  0  0  0  0  0  0  0  0  0  0  0
   45.8260   35.0220   43.0920 C   0  0  0  0  0  0  0  0  0  0  0  0
   46.0490   34.0270   44.0100 N   0  0  0  0  0  0  0  0  0  0  0  0
   45.5270   34.0310   45.2510 C   0  0  0  0  0  0  0  0  0  0  0  0
   44.7460   35.0440   45.6370 N   0  0  0  0  0  0  0  0  0  0  0  0
   48.0341   33.9465   42.6385 H   0  0  0  0  0  0  0  0  0  0  0  0
   47.6086   33.5285   40.9368 H   0  0  0  0  0  0  0  0  0  0  0  0
   48.2850   36.3834   41.4148 H   0  0  0  0  0  0  0  0  0  0  0  0
   49.6353   35.2351   41.6486 H   0  0  0  0  0  0  0  0  0  0  0  0
   49.3756   35.9315   39.3040 H   0  0  0  0  0  0  0  0  0  0  0  0
   47.7330   33.3663   39.2534 H   0  0  0  0  0  0  0  0  0  0  0  0
   43.8347   36.8790   45.1258 H   0  0  0  0  0  0  0  0  0  0  0  0
   44.7851   36.9074   42.8271 H   0  0  0  0  0  0  0  0  0  0  0  0
   45.7425   33.2042   45.9438 H   0  0  0  0  0  0  0  0  0  0  0  0
  1  6  1  0
  2  1  1  0
  3  2  1  0
  4  3  1  0
  5  4  2  0
  6  9  1  0
  7 12  2  0
  8  7  1  0
  9  8  2  0
  9 10  1  0
 10 11  2  0
 11 12  1  0
  1 13  1  0
  1 14  1  0
  2 15  1  0
  2 16  1  0
  3 17  1  0
  4 18  1  0
  7 19  1  0
  8 20  1  0
 11 21  1  0
M  ISO  8  13   8  14   8  15   8  16   8  18   6  19  14  20  14  21  14
M  END
>  <minimizedAffinity>  (1) 
-4.03898287

>  <minimizedRMSD>  (1) 
0.704961479

$$$$
