
     RDKit          3D

 28 28  0  0  0  0  0  0  0  0999 V2000
   46.9730   32.9490   44.8350 C   0  0  0  0  0  0  0  0  0  0  0  0
   46.6790   33.9750   43.7450 C   0  0  0  0  0  0  0  0  0  0  0  0
   47.9320   34.3570   43.2000 N   0  0  0  0  0  0  0  0  0  0  0  0
   47.8930   35.1700   42.0380 C   0  0  0  0  0  0  0  0  0  0  0  0
   49.1750   35.8530   41.7030 C   0  0  0  0  0  0  0  0  0  0  0  0
   47.4120   34.4010   40.8380 C   0  0  0  0  0  0  0  0  0  0  0  0
   46.5530   33.4140   46.0810 O   0  0  0  0  0  0  0  0  0  0  0  0
   47.2720   31.1330   48.9270 C   0  0  0  0  0  0  0  0  0  0  0  0
   47.5430   31.9520   47.8370 C   0  0  0  0  0  0  0  0  0  0  0  0
   46.4640   32.5630   47.1890 C   0  0  0  0  0  0  0  0  0  0  0  0
   45.2090   32.3030   47.6840 N   0  0  0  0  0  0  0  0  0  0  0  0
   44.9720   31.5090   48.7360 C   0  0  0  0  0  0  0  0  0  0  0  0
   46.0220   30.9230   49.3570 N   0  0  0  0  0  0  0  0  0  0  0  0
   48.0559   32.7583   44.8678 H   0  0  0  0  0  0  0  0  0  0  0  0
   46.4272   32.0226   44.6028 H   0  0  0  0  0  0  0  0  0  0  0  0
   46.0457   33.5285   42.9643 H   0  0  0  0  0  0  0  0  0  0  0  0
   46.1418   34.8441   44.1525 H   0  0  0  0  0  0  0  0  0  0  0  0
   48.4455   34.8746   43.9275 H   0  0  0  0  0  0  0  0  0  0  0  0
   47.1746   35.9623   42.2954 H   0  0  0  0  0  0  0  0  0  0  0  0
   49.6960   36.1306   42.6312 H   0  0  0  0  0  0  0  0  0  0  0  0
   49.8098   35.1735   41.1153 H   0  0  0  0  0  0  0  0  0  0  0  0
   48.9652   36.7589   41.1153 H   0  0  0  0  0  0  0  0  0  0  0  0
   46.8560   33.5121   41.1709 H   0  0  0  0  0  0  0  0  0  0  0  0
   46.7527   35.0405   40.2328 H   0  0  0  0  0  0  0  0  0  0  0  0
   48.2756   34.0880   40.2328 H   0  0  0  0  0  0  0  0  0  0  0  0
   48.1072   30.6444   49.4502 H   0  0  0  0  0  0  0  0  0  0  0  0
   48.5754   32.1149   47.4940 H   0  0  0  0  0  0  0  0  0  0  0  0
   43.9443   31.3365   49.0884 H   0  0  0  0  0  0  0  0  0  0  0  0
  1  7  1  0
  2  1  1  0
  3  2  1  0
  4  3  1  0
  5  4  1  0
  6  4  1  0
  7 10  1  0
  8 13  2  0
  9  8  1  0
 10 11  1  0
 10  9  2  0
 11 12  2  0
 12 13  1  0
  1 14  1  0
  1 15  1  0
  2 16  1  0
  2 17  1  0
  3 18  1  0
  4 19  1  0
  5 20  1  0
  5 21  1  0
  5 22  1  0
  6 23  1  0
  6 24  1  0
  6 25  1  0
  8 26  1  0
  9 27  1  0
 12 28  1  0
M  ISO  8  14   8  15   8  16   8  17   8  18   5  19   8  20   8  21   8
M  ISO  7  22   8  23   8  24   8  25   8  26  14  27  14  28  14
M  END
>  <minimizedAffinity>  (1) 
-4.01689339

>  <minimizedRMSD>  (1) 
4.66257143

$$$$
