
     RDKit          3D

 26 27  0  0  0  0  0  0  0  0999 V2000
   47.8370   34.9050   41.5590 C   0  0  0  0  0  0  0  0  0  0  0  0
   48.2070   34.5850   40.1180 C   0  0  0  0  0  0  0  0  0  0  0  0
   47.0470   34.0430   39.4910 N   0  0  0  0  0  0  0  0  0  0  0  0
   47.4060   33.6930   38.1300 C   0  0  0  0  0  0  0  0  0  0  0  0
   48.7600   33.1190   37.9570 C   0  0  0  0  0  0  0  0  0  0  0  0
   48.4180   34.5140   37.4520 C   0  0  0  0  0  0  0  0  0  0  0  0
   46.4350   34.8370   41.7010 O   0  0  0  0  0  0  0  0  0  0  0  0
   44.5280   36.0800   44.6480 C   0  0  0  0  0  0  0  0  0  0  0  0
   45.0530   36.0660   43.3500 C   0  0  0  0  0  0  0  0  0  0  0  0
   45.8470   34.9900   42.9520 C   0  0  0  0  0  0  0  0  0  0  0  0
   46.0560   34.0050   43.8870 N   0  0  0  0  0  0  0  0  0  0  0  0
   45.5450   34.0360   45.1260 C   0  0  0  0  0  0  0  0  0  0  0  0
   44.7770   35.0850   45.4990 N   0  0  0  0  0  0  0  0  0  0  0  0
   48.1843   35.9175   41.8125 H   0  0  0  0  0  0  0  0  0  0  0  0
   48.3138   34.1792   42.2342 H   0  0  0  0  0  0  0  0  0  0  0  0
   48.5219   35.5018   39.5981 H   0  0  0  0  0  0  0  0  0  0  0  0
   49.0400   33.8676   40.0807 H   0  0  0  0  0  0  0  0  0  0  0  0
   46.7337   33.2032   39.9984 H   0  0  0  0  0  0  0  0  0  0  0  0
   46.3860   33.3826   37.8592 H   0  0  0  0  0  0  0  0  0  0  0  0
   49.4227   32.9913   38.8256 H   0  0  0  0  0  0  0  0  0  0  0  0
   49.1743   32.2018   37.5131 H   0  0  0  0  0  0  0  0  0  0  0  0
   48.8357   35.4000   37.9526 H   0  0  0  0  0  0  0  0  0  0  0  0
   48.4835   35.0331   36.4844 H   0  0  0  0  0  0  0  0  0  0  0  0
   43.9010   36.9245   44.9700 H   0  0  0  0  0  0  0  0  0  0  0  0
   44.8425   36.8915   42.6541 H   0  0  0  0  0  0  0  0  0  0  0  0
   45.7481   33.2171   45.8317 H   0  0  0  0  0  0  0  0  0  0  0  0
  1  7  1  0
  2  1  1  0
  3  2  1  0
  4  3  1  0
  5  4  1  0
  6  5  1  0
  6  4  1  0
  7 10  1  0
  8 13  2  0
  9  8  1  0
 10  9  2  0
 10 11  1  0
 11 12  2  0
 12 13  1  0
  1 14  1  0
  1 15  1  0
  2 16  1  0
  2 17  1  0
  3 18  1  0
  4 19  1  0
  5 20  1  0
  5 21  1  0
  6 22  1  0
  6 23  1  0
  8 24  1  0
  9 25  1  0
 12 26  1  0
M  ISO  8  14   8  15   8  16   8  17   8  18   5  19  13  20  13  21  13
M  ISO  5  22  13  23  13  24  14  25  14  26  14
M  END
>  <minimizedAffinity>  (1) 
-3.89376903

>  <minimizedRMSD>  (1) 
2.29906583

$$$$
