
     RDKit          3D

 25 25  0  0  0  0  0  0  0  0999 V2000
   45.5290   34.3160   45.2850 C   0  0  0  0  0  0  0  0  0  0  0  0
   45.5530   33.2570   46.3800 C   0  0  0  0  0  0  0  0  0  0  0  0
   46.9220   33.2230   46.8530 N   0  0  0  0  0  0  0  0  0  0  0  0
   47.1460   32.0110   48.0630 S   0  0  0  0  0  0  0  0  0  0  0  0
   46.8950   30.4130   47.3480 C   0  0  0  0  0  0  0  0  0  0  0  0
   46.0880   32.2340   49.1210 O   0  0  0  0  0  0  0  0  0  0  0  0
   48.4790   32.1080   48.7090 O   0  0  0  0  0  0  0  0  0  0  0  0
   45.1360   33.7550   44.0690 O   0  0  0  0  0  0  0  0  0  0  0  0
   46.3120   33.9070   40.5450 C   0  0  0  0  0  0  0  0  0  0  0  0
   45.4730   33.5880   41.6030 C   0  0  0  0  0  0  0  0  0  0  0  0
   45.8630   33.9950   42.8980 C   0  0  0  0  0  0  0  0  0  0  0  0
   47.0460   34.6750   43.0020 N   0  0  0  0  0  0  0  0  0  0  0  0
   47.8370   34.9670   41.9490 C   0  0  0  0  0  0  0  0  0  0  0  0
   47.4460   34.5710   40.7320 N   0  0  0  0  0  0  0  0  0  0  0  0
   44.8191   35.1086   45.5639 H   0  0  0  0  0  0  0  0  0  0  0  0
   46.5403   34.7339   45.1729 H   0  0  0  0  0  0  0  0  0  0  0  0
   44.8703   33.5329   47.1972 H   0  0  0  0  0  0  0  0  0  0  0  0
   45.2248   32.2756   46.0070 H   0  0  0  0  0  0  0  0  0  0  0  0
   47.5454   33.0213   46.0583 H   0  0  0  0  0  0  0  0  0  0  0  0
   46.7779   29.6675   48.1483 H   0  0  0  0  0  0  0  0  0  0  0  0
   45.9882   30.4282   46.7255 H   0  0  0  0  0  0  0  0  0  0  0  0
   47.7628   30.1494   46.7255 H   0  0  0  0  0  0  0  0  0  0  0  0
   46.0305   33.6022   39.5263 H   0  0  0  0  0  0  0  0  0  0  0  0
   44.5355   33.0366   41.4387 H   0  0  0  0  0  0  0  0  0  0  0  0
   48.7797   35.5168   42.0872 H   0  0  0  0  0  0  0  0  0  0  0  0
  1  2  1  0
  2  3  1  0
  3  4  1  0
  4  7  2  0
  4  6  2  0
  5  4  1  0
  8  1  1  0
  9 14  2  0
  9 10  1  0
 10 11  2  0
 11 12  1  0
 11  8  1  0
 13 12  2  0
 14 13  1  0
  1 15  1  0
  1 16  1  0
  2 17  1  0
  2 18  1  0
  3 19  1  0
  5 20  1  0
  5 21  1  0
  5 22  1  0
  9 23  1  0
 10 24  1  0
 13 25  1  0
M  ISO  8  15   8  16   8  17   8  18   8  19   5  20   8  21   8  22   8
M  ISO  3  23  14  24  14  25  14
M  END
>  <minimizedAffinity>  (1) 
-3.69198346

>  <minimizedRMSD>  (1) 
7.14135838

$$$$
