
     RDKit          3D

 26 27  0  0  0  0  0  0  0  0999 V2000
   48.4460   33.3430   43.0620 C   0  0  0  0  0  0  0  0  0  0  0  0
   49.6670   33.9000   42.3820 C   0  0  0  0  0  0  0  0  0  0  0  0
   50.6490   32.8640   42.3630 N   0  0  0  0  0  0  0  0  0  0  0  0
   50.9100   32.1880   41.1270 C   0  0  0  0  0  0  0  0  0  0  0  0
   52.1000   31.6670   40.6350 C   0  0  0  0  0  0  0  0  0  0  0  0
   52.0970   31.0690   39.4310 C   0  0  0  0  0  0  0  0  0  0  0  0
   50.8730   30.9870   38.6970 C   0  0  0  0  0  0  0  0  0  0  0  0
   49.6700   31.8550   39.8810 S   0  0  0  0  0  0  0  0  0  0  0  0
   47.2920   33.9810   42.5910 O   0  0  0  0  0  0  0  0  0  0  0  0
   44.6670   36.0360   44.2220 C   0  0  0  0  0  0  0  0  0  0  0  0
   45.5520   35.6540   43.2250 C   0  0  0  0  0  0  0  0  0  0  0  0
   46.3520   34.5130   43.4680 C   0  0  0  0  0  0  0  0  0  0  0  0
   46.1850   33.8780   44.6680 N   0  0  0  0  0  0  0  0  0  0  0  0
   45.3040   34.2900   45.6110 C   0  0  0  0  0  0  0  0  0  0  0  0
   44.5450   35.3760   45.3790 N   0  0  0  0  0  0  0  0  0  0  0  0
   48.3750   32.2652   42.8539 H   0  0  0  0  0  0  0  0  0  0  0  0
   48.5315   33.5136   44.1453 H   0  0  0  0  0  0  0  0  0  0  0  0
   49.4202   34.2042   41.3541 H   0  0  0  0  0  0  0  0  0  0  0  0
   50.0428   34.7845   42.9172 H   0  0  0  0  0  0  0  0  0  0  0  0
   51.1594   32.6078   43.2202 H   0  0  0  0  0  0  0  0  0  0  0  0
   53.0284   31.7424   41.2202 H   0  0  0  0  0  0  0  0  0  0  0  0
   53.0246   30.6481   39.0159 H   0  0  0  0  0  0  0  0  0  0  0  0
   50.6801   30.5405   37.7104 H   0  0  0  0  0  0  0  0  0  0  0  0
   44.0369   36.9218   44.0537 H   0  0  0  0  0  0  0  0  0  0  0  0
   45.6288   36.2160   42.2825 H   0  0  0  0  0  0  0  0  0  0  0  0
   45.2100   33.7406   46.5593 H   0  0  0  0  0  0  0  0  0  0  0  0
  2  1  1  0
  3  2  1  0
  4  3  1  0
  5  4  2  0
  6  5  1  0
  7  6  2  0
  7  8  1  0
  8  4  1  0
  9  1  1  0
  9 12  1  0
 10 15  2  0
 11 12  2  0
 11 10  1  0
 12 13  1  0
 13 14  2  0
 15 14  1  0
  1 16  1  0
  1 17  1  0
  2 18  1  0
  2 19  1  0
  3 20  1  0
  5 21  1  0
  6 22  1  0
  7 23  1  0
 10 24  1  0
 11 25  1  0
 14 26  1  0
M  ISO  8  16   8  17   8  18   8  19   8  21  14  22  14  23  14  24  14
M  ISO  2  25  14  26  14
M  END
>  <minimizedAffinity>  (1) 
-3.68586826

>  <minimizedRMSD>  (1) 
3.95523381

$$$$
