
     RDKit          3D

 26 27  0  0  0  0  0  0  0  0999 V2000
   48.0590   35.2460   41.9400 C   0  0  0  0  0  0  0  0  0  0  0  0
   48.5360   35.1300   40.5020 C   0  0  0  0  0  0  0  0  0  0  0  0
   47.5450   34.3680   39.8050 N   0  0  0  0  0  0  0  0  0  0  0  0
   47.8840   33.9980   38.4740 C   0  0  0  0  0  0  0  0  0  0  0  0
   48.5690   34.4230   37.3590 C   0  0  0  0  0  0  0  0  0  0  0  0
   48.4150   33.4070   36.4100 C   0  0  0  0  0  0  0  0  0  0  0  0
   47.6690   32.4240   36.9430 N   0  0  0  0  0  0  0  0  0  0  0  0
   47.3500   32.7820   38.1890 N   0  0  0  0  0  0  0  0  0  0  0  0
   46.6810   34.9480   41.9950 O   0  0  0  0  0  0  0  0  0  0  0  0
   44.4540   36.0090   44.7790 C   0  0  0  0  0  0  0  0  0  0  0  0
   45.0800   36.0570   43.5290 C   0  0  0  0  0  0  0  0  0  0  0  0
   45.9870   35.0340   43.1940 C   0  0  0  0  0  0  0  0  0  0  0  0
   46.1920   34.0440   44.1400 N   0  0  0  0  0  0  0  0  0  0  0  0
   45.5740   34.0350   45.3230 C   0  0  0  0  0  0  0  0  0  0  0  0
   44.7030   35.0240   45.6380 N   0  0  0  0  0  0  0  0  0  0  0  0
   48.2291   36.2704   42.3030 H   0  0  0  0  0  0  0  0  0  0  0  0
   48.6163   34.5400   42.5733 H   0  0  0  0  0  0  0  0  0  0  0  0
   48.6330   36.1291   40.0521 H   0  0  0  0  0  0  0  0  0  0  0  0
   49.5216   34.6446   40.4479 H   0  0  0  0  0  0  0  0  0  0  0  0
   46.6478   34.1055   40.2376 H   0  0  0  0  0  0  0  0  0  0  0  0
   49.1227   35.3659   37.2388 H   0  0  0  0  0  0  0  0  0  0  0  0
   48.8356   33.4117   35.3936 H   0  0  0  0  0  0  0  0  0  0  0  0
   47.3926   31.5499   36.4735 H   0  0  0  0  0  0  0  0  0  0  0  0
   43.7425   36.8005   45.0570 H   0  0  0  0  0  0  0  0  0  0  0  0
   44.8685   36.8749   42.8245 H   0  0  0  0  0  0  0  0  0  0  0  0
   45.7715   33.2257   46.0413 H   0  0  0  0  0  0  0  0  0  0  0  0
  1  9  1  0
  2  1  1  0
  3  2  1  0
  4  3  1  0
  5  4  1  0
  6  7  1  0
  6  5  2  0
  7  8  1  0
  8  4  2  0
  9 12  1  0
 10 15  2  0
 11 10  1  0
 12 11  2  0
 12 13  1  0
 13 14  2  0
 14 15  1  0
  1 16  1  0
  1 17  1  0
  2 18  1  0
  2 19  1  0
  3 20  1  0
  5 21  1  0
  6 22  1  0
  7 23  1  0
 10 24  1  0
 11 25  1  0
 14 26  1  0
M  ISO  8  16   8  17   8  18   8  19   8  21  14  22  14  23   9  24  14
M  ISO  2  25  14  26  14
M  END
>  <minimizedAffinity>  (1) 
-4.40633106

>  <minimizedRMSD>  (1) 
2.85706043

$$$$
