
     RDKit          3D

 37 39  0  0  0  0  0  0  0  0999 V2000
   44.4160   36.0460   44.7300 C   0  0  0  0  0  0  0  0  0  0  0  0
   45.0380   35.9590   43.4730 C   0  0  0  0  0  0  0  0  0  0  0  0
   45.9240   34.9090   43.2440 C   0  0  0  0  0  0  0  0  0  0  0  0
   46.1100   34.0400   44.2900 N   0  0  0  0  0  0  0  0  0  0  0  0
   45.5130   34.1370   45.4730 C   0  0  0  0  0  0  0  0  0  0  0  0
   44.6520   35.1640   45.6850 N   0  0  0  0  0  0  0  0  0  0  0  0
   45.7850   33.1700   46.4890 N   0  0  0  0  0  0  0  0  0  0  0  0
   45.1160   33.0540   47.6410 C   0  0  0  0  0  0  0  0  0  0  0  0
   45.5190   32.0590   48.5050 C   0  0  0  0  0  0  0  0  0  0  0  0
   46.5620   31.2320   48.1820 C   0  0  0  0  0  0  0  0  0  0  0  0
   46.9720   30.2160   49.0680 N   0  0  0  0  0  0  0  0  0  0  0  0
   47.2010   31.3900   47.0110 N   0  0  0  0  0  0  0  0  0  0  0  0
   46.8120   32.3720   46.1470 C   0  0  0  0  0  0  0  0  0  0  0  0
   47.4750   32.4330   45.0810 O   0  0  0  0  0  0  0  0  0  0  0  0
   46.6220   34.6660   42.0770 O   0  0  0  0  0  0  0  0  0  0  0  0
   48.0080   34.9450   41.9970 C   0  0  0  0  0  0  0  0  0  0  0  0
   48.4520   35.0260   40.5630 C   0  0  0  0  0  0  0  0  0  0  0  0
   47.4710   34.3680   39.7740 N   0  0  0  0  0  0  0  0  0  0  0  0
   47.8400   33.9450   38.4700 C   0  0  0  0  0  0  0  0  0  0  0  0
   48.5410   34.4450   37.4020 C   0  0  0  0  0  0  0  0  0  0  0  0
   48.4420   33.4300   36.4300 C   0  0  0  0  0  0  0  0  0  0  0  0
   47.7300   32.4110   36.9120 N   0  0  0  0  0  0  0  0  0  0  0  0
   47.3600   32.7130   38.1480 N   0  0  0  0  0  0  0  0  0  0  0  0
   43.7140   36.8703   44.9241 H   0  0  0  0  0  0  0  0  0  0  0  0
   44.8302   36.7020   42.6890 H   0  0  0  0  0  0  0  0  0  0  0  0
   44.2796   33.7243   47.8884 H   0  0  0  0  0  0  0  0  0  0  0  0
   44.9974   31.9275   49.4645 H   0  0  0  0  0  0  0  0  0  0  0  0
   47.7574   29.5991   48.8161 H   0  0  0  0  0  0  0  0  0  0  0  0
   46.4863   30.0902   49.9675 H   0  0  0  0  0  0  0  0  0  0  0  0
   48.2122   35.9054   42.4930 H   0  0  0  0  0  0  0  0  0  0  0  0
   48.5612   34.1339   42.4931 H   0  0  0  0  0  0  0  0  0  0  0  0
   48.5372   36.0786   40.2552 H   0  0  0  0  0  0  0  0  0  0  0  0
   49.4353   34.5499   40.4346 H   0  0  0  0  0  0  0  0  0  0  0  0
   46.5213   34.2029   40.1368 H   0  0  0  0  0  0  0  0  0  0  0  0
   49.0591   35.4121   37.3231 H   0  0  0  0  0  0  0  0  0  0  0  0
   48.8856   33.4719   35.4243 H   0  0  0  0  0  0  0  0  0  0  0  0
   47.5063   31.5397   36.4103 H   0  0  0  0  0  0  0  0  0  0  0  0
  1  6  2  0
  2  1  1  0
  3  2  2  0
  3  4  1  0
  4  5  2  0
  5  6  1  0
  5  7  1  0
  7  8  1  0
  8  9  2  0
 10  9  1  0
 10 11  1  0
 12 10  2  0
 13  7  1  0
 13 12  1  0
 14 13  2  0
 15  3  1  0
 16 15  1  0
 17 16  1  0
 18 17  1  0
 19 18  1  0
 20 19  1  0
 21 22  1  0
 21 20  2  0
 22 23  1  0
 23 19  2  0
  1 24  1  0
  2 25  1  0
  8 26  1  0
  9 27  1  0
 11 28  1  0
 11 29  1  0
 16 30  1  0
 16 31  1  0
 17 32  1  0
 17 33  1  0
 18 34  1  0
 20 35  1  0
 21 36  1  0
 22 37  1  0
M  ISO  8  24  14  25  14  26  14  27  14  30   8  31   8  32   8  33   8
M  ISO  3  35  14  36  14  37   9
M  END
>  <minimizedAffinity>  (1) 
-6.45132017

>  <minimizedRMSD>  (1) 
0.342050552

$$$$
