
     RDKit          3D

 40 43  0  0  0  0  0  0  0  0999 V2000
   44.6000   35.6950   45.1340 C   0  0  0  0  0  0  0  0  0  0  0  0
   44.2380   35.7360   43.7880 C   0  0  0  0  0  0  0  0  0  0  0  0
   44.5800   34.6770   42.9460 C   0  0  0  0  0  0  0  0  0  0  0  0
   45.2690   33.6430   43.5320 N   0  0  0  0  0  0  0  0  0  0  0  0
   45.6060   33.6230   44.8240 C   0  0  0  0  0  0  0  0  0  0  0  0
   45.2700   34.6520   45.6240 N   0  0  0  0  0  0  0  0  0  0  0  0
   46.3220   32.4540   45.2400 N   0  0  0  0  0  0  0  0  0  0  0  0
   47.2330   31.8410   44.4550 C   0  0  0  0  0  0  0  0  0  0  0  0
   47.6860   30.7860   45.1930 N   0  0  0  0  0  0  0  0  0  0  0  0
   47.0680   30.7780   46.3660 C   0  0  0  0  0  0  0  0  0  0  0  0
   47.1760   29.9230   47.4530 C   0  0  0  0  0  0  0  0  0  0  0  0
   47.9470   28.9500   47.4710 O   0  0  0  0  0  0  0  0  0  0  0  0
   46.3900   30.2040   48.5030 N   0  0  0  0  0  0  0  0  0  0  0  0
   45.5210   31.2500   48.5610 C   0  0  0  0  0  0  0  0  0  0  0  0
   44.7300   31.4590   49.7280 N   0  0  0  0  0  0  0  0  0  0  0  0
   45.4030   32.1010   47.5000 N   0  0  0  0  0  0  0  0  0  0  0  0
   46.1870   31.8330   46.4300 C   0  0  0  0  0  0  0  0  0  0  0  0
   44.2890   34.5800   41.5940 O   0  0  0  0  0  0  0  0  0  0  0  0
   44.3050   33.3430   40.9300 C   0  0  0  0  0  0  0  0  0  0  0  0
   43.9510   33.5260   39.4760 C   0  0  0  0  0  0  0  0  0  0  0  0
   43.1880   34.7220   39.3780 N   0  0  0  0  0  0  0  0  0  0  0  0
   41.7850   34.6090   39.1530 C   0  0  0  0  0  0  0  0  0  0  0  0
   40.9470   33.8890   38.3460 C   0  0  0  0  0  0  0  0  0  0  0  0
   39.6660   34.3610   38.6870 C   0  0  0  0  0  0  0  0  0  0  0  0
   39.7670   35.2940   39.6330 N   0  0  0  0  0  0  0  0  0  0  0  0
   41.0490   35.4540   39.9250 N   0  0  0  0  0  0  0  0  0  0  0  0
   44.3304   36.5303   45.7970 H   0  0  0  0  0  0  0  0  0  0  0  0
   43.6848   36.6001   43.3913 H   0  0  0  0  0  0  0  0  0  0  0  0
   47.5433   32.1294   43.4398 H   0  0  0  0  0  0  0  0  0  0  0  0
   46.4482   29.5842   49.3236 H   0  0  0  0  0  0  0  0  0  0  0  0
   44.0730   32.2512   49.7698 H   0  0  0  0  0  0  0  0  0  0  0  0
   44.8153   30.8179   50.5296 H   0  0  0  0  0  0  0  0  0  0  0  0
   45.3103   32.9030   41.0063 H   0  0  0  0  0  0  0  0  0  0  0  0
   43.5657   32.6760   41.3974 H   0  0  0  0  0  0  0  0  0  0  0  0
   44.8668   33.6124   38.8728 H   0  0  0  0  0  0  0  0  0  0  0  0
   43.3783   32.6648   39.1014 H   0  0  0  0  0  0  0  0  0  0  0  0
   43.6369   35.6447   39.4672 H   0  0  0  0  0  0  0  0  0  0  0  0
   41.2124   33.1211   37.6044 H   0  0  0  0  0  0  0  0  0  0  0  0
   38.7233   34.0123   38.2400 H   0  0  0  0  0  0  0  0  0  0  0  0
   38.9823   35.8036   40.0636 H   0  0  0  0  0  0  0  0  0  0  0  0
  1  6  2  0
  2  1  1  0
  3  4  1  0
  3  2  2  0
  4  5  2  0
  5  7  1  0
  5  6  1  0
  7 17  1  0
  8  9  2  0
  8  7  1  0
  9 10  1  0
 10 17  2  0
 10 11  1  0
 11 12  2  0
 11 13  1  0
 13 14  1  0
 14 15  1  0
 16 14  2  0
 17 16  1  0
 18  3  1  0
 19 18  1  0
 20 19  1  0
 21 20  1  0
 22 21  1  0
 22 26  2  0
 23 24  2  0
 23 22  1  0
 24 25  1  0
 25 26  1  0
  1 27  1  0
  2 28  1  0
  8 29  1  0
 13 30  1  0
 15 31  1  0
 15 32  1  0
 19 33  1  0
 19 34  1  0
 20 35  1  0
 20 36  1  0
 21 37  1  0
 23 38  1  0
 24 39  1  0
 25 40  1  0
M  ISO  8  27  14  28  14  29  14  30   9  33   8  34   8  35   8  36   8
M  ISO  3  38  14  39  14  40   9
M  END
>  <minimizedAffinity>  (1) 
-6.3389225

>  <minimizedRMSD>  (1) 
4.08706379

$$$$
