
     RDKit          3D

 37 40  0  0  0  0  0  0  0  0999 V2000
   44.4950   35.9300   44.6640 C   0  0  0  0  0  0  0  0  0  0  0  0
   45.2060   35.8530   43.4600 C   0  0  0  0  0  0  0  0  0  0  0  0
   46.1140   34.8070   43.2790 C   0  0  0  0  0  0  0  0  0  0  0  0
   46.2320   33.9240   44.3230 N   0  0  0  0  0  0  0  0  0  0  0  0
   45.5530   34.0040   45.4620 C   0  0  0  0  0  0  0  0  0  0  0  0
   44.6690   35.0350   45.6210 N   0  0  0  0  0  0  0  0  0  0  0  0
   45.7280   33.0490   46.5010 N   0  0  0  0  0  0  0  0  0  0  0  0
   45.2240   33.1630   47.7630 C   0  0  0  0  0  0  0  0  0  0  0  0
   45.5810   32.0790   48.4910 N   0  0  0  0  0  0  0  0  0  0  0  0
   46.3040   31.3160   47.6510 C   0  0  0  0  0  0  0  0  0  0  0  0
   46.9220   30.0970   47.8470 C   0  0  0  0  0  0  0  0  0  0  0  0
   47.5970   29.5430   46.8070 N   0  0  0  0  0  0  0  0  0  0  0  0
   47.6760   30.1450   45.6070 C   0  0  0  0  0  0  0  0  0  0  0  0
   47.0780   31.3510   45.3760 N   0  0  0  0  0  0  0  0  0  0  0  0
   46.4080   31.9050   46.3990 C   0  0  0  0  0  0  0  0  0  0  0  0
   46.8960   34.5850   42.1560 O   0  0  0  0  0  0  0  0  0  0  0  0
   48.1400   35.2390   42.0090 C   0  0  0  0  0  0  0  0  0  0  0  0
   48.5700   35.2110   40.5580 C   0  0  0  0  0  0  0  0  0  0  0  0
   47.5970   34.4480   39.8540 N   0  0  0  0  0  0  0  0  0  0  0  0
   47.9240   33.9940   38.5430 C   0  0  0  0  0  0  0  0  0  0  0  0
   48.5120   34.5030   37.4120 C   0  0  0  0  0  0  0  0  0  0  0  0
   48.4510   33.4420   36.4960 C   0  0  0  0  0  0  0  0  0  0  0  0
   47.8670   32.3860   37.0630 N   0  0  0  0  0  0  0  0  0  0  0  0
   47.5430   32.7100   38.3080 N   0  0  0  0  0  0  0  0  0  0  0  0
   43.7784   36.7506   44.8162 H   0  0  0  0  0  0  0  0  0  0  0  0
   45.0521   36.6032   42.6704 H   0  0  0  0  0  0  0  0  0  0  0  0
   44.6207   34.0054   48.1323 H   0  0  0  0  0  0  0  0  0  0  0  0
   46.8690   29.5877   48.8205 H   0  0  0  0  0  0  0  0  0  0  0  0
   48.2338   29.6560   44.7947 H   0  0  0  0  0  0  0  0  0  0  0  0
   48.0441   36.2834   42.3407 H   0  0  0  0  0  0  0  0  0  0  0  0
   48.8947   34.7220   42.6198 H   0  0  0  0  0  0  0  0  0  0  0  0
   48.6120   36.2340   40.1560 H   0  0  0  0  0  0  0  0  0  0  0  0
   49.5709   34.7672   40.4521 H   0  0  0  0  0  0  0  0  0  0  0  0
   46.6842   34.2304   40.2787 H   0  0  0  0  0  0  0  0  0  0  0  0
   48.9327   35.5079   37.2594 H   0  0  0  0  0  0  0  0  0  0  0  0
   48.8288   33.4763   35.4635 H   0  0  0  0  0  0  0  0  0  0  0  0
   47.6968   31.4757   36.6122 H   0  0  0  0  0  0  0  0  0  0  0  0
  1  6  2  0
  2  1  1  0
  3  2  2  0
  3  4  1  0
  4  5  2  0
  5  6  1  0
  5  7  1  0
  7  8  1  0
  8  9  2  0
 10 11  2  0
 10  9  1  0
 12 11  1  0
 13 12  2  0
 14 13  1  0
 14 15  2  0
 15  7  1  0
 15 10  1  0
 16  3  1  0
 17 16  1  0
 18 17  1  0
 19 18  1  0
 20 19  1  0
 21 20  1  0
 22 23  1  0
 22 21  2  0
 23 24  1  0
 24 20  2  0
  1 25  1  0
  2 26  1  0
  8 27  1  0
 11 28  1  0
 13 29  1  0
 17 30  1  0
 17 31  1  0
 18 32  1  0
 18 33  1  0
 19 34  1  0
 21 35  1  0
 22 36  1  0
 23 37  1  0
M  ISO  8  25  14  26  14  27  14  28  14  29  14  30   8  31   8  32   8
M  ISO  4  33   8  35  14  36  14  37   9
M  END
>  <minimizedAffinity>  (1) 
-6.14910269

>  <minimizedRMSD>  (1) 
0.368086487

$$$$
