
     RDKit          3D

 40 42  0  0  0  0  0  0  0  0999 V2000
   48.0750   35.2090   41.9660 C   0  0  0  0  0  0  0  0  0  0  0  0
   48.5520   35.1040   40.5410 C   0  0  0  0  0  0  0  0  0  0  0  0
   47.5490   34.4230   39.8030 N   0  0  0  0  0  0  0  0  0  0  0  0
   47.8690   33.9690   38.4930 C   0  0  0  0  0  0  0  0  0  0  0  0
   48.5120   34.4450   37.3820 C   0  0  0  0  0  0  0  0  0  0  0  0
   48.3870   33.4020   36.4480 C   0  0  0  0  0  0  0  0  0  0  0  0
   47.7120   32.3870   36.9900 N   0  0  0  0  0  0  0  0  0  0  0  0
   47.3940   32.7220   38.2300 N   0  0  0  0  0  0  0  0  0  0  0  0
   46.7260   34.8550   42.0500 O   0  0  0  0  0  0  0  0  0  0  0  0
   44.4610   36.0210   44.7680 C   0  0  0  0  0  0  0  0  0  0  0  0
   45.1100   36.0150   43.5400 C   0  0  0  0  0  0  0  0  0  0  0  0
   46.0070   34.9950   43.2280 C   0  0  0  0  0  0  0  0  0  0  0  0
   46.1790   34.0440   44.2040 N   0  0  0  0  0  0  0  0  0  0  0  0
   45.5510   34.0630   45.3760 C   0  0  0  0  0  0  0  0  0  0  0  0
   44.6910   35.0560   45.6530 N   0  0  0  0  0  0  0  0  0  0  0  0
   45.7910   33.0330   46.3310 N   0  0  0  0  0  0  0  0  0  0  0  0
   45.1100   33.0450   47.6090 C   0  0  0  0  0  0  0  0  0  0  0  0
   45.1260   31.6890   48.2720 C   0  0  0  0  0  0  0  0  0  0  0  0
   44.9430   30.6960   47.2490 N   0  0  0  0  0  0  0  0  0  0  0  0
   46.1930   30.6170   46.4990 C   0  0  0  0  0  0  0  0  0  0  0  0
   46.7130   31.9440   46.0660 C   0  0  0  0  0  0  0  0  0  0  0  0
   48.2017   36.2440   42.3164 H   0  0  0  0  0  0  0  0  0  0  0  0
   48.6655   34.5254   42.5937 H   0  0  0  0  0  0  0  0  0  0  0  0
   48.7085   36.1092   40.1226 H   0  0  0  0  0  0  0  0  0  0  0  0
   49.5060   34.5586   40.4916 H   0  0  0  0  0  0  0  0  0  0  0  0
   46.6145   34.2617   40.2050 H   0  0  0  0  0  0  0  0  0  0  0  0
   49.0102   35.4169   37.2509 H   0  0  0  0  0  0  0  0  0  0  0  0
   48.7862   33.4200   35.4231 H   0  0  0  0  0  0  0  0  0  0  0  0
   47.4791   31.4981   36.5247 H   0  0  0  0  0  0  0  0  0  0  0  0
   43.7535   36.8279   45.0094 H   0  0  0  0  0  0  0  0  0  0  0  0
   44.9156   36.8168   42.8124 H   0  0  0  0  0  0  0  0  0  0  0  0
   45.6085   33.7692   48.2701 H   0  0  0  0  0  0  0  0  0  0  0  0
   44.0608   33.3238   47.4319 H   0  0  0  0  0  0  0  0  0  0  0  0
   46.0900   31.5315   48.7779 H   0  0  0  0  0  0  0  0  0  0  0  0
   44.3245   31.6193   49.0221 H   0  0  0  0  0  0  0  0  0  0  0  0
   44.7292   29.7836   47.6765 H   0  0  0  0  0  0  0  0  0  0  0  0
   46.9509   30.1373   47.1357 H   0  0  0  0  0  0  0  0  0  0  0  0
   45.9861   30.0381   45.5868 H   0  0  0  0  0  0  0  0  0  0  0  0
   46.9087   31.9069   44.9842 H   0  0  0  0  0  0  0  0  0  0  0  0
   47.6275   32.1416   46.6445 H   0  0  0  0  0  0  0  0  0  0  0  0
  1  9  1  0
  2  1  1  0
  3  2  1  0
  4  3  1  0
  5  4  1  0
  6  7  1  0
  6  5  2  0
  7  8  1  0
  8  4  2  0
  9 12  1  0
 10 15  2  0
 11 10  1  0
 12 11  2  0
 12 13  1  0
 13 14  2  0
 14 15  1  0
 14 16  1  0
 16 17  1  0
 17 18  1  0
 19 18  1  0
 20 19  1  0
 21 16  1  0
 21 20  1  0
  1 22  1  0
  1 23  1  0
  2 24  1  0
  2 25  1  0
  3 26  1  0
  5 27  1  0
  6 28  1  0
  7 29  1  0
 10 30  1  0
 11 31  1  0
 17 32  1  0
 17 33  1  0
 18 34  1  0
 18 35  1  0
 19 36  1  0
 20 37  1  0
 20 38  1  0
 21 39  1  0
 21 40  1  0
M  ISO  8  22   8  23   8  24   8  25   8  27  14  28  14  29   9  30  14
M  ISO  8  31  14  32  13  33  13  34  13  35  13  36   5  37  13  38  13
M  ISO  2  39  13  40  13
M  END
>  <minimizedAffinity>  (1) 
-6.01741791

>  <minimizedRMSD>  (1) 
0.0987569168

$$$$
