
     RDKit          3D

 35 37  0  0  0  0  0  0  0  0999 V2000
   48.1670   34.9860   42.1090 C   0  0  0  0  0  0  0  0  0  0  0  0
   48.4880   35.1580   40.6430 C   0  0  0  0  0  0  0  0  0  0  0  0
   47.5200   34.4130   39.9140 N   0  0  0  0  0  0  0  0  0  0  0  0
   47.8670   33.9930   38.5970 C   0  0  0  0  0  0  0  0  0  0  0  0
   48.4940   34.5080   37.4950 C   0  0  0  0  0  0  0  0  0  0  0  0
   48.4280   33.4850   36.5390 C   0  0  0  0  0  0  0  0  0  0  0  0
   47.7960   32.4350   37.0680 N   0  0  0  0  0  0  0  0  0  0  0  0
   47.4520   32.7300   38.3160 N   0  0  0  0  0  0  0  0  0  0  0  0
   46.8890   34.3970   42.2620 O   0  0  0  0  0  0  0  0  0  0  0  0
   44.5360   35.6860   44.8250 C   0  0  0  0  0  0  0  0  0  0  0  0
   45.1990   35.6180   43.5800 C   0  0  0  0  0  0  0  0  0  0  0  0
   46.1490   34.6110   43.4050 C   0  0  0  0  0  0  0  0  0  0  0  0
   46.3410   33.7790   44.4760 N   0  0  0  0  0  0  0  0  0  0  0  0
   45.7150   33.8480   45.6370 C   0  0  0  0  0  0  0  0  0  0  0  0
   44.7920   34.8320   45.8010 N   0  0  0  0  0  0  0  0  0  0  0  0
   46.0060   32.8990   46.7090 C   0  0  0  0  0  0  0  0  0  0  0  0
   45.1690   32.7950   47.8000 C   0  0  0  0  0  0  0  0  0  0  0  0
   45.4860   31.8770   48.7970 C   0  0  0  0  0  0  0  0  0  0  0  0
   46.6340   31.1530   48.5770 C   0  0  0  0  0  0  0  0  0  0  0  0
   47.4890   31.2370   47.4960 C   0  0  0  0  0  0  0  0  0  0  0  0
   47.1300   32.1520   46.5490 N   0  0  0  0  0  0  0  0  0  0  0  0
   48.1753   35.9698   42.6010 H   0  0  0  0  0  0  0  0  0  0  0  0
   48.9222   34.3311   42.5682 H   0  0  0  0  0  0  0  0  0  0  0  0
   48.4327   36.2213   40.3666 H   0  0  0  0  0  0  0  0  0  0  0  0
   49.5051   34.8032   40.4201 H   0  0  0  0  0  0  0  0  0  0  0  0
   46.6024   34.1855   40.3228 H   0  0  0  0  0  0  0  0  0  0  0  0
   48.9487   35.5035   37.3841 H   0  0  0  0  0  0  0  0  0  0  0  0
   48.8320   33.5388   35.5173 H   0  0  0  0  0  0  0  0  0  0  0  0
   47.6066   31.5437   36.5877 H   0  0  0  0  0  0  0  0  0  0  0  0
   43.7845   36.4727   44.9874 H   0  0  0  0  0  0  0  0  0  0  0  0
   44.9743   36.3342   42.7759 H   0  0  0  0  0  0  0  0  0  0  0  0
   44.2702   33.4240   47.8806 H   0  0  0  0  0  0  0  0  0  0  0  0
   44.8643   31.7408   49.6942 H   0  0  0  0  0  0  0  0  0  0  0  0
   46.9028   30.4212   49.3530 H   0  0  0  0  0  0  0  0  0  0  0  0
   48.3909   30.6139   47.4050 H   0  0  0  0  0  0  0  0  0  0  0  0
  1  9  1  0
  2  1  1  0
  3  2  1  0
  4  3  1  0
  5  4  1  0
  6  7  1  0
  6  5  2  0
  7  8  1  0
  8  4  2  0
  9 12  1  0
 10 15  2  0
 11 10  1  0
 12 11  2  0
 12 13  1  0
 13 14  2  0
 14 15  1  0
 14 16  1  0
 16 17  2  0
 17 18  1  0
 19 18  2  0
 20 19  1  0
 21 16  1  0
 21 20  2  0
  1 22  1  0
  1 23  1  0
  2 24  1  0
  2 25  1  0
  3 26  1  0
  5 27  1  0
  6 28  1  0
  7 29  1  0
 10 30  1  0
 11 31  1  0
 17 32  1  0
 18 33  1  0
 19 34  1  0
 20 35  1  0
M  ISO  8  22   8  23   8  24   8  25   8  27  14  28  14  29   9  30  14
M  ISO  5  31  14  32  14  33  14  34  14  35  14
M  END
>  <minimizedAffinity>  (1) 
-5.81613827

>  <minimizedRMSD>  (1) 
0.482608289

$$$$
