
     RDKit          3D

 32 34  0  0  0  0  0  0  0  0999 V2000
   48.1670   35.0600   42.0510 C   0  0  0  0  0  0  0  0  0  0  0  0
   48.5220   35.1730   40.5920 C   0  0  0  0  0  0  0  0  0  0  0  0
   47.5540   34.4260   39.8610 N   0  0  0  0  0  0  0  0  0  0  0  0
   47.9000   33.9880   38.5510 C   0  0  0  0  0  0  0  0  0  0  0  0
   48.5020   34.5040   37.4370 C   0  0  0  0  0  0  0  0  0  0  0  0
   48.4610   33.4540   36.5010 C   0  0  0  0  0  0  0  0  0  0  0  0
   47.8680   32.3940   37.0550 N   0  0  0  0  0  0  0  0  0  0  0  0
   47.5230   32.7020   38.2980 N   0  0  0  0  0  0  0  0  0  0  0  0
   46.8880   34.5070   42.1950 O   0  0  0  0  0  0  0  0  0  0  0  0
   44.4760   35.8460   44.6980 C   0  0  0  0  0  0  0  0  0  0  0  0
   45.1670   35.7410   43.4930 C   0  0  0  0  0  0  0  0  0  0  0  0
   46.1270   34.7400   43.3200 C   0  0  0  0  0  0  0  0  0  0  0  0
   46.3110   33.9130   44.4010 N   0  0  0  0  0  0  0  0  0  0  0  0
   45.6400   34.0260   45.5500 C   0  0  0  0  0  0  0  0  0  0  0  0
   44.7230   35.0010   45.6840 N   0  0  0  0  0  0  0  0  0  0  0  0
   45.9020   33.1190   46.6150 N   0  0  0  0  0  0  0  0  0  0  0  0
   46.9080   32.2450   46.8010 C   0  0  0  0  0  0  0  0  0  0  0  0
   46.7430   31.5840   47.9710 N   0  0  0  0  0  0  0  0  0  0  0  0
   45.6100   32.0720   48.5010 C   0  0  0  0  0  0  0  0  0  0  0  0
   45.1260   32.9920   47.6660 N   0  0  0  0  0  0  0  0  0  0  0  0
   48.1841   36.0605   42.5079 H   0  0  0  0  0  0  0  0  0  0  0  0
   48.8990   34.4076   42.5496 H   0  0  0  0  0  0  0  0  0  0  0  0
   48.4982   36.2274   40.2794 H   0  0  0  0  0  0  0  0  0  0  0  0
   49.5344   34.7849   40.4065 H   0  0  0  0  0  0  0  0  0  0  0  0
   46.6326   34.2095   40.2673 H   0  0  0  0  0  0  0  0  0  0  0  0
   48.9229   35.5114   37.3029 H   0  0  0  0  0  0  0  0  0  0  0  0
   48.8552   33.4995   35.4751 H   0  0  0  0  0  0  0  0  0  0  0  0
   47.7054   31.4875   36.5937 H   0  0  0  0  0  0  0  0  0  0  0  0
   43.7215   36.6356   44.8296 H   0  0  0  0  0  0  0  0  0  0  0  0
   44.9567   36.4471   42.6762 H   0  0  0  0  0  0  0  0  0  0  0  0
   47.7440   32.0899   46.1031 H   0  0  0  0  0  0  0  0  0  0  0  0
   45.1598   31.7663   49.4569 H   0  0  0  0  0  0  0  0  0  0  0  0
  1  9  1  0
  2  1  1  0
  3  2  1  0
  4  3  1  0
  5  4  1  0
  6  7  1  0
  6  5  2  0
  7  8  1  0
  8  4  2  0
  9 12  1  0
 10 15  2  0
 11 10  1  0
 12 11  2  0
 12 13  1  0
 13 14  2  0
 14 15  1  0
 14 16  1  0
 16 17  1  0
 16 20  1  0
 17 18  2  0
 18 19  1  0
 20 19  2  0
  1 21  1  0
  1 22  1  0
  2 23  1  0
  2 24  1  0
  3 25  1  0
  5 26  1  0
  6 27  1  0
  7 28  1  0
 10 29  1  0
 11 30  1  0
 17 31  1  0
 19 32  1  0
M  ISO  8  21   8  22   8  23   8  24   8  26  14  27  14  28   9  29  14
M  ISO  3  30  14  31  14  32  14
M  END
>  <minimizedAffinity>  (1) 
-5.73540545

>  <minimizedRMSD>  (1) 
0.38313219

$$$$
