
     RDKit          3D

 34 36  0  0  0  0  0  0  0  0999 V2000
   48.0460   35.1310   42.0220 C   0  0  0  0  0  0  0  0  0  0  0  0
   48.5100   35.0870   40.5890 C   0  0  0  0  0  0  0  0  0  0  0  0
   47.5160   34.4030   39.8360 N   0  0  0  0  0  0  0  0  0  0  0  0
   47.8560   33.9780   38.5250 C   0  0  0  0  0  0  0  0  0  0  0  0
   48.5230   34.4640   37.4270 C   0  0  0  0  0  0  0  0  0  0  0  0
   48.4030   33.4430   36.4770 C   0  0  0  0  0  0  0  0  0  0  0  0
   47.7120   32.4220   36.9810 N   0  0  0  0  0  0  0  0  0  0  0  0
   47.3770   32.7420   38.2240 N   0  0  0  0  0  0  0  0  0  0  0  0
   46.6780   34.7490   42.0970 O   0  0  0  0  0  0  0  0  0  0  0  0
   44.4400   35.9150   44.8290 C   0  0  0  0  0  0  0  0  0  0  0  0
   45.0470   35.9210   43.5540 C   0  0  0  0  0  0  0  0  0  0  0  0
   45.9770   34.9150   43.2790 C   0  0  0  0  0  0  0  0  0  0  0  0
   46.2120   34.0100   44.2830 N   0  0  0  0  0  0  0  0  0  0  0  0
   45.6280   34.0240   45.4760 C   0  0  0  0  0  0  0  0  0  0  0  0
   44.7300   34.9940   45.7460 N   0  0  0  0  0  0  0  0  0  0  0  0
   45.9410   33.0190   46.4850 C   0  0  0  0  0  0  0  0  0  0  0  0
   46.9900   32.1490   46.2730 C   0  0  0  0  0  0  0  0  0  0  0  0
   47.1920   31.2400   47.2980 C   0  0  0  0  0  0  0  0  0  0  0  0
   46.4610   31.1630   48.4260 N   0  0  0  0  0  0  0  0  0  0  0  0
   45.4500   32.0520   48.5580 C   0  0  0  0  0  0  0  0  0  0  0  0
   45.2100   32.9460   47.6080 N   0  0  0  0  0  0  0  0  0  0  0  0
   48.1618   36.1529   42.4122 H   0  0  0  0  0  0  0  0  0  0  0  0
   48.6511   34.4348   42.6214 H   0  0  0  0  0  0  0  0  0  0  0  0
   48.6349   36.1097   40.2036 H   0  0  0  0  0  0  0  0  0  0  0  0
   49.4775   34.5693   40.5119 H   0  0  0  0  0  0  0  0  0  0  0  0
   46.5811   34.2222   40.2287 H   0  0  0  0  0  0  0  0  0  0  0  0
   49.0337   35.4323   37.3191 H   0  0  0  0  0  0  0  0  0  0  0  0
   48.8198   33.4788   35.4597 H   0  0  0  0  0  0  0  0  0  0  0  0
   47.4801   31.5443   36.4945 H   0  0  0  0  0  0  0  0  0  0  0  0
   43.7044   36.6958   45.0724 H   0  0  0  0  0  0  0  0  0  0  0  0
   44.7973   36.6880   42.8061 H   0  0  0  0  0  0  0  0  0  0  0  0
   47.6131   32.1750   45.3669 H   0  0  0  0  0  0  0  0  0  0  0  0
   48.0172   30.5221   47.1810 H   0  0  0  0  0  0  0  0  0  0  0  0
   44.8217   32.0334   49.4607 H   0  0  0  0  0  0  0  0  0  0  0  0
  1  9  1  0
  2  1  1  0
  3  2  1  0
  4  3  1  0
  5  4  1  0
  6  7  1  0
  6  5  2  0
  7  8  1  0
  8  4  2  0
  9 12  1  0
 10 15  2  0
 11 10  1  0
 12 11  2  0
 12 13  1  0
 13 14  2  0
 14 15  1  0
 14 16  1  0
 16 21  1  0
 17 16  2  0
 17 18  1  0
 18 19  2  0
 19 20  1  0
 21 20  2  0
  1 22  1  0
  1 23  1  0
  2 24  1  0
  2 25  1  0
  3 26  1  0
  5 27  1  0
  6 28  1  0
  7 29  1  0
 10 30  1  0
 11 31  1  0
 17 32  1  0
 18 33  1  0
 20 34  1  0
M  ISO  8  22   8  23   8  24   8  25   8  27  14  28  14  29   9  30  14
M  ISO  4  31  14  32  14  33  14  34  14
M  END
>  <minimizedAffinity>  (1) 
-5.71129179

>  <minimizedRMSD>  (1) 
0.510319769

$$$$
