
     RDKit          3D

 34 36  0  0  0  0  0  0  0  0999 V2000
   48.1690   34.9520   42.1150 C   0  0  0  0  0  0  0  0  0  0  0  0
   48.4960   35.1600   40.6540 C   0  0  0  0  0  0  0  0  0  0  0  0
   47.5380   34.4260   39.9040 N   0  0  0  0  0  0  0  0  0  0  0  0
   47.8830   34.0060   38.5930 C   0  0  0  0  0  0  0  0  0  0  0  0
   48.4960   34.5200   37.4810 C   0  0  0  0  0  0  0  0  0  0  0  0
   48.4140   33.4770   36.5500 C   0  0  0  0  0  0  0  0  0  0  0  0
   47.7950   32.4200   37.0750 N   0  0  0  0  0  0  0  0  0  0  0  0
   47.4690   32.7360   38.3230 N   0  0  0  0  0  0  0  0  0  0  0  0
   46.8830   34.4260   42.2600 O   0  0  0  0  0  0  0  0  0  0  0  0
   44.5110   35.7180   44.8220 C   0  0  0  0  0  0  0  0  0  0  0  0
   45.1740   35.6540   43.5850 C   0  0  0  0  0  0  0  0  0  0  0  0
   46.1280   34.6520   43.4010 C   0  0  0  0  0  0  0  0  0  0  0  0
   46.3280   33.8140   44.4690 N   0  0  0  0  0  0  0  0  0  0  0  0
   45.7000   33.8800   45.6310 C   0  0  0  0  0  0  0  0  0  0  0  0
   44.7690   34.8650   45.7970 N   0  0  0  0  0  0  0  0  0  0  0  0
   45.9880   32.9330   46.7050 C   0  0  0  0  0  0  0  0  0  0  0  0
   45.1610   32.8320   47.8020 C   0  0  0  0  0  0  0  0  0  0  0  0
   45.5660   31.8860   48.7420 C   0  0  0  0  0  0  0  0  0  0  0  0
   46.6890   31.1320   48.5760 N   0  0  0  0  0  0  0  0  0  0  0  0
   47.4510   31.2720   47.4980 C   0  0  0  0  0  0  0  0  0  0  0  0
   47.0910   32.1750   46.5690 N   0  0  0  0  0  0  0  0  0  0  0  0
   48.2262   35.9172   42.6394 H   0  0  0  0  0  0  0  0  0  0  0  0
   48.8929   34.2432   42.5435 H   0  0  0  0  0  0  0  0  0  0  0  0
   48.4344   36.2289   40.4018 H   0  0  0  0  0  0  0  0  0  0  0  0
   49.5166   34.8176   40.4281 H   0  0  0  0  0  0  0  0  0  0  0  0
   46.6146   34.2039   40.3026 H   0  0  0  0  0  0  0  0  0  0  0  0
   48.9457   35.5153   37.3504 H   0  0  0  0  0  0  0  0  0  0  0  0
   48.8074   33.5239   35.5238 H   0  0  0  0  0  0  0  0  0  0  0  0
   47.6050   31.5253   36.6014 H   0  0  0  0  0  0  0  0  0  0  0  0
   43.7553   36.5009   44.9832 H   0  0  0  0  0  0  0  0  0  0  0  0
   44.9476   36.3733   42.7841 H   0  0  0  0  0  0  0  0  0  0  0  0
   44.2570   33.4463   47.9257 H   0  0  0  0  0  0  0  0  0  0  0  0
   44.9589   31.7432   49.6481 H   0  0  0  0  0  0  0  0  0  0  0  0
   48.3573   30.6625   47.3676 H   0  0  0  0  0  0  0  0  0  0  0  0
  1  9  1  0
  2  1  1  0
  3  2  1  0
  4  3  1  0
  5  4  1  0
  6  7  1  0
  6  5  2  0
  7  8  1  0
  8  4  2  0
  9 12  1  0
 10 15  2  0
 11 10  1  0
 12 11  2  0
 12 13  1  0
 13 14  2  0
 14 15  1  0
 14 16  1  0
 16 17  2  0
 17 18  1  0
 19 18  2  0
 20 19  1  0
 21 16  1  0
 21 20  2  0
  1 22  1  0
  1 23  1  0
  2 24  1  0
  2 25  1  0
  3 26  1  0
  5 27  1  0
  6 28  1  0
  7 29  1  0
 10 30  1  0
 11 31  1  0
 17 32  1  0
 18 33  1  0
 20 34  1  0
M  ISO  8  22   8  23   8  24   8  25   8  27  14  28  14  29   9  30  14
M  ISO  4  31  14  32  14  33  14  34  14
M  END
>  <minimizedAffinity>  (1) 
-5.69639778

>  <minimizedRMSD>  (1) 
0.545250416

$$$$
