
     RDKit          3D

 33 35  0  0  0  0  0  0  0  0999 V2000
   48.2360   34.9320   42.1290 C   0  0  0  0  0  0  0  0  0  0  0  0
   48.4860   35.1760   40.6610 C   0  0  0  0  0  0  0  0  0  0  0  0
   47.5240   34.4260   39.9350 N   0  0  0  0  0  0  0  0  0  0  0  0
   47.8630   33.9960   38.6240 C   0  0  0  0  0  0  0  0  0  0  0  0
   48.4830   34.5250   37.5110 C   0  0  0  0  0  0  0  0  0  0  0  0
   48.4110   33.4830   36.5680 C   0  0  0  0  0  0  0  0  0  0  0  0
   47.7940   32.4280   37.1010 N   0  0  0  0  0  0  0  0  0  0  0  0
   47.4580   32.7300   38.3460 N   0  0  0  0  0  0  0  0  0  0  0  0
   46.9840   34.2970   42.3080 O   0  0  0  0  0  0  0  0  0  0  0  0
   44.5560   35.7890   44.7030 C   0  0  0  0  0  0  0  0  0  0  0  0
   45.2850   35.6270   43.5250 C   0  0  0  0  0  0  0  0  0  0  0  0
   46.1960   34.5790   43.4080 C   0  0  0  0  0  0  0  0  0  0  0  0
   46.3070   33.7580   44.5030 N   0  0  0  0  0  0  0  0  0  0  0  0
   45.5980   33.9300   45.6270 C   0  0  0  0  0  0  0  0  0  0  0  0
   44.7270   34.9510   45.7090 N   0  0  0  0  0  0  0  0  0  0  0  0
   45.8490   32.9390   46.7190 C   0  0  0  0  0  0  0  0  0  0  0  0
   45.1230   32.8270   47.8860 C   0  0  0  0  0  0  0  0  0  0  0  0
   45.4790   31.8760   48.7760 C   0  0  0  0  0  0  0  0  0  0  0  0
   46.5280   31.0210   48.5660 C   0  0  0  0  0  0  0  0  0  0  0  0
   47.1460   31.6030   46.8680 S   0  0  0  0  0  0  0  0  0  0  0  0
   48.2364   35.8935   42.6633 H   0  0  0  0  0  0  0  0  0  0  0  0
   49.0300   34.2833   42.5275 H   0  0  0  0  0  0  0  0  0  0  0  0
   48.3769   36.2468   40.4341 H   0  0  0  0  0  0  0  0  0  0  0  0
   49.5057   34.8694   40.3850 H   0  0  0  0  0  0  0  0  0  0  0  0
   46.6072   34.2002   40.3465 H   0  0  0  0  0  0  0  0  0  0  0  0
   48.9278   35.5237   37.3895 H   0  0  0  0  0  0  0  0  0  0  0  0
   48.8056   33.5317   35.5424 H   0  0  0  0  0  0  0  0  0  0  0  0
   47.6103   31.5325   36.6263 H   0  0  0  0  0  0  0  0  0  0  0  0
   43.8371   36.6166   44.7942 H   0  0  0  0  0  0  0  0  0  0  0  0
   45.1408   36.3265   42.6884 H   0  0  0  0  0  0  0  0  0  0  0  0
   44.2738   33.4966   48.0872 H   0  0  0  0  0  0  0  0  0  0  0  0
   44.9026   31.7842   49.7084 H   0  0  0  0  0  0  0  0  0  0  0  0
   46.9098   30.2139   49.2085 H   0  0  0  0  0  0  0  0  0  0  0  0
  1  9  1  0
  2  1  1  0
  3  2  1  0
  4  3  1  0
  5  4  1  0
  6  7  1  0
  6  5  2  0
  7  8  1  0
  8  4  2  0
  9 12  1  0
 10 15  2  0
 11 10  1  0
 12 11  2  0
 12 13  1  0
 13 14  2  0
 14 15  1  0
 14 16  1  0
 16 20  1  0
 16 17  2  0
 17 18  1  0
 19 18  2  0
 20 19  1  0
  1 21  1  0
  1 22  1  0
  2 23  1  0
  2 24  1  0
  3 25  1  0
  5 26  1  0
  6 27  1  0
  7 28  1  0
 10 29  1  0
 11 30  1  0
 17 31  1  0
 18 32  1  0
 19 33  1  0
M  ISO  8  21   8  22   8  23   8  24   8  26  14  27  14  28   9  29  14
M  ISO  4  30  14  31  14  32  14  33  14
M  END
>  <minimizedAffinity>  (1) 
-5.56418085

>  <minimizedRMSD>  (1) 
0.500497639

$$$$
