
     RDKit          3D

 39 41  0  0  0  0  0  0  0  0999 V2000
   44.6030   35.2700   45.0890 C   0  0  0  0  0  0  0  0  0  0  0  0
   45.0640   35.6110   43.8030 C   0  0  0  0  0  0  0  0  0  0  0  0
   46.1470   34.9030   43.2880 C   0  0  0  0  0  0  0  0  0  0  0  0
   46.6640   33.9280   44.1030 N   0  0  0  0  0  0  0  0  0  0  0  0
   46.2220   33.6150   45.3110 C   0  0  0  0  0  0  0  0  0  0  0  0
   45.1710   34.3050   45.8060 N   0  0  0  0  0  0  0  0  0  0  0  0
   48.0190   30.5930   47.6280 C   0  0  0  0  0  0  0  0  0  0  0  0
   47.6980   31.8150   48.2270 C   0  0  0  0  0  0  0  0  0  0  0  0
   47.1090   32.7810   47.4330 C   0  0  0  0  0  0  0  0  0  0  0  0
   46.8440   32.5570   46.0990 C   0  0  0  0  0  0  0  0  0  0  0  0
   47.1660   31.3470   45.5200 C   0  0  0  0  0  0  0  0  0  0  0  0
   47.7560   30.3610   46.2890 C   0  0  0  0  0  0  0  0  0  0  0  0
   48.7610   29.4450   48.7310 S   0  0  0  0  0  0  0  0  0  0  0  0
   50.0380   28.9360   48.1270 O   0  0  0  0  0  0  0  0  0  0  0  0
   49.1220   30.2370   49.9780 O   0  0  0  0  0  0  0  0  0  0  0  0
   46.7410   35.0900   42.0510 O   0  0  0  0  0  0  0  0  0  0  0  0
   48.1300   35.2140   41.9170 C   0  0  0  0  0  0  0  0  0  0  0  0
   48.5240   35.1940   40.4600 C   0  0  0  0  0  0  0  0  0  0  0  0
   47.5650   34.3920   39.7810 N   0  0  0  0  0  0  0  0  0  0  0  0
   47.8850   33.9230   38.4760 C   0  0  0  0  0  0  0  0  0  0  0  0
   48.4470   34.4220   37.3300 C   0  0  0  0  0  0  0  0  0  0  0  0
   48.3890   33.3390   36.4330 C   0  0  0  0  0  0  0  0  0  0  0  0
   47.8310   32.2840   37.0280 N   0  0  0  0  0  0  0  0  0  0  0  0
   47.5210   32.6290   38.2700 N   0  0  0  0  0  0  0  0  0  0  0  0
   43.7483   35.8177   45.5127 H   0  0  0  0  0  0  0  0  0  0  0  0
   44.5833   36.4124   43.2227 H   0  0  0  0  0  0  0  0  0  0  0  0
   47.9065   32.0007   49.2910 H   0  0  0  0  0  0  0  0  0  0  0  0
   46.8453   33.7524   47.8766 H   0  0  0  0  0  0  0  0  0  0  0  0
   46.9551   31.1681   44.4553 H   0  0  0  0  0  0  0  0  0  0  0  0
   48.0163   29.3926   45.8369 H   0  0  0  0  0  0  0  0  0  0  0  0
   47.9235   28.3936   48.9956 H   0  0  0  0  0  0  0  0  0  0  0  0
   48.4537   36.1643   42.3666 H   0  0  0  0  0  0  0  0  0  0  0  0
   48.6138   34.3686   42.4282 H   0  0  0  0  0  0  0  0  0  0  0  0
   48.5181   36.2159   40.0530 H   0  0  0  0  0  0  0  0  0  0  0  0
   49.5376   34.7861   40.3329 H   0  0  0  0  0  0  0  0  0  0  0  0
   46.6641   34.1573   40.2217 H   0  0  0  0  0  0  0  0  0  0  0  0
   48.8486   35.4307   37.1530 H   0  0  0  0  0  0  0  0  0  0  0  0
   48.7506   33.3597   35.3943 H   0  0  0  0  0  0  0  0  0  0  0  0
   47.6691   31.3622   36.5978 H   0  0  0  0  0  0  0  0  0  0  0  0
  1  6  2  0
  2  1  1  0
  3  2  2  0
  3  4  1  0
  4  5  2  0
  5  6  1  0
  5 10  1  0
  7  8  2  0
  7 13  1  0
  9  8  1  0
 10  9  2  0
 11 10  1  0
 11 12  2  0
 12  7  1  0
 13 15  2  0
 14 13  2  0
 16  3  1  0
 17 16  1  0
 18 17  1  0
 19 18  1  0
 20 19  1  0
 21 20  1  0
 22 23  1  0
 22 21  2  0
 23 24  1  0
 24 20  2  0
  1 25  1  0
  2 26  1  0
  8 27  1  0
  9 28  1  0
 11 29  1  0
 12 30  1  0
 13 31  1  0
 17 32  1  0
 17 33  1  0
 18 34  1  0
 18 35  1  0
 19 36  1  0
 21 37  1  0
 22 38  1  0
 23 39  1  0
M  ISO  8  25  14  26  14  27  14  28  14  29  14  30  14  31  11  32   8
M  ISO  6  33   8  34   8  35   8  37  14  38  14  39   9
M  END
>  <minimizedAffinity>  (1) 
-5.49214888

>  <minimizedRMSD>  (1) 
1.17777479

$$$$
