
     RDKit          3D

 35 36  0  0  0  0  0  0  0  0999 V2000
   48.0810   35.2230   42.0020 C   0  0  0  0  0  0  0  0  0  0  0  0
   48.5260   35.1680   40.5620 C   0  0  0  0  0  0  0  0  0  0  0  0
   47.5580   34.4130   39.8460 N   0  0  0  0  0  0  0  0  0  0  0  0
   47.8950   33.9730   38.5360 C   0  0  0  0  0  0  0  0  0  0  0  0
   48.5110   34.4740   37.4210 C   0  0  0  0  0  0  0  0  0  0  0  0
   48.4420   33.4300   36.4870 C   0  0  0  0  0  0  0  0  0  0  0  0
   47.8220   32.3820   37.0340 N   0  0  0  0  0  0  0  0  0  0  0  0
   47.4880   32.7030   38.2740 N   0  0  0  0  0  0  0  0  0  0  0  0
   46.7590   34.7780   42.1180 O   0  0  0  0  0  0  0  0  0  0  0  0
   44.4930   35.6960   44.9330 C   0  0  0  0  0  0  0  0  0  0  0  0
   45.0900   35.7540   43.6800 C   0  0  0  0  0  0  0  0  0  0  0  0
   46.0830   34.8350   43.3280 C   0  0  0  0  0  0  0  0  0  0  0  0
   46.4140   33.9010   44.2830 N   0  0  0  0  0  0  0  0  0  0  0  0
   45.8180   33.8700   45.4860 C   0  0  0  0  0  0  0  0  0  0  0  0
   44.8650   34.7670   45.7990 N   0  0  0  0  0  0  0  0  0  0  0  0
   46.2470   32.8100   46.4670 C   0  0  0  0  0  0  0  0  0  0  0  0
   46.2010   31.4310   45.8700 C   0  0  0  0  0  0  0  0  0  0  0  0
   45.2570   32.7910   47.6360 C   0  0  0  0  0  0  0  0  0  0  0  0
   48.1482   36.2597   42.3635 H   0  0  0  0  0  0  0  0  0  0  0  0
   48.7324   34.5719   42.6035 H   0  0  0  0  0  0  0  0  0  0  0  0
   48.5896   36.1856   40.1491 H   0  0  0  0  0  0  0  0  0  0  0  0
   49.5193   34.7026   40.4802 H   0  0  0  0  0  0  0  0  0  0  0  0
   46.6422   34.1916   40.2621 H   0  0  0  0  0  0  0  0  0  0  0  0
   48.9587   35.4699   37.2877 H   0  0  0  0  0  0  0  0  0  0  0  0
   48.8379   33.4688   35.4614 H   0  0  0  0  0  0  0  0  0  0  0  0
   47.6359   31.4806   36.5717 H   0  0  0  0  0  0  0  0  0  0  0  0
   43.7120   36.4213   45.2050 H   0  0  0  0  0  0  0  0  0  0  0  0
   44.7799   36.5268   42.9612 H   0  0  0  0  0  0  0  0  0  0  0  0
   47.2758   33.0519   46.7721 H   0  0  0  0  0  0  0  0  0  0  0  0
   46.1761   30.6831   46.6762 H   0  0  0  0  0  0  0  0  0  0  0  0
   45.2990   31.3304   45.2485 H   0  0  0  0  0  0  0  0  0  0  0  0
   47.0943   31.2705   45.2485 H   0  0  0  0  0  0  0  0  0  0  0  0
   45.8113   32.8016   48.5861 H   0  0  0  0  0  0  0  0  0  0  0  0
   44.6072   33.6768   47.5806 H   0  0  0  0  0  0  0  0  0  0  0  0
   44.6417   31.8809   47.5806 H   0  0  0  0  0  0  0  0  0  0  0  0
  1  9  1  0
  2  1  1  0
  3  2  1  0
  4  3  1  0
  5  4  1  0
  6  7  1  0
  6  5  2  0
  7  8  1  0
  8  4  2  0
  9 12  1  0
 10 15  2  0
 11 10  1  0
 12 11  2  0
 12 13  1  0
 13 14  2  0
 14 15  1  0
 14 16  1  0
 16 18  1  0
 17 16  1  0
  1 19  1  0
  1 20  1  0
  2 21  1  0
  2 22  1  0
  3 23  1  0
  5 24  1  0
  6 25  1  0
  7 26  1  0
 10 27  1  0
 11 28  1  0
 16 29  1  0
 17 30  1  0
 17 31  1  0
 17 32  1  0
 18 33  1  0
 18 34  1  0
 18 35  1  0
M  ISO  8  19   8  20   8  21   8  22   8  24  14  25  14  26   9  27  14
M  ISO  8  28  14  29   8  30   8  31   8  32   8  33   8  34   8  35   8
M  END
>  <minimizedAffinity>  (1) 
-5.00233889

>  <minimizedRMSD>  (1) 
0.419737995

$$$$
