
     RDKit          3D

 28 29  0  0  0  0  0  0  0  0999 V2000
   48.0620   35.1900   41.9740 C   0  0  0  0  0  0  0  0  0  0  0  0
   48.5350   35.1310   40.5470 C   0  0  0  0  0  0  0  0  0  0  0  0
   47.5490   34.4030   39.8080 N   0  0  0  0  0  0  0  0  0  0  0  0
   47.9030   33.9580   38.5000 C   0  0  0  0  0  0  0  0  0  0  0  0
   48.5180   34.4690   37.3910 C   0  0  0  0  0  0  0  0  0  0  0  0
   48.4810   33.4160   36.4570 C   0  0  0  0  0  0  0  0  0  0  0  0
   47.8770   32.3620   37.0080 N   0  0  0  0  0  0  0  0  0  0  0  0
   47.5210   32.6750   38.2480 N   0  0  0  0  0  0  0  0  0  0  0  0
   46.6940   34.8680   42.0520 O   0  0  0  0  0  0  0  0  0  0  0  0
   44.4440   35.9670   44.8050 C   0  0  0  0  0  0  0  0  0  0  0  0
   45.0690   35.9930   43.5490 C   0  0  0  0  0  0  0  0  0  0  0  0
   45.9900   34.9970   43.2340 C   0  0  0  0  0  0  0  0  0  0  0  0
   46.2030   34.0600   44.2140 N   0  0  0  0  0  0  0  0  0  0  0  0
   45.6070   34.0440   45.4000 C   0  0  0  0  0  0  0  0  0  0  0  0
   44.7190   35.0110   45.6940 N   0  0  0  0  0  0  0  0  0  0  0  0
   45.8970   33.0050   46.3810 C   0  0  0  0  0  0  0  0  0  0  0  0
   45.2320   32.9520   47.4650 O   0  0  0  0  0  0  0  0  0  0  0  0
   48.2179   36.2060   42.3657 H   0  0  0  0  0  0  0  0  0  0  0  0
   48.6338   34.4630   42.5694 H   0  0  0  0  0  0  0  0  0  0  0  0
   48.6367   36.1481   40.1406 H   0  0  0  0  0  0  0  0  0  0  0  0
   49.5171   34.6402   40.4794 H   0  0  0  0  0  0  0  0  0  0  0  0
   46.6191   34.2079   40.2056 H   0  0  0  0  0  0  0  0  0  0  0  0
   48.9447   35.4742   37.2585 H   0  0  0  0  0  0  0  0  0  0  0  0
   48.8859   33.4562   35.4350 H   0  0  0  0  0  0  0  0  0  0  0  0
   47.7138   31.4552   36.5475 H   0  0  0  0  0  0  0  0  0  0  0  0
   43.7141   36.7490   45.0613 H   0  0  0  0  0  0  0  0  0  0  0  0
   44.8353   36.7873   42.8248 H   0  0  0  0  0  0  0  0  0  0  0  0
   46.6895   32.2679   46.1845 H   0  0  0  0  0  0  0  0  0  0  0  0
  1  9  1  0
  2  1  1  0
  3  2  1  0
  4  3  1  0
  5  4  1  0
  6  7  1  0
  6  5  2  0
  7  8  1  0
  8  4  2  0
  9 12  1  0
 10 15  2  0
 11 10  1  0
 12 11  2  0
 12 13  1  0
 13 14  2  0
 14 15  1  0
 14 16  1  0
 16 17  2  0
  1 18  1  0
  1 19  1  0
  2 20  1  0
  2 21  1  0
  3 22  1  0
  5 23  1  0
  6 24  1  0
  7 25  1  0
 10 26  1  0
 11 27  1  0
 16 28  1  0
M  ISO  8  18   8  19   8  20   8  21   8  23  14  24  14  25   9  26  14
M  ISO  2  27  14  28   6
M  END
>  <minimizedAffinity>  (1) 
-4.80153608

>  <minimizedRMSD>  (1) 
0.302510798

$$$$
