
     RDKit          3D

 48 52  0  0  1  0  0  0  0  0999 V2000
   46.8140   34.8240   42.4170 C   0  0  0  0  0  0  0  0  0  0  0  0
   46.4470   34.2840   43.6340 C   0  0  0  0  0  0  0  0  0  0  0  0
   45.1860   33.7950   43.8290 C   0  0  0  0  0  0  0  0  0  0  0  0
   44.2600   33.8100   42.8800 N   0  0  0  0  0  0  0  0  0  0  0  0
   44.6070   34.3310   41.7030 C   0  0  0  0  0  0  0  0  0  0  0  0
   45.8410   34.8200   41.4760 N   0  0  0  0  0  0  0  0  0  0  0  0
   49.3300   34.5640   41.7270 C   0  0  1  0  0  0  0  0  0  0  0  0
   48.6630   35.4520   40.7340 C   0  0  0  0  0  0  0  0  0  0  0  0
   48.1270   35.4120   42.0660 C   0  0  1  0  0  0  0  0  0  0  0  0
   48.9390   31.2190   40.1540 C   0  0  0  0  0  0  0  0  0  0  0  0
   49.0320   32.6420   40.3020 C   0  0  0  0  0  0  0  0  0  0  0  0
   49.2360   33.1100   41.5830 C   0  0  0  0  0  0  0  0  0  0  0  0
   49.3370   32.2460   42.6220 N   0  0  0  0  0  0  0  0  0  0  0  0
   49.2460   30.9240   42.4630 C   0  0  0  0  0  0  0  0  0  0  0  0
   49.0470   30.3920   41.2380 N   0  0  0  0  0  0  0  0  0  0  0  0
   43.6000   34.3910   40.6030 C   0  0  1  0  0  0  0  0  0  0  0  0
   43.0480   33.0350   40.3680 C   0  0  0  0  0  0  0  0  0  0  0  0
   42.5160   35.3990   40.9000 C   0  0  0  0  0  0  0  0  0  0  0  0
   41.1840   34.6820   40.8420 C   0  0  0  0  0  0  0  0  0  0  0  0
   40.4860   34.0870   41.8740 C   0  0  0  0  0  0  0  0  0  0  0  0
   39.3290   33.5750   41.4090 N   0  0  0  0  0  0  0  0  0  0  0  0
   39.2400   33.8210   40.0710 C   0  0  0  0  0  0  0  0  0  0  0  0
   38.2570   33.5010   39.1300 C   0  0  0  0  0  0  0  0  0  0  0  0
   38.4550   33.8930   37.8010 C   0  0  0  0  0  0  0  0  0  0  0  0
   39.5990   34.5760   37.4490 C   0  0  0  0  0  0  0  0  0  0  0  0
   40.5760   34.8890   38.4040 C   0  0  0  0  0  0  0  0  0  0  0  0
   40.3990   34.5110   39.7210 C   0  0  0  0  0  0  0  0  0  0  0  0
   47.1778   34.2471   44.4553 H   0  0  0  0  0  0  0  0  0  0  0  0
   44.9291   33.3724   44.8116 H   0  0  0  0  0  0  0  0  0  0  0  0
   50.3399   34.4371   42.1441 H   0  0  0  0  0  0  0  0  0  0  0  0
   49.1782   36.3579   40.3818 H   0  0  0  0  0  0  0  0  0  0  0  0
   48.2361   35.2950   39.7324 H   0  0  0  0  0  0  0  0  0  0  0  0
   47.8939   36.1787   42.8196 H   0  0  0  0  0  0  0  0  0  0  0  0
   48.7787   30.7866   39.1554 H   0  0  0  0  0  0  0  0  0  0  0  0
   48.9455   33.3223   39.4420 H   0  0  0  0  0  0  0  0  0  0  0  0
   49.3339   30.2622   43.3373 H   0  0  0  0  0  0  0  0  0  0  0  0
   44.0941   34.7322   39.6813 H   0  0  0  0  0  0  0  0  0  0  0  0
   42.8495   32.5475   41.3339 H   0  0  0  0  0  0  0  0  0  0  0  0
   42.1106   33.1144   39.7979 H   0  0  0  0  0  0  0  0  0  0  0  0
   43.7743   32.4372   39.7979 H   0  0  0  0  0  0  0  0  0  0  0  0
   42.6672   35.8257   41.9025 H   0  0  0  0  0  0  0  0  0  0  0  0
   42.5425   36.2173   40.1654 H   0  0  0  0  0  0  0  0  0  0  0  0
   40.8237   34.0381   42.9197 H   0  0  0  0  0  0  0  0  0  0  0  0
   38.6254   33.0779   41.9736 H   0  0  0  0  0  0  0  0  0  0  0  0
   37.3498   32.9543   39.4268 H   0  0  0  0  0  0  0  0  0  0  0  0
   37.6984   33.6562   37.0385 H   0  0  0  0  0  0  0  0  0  0  0  0
   39.7477   34.8802   36.4024 H   0  0  0  0  0  0  0  0  0  0  0  0
   41.4829   35.4351   38.1052 H   0  0  0  0  0  0  0  0  0  0  0  0
  1  2  2  0
  2  3  1  0
  4  3  2  0
  5  4  1  0
  6  5  2  0
  6  1  1  0
  7  9  1  0
  8  7  1  0
  8  9  1  0
  9  1  1  0
 10 11  2  0
 10 15  1  0
 11 12  1  0
 12  7  1  0
 12 13  2  0
 14 13  1  0
 15 14  2  0
 16 18  1  0
 16  5  1  0
 17 16  1  0
 19 18  1  0
 19 20  2  0
 21 20  1  0
 22 21  1  0
 23 22  2  0
 24 23  1  0
 25 24  2  0
 25 26  1  0
 26 27  2  0
 27 22  1  0
 27 19  1  0
  2 28  1  0
  3 29  1  0
  7 30  1  1
  8 31  1  0
  8 32  1  0
  9 33  1  1
 10 34  1  0
 11 35  1  0
 14 36  1  0
 16 37  1  6
 17 38  1  0
 17 39  1  0
 17 40  1  0
 18 41  1  0
 18 42  1  0
 20 43  1  0
 21 44  1  0
 23 45  1  0
 24 46  1  0
 25 47  1  0
 26 48  1  0
M  ISO  8  28  14  29  14  30  13  31  13  32  13  33  13  34  14  35  14
M  ISO  8  36  14  37   8  38   8  39   8  40   8  41   8  42   8  43  14
M  ISO  5  44   9  45  14  46  14  47  14  48  14
M  END
>  <minimizedAffinity>  (1) 
-6.74230862

>  <minimizedRMSD>  (1) 
4.01337719

$$$$
