
     RDKit          3D

 40 42  0  0  1  0  0  0  0  0999 V2000
   44.4650   35.7420   45.0760 C   0  0  0  0  0  0  0  0  0  0  0  0
   45.0390   35.8930   43.8230 C   0  0  0  0  0  0  0  0  0  0  0  0
   45.9710   34.9560   43.3750 C   0  0  0  0  0  0  0  0  0  0  0  0
   46.2440   33.9350   44.2440 N   0  0  0  0  0  0  0  0  0  0  0  0
   45.6800   33.8080   45.4460 C   0  0  0  0  0  0  0  0  0  0  0  0
   44.7860   34.7210   45.8580 N   0  0  0  0  0  0  0  0  0  0  0  0
   46.0090   32.7190   46.3040 N   0  0  0  0  0  0  0  0  0  0  0  0
   47.1470   31.8750   46.0810 C   0  0  0  0  0  0  0  0  0  0  0  0
   46.6640   30.4480   46.1990 C   0  0  0  0  0  0  0  0  0  0  0  0
   46.1450   30.1690   47.4480 O   0  0  0  0  0  0  0  0  0  0  0  0
   45.9110   31.2800   48.2190 C   0  0  0  0  0  0  0  0  0  0  0  0
   45.2090   32.4010   47.4590 C   0  0  1  0  0  0  0  0  0  0  0  0
   45.2430   33.5100   48.3310 O   0  0  0  0  0  0  0  0  0  0  0  0
   46.6380   34.9520   42.1600 O   0  0  0  0  0  0  0  0  0  0  0  0
   48.0320   35.0600   42.0790 C   0  0  0  0  0  0  0  0  0  0  0  0
   48.4750   35.0700   40.6430 C   0  0  0  0  0  0  0  0  0  0  0  0
   47.4820   34.3850   39.8760 N   0  0  0  0  0  0  0  0  0  0  0  0
   47.8420   33.9460   38.5640 C   0  0  0  0  0  0  0  0  0  0  0  0
   48.4600   34.5010   37.4770 C   0  0  0  0  0  0  0  0  0  0  0  0
   48.4730   33.4740   36.5330 C   0  0  0  0  0  0  0  0  0  0  0  0
   47.9000   32.3920   37.0390 N   0  0  0  0  0  0  0  0  0  0  0  0
   47.5060   32.6530   38.2780 N   0  0  0  0  0  0  0  0  0  0  0  0
   43.7308   36.4820   45.4271 H   0  0  0  0  0  0  0  0  0  0  0  0
   44.7615   36.7459   43.1862 H   0  0  0  0  0  0  0  0  0  0  0  0
   47.9211   32.0762   46.8362 H   0  0  0  0  0  0  0  0  0  0  0  0
   47.5877   32.0612   45.0905 H   0  0  0  0  0  0  0  0  0  0  0  0
   45.8816   30.2765   45.4451 H   0  0  0  0  0  0  0  0  0  0  0  0
   47.5289   29.7872   46.0402 H   0  0  0  0  0  0  0  0  0  0  0  0
   45.2807   30.9875   49.0717 H   0  0  0  0  0  0  0  0  0  0  0  0
   46.8891   31.6661   48.5419 H   0  0  0  0  0  0  0  0  0  0  0  0
   44.1876   32.1340   47.1502 H   0  0  0  0  0  0  0  0  0  0  0  0
   45.2333   33.1928   49.2688 H   0  0  0  0  0  0  0  0  0  0  0  0
   48.3517   35.9945   42.5633 H   0  0  0  0  0  0  0  0  0  0  0  0
   48.4865   34.1962   42.5862 H   0  0  0  0  0  0  0  0  0  0  0  0
   48.5727   36.1067   40.2885 H   0  0  0  0  0  0  0  0  0  0  0  0
   49.4516   34.5748   40.5381 H   0  0  0  0  0  0  0  0  0  0  0  0
   46.5399   34.2137   40.2555 H   0  0  0  0  0  0  0  0  0  0  0  0
   48.8556   35.5220   37.3716 H   0  0  0  0  0  0  0  0  0  0  0  0
   48.8956   33.5510   35.5204 H   0  0  0  0  0  0  0  0  0  0  0  0
   47.7800   31.4938   36.5495 H   0  0  0  0  0  0  0  0  0  0  0  0
  1  6  2  0
  2  1  1  0
  3  2  2  0
  3  4  1  0
  4  5  2  0
  5  6  1  0
  5  7  1  0
  7 12  1  0
  8  9  1  0
  8  7  1  0
  9 10  1  0
 10 11  1  0
 12 11  1  0
 12 13  1  0
 14  3  1  0
 15 14  1  0
 16 15  1  0
 17 16  1  0
 18 17  1  0
 19 18  1  0
 20 21  1  0
 20 19  2  0
 21 22  1  0
 22 18  2  0
  1 23  1  0
  2 24  1  0
  8 25  1  0
  8 26  1  0
  9 27  1  0
  9 28  1  0
 11 29  1  0
 11 30  1  0
 12 31  1  6
 13 32  1  0
 15 33  1  0
 15 34  1  0
 16 35  1  0
 16 36  1  0
 17 37  1  0
 19 38  1  0
 20 39  1  0
 21 40  1  0
M  ISO  8  23  14  24  14  25  13  26  13  27  13  28  13  29  13  30  13
M  ISO  8  31  13  32   3  33   8  34   8  35   8  36   8  38  14  39  14
M  ISO  1  40   9
M  END
>  <minimizedAffinity>  (1) 
-6.13691711

>  <minimizedRMSD>  (1) 
0.431565851

$$$$
