
     RDKit          3D

 46 49  0  0  1  0  0  0  0  0999 V2000
   44.7440   35.1870   45.6630 C   0  0  0  0  0  0  0  0  0  0  0  0
   44.3870   35.4020   44.3360 C   0  0  0  0  0  0  0  0  0  0  0  0
   44.8140   34.4970   43.3480 C   0  0  0  0  0  0  0  0  0  0  0  0
   45.5720   33.4470   43.8010 N   0  0  0  0  0  0  0  0  0  0  0  0
   45.9000   33.2660   45.0880 C   0  0  0  0  0  0  0  0  0  0  0  0
   45.4820   34.1390   46.0060 N   0  0  0  0  0  0  0  0  0  0  0  0
   46.6890   32.1520   45.4820 N   0  0  0  0  0  0  0  0  0  0  0  0
   47.4590   31.3830   44.5440 C   0  0  0  0  0  0  0  0  0  0  0  0
   47.1920   29.9280   44.8490 C   0  0  0  0  0  0  0  0  0  0  0  0
   47.5630   29.5750   46.1340 O   0  0  0  0  0  0  0  0  0  0  0  0
   47.8550   30.6600   46.9400 C   0  0  0  0  0  0  0  0  0  0  0  0
   46.7610   31.7320   46.8500 C   0  0  2  0  0  0  0  0  0  0  0  0
   45.3980   31.0930   47.1490 C   0  0  0  0  0  0  0  0  0  0  0  0
   45.2210   30.1620   48.2730 C   0  0  0  0  0  0  0  0  0  0  0  0
   44.6770   31.5570   48.3950 C   0  0  0  0  0  0  0  0  0  0  0  0
   44.5470   34.5690   41.9980 O   0  0  0  0  0  0  0  0  0  0  0  0
   44.0420   33.4430   41.2960 C   0  0  0  0  0  0  0  0  0  0  0  0
   43.8200   33.7970   39.8510 C   0  0  0  0  0  0  0  0  0  0  0  0
   43.2010   35.0850   39.8090 N   0  0  0  0  0  0  0  0  0  0  0  0
   41.7750   35.1430   39.8660 C   0  0  0  0  0  0  0  0  0  0  0  0
   40.7410   34.5080   39.2350 C   0  0  0  0  0  0  0  0  0  0  0  0
   39.5980   35.0740   39.7980 C   0  0  0  0  0  0  0  0  0  0  0  0
   39.9480   35.9810   40.7000 N   0  0  0  0  0  0  0  0  0  0  0  0
   41.2740   36.0480   40.7660 N   0  0  0  0  0  0  0  0  0  0  0  0
   44.4107   35.8939   46.4370 H   0  0  0  0  0  0  0  0  0  0  0  0
   43.7750   36.2738   44.0613 H   0  0  0  0  0  0  0  0  0  0  0  0
   48.5301   31.6042   44.6619 H   0  0  0  0  0  0  0  0  0  0  0  0
   47.1782   31.6272   43.5089 H   0  0  0  0  0  0  0  0  0  0  0  0
   46.1159   29.7348   44.7278 H   0  0  0  0  0  0  0  0  0  0  0  0
   47.7944   29.3266   44.1523 H   0  0  0  0  0  0  0  0  0  0  0  0
   47.9382   30.3196   47.9827 H   0  0  0  0  0  0  0  0  0  0  0  0
   48.8026   31.1015   46.5978 H   0  0  0  0  0  0  0  0  0  0  0  0
   46.9856   32.5512   47.5489 H   0  0  0  0  0  0  0  0  0  0  0  0
   45.1736   31.0237   46.0744 H   0  0  0  0  0  0  0  0  0  0  0  0
   44.5295   29.3121   48.1753 H   0  0  0  0  0  0  0  0  0  0  0  0
   45.9020   29.5445   48.8771 H   0  0  0  0  0  0  0  0  0  0  0  0
   45.1525   32.2802   49.0739 H   0  0  0  0  0  0  0  0  0  0  0  0
   43.6963   32.0029   48.6171 H   0  0  0  0  0  0  0  0  0  0  0  0
   44.7659   32.6174   41.3621 H   0  0  0  0  0  0  0  0  0  0  0  0
   43.0856   33.1361   41.7444 H   0  0  0  0  0  0  0  0  0  0  0  0
   44.7831   33.8267   39.3204 H   0  0  0  0  0  0  0  0  0  0  0  0
   43.1802   33.0461   39.3644 H   0  0  0  0  0  0  0  0  0  0  0  0
   43.7654   35.9438   39.7398 H   0  0  0  0  0  0  0  0  0  0  0  0
   40.7981   33.7290   38.4605 H   0  0  0  0  0  0  0  0  0  0  0  0
   38.5636   34.8087   39.5342 H   0  0  0  0  0  0  0  0  0  0  0  0
   39.2945   36.5453   41.2616 H   0  0  0  0  0  0  0  0  0  0  0  0
  1  6  2  0
  2  1  1  0
  3  4  1  0
  3  2  2  0
  4  5  2  0
  5  7  1  0
  5  6  1  0
  7 12  1  0
  8  9  1  0
  8  7  1  0
  9 10  1  0
 10 11  1  0
 12 11  1  0
 12 13  1  0
 13 14  1  0
 13 15  1  0
 14 15  1  0
 16  3  1  0
 17 16  1  0
 18 17  1  0
 19 18  1  0
 19 20  1  0
 20 24  2  0
 21 22  2  0
 21 20  1  0
 22 23  1  0
 23 24  1  0
  1 25  1  0
  2 26  1  0
  8 27  1  0
  8 28  1  0
  9 29  1  0
  9 30  1  0
 11 31  1  0
 11 32  1  0
 12 33  1  1
 13 34  1  0
 14 35  1  0
 14 36  1  0
 15 37  1  0
 15 38  1  0
 17 39  1  0
 17 40  1  0
 18 41  1  0
 18 42  1  0
 19 43  1  0
 21 44  1  0
 22 45  1  0
 23 46  1  0
M  ISO  8  25  14  26  14  27  13  28  13  29  13  30  13  31  13  32  13
M  ISO  8  33  13  34  13  35  13  36  13  37  13  38  13  39   8  40   8
M  ISO  5  41   8  42   8  44  14  45  14  46   9
M  END
>  <minimizedAffinity>  (1) 
-5.45573854

>  <minimizedRMSD>  (1) 
4.38315678

$$$$
