
     RDKit          3D

 41 43  0  0  1  0  0  0  0  0999 V2000
   44.6750   35.2860   45.3040 C   0  0  0  0  0  0  0  0  0  0  0  0
   45.1670   35.6450   44.0510 C   0  0  0  0  0  0  0  0  0  0  0  0
   46.0900   34.8240   43.4100 C   0  0  0  0  0  0  0  0  0  0  0  0
   46.4440   33.6970   44.0910 N   0  0  0  0  0  0  0  0  0  0  0  0
   45.9630   33.3650   45.2960 C   0  0  0  0  0  0  0  0  0  0  0  0
   45.0790   34.1670   45.8900 N   0  0  0  0  0  0  0  0  0  0  0  0
   46.3790   32.1660   45.9490 N   0  0  0  0  0  0  0  0  0  0  0  0
   47.5490   31.4400   45.5570 C   0  0  0  0  0  0  0  0  0  0  0  0
   47.1610   29.9840   45.4770 C   0  0  0  0  0  0  0  0  0  0  0  0
   46.6960   29.4860   46.6800 O   0  0  0  0  0  0  0  0  0  0  0  0
   46.4510   30.4590   47.6200 C   0  0  0  0  0  0  0  0  0  0  0  0
   45.6380   31.6190   47.0500 C   0  0  1  0  0  0  0  0  0  0  0  0
   45.3070   32.5700   48.1170 C   0  0  0  0  0  0  0  0  0  0  0  0
   45.7960   32.3740   49.2190 O   0  0  0  0  0  0  0  0  0  0  0  0
   46.6680   35.0370   42.1760 O   0  0  0  0  0  0  0  0  0  0  0  0
   48.0790   35.0910   42.0330 C   0  0  0  0  0  0  0  0  0  0  0  0
   48.4600   35.1900   40.5870 C   0  0  0  0  0  0  0  0  0  0  0  0
   47.5460   34.4080   39.8490 N   0  0  0  0  0  0  0  0  0  0  0  0
   47.9080   33.9240   38.5480 C   0  0  0  0  0  0  0  0  0  0  0  0
   48.4410   34.5180   37.4250 C   0  0  0  0  0  0  0  0  0  0  0  0
   48.5220   33.4570   36.5100 C   0  0  0  0  0  0  0  0  0  0  0  0
   48.0600   32.3330   37.0870 N   0  0  0  0  0  0  0  0  0  0  0  0
   47.6820   32.5960   38.3260 N   0  0  0  0  0  0  0  0  0  0  0  0
   43.9461   35.9354   45.8110 H   0  0  0  0  0  0  0  0  0  0  0  0
   44.8271   36.5741   43.5700 H   0  0  0  0  0  0  0  0  0  0  0  0
   47.9001   31.7915   44.5756 H   0  0  0  0  0  0  0  0  0  0  0  0
   48.3635   31.5891   46.2811 H   0  0  0  0  0  0  0  0  0  0  0  0
   46.3697   29.8723   44.7211 H   0  0  0  0  0  0  0  0  0  0  0  0
   48.0639   29.4151   45.2102 H   0  0  0  0  0  0  0  0  0  0  0  0
   45.8927   30.0118   48.4557 H   0  0  0  0  0  0  0  0  0  0  0  0
   47.4202   30.8576   47.9543 H   0  0  0  0  0  0  0  0  0  0  0  0
   44.6625   31.2995   46.6547 H   0  0  0  0  0  0  0  0  0  0  0  0
   44.6433   33.4274   47.9315 H   0  0  0  0  0  0  0  0  0  0  0  0
   48.4631   35.9714   42.5690 H   0  0  0  0  0  0  0  0  0  0  0  0
   48.5130   34.1710   42.4515 H   0  0  0  0  0  0  0  0  0  0  0  0
   48.4087   36.2380   40.2568 H   0  0  0  0  0  0  0  0  0  0  0  0
   49.4879   34.8296   40.4334 H   0  0  0  0  0  0  0  0  0  0  0  0
   46.6210   34.1853   40.2436 H   0  0  0  0  0  0  0  0  0  0  0  0
   48.7324   35.5688   37.2806 H   0  0  0  0  0  0  0  0  0  0  0  0
   48.9038   33.5327   35.4812 H   0  0  0  0  0  0  0  0  0  0  0  0
   48.0087   31.4098   36.6332 H   0  0  0  0  0  0  0  0  0  0  0  0
  1  6  2  0
  2  1  1  0
  3  2  2  0
  3  4  1  0
  4  5  2  0
  5  6  1  0
  5  7  1  0
  7 12  1  0
  8  7  1  0
  9  8  1  0
  9 10  1  0
 10 11  1  0
 12 11  1  0
 12 13  1  0
 13 14  2  0
 15  3  1  0
 16 15  1  0
 17 16  1  0
 18 17  1  0
 19 18  1  0
 20 19  1  0
 21 22  1  0
 21 20  2  0
 22 23  1  0
 23 19  2  0
  1 24  1  0
  2 25  1  0
  8 26  1  0
  8 27  1  0
  9 28  1  0
  9 29  1  0
 11 30  1  0
 11 31  1  0
 12 32  1  6
 13 33  1  0
 16 34  1  0
 16 35  1  0
 17 36  1  0
 17 37  1  0
 18 38  1  0
 20 39  1  0
 21 40  1  0
 22 41  1  0
M  ISO  8  24  14  25  14  26  13  27  13  28  13  29  13  30  13  31  13
M  ISO  8  32  13  33   6  34   8  35   8  36   8  37   8  39  14  40  14
M  ISO  1  41   9
M  END
>  <minimizedAffinity>  (1) 
-5.40211248

>  <minimizedRMSD>  (1) 
1.18048465

$$$$
