
     RDKit          3D

 44 47  0  0  1  0  0  0  0  0999 V2000
   44.9650   33.7950   42.4310 C   0  0  0  0  0  0  0  0  0  0  0  0
   44.3960   32.5660   42.6850 C   0  0  0  0  0  0  0  0  0  0  0  0
   43.3080   32.1540   41.9760 C   0  0  0  0  0  0  0  0  0  0  0  0
   42.7480   32.9010   41.0210 N   0  0  0  0  0  0  0  0  0  0  0  0
   43.3010   34.0790   40.7830 C   0  0  0  0  0  0  0  0  0  0  0  0
   44.3660   34.5160   41.4560 N   0  0  0  0  0  0  0  0  0  0  0  0
   47.5400   34.2680   42.6120 C   0  0  1  0  0  0  0  0  0  0  0  0
   46.8300   35.5760   42.6870 C   0  0  0  0  0  0  0  0  0  0  0  0
   46.1330   34.4060   43.1400 C   0  0  1  0  0  0  0  0  0  0  0  0
   48.1840   33.9550   38.9630 C   0  0  0  0  0  0  0  0  0  0  0  0
   47.9020   34.5390   40.2430 C   0  0  0  0  0  0  0  0  0  0  0  0
   47.8320   33.6570   41.3240 C   0  0  0  0  0  0  0  0  0  0  0  0
   48.0230   32.3300   41.1350 N   0  0  0  0  0  0  0  0  0  0  0  0
   48.2840   31.8080   39.9320 C   0  0  0  0  0  0  0  0  0  0  0  0
   48.3680   32.6060   38.8340 N   0  0  0  0  0  0  0  0  0  0  0  0
   42.6940   34.9470   39.7380 C   0  0  1  0  0  0  0  0  0  0  0  0
   42.5910   34.1770   38.4690 C   0  0  0  0  0  0  0  0  0  0  0  0
   41.3390   35.4810   40.1540 C   0  0  0  0  0  0  0  0  0  0  0  0
   40.2140   34.7680   39.5180 C   0  0  0  0  0  0  0  0  0  0  0  0
   39.8710   34.7940   38.2010 C   0  0  0  0  0  0  0  0  0  0  0  0
   38.8100   34.1090   37.6570 C   0  0  0  0  0  0  0  0  0  0  0  0
   38.0530   33.3520   38.5110 C   0  0  0  0  0  0  0  0  0  0  0  0
   38.3570   33.2900   39.8550 C   0  0  0  0  0  0  0  0  0  0  0  0
   39.4200   33.9890   40.3420 C   0  0  0  0  0  0  0  0  0  0  0  0
   44.8217   31.9152   43.4630 H   0  0  0  0  0  0  0  0  0  0  0  0
   42.8741   31.1681   42.1987 H   0  0  0  0  0  0  0  0  0  0  0  0
   48.4805   33.8404   42.9895 H   0  0  0  0  0  0  0  0  0  0  0  0
   47.1567   36.3314   43.4168 H   0  0  0  0  0  0  0  0  0  0  0  0
   46.6037   36.3670   41.9569 H   0  0  0  0  0  0  0  0  0  0  0  0
   45.6108   34.1476   44.0730 H   0  0  0  0  0  0  0  0  0  0  0  0
   48.2530   34.6002   38.0748 H   0  0  0  0  0  0  0  0  0  0  0  0
   47.7494   35.6214   40.3662 H   0  0  0  0  0  0  0  0  0  0  0  0
   48.4322   30.7229   39.8295 H   0  0  0  0  0  0  0  0  0  0  0  0
   43.3442   35.8223   39.5928 H   0  0  0  0  0  0  0  0  0  0  0  0
   42.4483   33.1105   38.6978 H   0  0  0  0  0  0  0  0  0  0  0  0
   41.7340   34.5447   37.8855 H   0  0  0  0  0  0  0  0  0  0  0  0
   43.5145   34.3065   37.8855 H   0  0  0  0  0  0  0  0  0  0  0  0
   41.2439   35.3817   41.2454 H   0  0  0  0  0  0  0  0  0  0  0  0
   41.2870   36.5306   39.8291 H   0  0  0  0  0  0  0  0  0  0  0  0
   40.4857   35.4059   37.5244 H   0  0  0  0  0  0  0  0  0  0  0  0
   38.5794   34.1666   36.5830 H   0  0  0  0  0  0  0  0  0  0  0  0
   37.1933   32.7874   38.1210 H   0  0  0  0  0  0  0  0  0  0  0  0
   37.7428   32.6778   40.5317 H   0  0  0  0  0  0  0  0  0  0  0  0
   39.6530   33.9331   41.4156 H   0  0  0  0  0  0  0  0  0  0  0  0
  1  2  2  0
  1  9  1  0
  3  2  1  0
  4  3  2  0
  5  4  1  0
  5  6  2  0
  6  1  1  0
  7  8  1  0
  7  9  1  0
  8  9  1  0
 10 11  2  0
 11 12  1  0
 12  7  1  0
 13 12  2  0
 14 13  1  0
 15 10  1  0
 15 14  2  0
 16 18  1  0
 16  5  1  0
 17 16  1  0
 19 18  1  0
 19 24  1  0
 20 19  2  0
 21 20  1  0
 21 22  2  0
 22 23  1  0
 23 24  2  0
  2 25  1  0
  3 26  1  0
  7 27  1  1
  8 28  1  0
  8 29  1  0
  9 30  1  1
 10 31  1  0
 11 32  1  0
 14 33  1  0
 16 34  1  6
 17 35  1  0
 17 36  1  0
 17 37  1  0
 18 38  1  0
 18 39  1  0
 20 40  1  0
 21 41  1  0
 22 42  1  0
 23 43  1  0
 24 44  1  0
M  ISO  8  25  14  26  14  27  13  28  13  29  13  30  13  31  14  32  14
M  ISO  8  33  14  34   8  35   8  36   8  37   8  38   8  39   8  40  14
M  ISO  4  41  14  42  14  43  14  44  14
M  END
>  <minimizedAffinity>  (1) 
-5.89887333

>  <minimizedRMSD>  (1) 
2.25990629

$$$$
