
     RDKit          3D

 50 53  0  0  1  0  0  0  0  0999 V2000
   44.6320   35.3640   45.4500 C   0  0  0  0  0  0  0  0  0  0  0  0
   44.9630   35.7160   44.1450 C   0  0  0  0  0  0  0  0  0  0  0  0
   45.7760   34.8750   43.3810 C   0  0  0  0  0  0  0  0  0  0  0  0
   46.1890   33.7360   44.0100 N   0  0  0  0  0  0  0  0  0  0  0  0
   45.8550   33.4170   45.2740 C   0  0  0  0  0  0  0  0  0  0  0  0
   45.0830   34.2320   45.9750 N   0  0  0  0  0  0  0  0  0  0  0  0
   46.3240   32.2090   45.8660 N   0  0  0  0  0  0  0  0  0  0  0  0
   47.4420   31.4730   45.3300 C   0  0  0  0  0  0  0  0  0  0  0  0
   47.0140   30.0200   45.2960 C   0  0  0  0  0  0  0  0  0  0  0  0
   46.7210   29.5160   46.5430 O   0  0  0  0  0  0  0  0  0  0  0  0
   46.5820   30.4970   47.5060 C   0  0  0  0  0  0  0  0  0  0  0  0
   45.7130   31.6490   47.0330 C   0  0  1  0  0  0  0  0  0  0  0  0
   45.4430   32.6020   48.1350 C   0  0  0  0  0  0  0  0  0  0  0  0
   46.1970   35.0740   42.0800 O   0  0  0  0  0  0  0  0  0  0  0  0
   47.5740   35.0760   41.7500 C   0  0  0  0  0  0  0  0  0  0  0  0
   47.8910   33.9620   40.8050 C   0  0  0  0  0  0  0  0  0  0  0  0
   47.0170   34.0720   39.6850 N   0  0  0  0  0  0  0  0  0  0  0  0
   47.5040   33.8060   38.3640 C   0  0  0  0  0  0  0  0  0  0  0  0
   48.5770   34.3100   37.6610 C   0  0  0  0  0  0  0  0  0  0  0  0
   48.5200   33.6610   36.4390 C   0  0  0  0  0  0  0  0  0  0  0  0
   47.4600   32.8240   36.4450 N   0  0  0  0  0  0  0  0  0  0  0  0
   46.8370   32.9070   37.6130 N   0  0  0  0  0  0  0  0  0  0  0  0
   47.1250   32.0090   35.3330 C   0  0  0  0  0  0  0  0  0  0  0  0
   48.0040   31.8180   34.2850 C   0  0  0  0  0  0  0  0  0  0  0  0
   47.6010   31.0090   33.2400 C   0  0  0  0  0  0  0  0  0  0  0  0
   46.3750   30.4410   33.2800 N   0  0  0  0  0  0  0  0  0  0  0  0
   45.5240   30.6420   34.3240 C   0  0  0  0  0  0  0  0  0  0  0  0
   45.8910   31.4250   35.3550 N   0  0  0  0  0  0  0  0  0  0  0  0
   43.9926   36.0283   46.0499 H   0  0  0  0  0  0  0  0  0  0  0  0
   44.5849   36.6554   43.7154 H   0  0  0  0  0  0  0  0  0  0  0  0
   47.6787   31.8247   44.3150 H   0  0  0  0  0  0  0  0  0  0  0  0
   48.3442   31.6109   45.9440 H   0  0  0  0  0  0  0  0  0  0  0  0
   46.1182   29.9332   44.6636 H   0  0  0  0  0  0  0  0  0  0  0  0
   47.8573   29.4380   44.8958 H   0  0  0  0  0  0  0  0  0  0  0  0
   46.1230   30.0518   48.4010 H   0  0  0  0  0  0  0  0  0  0  0  0
   47.5826   30.8979   47.7253 H   0  0  0  0  0  0  0  0  0  0  0  0
   44.7089   31.3100   46.7381 H   0  0  0  0  0  0  0  0  0  0  0  0
   45.5864   32.0957   49.1010 H   0  0  0  0  0  0  0  0  0  0  0  0
   46.1352   33.4537   48.0611 H   0  0  0  0  0  0  0  0  0  0  0  0
   44.4069   32.9641   48.0611 H   0  0  0  0  0  0  0  0  0  0  0  0
   47.8308   36.0353   41.2769 H   0  0  0  0  0  0  0  0  0  0  0  0
   48.1592   34.9367   42.6709 H   0  0  0  0  0  0  0  0  0  0  0  0
   48.9363   34.0413   40.4719 H   0  0  0  0  0  0  0  0  0  0  0  0
   47.7553   32.9898   41.3014 H   0  0  0  0  0  0  0  0  0  0  0  0
   46.0333   34.3432   39.8253 H   0  0  0  0  0  0  0  0  0  0  0  0
   49.3116   35.0577   37.9947 H   0  0  0  0  0  0  0  0  0  0  0  0
   49.2208   33.8034   35.6032 H   0  0  0  0  0  0  0  0  0  0  0  0
   48.9949   32.2955   34.2824 H   0  0  0  0  0  0  0  0  0  0  0  0
   48.2699   30.8292   32.3855 H   0  0  0  0  0  0  0  0  0  0  0  0
   44.5338   30.1629   34.3245 H   0  0  0  0  0  0  0  0  0  0  0  0
  1  6  2  0
  2  1  1  0
  3  4  1  0
  3  2  2  0
  4  5  2  0
  5  7  1  0
  5  6  1  0
  7 12  1  0
  8  7  1  0
  9  8  1  0
  9 10  1  0
 10 11  1  0
 12 11  1  0
 12 13  1  0
 14  3  1  0
 15 14  1  0
 16 15  1  0
 17 16  1  0
 18 17  1  0
 19 18  1  0
 20 21  1  0
 20 19  2  0
 21 22  1  0
 22 18  2  0
 23 28  1  0
 23 21  1  0
 24 23  2  0
 25 26  2  0
 25 24  1  0
 26 27  1  0
 27 28  2  0
  1 29  1  0
  2 30  1  0
  8 31  1  0
  8 32  1  0
  9 33  1  0
  9 34  1  0
 11 35  1  0
 11 36  1  0
 12 37  1  6
 13 38  1  0
 13 39  1  0
 13 40  1  0
 15 41  1  0
 15 42  1  0
 16 43  1  0
 16 44  1  0
 17 45  1  0
 19 46  1  0
 20 47  1  0
 24 48  1  0
 25 49  1  0
 27 50  1  0
M  ISO  8  29  14  30  14  31  13  32  13  33  13  34  13  35  13  36  13
M  ISO  8  37  13  38   8  39   8  40   8  41   8  42   8  43   8  44   8
M  ISO  5  46  14  47  14  48  14  49  14  50  14
M  END
>  <minimizedAffinity>  (1) 
-5.98824215

>  <minimizedRMSD>  (1) 
1.20300877

$$$$
