
     RDKit          3D

 49 52  0  0  1  0  0  0  0  0999 V2000
   44.6570   35.3040   45.3110 C   0  0  0  0  0  0  0  0  0  0  0  0
   45.1640   35.6340   44.0560 C   0  0  0  0  0  0  0  0  0  0  0  0
   46.0960   34.8070   43.4430 C   0  0  0  0  0  0  0  0  0  0  0  0
   46.4490   33.6930   44.1560 N   0  0  0  0  0  0  0  0  0  0  0  0
   45.9540   33.3870   45.3670 C   0  0  0  0  0  0  0  0  0  0  0  0
   45.0620   34.1980   45.9290 N   0  0  0  0  0  0  0  0  0  0  0  0
   46.3730   32.2100   46.0450 N   0  0  0  0  0  0  0  0  0  0  0  0
   47.5550   31.5040   45.6940 C   0  0  0  0  0  0  0  0  0  0  0  0
   47.1970   30.0380   45.6350 C   0  0  0  0  0  0  0  0  0  0  0  0
   46.7210   29.5480   46.8330 O   0  0  0  0  0  0  0  0  0  0  0  0
   46.4400   30.5320   47.7450 C   0  0  0  0  0  0  0  0  0  0  0  0
   45.6190   31.6630   47.1330 C   0  0  1  0  0  0  0  0  0  0  0  0
   45.1530   32.6250   48.1600 C   0  0  0  0  0  0  0  0  0  0  0  0
   46.6940   34.9880   42.2060 O   0  0  0  0  0  0  0  0  0  0  0  0
   48.1180   34.9540   42.0790 C   0  0  0  0  0  0  0  0  0  0  0  0
   48.5090   35.0870   40.6480 C   0  0  0  0  0  0  0  0  0  0  0  0
   47.5060   34.4590   39.8530 N   0  0  0  0  0  0  0  0  0  0  0  0
   47.8330   33.9590   38.5490 C   0  0  0  0  0  0  0  0  0  0  0  0
   48.4550   34.5430   37.4660 C   0  0  0  0  0  0  0  0  0  0  0  0
   48.4770   33.5480   36.5020 C   0  0  0  0  0  0  0  0  0  0  0  0
   47.8950   32.4510   37.0140 N   0  0  0  0  0  0  0  0  0  0  0  0
   47.4960   32.6800   38.2590 N   0  0  0  0  0  0  0  0  0  0  0  0
   47.7020   31.1850   36.3570 C   0  0  0  0  0  0  0  0  0  0  0  0
   46.8810   30.1160   36.6860 C   0  0  0  0  0  0  0  0  0  0  0  0
   47.0840   29.1490   35.7150 C   0  0  0  0  0  0  0  0  0  0  0  0
   47.9900   29.6260   34.8450 N   0  0  0  0  0  0  0  0  0  0  0  0
   48.3590   30.8260   35.2160 N   0  0  0  0  0  0  0  0  0  0  0  0
   43.9183   35.9612   45.7931 H   0  0  0  0  0  0  0  0  0  0  0  0
   44.8257   36.5504   43.5503 H   0  0  0  0  0  0  0  0  0  0  0  0
   47.9195   31.8430   44.7131 H   0  0  0  0  0  0  0  0  0  0  0  0
   48.3510   31.6828   46.4319 H   0  0  0  0  0  0  0  0  0  0  0  0
   46.4222   29.8976   44.8669 H   0  0  0  0  0  0  0  0  0  0  0  0
   48.1179   29.4851   45.3976 H   0  0  0  0  0  0  0  0  0  0  0  0
   45.8723   30.0920   48.5781 H   0  0  0  0  0  0  0  0  0  0  0  0
   47.3942   30.9551   48.0922 H   0  0  0  0  0  0  0  0  0  0  0  0
   44.6714   31.2972   46.7107 H   0  0  0  0  0  0  0  0  0  0  0  0
   45.3510   32.2163   49.1619 H   0  0  0  0  0  0  0  0  0  0  0  0
   45.6894   33.5778   48.0401 H   0  0  0  0  0  0  0  0  0  0  0  0
   44.0728   32.7947   48.0401 H   0  0  0  0  0  0  0  0  0  0  0  0
   48.5542   35.7843   42.6537 H   0  0  0  0  0  0  0  0  0  0  0  0
   48.4905   33.9939   42.4656 H   0  0  0  0  0  0  0  0  0  0  0  0
   48.5848   36.1511   40.3799 H   0  0  0  0  0  0  0  0  0  0  0  0
   49.4853   34.6108   40.4746 H   0  0  0  0  0  0  0  0  0  0  0  0
   46.5464   34.3643   40.2151 H   0  0  0  0  0  0  0  0  0  0  0  0
   48.8458   35.5681   37.3854 H   0  0  0  0  0  0  0  0  0  0  0  0
   48.8989   33.6406   35.4904 H   0  0  0  0  0  0  0  0  0  0  0  0
   46.2019   30.0494   37.5488 H   0  0  0  0  0  0  0  0  0  0  0  0
   46.5916   28.1666   35.6652 H   0  0  0  0  0  0  0  0  0  0  0  0
   48.3397   29.1255   34.0155 H   0  0  0  0  0  0  0  0  0  0  0  0
  1  6  2  0
  2  1  1  0
  3  2  2  0
  3  4  1  0
  4  5  2  0
  5  6  1  0
  5  7  1  0
  7 12  1  0
  8  7  1  0
  9  8  1  0
  9 10  1  0
 10 11  1  0
 12 11  1  0
 12 13  1  0
 14  3  1  0
 15 14  1  0
 16 15  1  0
 17 16  1  0
 18 17  1  0
 19 18  1  0
 20 21  1  0
 20 19  2  0
 21 22  1  0
 22 18  2  0
 23 24  1  0
 23 21  1  0
 25 24  2  0
 26 27  1  0
 26 25  1  0
 27 23  2  0
  1 28  1  0
  2 29  1  0
  8 30  1  0
  8 31  1  0
  9 32  1  0
  9 33  1  0
 11 34  1  0
 11 35  1  0
 12 36  1  6
 13 37  1  0
 13 38  1  0
 13 39  1  0
 15 40  1  0
 15 41  1  0
 16 42  1  0
 16 43  1  0
 17 44  1  0
 19 45  1  0
 20 46  1  0
 24 47  1  0
 25 48  1  0
 26 49  1  0
M  ISO  8  28  14  29  14  30  13  31  13  32  13  33  13  34  13  35  13
M  ISO  8  36  13  37   8  38   8  39   8  40   8  41   8  42   8  43   8
M  ISO  5  45  14  46  14  47  14  48  14  49   9
M  END
>  <minimizedAffinity>  (1) 
-5.82360029

>  <minimizedRMSD>  (1) 
0.186759964

$$$$
