
     RDKit          3D

 49 52  0  0  1  0  0  0  0  0999 V2000
   44.6590   35.3050   45.3070 C   0  0  0  0  0  0  0  0  0  0  0  0
   45.1660   35.6370   44.0560 C   0  0  0  0  0  0  0  0  0  0  0  0
   46.1020   34.8000   43.4410 C   0  0  0  0  0  0  0  0  0  0  0  0
   46.4510   33.6840   44.1460 N   0  0  0  0  0  0  0  0  0  0  0  0
   45.9420   33.3890   45.3580 C   0  0  0  0  0  0  0  0  0  0  0  0
   45.0500   34.2070   45.9240 N   0  0  0  0  0  0  0  0  0  0  0  0
   46.3490   32.2100   46.0400 N   0  0  0  0  0  0  0  0  0  0  0  0
   47.5390   31.4840   45.6740 C   0  0  0  0  0  0  0  0  0  0  0  0
   47.1500   30.0230   45.6210 C   0  0  0  0  0  0  0  0  0  0  0  0
   46.7090   29.5560   46.8440 O   0  0  0  0  0  0  0  0  0  0  0  0
   46.4450   30.5560   47.7560 C   0  0  0  0  0  0  0  0  0  0  0  0
   45.5980   31.6730   47.1340 C   0  0  1  0  0  0  0  0  0  0  0  0
   45.1520   32.6400   48.1510 C   0  0  0  0  0  0  0  0  0  0  0  0
   46.6980   34.9870   42.2050 O   0  0  0  0  0  0  0  0  0  0  0  0
   48.1150   34.9610   42.0700 C   0  0  0  0  0  0  0  0  0  0  0  0
   48.5010   35.0820   40.6350 C   0  0  0  0  0  0  0  0  0  0  0  0
   47.4980   34.4360   39.8510 N   0  0  0  0  0  0  0  0  0  0  0  0
   47.8310   33.9370   38.5470 C   0  0  0  0  0  0  0  0  0  0  0  0
   48.4340   34.5260   37.4560 C   0  0  0  0  0  0  0  0  0  0  0  0
   48.4730   33.5280   36.5010 C   0  0  0  0  0  0  0  0  0  0  0  0
   47.9210   32.4210   37.0200 N   0  0  0  0  0  0  0  0  0  0  0  0
   47.5250   32.6540   38.2640 N   0  0  0  0  0  0  0  0  0  0  0  0
   47.7470   31.1430   36.3880 C   0  0  0  0  0  0  0  0  0  0  0  0
   47.5160   29.9010   36.9070 C   0  0  0  0  0  0  0  0  0  0  0  0
   47.4370   29.0440   35.8280 C   0  0  0  0  0  0  0  0  0  0  0  0
   47.6260   29.8150   34.7030 C   0  0  0  0  0  0  0  0  0  0  0  0
   47.8090   31.0650   35.0660 O   0  0  0  0  0  0  0  0  0  0  0  0
   43.9229   35.9660   45.7880 H   0  0  0  0  0  0  0  0  0  0  0  0
   44.8318   36.5555   43.5514 H   0  0  0  0  0  0  0  0  0  0  0  0
   47.9002   31.8173   44.6899 H   0  0  0  0  0  0  0  0  0  0  0  0
   48.3485   31.6546   46.3990 H   0  0  0  0  0  0  0  0  0  0  0  0
   46.3446   29.8974   44.8824 H   0  0  0  0  0  0  0  0  0  0  0  0
   48.0434   29.4455   45.3410 H   0  0  0  0  0  0  0  0  0  0  0  0
   45.8998   30.1268   48.6095 H   0  0  0  0  0  0  0  0  0  0  0  0
   47.4026   30.9887   48.0814 H   0  0  0  0  0  0  0  0  0  0  0  0
   44.6469   31.3001   46.7261 H   0  0  0  0  0  0  0  0  0  0  0  0
   45.3409   32.2304   49.1542 H   0  0  0  0  0  0  0  0  0  0  0  0
   45.7065   33.5822   48.0292 H   0  0  0  0  0  0  0  0  0  0  0  0
   44.0754   32.8298   48.0292 H   0  0  0  0  0  0  0  0  0  0  0  0
   48.5486   35.7998   42.6343 H   0  0  0  0  0  0  0  0  0  0  0  0
   48.4941   34.0061   42.4629 H   0  0  0  0  0  0  0  0  0  0  0  0
   48.5672   36.1436   40.3548 H   0  0  0  0  0  0  0  0  0  0  0  0
   49.4809   34.6129   40.4626 H   0  0  0  0  0  0  0  0  0  0  0  0
   46.5418   34.3287   40.2186 H   0  0  0  0  0  0  0  0  0  0  0  0
   48.8016   35.5588   37.3659 H   0  0  0  0  0  0  0  0  0  0  0  0
   48.8868   33.6249   35.4864 H   0  0  0  0  0  0  0  0  0  0  0  0
   47.4136   29.6371   37.9700 H   0  0  0  0  0  0  0  0  0  0  0  0
   47.2583   27.9591   35.8604 H   0  0  0  0  0  0  0  0  0  0  0  0
   47.6241   29.4446   33.6673 H   0  0  0  0  0  0  0  0  0  0  0  0
  1  6  2  0
  2  1  1  0
  3  2  2  0
  3  4  1  0
  4  5  2  0
  5  6  1  0
  5  7  1  0
  7 12  1  0
  8  7  1  0
  9  8  1  0
  9 10  1  0
 10 11  1  0
 12 11  1  0
 12 13  1  0
 14  3  1  0
 15 14  1  0
 16 15  1  0
 17 16  1  0
 18 17  1  0
 19 18  1  0
 20 21  1  0
 20 19  2  0
 21 22  1  0
 22 18  2  0
 23 24  2  0
 23 21  1  0
 25 24  1  0
 26 27  1  0
 26 25  2  0
 27 23  1  0
  1 28  1  0
  2 29  1  0
  8 30  1  0
  8 31  1  0
  9 32  1  0
  9 33  1  0
 11 34  1  0
 11 35  1  0
 12 36  1  6
 13 37  1  0
 13 38  1  0
 13 39  1  0
 15 40  1  0
 15 41  1  0
 16 42  1  0
 16 43  1  0
 17 44  1  0
 19 45  1  0
 20 46  1  0
 24 47  1  0
 25 48  1  0
 26 49  1  0
M  ISO  8  28  14  29  14  30  13  31  13  32  13  33  13  34  13  35  13
M  ISO  8  36  13  37   8  38   8  39   8  40   8  41   8  42   8  43   8
M  ISO  5  45  14  46  14  47  14  48  14  49  14
M  END
>  <minimizedAffinity>  (1) 
-5.5557456

>  <minimizedRMSD>  (1) 
0.185052201

$$$$
