
     RDKit          3D

 54 56  0  0  1  0  0  0  0  0999 V2000
   44.6690   35.2950   45.3080 C   0  0  0  0  0  0  0  0  0  0  0  0
   45.1690   35.6240   44.0500 C   0  0  0  0  0  0  0  0  0  0  0  0
   46.1010   34.7860   43.4280 C   0  0  0  0  0  0  0  0  0  0  0  0
   46.4540   33.6720   44.1370 N   0  0  0  0  0  0  0  0  0  0  0  0
   45.9570   33.3800   45.3470 C   0  0  0  0  0  0  0  0  0  0  0  0
   45.0760   34.1850   45.9210 N   0  0  0  0  0  0  0  0  0  0  0  0
   46.3730   32.1990   46.0290 N   0  0  0  0  0  0  0  0  0  0  0  0
   47.5770   31.4920   45.6750 C   0  0  0  0  0  0  0  0  0  0  0  0
   47.2080   30.0290   45.6220 C   0  0  0  0  0  0  0  0  0  0  0  0
   46.7460   29.5430   46.8260 O   0  0  0  0  0  0  0  0  0  0  0  0
   46.4390   30.5190   47.7330 C   0  0  0  0  0  0  0  0  0  0  0  0
   45.6110   31.6390   47.1150 C   0  0  1  0  0  0  0  0  0  0  0  0
   45.1750   32.6240   48.1460 C   0  0  0  0  0  0  0  0  0  0  0  0
   46.6840   34.9730   42.1900 O   0  0  0  0  0  0  0  0  0  0  0  0
   48.1080   34.9940   42.0590 C   0  0  0  0  0  0  0  0  0  0  0  0
   48.4940   35.1260   40.6240 C   0  0  0  0  0  0  0  0  0  0  0  0
   47.5220   34.4320   39.8430 N   0  0  0  0  0  0  0  0  0  0  0  0
   47.8790   33.9390   38.5440 C   0  0  0  0  0  0  0  0  0  0  0  0
   48.4420   34.5490   37.4440 C   0  0  0  0  0  0  0  0  0  0  0  0
   48.5320   33.5270   36.5020 C   0  0  0  0  0  0  0  0  0  0  0  0
   48.0440   32.3970   37.0430 N   0  0  0  0  0  0  0  0  0  0  0  0
   47.6430   32.6350   38.2860 N   0  0  0  0  0  0  0  0  0  0  0  0
   47.9680   31.1280   36.3760 C   0  0  0  0  0  0  0  0  0  0  0  0
   49.2540   30.8200   35.6100 C   0  0  0  0  0  0  0  0  0  0  0  0
   46.8700   31.1460   35.3270 C   0  0  0  0  0  0  0  0  0  0  0  0
   47.6320   30.0270   37.3390 C   0  0  0  0  0  0  0  0  0  0  0  0
   43.9360   35.9539   45.7963 H   0  0  0  0  0  0  0  0  0  0  0  0
   44.8314   36.5417   43.5462 H   0  0  0  0  0  0  0  0  0  0  0  0
   47.9420   31.8287   44.6935 H   0  0  0  0  0  0  0  0  0  0  0  0
   48.3788   31.6763   46.4052 H   0  0  0  0  0  0  0  0  0  0  0  0
   46.4214   29.8938   44.8651 H   0  0  0  0  0  0  0  0  0  0  0  0
   48.1216   29.4697   45.3719 H   0  0  0  0  0  0  0  0  0  0  0  0
   45.8668   30.0690   48.5576 H   0  0  0  0  0  0  0  0  0  0  0  0
   47.3828   30.9553   48.0921 H   0  0  0  0  0  0  0  0  0  0  0  0
   44.6662   31.2582   46.6998 H   0  0  0  0  0  0  0  0  0  0  0  0
   45.3580   32.2105   49.1487 H   0  0  0  0  0  0  0  0  0  0  0  0
   45.7439   33.5576   48.0249 H   0  0  0  0  0  0  0  0  0  0  0  0
   44.1014   32.8306   48.0249 H   0  0  0  0  0  0  0  0  0  0  0  0
   48.5118   35.8475   42.6234 H   0  0  0  0  0  0  0  0  0  0  0  0
   48.5177   34.0529   42.4546 H   0  0  0  0  0  0  0  0  0  0  0  0
   48.5139   36.1881   40.3384 H   0  0  0  0  0  0  0  0  0  0  0  0
   49.4948   34.7018   40.4557 H   0  0  0  0  0  0  0  0  0  0  0  0
   46.5705   34.2860   40.2095 H   0  0  0  0  0  0  0  0  0  0  0  0
   48.7492   35.5996   37.3351 H   0  0  0  0  0  0  0  0  0  0  0  0
   48.9356   33.6277   35.4837 H   0  0  0  0  0  0  0  0  0  0  0  0
   50.0681   30.6250   36.3236 H   0  0  0  0  0  0  0  0  0  0  0  0
   49.1006   29.9332   34.9775 H   0  0  0  0  0  0  0  0  0  0  0  0
   49.5190   31.6801   34.9775 H   0  0  0  0  0  0  0  0  0  0  0  0
   45.8886   31.1621   35.8237 H   0  0  0  0  0  0  0  0  0  0  0  0
   46.9778   32.0425   34.6988 H   0  0  0  0  0  0  0  0  0  0  0  0
   46.9483   30.2465   34.6988 H   0  0  0  0  0  0  0  0  0  0  0  0
   47.7441   30.3945   38.3697 H   0  0  0  0  0  0  0  0  0  0  0  0
   46.5938   29.7019   37.1765 H   0  0  0  0  0  0  0  0  0  0  0  0
   48.3118   29.1776   37.1765 H   0  0  0  0  0  0  0  0  0  0  0  0
  1  6  2  0
  2  1  1  0
  3  2  2  0
  3  4  1  0
  4  5  2  0
  5  6  1  0
  5  7  1  0
  7 12  1  0
  8  7  1  0
  9  8  1  0
  9 10  1  0
 10 11  1  0
 12 11  1  0
 12 13  1  0
 14  3  1  0
 15 14  1  0
 16 15  1  0
 17 16  1  0
 18 17  1  0
 19 18  1  0
 20 21  1  0
 20 19  2  0
 21 22  1  0
 22 18  2  0
 23 21  1  0
 23 26  1  0
 24 23  1  0
 25 23  1  0
  1 27  1  0
  2 28  1  0
  8 29  1  0
  8 30  1  0
  9 31  1  0
  9 32  1  0
 11 33  1  0
 11 34  1  0
 12 35  1  6
 13 36  1  0
 13 37  1  0
 13 38  1  0
 15 39  1  0
 15 40  1  0
 16 41  1  0
 16 42  1  0
 17 43  1  0
 19 44  1  0
 20 45  1  0
 24 46  1  0
 24 47  1  0
 24 48  1  0
 25 49  1  0
 25 50  1  0
 25 51  1  0
 26 52  1  0
 26 53  1  0
 26 54  1  0
M  ISO  8  27  14  28  14  29  13  30  13  31  13  32  13  33  13  34  13
M  ISO  8  35  13  36   8  37   8  38   8  39   8  40   8  41   8  42   8
M  ISO  8  44  14  45  14  46   8  47   8  48   8  49   8  50   8  51   8
M  ISO  3  52   8  53   8  54   8
M  END
>  <minimizedAffinity>  (1) 
-5.50855017

>  <minimizedRMSD>  (1) 
0.148999333

$$$$
