
     RDKit          3D

 49 52  0  0  1  0  0  0  0  0999 V2000
   44.6540   35.3150   45.3140 C   0  0  0  0  0  0  0  0  0  0  0  0
   45.1540   35.6470   44.0560 C   0  0  0  0  0  0  0  0  0  0  0  0
   46.0810   34.8160   43.4330 C   0  0  0  0  0  0  0  0  0  0  0  0
   46.4380   33.7020   44.1290 N   0  0  0  0  0  0  0  0  0  0  0  0
   45.9460   33.3950   45.3450 C   0  0  0  0  0  0  0  0  0  0  0  0
   45.0560   34.2060   45.9260 N   0  0  0  0  0  0  0  0  0  0  0  0
   46.3630   32.2110   46.0180 N   0  0  0  0  0  0  0  0  0  0  0  0
   47.5310   31.4880   45.6500 C   0  0  0  0  0  0  0  0  0  0  0  0
   47.1420   30.0300   45.5870 C   0  0  0  0  0  0  0  0  0  0  0  0
   46.6750   29.5470   46.7950 O   0  0  0  0  0  0  0  0  0  0  0  0
   46.4330   30.5300   47.7190 C   0  0  0  0  0  0  0  0  0  0  0  0
   45.6170   31.6760   47.1200 C   0  0  1  0  0  0  0  0  0  0  0  0
   45.1730   32.6390   48.1460 C   0  0  0  0  0  0  0  0  0  0  0  0
   46.6670   35.0070   42.1930 O   0  0  0  0  0  0  0  0  0  0  0  0
   48.0890   35.0100   42.0620 C   0  0  0  0  0  0  0  0  0  0  0  0
   48.4840   35.1280   40.6280 C   0  0  0  0  0  0  0  0  0  0  0  0
   47.5180   34.4210   39.8530 N   0  0  0  0  0  0  0  0  0  0  0  0
   47.8670   33.9170   38.5530 C   0  0  0  0  0  0  0  0  0  0  0  0
   48.4320   34.5190   37.4530 C   0  0  0  0  0  0  0  0  0  0  0  0
   48.5100   33.5030   36.5130 C   0  0  0  0  0  0  0  0  0  0  0  0
   48.0120   32.3810   37.0520 N   0  0  0  0  0  0  0  0  0  0  0  0
   47.6190   32.6200   38.2900 N   0  0  0  0  0  0  0  0  0  0  0  0
   47.9010   31.0670   36.4070 C   0  0  0  0  0  0  0  0  0  0  0  0
   46.5880   30.8600   35.6110 C   0  0  0  0  0  0  0  0  0  0  0  0
   47.8890   30.9840   34.9280 C   0  0  0  0  0  0  0  0  0  0  0  0
   43.9223   35.9749   45.8031 H   0  0  0  0  0  0  0  0  0  0  0  0
   44.8159   36.5662   43.5552 H   0  0  0  0  0  0  0  0  0  0  0  0
   47.8915   31.8262   44.6673 H   0  0  0  0  0  0  0  0  0  0  0  0
   48.3397   31.6489   46.3781 H   0  0  0  0  0  0  0  0  0  0  0  0
   46.3518   29.9095   44.8313 H   0  0  0  0  0  0  0  0  0  0  0  0
   48.0450   29.4574   45.3285 H   0  0  0  0  0  0  0  0  0  0  0  0
   45.8753   30.0975   48.5628 H   0  0  0  0  0  0  0  0  0  0  0  0
   47.4000   30.9339   48.0534 H   0  0  0  0  0  0  0  0  0  0  0  0
   44.6573   31.3240   46.7137 H   0  0  0  0  0  0  0  0  0  0  0  0
   45.3646   32.2234   49.1463 H   0  0  0  0  0  0  0  0  0  0  0  0
   45.7273   33.5818   48.0283 H   0  0  0  0  0  0  0  0  0  0  0  0
   44.0961   32.8297   48.0283 H   0  0  0  0  0  0  0  0  0  0  0  0
   48.5018   35.8620   42.6220 H   0  0  0  0  0  0  0  0  0  0  0  0
   48.4840   34.0645   42.4620 H   0  0  0  0  0  0  0  0  0  0  0  0
   48.5014   36.1867   40.3300 H   0  0  0  0  0  0  0  0  0  0  0  0
   49.4881   34.7078   40.4690 H   0  0  0  0  0  0  0  0  0  0  0  0
   46.5693   34.2714   40.2252 H   0  0  0  0  0  0  0  0  0  0  0  0
   48.7493   35.5666   37.3440 H   0  0  0  0  0  0  0  0  0  0  0  0
   48.9134   33.6011   35.4943 H   0  0  0  0  0  0  0  0  0  0  0  0
   48.4721   30.5504   37.1925 H   0  0  0  0  0  0  0  0  0  0  0  0
   46.0687   29.8908   35.6416 H   0  0  0  0  0  0  0  0  0  0  0  0
   45.6165   31.3724   35.5504 H   0  0  0  0  0  0  0  0  0  0  0  0
   48.3255   30.1045   34.4321 H   0  0  0  0  0  0  0  0  0  0  0  0
   48.2665   31.6386   34.1286 H   0  0  0  0  0  0  0  0  0  0  0  0
  1  6  2  0
  2  1  1  0
  3  2  2  0
  3  4  1  0
  4  5  2  0
  5  6  1  0
  5  7  1  0
  7 12  1  0
  8  7  1  0
  9  8  1  0
  9 10  1  0
 10 11  1  0
 12 11  1  0
 12 13  1  0
 14  3  1  0
 15 14  1  0
 16 15  1  0
 17 16  1  0
 18 17  1  0
 19 18  1  0
 20 21  1  0
 20 19  2  0
 21 22  1  0
 22 18  2  0
 23 21  1  0
 24 23  1  0
 25 24  1  0
 25 23  1  0
  1 26  1  0
  2 27  1  0
  8 28  1  0
  8 29  1  0
  9 30  1  0
  9 31  1  0
 11 32  1  0
 11 33  1  0
 12 34  1  6
 13 35  1  0
 13 36  1  0
 13 37  1  0
 15 38  1  0
 15 39  1  0
 16 40  1  0
 16 41  1  0
 17 42  1  0
 19 43  1  0
 20 44  1  0
 23 45  1  0
 24 46  1  0
 24 47  1  0
 25 48  1  0
 25 49  1  0
M  ISO  8  26  14  27  14  28  13  29  13  30  13  31  13  32  13  33  13
M  ISO  8  34  13  35   8  36   8  37   8  38   8  39   8  40   8  41   8
M  ISO  7  43  14  44  14  45  13  46  13  47  13  48  13  49  13
M  END
>  <minimizedAffinity>  (1) 
-5.49115753

>  <minimizedRMSD>  (1) 
0.182624444

$$$$
