
     RDKit          3D

 36 38  0  0  1  0  0  0  0  0999 V2000
   43.4630   34.2110   41.4220 C   0  0  2  0  0  0  0  0  0  0  0  0
   43.2670   33.0270   40.5280 C   0  0  0  0  0  0  0  0  0  0  0  0
   42.2760   35.1620   41.3780 C   0  0  0  0  0  0  0  0  0  0  0  0
   41.5460   35.1810   40.1010 C   0  0  0  0  0  0  0  0  0  0  0  0
   42.1520   35.8940   39.0540 C   0  0  0  0  0  0  0  0  0  0  0  0
   41.6320   35.9410   37.7750 C   0  0  0  0  0  0  0  0  0  0  0  0
   40.4680   35.2730   37.4630 C   0  0  0  0  0  0  0  0  0  0  0  0
   39.8340   34.5600   38.4600 C   0  0  0  0  0  0  0  0  0  0  0  0
   38.6500   33.8870   38.2370 C   0  0  0  0  0  0  0  0  0  0  0  0
   37.9850   33.1870   39.2430 C   0  0  0  0  0  0  0  0  0  0  0  0
   38.5750   33.1940   40.5070 C   0  0  0  0  0  0  0  0  0  0  0  0
   39.7410   33.8620   40.7060 C   0  0  0  0  0  0  0  0  0  0  0  0
   40.3920   34.5470   39.7110 C   0  0  0  0  0  0  0  0  0  0  0  0
   44.6520   34.8910   41.1280 O   0  0  0  0  0  0  0  0  0  0  0  0
   45.8680   34.6030   41.6430 C   0  0  0  0  0  0  0  0  0  0  0  0
   45.8870   34.3670   43.0260 C   0  0  0  0  0  0  0  0  0  0  0  0
   47.1180   34.0710   43.6290 C   0  0  0  0  0  0  0  0  0  0  0  0
   48.2270   34.0280   42.8350 N   0  0  0  0  0  0  0  0  0  0  0  0
   48.1700   34.2560   41.5190 C   0  0  0  0  0  0  0  0  0  0  0  0
   47.0030   34.5340   40.9660 N   0  0  0  0  0  0  0  0  0  0  0  0
   43.5394   33.8196   42.4472 H   0  0  0  0  0  0  0  0  0  0  0  0
   43.1178   32.1257   41.1407 H   0  0  0  0  0  0  0  0  0  0  0  0
   42.3835   33.1892   39.8931 H   0  0  0  0  0  0  0  0  0  0  0  0
   44.1557   32.8958   39.8931 H   0  0  0  0  0  0  0  0  0  0  0  0
   41.5719   34.8669   42.1700 H   0  0  0  0  0  0  0  0  0  0  0  0
   42.6854   36.1737   41.5150 H   0  0  0  0  0  0  0  0  0  0  0  0
   43.0838   36.4404   39.2618 H   0  0  0  0  0  0  0  0  0  0  0  0
   42.1531   36.5182   36.9970 H   0  0  0  0  0  0  0  0  0  0  0  0
   40.0543   35.3072   36.4443 H   0  0  0  0  0  0  0  0  0  0  0  0
   38.2143   33.9034   37.2271 H   0  0  0  0  0  0  0  0  0  0  0  0
   37.0416   32.6554   39.0494 H   0  0  0  0  0  0  0  0  0  0  0  0
   38.0969   32.6595   41.3411 H   0  0  0  0  0  0  0  0  0  0  0  0
   40.1844   33.8534   41.7126 H   0  0  0  0  0  0  0  0  0  0  0  0
   44.9625   34.4129   43.6204 H   0  0  0  0  0  0  0  0  0  0  0  0
   47.1876   33.8792   44.7099 H   0  0  0  0  0  0  0  0  0  0  0  0
   49.0819   34.2127   40.9054 H   0  0  0  0  0  0  0  0  0  0  0  0
  2  1  1  0
  3  1  1  0
  4  3  1  0
  5  4  2  0
  6  5  1  0
  7  6  2  0
  7  8  1  0
  8 13  2  0
  9  8  1  0
  9 10  2  0
 10 11  1  0
 11 12  2  0
 13  4  1  0
 13 12  1  0
 14  1  1  0
 14 15  1  0
 15 16  2  0
 16 17  1  0
 18 17  2  0
 19 18  1  0
 20 19  2  0
 20 15  1  0
  1 21  1  1
  2 22  1  0
  2 23  1  0
  2 24  1  0
  3 25  1  0
  3 26  1  0
  5 27  1  0
  6 28  1  0
  7 29  1  0
  9 30  1  0
 10 31  1  0
 11 32  1  0
 12 33  1  0
 16 34  1  0
 17 35  1  0
 19 36  1  0
M  ISO  8  21   8  22   8  23   8  24   8  25   8  26   8  27  14  28  14
M  ISO  8  29  14  30  14  31  14  32  14  33  14  34  14  35  14  36  14
M  END
>  <minimizedAffinity>  (1) 
-5.58002758

>  <minimizedRMSD>  (1) 
2.38961482

$$$$
