
     RDKit          3D

 34 36  0  0  1  0  0  0  0  0999 V2000
   43.5970   34.1930   41.6270 C   0  0  2  0  0  0  0  0  0  0  0  0
   43.3020   32.8580   40.9920 C   0  0  0  0  0  0  0  0  0  0  0  0
   42.3430   35.0650   41.5220 C   0  0  0  0  0  0  0  0  0  0  0  0
   41.7220   35.0310   40.1910 C   0  0  0  0  0  0  0  0  0  0  0  0
   42.3880   35.6650   39.1780 N   0  0  0  0  0  0  0  0  0  0  0  0
   41.8940   35.7660   37.9340 C   0  0  0  0  0  0  0  0  0  0  0  0
   40.6980   35.2540   37.5660 N   0  0  0  0  0  0  0  0  0  0  0  0
   40.0100   34.6230   38.5220 C   0  0  0  0  0  0  0  0  0  0  0  0
   38.7700   34.0390   38.2430 C   0  0  0  0  0  0  0  0  0  0  0  0
   38.0670   33.3680   39.2250 C   0  0  0  0  0  0  0  0  0  0  0  0
   38.6060   33.2780   40.4970 C   0  0  0  0  0  0  0  0  0  0  0  0
   39.8110   33.8440   40.7780 C   0  0  0  0  0  0  0  0  0  0  0  0
   40.5040   34.5120   39.7980 C   0  0  0  0  0  0  0  0  0  0  0  0
   44.7030   34.8210   41.0610 O   0  0  0  0  0  0  0  0  0  0  0  0
   45.9770   34.5640   41.4180 C   0  0  0  0  0  0  0  0  0  0  0  0
   46.2310   34.5260   42.7880 C   0  0  0  0  0  0  0  0  0  0  0  0
   47.5400   34.2690   43.2300 C   0  0  0  0  0  0  0  0  0  0  0  0
   48.5000   34.0660   42.2710 N   0  0  0  0  0  0  0  0  0  0  0  0
   48.2290   34.1050   40.9670 C   0  0  0  0  0  0  0  0  0  0  0  0
   46.9860   34.3510   40.5620 N   0  0  0  0  0  0  0  0  0  0  0  0
   43.8568   34.0337   42.6840 H   0  0  0  0  0  0  0  0  0  0  0  0
   43.1360   32.1067   41.7781 H   0  0  0  0  0  0  0  0  0  0  0  0
   42.4004   32.9404   40.3673 H   0  0  0  0  0  0  0  0  0  0  0  0
   44.1544   32.5528   40.3673 H   0  0  0  0  0  0  0  0  0  0  0  0
   41.6080   34.7101   42.2595 H   0  0  0  0  0  0  0  0  0  0  0  0
   42.6514   36.1037   41.7115 H   0  0  0  0  0  0  0  0  0  0  0  0
   42.4925   36.2919   37.1756 H   0  0  0  0  0  0  0  0  0  0  0  0
   38.3494   34.1149   37.2294 H   0  0  0  0  0  0  0  0  0  0  0  0
   37.0921   32.9114   38.9992 H   0  0  0  0  0  0  0  0  0  0  0  0
   38.0559   32.7449   41.2865 H   0  0  0  0  0  0  0  0  0  0  0  0
   40.2310   33.7665   41.7917 H   0  0  0  0  0  0  0  0  0  0  0  0
   45.4198   34.6945   43.5116 H   0  0  0  0  0  0  0  0  0  0  0  0
   47.7851   34.2321   44.3017 H   0  0  0  0  0  0  0  0  0  0  0  0
   49.0279   33.9349   40.2302 H   0  0  0  0  0  0  0  0  0  0  0  0
  2  1  1  0
  3  1  1  0
  4  3  1  0
  5  4  2  0
  6  5  1  0
  7  6  2  0
  7  8  1  0
  8 13  2  0
  9  8  1  0
  9 10  2  0
 10 11  1  0
 11 12  2  0
 13  4  1  0
 13 12  1  0
 14 15  1  0
 14  1  1  0
 15 16  2  0
 16 17  1  0
 18 17  2  0
 19 18  1  0
 20 19  2  0
 20 15  1  0
  1 21  1  1
  2 22  1  0
  2 23  1  0
  2 24  1  0
  3 25  1  0
  3 26  1  0
  6 27  1  0
  9 28  1  0
 10 29  1  0
 11 30  1  0
 12 31  1  0
 16 32  1  0
 17 33  1  0
 19 34  1  0
M  ISO  8  21   8  22   8  23   8  24   8  25   8  26   8  27  14  28  14
M  ISO  6  29  14  30  14  31  14  32  14  33  14  34  14
M  END
>  <minimizedAffinity>  (1) 
-5.24613571

>  <minimizedRMSD>  (1) 
2.05130434

$$$$
