
     RDKit          3D

 34 36  0  0  1  0  0  0  0  0999 V2000
   42.7760   34.6590   41.7760 C   0  0  0  0  0  0  0  0  0  0  0  0
   41.9890   34.6850   40.5860 N   0  0  0  0  0  0  0  0  0  0  0  0
   42.3650   35.3180   39.4590 C   0  0  0  0  0  0  0  0  0  0  0  0
   41.4510   35.1940   38.4770 N   0  0  0  0  0  0  0  0  0  0  0  0
   40.4480   34.4650   38.9630 C   0  0  0  0  0  0  0  0  0  0  0  0
   39.2490   34.0130   38.4380 C   0  0  0  0  0  0  0  0  0  0  0  0
   38.9990   34.3260   37.2600 O   0  0  0  0  0  0  0  0  0  0  0  0
   38.4460   33.2720   39.2400 N   0  0  0  0  0  0  0  0  0  0  0  0
   38.7950   32.9760   40.5160 C   0  0  0  0  0  0  0  0  0  0  0  0
   37.8160   32.1900   41.1820 N   0  0  0  0  0  0  0  0  0  0  0  0
   39.9660   33.4150   41.0340 N   0  0  0  0  0  0  0  0  0  0  0  0
   40.7930   34.1630   40.2490 C   0  0  0  0  0  0  0  0  0  0  0  0
   43.8430   33.5640   41.7940 C   0  0  1  0  0  0  0  0  0  0  0  0
   43.2040   32.2150   41.8810 C   0  0  0  0  0  0  0  0  0  0  0  0
   44.6830   33.6820   40.6800 O   0  0  0  0  0  0  0  0  0  0  0  0
   45.9780   34.0790   40.7250 C   0  0  0  0  0  0  0  0  0  0  0  0
   46.3610   34.7020   41.9220 C   0  0  0  0  0  0  0  0  0  0  0  0
   47.6880   35.1490   42.0440 C   0  0  0  0  0  0  0  0  0  0  0  0
   48.5210   34.9440   40.9840 N   0  0  0  0  0  0  0  0  0  0  0  0
   48.1320   34.3460   39.8580 C   0  0  0  0  0  0  0  0  0  0  0  0
   46.8800   33.9360   39.7670 N   0  0  0  0  0  0  0  0  0  0  0  0
   42.1034   34.5002   42.6318 H   0  0  0  0  0  0  0  0  0  0  0  0
   43.3072   35.6209   41.8265 H   0  0  0  0  0  0  0  0  0  0  0  0
   43.3091   35.8723   39.3522 H   0  0  0  0  0  0  0  0  0  0  0  0
   37.5490   32.9254   38.8710 H   0  0  0  0  0  0  0  0  0  0  0  0
   37.9660   31.8997   42.1588 H   0  0  0  0  0  0  0  0  0  0  0  0
   36.9565   31.9107   40.6879 H   0  0  0  0  0  0  0  0  0  0  0  0
   44.4706   33.6856   42.6892 H   0  0  0  0  0  0  0  0  0  0  0  0
   43.0731   31.9387   42.9377 H   0  0  0  0  0  0  0  0  0  0  0  0
   42.2227   32.2414   41.3847 H   0  0  0  0  0  0  0  0  0  0  0  0
   43.8461   31.4724   41.3847 H   0  0  0  0  0  0  0  0  0  0  0  0
   45.6419   34.8371   42.7434 H   0  0  0  0  0  0  0  0  0  0  0  0
   48.0412   35.6454   42.9599 H   0  0  0  0  0  0  0  0  0  0  0  0
   48.8359   34.1978   39.0258 H   0  0  0  0  0  0  0  0  0  0  0  0
  1 13  1  0
  2  1  1  0
  3  2  1  0
  4  5  1  0
  4  3  2  0
  5 12  2  0
  6  5  1  0
  6  8  1  0
  7  6  2  0
  8  9  1  0
  9 11  2  0
  9 10  1  0
 12  2  1  0
 12 11  1  0
 13 14  1  0
 15 16  1  0
 15 13  1  0
 16 17  2  0
 17 18  1  0
 19 18  2  0
 20 19  1  0
 21 20  2  0
 21 16  1  0
  1 22  1  0
  1 23  1  0
  3 24  1  0
  8 25  1  0
 10 26  1  0
 10 27  1  0
 13 28  1  1
 14 29  1  0
 14 30  1  0
 14 31  1  0
 17 32  1  0
 18 33  1  0
 20 34  1  0
M  ISO  8  22   8  23   8  24  14  25   9  28   8  29   8  30   8  31   8
M  ISO  3  32  14  33  14  34  14
M  END
>  <minimizedAffinity>  (1) 
-5.21320295

>  <minimizedRMSD>  (1) 
2.73416662

$$$$
