
     RDKit          3D

 36 37  0  0  1  0  0  0  0  0999 V2000
   41.6890   34.4940   41.5560 C   0  0  2  0  0  0  0  0  0  0  0  0
   41.1030   33.1520   41.2460 C   0  0  0  0  0  0  0  0  0  0  0  0
   40.6310   35.5800   41.4380 C   0  0  0  0  0  0  0  0  0  0  0  0
   39.9550   35.6450   40.0970 C   0  0  0  0  0  0  0  0  0  0  0  0
   41.0390   35.7980   39.0760 C   0  0  0  0  0  0  0  0  0  0  0  0
   40.6720   35.3670   37.6960 C   0  0  0  0  0  0  0  0  0  0  0  0
   40.0960   33.9670   37.7760 C   0  0  0  0  0  0  0  0  0  0  0  0
   38.7570   34.1480   38.4720 C   0  0  0  0  0  0  0  0  0  0  0  0
   39.0650   34.4830   39.9120 C   0  0  0  0  0  0  0  0  0  0  0  0
   42.8040   34.7810   40.7690 O   0  0  0  0  0  0  0  0  0  0  0  0
   44.0860   34.8250   41.2140 C   0  0  0  0  0  0  0  0  0  0  0  0
   44.2800   35.5750   42.3790 C   0  0  0  0  0  0  0  0  0  0  0  0
   45.5880   35.6660   42.8880 C   0  0  0  0  0  0  0  0  0  0  0  0
   46.5810   35.0150   42.2100 N   0  0  0  0  0  0  0  0  0  0  0  0
   46.3570   34.3070   41.1030 C   0  0  0  0  0  0  0  0  0  0  0  0
   45.1240   34.2320   40.6370 N   0  0  0  0  0  0  0  0  0  0  0  0
   42.0419   34.4654   42.5975 H   0  0  0  0  0  0  0  0  0  0  0  0
   40.8735   32.6264   42.1847 H   0  0  0  0  0  0  0  0  0  0  0  0
   40.1793   33.2811   40.6628 H   0  0  0  0  0  0  0  0  0  0  0  0
   41.8255   32.5623   40.6628 H   0  0  0  0  0  0  0  0  0  0  0  0
   39.8619   35.3956   42.2025 H   0  0  0  0  0  0  0  0  0  0  0  0
   41.1500   36.5402   41.5749 H   0  0  0  0  0  0  0  0  0  0  0  0
   39.2796   36.5075   39.9968 H   0  0  0  0  0  0  0  0  0  0  0  0
   41.3236   36.8598   39.0373 H   0  0  0  0  0  0  0  0  0  0  0  0
   41.8579   35.1371   39.3964 H   0  0  0  0  0  0  0  0  0  0  0  0
   41.5664   35.3659   37.0557 H   0  0  0  0  0  0  0  0  0  0  0  0
   39.9329   36.0585   37.2652 H   0  0  0  0  0  0  0  0  0  0  0  0
   39.9576   33.5450   36.7696 H   0  0  0  0  0  0  0  0  0  0  0  0
   40.7574   33.2717   38.3138 H   0  0  0  0  0  0  0  0  0  0  0  0
   38.1927   34.9677   38.0033 H   0  0  0  0  0  0  0  0  0  0  0  0
   38.1433   33.2381   38.3974 H   0  0  0  0  0  0  0  0  0  0  0  0
   38.1153   34.6934   40.4257 H   0  0  0  0  0  0  0  0  0  0  0  0
   39.5975   33.6143   40.3264 H   0  0  0  0  0  0  0  0  0  0  0  0
   43.4385   36.0763   42.8797 H   0  0  0  0  0  0  0  0  0  0  0  0
   45.8047   36.2412   43.8003 H   0  0  0  0  0  0  0  0  0  0  0  0
   47.1833   33.7953   40.5878 H   0  0  0  0  0  0  0  0  0  0  0  0
  2  1  1  0
  3  1  1  0
  4  3  1  0
  5  4  1  0
  6  7  1  0
  6  5  1  0
  7  8  1  0
  8  9  1  0
  9  4  1  0
 10 11  1  0
 10  1  1  0
 11 12  2  0
 12 13  1  0
 14 13  2  0
 15 14  1  0
 16 15  2  0
 16 11  1  0
  1 17  1  1
  2 18  1  0
  2 19  1  0
  2 20  1  0
  3 21  1  0
  3 22  1  0
  4 23  1  0
  5 24  1  0
  5 25  1  0
  6 26  1  0
  6 27  1  0
  7 28  1  0
  7 29  1  0
  8 30  1  0
  8 31  1  0
  9 32  1  0
  9 33  1  0
 12 34  1  0
 13 35  1  0
 15 36  1  0
M  ISO  8  17   8  18   8  19   8  20   8  21   8  22   8  23  13  24  13
M  ISO  8  25  13  26  13  27  13  28  13  29  13  30  13  31  13  32  13
M  ISO  4  33  13  34  14  35  14  36  14
M  END
>  <minimizedAffinity>  (1) 
-5.02259302

>  <minimizedRMSD>  (1) 
2.78898191

$$$$
