
     RDKit          3D

 45 49  0  0  1  0  0  0  0  0999 V2000
   46.5730   33.5480   42.6030 C   0  0  0  0  0  0  0  0  0  0  0  0
   46.2550   32.3560   43.2160 C   0  0  0  0  0  0  0  0  0  0  0  0
   44.9980   31.8420   43.1070 C   0  0  0  0  0  0  0  0  0  0  0  0
   44.0280   32.4500   42.4190 N   0  0  0  0  0  0  0  0  0  0  0  0
   44.3440   33.5950   41.8320 C   0  0  0  0  0  0  0  0  0  0  0  0
   45.5620   34.1290   41.9160 N   0  0  0  0  0  0  0  0  0  0  0  0
   48.8840   34.1660   41.5230 C   0  0  1  0  0  0  0  0  0  0  0  0
   48.1970   35.4370   41.8900 C   0  0  0  0  0  0  0  0  0  0  0  0
   47.8860   34.2610   42.6510 C   0  0  1  0  0  0  0  0  0  0  0  0
   47.7840   33.6760   38.0040 C   0  0  0  0  0  0  0  0  0  0  0  0
   48.0990   34.3180   39.2490 C   0  0  0  0  0  0  0  0  0  0  0  0
   48.5760   33.4940   40.2710 C   0  0  0  0  0  0  0  0  0  0  0  0
   48.7180   32.1650   40.0610 N   0  0  0  0  0  0  0  0  0  0  0  0
   48.4180   31.5870   38.8940 C   0  0  0  0  0  0  0  0  0  0  0  0
   47.9490   32.3300   37.8530 N   0  0  0  0  0  0  0  0  0  0  0  0
   43.2850   34.3110   41.0670 C   0  0  1  0  0  0  0  0  0  0  0  0
   43.3860   35.7670   41.3500 C   0  0  0  0  0  0  0  0  0  0  0  0
   43.3760   34.0470   39.5770 C   0  0  0  0  0  0  0  0  0  0  0  0
   42.2390   34.5190   38.8390 N   0  0  0  0  0  0  0  0  0  0  0  0
   42.0670   35.6340   38.1030 C   0  0  0  0  0  0  0  0  0  0  0  0
   40.8190   35.6570   37.5870 N   0  0  0  0  0  0  0  0  0  0  0  0
   40.2070   34.5380   38.0090 C   0  0  0  0  0  0  0  0  0  0  0  0
   38.9150   34.0690   37.7690 C   0  0  0  0  0  0  0  0  0  0  0  0
   38.5720   32.8840   38.3380 N   0  0  0  0  0  0  0  0  0  0  0  0
   39.4460   32.2060   39.0950 C   0  0  0  0  0  0  0  0  0  0  0  0
   40.6840   32.6420   39.3330 N   0  0  0  0  0  0  0  0  0  0  0  0
   41.0840   33.8280   38.7860 C   0  0  0  0  0  0  0  0  0  0  0  0
   47.0189   31.8171   43.7957 H   0  0  0  0  0  0  0  0  0  0  0  0
   44.7729   30.8878   43.6057 H   0  0  0  0  0  0  0  0  0  0  0  0
   49.9209   33.8136   41.4200 H   0  0  0  0  0  0  0  0  0  0  0  0
   48.7713   36.2509   42.3565 H   0  0  0  0  0  0  0  0  0  0  0  0
   47.5946   36.1699   41.3332 H   0  0  0  0  0  0  0  0  0  0  0  0
   47.8862   34.0313   43.7268 H   0  0  0  0  0  0  0  0  0  0  0  0
   47.4056   34.2756   37.1630 H   0  0  0  0  0  0  0  0  0  0  0  0
   47.9714   35.4014   39.3905 H   0  0  0  0  0  0  0  0  0  0  0  0
   48.5509   30.5018   38.7730 H   0  0  0  0  0  0  0  0  0  0  0  0
   42.3052   33.9318   41.3929 H   0  0  0  0  0  0  0  0  0  0  0  0
   43.3972   35.9292   42.4379 H   0  0  0  0  0  0  0  0  0  0  0  0
   44.3137   36.1624   40.9107 H   0  0  0  0  0  0  0  0  0  0  0  0
   42.5217   36.2867   40.9107 H   0  0  0  0  0  0  0  0  0  0  0  0
   44.2749   34.5487   39.1893 H   0  0  0  0  0  0  0  0  0  0  0  0
   43.4159   32.9557   39.4447 H   0  0  0  0  0  0  0  0  0  0  0  0
   42.8299   36.4107   37.9455 H   0  0  0  0  0  0  0  0  0  0  0  0
   38.2054   34.6338   37.1465 H   0  0  0  0  0  0  0  0  0  0  0  0
   39.1292   31.2504   39.5384 H   0  0  0  0  0  0  0  0  0  0  0  0
  1  9  1  0
  1  2  2  0
  3  2  1  0
  4  3  2  0
  5  6  2  0
  5  4  1  0
  6  1  1  0
  7  8  1  0
  7  9  1  0
  8  9  1  0
 10 11  2  0
 11 12  1  0
 12  7  1  0
 13 12  2  0
 14 13  1  0
 15 10  1  0
 15 14  2  0
 16 17  1  0
 16  5  1  0
 18 16  1  0
 19 18  1  0
 20 19  1  0
 21 22  1  0
 21 20  2  0
 22 27  2  0
 23 22  1  0
 23 24  2  0
 24 25  1  0
 25 26  2  0
 27 19  1  0
 27 26  1  0
  2 28  1  0
  3 29  1  0
  7 30  1  1
  8 31  1  0
  8 32  1  0
  9 33  1  1
 10 34  1  0
 11 35  1  0
 14 36  1  0
 16 37  1  1
 17 38  1  0
 17 39  1  0
 17 40  1  0
 18 41  1  0
 18 42  1  0
 20 43  1  0
 23 44  1  0
 25 45  1  0
M  ISO  8  28  14  29  14  30  13  31  13  32  13  33  13  34  14  35  14
M  ISO  8  36  14  37   8  38   8  39   8  40   8  41   8  42   8  43  14
M  ISO  2  44  14  45  14
M  END
>  <minimizedAffinity>  (1) 
-5.64474106

>  <minimizedRMSD>  (1) 
2.09361315

$$$$
