
     RDKit          3D

 33 34  0  0  1  0  0  0  0  0999 V2000
   44.9700   34.5290   42.1540 C   0  0  2  0  0  0  0  0  0  0  0  0
   44.1340   33.2890   42.1790 C   0  0  0  0  0  0  0  0  0  0  0  0
   44.0880   35.7530   41.8780 C   0  0  0  0  0  0  0  0  0  0  0  0
   40.4900   34.7060   39.7850 C   0  0  0  0  0  0  0  0  0  0  0  0
   40.4360   35.0290   41.1210 C   0  0  0  0  0  0  0  0  0  0  0  0
   41.5920   35.3680   41.8020 C   0  0  0  0  0  0  0  0  0  0  0  0
   42.8270   35.3970   41.1900 C   0  0  0  0  0  0  0  0  0  0  0  0
   42.8280   35.0650   39.8470 C   0  0  0  0  0  0  0  0  0  0  0  0
   41.6980   34.7210   39.1260 C   0  0  0  0  0  0  0  0  0  0  0  0
   39.0750   34.2610   38.8270 S   0  0  0  0  0  0  0  0  0  0  0  0
   39.3270   34.4810   37.3740 O   0  0  0  0  0  0  0  0  0  0  0  0
   38.8330   32.7780   39.0200 O   0  0  0  0  0  0  0  0  0  0  0  0
   46.0030   34.4740   41.2090 O   0  0  0  0  0  0  0  0  0  0  0  0
   47.3010   34.2460   41.4870 C   0  0  0  0  0  0  0  0  0  0  0  0
   48.0500   35.3800   41.8160 C   0  0  0  0  0  0  0  0  0  0  0  0
   49.4160   35.2230   42.1150 C   0  0  0  0  0  0  0  0  0  0  0  0
   49.9330   33.9490   42.0650 N   0  0  0  0  0  0  0  0  0  0  0  0
   49.1830   32.8930   41.7470 C   0  0  0  0  0  0  0  0  0  0  0  0
   47.8980   33.0660   41.4690 N   0  0  0  0  0  0  0  0  0  0  0  0
   45.4395   34.6121   43.1453 H   0  0  0  0  0  0  0  0  0  0  0  0
   43.9387   32.9994   43.2221 H   0  0  0  0  0  0  0  0  0  0  0  0
   43.1795   33.4799   41.6667 H   0  0  0  0  0  0  0  0  0  0  0  0
   44.6689   32.4758   41.6667 H   0  0  0  0  0  0  0  0  0  0  0  0
   43.8436   36.2354   42.8359 H   0  0  0  0  0  0  0  0  0  0  0  0
   44.6506   36.4293   41.2177 H   0  0  0  0  0  0  0  0  0  0  0  0
   39.4713   35.0178   41.6495 H   0  0  0  0  0  0  0  0  0  0  0  0
   41.5230   35.6234   42.8697 H   0  0  0  0  0  0  0  0  0  0  0  0
   43.7917   35.0751   39.3167 H   0  0  0  0  0  0  0  0  0  0  0  0
   41.7635   34.4671   38.0577 H   0  0  0  0  0  0  0  0  0  0  0  0
   38.0091   35.0228   39.2275 H   0  0  0  0  0  0  0  0  0  0  0  0
   47.5809   36.3747   41.8406 H   0  0  0  0  0  0  0  0  0  0  0  0
   50.0460   36.0854   42.3785 H   0  0  0  0  0  0  0  0  0  0  0  0
   49.6267   31.8869   41.7156 H   0  0  0  0  0  0  0  0  0  0  0  0
  1  2  1  0
  3  1  1  0
  4  5  2  0
  5  6  1  0
  7  6  2  0
  7  3  1  0
  8  7  1  0
  9  4  1  0
  9  8  2  0
 10 12  2  0
 10  4  1  0
 11 10  2  0
 13 14  1  0
 13  1  1  0
 14 15  2  0
 15 16  1  0
 17 16  2  0
 18 17  1  0
 19 14  1  0
 19 18  2  0
  1 20  1  1
  2 21  1  0
  2 22  1  0
  2 23  1  0
  3 24  1  0
  3 25  1  0
  5 26  1  0
  6 27  1  0
  8 28  1  0
  9 29  1  0
 10 30  1  0
 15 31  1  0
 16 32  1  0
 18 33  1  0
M  ISO  8  20   8  21   8  22   8  23   8  24   8  25   8  26  14  27  14
M  ISO  6  28  14  29  14  30  11  31  14  32  14  33  14
M  END
>  <minimizedAffinity>  (1) 
-4.80673265

>  <minimizedRMSD>  (1) 
3.32159019

$$$$
