
     RDKit          3D

 30 31  0  0  1  0  0  0  0  0999 V2000
   42.9400   34.2290   41.2780 C   0  0  2  0  0  0  0  0  0  0  0  0
   42.1170   32.9810   41.3080 C   0  0  0  0  0  0  0  0  0  0  0  0
   42.0830   35.4060   40.7880 C   0  0  0  0  0  0  0  0  0  0  0  0
   41.0270   34.9730   39.8960 N   0  0  0  0  0  0  0  0  0  0  0  0
   39.8080   34.5370   40.3130 C   0  0  0  0  0  0  0  0  0  0  0  0
   38.8370   34.1350   39.4050 C   0  0  0  0  0  0  0  0  0  0  0  0
   39.1140   34.1800   38.0480 C   0  0  0  0  0  0  0  0  0  0  0  0
   38.2380   33.8160   37.2010 O   0  0  0  0  0  0  0  0  0  0  0  0
   40.3250   34.6140   37.6620 N   0  0  0  0  0  0  0  0  0  0  0  0
   41.2750   35.0070   38.5540 C   0  0  0  0  0  0  0  0  0  0  0  0
   42.3600   35.3890   38.0420 O   0  0  0  0  0  0  0  0  0  0  0  0
   44.0680   34.1080   40.4560 O   0  0  0  0  0  0  0  0  0  0  0  0
   45.3460   34.3060   40.8510 C   0  0  0  0  0  0  0  0  0  0  0  0
   45.4820   34.8740   42.1260 C   0  0  0  0  0  0  0  0  0  0  0  0
   46.7780   35.1200   42.6180 C   0  0  0  0  0  0  0  0  0  0  0  0
   47.8370   34.7810   41.8060 N   0  0  0  0  0  0  0  0  0  0  0  0
   47.6600   34.2410   40.6000 C   0  0  0  0  0  0  0  0  0  0  0  0
   46.4310   34.0180   40.1560 N   0  0  0  0  0  0  0  0  0  0  0  0
   43.2914   34.4085   42.3048 H   0  0  0  0  0  0  0  0  0  0  0  0
   41.9266   32.6923   42.3522 H   0  0  0  0  0  0  0  0  0  0  0  0
   41.1597   33.1607   40.7969 H   0  0  0  0  0  0  0  0  0  0  0  0
   42.6592   32.1718   40.7969 H   0  0  0  0  0  0  0  0  0  0  0  0
   41.6309   35.9031   41.6589 H   0  0  0  0  0  0  0  0  0  0  0  0
   42.7366   36.0945   40.2323 H   0  0  0  0  0  0  0  0  0  0  0  0
   39.5870   34.5021   41.3900 H   0  0  0  0  0  0  0  0  0  0  0  0
   37.8568   33.7840   39.7599 H   0  0  0  0  0  0  0  0  0  0  0  0
   40.5424   34.6507   36.6559 H   0  0  0  0  0  0  0  0  0  0  0  0
   44.5956   35.1219   42.7284 H   0  0  0  0  0  0  0  0  0  0  0  0
   46.9381   35.5651   43.6111 H   0  0  0  0  0  0  0  0  0  0  0  0
   48.5288   33.9820   39.9770 H   0  0  0  0  0  0  0  0  0  0  0  0
  1  2  1  0
  3  1  1  0
  4  5  1  0
  4  3  1  0
  6  5  2  0
  7  6  1  0
  8  7  2  0
  9  7  1  0
  9 10  1  0
 10  4  1  0
 11 10  2  0
 12 13  1  0
 12  1  1  0
 13 14  2  0
 14 15  1  0
 16 15  2  0
 17 16  1  0
 18 17  2  0
 18 13  1  0
  1 19  1  1
  2 20  1  0
  2 21  1  0
  2 22  1  0
  3 23  1  0
  3 24  1  0
  5 25  1  0
  6 26  1  0
  9 27  1  0
 14 28  1  0
 15 29  1  0
 17 30  1  0
M  ISO  8  19   8  20   8  21   8  22   8  23   8  24   8  25  14  26  14
M  ISO  4  27   9  28  14  29  14  30  14
M  END
>  <minimizedAffinity>  (1) 
-4.66808891

>  <minimizedRMSD>  (1) 
2.97593021

$$$$
