
     RDKit          3D

 41 44  0  0  1  0  0  0  0  0999 V2000
   46.4300   33.9330   42.4170 C   0  0  0  0  0  0  0  0  0  0  0  0
   45.9370   32.7670   42.9610 C   0  0  0  0  0  0  0  0  0  0  0  0
   44.6280   32.4320   42.7970 C   0  0  0  0  0  0  0  0  0  0  0  0
   43.7690   33.1990   42.1170 N   0  0  0  0  0  0  0  0  0  0  0  0
   44.2500   34.3170   41.5980 C   0  0  0  0  0  0  0  0  0  0  0  0
   45.5270   34.6760   41.7360 N   0  0  0  0  0  0  0  0  0  0  0  0
   48.8690   34.1730   41.4780 C   0  0  1  0  0  0  0  0  0  0  0  0
   48.3500   35.5430   41.7480 C   0  0  0  0  0  0  0  0  0  0  0  0
   47.8250   34.4590   42.5300 C   0  0  1  0  0  0  0  0  0  0  0  0
   47.8200   33.6730   37.9440 C   0  0  0  0  0  0  0  0  0  0  0  0
   48.1450   34.3200   39.1830 C   0  0  0  0  0  0  0  0  0  0  0  0
   48.5490   33.4950   40.2290 C   0  0  0  0  0  0  0  0  0  0  0  0
   48.6180   32.1540   40.0500 N   0  0  0  0  0  0  0  0  0  0  0  0
   48.3110   31.5710   38.8890 C   0  0  0  0  0  0  0  0  0  0  0  0
   47.9090   32.3180   37.8210 N   0  0  0  0  0  0  0  0  0  0  0  0
   43.3200   35.2050   40.8480 C   0  0  1  0  0  0  0  0  0  0  0  0
   42.9370   34.5380   39.5760 C   0  0  0  0  0  0  0  0  0  0  0  0
   42.0910   35.5640   41.6570 C   0  0  0  0  0  0  0  0  0  0  0  0
   40.9020   34.9160   41.0770 C   0  0  0  0  0  0  0  0  0  0  0  0
   40.0150   35.5780   40.2320 C   0  0  0  0  0  0  0  0  0  0  0  0
   38.9900   34.7210   39.8390 C   0  0  0  0  0  0  0  0  0  0  0  0
   39.3280   33.5370   40.4950 C   0  0  0  0  0  0  0  0  0  0  0  0
   40.4150   33.7090   41.1770 O   0  0  0  0  0  0  0  0  0  0  0  0
   46.6045   32.1037   43.5306 H   0  0  0  0  0  0  0  0  0  0  0  0
   44.2625   31.4942   43.2409 H   0  0  0  0  0  0  0  0  0  0  0  0
   49.8484   33.6725   41.4618 H   0  0  0  0  0  0  0  0  0  0  0  0
   49.0044   36.2891   42.2224 H   0  0  0  0  0  0  0  0  0  0  0  0
   47.8958   36.3262   41.1233 H   0  0  0  0  0  0  0  0  0  0  0  0
   47.7230   34.2837   43.6111 H   0  0  0  0  0  0  0  0  0  0  0  0
   47.4954   34.2770   37.0839 H   0  0  0  0  0  0  0  0  0  0  0  0
   48.0783   35.4117   39.3002 H   0  0  0  0  0  0  0  0  0  0  0  0
   48.3829   30.4776   38.7927 H   0  0  0  0  0  0  0  0  0  0  0  0
   43.8399   36.1506   40.6348 H   0  0  0  0  0  0  0  0  0  0  0  0
   42.4006   33.6039   39.7989 H   0  0  0  0  0  0  0  0  0  0  0  0
   42.2846   35.2055   38.9939 H   0  0  0  0  0  0  0  0  0  0  0  0
   43.8424   34.3110   38.9939 H   0  0  0  0  0  0  0  0  0  0  0  0
   42.2239   35.2213   42.6938 H   0  0  0  0  0  0  0  0  0  0  0  0
   41.9528   36.6552   41.6408 H   0  0  0  0  0  0  0  0  0  0  0  0
   40.1103   36.6283   39.9194 H   0  0  0  0  0  0  0  0  0  0  0  0
   38.1332   34.9253   39.1801 H   0  0  0  0  0  0  0  0  0  0  0  0
   38.7568   32.5985   40.4409 H   0  0  0  0  0  0  0  0  0  0  0  0
  1  9  1  0
  1  2  2  0
  3  2  1  0
  4  3  2  0
  5  6  2  0
  5  4  1  0
  6  1  1  0
  7  8  1  0
  7  9  1  0
  8  9  1  0
 10 11  2  0
 11 12  1  0
 12  7  1  0
 13 12  2  0
 14 13  1  0
 15 10  1  0
 15 14  2  0
 16  5  1  0
 16 18  1  0
 17 16  1  0
 19 23  1  0
 19 18  1  0
 20 19  2  0
 21 20  1  0
 21 22  2  0
 22 23  1  0
  2 24  1  0
  3 25  1  0
  7 26  1  1
  8 27  1  0
  8 28  1  0
  9 29  1  1
 10 30  1  0
 11 31  1  0
 14 32  1  0
 16 33  1  6
 17 34  1  0
 17 35  1  0
 17 36  1  0
 18 37  1  0
 18 38  1  0
 20 39  1  0
 21 40  1  0
 22 41  1  0
M  ISO  8  24  14  25  14  26  13  27  13  28  13  29  13  30  14  31  14
M  ISO  8  32  14  33   8  34   8  35   8  36   8  37   8  38   8  39  14
M  ISO  2  40  14  41  14
M  END
>  <minimizedAffinity>  (1) 
-5.50879478

>  <minimizedRMSD>  (1) 
2.54460692

$$$$
