
     RDKit          3D

 26 27  0  0  1  0  0  0  0  0999 V2000
   42.8930   34.8620   41.2930 C   0  0  2  0  0  0  0  0  0  0  0  0
   43.2080   34.8190   39.8300 C   0  0  0  0  0  0  0  0  0  0  0  0
   41.5200   35.5070   41.5090 C   0  0  0  0  0  0  0  0  0  0  0  0
   40.4230   34.6220   41.0740 C   0  0  0  0  0  0  0  0  0  0  0  0
   39.5960   35.0590   40.0370 C   0  0  0  0  0  0  0  0  0  0  0  0
   38.3880   33.6630   39.8250 S   0  0  0  0  0  0  0  0  0  0  0  0
   39.2550   32.7190   41.2230 C   0  0  0  0  0  0  0  0  0  0  0  0
   40.0700   33.4320   41.5120 N   0  0  0  0  0  0  0  0  0  0  0  0
   43.8610   35.5510   42.0380 O   0  0  0  0  0  0  0  0  0  0  0  0
   44.3400   35.1530   43.2350 C   0  0  0  0  0  0  0  0  0  0  0  0
   45.0600   33.9520   43.2230 C   0  0  0  0  0  0  0  0  0  0  0  0
   45.5880   33.4700   44.4350 C   0  0  0  0  0  0  0  0  0  0  0  0
   45.3590   34.2210   45.5630 N   0  0  0  0  0  0  0  0  0  0  0  0
   44.6700   35.3630   45.5400 C   0  0  0  0  0  0  0  0  0  0  0  0
   44.1860   35.7890   44.3830 N   0  0  0  0  0  0  0  0  0  0  0  0
   42.8876   33.8222   41.6519 H   0  0  0  0  0  0  0  0  0  0  0  0
   44.2893   34.6714   39.6919 H   0  0  0  0  0  0  0  0  0  0  0  0
   42.6616   33.9871   39.3616 H   0  0  0  0  0  0  0  0  0  0  0  0
   42.9046   35.7669   39.3616 H   0  0  0  0  0  0  0  0  0  0  0  0
   41.3954   35.7285   42.5792 H   0  0  0  0  0  0  0  0  0  0  0  0
   41.4762   36.4263   40.9066 H   0  0  0  0  0  0  0  0  0  0  0  0
   39.6475   36.0051   39.4782 H   0  0  0  0  0  0  0  0  0  0  0  0
   39.0193   31.7293   41.6413 H   0  0  0  0  0  0  0  0  0  0  0  0
   45.2098   33.3967   42.2853 H   0  0  0  0  0  0  0  0  0  0  0  0
   46.1601   32.5314   44.4778 H   0  0  0  0  0  0  0  0  0  0  0  0
   44.5072   35.9390   46.4629 H   0  0  0  0  0  0  0  0  0  0  0  0
  1  3  1  0
  1  9  1  0
  2  1  1  0
  4  3  1  0
  4  8  1  0
  5  4  2  0
  6  5  1  0
  6  7  1  0
  7  8  2  0
  9 10  1  0
 10 15  1  0
 11 10  2  0
 11 12  1  0
 12 13  2  0
 14 13  1  0
 15 14  2  0
  1 16  1  1
  2 17  1  0
  2 18  1  0
  2 19  1  0
  3 20  1  0
  3 21  1  0
  5 22  1  0
  7 23  1  0
 11 24  1  0
 12 25  1  0
 14 26  1  0
M  ISO  8  16   8  17   8  18   8  19   8  20   8  21   8  22  14  23  14
M  ISO  3  24  14  25  14  26  14
M  END
>  <minimizedAffinity>  (1) 
-4.30247927

>  <minimizedRMSD>  (1) 
4.94541025

$$$$
