
     RDKit          3D

 27 28  0  0  1  0  0  0  0  0999 V2000
   43.0880   34.1460   41.4460 C   0  0  2  0  0  0  0  0  0  0  0  0
   42.2770   32.8920   41.4140 C   0  0  0  0  0  0  0  0  0  0  0  0
   42.1850   35.3630   41.1970 C   0  0  0  0  0  0  0  0  0  0  0  0
   41.1910   35.0750   40.2080 C   0  0  0  0  0  0  0  0  0  0  0  0
   39.8450   34.7740   40.2810 C   0  0  0  0  0  0  0  0  0  0  0  0
   39.1450   34.5440   39.1380 C   0  0  0  0  0  0  0  0  0  0  0  0
   39.8790   34.6320   37.8810 C   0  0  0  0  0  0  0  0  0  0  0  0
   41.5790   35.0560   38.4810 S   0  0  0  0  0  0  0  0  0  0  0  0
   44.1360   34.1280   40.5220 O   0  0  0  0  0  0  0  0  0  0  0  0
   45.4490   34.2760   40.8320 C   0  0  0  0  0  0  0  0  0  0  0  0
   45.6880   34.8480   42.0890 C   0  0  0  0  0  0  0  0  0  0  0  0
   47.0230   35.0430   42.4870 C   0  0  0  0  0  0  0  0  0  0  0  0
   48.0060   34.6570   41.6140 N   0  0  0  0  0  0  0  0  0  0  0  0
   47.7410   34.1140   40.4260 C   0  0  0  0  0  0  0  0  0  0  0  0
   46.4690   33.9380   40.0680 N   0  0  0  0  0  0  0  0  0  0  0  0
   43.5392   34.2170   42.4467 H   0  0  0  0  0  0  0  0  0  0  0  0
   42.0659   32.5655   42.4430 H   0  0  0  0  0  0  0  0  0  0  0  0
   41.3298   33.0813   40.8877 H   0  0  0  0  0  0  0  0  0  0  0  0
   42.8381   32.1058   40.8877 H   0  0  0  0  0  0  0  0  0  0  0  0
   41.6861   35.6384   42.1379 H   0  0  0  0  0  0  0  0  0  0  0  0
   42.8095   36.1920   40.8328 H   0  0  0  0  0  0  0  0  0  0  0  0
   39.3422   34.7206   41.2579 H   0  0  0  0  0  0  0  0  0  0  0  0
   38.0721   34.3022   39.1606 H   0  0  0  0  0  0  0  0  0  0  0  0
   39.5192   34.4857   36.8519 H   0  0  0  0  0  0  0  0  0  0  0  0
   44.8545   35.1365   42.7463 H   0  0  0  0  0  0  0  0  0  0  0  0
   47.2685   35.4886   43.4623 H   0  0  0  0  0  0  0  0  0  0  0  0
   48.5580   33.8161   39.7524 H   0  0  0  0  0  0  0  0  0  0  0  0
  2  1  1  0
  3  1  1  0
  4  5  2  0
  4  3  1  0
  6  5  1  0
  7  8  1  0
  7  6  2  0
  8  4  1  0
  9 10  1  0
  9  1  1  0
 10 11  2  0
 11 12  1  0
 13 12  2  0
 14 13  1  0
 15 14  2  0
 15 10  1  0
  1 16  1  1
  2 17  1  0
  2 18  1  0
  2 19  1  0
  3 20  1  0
  3 21  1  0
  5 22  1  0
  6 23  1  0
  7 24  1  0
 11 25  1  0
 12 26  1  0
 14 27  1  0
M  ISO  8  16   8  17   8  18   8  19   8  20   8  21   8  22  14  23  14
M  ISO  4  24  14  25  14  26  14  27  14
M  END
>  <minimizedAffinity>  (1) 
-4.03512144

>  <minimizedRMSD>  (1) 
2.37277937

$$$$
