
     RDKit          3D

 27 28  0  0  1  0  0  0  0  0999 V2000
   41.9190   34.7780   40.9640 C   0  0  2  0  0  0  0  0  0  0  0  0
   41.2010   33.4930   41.2520 C   0  0  0  0  0  0  0  0  0  0  0  0
   41.0800   35.6310   40.0210 C   0  0  0  0  0  0  0  0  0  0  0  0
   41.2930   35.1410   38.6300 C   0  0  0  0  0  0  0  0  0  0  0  0
   41.2560   36.1830   37.5420 C   0  0  0  0  0  0  0  0  0  0  0  0
   40.2670   35.0580   37.5900 C   0  0  0  0  0  0  0  0  0  0  0  0
   43.2040   34.5830   40.4480 O   0  0  0  0  0  0  0  0  0  0  0  0
   44.3420   34.7800   41.1470 C   0  0  0  0  0  0  0  0  0  0  0  0
   44.2310   35.6040   42.2700 C   0  0  0  0  0  0  0  0  0  0  0  0
   45.3810   35.8540   43.0370 C   0  0  0  0  0  0  0  0  0  0  0  0
   46.5630   35.2720   42.6400 N   0  0  0  0  0  0  0  0  0  0  0  0
   46.6070   34.4940   41.5590 C   0  0  0  0  0  0  0  0  0  0  0  0
   45.5340   34.2500   40.8300 N   0  0  0  0  0  0  0  0  0  0  0  0
   42.0520   35.3028   41.9216 H   0  0  0  0  0  0  0  0  0  0  0  0
   41.1226   33.3527   42.3402 H   0  0  0  0  0  0  0  0  0  0  0  0
   40.1929   33.5300   40.8135 H   0  0  0  0  0  0  0  0  0  0  0  0
   41.7610   32.6539   40.8135 H   0  0  0  0  0  0  0  0  0  0  0  0
   40.0164   35.5430   40.2873 H   0  0  0  0  0  0  0  0  0  0  0  0
   41.3779   36.6870   40.0999 H   0  0  0  0  0  0  0  0  0  0  0  0
   41.9804   34.3785   39.0250 H   0  0  0  0  0  0  0  0  0  0  0  0
   42.0359   36.2033   36.7666 H   0  0  0  0  0  0  0  0  0  0  0  0
   41.1992   37.2809   37.5042 H   0  0  0  0  0  0  0  0  0  0  0  0
   39.2161   35.2642   37.8410 H   0  0  0  0  0  0  0  0  0  0  0  0
   39.9496   34.2797   36.8805 H   0  0  0  0  0  0  0  0  0  0  0  0
   43.2634   36.0476   42.5476 H   0  0  0  0  0  0  0  0  0  0  0  0
   45.3379   36.4963   43.9290 H   0  0  0  0  0  0  0  0  0  0  0  0
   47.5658   34.0418   41.2655 H   0  0  0  0  0  0  0  0  0  0  0  0
  1  2  1  0
  3  1  1  0
  4  3  1  0
  5  6  1  0
  5  4  1  0
  6  4  1  0
  7  1  1  0
  7  8  1  0
  8  9  2  0
  9 10  1  0
 11 10  2  0
 12 11  1  0
 13  8  1  0
 13 12  2  0
  1 14  1  1
  2 15  1  0
  2 16  1  0
  2 17  1  0
  3 18  1  0
  3 19  1  0
  4 20  1  0
  5 21  1  0
  5 22  1  0
  6 23  1  0
  6 24  1  0
  9 25  1  0
 10 26  1  0
 12 27  1  0
M  ISO  8  14   8  15   8  16   8  17   8  18   8  19   8  20  13  21  13
M  ISO  6  22  13  23  13  24  13  25  14  26  14  27  14
M  END
>  <minimizedAffinity>  (1) 
-3.98113084

>  <minimizedRMSD>  (1) 
2.4638741

$$$$
