
     RDKit          3D

 21 21  0  0  1  0  0  0  0  0999 V2000
   44.2060   34.1820   41.2850 C   0  0  2  0  0  0  0  0  0  0  0  0
   43.3610   33.1680   40.5790 C   0  0  0  0  0  0  0  0  0  0  0  0
   43.4990   35.5480   41.2480 C   0  0  0  0  0  0  0  0  0  0  0  0
   43.8150   36.2450   42.4220 O   0  0  0  0  0  0  0  0  0  0  0  0
   45.4600   34.3220   40.6790 O   0  0  0  0  0  0  0  0  0  0  0  0
   46.6420   34.3850   41.3350 C   0  0  0  0  0  0  0  0  0  0  0  0
   46.6070   33.9160   42.6510 C   0  0  0  0  0  0  0  0  0  0  0  0
   47.7900   33.9510   43.4100 C   0  0  0  0  0  0  0  0  0  0  0  0
   48.9120   34.4500   42.7950 N   0  0  0  0  0  0  0  0  0  0  0  0
   48.9100   34.8880   41.5370 C   0  0  0  0  0  0  0  0  0  0  0  0
   47.7820   34.8420   40.8490 N   0  0  0  0  0  0  0  0  0  0  0  0
   44.3488   33.8362   42.3194 H   0  0  0  0  0  0  0  0  0  0  0  0
   42.8409   32.5439   41.3206 H   0  0  0  0  0  0  0  0  0  0  0  0
   42.6206   33.6825   39.9488 H   0  0  0  0  0  0  0  0  0  0  0  0
   44.0006   32.5325   39.9488 H   0  0  0  0  0  0  0  0  0  0  0  0
   43.8424   36.1198   40.3733 H   0  0  0  0  0  0  0  0  0  0  0  0
   42.4105   35.4068   41.1753 H   0  0  0  0  0  0  0  0  0  0  0  0
   43.5665   35.6970   43.2082 H   0  0  0  0  0  0  0  0  0  0  0  0
   45.6734   33.5276   43.0840 H   0  0  0  0  0  0  0  0  0  0  0  0
   47.8157   33.5945   44.4503 H   0  0  0  0  0  0  0  0  0  0  0  0
   49.8298   35.2807   41.0791 H   0  0  0  0  0  0  0  0  0  0  0  0
  2  1  1  0
  3  1  1  0
  3  4  1  0
  5  1  1  0
  5  6  1  0
  6  7  2  0
  7  8  1  0
  9  8  2  0
 10  9  1  0
 11  6  1  0
 11 10  2  0
  1 12  1  1
  2 13  1  0
  2 14  1  0
  2 15  1  0
  3 16  1  0
  3 17  1  0
  4 18  1  0
  7 19  1  0
  8 20  1  0
 10 21  1  0
M  ISO  8  12   8  13   8  14   8  15   8  16   8  17   8  18   3  19  14
M  ISO  2  20  14  21  14
M  END
>  <minimizedAffinity>  (1) 
-2.94662213

>  <minimizedRMSD>  (1) 
0.215066835

$$$$
