
     RDKit          3D

 22 22  0  0  1  0  0  0  0  0999 V2000
   44.0690   34.1150   41.2200 C   0  0  2  0  0  0  0  0  0  0  0  0
   43.3350   32.8320   40.9870 C   0  0  0  0  0  0  0  0  0  0  0  0
   43.2350   35.2970   40.7080 C   0  0  0  0  0  0  0  0  0  0  0  0
   43.0050   35.2430   39.2980 N   0  0  0  0  0  0  0  0  0  0  0  0
   45.3260   34.1260   40.6000 O   0  0  0  0  0  0  0  0  0  0  0  0
   46.5040   34.2910   41.2380 C   0  0  0  0  0  0  0  0  0  0  0  0
   46.4800   33.9770   42.6030 C   0  0  0  0  0  0  0  0  0  0  0  0
   47.6590   34.1240   43.3500 C   0  0  0  0  0  0  0  0  0  0  0  0
   48.7780   34.5720   42.6860 N   0  0  0  0  0  0  0  0  0  0  0  0
   48.7600   34.8590   41.3850 C   0  0  0  0  0  0  0  0  0  0  0  0
   47.6390   34.7140   40.7010 N   0  0  0  0  0  0  0  0  0  0  0  0
   44.2287   34.2073   42.3044 H   0  0  0  0  0  0  0  0  0  0  0  0
   43.0750   32.3775   41.9543 H   0  0  0  0  0  0  0  0  0  0  0  0
   42.4157   33.0337   40.4177 H   0  0  0  0  0  0  0  0  0  0  0  0
   43.9748   32.1417   40.4177 H   0  0  0  0  0  0  0  0  0  0  0  0
   42.2631   35.2907   41.2232 H   0  0  0  0  0  0  0  0  0  0  0  0
   43.8012   36.2168   40.9163 H   0  0  0  0  0  0  0  0  0  0  0  0
   42.0174   35.0111   39.1199 H   0  0  0  0  0  0  0  0  0  0  0  0
   43.2237   36.1582   38.8791 H   0  0  0  0  0  0  0  0  0  0  0  0
   45.5547   33.6220   43.0803 H   0  0  0  0  0  0  0  0  0  0  0  0
   47.6875   33.8902   44.4245 H   0  0  0  0  0  0  0  0  0  0  0  0
   49.6724   35.2143   40.8837 H   0  0  0  0  0  0  0  0  0  0  0  0
  2  1  1  0
  3  1  1  0
  4  3  1  0
  5  1  1  0
  5  6  1  0
  6  7  2  0
  7  8  1  0
  9  8  2  0
 10  9  1  0
 11  6  1  0
 11 10  2  0
  1 12  1  1
  2 13  1  0
  2 14  1  0
  2 15  1  0
  3 16  1  0
  3 17  1  0
  4 18  1  0
  4 19  1  0
  7 20  1  0
  8 21  1  0
 10 22  1  0
M  ISO  8  12   8  13   8  14   8  15   8  16   8  17   8  18   5  19   5
M  ISO  3  20  14  21  14  22  14
M  END
>  <minimizedAffinity>  (1) 
-2.87937927

>  <minimizedRMSD>  (1) 
0.461715937

$$$$
