
     RDKit          3D

 21 21  0  0  1  0  0  0  0  0999 V2000
   43.9910   34.1820   41.3100 C   0  0  2  0  0  0  0  0  0  0  0  0
   43.2470   32.9190   41.0070 C   0  0  0  0  0  0  0  0  0  0  0  0
   43.1370   35.3950   40.9130 C   0  0  0  0  0  0  0  0  0  0  0  0
   42.2230   35.0070   39.3950 S   0  0  0  0  0  0  0  0  0  0  0  0
   45.2350   34.2620   40.6610 O   0  0  0  0  0  0  0  0  0  0  0  0
   46.4270   34.3440   41.2860 C   0  0  0  0  0  0  0  0  0  0  0  0
   46.4010   34.0590   42.6560 C   0  0  0  0  0  0  0  0  0  0  0  0
   47.6020   34.1270   43.3840 C   0  0  0  0  0  0  0  0  0  0  0  0
   48.7440   34.4720   42.6960 N   0  0  0  0  0  0  0  0  0  0  0  0
   48.7180   34.7330   41.3870 C   0  0  0  0  0  0  0  0  0  0  0  0
   47.5780   34.6650   40.7210 N   0  0  0  0  0  0  0  0  0  0  0  0
   44.1880   34.1785   42.3922 H   0  0  0  0  0  0  0  0  0  0  0  0
   42.9582   32.4287   41.9484 H   0  0  0  0  0  0  0  0  0  0  0  0
   42.3442   33.1559   40.4250 H   0  0  0  0  0  0  0  0  0  0  0  0
   43.8919   32.2442   40.4250 H   0  0  0  0  0  0  0  0  0  0  0  0
   42.4275   35.6262   41.7212 H   0  0  0  0  0  0  0  0  0  0  0  0
   43.7872   36.2655   40.7415 H   0  0  0  0  0  0  0  0  0  0  0  0
   40.9979   34.4869   39.7199 H   0  0  0  0  0  0  0  0  0  0  0  0
   45.4586   33.7869   43.1539 H   0  0  0  0  0  0  0  0  0  0  0  0
   47.6284   33.9127   44.4626 H   0  0  0  0  0  0  0  0  0  0  0  0
   49.6458   35.0048   40.8622 H   0  0  0  0  0  0  0  0  0  0  0  0
  2  1  1  0
  3  1  1  0
  4  3  1  0
  5  6  1  0
  5  1  1  0
  6  7  2  0
  7  8  1  0
  9  8  2  0
 10  9  1  0
 11  6  1  0
 11 10  2  0
  1 12  1  1
  2 13  1  0
  2 14  1  0
  2 15  1  0
  3 16  1  0
  3 17  1  0
  4 18  1  0
  7 19  1  0
  8 20  1  0
 10 21  1  0
M  ISO  8  12   8  13   8  14   8  15   8  16   8  17   8  18  11  19  14
M  ISO  2  20  14  21  14
M  END
>  <minimizedAffinity>  (1) 
-2.74186063

>  <minimizedRMSD>  (1) 
0.553809226

$$$$
