
     RDKit          3D

 49 52  0  0  1  0  0  0  0  0999 V2000
   44.6740   33.5150   42.7950 C   0  0  0  0  0  0  0  0  0  0  0  0
   44.5830   32.1430   42.9200 C   0  0  0  0  0  0  0  0  0  0  0  0
   43.5600   31.4690   42.3110 C   0  0  0  0  0  0  0  0  0  0  0  0
   42.6330   32.0780   41.5930 N   0  0  0  0  0  0  0  0  0  0  0  0
   42.7160   33.3910   41.4710 C   0  0  0  0  0  0  0  0  0  0  0  0
   43.7050   34.0980   42.0510 N   0  0  0  0  0  0  0  0  0  0  0  0
   47.1200   34.4660   42.9000 C   0  0  1  0  0  0  0  0  0  0  0  0
   46.1810   35.6260   42.8200 C   0  0  0  0  0  0  0  0  0  0  0  0
   45.7070   34.4040   43.4150 C   0  0  1  0  0  0  0  0  0  0  0  0
   47.9410   33.8840   39.3180 C   0  0  0  0  0  0  0  0  0  0  0  0
   47.5400   34.5420   40.5360 C   0  0  0  0  0  0  0  0  0  0  0  0
   47.5310   33.7790   41.6770 C   0  0  0  0  0  0  0  0  0  0  0  0
   47.8900   32.4700   41.6090 N   0  0  0  0  0  0  0  0  0  0  0  0
   48.2580   31.8700   40.4880 C   0  0  0  0  0  0  0  0  0  0  0  0
   48.2920   32.5580   39.3210 N   0  0  0  0  0  0  0  0  0  0  0  0
   41.6840   34.1240   40.6790 C   0  0  1  0  0  0  0  0  0  0  0  0
   41.4020   35.4240   41.3370 C   0  0  0  0  0  0  0  0  0  0  0  0
   42.1020   34.2960   39.2370 C   0  0  0  0  0  0  0  0  0  0  0  0
   41.2040   33.6640   38.2940 N   0  0  0  0  0  0  0  0  0  0  0  0
   40.2580   34.7270   37.8820 C   0  0  0  0  0  0  0  0  0  0  0  0
   38.8670   34.1550   37.7000 C   0  0  0  0  0  0  0  0  0  0  0  0
   38.2990   33.7180   39.0470 C   0  0  0  0  0  0  0  0  0  0  0  0
   39.3870   33.0740   39.8840 C   0  0  0  0  0  0  0  0  0  0  0  0
   40.4600   32.5860   38.9340 C   0  0  0  0  0  0  0  0  0  0  0  0
   45.3319   31.5926   43.5084 H   0  0  0  0  0  0  0  0  0  0  0  0
   43.5071   30.3761   42.4236 H   0  0  0  0  0  0  0  0  0  0  0  0
   48.1142   34.2611   43.3238 H   0  0  0  0  0  0  0  0  0  0  0  0
   46.3513   36.5100   43.4521 H   0  0  0  0  0  0  0  0  0  0  0  0
   45.8249   36.2705   42.0028 H   0  0  0  0  0  0  0  0  0  0  0  0
   45.2317   34.1603   44.3766 H   0  0  0  0  0  0  0  0  0  0  0  0
   47.9658   34.4513   38.3759 H   0  0  0  0  0  0  0  0  0  0  0  0
   47.2549   35.6043   40.5505 H   0  0  0  0  0  0  0  0  0  0  0  0
   48.5380   30.8063   40.5038 H   0  0  0  0  0  0  0  0  0  0  0  0
   40.7583   33.5302   40.6557 H   0  0  0  0  0  0  0  0  0  0  0  0
   41.4298   35.2958   42.4292 H   0  0  0  0  0  0  0  0  0  0  0  0
   42.1613   36.1603   41.0348 H   0  0  0  0  0  0  0  0  0  0  0  0
   40.4059   35.7795   41.0348 H   0  0  0  0  0  0  0  0  0  0  0  0
   42.1412   35.3721   39.0123 H   0  0  0  0  0  0  0  0  0  0  0  0
   43.0821   33.8093   39.1250 H   0  0  0  0  0  0  0  0  0  0  0  0
   40.2304   35.5076   38.6565 H   0  0  0  0  0  0  0  0  0  0  0  0
   40.5958   35.1543   36.9263 H   0  0  0  0  0  0  0  0  0  0  0  0
   38.2126   34.9225   37.2610 H   0  0  0  0  0  0  0  0  0  0  0  0
   38.9212   33.2826   37.0322 H   0  0  0  0  0  0  0  0  0  0  0  0
   37.9030   34.5964   39.5777 H   0  0  0  0  0  0  0  0  0  0  0  0
   37.4928   32.9886   38.8795 H   0  0  0  0  0  0  0  0  0  0  0  0
   39.8101   33.8111   40.5823 H   0  0  0  0  0  0  0  0  0  0  0  0
   38.9806   32.2386   40.4730 H   0  0  0  0  0  0  0  0  0  0  0  0
   39.9818   31.9799   38.1504 H   0  0  0  0  0  0  0  0  0  0  0  0
   41.1797   32.0053   39.5296 H   0  0  0  0  0  0  0  0  0  0  0  0
  1  2  2  0
  1  9  1  0
  3  2  1  0
  4  3  2  0
  5  4  1  0
  5  6  2  0
  6  1  1  0
  7  9  1  0
  8  7  1  0
  8  9  1  0
 10 15  2  0
 10 11  1  0
 11 12  2  0
 12  7  1  0
 13 12  1  0
 14 13  2  0
 15 14  1  0
 16 17  1  0
 16  5  1  0
 18 16  1  0
 19 24  1  0
 19 18  1  0
 20 19  1  0
 21 20  1  0
 21 22  1  0
 22 23  1  0
 24 23  1  0
  2 25  1  0
  3 26  1  0
  7 27  1  1
  8 28  1  0
  8 29  1  0
  9 30  1  1
 10 31  1  0
 11 32  1  0
 14 33  1  0
 16 34  1  6
 17 35  1  0
 17 36  1  0
 17 37  1  0
 18 38  1  0
 18 39  1  0
 20 40  1  0
 20 41  1  0
 21 42  1  0
 21 43  1  0
 22 44  1  0
 22 45  1  0
 23 46  1  0
 23 47  1  0
 24 48  1  0
 24 49  1  0
M  ISO  8  25  14  26  14  27  13  28  13  29  13  30  13  31  14  32  14
M  ISO  8  33  14  34   8  35   8  36   8  37   8  38   8  39   8  40  13
M  ISO  8  41  13  42  13  43  13  44  13  45  13  46  13  47  13  48  13
M  ISO  1  49  13
M  END
>  <minimizedAffinity>  (1) 
-5.43249798

>  <minimizedRMSD>  (1) 
1.44355655

$$$$
