
     RDKit          3D

 41 43  0  0  1  0  0  0  0  0999 V2000
   47.4690   34.4300   41.7320 C   0  0  2  0  0  0  0  0  0  0  0  0
   48.5070   35.2660   41.0690 C   0  0  0  0  0  0  0  0  0  0  0  0
   46.6540   35.3210   42.6370 C   0  0  0  0  0  0  0  0  0  0  0  0
   45.2470   35.2920   42.3810 N   0  0  0  0  0  0  0  0  0  0  0  0
   44.7880   34.8440   41.2100 C   0  0  0  0  0  0  0  0  0  0  0  0
   43.4650   34.7500   40.8500 C   0  0  0  0  0  0  0  0  0  0  0  0
   42.5700   35.1750   41.8280 C   0  0  0  0  0  0  0  0  0  0  0  0
   41.3260   35.1240   41.5800 O   0  0  0  0  0  0  0  0  0  0  0  0
   42.9990   35.6340   43.0190 N   0  0  0  0  0  0  0  0  0  0  0  0
   44.3180   35.6920   43.2920 C   0  0  0  0  0  0  0  0  0  0  0  0
   44.7340   36.1210   44.4070 O   0  0  0  0  0  0  0  0  0  0  0  0
   43.0620   34.2360   39.5240 C   0  0  0  0  0  0  0  0  0  0  0  0
   47.9920   33.3470   42.4960 O   0  0  0  0  0  0  0  0  0  0  0  0
   47.1830   32.4750   43.1330 C   0  0  0  0  0  0  0  0  0  0  0  0
   46.3370   31.6610   42.3980 C   0  0  0  0  0  0  0  0  0  0  0  0
   45.5190   30.7690   43.0950 C   0  0  0  0  0  0  0  0  0  0  0  0
   45.5860   30.7370   44.4760 N   0  0  0  0  0  0  0  0  0  0  0  0
   46.4090   31.5360   45.1360 C   0  0  0  0  0  0  0  0  0  0  0  0
   47.1870   32.3840   44.4600 N   0  0  0  0  0  0  0  0  0  0  0  0
   46.4850   31.5070   46.5920 C   0  0  0  0  0  0  0  0  0  0  0  0
   47.4560   30.7780   47.2450 C   0  0  0  0  0  0  0  0  0  0  0  0
   47.6090   30.6890   48.6200 C   0  0  0  0  0  0  0  0  0  0  0  0
   46.6990   31.3990   49.3380 N   0  0  0  0  0  0  0  0  0  0  0  0
   45.7470   32.1130   48.7130 C   0  0  0  0  0  0  0  0  0  0  0  0
   45.6150   32.1870   47.3630 N   0  0  0  0  0  0  0  0  0  0  0  0
   46.8629   33.9769   40.9337 H   0  0  0  0  0  0  0  0  0  0  0  0
   49.1224   35.7617   41.8342 H   0  0  0  0  0  0  0  0  0  0  0  0
   49.1462   34.6276   40.4414 H   0  0  0  0  0  0  0  0  0  0  0  0
   48.0194   36.0265   40.4414 H   0  0  0  0  0  0  0  0  0  0  0  0
   46.8216   35.0019   43.6763 H   0  0  0  0  0  0  0  0  0  0  0  0
   46.9873   36.3519   42.4469 H   0  0  0  0  0  0  0  0  0  0  0  0
   45.5340   34.5220   40.4685 H   0  0  0  0  0  0  0  0  0  0  0  0
   42.3157   35.9425   43.7253 H   0  0  0  0  0  0  0  0  0  0  0  0
   42.3880   33.3764   39.6533 H   0  0  0  0  0  0  0  0  0  0  0  0
   42.5422   35.0287   38.9659 H   0  0  0  0  0  0  0  0  0  0  0  0
   43.9558   33.9204   38.9659 H   0  0  0  0  0  0  0  0  0  0  0  0
   46.3102   31.7154   41.2997 H   0  0  0  0  0  0  0  0  0  0  0  0
   44.8319   30.1020   42.5537 H   0  0  0  0  0  0  0  0  0  0  0  0
   48.1701   30.2194   46.6220 H   0  0  0  0  0  0  0  0  0  0  0  0
   48.4030   30.0918   49.0921 H   0  0  0  0  0  0  0  0  0  0  0  0
   45.0306   32.6719   49.3330 H   0  0  0  0  0  0  0  0  0  0  0  0
  1 13  1  0
  1  3  1  0
  2  1  1  0
  4  3  1  0
  4 10  1  0
  5  4  1  0
  6  5  2  0
  6  7  1  0
  7  9  1  0
  8  7  2  0
  9 10  1  0
 10 11  2  0
 12  6  1  0
 13 14  1  0
 14 19  2  0
 15 16  2  0
 15 14  1  0
 16 17  1  0
 17 18  2  0
 18 20  1  0
 19 18  1  0
 20 21  2  0
 20 25  1  0
 21 22  1  0
 22 23  2  0
 24 23  1  0
 25 24  2  0
  1 26  1  6
  2 27  1  0
  2 28  1  0
  2 29  1  0
  3 30  1  0
  3 31  1  0
  5 32  1  0
  9 33  1  0
 12 34  1  0
 12 35  1  0
 12 36  1  0
 15 37  1  0
 16 38  1  0
 21 39  1  0
 22 40  1  0
 24 41  1  0
M  ISO  8  26   8  27   8  28   8  29   8  30   8  31   8  32  14  33   9
M  ISO  8  34   8  35   8  36   8  37  14  38  14  39  14  40  14  41  14
M  END
>  <minimizedAffinity>  (1) 
-5.8205924

>  <minimizedRMSD>  (1) 
5.99875927

$$$$
