
     RDKit          3D

 40 42  0  0  1  0  0  0  0  0999 V2000
   44.3340   32.3450   39.9240 C   0  0  2  0  0  0  0  0  0  0  0  0
   43.3650   31.2240   40.0680 C   0  0  0  0  0  0  0  0  0  0  0  0
   43.5960   33.6390   40.1550 C   0  0  0  0  0  0  0  0  0  0  0  0
   43.8620   34.2510   41.4210 N   0  0  0  0  0  0  0  0  0  0  0  0
   44.9460   33.9050   42.1170 C   0  0  0  0  0  0  0  0  0  0  0  0
   45.3210   34.4230   43.3320 C   0  0  0  0  0  0  0  0  0  0  0  0
   44.4580   35.3900   43.8410 C   0  0  0  0  0  0  0  0  0  0  0  0
   44.7230   35.9240   44.9590 O   0  0  0  0  0  0  0  0  0  0  0  0
   43.3520   35.7610   43.1640 N   0  0  0  0  0  0  0  0  0  0  0  0
   43.0590   35.2010   41.9740 C   0  0  0  0  0  0  0  0  0  0  0  0
   42.0220   35.5420   41.3300 O   0  0  0  0  0  0  0  0  0  0  0  0
   46.5460   33.9710   44.0240 C   0  0  0  0  0  0  0  0  0  0  0  0
   44.9770   32.4020   38.6520 O   0  0  0  0  0  0  0  0  0  0  0  0
   46.1430   33.0610   38.4790 C   0  0  0  0  0  0  0  0  0  0  0  0
   46.5550   33.4080   37.2040 C   0  0  0  0  0  0  0  0  0  0  0  0
   47.7630   34.0930   37.0690 C   0  0  0  0  0  0  0  0  0  0  0  0
   48.4870   34.3920   38.2020 N   0  0  0  0  0  0  0  0  0  0  0  0
   48.0630   34.0450   39.4070 C   0  0  0  0  0  0  0  0  0  0  0  0
   46.9030   33.3880   39.5220 N   0  0  0  0  0  0  0  0  0  0  0  0
   48.7880   34.3350   40.6440 C   0  0  0  0  0  0  0  0  0  0  0  0
   48.7650   35.5250   41.3440 C   0  0  0  0  0  0  0  0  0  0  0  0
   49.5530   35.4440   42.4430 N   0  0  0  0  0  0  0  0  0  0  0  0
   50.0770   34.1850   42.4310 C   0  0  0  0  0  0  0  0  0  0  0  0
   49.6140   33.5320   41.3530 N   0  0  0  0  0  0  0  0  0  0  0  0
   45.1299   32.1772   40.6646 H   0  0  0  0  0  0  0  0  0  0  0  0
   43.1919   31.0238   41.1357 H   0  0  0  0  0  0  0  0  0  0  0  0
   42.4141   31.4973   39.5874 H   0  0  0  0  0  0  0  0  0  0  0  0
   43.7730   30.3226   39.5874 H   0  0  0  0  0  0  0  0  0  0  0  0
   43.8843   34.3461   39.3632 H   0  0  0  0  0  0  0  0  0  0  0  0
   42.5232   33.3964   40.1417 H   0  0  0  0  0  0  0  0  0  0  0  0
   45.5981   33.1355   41.6781 H   0  0  0  0  0  0  0  0  0  0  0  0
   42.7268   36.4776   43.5596 H   0  0  0  0  0  0  0  0  0  0  0  0
   46.3943   34.0270   45.1121 H   0  0  0  0  0  0  0  0  0  0  0  0
   46.7669   32.9322   43.7375 H   0  0  0  0  0  0  0  0  0  0  0  0
   47.3887   34.6174   43.7375 H   0  0  0  0  0  0  0  0  0  0  0  0
   45.9480   33.1513   36.3233 H   0  0  0  0  0  0  0  0  0  0  0  0
   48.1307   34.3890   36.0754 H   0  0  0  0  0  0  0  0  0  0  0  0
   48.1877   36.4142   41.0504 H   0  0  0  0  0  0  0  0  0  0  0  0
   50.7665   33.7719   43.1819 H   0  0  0  0  0  0  0  0  0  0  0  0
   49.8528   32.5618   41.1026 H   0  0  0  0  0  0  0  0  0  0  0  0
  1  2  1  0
  1  3  1  0
  3  4  1  0
  4 10  1  0
  4  5  1  0
  5  6  2  0
  6  7  1  0
  6 12  1  0
  7  8  2  0
  9  7  1  0
 10  9  1  0
 11 10  2  0
 13  1  1  0
 14 13  1  0
 14 19  1  0
 15 14  2  0
 16 15  1  0
 16 17  2  0
 17 18  1  0
 18 19  2  0
 18 20  1  0
 20 21  2  0
 20 24  1  0
 21 22  1  0
 23 22  2  0
 24 23  1  0
  1 25  1  1
  2 26  1  0
  2 27  1  0
  2 28  1  0
  3 29  1  0
  3 30  1  0
  5 31  1  0
  9 32  1  0
 12 33  1  0
 12 34  1  0
 12 35  1  0
 15 36  1  0
 16 37  1  0
 21 38  1  0
 23 39  1  0
 24 40  1  0
M  ISO  8  25   8  26   8  27   8  28   8  29   8  30   8  31  14  32   9
M  ISO  8  33   8  34   8  35   8  36  14  37  14  38  14  39  14  40   9
M  END
>  <minimizedAffinity>  (1) 
-5.59401178

>  <minimizedRMSD>  (1) 
3.07926631

$$$$
