
     RDKit          3D

 45 46  0  0  1  0  0  0  0  0999 V2000
   45.4240   34.2990   41.9270 C   0  0  2  0  0  0  0  0  0  0  0  0
   43.9730   34.5440   41.6980 C   0  0  0  0  0  0  0  0  0  0  0  0
   45.8410   35.0660   43.1550 C   0  0  0  0  0  0  0  0  0  0  0  0
   45.8050   34.3100   44.3670 N   0  0  0  0  0  0  0  0  0  0  0  0
   46.4980   33.1740   44.4660 C   0  0  0  0  0  0  0  0  0  0  0  0
   46.5560   32.3640   45.5760 C   0  0  0  0  0  0  0  0  0  0  0  0
   45.8060   32.8180   46.6600 C   0  0  0  0  0  0  0  0  0  0  0  0
   45.8050   32.1260   47.7250 O   0  0  0  0  0  0  0  0  0  0  0  0
   45.0990   33.9540   46.5910 N   0  0  0  0  0  0  0  0  0  0  0  0
   45.0980   34.6900   45.4620 C   0  0  0  0  0  0  0  0  0  0  0  0
   44.4310   35.7670   45.3880 O   0  0  0  0  0  0  0  0  0  0  0  0
   47.3600   31.1220   45.5800 C   0  0  0  0  0  0  0  0  0  0  0  0
   46.2600   34.6790   40.8360 O   0  0  0  0  0  0  0  0  0  0  0  0
   47.2390   33.8690   40.3810 C   0  0  0  0  0  0  0  0  0  0  0  0
   47.2060   33.4170   39.0720 C   0  0  0  0  0  0  0  0  0  0  0  0
   48.2410   32.5860   38.6410 C   0  0  0  0  0  0  0  0  0  0  0  0
   49.2470   32.2510   39.5300 N   0  0  0  0  0  0  0  0  0  0  0  0
   49.2390   32.7050   40.7720 C   0  0  0  0  0  0  0  0  0  0  0  0
   48.2420   33.5010   41.1760 N   0  0  0  0  0  0  0  0  0  0  0  0
   50.3740   32.2760   41.6340 C   0  0  0  0  0  0  0  0  0  0  0  0
   51.5350   31.7490   40.8260 C   0  0  0  0  0  0  0  0  0  0  0  0
   50.9180   33.4400   42.4470 C   0  0  0  0  0  0  0  0  0  0  0  0
   49.9720   31.2010   42.6070 C   0  0  0  0  0  0  0  0  0  0  0  0
   45.5526   33.2131   42.0469 H   0  0  0  0  0  0  0  0  0  0  0  0
   43.4585   34.6309   42.6664 H   0  0  0  0  0  0  0  0  0  0  0  0
   43.8439   35.4767   41.1292 H   0  0  0  0  0  0  0  0  0  0  0  0
   43.5448   33.7054   41.1292 H   0  0  0  0  0  0  0  0  0  0  0  0
   46.8702   35.4235   43.0036 H   0  0  0  0  0  0  0  0  0  0  0  0
   45.1147   35.8834   43.2747 H   0  0  0  0  0  0  0  0  0  0  0  0
   47.0729   32.8579   43.5831 H   0  0  0  0  0  0  0  0  0  0  0  0
   44.5526   34.2669   47.4062 H   0  0  0  0  0  0  0  0  0  0  0  0
   47.5577   30.8166   46.6181 H   0  0  0  0  0  0  0  0  0  0  0  0
   46.8061   30.3250   45.0624 H   0  0  0  0  0  0  0  0  0  0  0  0
   48.3140   31.3011   45.0624 H   0  0  0  0  0  0  0  0  0  0  0  0
   46.3893   33.7042   38.3933 H   0  0  0  0  0  0  0  0  0  0  0  0
   48.2568   32.2030   37.6099 H   0  0  0  0  0  0  0  0  0  0  0  0
   52.3225   31.3915   41.5057 H   0  0  0  0  0  0  0  0  0  0  0  0
   51.1930   30.9179   40.1917 H   0  0  0  0  0  0  0  0  0  0  0  0
   51.9355   32.5535   40.1917 H   0  0  0  0  0  0  0  0  0  0  0  0
   50.8144   33.2183   43.5194 H   0  0  0  0  0  0  0  0  0  0  0  0
   51.9803   33.5916   42.2049 H   0  0  0  0  0  0  0  0  0  0  0  0
   50.3529   34.3522   42.2049 H   0  0  0  0  0  0  0  0  0  0  0  0
   50.1089   31.5672   43.6352 H   0  0  0  0  0  0  0  0  0  0  0  0
   48.9153   30.9395   42.4486 H   0  0  0  0  0  0  0  0  0  0  0  0
   50.5978   30.3104   42.4486 H   0  0  0  0  0  0  0  0  0  0  0  0
  1  3  1  0
  2  1  1  0
  3  4  1  0
  4  5  1  0
  4 10  1  0
  5  6  2  0
  6 12  1  0
  6  7  1  0
  7  8  2  0
  9  7  1  0
 10  9  1  0
 11 10  2  0
 13  1  1  0
 14 13  1  0
 14 19  1  0
 15 14  2  0
 16 15  1  0
 16 17  2  0
 17 18  1  0
 18 19  2  0
 18 20  1  0
 20 22  1  0
 20 23  1  0
 21 20  1  0
  1 24  1  1
  2 25  1  0
  2 26  1  0
  2 27  1  0
  3 28  1  0
  3 29  1  0
  5 30  1  0
  9 31  1  0
 12 32  1  0
 12 33  1  0
 12 34  1  0
 15 35  1  0
 16 36  1  0
 21 37  1  0
 21 38  1  0
 21 39  1  0
 22 40  1  0
 22 41  1  0
 22 42  1  0
 23 43  1  0
 23 44  1  0
 23 45  1  0
M  ISO  8  24   8  25   8  26   8  27   8  28   8  29   8  30  14  31   9
M  ISO  8  32   8  33   8  34   8  35  14  36  14  37   8  38   8  39   8
M  ISO  6  40   8  41   8  42   8  43   8  44   8  45   8
M  END
>  <minimizedAffinity>  (1) 
-5.47429132

>  <minimizedRMSD>  (1) 
3.67974639

$$$$
