
     RDKit          3D

 39 41  0  0  1  0  0  0  0  0999 V2000
   44.0420   31.9690   40.0820 C   0  0  2  0  0  0  0  0  0  0  0  0
   43.5440   30.5670   40.1040 C   0  0  0  0  0  0  0  0  0  0  0  0
   42.9630   32.8640   40.6440 C   0  0  0  0  0  0  0  0  0  0  0  0
   43.4180   33.7680   41.6560 N   0  0  0  0  0  0  0  0  0  0  0  0
   44.4860   33.4660   42.3930 C   0  0  0  0  0  0  0  0  0  0  0  0
   45.0300   34.2500   43.3830 C   0  0  0  0  0  0  0  0  0  0  0  0
   44.3650   35.4540   43.5900 C   0  0  0  0  0  0  0  0  0  0  0  0
   44.7950   36.2450   44.4880 O   0  0  0  0  0  0  0  0  0  0  0  0
   43.2810   35.7930   42.8640 N   0  0  0  0  0  0  0  0  0  0  0  0
   42.8180   34.9600   41.9120 C   0  0  0  0  0  0  0  0  0  0  0  0
   41.7980   35.2670   41.2230 O   0  0  0  0  0  0  0  0  0  0  0  0
   46.2260   33.8280   44.1430 C   0  0  0  0  0  0  0  0  0  0  0  0
   44.4020   32.4400   38.7850 O   0  0  0  0  0  0  0  0  0  0  0  0
   45.6160   32.9750   38.5370 C   0  0  0  0  0  0  0  0  0  0  0  0
   46.0610   33.0940   37.2320 C   0  0  0  0  0  0  0  0  0  0  0  0
   47.3200   33.6560   37.0150 C   0  0  0  0  0  0  0  0  0  0  0  0
   48.0560   34.0630   38.1000 N   0  0  0  0  0  0  0  0  0  0  0  0
   47.6010   33.9340   39.3360 C   0  0  0  0  0  0  0  0  0  0  0  0
   46.3940   33.3940   39.5270 N   0  0  0  0  0  0  0  0  0  0  0  0
   48.3990   34.3730   40.4810 C   0  0  0  0  0  0  0  0  0  0  0  0
   49.0180   33.4060   41.3430 C   0  0  0  0  0  0  0  0  0  0  0  0
   49.8660   34.3690   42.5680 S   0  0  0  0  0  0  0  0  0  0  0  0
   49.2670   36.0000   41.7490 C   0  0  0  0  0  0  0  0  0  0  0  0
   48.6620   35.5980   40.8810 N   0  0  0  0  0  0  0  0  0  0  0  0
   44.9616   31.9913   40.6852 H   0  0  0  0  0  0  0  0  0  0  0  0
   43.4264   30.2360   41.1464 H   0  0  0  0  0  0  0  0  0  0  0  0
   42.5724   30.5149   39.5909 H   0  0  0  0  0  0  0  0  0  0  0  0
   44.2651   29.9137   39.5909 H   0  0  0  0  0  0  0  0  0  0  0  0
   42.5405   33.4552   39.8182 H   0  0  0  0  0  0  0  0  0  0  0  0
   42.2218   32.2048   41.1194 H   0  0  0  0  0  0  0  0  0  0  0  0
   44.9769   32.5025   42.1913 H   0  0  0  0  0  0  0  0  0  0  0  0
   42.8060   36.6903   43.0375 H   0  0  0  0  0  0  0  0  0  0  0  0
   46.0199   33.9007   45.2211 H   0  0  0  0  0  0  0  0  0  0  0  0
   46.4751   32.7877   43.8867 H   0  0  0  0  0  0  0  0  0  0  0  0
   47.0728   34.4816   43.8867 H   0  0  0  0  0  0  0  0  0  0  0  0
   45.4400   32.7552   36.3896 H   0  0  0  0  0  0  0  0  0  0  0  0
   47.7147   33.7705   35.9947 H   0  0  0  0  0  0  0  0  0  0  0  0
   48.9758   32.3098   41.2618 H   0  0  0  0  0  0  0  0  0  0  0  0
   49.4597   37.0421   42.0437 H   0  0  0  0  0  0  0  0  0  0  0  0
  1  2  1  0
  1  3  1  0
  3  4  1  0
  4 10  1  0
  4  5  1  0
  5  6  2  0
  6  7  1  0
  6 12  1  0
  7  8  2  0
  9  7  1  0
 10  9  1  0
 11 10  2  0
 13  1  1  0
 14 13  1  0
 14 19  1  0
 15 14  2  0
 16 15  1  0
 16 17  2  0
 17 18  1  0
 18 19  2  0
 18 20  1  0
 20 24  1  0
 20 21  2  0
 21 22  1  0
 23 22  1  0
 24 23  2  0
  1 25  1  1
  2 26  1  0
  2 27  1  0
  2 28  1  0
  3 29  1  0
  3 30  1  0
  5 31  1  0
  9 32  1  0
 12 33  1  0
 12 34  1  0
 12 35  1  0
 15 36  1  0
 16 37  1  0
 21 38  1  0
 23 39  1  0
M  ISO  8  25   8  26   8  27   8  28   8  29   8  30   8  31  14  32   9
M  ISO  7  33   8  34   8  35   8  36  14  37  14  38  14  39  14
M  END
>  <minimizedAffinity>  (1) 
-5.33585596

>  <minimizedRMSD>  (1) 
3.25797653

$$$$
