
     RDKit          3D

 44 47  0  0  1  0  0  0  0  0999 V2000
   46.4220   33.1400   40.5140 C   0  0  2  0  0  0  0  0  0  0  0  0
   45.8870   31.9050   39.8750 C   0  0  0  0  0  0  0  0  0  0  0  0
   45.2770   34.1020   40.7180 C   0  0  0  0  0  0  0  0  0  0  0  0
   45.0430   34.4600   42.0820 N   0  0  0  0  0  0  0  0  0  0  0  0
   45.7260   33.8590   43.0580 C   0  0  0  0  0  0  0  0  0  0  0  0
   45.6050   34.1210   44.4020 C   0  0  0  0  0  0  0  0  0  0  0  0
   44.6710   35.1070   44.7120 C   0  0  0  0  0  0  0  0  0  0  0  0
   44.4940   35.4120   45.9350 O   0  0  0  0  0  0  0  0  0  0  0  0
   43.9650   35.7330   43.7560 N   0  0  0  0  0  0  0  0  0  0  0  0
   44.1470   35.4150   42.4590 C   0  0  0  0  0  0  0  0  0  0  0  0
   43.4890   35.9950   41.5460 O   0  0  0  0  0  0  0  0  0  0  0  0
   46.4120   33.3970   45.4050 C   0  0  0  0  0  0  0  0  0  0  0  0
   47.4450   33.7940   39.7680 O   0  0  0  0  0  0  0  0  0  0  0  0
   48.4260   33.0970   39.1530 C   0  0  0  0  0  0  0  0  0  0  0  0
   48.4820   33.0750   37.7680 C   0  0  0  0  0  0  0  0  0  0  0  0
   49.5120   32.3490   37.1670 C   0  0  0  0  0  0  0  0  0  0  0  0
   50.4140   31.6960   37.9680 N   0  0  0  0  0  0  0  0  0  0  0  0
   50.3320   31.7370   39.2880 C   0  0  0  0  0  0  0  0  0  0  0  0
   49.3420   32.4350   39.8540 N   0  0  0  0  0  0  0  0  0  0  0  0
   51.3130   31.0300   40.0400 N   0  0  0  0  0  0  0  0  0  0  0  0
   52.6240   31.3210   40.1300 C   0  0  0  0  0  0  0  0  0  0  0  0
   53.2780   30.4540   40.9250 N   0  0  0  0  0  0  0  0  0  0  0  0
   52.3550   29.5780   41.3590 C   0  0  0  0  0  0  0  0  0  0  0  0
   52.5250   28.4930   42.2020 C   0  0  0  0  0  0  0  0  0  0  0  0
   51.4300   27.7550   42.4940 N   0  0  0  0  0  0  0  0  0  0  0  0
   50.2460   28.1250   41.9450 C   0  0  0  0  0  0  0  0  0  0  0  0
   50.0830   29.1950   41.1140 N   0  0  0  0  0  0  0  0  0  0  0  0
   51.1390   29.9380   40.8090 C   0  0  0  0  0  0  0  0  0  0  0  0
   46.8858   32.8298   41.4620 H   0  0  0  0  0  0  0  0  0  0  0  0
   45.5785   31.1929   40.6546 H   0  0  0  0  0  0  0  0  0  0  0  0
   45.0196   32.1622   39.2493 H   0  0  0  0  0  0  0  0  0  0  0  0
   46.6679   31.4481   39.2493 H   0  0  0  0  0  0  0  0  0  0  0  0
   45.4947   35.0207   40.1536 H   0  0  0  0  0  0  0  0  0  0  0  0
   44.3693   33.5888   40.3678 H   0  0  0  0  0  0  0  0  0  0  0  0
   46.4497   33.0857   42.7610 H   0  0  0  0  0  0  0  0  0  0  0  0
   43.2818   36.4589   44.0152 H   0  0  0  0  0  0  0  0  0  0  0  0
   46.0881   33.6876   46.4153 H   0  0  0  0  0  0  0  0  0  0  0  0
   46.2747   32.3136   45.2734 H   0  0  0  0  0  0  0  0  0  0  0  0
   47.4742   33.6506   45.2734 H   0  0  0  0  0  0  0  0  0  0  0  0
   47.7382   33.6127   37.1616 H   0  0  0  0  0  0  0  0  0  0  0  0
   49.5986   32.3015   36.0714 H   0  0  0  0  0  0  0  0  0  0  0  0
   53.1037   32.1665   39.6152 H   0  0  0  0  0  0  0  0  0  0  0  0
   53.5117   28.2412   42.6178 H   0  0  0  0  0  0  0  0  0  0  0  0
   49.3579   27.5222   42.1858 H   0  0  0  0  0  0  0  0  0  0  0  0
  1  3  1  0
  2  1  1  0
  3  4  1  0
  4 10  1  0
  4  5  1  0
  5  6  2  0
  6  7  1  0
  6 12  1  0
  7  8  2  0
  9  7  1  0
 10  9  1  0
 11 10  2  0
 13  1  1  0
 14 13  1  0
 14 19  1  0
 15 14  2  0
 16 15  1  0
 16 17  2  0
 17 18  1  0
 18 19  2  0
 18 20  1  0
 20 21  1  0
 20 28  1  0
 21 22  2  0
 22 23  1  0
 23 24  2  0
 24 25  1  0
 26 25  2  0
 27 26  1  0
 28 27  2  0
 28 23  1  0
  1 29  1  1
  2 30  1  0
  2 31  1  0
  2 32  1  0
  3 33  1  0
  3 34  1  0
  5 35  1  0
  9 36  1  0
 12 37  1  0
 12 38  1  0
 12 39  1  0
 15 40  1  0
 16 41  1  0
 21 42  1  0
 24 43  1  0
 26 44  1  0
M  ISO  8  29   8  30   8  31   8  32   8  33   8  34   8  35  14  36   9
M  ISO  8  37   8  38   8  39   8  40  14  41  14  42  14  43  14  44  14
M  END
>  <minimizedAffinity>  (1) 
-5.32465076

>  <minimizedRMSD>  (1) 
6.0711236

$$$$
