
     RDKit          3D

 40 42  0  0  1  0  0  0  0  0999 V2000
   45.5950   34.2110   41.8910 C   0  0  2  0  0  0  0  0  0  0  0  0
   44.1260   34.3610   41.6980 C   0  0  0  0  0  0  0  0  0  0  0  0
   46.0000   35.0240   43.0960 C   0  0  0  0  0  0  0  0  0  0  0  0
   45.8580   34.3360   44.3440 N   0  0  0  0  0  0  0  0  0  0  0  0
   46.5290   33.2020   44.5630 C   0  0  0  0  0  0  0  0  0  0  0  0
   46.4910   32.4600   45.7200 C   0  0  0  0  0  0  0  0  0  0  0  0
   45.6650   32.9820   46.7150 C   0  0  0  0  0  0  0  0  0  0  0  0
   45.5710   32.3580   47.8160 O   0  0  0  0  0  0  0  0  0  0  0  0
   44.9740   34.1260   46.5230 N   0  0  0  0  0  0  0  0  0  0  0  0
   45.0710   34.7880   45.3560 C   0  0  0  0  0  0  0  0  0  0  0  0
   44.4270   35.8620   45.1650 O   0  0  0  0  0  0  0  0  0  0  0  0
   47.2760   31.2160   45.8630 C   0  0  0  0  0  0  0  0  0  0  0  0
   46.3780   34.6190   40.7710 O   0  0  0  0  0  0  0  0  0  0  0  0
   47.2880   33.7950   40.2070 C   0  0  0  0  0  0  0  0  0  0  0  0
   47.1060   33.3790   38.8990 C   0  0  0  0  0  0  0  0  0  0  0  0
   48.0750   32.5290   38.3480 C   0  0  0  0  0  0  0  0  0  0  0  0
   49.1540   32.1460   39.1200 N   0  0  0  0  0  0  0  0  0  0  0  0
   49.2780   32.5740   40.3690 C   0  0  0  0  0  0  0  0  0  0  0  0
   48.3540   33.3820   40.8880 N   0  0  0  0  0  0  0  0  0  0  0  0
   50.4680   32.1120   41.1250 C   0  0  0  0  0  0  0  0  0  0  0  0
   50.8750   33.0220   42.2590 C   0  0  0  0  0  0  0  0  0  0  0  0
   50.2960   31.6400   42.5380 C   0  0  0  0  0  0  0  0  0  0  0  0
   45.7911   33.1371   42.0260 H   0  0  0  0  0  0  0  0  0  0  0  0
   43.6306   34.4116   42.6788 H   0  0  0  0  0  0  0  0  0  0  0  0
   43.9224   35.2846   41.1363 H   0  0  0  0  0  0  0  0  0  0  0  0
   43.7399   33.4976   41.1363 H   0  0  0  0  0  0  0  0  0  0  0  0
   47.0552   35.3117   42.9790 H   0  0  0  0  0  0  0  0  0  0  0  0
   45.3233   35.8904   43.1343 H   0  0  0  0  0  0  0  0  0  0  0  0
   47.1668   32.8297   43.7477 H   0  0  0  0  0  0  0  0  0  0  0  0
   44.3705   34.4931   47.2727 H   0  0  0  0  0  0  0  0  0  0  0  0
   47.4172   30.9922   46.9307 H   0  0  0  0  0  0  0  0  0  0  0  0
   46.7380   30.3856   45.3824 H   0  0  0  0  0  0  0  0  0  0  0  0
   48.2571   31.3442   45.3824 H   0  0  0  0  0  0  0  0  0  0  0  0
   46.2331   33.7036   38.3137 H   0  0  0  0  0  0  0  0  0  0  0  0
   47.9770   32.1712   37.3125 H   0  0  0  0  0  0  0  0  0  0  0  0
   50.9503   31.6654   40.2430 H   0  0  0  0  0  0  0  0  0  0  0  0
   51.9393   33.2236   42.4503 H   0  0  0  0  0  0  0  0  0  0  0  0
   50.6285   34.0496   42.5644 H   0  0  0  0  0  0  0  0  0  0  0  0
   49.2877   31.5421   42.9666 H   0  0  0  0  0  0  0  0  0  0  0  0
   50.6242   30.7595   43.1099 H   0  0  0  0  0  0  0  0  0  0  0  0
  1  3  1  0
  2  1  1  0
  3  4  1  0
  4  5  1  0
  4 10  1  0
  5  6  2  0
  6 12  1  0
  6  7  1  0
  7  8  2  0
  9  7  1  0
 10  9  1  0
 11 10  2  0
 13  1  1  0
 14 13  1  0
 14 19  1  0
 15 14  2  0
 16 15  1  0
 16 17  2  0
 17 18  1  0
 18 19  2  0
 18 20  1  0
 20 21  1  0
 20 22  1  0
 21 22  1  0
  1 23  1  1
  2 24  1  0
  2 25  1  0
  2 26  1  0
  3 27  1  0
  3 28  1  0
  5 29  1  0
  9 30  1  0
 12 31  1  0
 12 32  1  0
 12 33  1  0
 15 34  1  0
 16 35  1  0
 20 36  1  0
 21 37  1  0
 21 38  1  0
 22 39  1  0
 22 40  1  0
M  ISO  8  23   8  24   8  25   8  26   8  27   8  28   8  29  14  30   9
M  ISO  8  31   8  32   8  33   8  34  14  35  14  36  13  37  13  38  13
M  ISO  2  39  13  40  13
M  END
>  <minimizedAffinity>  (1) 
-5.22560835

>  <minimizedRMSD>  (1) 
3.59578395

$$$$
