
     RDKit          3D

 39 40  0  0  1  0  0  0  0  0999 V2000
   45.4210   32.3490   40.6140 C   0  0  2  0  0  0  0  0  0  0  0  0
   44.5070   31.3200   40.0470 C   0  0  0  0  0  0  0  0  0  0  0  0
   44.6560   33.6460   40.7120 C   0  0  0  0  0  0  0  0  0  0  0  0
   44.5970   34.2010   42.0270 N   0  0  0  0  0  0  0  0  0  0  0  0
   45.3220   33.6670   43.0110 C   0  0  0  0  0  0  0  0  0  0  0  0
   45.3650   34.1110   44.3130 C   0  0  0  0  0  0  0  0  0  0  0  0
   44.5570   35.2190   44.5660 C   0  0  0  0  0  0  0  0  0  0  0  0
   44.5360   35.6930   45.7450 O   0  0  0  0  0  0  0  0  0  0  0  0
   43.8150   35.7800   43.5980 N   0  0  0  0  0  0  0  0  0  0  0  0
   43.8340   35.2790   42.3480 C   0  0  0  0  0  0  0  0  0  0  0  0
   43.1360   35.8010   41.4280 O   0  0  0  0  0  0  0  0  0  0  0  0
   46.2100   33.4480   45.3280 C   0  0  0  0  0  0  0  0  0  0  0  0
   46.6030   32.5640   39.8460 O   0  0  0  0  0  0  0  0  0  0  0  0
   47.8210   32.5940   40.4230 C   0  0  0  0  0  0  0  0  0  0  0  0
   48.6640   31.5010   40.2920 C   0  0  0  0  0  0  0  0  0  0  0  0
   49.9260   31.5810   40.9070 C   0  0  0  0  0  0  0  0  0  0  0  0
   50.2670   32.7170   41.6000 N   0  0  0  0  0  0  0  0  0  0  0  0
   49.4210   33.7370   41.6960 C   0  0  0  0  0  0  0  0  0  0  0  0
   48.2270   33.6580   41.1110 N   0  0  0  0  0  0  0  0  0  0  0  0
   49.8250   34.9420   42.4500 C   0  0  0  0  0  0  0  0  0  0  0  0
   49.2330   36.1350   41.7090 C   0  0  0  0  0  0  0  0  0  0  0  0
   45.7564   31.9826   41.5955 H   0  0  0  0  0  0  0  0  0  0  0  0
   44.0195   30.7712   40.8662 H   0  0  0  0  0  0  0  0  0  0  0  0
   43.7415   31.8107   39.4279 H   0  0  0  0  0  0  0  0  0  0  0  0
   45.0845   30.6178   39.4279 H   0  0  0  0  0  0  0  0  0  0  0  0
   45.1387   34.3804   40.0504 H   0  0  0  0  0  0  0  0  0  0  0  0
   43.6195   33.4206   40.4207 H   0  0  0  0  0  0  0  0  0  0  0  0
   45.9411   32.7933   42.7593 H   0  0  0  0  0  0  0  0  0  0  0  0
   43.2277   36.5985   43.8126 H   0  0  0  0  0  0  0  0  0  0  0  0
   45.8593   33.7232   46.3336 H   0  0  0  0  0  0  0  0  0  0  0  0
   46.1455   32.3570   45.2030 H   0  0  0  0  0  0  0  0  0  0  0  0
   47.2543   33.7702   45.2030 H   0  0  0  0  0  0  0  0  0  0  0  0
   48.3577   30.6068   39.7293 H   0  0  0  0  0  0  0  0  0  0  0  0
   50.6335   30.7419   40.8339 H   0  0  0  0  0  0  0  0  0  0  0  0
   49.4307   34.8982   43.4760 H   0  0  0  0  0  0  0  0  0  0  0  0
   50.9201   35.0198   42.5184 H   0  0  0  0  0  0  0  0  0  0  0  0
   48.8664   36.8737   42.4370 H   0  0  0  0  0  0  0  0  0  0  0  0
   50.0072   36.5954   41.0776 H   0  0  0  0  0  0  0  0  0  0  0  0
   48.3981   35.7969   41.0776 H   0  0  0  0  0  0  0  0  0  0  0  0
  1  3  1  0
  2  1  1  0
  3  4  1  0
  4 10  1  0
  4  5  1  0
  5  6  2  0
  6  7  1  0
  6 12  1  0
  7  8  2  0
  9  7  1  0
 10  9  1  0
 11 10  2  0
 13 14  1  0
 13  1  1  0
 14 19  1  0
 15 14  2  0
 15 16  1  0
 16 17  2  0
 17 18  1  0
 18 20  1  0
 19 18  2  0
 21 20  1  0
  1 22  1  1
  2 23  1  0
  2 24  1  0
  2 25  1  0
  3 26  1  0
  3 27  1  0
  5 28  1  0
  9 29  1  0
 12 30  1  0
 12 31  1  0
 12 32  1  0
 15 33  1  0
 16 34  1  0
 20 35  1  0
 20 36  1  0
 21 37  1  0
 21 38  1  0
 21 39  1  0
M  ISO  8  22   8  23   8  24   8  25   8  26   8  27   8  28  14  29   9
M  ISO  8  30   8  31   8  32   8  33  14  34  14  35   8  36   8  37   8
M  ISO  2  38   8  39   8
M  END
>  <minimizedAffinity>  (1) 
-5.11743116

>  <minimizedRMSD>  (1) 
1.40491259

$$$$
