
     RDKit          3D

 35 36  0  0  1  0  0  0  0  0999 V2000
   45.8580   32.4850   40.8200 C   0  0  2  0  0  0  0  0  0  0  0  0
   45.1840   31.3680   40.1010 C   0  0  0  0  0  0  0  0  0  0  0  0
   44.8920   33.6400   40.9140 C   0  0  0  0  0  0  0  0  0  0  0  0
   44.7570   34.1870   42.2300 N   0  0  0  0  0  0  0  0  0  0  0  0
   45.3960   33.6270   43.2580 C   0  0  0  0  0  0  0  0  0  0  0  0
   45.3600   34.0690   44.5620 C   0  0  0  0  0  0  0  0  0  0  0  0
   44.5720   35.1980   44.7650 C   0  0  0  0  0  0  0  0  0  0  0  0
   44.4860   35.6690   45.9430 O   0  0  0  0  0  0  0  0  0  0  0  0
   43.9100   35.7880   43.7490 N   0  0  0  0  0  0  0  0  0  0  0  0
   44.0030   35.2880   42.5050 C   0  0  0  0  0  0  0  0  0  0  0  0
   43.3850   35.8330   41.5430 O   0  0  0  0  0  0  0  0  0  0  0  0
   46.1150   33.3780   45.6290 C   0  0  0  0  0  0  0  0  0  0  0  0
   47.0620   32.9350   40.2030 O   0  0  0  0  0  0  0  0  0  0  0  0
   48.0940   33.4150   40.9330 C   0  0  0  0  0  0  0  0  0  0  0  0
   48.9520   32.5320   41.5680 C   0  0  0  0  0  0  0  0  0  0  0  0
   50.0070   33.0680   42.3090 C   0  0  0  0  0  0  0  0  0  0  0  0
   50.1530   34.4400   42.3800 N   0  0  0  0  0  0  0  0  0  0  0  0
   49.3050   35.2440   41.7540 C   0  0  0  0  0  0  0  0  0  0  0  0
   48.2990   34.7250   41.0480 N   0  0  0  0  0  0  0  0  0  0  0  0
   49.4530   36.6570   41.8260 N   0  0  0  0  0  0  0  0  0  0  0  0
   46.1460   32.1006   41.8096 H   0  0  0  0  0  0  0  0  0  0  0  0
   44.7595   30.6645   40.8323 H   0  0  0  0  0  0  0  0  0  0  0  0
   44.3784   31.7714   39.4699 H   0  0  0  0  0  0  0  0  0  0  0  0
   45.9164   30.8433   39.4699 H   0  0  0  0  0  0  0  0  0  0  0  0
   45.2424   34.4381   40.2430 H   0  0  0  0  0  0  0  0  0  0  0  0
   43.9035   33.2488   40.6316 H   0  0  0  0  0  0  0  0  0  0  0  0
   46.0042   32.7353   43.0462 H   0  0  0  0  0  0  0  0  0  0  0  0
   43.3327   36.6224   43.9265 H   0  0  0  0  0  0  0  0  0  0  0  0
   45.7501   33.7119   46.6115 H   0  0  0  0  0  0  0  0  0  0  0  0
   45.9719   32.2914   45.5347 H   0  0  0  0  0  0  0  0  0  0  0  0
   47.1847   33.6165   45.5347 H   0  0  0  0  0  0  0  0  0  0  0  0
   48.8069   31.4443   41.4910 H   0  0  0  0  0  0  0  0  0  0  0  0
   50.7138   32.4056   42.8302 H   0  0  0  0  0  0  0  0  0  0  0  0
   48.7870   37.2703   41.3348 H   0  0  0  0  0  0  0  0  0  0  0  0
   50.2261   37.0668   42.3693 H   0  0  0  0  0  0  0  0  0  0  0  0
  1  3  1  0
  2  1  1  0
  3  4  1  0
  4 10  1  0
  4  5  1  0
  5  6  2  0
  6  7  1  0
  6 12  1  0
  7  8  2  0
  9  7  1  0
 10  9  1  0
 11 10  2  0
 13  1  1  0
 13 14  1  0
 14 19  1  0
 14 15  2  0
 15 16  1  0
 16 17  2  0
 18 20  1  0
 18 17  1  0
 19 18  2  0
  1 21  1  1
  2 22  1  0
  2 23  1  0
  2 24  1  0
  3 25  1  0
  3 26  1  0
  5 27  1  0
  9 28  1  0
 12 29  1  0
 12 30  1  0
 12 31  1  0
 15 32  1  0
 16 33  1  0
 20 34  1  0
 20 35  1  0
M  ISO  8  21   8  22   8  23   8  24   8  25   8  26   8  27  14  28   9
M  ISO  5  29   8  30   8  31   8  32  14  33  14
M  END
>  <minimizedAffinity>  (1) 
-4.97324181

>  <minimizedRMSD>  (1) 
0.512770712

$$$$
