
     RDKit          3D

 40 42  0  0  1  0  0  0  0  0999 V2000
   43.8400   31.9270   39.9760 C   0  0  2  0  0  0  0  0  0  0  0  0
   43.3010   30.5490   39.8090 C   0  0  0  0  0  0  0  0  0  0  0  0
   42.7900   32.7580   40.6710 C   0  0  0  0  0  0  0  0  0  0  0  0
   43.3100   33.7100   41.6010 N   0  0  0  0  0  0  0  0  0  0  0  0
   44.4200   33.4340   42.2870 C   0  0  0  0  0  0  0  0  0  0  0  0
   45.0240   34.2620   43.2010 C   0  0  0  0  0  0  0  0  0  0  0  0
   44.3820   35.4810   43.3940 C   0  0  0  0  0  0  0  0  0  0  0  0
   44.8750   36.3070   44.2220 O   0  0  0  0  0  0  0  0  0  0  0  0
   43.2580   35.7920   42.7200 N   0  0  0  0  0  0  0  0  0  0  0  0
   42.7290   34.9210   41.8380 C   0  0  0  0  0  0  0  0  0  0  0  0
   41.6720   35.1980   41.1980 O   0  0  0  0  0  0  0  0  0  0  0  0
   46.2600   33.8630   43.9100 C   0  0  0  0  0  0  0  0  0  0  0  0
   44.2100   32.5620   38.7550 O   0  0  0  0  0  0  0  0  0  0  0  0
   45.4610   32.9990   38.5330 C   0  0  0  0  0  0  0  0  0  0  0  0
   45.9280   33.1450   37.2420 C   0  0  0  0  0  0  0  0  0  0  0  0
   47.2260   33.6020   37.0370 C   0  0  0  0  0  0  0  0  0  0  0  0
   47.9940   33.8940   38.1400 N   0  0  0  0  0  0  0  0  0  0  0  0
   47.5200   33.7470   39.3660 C   0  0  0  0  0  0  0  0  0  0  0  0
   46.2690   33.3020   39.5410 N   0  0  0  0  0  0  0  0  0  0  0  0
   48.4140   34.0860   40.5400 C   0  0  0  0  0  0  0  0  0  0  0  0
   49.1980   33.0670   41.1760 C   0  0  0  0  0  0  0  0  0  0  0  0
   49.9670   33.4860   42.2230 C   0  0  0  0  0  0  0  0  0  0  0  0
   50.0170   34.7900   42.6690 C   0  0  0  0  0  0  0  0  0  0  0  0
   48.7850   35.5950   41.4320 S   0  0  0  0  0  0  0  0  0  0  0  0
   44.7653   31.8447   40.5651 H   0  0  0  0  0  0  0  0  0  0  0  0
   43.1259   30.1014   40.7984 H   0  0  0  0  0  0  0  0  0  0  0  0
   42.3530   30.5910   39.2526 H   0  0  0  0  0  0  0  0  0  0  0  0
   44.0259   29.9367   39.2526 H   0  0  0  0  0  0  0  0  0  0  0  0
   42.2193   33.3025   39.9043 H   0  0  0  0  0  0  0  0  0  0  0  0
   42.1702   32.0588   41.2515 H   0  0  0  0  0  0  0  0  0  0  0  0
   44.8930   32.4578   42.1047 H   0  0  0  0  0  0  0  0  0  0  0  0
   42.8001   36.7007   42.8796 H   0  0  0  0  0  0  0  0  0  0  0  0
   46.0934   33.9168   44.9960 H   0  0  0  0  0  0  0  0  0  0  0  0
   46.5268   32.8331   43.6305 H   0  0  0  0  0  0  0  0  0  0  0  0
   47.0786   34.5425   43.6305 H   0  0  0  0  0  0  0  0  0  0  0  0
   45.2815   32.9029   36.3856 H   0  0  0  0  0  0  0  0  0  0  0  0
   47.6271   33.7264   36.0203 H   0  0  0  0  0  0  0  0  0  0  0  0
   49.1807   32.0189   40.8426 H   0  0  0  0  0  0  0  0  0  0  0  0
   50.5842   32.7382   42.7425 H   0  0  0  0  0  0  0  0  0  0  0  0
   50.5932   35.2383   43.4918 H   0  0  0  0  0  0  0  0  0  0  0  0
  1  3  1  0
  2  1  1  0
  3  4  1  0
  4 10  1  0
  4  5  1  0
  5  6  2  0
  6  7  1  0
  6 12  1  0
  7  8  2  0
  9  7  1  0
 10  9  1  0
 11 10  2  0
 13  1  1  0
 14 13  1  0
 14 19  1  0
 15 14  2  0
 16 15  1  0
 16 17  2  0
 17 18  1  0
 18 19  2  0
 18 20  1  0
 20 21  2  0
 20 24  1  0
 21 22  1  0
 22 23  2  0
 24 23  1  0
  1 25  1  1
  2 26  1  0
  2 27  1  0
  2 28  1  0
  3 29  1  0
  3 30  1  0
  5 31  1  0
  9 32  1  0
 12 33  1  0
 12 34  1  0
 12 35  1  0
 15 36  1  0
 16 37  1  0
 21 38  1  0
 22 39  1  0
 23 40  1  0
M  ISO  8  25   8  26   8  27   8  28   8  29   8  30   8  31  14  32   9
M  ISO  8  33   8  34   8  35   8  36  14  37  14  38  14  39  14  40  14
M  END
>  <minimizedAffinity>  (1) 
-5.19441175

>  <minimizedRMSD>  (1) 
3.50283718

$$$$
