
     RDKit          3D

 46 49  0  0  1  0  0  0  0  0999 V2000
   46.3860   33.4350   42.5730 C   0  0  0  0  0  0  0  0  0  0  0  0
   46.1200   32.1050   42.8230 C   0  0  0  0  0  0  0  0  0  0  0  0
   44.8460   31.6210   42.6800 C   0  0  0  0  0  0  0  0  0  0  0  0
   43.8200   32.3890   42.3010 N   0  0  0  0  0  0  0  0  0  0  0  0
   44.0870   33.6700   42.0630 C   0  0  0  0  0  0  0  0  0  0  0  0
   45.3250   34.1750   42.1930 N   0  0  0  0  0  0  0  0  0  0  0  0
   48.7520   34.0660   41.6230 C   0  0  1  0  0  0  0  0  0  0  0  0
   48.0530   35.3250   42.0110 C   0  0  0  0  0  0  0  0  0  0  0  0
   47.7070   34.1190   42.7110 C   0  0  1  0  0  0  0  0  0  0  0  0
   47.7720   33.7380   38.0510 C   0  0  0  0  0  0  0  0  0  0  0  0
   48.0420   34.3170   39.3360 C   0  0  0  0  0  0  0  0  0  0  0  0
   48.4880   33.4560   40.3230 C   0  0  0  0  0  0  0  0  0  0  0  0
   48.6530   32.1310   40.0540 N   0  0  0  0  0  0  0  0  0  0  0  0
   48.3930   31.6190   38.8500 C   0  0  0  0  0  0  0  0  0  0  0  0
   47.9510   32.4060   37.8340 N   0  0  0  0  0  0  0  0  0  0  0  0
   42.9670   34.5460   41.6550 C   0  0  1  0  0  0  0  0  0  0  0  0
   43.5340   35.8530   41.1820 C   0  0  0  0  0  0  0  0  0  0  0  0
   42.1180   33.9230   40.5720 C   0  0  0  0  0  0  0  0  0  0  0  0
   41.4060   34.8490   39.7560 N   0  0  0  0  0  0  0  0  0  0  0  0
   40.0860   35.0420   40.2520 C   0  0  0  0  0  0  0  0  0  0  0  0
   39.1300   34.4420   39.2500 C   0  0  0  0  0  0  0  0  0  0  0  0
   39.9020   34.5660   37.9560 C   0  0  0  0  0  0  0  0  0  0  0  0
   41.3230   34.3270   38.4210 C   0  0  0  0  0  0  0  0  0  0  0  0
   46.9313   31.4321   43.1375 H   0  0  0  0  0  0  0  0  0  0  0  0
   44.6601   30.5565   42.8856 H   0  0  0  0  0  0  0  0  0  0  0  0
   49.7901   33.7090   41.5529 H   0  0  0  0  0  0  0  0  0  0  0  0
   48.6089   36.1173   42.5337 H   0  0  0  0  0  0  0  0  0  0  0  0
   47.4767   36.0821   41.4591 H   0  0  0  0  0  0  0  0  0  0  0  0
   47.6671   33.8360   43.7732 H   0  0  0  0  0  0  0  0  0  0  0  0
   47.4158   34.3787   37.2308 H   0  0  0  0  0  0  0  0  0  0  0  0
   47.9015   35.3912   39.5267 H   0  0  0  0  0  0  0  0  0  0  0  0
   48.5387   30.5425   38.6767 H   0  0  0  0  0  0  0  0  0  0  0  0
   42.3094   34.6998   42.5232 H   0  0  0  0  0  0  0  0  0  0  0  0
   43.8025   36.4720   42.0507 H   0  0  0  0  0  0  0  0  0  0  0  0
   44.4314   35.6649   40.5743 H   0  0  0  0  0  0  0  0  0  0  0  0
   42.7835   36.3798   40.5743 H   0  0  0  0  0  0  0  0  0  0  0  0
   42.7772   33.3308   39.9203 H   0  0  0  0  0  0  0  0  0  0  0  0
   41.3564   33.3199   41.0880 H   0  0  0  0  0  0  0  0  0  0  0  0
   39.9736   34.5405   41.2246 H   0  0  0  0  0  0  0  0  0  0  0  0
   39.8782   36.1132   40.3909 H   0  0  0  0  0  0  0  0  0  0  0  0
   38.9139   33.3896   39.4860 H   0  0  0  0  0  0  0  0  0  0  0  0
   38.1478   34.9366   39.2267 H   0  0  0  0  0  0  0  0  0  0  0  0
   39.7875   35.5674   37.5154 H   0  0  0  0  0  0  0  0  0  0  0  0
   39.5678   33.8739   37.1690 H   0  0  0  0  0  0  0  0  0  0  0  0
   41.5479   33.2502   38.4189 H   0  0  0  0  0  0  0  0  0  0  0  0
   42.0483   34.8177   37.7552 H   0  0  0  0  0  0  0  0  0  0  0  0
  1  9  1  0
  1  2  2  0
  3  2  1  0
  4  3  2  0
  5  6  2  0
  5  4  1  0
  6  1  1  0
  7  8  1  0
  7  9  1  0
  8  9  1  0
 10 11  2  0
 11 12  1  0
 12  7  1  0
 13 12  2  0
 14 13  1  0
 15 10  1  0
 15 14  2  0
 16  5  1  0
 17 16  1  0
 18 16  1  0
 19 20  1  0
 19 18  1  0
 21 20  1  0
 22 23  1  0
 22 21  1  0
 23 19  1  0
  2 24  1  0
  3 25  1  0
  7 26  1  1
  8 27  1  0
  8 28  1  0
  9 29  1  1
 10 30  1  0
 11 31  1  0
 14 32  1  0
 16 33  1  1
 17 34  1  0
 17 35  1  0
 17 36  1  0
 18 37  1  0
 18 38  1  0
 20 39  1  0
 20 40  1  0
 21 41  1  0
 21 42  1  0
 22 43  1  0
 22 44  1  0
 23 45  1  0
 23 46  1  0
M  ISO  8  24  14  25  14  26  13  27  13  28  13  29  13  30  14  31  14
M  ISO  8  32  14  33   8  34   8  35   8  36   8  37   8  38   8  39  13
M  ISO  7  40  13  41  13  42  13  43  13  44  13  45  13  46  13
M  END
>  <minimizedAffinity>  (1) 
-5.07342625

>  <minimizedRMSD>  (1) 
2.05085588

$$$$
