
     RDKit          3D

 41 43  0  0  1  0  0  0  0  0999 V2000
   43.1990   32.2020   39.5560 C   0  0  2  0  0  0  0  0  0  0  0  0
   42.3730   30.9930   39.3250 C   0  0  0  0  0  0  0  0  0  0  0  0
   42.3370   33.1940   40.3080 C   0  0  0  0  0  0  0  0  0  0  0  0
   43.0010   33.9090   41.3450 N   0  0  0  0  0  0  0  0  0  0  0  0
   44.0770   33.3860   41.9170 C   0  0  0  0  0  0  0  0  0  0  0  0
   44.8210   33.9780   42.9120 C   0  0  0  0  0  0  0  0  0  0  0  0
   44.3590   35.2390   43.3200 C   0  0  0  0  0  0  0  0  0  0  0  0
   44.9890   35.8550   44.2340 O   0  0  0  0  0  0  0  0  0  0  0  0
   43.2710   35.7940   42.7610 N   0  0  0  0  0  0  0  0  0  0  0  0
   42.6000   35.1450   41.7910 C   0  0  0  0  0  0  0  0  0  0  0  0
   41.5750   35.6600   41.2600 O   0  0  0  0  0  0  0  0  0  0  0  0
   46.0080   33.3290   43.4860 C   0  0  0  0  0  0  0  0  0  0  0  0
   43.6980   32.8240   38.3620 O   0  0  0  0  0  0  0  0  0  0  0  0
   45.0110   32.9740   38.1570 C   0  0  0  0  0  0  0  0  0  0  0  0
   45.5400   32.8270   36.8960 C   0  0  0  0  0  0  0  0  0  0  0  0
   46.9100   32.9900   36.7090 C   0  0  0  0  0  0  0  0  0  0  0  0
   47.6860   33.2920   37.8040 N   0  0  0  0  0  0  0  0  0  0  0  0
   47.1530   33.4270   39.0070 C   0  0  0  0  0  0  0  0  0  0  0  0
   45.8360   33.2670   39.1580 N   0  0  0  0  0  0  0  0  0  0  0  0
   48.0670   33.7570   40.1740 C   0  0  0  0  0  0  0  0  0  0  0  0
   48.8750   32.7670   40.7820 C   0  0  0  0  0  0  0  0  0  0  0  0
   49.6540   33.1650   41.8160 C   0  0  0  0  0  0  0  0  0  0  0  0
   49.6770   34.4550   42.2660 C   0  0  0  0  0  0  0  0  0  0  0  0
   48.4120   35.2620   41.0690 S   0  0  0  0  0  0  0  0  0  0  0  0
   50.2940   35.1810   43.2180 O   0  0  0  0  0  0  0  0  0  0  0  0
   44.0914   31.8895   40.1182 H   0  0  0  0  0  0  0  0  0  0  0  0
   42.0775   30.5605   40.2923 H   0  0  0  0  0  0  0  0  0  0  0  0
   41.4727   31.2673   38.7556 H   0  0  0  0  0  0  0  0  0  0  0  0
   42.9559   30.2540   38.7556 H   0  0  0  0  0  0  0  0  0  0  0  0
   41.9496   33.9259   39.5840 H   0  0  0  0  0  0  0  0  0  0  0  0
   41.5496   32.6037   40.7995 H   0  0  0  0  0  0  0  0  0  0  0  0
   44.4024   32.3954   41.5666 H   0  0  0  0  0  0  0  0  0  0  0  0
   42.9487   36.7202   43.0759 H   0  0  0  0  0  0  0  0  0  0  0  0
   45.9487   33.3614   44.5839 H   0  0  0  0  0  0  0  0  0  0  0  0
   46.0510   32.2819   43.1519 H   0  0  0  0  0  0  0  0  0  0  0  0
   46.9127   33.8580   43.1519 H   0  0  0  0  0  0  0  0  0  0  0  0
   44.8878   32.5833   36.0444 H   0  0  0  0  0  0  0  0  0  0  0  0
   47.3603   32.8801   35.7114 H   0  0  0  0  0  0  0  0  0  0  0  0
   48.8706   31.7243   40.4316 H   0  0  0  0  0  0  0  0  0  0  0  0
   50.2933   32.4205   42.3131 H   0  0  0  0  0  0  0  0  0  0  0  0
   50.0981   36.1472   43.3085 H   0  0  0  0  0  0  0  0  0  0  0  0
  1  3  1  0
  2  1  1  0
  3  4  1  0
  4 10  1  0
  4  5  1  0
  5  6  2  0
  6  7  1  0
  6 12  1  0
  7  8  2  0
  9  7  1  0
 10  9  1  0
 11 10  2  0
 13  1  1  0
 14 13  1  0
 14 19  1  0
 15 14  2  0
 16 15  1  0
 16 17  2  0
 17 18  1  0
 18 19  2  0
 18 20  1  0
 20 21  2  0
 20 24  1  0
 21 22  1  0
 22 23  2  0
 23 25  1  0
 24 23  1  0
  1 26  1  1
  2 27  1  0
  2 28  1  0
  2 29  1  0
  3 30  1  0
  3 31  1  0
  5 32  1  0
  9 33  1  0
 12 34  1  0
 12 35  1  0
 12 36  1  0
 15 37  1  0
 16 38  1  0
 21 39  1  0
 22 40  1  0
 25 41  1  0
M  ISO  8  26   8  27   8  28   8  29   8  30   8  31   8  32  14  33   9
M  ISO  8  34   8  35   8  36   8  37  14  38  14  39  14  40  14  41   3
M  END
>  <minimizedAffinity>  (1) 
-5.71490097

>  <minimizedRMSD>  (1) 
0.618574679

$$$$
