
     RDKit          3D

 43 45  0  0  1  0  0  0  0  0999 V2000
   43.4990   33.2510   38.9920 C   0  0  2  0  0  0  0  0  0  0  0  0
   42.4330   32.2210   39.0190 C   0  0  0  0  0  0  0  0  0  0  0  0
   42.9110   34.5210   39.5720 C   0  0  0  0  0  0  0  0  0  0  0  0
   43.3770   34.8600   40.8750 N   0  0  0  0  0  0  0  0  0  0  0  0
   44.6690   34.7620   41.1580 C   0  0  0  0  0  0  0  0  0  0  0  0
   45.2500   35.0770   42.3650 C   0  0  0  0  0  0  0  0  0  0  0  0
   44.3570   35.5330   43.3450 C   0  0  0  0  0  0  0  0  0  0  0  0
   44.8080   35.8470   44.4900 O   0  0  0  0  0  0  0  0  0  0  0  0
   43.0420   35.6430   43.0900 N   0  0  0  0  0  0  0  0  0  0  0  0
   42.5520   35.3130   41.8760 C   0  0  0  0  0  0  0  0  0  0  0  0
   41.3200   35.4110   41.6270 O   0  0  0  0  0  0  0  0  0  0  0  0
   46.6940   34.9400   42.5900 C   0  0  0  0  0  0  0  0  0  0  0  0
   44.0290   33.5260   37.6900 O   0  0  0  0  0  0  0  0  0  0  0  0
   45.2070   33.0240   37.2970 C   0  0  0  0  0  0  0  0  0  0  0  0
   45.4030   32.6700   35.9820 C   0  0  0  0  0  0  0  0  0  0  0  0
   46.6340   32.1500   35.5940 C   0  0  0  0  0  0  0  0  0  0  0  0
   47.6100   32.0120   36.5530 N   0  0  0  0  0  0  0  0  0  0  0  0
   47.3930   32.3610   37.8130 C   0  0  0  0  0  0  0  0  0  0  0  0
   46.2050   32.8560   38.1580 N   0  0  0  0  0  0  0  0  0  0  0  0
   48.5100   32.1810   38.8220 C   0  0  0  0  0  0  0  0  0  0  0  0
   48.4410   32.7390   40.1210 C   0  0  0  0  0  0  0  0  0  0  0  0
   49.4880   32.5220   40.9550 C   0  0  0  0  0  0  0  0  0  0  0  0
   50.5790   31.7920   40.5700 C   0  0  0  0  0  0  0  0  0  0  0  0
   50.0850   31.3290   38.7650 S   0  0  0  0  0  0  0  0  0  0  0  0
   51.7980   31.3790   41.1390 C   0  0  0  0  0  0  0  0  0  0  0  0
   51.9500   30.5740   42.1150 O   0  0  0  0  0  0  0  0  0  0  0  0
   52.9980   31.8570   40.6350 O   0  0  0  0  0  0  0  0  0  0  0  0
   44.3472   32.8649   39.5764 H   0  0  0  0  0  0  0  0  0  0  0  0
   42.1829   31.9794   40.0626 H   0  0  0  0  0  0  0  0  0  0  0  0
   41.5385   32.6056   38.5072 H   0  0  0  0  0  0  0  0  0  0  0  0
   42.7866   31.3138   38.5072 H   0  0  0  0  0  0  0  0  0  0  0  0
   43.1578   35.3517   38.8945 H   0  0  0  0  0  0  0  0  0  0  0  0
   41.8299   34.3429   39.6689 H   0  0  0  0  0  0  0  0  0  0  0  0
   45.3327   34.3979   40.3599 H   0  0  0  0  0  0  0  0  0  0  0  0
   42.4044   35.9810   43.8249 H   0  0  0  0  0  0  0  0  0  0  0  0
   46.8964   34.9208   43.6710 H   0  0  0  0  0  0  0  0  0  0  0  0
   47.0490   34.0041   42.1338 H   0  0  0  0  0  0  0  0  0  0  0  0
   47.2187   35.7924   42.1338 H   0  0  0  0  0  0  0  0  0  0  0  0
   44.5957   32.7966   35.2457 H   0  0  0  0  0  0  0  0  0  0  0  0
   46.8211   31.8577   34.5502 H   0  0  0  0  0  0  0  0  0  0  0  0
   47.5692   33.3277   40.4425 H   0  0  0  0  0  0  0  0  0  0  0  0
   49.4592   32.9450   41.9700 H   0  0  0  0  0  0  0  0  0  0  0  0
   53.8547   31.5654   41.0365 H   0  0  0  0  0  0  0  0  0  0  0  0
  1  2  1  0
  1  3  1  0
  3  4  1  0
  4  5  1  0
  4 10  1  0
  5  6  2  0
  6 12  1  0
  6  7  1  0
  7  8  2  0
  9  7  1  0
 10  9  1  0
 11 10  2  0
 13  1  1  0
 14 13  1  0
 14 19  1  0
 15 14  2  0
 16 15  1  0
 16 17  2  0
 17 18  1  0
 18 19  2  0
 18 20  1  0
 20 21  2  0
 21 22  1  0
 23 22  2  0
 23 25  1  0
 24 20  1  0
 24 23  1  0
 25 26  2  0
 27 25  1  0
  1 28  1  1
  2 29  1  0
  2 30  1  0
  2 31  1  0
  3 32  1  0
  3 33  1  0
  5 34  1  0
  9 35  1  0
 12 36  1  0
 12 37  1  0
 12 38  1  0
 15 39  1  0
 16 40  1  0
 21 41  1  0
 22 42  1  0
 27 43  1  0
M  ISO  8  28   8  29   8  30   8  31   8  32   8  33   8  34  14  35   9
M  ISO  8  36   8  37   8  38   8  39  14  40  14  41  14  42  14  43   3
M  END
>  <minimizedAffinity>  (1) 
-5.50055885

>  <minimizedRMSD>  (1) 
2.6876545

$$$$
