
     RDKit          3D

 43 45  0  0  1  0  0  0  0  0999 V2000
   43.5380   33.2270   38.9590 C   0  0  2  0  0  0  0  0  0  0  0  0
   42.4690   32.2020   38.8990 C   0  0  0  0  0  0  0  0  0  0  0  0
   42.9190   34.4790   39.5430 C   0  0  0  0  0  0  0  0  0  0  0  0
   43.3820   34.8330   40.8380 N   0  0  0  0  0  0  0  0  0  0  0  0
   44.6730   34.7250   41.1300 C   0  0  0  0  0  0  0  0  0  0  0  0
   45.2510   35.0530   42.3370 C   0  0  0  0  0  0  0  0  0  0  0  0
   44.3610   35.5330   43.3070 C   0  0  0  0  0  0  0  0  0  0  0  0
   44.8150   35.8570   44.4470 O   0  0  0  0  0  0  0  0  0  0  0  0
   43.0570   35.6510   43.0460 N   0  0  0  0  0  0  0  0  0  0  0  0
   42.5680   35.3090   41.8370 C   0  0  0  0  0  0  0  0  0  0  0  0
   41.3320   35.4180   41.5820 O   0  0  0  0  0  0  0  0  0  0  0  0
   46.7000   34.9080   42.5660 C   0  0  0  0  0  0  0  0  0  0  0  0
   44.1410   33.5420   37.6940 O   0  0  0  0  0  0  0  0  0  0  0  0
   45.1640   32.8220   37.2140 C   0  0  0  0  0  0  0  0  0  0  0  0
   45.0660   32.2030   35.9950 C   0  0  0  0  0  0  0  0  0  0  0  0
   46.1370   31.4600   35.5130 C   0  0  0  0  0  0  0  0  0  0  0  0
   47.2660   31.3780   36.2930 N   0  0  0  0  0  0  0  0  0  0  0  0
   47.3340   31.9850   37.4660 C   0  0  0  0  0  0  0  0  0  0  0  0
   46.2920   32.6900   37.9040 N   0  0  0  0  0  0  0  0  0  0  0  0
   48.6010   31.8530   38.2770 C   0  0  0  0  0  0  0  0  0  0  0  0
   49.8160   31.3900   37.7120 C   0  0  0  0  0  0  0  0  0  0  0  0
   50.9010   31.3120   38.5340 C   0  0  0  0  0  0  0  0  0  0  0  0
   50.8460   31.6610   39.8550 C   0  0  0  0  0  0  0  0  0  0  0  0
   49.0140   32.1770   39.9920 S   0  0  0  0  0  0  0  0  0  0  0  0
   51.6910   31.7170   40.9580 C   0  0  0  0  0  0  0  0  0  0  0  0
   53.0280   31.7440   40.5290 F   0  0  0  0  0  0  0  0  0  0  0  0
   51.6200   30.6560   41.8530 F   0  0  0  0  0  0  0  0  0  0  0  0
   51.5000   32.8650   41.6660 F   0  0  0  0  0  0  0  0  0  0  0  0
   44.3539   32.8194   39.5740 H   0  0  0  0  0  0  0  0  0  0  0  0
   42.1743   31.9194   39.9204 H   0  0  0  0  0  0  0  0  0  0  0  0
   41.5981   32.6113   38.3660 H   0  0  0  0  0  0  0  0  0  0  0  0
   42.8413   31.3147   38.3660 H   0  0  0  0  0  0  0  0  0  0  0  0
   43.1367   35.3157   38.8629 H   0  0  0  0  0  0  0  0  0  0  0  0
   41.8446   34.2683   39.6491 H   0  0  0  0  0  0  0  0  0  0  0  0
   45.3371   34.3412   40.3415 H   0  0  0  0  0  0  0  0  0  0  0  0
   42.4200   36.0058   43.7735 H   0  0  0  0  0  0  0  0  0  0  0  0
   46.9001   34.8880   43.6475 H   0  0  0  0  0  0  0  0  0  0  0  0
   47.0511   33.9702   42.1107 H   0  0  0  0  0  0  0  0  0  0  0  0
   47.2300   35.7576   42.1107 H   0  0  0  0  0  0  0  0  0  0  0  0
   44.1444   32.2939   35.4013 H   0  0  0  0  0  0  0  0  0  0  0  0
   46.0830   30.9535   34.5381 H   0  0  0  0  0  0  0  0  0  0  0  0
   49.8809   31.1048   36.6516 H   0  0  0  0  0  0  0  0  0  0  0  0
   51.8554   30.9553   38.1194 H   0  0  0  0  0  0  0  0  0  0  0  0
  1  3  1  0
  2  1  1  0
  3  4  1  0
  4  5  1  0
  4 10  1  0
  5  6  2  0
  6 12  1  0
  6  7  1  0
  7  8  2  0
  9  7  1  0
 10  9  1  0
 11 10  2  0
 13  1  1  0
 14 13  1  0
 14 19  1  0
 15 14  2  0
 16 15  1  0
 16 17  2  0
 17 18  1  0
 18 19  2  0
 18 20  1  0
 20 24  1  0
 21 20  2  0
 21 22  1  0
 22 23  2  0
 23 24  1  0
 23 25  1  0
 25 28  1  0
 25 27  1  0
 26 25  1  0
  1 29  1  1
  2 30  1  0
  2 31  1  0
  2 32  1  0
  3 33  1  0
  3 34  1  0
  5 35  1  0
  9 36  1  0
 12 37  1  0
 12 38  1  0
 12 39  1  0
 15 40  1  0
 16 41  1  0
 21 42  1  0
 22 43  1  0
M  ISO  8  29   8  30   8  31   8  32   8  33   8  34   8  35  14  36   9
M  ISO  7  37   8  38   8  39   8  40  14  41  14  42  14  43  14
M  END
>  <minimizedAffinity>  (1) 
-5.33226299

>  <minimizedRMSD>  (1) 
2.88140011

$$$$
