
     RDKit          3D

 49 51  0  0  1  0  0  0  0  0999 V2000
   43.0280   33.4340   38.9720 C   0  0  2  0  0  0  0  0  0  0  0  0
   41.7510   32.6810   38.9210 C   0  0  0  0  0  0  0  0  0  0  0  0
   42.7240   34.7990   39.5480 C   0  0  0  0  0  0  0  0  0  0  0  0
   43.2390   35.0290   40.8580 N   0  0  0  0  0  0  0  0  0  0  0  0
   44.5370   34.8930   41.0870 C   0  0  0  0  0  0  0  0  0  0  0  0
   45.1630   35.1040   42.2950 C   0  0  0  0  0  0  0  0  0  0  0  0
   44.3100   35.4930   43.3380 C   0  0  0  0  0  0  0  0  0  0  0  0
   44.7940   35.7110   44.4880 O   0  0  0  0  0  0  0  0  0  0  0  0
   42.9870   35.6380   43.1370 N   0  0  0  0  0  0  0  0  0  0  0  0
   42.4530   35.4110   41.9180 C   0  0  0  0  0  0  0  0  0  0  0  0
   41.2140   35.5430   41.7170 O   0  0  0  0  0  0  0  0  0  0  0  0
   46.6090   34.9330   42.4600 C   0  0  0  0  0  0  0  0  0  0  0  0
   43.6850   33.5920   37.7030 O   0  0  0  0  0  0  0  0  0  0  0  0
   44.8910   33.0570   37.4760 C   0  0  0  0  0  0  0  0  0  0  0  0
   45.3070   32.8200   36.1870 C   0  0  0  0  0  0  0  0  0  0  0  0
   46.5670   32.2640   35.9740 C   0  0  0  0  0  0  0  0  0  0  0  0
   47.3460   31.9720   37.0710 N   0  0  0  0  0  0  0  0  0  0  0  0
   46.9160   32.2120   38.3000 C   0  0  0  0  0  0  0  0  0  0  0  0
   45.7110   32.7440   38.4780 N   0  0  0  0  0  0  0  0  0  0  0  0
   47.8120   31.8660   39.4580 C   0  0  0  0  0  0  0  0  0  0  0  0
   47.8380   30.5730   40.0270 C   0  0  0  0  0  0  0  0  0  0  0  0
   48.6840   30.3620   41.0670 C   0  0  0  0  0  0  0  0  0  0  0  0
   49.4960   31.3390   41.5730 C   0  0  0  0  0  0  0  0  0  0  0  0
   49.0200   32.7800   40.4370 S   0  0  0  0  0  0  0  0  0  0  0  0
   50.4530   31.6190   42.5340 C   0  0  0  0  0  0  0  0  0  0  0  0
   51.0020   33.0360   42.3300 C   0  0  0  0  0  0  0  0  0  0  0  0
   51.5960   30.6420   42.4990 C   0  0  0  0  0  0  0  0  0  0  0  0
   43.7262   32.8514   39.5909 H   0  0  0  0  0  0  0  0  0  0  0  0
   41.4046   32.4768   39.9449 H   0  0  0  0  0  0  0  0  0  0  0  0
   40.9945   33.2776   38.3902 H   0  0  0  0  0  0  0  0  0  0  0  0
   41.9069   31.7303   38.3902 H   0  0  0  0  0  0  0  0  0  0  0  0
   43.1525   35.5564   38.8751 H   0  0  0  0  0  0  0  0  0  0  0  0
   41.6290   34.8597   39.6332 H   0  0  0  0  0  0  0  0  0  0  0  0
   45.1680   34.5854   40.2401 H   0  0  0  0  0  0  0  0  0  0  0  0
   42.3787   35.9237   43.9175 H   0  0  0  0  0  0  0  0  0  0  0  0
   46.8548   34.9039   43.5318 H   0  0  0  0  0  0  0  0  0  0  0  0
   46.9233   33.9914   41.9860 H   0  0  0  0  0  0  0  0  0  0  0  0
   47.1343   35.7753   41.9860 H   0  0  0  0  0  0  0  0  0  0  0  0
   44.6546   33.0658   35.3361 H   0  0  0  0  0  0  0  0  0  0  0  0
   46.9300   32.0635   34.9552 H   0  0  0  0  0  0  0  0  0  0  0  0
   47.1963   29.7671   39.6413 H   0  0  0  0  0  0  0  0  0  0  0  0
   48.7180   29.3614   41.5228 H   0  0  0  0  0  0  0  0  0  0  0  0
   49.9608   31.5355   43.5142 H   0  0  0  0  0  0  0  0  0  0  0  0
   51.1831   33.5035   43.3091 H   0  0  0  0  0  0  0  0  0  0  0  0
   51.9458   32.9861   41.7673 H   0  0  0  0  0  0  0  0  0  0  0  0
   50.2709   33.6350   41.7673 H   0  0  0  0  0  0  0  0  0  0  0  0
   51.8930   30.3881   43.5273 H   0  0  0  0  0  0  0  0  0  0  0  0
   51.2819   29.7289   41.9721 H   0  0  0  0  0  0  0  0  0  0  0  0
   52.4490   31.0944   41.9721 H   0  0  0  0  0  0  0  0  0  0  0  0
  1  3  1  0
  2  1  1  0
  3  4  1  0
  4  5  1  0
  4 10  1  0
  5  6  2  0
  6 12  1  0
  6  7  1  0
  7  8  2  0
  9  7  1  0
 10  9  1  0
 11 10  2  0
 13  1  1  0
 14 13  1  0
 14 19  1  0
 15 14  2  0
 16 15  1  0
 16 17  2  0
 17 18  1  0
 18 19  2  0
 18 20  1  0
 20 21  2  0
 20 24  1  0
 21 22  1  0
 22 23  2  0
 23 25  1  0
 24 23  1  0
 26 25  1  0
 27 25  1  0
  1 28  1  1
  2 29  1  0
  2 30  1  0
  2 31  1  0
  3 32  1  0
  3 33  1  0
  5 34  1  0
  9 35  1  0
 12 36  1  0
 12 37  1  0
 12 38  1  0
 15 39  1  0
 16 40  1  0
 21 41  1  0
 22 42  1  0
 25 43  1  0
 26 44  1  0
 26 45  1  0
 26 46  1  0
 27 47  1  0
 27 48  1  0
 27 49  1  0
M  ISO  8  28   8  29   8  30   8  31   8  32   8  33   8  34  14  35   9
M  ISO  8  36   8  37   8  38   8  39  14  40  14  41  14  42  14  43   8
M  ISO  6  44   8  45   8  46   8  47   8  48   8  49   8
M  END
>  <minimizedAffinity>  (1) 
-4.91919994

>  <minimizedRMSD>  (1) 
2.45522022

$$$$
