
     RDKit          3D

 41 43  0  0  1  0  0  0  0  0999 V2000
   44.4520   33.6290   42.6970 C   0  0  0  0  0  0  0  0  0  0  0  0
   44.3760   32.2430   42.6870 C   0  0  0  0  0  0  0  0  0  0  0  0
   43.3590   31.6040   42.0320 C   0  0  0  0  0  0  0  0  0  0  0  0
   42.4120   32.2730   41.3840 N   0  0  0  0  0  0  0  0  0  0  0  0
   42.4810   33.6130   41.3920 C   0  0  0  0  0  0  0  0  0  0  0  0
   43.4660   34.2670   42.0240 N   0  0  0  0  0  0  0  0  0  0  0  0
   46.9250   34.4750   42.9440 C   0  0  1  0  0  0  0  0  0  0  0  0
   46.0310   35.6660   42.8300 C   0  0  0  0  0  0  0  0  0  0  0  0
   45.4830   34.4580   43.3860 C   0  0  1  0  0  0  0  0  0  0  0  0
   47.8730   33.9120   39.3880 C   0  0  0  0  0  0  0  0  0  0  0  0
   47.4380   34.5620   40.5840 C   0  0  0  0  0  0  0  0  0  0  0  0
   47.3750   33.7960   41.7370 C   0  0  0  0  0  0  0  0  0  0  0  0
   47.7210   32.4880   41.6870 N   0  0  0  0  0  0  0  0  0  0  0  0
   48.1280   31.8940   40.5570 C   0  0  0  0  0  0  0  0  0  0  0  0
   48.2110   32.5830   39.4010 N   0  0  0  0  0  0  0  0  0  0  0  0
   41.4310   34.3910   40.6910 C   0  0  1  0  0  0  0  0  0  0  0  0
   41.2310   35.6830   41.3940 C   0  0  0  0  0  0  0  0  0  0  0  0
   41.7670   34.5650   39.2260 C   0  0  0  0  0  0  0  0  0  0  0  0
   41.1660   35.7000   38.6080 N   0  0  0  0  0  0  0  0  0  0  0  0
   41.7770   36.1310   37.3770 C   0  0  0  0  0  0  0  0  0  0  0  0
   43.0210   35.9500   37.0510 N   0  0  0  0  0  0  0  0  0  0  0  0
   40.9810   36.8170   36.3830 N   0  0  0  0  0  0  0  0  0  0  0  0
   43.4290   36.2820   36.1400 H   0  0  0  0  0  0  0  0  0  0  0  0
   45.1416   31.6522   43.2113 H   0  0  0  0  0  0  0  0  0  0  0  0
   43.3246   30.5046   42.0423 H   0  0  0  0  0  0  0  0  0  0  0  0
   47.8870   34.2280   43.4168 H   0  0  0  0  0  0  0  0  0  0  0  0
   46.1991   36.5374   43.4799 H   0  0  0  0  0  0  0  0  0  0  0  0
   45.7401   36.3297   42.0024 H   0  0  0  0  0  0  0  0  0  0  0  0
   44.9546   34.2163   44.3200 H   0  0  0  0  0  0  0  0  0  0  0  0
   47.9372   34.4822   38.4495 H   0  0  0  0  0  0  0  0  0  0  0  0
   47.1642   35.6274   40.5891 H   0  0  0  0  0  0  0  0  0  0  0  0
   48.3986   30.8279   40.5727 H   0  0  0  0  0  0  0  0  0  0  0  0
   40.4794   33.8398   40.7172 H   0  0  0  0  0  0  0  0  0  0  0  0
   41.2567   35.5168   42.4811 H   0  0  0  0  0  0  0  0  0  0  0  0
   42.0316   36.3822   41.1109 H   0  0  0  0  0  0  0  0  0  0  0  0
   40.2565   36.1074   41.1109 H   0  0  0  0  0  0  0  0  0  0  0  0
   42.8588   34.6628   39.1341 H   0  0  0  0  0  0  0  0  0  0  0  0
   41.3667   33.6809   38.7082 H   0  0  0  0  0  0  0  0  0  0  0  0
   40.3500   36.1796   39.0142 H   0  0  0  0  0  0  0  0  0  0  0  0
   41.4136   37.1271   35.5012 H   0  0  0  0  0  0  0  0  0  0  0  0
   39.9816   36.9954   36.5570 H   0  0  0  0  0  0  0  0  0  0  0  0
  1  9  1  0
  2  1  2  0
  3  2  1  0
  4  5  1  0
  4  3  2  0
  5  6  2  0
  6  1  1  0
  7  9  1  0
  8  7  1  0
  8  9  1  0
 10 15  2  0
 10 11  1  0
 11 12  2  0
 12  7  1  0
 13 12  1  0
 14 13  2  0
 15 14  1  0
 16  5  1  0
 16 17  1  0
 18 16  1  0
 19 18  1  0
 20 19  1  0
 21 20  2  0
 22 20  1  0
 23 21  1  0
  2 24  1  0
  3 25  1  0
  7 26  1  1
  8 27  1  0
  8 28  1  0
  9 29  1  1
 10 30  1  0
 11 31  1  0
 14 32  1  0
 16 33  1  6
 17 34  1  0
 17 35  1  0
 17 36  1  0
 18 37  1  0
 18 38  1  0
 19 39  1  0
 22 40  1  0
 22 41  1  0
M  ISO  8  24  14  25  14  26  13  27  13  28  13  29  13  30  14  31  14
M  ISO  7  32  14  33   8  34   8  35   8  36   8  37   8  38   8
M  END
>  <minimizedAffinity>  (1) 
-5.06694031

>  <minimizedRMSD>  (1) 
0.379877776

$$$$
