
     RDKit          3D

 32 35  0  0  0  0  0  0  0  0999 V2000
   46.6700   34.5990   42.0190 C   0  0  0  0  0  0  0  0  0  0  0  0
   48.0330   34.8380   41.9010 C   0  0  0  0  0  0  0  0  0  0  0  0
   48.7360   34.5810   40.7400 C   0  0  0  0  0  0  0  0  0  0  0  0
   48.0570   34.0750   39.6800 N   0  0  0  0  0  0  0  0  0  0  0  0
   46.7610   33.8500   39.8000 C   0  0  0  0  0  0  0  0  0  0  0  0
   46.0680   34.0970   40.9240 N   0  0  0  0  0  0  0  0  0  0  0  0
   46.0760   33.3200   38.6700 N   0  0  0  0  0  0  0  0  0  0  0  0
   44.7480   33.0100   38.6990 C   0  0  0  0  0  0  0  0  0  0  0  0
   44.3770   32.5250   37.4780 N   0  0  0  0  0  0  0  0  0  0  0  0
   45.4920   32.5480   36.7230 C   0  0  0  0  0  0  0  0  0  0  0  0
   45.7010   32.1680   35.3940 C   0  0  0  0  0  0  0  0  0  0  0  0
   44.7980   31.7100   34.6540 O   0  0  0  0  0  0  0  0  0  0  0  0
   46.9680   32.3300   34.9560 N   0  0  0  0  0  0  0  0  0  0  0  0
   48.0060   32.8080   35.6570 C   0  0  0  0  0  0  0  0  0  0  0  0
   49.2880   32.9210   35.0560 N   0  0  0  0  0  0  0  0  0  0  0  0
   47.8050   33.1770   36.9480 N   0  0  0  0  0  0  0  0  0  0  0  0
   46.5680   33.0380   37.4350 C   0  0  0  0  0  0  0  0  0  0  0  0
   44.4770   36.1340   44.6890 C   0  0  0  0  0  0  0  0  0  0  0  0
   45.1290   35.9790   43.4620 C   0  0  0  0  0  0  0  0  0  0  0  0
   45.9380   34.8740   43.2480 C   0  0  0  0  0  0  0  0  0  0  0  0
   46.0590   33.9770   44.2690 N   0  0  0  0  0  0  0  0  0  0  0  0
   45.4310   34.1330   45.4420 C   0  0  0  0  0  0  0  0  0  0  0  0
   44.6350   35.2140   45.6580 N   0  0  0  0  0  0  0  0  0  0  0  0
   48.5742   35.2482   42.7664 H   0  0  0  0  0  0  0  0  0  0  0  0
   49.8158   34.7810   40.6767 H   0  0  0  0  0  0  0  0  0  0  0  0
   44.0829   33.1313   39.5667 H   0  0  0  0  0  0  0  0  0  0  0  0
   47.1568   32.0577   33.9808 H   0  0  0  0  0  0  0  0  0  0  0  0
   50.0813   33.2891   35.6002 H   0  0  0  0  0  0  0  0  0  0  0  0
   49.4244   32.6349   34.0760 H   0  0  0  0  0  0  0  0  0  0  0  0
   43.8339   37.0094   44.8624 H   0  0  0  0  0  0  0  0  0  0  0  0
   45.0005   36.7310   42.6696 H   0  0  0  0  0  0  0  0  0  0  0  0
   45.5601   33.3820   46.2353 H   0  0  0  0  0  0  0  0  0  0  0  0
  1 20  1  0
  2  1  2  0
  3  2  1  0
  4  5  1  0
  4  3  2  0
  5  6  2  0
  6  1  1  0
  7  8  1  0
  7  5  1  0
  9  8  2  0
 10 17  2  0
 10  9  1  0
 11 10  1  0
 12 11  2  0
 13 11  1  0
 13 14  1  0
 14 16  2  0
 15 14  1  0
 16 17  1  0
 17  7  1  0
 18 23  2  0
 19 18  1  0
 20 19  2  0
 20 21  1  0
 21 22  2  0
 22 23  1  0
  2 24  1  0
  3 25  1  0
  8 26  1  0
 13 27  1  0
 15 28  1  0
 15 29  1  0
 18 30  1  0
 19 31  1  0
 22 32  1  0
M  ISO  7  24  14  25  14  26  14  27   9  30  14  31  14  32  14
M  END
>  <minimizedAffinity>  (1) 
-6.50423956

>  <minimizedRMSD>  (1) 
0.523979008

$$$$
