
     RDKit          3D

 29 31  0  0  0  0  0  0  0  0999 V2000
   46.7310   34.7720   41.9910 C   0  0  0  0  0  0  0  0  0  0  0  0
   48.0080   35.2350   41.8040 C   0  0  0  0  0  0  0  0  0  0  0  0
   48.7100   35.0980   40.6260 C   0  0  0  0  0  0  0  0  0  0  0  0
   48.1030   34.4690   39.6000 N   0  0  0  0  0  0  0  0  0  0  0  0
   46.8660   34.0140   39.7620 C   0  0  0  0  0  0  0  0  0  0  0  0
   46.1980   34.1540   40.9100 N   0  0  0  0  0  0  0  0  0  0  0  0
   46.0650   33.3210   38.7830 N   0  0  0  0  0  0  0  0  0  0  0  0
   44.8810   32.7390   39.0170 C   0  0  0  0  0  0  0  0  0  0  0  0
   44.2330   32.1110   37.9610 C   0  0  0  0  0  0  0  0  0  0  0  0
   44.8090   32.0960   36.7080 C   0  0  0  0  0  0  0  0  0  0  0  0
   44.0890   31.4330   35.6700 N   0  0  0  0  0  0  0  0  0  0  0  0
   46.0070   32.6990   36.5260 N   0  0  0  0  0  0  0  0  0  0  0  0
   46.6350   33.3080   37.5460 C   0  0  0  0  0  0  0  0  0  0  0  0
   47.7450   33.8420   37.2830 O   0  0  0  0  0  0  0  0  0  0  0  0
   44.4720   35.9800   44.7610 C   0  0  0  0  0  0  0  0  0  0  0  0
   45.1130   35.9570   43.5210 C   0  0  0  0  0  0  0  0  0  0  0  0
   45.9910   34.9230   43.2480 C   0  0  0  0  0  0  0  0  0  0  0  0
   46.1930   33.9730   44.1920 N   0  0  0  0  0  0  0  0  0  0  0  0
   45.5670   34.0100   45.3840 C   0  0  0  0  0  0  0  0  0  0  0  0
   44.7110   34.9990   45.6780 N   0  0  0  0  0  0  0  0  0  0  0  0
   48.5013   35.7460   42.6439 H   0  0  0  0  0  0  0  0  0  0  0  0
   49.7331   35.4895   40.5262 H   0  0  0  0  0  0  0  0  0  0  0  0
   44.4328   32.7581   40.0214 H   0  0  0  0  0  0  0  0  0  0  0  0
   43.2597   31.6253   38.1243 H   0  0  0  0  0  0  0  0  0  0  0  0
   44.4777   31.3948   34.7169 H   0  0  0  0  0  0  0  0  0  0  0  0
   43.1805   30.9926   35.8737 H   0  0  0  0  0  0  0  0  0  0  0  0
   43.7708   36.7932   44.9996 H   0  0  0  0  0  0  0  0  0  0  0  0
   44.9240   36.7444   42.7765 H   0  0  0  0  0  0  0  0  0  0  0  0
   45.7603   33.2199   46.1245 H   0  0  0  0  0  0  0  0  0  0  0  0
  1 17  1  0
  2  1  2  0
  3  2  1  0
  4  5  1  0
  4  3  2  0
  5  6  2  0
  6  1  1  0
  7  8  1  0
  7  5  1  0
  9  8  2  0
 10  9  1  0
 11 10  1  0
 12 10  2  0
 12 13  1  0
 13  7  1  0
 14 13  2  0
 15 20  2  0
 16 15  1  0
 17 16  2  0
 17 18  1  0
 18 19  2  0
 19 20  1  0
  2 21  1  0
  3 22  1  0
  8 23  1  0
  9 24  1  0
 11 25  1  0
 11 26  1  0
 15 27  1  0
 16 28  1  0
 19 29  1  0
M  ISO  7  21  14  22  14  23  14  24  14  27  14  28  14  29  14
M  END
>  <minimizedAffinity>  (1) 
-5.88848257

>  <minimizedRMSD>  (1) 
0.389831275

$$$$
