
     RDKit          3D

 34 37  0  0  0  0  0  0  0  0999 V2000
   46.8560   34.8510   42.0380 C   0  0  0  0  0  0  0  0  0  0  0  0
   48.0970   35.3790   41.8790 C   0  0  0  0  0  0  0  0  0  0  0  0
   48.8180   35.2600   40.7150 C   0  0  0  0  0  0  0  0  0  0  0  0
   48.2720   34.5920   39.6850 N   0  0  0  0  0  0  0  0  0  0  0  0
   47.0690   34.0660   39.8040 C   0  0  0  0  0  0  0  0  0  0  0  0
   46.4230   34.2140   40.9500 N   0  0  0  0  0  0  0  0  0  0  0  0
   46.2570   33.2970   38.8410 C   0  0  0  0  0  0  0  0  0  0  0  0
   44.9610   32.8430   39.0950 C   0  0  0  0  0  0  0  0  0  0  0  0
   44.2070   32.1300   38.2050 C   0  0  0  0  0  0  0  0  0  0  0  0
   44.7150   31.8190   36.9720 C   0  0  0  0  0  0  0  0  0  0  0  0
   45.9770   32.2350   36.6630 C   0  0  0  0  0  0  0  0  0  0  0  0
   46.4370   31.8950   35.4140 C   0  0  0  0  0  0  0  0  0  0  0  0
   47.7020   32.2730   35.0160 C   0  0  0  0  0  0  0  0  0  0  0  0
   48.4500   32.9930   35.9290 C   0  0  0  0  0  0  0  0  0  0  0  0
   47.9430   33.3070   37.1660 C   0  0  0  0  0  0  0  0  0  0  0  0
   46.6870   32.9420   37.5840 C   0  0  0  0  0  0  0  0  0  0  0  0
   44.4710   35.9340   44.7610 C   0  0  0  0  0  0  0  0  0  0  0  0
   45.1550   35.9620   43.5360 C   0  0  0  0  0  0  0  0  0  0  0  0
   46.0690   34.9630   43.2630 C   0  0  0  0  0  0  0  0  0  0  0  0
   46.2390   34.0200   44.2090 N   0  0  0  0  0  0  0  0  0  0  0  0
   45.5910   33.9850   45.3810 C   0  0  0  0  0  0  0  0  0  0  0  0
   44.7010   34.9500   45.6570 N   0  0  0  0  0  0  0  0  0  0  0  0
   48.5458   35.9271   42.7205 H   0  0  0  0  0  0  0  0  0  0  0  0
   49.8213   35.7025   40.6284 H   0  0  0  0  0  0  0  0  0  0  0  0
   44.5180   33.0741   40.0750 H   0  0  0  0  0  0  0  0  0  0  0  0
   43.1922   31.8061   38.4794 H   0  0  0  0  0  0  0  0  0  0  0  0
   44.1186   31.2463   36.2465 H   0  0  0  0  0  0  0  0  0  0  0  0
   45.7951   31.3202   34.7302 H   0  0  0  0  0  0  0  0  0  0  0  0
   48.0962   32.0147   34.0221 H   0  0  0  0  0  0  0  0  0  0  0  0
   49.4658   33.3190   35.6607 H   0  0  0  0  0  0  0  0  0  0  0  0
   48.5763   33.8811   37.8584 H   0  0  0  0  0  0  0  0  0  0  0  0
   43.7397   36.7220   44.9940 H   0  0  0  0  0  0  0  0  0  0  0  0
   44.9669   36.7641   42.8072 H   0  0  0  0  0  0  0  0  0  0  0  0
   45.7853   33.1792   46.1042 H   0  0  0  0  0  0  0  0  0  0  0  0
  1 19  1  0
  2  1  2  0
  3  2  1  0
  4  5  1  0
  4  3  2  0
  5  6  2  0
  6  1  1  0
  7  8  2  0
  7  5  1  0
  9  8  1  0
 10  9  2  0
 11 10  1  0
 11 16  2  0
 12 11  1  0
 13 12  2  0
 13 14  1  0
 14 15  2  0
 15 16  1  0
 16  7  1  0
 17 22  2  0
 18 17  1  0
 19 18  2  0
 19 20  1  0
 20 21  2  0
 21 22  1  0
  2 23  1  0
  3 24  1  0
  8 25  1  0
  9 26  1  0
 10 27  1  0
 12 28  1  0
 13 29  1  0
 14 30  1  0
 15 31  1  0
 17 32  1  0
 18 33  1  0
 21 34  1  0
M  ISO  8  23  14  24  14  25  14  26  14  27  14  28  14  29  14  30  14
M  ISO  4  31  14  32  14  33  14  34  14
M  END
>  <minimizedAffinity>  (1) 
-5.85530329

>  <minimizedRMSD>  (1) 
0.57989043

$$$$
