
     RDKit          3D

 32 35  0  0  0  0  0  0  0  0999 V2000
   46.8550   34.8590   42.0210 C   0  0  0  0  0  0  0  0  0  0  0  0
   48.0940   35.4010   41.8660 C   0  0  0  0  0  0  0  0  0  0  0  0
   48.8300   35.2800   40.7070 C   0  0  0  0  0  0  0  0  0  0  0  0
   48.2910   34.5950   39.6840 N   0  0  0  0  0  0  0  0  0  0  0  0
   47.0920   34.0560   39.7970 C   0  0  0  0  0  0  0  0  0  0  0  0
   46.4340   34.2050   40.9360 N   0  0  0  0  0  0  0  0  0  0  0  0
   46.2730   33.2660   38.8470 C   0  0  0  0  0  0  0  0  0  0  0  0
   45.0350   32.7990   39.0910 N   0  0  0  0  0  0  0  0  0  0  0  0
   44.3280   32.0910   38.2110 C   0  0  0  0  0  0  0  0  0  0  0  0
   44.7810   31.7730   36.9940 N   0  0  0  0  0  0  0  0  0  0  0  0
   46.0020   32.1980   36.6750 C   0  0  0  0  0  0  0  0  0  0  0  0
   46.4680   31.8680   35.4180 C   0  0  0  0  0  0  0  0  0  0  0  0
   47.7100   32.2670   35.0160 C   0  0  0  0  0  0  0  0  0  0  0  0
   48.4660   33.0040   35.9090 C   0  0  0  0  0  0  0  0  0  0  0  0
   47.9610   33.3100   37.1500 C   0  0  0  0  0  0  0  0  0  0  0  0
   46.7200   32.9280   37.5920 C   0  0  0  0  0  0  0  0  0  0  0  0
   44.4710   35.9280   44.7590 C   0  0  0  0  0  0  0  0  0  0  0  0
   45.1490   35.9630   43.5300 C   0  0  0  0  0  0  0  0  0  0  0  0
   46.0650   34.9730   43.2410 C   0  0  0  0  0  0  0  0  0  0  0  0
   46.2550   34.0070   44.1890 N   0  0  0  0  0  0  0  0  0  0  0  0
   45.6040   33.9820   45.3580 C   0  0  0  0  0  0  0  0  0  0  0  0
   44.7130   34.9430   45.6410 N   0  0  0  0  0  0  0  0  0  0  0  0
   48.5287   35.9625   42.7061 H   0  0  0  0  0  0  0  0  0  0  0  0
   49.8296   35.7310   40.6218 H   0  0  0  0  0  0  0  0  0  0  0  0
   43.3224   31.7515   38.5000 H   0  0  0  0  0  0  0  0  0  0  0  0
   45.8350   31.2804   34.7368 H   0  0  0  0  0  0  0  0  0  0  0  0
   48.0955   32.0115   34.0179 H   0  0  0  0  0  0  0  0  0  0  0  0
   49.4725   33.3457   35.6258 H   0  0  0  0  0  0  0  0  0  0  0  0
   48.5921   33.8986   37.8321 H   0  0  0  0  0  0  0  0  0  0  0  0
   43.7376   36.7111   45.0014 H   0  0  0  0  0  0  0  0  0  0  0  0
   44.9524   36.7688   42.8075 H   0  0  0  0  0  0  0  0  0  0  0  0
   45.7988   33.1776   46.0825 H   0  0  0  0  0  0  0  0  0  0  0  0
  1 19  1  0
  2  1  2  0
  3  2  1  0
  4  5  1  0
  4  3  2  0
  5  6  2  0
  6  1  1  0
  7  8  2  0
  7  5  1  0
  9  8  1  0
 10  9  2  0
 11 10  1  0
 11 16  2  0
 12 11  1  0
 13 12  2  0
 13 14  1  0
 14 15  2  0
 15 16  1  0
 16  7  1  0
 17 22  2  0
 18 17  1  0
 19 18  2  0
 19 20  1  0
 20 21  2  0
 21 22  1  0
  2 23  1  0
  3 24  1  0
  9 25  1  0
 12 26  1  0
 13 27  1  0
 14 28  1  0
 15 29  1  0
 17 30  1  0
 18 31  1  0
 21 32  1  0
M  ISO  8  23  14  24  14  25  14  26  14  27  14  28  14  29  14  30  14
M  ISO  2  31  14  32  14
M  END
>  <minimizedAffinity>  (1) 
-5.81674147

>  <minimizedRMSD>  (1) 
0.371568054

$$$$
