
     RDKit          3D

 25 26  0  0  0  0  0  0  0  0999 V2000
   46.7610   34.8110   41.9820 C   0  0  0  0  0  0  0  0  0  0  0  0
   48.0180   35.3190   41.7880 C   0  0  0  0  0  0  0  0  0  0  0  0
   48.7610   35.2030   40.6410 C   0  0  0  0  0  0  0  0  0  0  0  0
   48.1940   34.5280   39.6190 N   0  0  0  0  0  0  0  0  0  0  0  0
   46.9670   34.0170   39.7720 C   0  0  0  0  0  0  0  0  0  0  0  0
   46.2810   34.1550   40.9070 N   0  0  0  0  0  0  0  0  0  0  0  0
   46.3670   33.2990   38.6820 N   0  0  0  0  0  0  0  0  0  0  0  0
   46.9010   33.3870   37.3540 C   0  0  0  0  0  0  0  0  0  0  0  0
   47.4420   34.5340   37.0280 N   0  0  0  0  0  0  0  0  0  0  0  0
   46.8100   32.2370   36.4870 N   0  0  0  0  0  0  0  0  0  0  0  0
   47.8320   34.5980   36.0610 H   0  0  0  0  0  0  0  0  0  0  0  0
   44.4670   36.0230   44.7240 C   0  0  0  0  0  0  0  0  0  0  0  0
   45.1270   35.9980   43.4920 C   0  0  0  0  0  0  0  0  0  0  0  0
   46.0130   34.9600   43.2140 C   0  0  0  0  0  0  0  0  0  0  0  0
   46.1940   34.0090   44.1670 N   0  0  0  0  0  0  0  0  0  0  0  0
   45.5540   34.0420   45.3530 C   0  0  0  0  0  0  0  0  0  0  0  0
   44.6910   35.0470   45.6320 N   0  0  0  0  0  0  0  0  0  0  0  0
   48.4717   35.8685   42.6260 H   0  0  0  0  0  0  0  0  0  0  0  0
   49.7679   35.6380   40.5582 H   0  0  0  0  0  0  0  0  0  0  0  0
   45.5395   32.7112   38.8572 H   0  0  0  0  0  0  0  0  0  0  0  0
   47.1882   32.2823   35.5300 H   0  0  0  0  0  0  0  0  0  0  0  0
   46.3668   31.3709   36.8252 H   0  0  0  0  0  0  0  0  0  0  0  0
   43.7648   36.8376   44.9548 H   0  0  0  0  0  0  0  0  0  0  0  0
   44.9484   36.7900   42.7498 H   0  0  0  0  0  0  0  0  0  0  0  0
   45.7334   33.2506   46.0956 H   0  0  0  0  0  0  0  0  0  0  0  0
  1 14  1  0
  2  1  2  0
  3  2  1  0
  4  5  1  0
  4  3  2  0
  5  6  2  0
  6  1  1  0
  7  5  1  0
  8  7  1  0
  9  8  2  0
 10  8  1  0
 11  9  1  0
 12 17  2  0
 13 12  1  0
 14 13  2  0
 14 15  1  0
 15 16  2  0
 16 17  1  0
  2 18  1  0
  3 19  1  0
  7 20  1  0
 10 21  1  0
 10 22  1  0
 12 23  1  0
 13 24  1  0
 16 25  1  0
M  ISO  5  18  14  19  14  23  14  24  14  25  14
M  END
>  <minimizedAffinity>  (1) 
-5.7664547

>  <minimizedRMSD>  (1) 
0.216323018

$$$$
