
     RDKit          3D

 30 32  0  0  0  0  0  0  0  0999 V2000
   46.7570   34.7740   42.0560 C   0  0  0  0  0  0  0  0  0  0  0  0
   47.9850   35.3540   41.8380 C   0  0  0  0  0  0  0  0  0  0  0  0
   48.7100   35.2510   40.6780 C   0  0  0  0  0  0  0  0  0  0  0  0
   48.1610   34.5160   39.6780 N   0  0  0  0  0  0  0  0  0  0  0  0
   46.9830   33.9510   39.8670 C   0  0  0  0  0  0  0  0  0  0  0  0
   46.2920   34.0660   41.0100 N   0  0  0  0  0  0  0  0  0  0  0  0
   46.4330   33.1830   38.7920 N   0  0  0  0  0  0  0  0  0  0  0  0
   45.3230   32.2540   38.9280 C   0  0  0  0  0  0  0  0  0  0  0  0
   44.4610   32.6510   37.7380 C   0  0  0  0  0  0  0  0  0  0  0  0
   45.4400   33.2260   36.7210 C   0  0  0  0  0  0  0  0  0  0  0  0
   46.8150   33.1400   37.3920 C   0  0  0  0  0  0  0  0  0  0  0  0
   44.4660   35.9470   44.8280 C   0  0  0  0  0  0  0  0  0  0  0  0
   45.1140   35.9450   43.5780 C   0  0  0  0  0  0  0  0  0  0  0  0
   46.0150   34.9060   43.3040 C   0  0  0  0  0  0  0  0  0  0  0  0
   46.2100   33.9680   44.2510 N   0  0  0  0  0  0  0  0  0  0  0  0
   45.5890   33.9790   45.4370 C   0  0  0  0  0  0  0  0  0  0  0  0
   44.7110   34.9740   45.7280 N   0  0  0  0  0  0  0  0  0  0  0  0
   48.4192   35.9461   42.6570 H   0  0  0  0  0  0  0  0  0  0  0  0
   49.6886   35.7403   40.5640 H   0  0  0  0  0  0  0  0  0  0  0  0
   45.6594   31.2095   38.8520 H   0  0  0  0  0  0  0  0  0  0  0  0
   44.8065   32.3051   39.8979 H   0  0  0  0  0  0  0  0  0  0  0  0
   43.9440   31.7727   37.3242 H   0  0  0  0  0  0  0  0  0  0  0  0
   43.6789   33.3732   38.0150 H   0  0  0  0  0  0  0  0  0  0  0  0
   45.1877   34.2718   36.4916 H   0  0  0  0  0  0  0  0  0  0  0  0
   45.4128   32.6764   35.7686 H   0  0  0  0  0  0  0  0  0  0  0  0
   47.3307   32.2014   37.1410 H   0  0  0  0  0  0  0  0  0  0  0  0
   47.5224   33.9252   37.0869 H   0  0  0  0  0  0  0  0  0  0  0  0
   43.7540   36.7492   45.0721 H   0  0  0  0  0  0  0  0  0  0  0  0
   44.9192   36.7353   42.8381 H   0  0  0  0  0  0  0  0  0  0  0  0
   45.7888   33.1859   46.1726 H   0  0  0  0  0  0  0  0  0  0  0  0
  1 14  1  0
  2  1  2  0
  3  2  1  0
  4  5  1  0
  4  3  2  0
  5  6  2  0
  6  1  1  0
  7  8  1  0
  7  5  1  0
  9  8  1  0
 10 11  1  0
 10  9  1  0
 11  7  1  0
 12 17  2  0
 13 12  1  0
 14 13  2  0
 14 15  1  0
 15 16  2  0
 16 17  1  0
  2 18  1  0
  3 19  1  0
  8 20  1  0
  8 21  1  0
  9 22  1  0
  9 23  1  0
 10 24  1  0
 10 25  1  0
 11 26  1  0
 11 27  1  0
 12 28  1  0
 13 29  1  0
 16 30  1  0
M  ISO  8  18  14  19  14  20  13  21  13  22  13  23  13  24  13  25  13
M  ISO  5  26  13  27  13  28  14  29  14  30  14
M  END
>  <minimizedAffinity>  (1) 
-5.3478694

>  <minimizedRMSD>  (1) 
0.11689271

$$$$
