
     RDKit          3D

 27 29  0  0  0  0  0  0  0  0999 V2000
   46.7460   34.7550   41.9990 C   0  0  0  0  0  0  0  0  0  0  0  0
   47.9820   35.3040   41.7890 C   0  0  0  0  0  0  0  0  0  0  0  0
   48.6770   35.1640   40.6040 C   0  0  0  0  0  0  0  0  0  0  0  0
   48.1090   34.4540   39.6070 N   0  0  0  0  0  0  0  0  0  0  0  0
   46.9100   33.9180   39.8030 C   0  0  0  0  0  0  0  0  0  0  0  0
   46.2250   34.0470   40.9540 N   0  0  0  0  0  0  0  0  0  0  0  0
   44.4770   35.9750   44.7700 C   0  0  0  0  0  0  0  0  0  0  0  0
   45.1240   35.9500   43.5250 C   0  0  0  0  0  0  0  0  0  0  0  0
   46.0120   34.9010   43.2500 C   0  0  0  0  0  0  0  0  0  0  0  0
   46.1960   33.9690   44.2020 N   0  0  0  0  0  0  0  0  0  0  0  0
   45.5770   33.9930   45.3980 C   0  0  0  0  0  0  0  0  0  0  0  0
   44.7200   34.9890   45.6840 N   0  0  0  0  0  0  0  0  0  0  0  0
   46.3590   33.1620   38.6840 C   0  0  0  0  0  0  0  0  0  0  0  0
   46.8260   33.3340   37.3990 C   0  0  0  0  0  0  0  0  0  0  0  0
   46.2880   32.6060   36.3500 C   0  0  0  0  0  0  0  0  0  0  0  0
   45.2690   31.6940   36.5890 C   0  0  0  0  0  0  0  0  0  0  0  0
   44.8160   31.5380   37.8860 C   0  0  0  0  0  0  0  0  0  0  0  0
   45.3850   32.2800   38.8600 N   0  0  0  0  0  0  0  0  0  0  0  0
   48.4433   35.8838   42.6021 H   0  0  0  0  0  0  0  0  0  0  0  0
   49.6697   35.6203   40.4759 H   0  0  0  0  0  0  0  0  0  0  0  0
   43.7751   36.7874   45.0097 H   0  0  0  0  0  0  0  0  0  0  0  0
   44.9380   36.7377   42.7800 H   0  0  0  0  0  0  0  0  0  0  0  0
   45.7715   33.2018   46.1371 H   0  0  0  0  0  0  0  0  0  0  0  0
   47.6330   34.0556   37.2043 H   0  0  0  0  0  0  0  0  0  0  0  0
   46.6682   32.7507   35.3280 H   0  0  0  0  0  0  0  0  0  0  0  0
   44.8323   31.1093   35.7660 H   0  0  0  0  0  0  0  0  0  0  0  0
   44.0107   30.8258   38.1189 H   0  0  0  0  0  0  0  0  0  0  0  0
  1  9  1  0
  2  1  2  0
  3  2  1  0
  4  5  1  0
  4  3  2  0
  5  6  2  0
  6  1  1  0
  7 12  2  0
  8  7  1  0
  9  8  2  0
  9 10  1  0
 10 11  2  0
 11 12  1  0
 13 18  1  0
 13  5  1  0
 14 13  2  0
 15 16  2  0
 15 14  1  0
 16 17  1  0
 17 18  2  0
  2 19  1  0
  3 20  1  0
  7 21  1  0
  8 22  1  0
 11 23  1  0
 14 24  1  0
 15 25  1  0
 16 26  1  0
 17 27  1  0
M  ISO  8  19  14  20  14  21  14  22  14  23  14  24  14  25  14  26  14
M  ISO  1  27  14
M  END
>  <minimizedAffinity>  (1) 
-5.08022785

>  <minimizedRMSD>  (1) 
0.552605331

$$$$
