
     RDKit          3D

 21 22  0  0  0  0  0  0  0  0999 V2000
   46.7100   34.7590   42.0770 C   0  0  0  0  0  0  0  0  0  0  0  0
   47.9560   35.3130   41.8790 C   0  0  0  0  0  0  0  0  0  0  0  0
   48.6570   35.1730   40.6990 C   0  0  0  0  0  0  0  0  0  0  0  0
   48.0960   34.4600   39.7010 N   0  0  0  0  0  0  0  0  0  0  0  0
   46.8910   33.9240   39.8930 C   0  0  0  0  0  0  0  0  0  0  0  0
   46.2160   34.0630   41.0350 N   0  0  0  0  0  0  0  0  0  0  0  0
   44.4530   35.9560   44.8690 C   0  0  0  0  0  0  0  0  0  0  0  0
   45.0900   35.9350   43.6230 C   0  0  0  0  0  0  0  0  0  0  0  0
   45.9740   34.9140   43.3260 C   0  0  0  0  0  0  0  0  0  0  0  0
   46.1690   33.9750   44.2880 N   0  0  0  0  0  0  0  0  0  0  0  0
   45.5640   33.9870   45.4820 C   0  0  0  0  0  0  0  0  0  0  0  0
   44.6950   34.9900   45.7770 N   0  0  0  0  0  0  0  0  0  0  0  0
   46.2570   33.1490   38.8330 C   0  0  0  0  0  0  0  0  0  0  0  0
   45.8350   31.9550   39.0100 O   0  0  0  0  0  0  0  0  0  0  0  0
   46.0460   33.6160   37.5430 O   0  0  0  0  0  0  0  0  0  0  0  0
   48.4111   35.8915   42.6965 H   0  0  0  0  0  0  0  0  0  0  0  0
   49.6491   35.6316   40.5752 H   0  0  0  0  0  0  0  0  0  0  0  0
   43.7496   36.7670   45.1090 H   0  0  0  0  0  0  0  0  0  0  0  0
   44.8888   36.7254   42.8849 H   0  0  0  0  0  0  0  0  0  0  0  0
   45.7678   33.1939   46.2165 H   0  0  0  0  0  0  0  0  0  0  0  0
   46.3341   34.5299   37.2941 H   0  0  0  0  0  0  0  0  0  0  0  0
  1  9  1  0
  2  1  2  0
  3  2  1  0
  4  5  1  0
  4  3  2  0
  5  6  2  0
  6  1  1  0
  7 12  2  0
  8  7  1  0
  9  8  2  0
  9 10  1  0
 10 11  2  0
 11 12  1  0
 13 14  2  0
 13  5  1  0
 15 13  1  0
  2 16  1  0
  3 17  1  0
  7 18  1  0
  8 19  1  0
 11 20  1  0
 15 21  1  0
M  ISO  6  16  14  17  14  18  14  19  14  20  14  21   3
M  END
>  <minimizedAffinity>  (1) 
-4.79299212

>  <minimizedRMSD>  (1) 
0.185425013

$$$$
