
     RDKit          3D

 24 25  0  0  0  0  0  0  0  0999 V2000
   46.7650   34.7680   42.0050 C   0  0  0  0  0  0  0  0  0  0  0  0
   47.9820   35.3560   41.7890 C   0  0  0  0  0  0  0  0  0  0  0  0
   48.7010   35.2270   40.6180 C   0  0  0  0  0  0  0  0  0  0  0  0
   48.1590   34.4710   39.6300 N   0  0  0  0  0  0  0  0  0  0  0  0
   46.9800   33.8970   39.8280 C   0  0  0  0  0  0  0  0  0  0  0  0
   46.2850   34.0250   40.9680 N   0  0  0  0  0  0  0  0  0  0  0  0
   44.4760   35.9590   44.7650 C   0  0  0  0  0  0  0  0  0  0  0  0
   45.1260   35.9360   43.5300 C   0  0  0  0  0  0  0  0  0  0  0  0
   46.0210   34.9150   43.2460 C   0  0  0  0  0  0  0  0  0  0  0  0
   46.2200   33.9740   44.2040 N   0  0  0  0  0  0  0  0  0  0  0  0
   45.5880   34.0030   45.3960 C   0  0  0  0  0  0  0  0  0  0  0  0
   44.7220   34.9850   45.6800 N   0  0  0  0  0  0  0  0  0  0  0  0
   46.3420   33.0570   38.7710 C   0  0  0  0  0  0  0  0  0  0  0  0
   47.0080   33.4670   37.4520 C   0  0  0  0  0  0  0  0  0  0  0  0
   48.4122   35.9672   42.5960 H   0  0  0  0  0  0  0  0  0  0  0  0
   49.6768   35.7185   40.4904 H   0  0  0  0  0  0  0  0  0  0  0  0
   43.7648   36.7653   44.9975 H   0  0  0  0  0  0  0  0  0  0  0  0
   44.9297   36.7226   42.7866 H   0  0  0  0  0  0  0  0  0  0  0  0
   45.7850   33.2159   46.1387 H   0  0  0  0  0  0  0  0  0  0  0  0
   46.5167   31.9898   38.9727 H   0  0  0  0  0  0  0  0  0  0  0  0
   45.2527   33.2067   38.7379 H   0  0  0  0  0  0  0  0  0  0  0  0
   47.9269   34.0327   37.6656 H   0  0  0  0  0  0  0  0  0  0  0  0
   47.2583   32.5664   36.8721 H   0  0  0  0  0  0  0  0  0  0  0  0
   46.3166   34.0960   36.8721 H   0  0  0  0  0  0  0  0  0  0  0  0
  1  9  1  0
  2  1  2  0
  3  2  1  0
  4  5  1  0
  4  3  2  0
  5  6  2  0
  6  1  1  0
  7 12  2  0
  8  7  1  0
  9  8  2  0
  9 10  1  0
 10 11  2  0
 11 12  1  0
 13  5  1  0
 14 13  1  0
  2 15  1  0
  3 16  1  0
  7 17  1  0
  8 18  1  0
 11 19  1  0
 13 20  1  0
 13 21  1  0
 14 22  1  0
 14 23  1  0
 14 24  1  0
M  ISO  8  15  14  16  14  17  14  18  14  19  14  20   8  21   8  22   8
M  ISO  2  23   8  24   8
M  END
>  <minimizedAffinity>  (1) 
-4.56949711

>  <minimizedRMSD>  (1) 
0.205299243

$$$$
