
     RDKit          3D

 19 20  0  0  0  0  0  0  0  0999 V2000
   46.7250   34.7410   42.0940 C   0  0  0  0  0  0  0  0  0  0  0  0
   47.9560   35.3400   41.8660 C   0  0  0  0  0  0  0  0  0  0  0  0
   48.6690   35.2260   40.7020 C   0  0  0  0  0  0  0  0  0  0  0  0
   48.1240   34.4700   39.7060 N   0  0  0  0  0  0  0  0  0  0  0  0
   46.9530   33.8930   39.9070 C   0  0  0  0  0  0  0  0  0  0  0  0
   46.2680   34.0160   41.0550 N   0  0  0  0  0  0  0  0  0  0  0  0
   44.4580   35.9510   44.8510 C   0  0  0  0  0  0  0  0  0  0  0  0
   45.1000   35.9220   43.6150 C   0  0  0  0  0  0  0  0  0  0  0  0
   45.9970   34.8820   43.3360 C   0  0  0  0  0  0  0  0  0  0  0  0
   46.1950   33.9520   44.2940 N   0  0  0  0  0  0  0  0  0  0  0  0
   45.5710   33.9860   45.4880 C   0  0  0  0  0  0  0  0  0  0  0  0
   44.7010   34.9880   45.7670 N   0  0  0  0  0  0  0  0  0  0  0  0
   46.2360   32.8970   38.5920 S   0  0  0  0  0  0  0  0  0  0  0  0
   48.3884   35.9474   42.6748 H   0  0  0  0  0  0  0  0  0  0  0  0
   49.6417   35.7239   40.5756 H   0  0  0  0  0  0  0  0  0  0  0  0
   43.7505   36.7610   45.0821 H   0  0  0  0  0  0  0  0  0  0  0  0
   44.9054   36.7053   42.8676 H   0  0  0  0  0  0  0  0  0  0  0  0
   45.7670   33.2025   46.2348 H   0  0  0  0  0  0  0  0  0  0  0  0
   45.5023   31.8778   39.1394 H   0  0  0  0  0  0  0  0  0  0  0  0
  1  9  1  0
  2  1  2  0
  3  2  1  0
  4  5  1  0
  4  3  2  0
  5  6  2  0
  6  1  1  0
  7 12  2  0
  8  7  1  0
  9  8  2  0
  9 10  1  0
 10 11  2  0
 11 12  1  0
 13  5  1  0
  2 14  1  0
  3 15  1  0
  7 16  1  0
  8 17  1  0
 11 18  1  0
 13 19  1  0
M  ISO  6  14  14  15  14  16  14  17  14  18  14  19  11
M  END
>  <minimizedAffinity>  (1) 
-4.54373312

>  <minimizedRMSD>  (1) 
0.0341815017

$$$$
