
     RDKit          3D

 19 20  0  0  0  0  0  0  0  0999 V2000
   46.7160   34.7330   42.0890 C   0  0  0  0  0  0  0  0  0  0  0  0
   47.9430   35.3300   41.8620 C   0  0  0  0  0  0  0  0  0  0  0  0
   48.6600   35.2170   40.6930 C   0  0  0  0  0  0  0  0  0  0  0  0
   48.1020   34.4580   39.7020 N   0  0  0  0  0  0  0  0  0  0  0  0
   46.9300   33.8860   39.9150 C   0  0  0  0  0  0  0  0  0  0  0  0
   46.2320   34.0000   41.0630 N   0  0  0  0  0  0  0  0  0  0  0  0
   44.4560   35.9600   44.8540 C   0  0  0  0  0  0  0  0  0  0  0  0
   45.0920   35.9360   43.6060 C   0  0  0  0  0  0  0  0  0  0  0  0
   45.9820   34.8830   43.3470 C   0  0  0  0  0  0  0  0  0  0  0  0
   46.1860   33.9520   44.2930 N   0  0  0  0  0  0  0  0  0  0  0  0
   45.5660   33.9880   45.4910 C   0  0  0  0  0  0  0  0  0  0  0  0
   44.6960   34.9940   45.7770 N   0  0  0  0  0  0  0  0  0  0  0  0
   46.4820   33.1450   38.8250 O   0  0  0  0  0  0  0  0  0  0  0  0
   48.3752   35.9366   42.6715 H   0  0  0  0  0  0  0  0  0  0  0  0
   49.6334   35.7125   40.5623 H   0  0  0  0  0  0  0  0  0  0  0  0
   43.7527   36.7725   45.0891 H   0  0  0  0  0  0  0  0  0  0  0  0
   44.9001   36.7162   42.8548 H   0  0  0  0  0  0  0  0  0  0  0  0
   45.7641   33.2038   46.2365 H   0  0  0  0  0  0  0  0  0  0  0  0
   45.6138   32.6716   38.8715 H   0  0  0  0  0  0  0  0  0  0  0  0
  1  9  1  0
  2  1  2  0
  3  2  1  0
  4  5  1  0
  4  3  2  0
  5  6  2  0
  6  1  1  0
  7 12  2  0
  8  7  1  0
  9  8  2  0
  9 10  1  0
 10 11  2  0
 11 12  1  0
 13  5  1  0
  2 14  1  0
  3 15  1  0
  7 16  1  0
  8 17  1  0
 11 18  1  0
 13 19  1  0
M  ISO  6  14  14  15  14  16  14  17  14  18  14  19   3
M  END
>  <minimizedAffinity>  (1) 
-4.53665161

>  <minimizedRMSD>  (1) 
0.0156086842

$$$$
