
     RDKit          3D

 48 51  0  0  1  0  0  0  0  0999 V2000
   45.1540   32.9820   43.2860 C   0  0  0  0  0  0  0  0  0  0  0  0
   45.5140   31.7260   43.7230 C   0  0  0  0  0  0  0  0  0  0  0  0
   44.7910   30.6310   43.3410 C   0  0  0  0  0  0  0  0  0  0  0  0
   43.7300   30.7110   42.5530 N   0  0  0  0  0  0  0  0  0  0  0  0
   43.3750   31.9200   42.1270 C   0  0  0  0  0  0  0  0  0  0  0  0
   44.0650   33.0160   42.4810 N   0  0  0  0  0  0  0  0  0  0  0  0
   47.0820   34.7300   42.9600 C   0  0  1  0  0  0  0  0  0  0  0  0
   45.7840   35.4430   42.7970 C   0  0  0  0  0  0  0  0  0  0  0  0
   45.8100   34.2760   43.6330 C   0  0  1  0  0  0  0  0  0  0  0  0
   47.8520   33.7360   39.4600 C   0  0  0  0  0  0  0  0  0  0  0  0
   47.2900   34.4360   40.5750 C   0  0  0  0  0  0  0  0  0  0  0  0
   47.6660   34.0050   41.8380 C   0  0  0  0  0  0  0  0  0  0  0  0
   48.5250   32.9690   41.9800 N   0  0  0  0  0  0  0  0  0  0  0  0
   49.0400   32.3260   40.9190 C   0  0  0  0  0  0  0  0  0  0  0  0
   48.7170   32.6950   39.6570 N   0  0  0  0  0  0  0  0  0  0  0  0
   42.1770   32.0730   41.2580 C   0  0  1  0  0  0  0  0  0  0  0  0
   40.9850   31.5380   41.9670 C   0  0  0  0  0  0  0  0  0  0  0  0
   41.9770   33.5120   40.8380 C   0  0  0  0  0  0  0  0  0  0  0  0
   42.5210   33.7730   39.5210 N   0  0  0  0  0  0  0  0  0  0  0  0
   42.3380   35.1980   39.2780 C   0  0  0  0  0  0  0  0  0  0  0  0
   41.4780   35.4950   38.0840 C   0  0  0  0  0  0  0  0  0  0  0  0
   40.1910   34.8480   38.1720 N   0  0  0  0  0  0  0  0  0  0  0  0
   40.3210   33.4480   38.4320 C   0  0  0  0  0  0  0  0  0  0  0  0
   41.7780   33.0850   38.4830 C   0  0  0  0  0  0  0  0  0  0  0  0
   46.3865   31.6041   44.3817 H   0  0  0  0  0  0  0  0  0  0  0  0
   45.1039   29.6408   43.7037 H   0  0  0  0  0  0  0  0  0  0  0  0
   48.0999   34.9776   43.2955 H   0  0  0  0  0  0  0  0  0  0  0  0
   45.6473   36.4352   43.2517 H   0  0  0  0  0  0  0  0  0  0  0  0
   45.1826   35.7491   41.9283 H   0  0  0  0  0  0  0  0  0  0  0  0
   45.4942   34.0741   44.6672 H   0  0  0  0  0  0  0  0  0  0  0  0
   47.5860   34.0378   38.4362 H   0  0  0  0  0  0  0  0  0  0  0  0
   46.5931   35.2757   40.4364 H   0  0  0  0  0  0  0  0  0  0  0  0
   49.7342   31.4876   41.0778 H   0  0  0  0  0  0  0  0  0  0  0  0
   42.3291   31.4963   40.3338 H   0  0  0  0  0  0  0  0  0  0  0  0
   41.1423   31.6086   43.0534 H   0  0  0  0  0  0  0  0  0  0  0  0
   40.0976   32.1242   41.6861 H   0  0  0  0  0  0  0  0  0  0  0  0
   40.8331   30.4854   41.6861 H   0  0  0  0  0  0  0  0  0  0  0  0
   40.8994   33.7324   40.8273 H   0  0  0  0  0  0  0  0  0  0  0  0
   42.5069   34.1531   41.5579 H   0  0  0  0  0  0  0  0  0  0  0  0
   41.8676   35.6453   40.1661 H   0  0  0  0  0  0  0  0  0  0  0  0
   43.3323   35.6224   39.0749 H   0  0  0  0  0  0  0  0  0  0  0  0
   41.9926   35.1410   37.1785 H   0  0  0  0  0  0  0  0  0  0  0  0
   41.3109   36.5816   38.0467 H   0  0  0  0  0  0  0  0  0  0  0  0
   39.6511   35.2807   38.9350 H   0  0  0  0  0  0  0  0  0  0  0  0
   39.8487   33.2080   39.3960 H   0  0  0  0  0  0  0  0  0  0  0  0
   39.8272   32.8774   37.6316 H   0  0  0  0  0  0  0  0  0  0  0  0
   41.8588   32.0023   38.6595 H   0  0  0  0  0  0  0  0  0  0  0  0
   42.2162   33.3912   37.5216 H   0  0  0  0  0  0  0  0  0  0  0  0
  1  9  1  0
  1  2  2  0
  3  2  1  0
  4  3  2  0
  5  6  2  0
  5  4  1  0
  6  1  1  0
  7  9  1  0
  8  7  1  0
  8  9  1  0
 10 15  2  0
 10 11  1  0
 11 12  2  0
 12 13  1  0
 12  7  1  0
 14 13  2  0
 15 14  1  0
 16 17  1  0
 16  5  1  0
 18 16  1  0
 19 18  1  0
 20 19  1  0
 21 22  1  0
 21 20  1  0
 22 23  1  0
 23 24  1  0
 24 19  1  0
  2 25  1  0
  3 26  1  0
  7 27  1  1
  8 28  1  0
  8 29  1  0
  9 30  1  1
 10 31  1  0
 11 32  1  0
 14 33  1  0
 16 34  1  6
 17 35  1  0
 17 36  1  0
 17 37  1  0
 18 38  1  0
 18 39  1  0
 20 40  1  0
 20 41  1  0
 21 42  1  0
 21 43  1  0
 22 44  1  0
 23 45  1  0
 23 46  1  0
 24 47  1  0
 24 48  1  0
M  ISO  8  25  14  26  14  27  13  28  13  29  13  30  13  31  14  32  14
M  ISO  8  33  14  34   8  35   8  36   8  37   8  38   8  39   8  40  13
M  ISO  8  41  13  42  13  43  13  44   5  45  13  46  13  47  13  48  13
M  END
>  <minimizedAffinity>  (1) 
-4.83239412

>  <minimizedRMSD>  (1) 
2.08385897

$$$$
