
     RDKit          3D

 39 43  0  0  0  0  0  0  0  0999 V2000
   45.5490   33.2850   38.9610 C   0  0  0  0  0  0  0  0  0  0  0  0
   46.0040   32.9870   37.6880 C   0  0  0  0  0  0  0  0  0  0  0  0
   44.9340   32.4160   36.9730 C   0  0  0  0  0  0  0  0  0  0  0  0
   43.8870   32.4040   37.8760 C   0  0  0  0  0  0  0  0  0  0  0  0
   44.3150   32.9180   38.9910 O   0  0  0  0  0  0  0  0  0  0  0  0
   42.5020   31.9780   37.8470 C   0  0  0  0  0  0  0  0  0  0  0  0
   42.1890   30.6630   37.6720 N   0  0  0  0  0  0  0  0  0  0  0  0
   40.9780   30.1410   37.7400 C   0  0  0  0  0  0  0  0  0  0  0  0
   39.8930   30.8890   37.9980 N   0  0  0  0  0  0  0  0  0  0  0  0
   40.0810   32.2190   38.1870 C   0  0  0  0  0  0  0  0  0  0  0  0
   39.0080   33.0460   38.4220 C   0  0  0  0  0  0  0  0  0  0  0  0
   39.1550   34.4150   38.5860 C   0  0  0  0  0  0  0  0  0  0  0  0
   40.4550   34.9270   38.4980 C   0  0  0  0  0  0  0  0  0  0  0  0
   41.4780   34.0420   38.2620 C   0  0  0  0  0  0  0  0  0  0  0  0
   41.3700   32.6820   38.0990 C   0  0  0  0  0  0  0  0  0  0  0  0
   46.4670   34.6310   42.1830 C   0  0  0  0  0  0  0  0  0  0  0  0
   47.7780   34.9730   41.9400 C   0  0  0  0  0  0  0  0  0  0  0  0
   48.4170   34.7860   40.7320 C   0  0  0  0  0  0  0  0  0  0  0  0
   47.7090   34.2310   39.7280 N   0  0  0  0  0  0  0  0  0  0  0  0
   46.4310   33.8920   39.9520 C   0  0  0  0  0  0  0  0  0  0  0  0
   45.7960   34.0740   41.1370 N   0  0  0  0  0  0  0  0  0  0  0  0
   44.4350   36.0180   45.0540 C   0  0  0  0  0  0  0  0  0  0  0  0
   44.9980   35.9520   43.7570 C   0  0  0  0  0  0  0  0  0  0  0  0
   45.8130   34.8420   43.4770 C   0  0  0  0  0  0  0  0  0  0  0  0
   46.0140   33.9250   44.4260 N   0  0  0  0  0  0  0  0  0  0  0  0
   45.4620   34.0160   45.6580 C   0  0  0  0  0  0  0  0  0  0  0  0
   44.6710   35.0650   45.9690 N   0  0  0  0  0  0  0  0  0  0  0  0
   47.0194   33.1645   37.3040 H   0  0  0  0  0  0  0  0  0  0  0  0
   44.9315   32.0602   35.9321 H   0  0  0  0  0  0  0  0  0  0  0  0
   40.8541   29.0597   37.5803 H   0  0  0  0  0  0  0  0  0  0  0  0
   38.0009   32.6076   38.4818 H   0  0  0  0  0  0  0  0  0  0  0  0
   38.2906   35.0682   38.7763 H   0  0  0  0  0  0  0  0  0  0  0  0
   40.6506   36.0032   38.6141 H   0  0  0  0  0  0  0  0  0  0  0  0
   42.4907   34.4666   38.1965 H   0  0  0  0  0  0  0  0  0  0  0  0
   48.3530   35.4244   42.7620 H   0  0  0  0  0  0  0  0  0  0  0  0
   49.4679   35.0796   40.5927 H   0  0  0  0  0  0  0  0  0  0  0  0
   43.7899   36.8691   45.3178 H   0  0  0  0  0  0  0  0  0  0  0  0
   44.8069   36.7316   43.0049 H   0  0  0  0  0  0  0  0  0  0  0  0
   45.6579   33.2345   46.4069 H   0  0  0  0  0  0  0  0  0  0  0  0
  1  5  1  0
  1 20  1  0
  2  1  2  0
  3  2  1  0
  3  4  2  0
  4  5  1  0
  6  4  1  0
  6 15  2  0
  7  8  2  0
  7  6  1  0
  8  9  1  0
  9 10  2  0
 10 11  1  0
 11 12  2  0
 13 12  1  0
 14 13  2  0
 15 10  1  0
 15 14  1  0
 16 24  1  0
 17 16  2  0
 18 17  1  0
 19 20  1  0
 19 18  2  0
 20 21  2  0
 21 16  1  0
 22 27  2  0
 23 22  1  0
 24 23  2  0
 24 25  1  0
 25 26  2  0
 26 27  1  0
  2 28  1  0
  3 29  1  0
  8 30  1  0
 11 31  1  0
 12 32  1  0
 13 33  1  0
 14 34  1  0
 17 35  1  0
 18 36  1  0
 22 37  1  0
 23 38  1  0
 26 39  1  0
M  ISO  8  28  14  29  14  30  14  31  14  32  14  33  14  34  14  35  14
M  ISO  4  36  14  37  14  38  14  39  14
M  END
>  <minimizedAffinity>  (1) 
-6.6525197

>  <minimizedRMSD>  (1) 
2.30603313

$$$$
