
     RDKit          3D

 39 43  0  0  0  0  0  0  0  0999 V2000
   46.5790   33.1240   38.8580 C   0  0  0  0  0  0  0  0  0  0  0  0
   47.3690   32.4150   37.9590 C   0  0  0  0  0  0  0  0  0  0  0  0
   46.5240   31.6680   37.1260 C   0  0  0  0  0  0  0  0  0  0  0  0
   45.2560   31.9940   37.5970 C   0  0  0  0  0  0  0  0  0  0  0  0
   45.3300   32.8390   38.6010 O   0  0  0  0  0  0  0  0  0  0  0  0
   44.0960   31.4250   36.9970 N   0  0  0  0  0  0  0  0  0  0  0  0
   42.8610   31.4470   37.5590 C   0  0  0  0  0  0  0  0  0  0  0  0
   41.9580   30.8280   36.7520 N   0  0  0  0  0  0  0  0  0  0  0  0
   42.6170   30.4020   35.6550 C   0  0  0  0  0  0  0  0  0  0  0  0
   42.2100   29.7210   34.5190 C   0  0  0  0  0  0  0  0  0  0  0  0
   41.0140   29.3680   34.3470 O   0  0  0  0  0  0  0  0  0  0  0  0
   43.1650   29.4480   33.5940 N   0  0  0  0  0  0  0  0  0  0  0  0
   44.4620   29.8130   33.7480 C   0  0  0  0  0  0  0  0  0  0  0  0
   45.3510   29.4580   32.6920 N   0  0  0  0  0  0  0  0  0  0  0  0
   44.8400   30.4820   34.8740 N   0  0  0  0  0  0  0  0  0  0  0  0
   43.9320   30.7820   35.8300 C   0  0  0  0  0  0  0  0  0  0  0  0
   46.8890   34.8430   42.0300 C   0  0  0  0  0  0  0  0  0  0  0  0
   48.0670   35.4960   41.8400 C   0  0  0  0  0  0  0  0  0  0  0  0
   48.8190   35.4200   40.6950 C   0  0  0  0  0  0  0  0  0  0  0  0
   48.3600   34.6500   39.6920 N   0  0  0  0  0  0  0  0  0  0  0  0
   47.2000   33.9940   39.8520 C   0  0  0  0  0  0  0  0  0  0  0  0
   46.4720   34.0760   40.9820 N   0  0  0  0  0  0  0  0  0  0  0  0
   44.4850   35.9260   44.7470 C   0  0  0  0  0  0  0  0  0  0  0  0
   45.1810   35.9400   43.5290 C   0  0  0  0  0  0  0  0  0  0  0  0
   46.1050   34.9370   43.2570 C   0  0  0  0  0  0  0  0  0  0  0  0
   46.3010   33.9750   44.1930 N   0  0  0  0  0  0  0  0  0  0  0  0
   45.6110   33.9890   45.3600 C   0  0  0  0  0  0  0  0  0  0  0  0
   44.7120   34.9510   45.6420 N   0  0  0  0  0  0  0  0  0  0  0  0
   48.4677   32.4367   37.9100 H   0  0  0  0  0  0  0  0  0  0  0  0
   46.7964   30.9910   36.3029 H   0  0  0  0  0  0  0  0  0  0  0  0
   42.6233   31.9021   38.5318 H   0  0  0  0  0  0  0  0  0  0  0  0
   42.8932   28.9422   32.7389 H   0  0  0  0  0  0  0  0  0  0  0  0
   46.3483   29.7084   32.7523 H   0  0  0  0  0  0  0  0  0  0  0  0
   44.9962   28.9511   31.8686 H   0  0  0  0  0  0  0  0  0  0  0  0
   48.4418   36.1272   42.6592 H   0  0  0  0  0  0  0  0  0  0  0  0
   49.7664   35.9708   40.6002 H   0  0  0  0  0  0  0  0  0  0  0  0
   43.7518   36.7153   44.9693 H   0  0  0  0  0  0  0  0  0  0  0  0
   44.9972   36.7382   42.7948 H   0  0  0  0  0  0  0  0  0  0  0  0
   45.7906   33.1923   46.0969 H   0  0  0  0  0  0  0  0  0  0  0  0
  1 21  1  0
  2  1  2  0
  3  4  2  0
  3  2  1  0
  4  5  1  0
  5  1  1  0
  6  7  1  0
  6  4  1  0
  8  7  2  0
  9 16  2  0
  9  8  1  0
 10  9  1  0
 11 10  2  0
 12 13  1  0
 12 10  1  0
 13 15  2  0
 14 13  1  0
 15 16  1  0
 16  6  1  0
 17 25  1  0
 18 17  2  0
 19 18  1  0
 20 21  1  0
 20 19  2  0
 21 22  2  0
 22 17  1  0
 23 28  2  0
 24 23  1  0
 25 24  2  0
 25 26  1  0
 26 27  2  0
 27 28  1  0
  2 29  1  0
  3 30  1  0
  7 31  1  0
 12 32  1  0
 14 33  1  0
 14 34  1  0
 18 35  1  0
 19 36  1  0
 23 37  1  0
 24 38  1  0
 27 39  1  0
M  ISO  8  29  14  30  14  31  14  32   9  35  14  36  14  37  14  38  14
M  ISO  1  39  14
M  END
>  <minimizedAffinity>  (1) 
-6.36050367

>  <minimizedRMSD>  (1) 
1.25710845

$$$$
