
     RDKit          3D

 36 40  0  0  0  0  0  0  0  0999 V2000
   47.4890   33.8880   42.5970 C   0  0  0  0  0  0  0  0  0  0  0  0
   48.6160   33.3320   43.1150 C   0  0  0  0  0  0  0  0  0  0  0  0
   49.6160   32.7630   42.3660 C   0  0  0  0  0  0  0  0  0  0  0  0
   49.4710   32.7530   41.0240 N   0  0  0  0  0  0  0  0  0  0  0  0
   48.3820   33.2890   40.4970 C   0  0  0  0  0  0  0  0  0  0  0  0
   47.3920   33.8520   41.2410 N   0  0  0  0  0  0  0  0  0  0  0  0
   44.7060   36.0930   43.9050 C   0  0  0  0  0  0  0  0  0  0  0  0
   45.6890   35.6140   43.0210 C   0  0  0  0  0  0  0  0  0  0  0  0
   46.4410   34.4870   43.4140 C   0  0  0  0  0  0  0  0  0  0  0  0
   46.1780   33.9380   44.6040 N   0  0  0  0  0  0  0  0  0  0  0  0
   45.2240   34.4250   45.4320 C   0  0  0  0  0  0  0  0  0  0  0  0
   44.4970   35.4870   45.0890 N   0  0  0  0  0  0  0  0  0  0  0  0
   48.0650   33.3640   39.0660 C   0  0  0  0  0  0  0  0  0  0  0  0
   48.3950   34.5280   38.3420 C   0  0  0  0  0  0  0  0  0  0  0  0
   47.9830   34.3300   37.0150 C   0  0  0  0  0  0  0  0  0  0  0  0
   47.4290   33.0430   37.0420 C   0  0  0  0  0  0  0  0  0  0  0  0
   47.5020   32.5390   38.2340 O   0  0  0  0  0  0  0  0  0  0  0  0
   46.8880   32.4670   35.8580 N   0  0  0  0  0  0  0  0  0  0  0  0
   45.6270   32.3300   35.4080 C   0  0  0  0  0  0  0  0  0  0  0  0
   45.6250   31.7100   34.2170 N   0  0  0  0  0  0  0  0  0  0  0  0
   46.8730   31.4260   33.8540 C   0  0  0  0  0  0  0  0  0  0  0  0
   47.5110   30.8210   32.7850 C   0  0  0  0  0  0  0  0  0  0  0  0
   48.8540   30.6750   32.7010 N   0  0  0  0  0  0  0  0  0  0  0  0
   49.6030   31.1550   33.7340 C   0  0  0  0  0  0  0  0  0  0  0  0
   49.0220   31.7520   34.7950 N   0  0  0  0  0  0  0  0  0  0  0  0
   47.6690   31.9030   34.8890 C   0  0  0  0  0  0  0  0  0  0  0  0
   48.7349   33.3384   44.2085 H   0  0  0  0  0  0  0  0  0  0  0  0
   50.5067   32.3292   42.8441 H   0  0  0  0  0  0  0  0  0  0  0  0
   44.1029   36.9699   43.6270 H   0  0  0  0  0  0  0  0  0  0  0  0
   45.8663   36.1034   42.0520 H   0  0  0  0  0  0  0  0  0  0  0  0
   45.0468   33.9368   46.4016 H   0  0  0  0  0  0  0  0  0  0  0  0
   48.8856   35.4269   38.7437 H   0  0  0  0  0  0  0  0  0  0  0  0
   48.0730   35.0178   36.1613 H   0  0  0  0  0  0  0  0  0  0  0  0
   44.7280   32.6759   35.9391 H   0  0  0  0  0  0  0  0  0  0  0  0
   46.8933   30.4382   31.9592 H   0  0  0  0  0  0  0  0  0  0  0  0
   50.6979   31.0539   33.7018 H   0  0  0  0  0  0  0  0  0  0  0  0
  1  2  2  0
  1  9  1  0
  3  2  1  0
  4  3  2  0
  5  4  1  0
  5  6  2  0
  6  1  1  0
  7 12  2  0
  8  9  2  0
  8  7  1  0
  9 10  1  0
 10 11  2  0
 12 11  1  0
 13  5  1  0
 14 13  2  0
 15 16  2  0
 15 14  1  0
 16 17  1  0
 17 13  1  0
 18 16  1  0
 19 18  1  0
 20 19  2  0
 21 20  1  0
 21 26  2  0
 22 21  1  0
 23 22  2  0
 23 24  1  0
 24 25  2  0
 25 26  1  0
 26 18  1  0
  2 27  1  0
  3 28  1  0
  7 29  1  0
  8 30  1  0
 11 31  1  0
 14 32  1  0
 15 33  1  0
 19 34  1  0
 22 35  1  0
 24 36  1  0
M  ISO  8  27  14  28  14  29  14  30  14  31  14  32  14  33  14  34  14
M  ISO  2  35  14  36  14
M  END
>  <minimizedAffinity>  (1) 
-6.10029364

>  <minimizedRMSD>  (1) 
3.6226759

$$$$
