
     RDKit          3D

 38 41  0  0  0  0  0  0  0  0999 V2000
   46.3850   34.5510   42.0090 C   0  0  0  0  0  0  0  0  0  0  0  0
   47.6840   34.8870   41.7060 C   0  0  0  0  0  0  0  0  0  0  0  0
   48.2800   34.6650   40.4790 C   0  0  0  0  0  0  0  0  0  0  0  0
   47.5330   34.0830   39.5240 N   0  0  0  0  0  0  0  0  0  0  0  0
   46.2830   33.7520   39.7960 C   0  0  0  0  0  0  0  0  0  0  0  0
   45.6920   33.9670   40.9990 N   0  0  0  0  0  0  0  0  0  0  0  0
   44.4730   36.0770   44.8970 C   0  0  0  0  0  0  0  0  0  0  0  0
   45.0080   35.9410   43.6050 C   0  0  0  0  0  0  0  0  0  0  0  0
   45.7810   34.7960   43.3110 C   0  0  0  0  0  0  0  0  0  0  0  0
   45.9750   33.8840   44.2700 N   0  0  0  0  0  0  0  0  0  0  0  0
   45.4470   34.0380   45.5080 C   0  0  0  0  0  0  0  0  0  0  0  0
   44.7080   35.1110   45.8270 N   0  0  0  0  0  0  0  0  0  0  0  0
   45.3460   33.1130   38.8600 C   0  0  0  0  0  0  0  0  0  0  0  0
   45.7890   32.7430   37.5770 C   0  0  0  0  0  0  0  0  0  0  0  0
   44.6920   32.1600   36.9070 C   0  0  0  0  0  0  0  0  0  0  0  0
   43.6600   32.2300   37.8630 C   0  0  0  0  0  0  0  0  0  0  0  0
   44.0970   32.7820   38.9500 O   0  0  0  0  0  0  0  0  0  0  0  0
   42.3170   31.7810   37.7190 N   0  0  0  0  0  0  0  0  0  0  0  0
   41.2880   32.6090   38.0370 C   0  0  0  0  0  0  0  0  0  0  0  0
   39.9530   32.2570   37.9270 C   0  0  0  0  0  0  0  0  0  0  0  0
   38.9140   33.2430   38.3040 C   0  0  0  0  0  0  0  0  0  0  0  0
   39.6830   30.9850   37.4660 C   0  0  0  0  0  0  0  0  0  0  0  0
   38.4530   30.6910   37.3770 O   0  0  0  0  0  0  0  0  0  0  0  0
   40.7070   30.1460   37.1450 N   0  0  0  0  0  0  0  0  0  0  0  0
   41.9820   30.5550   37.2750 C   0  0  0  0  0  0  0  0  0  0  0  0
   42.8980   29.7490   36.9670 O   0  0  0  0  0  0  0  0  0  0  0  0
   48.2881   35.3637   42.4920 H   0  0  0  0  0  0  0  0  0  0  0  0
   49.3248   34.9531   40.2908 H   0  0  0  0  0  0  0  0  0  0  0  0
   43.8680   36.9586   45.1555 H   0  0  0  0  0  0  0  0  0  0  0  0
   44.8287   36.7097   42.8389 H   0  0  0  0  0  0  0  0  0  0  0  0
   45.6285   33.2651   46.2694 H   0  0  0  0  0  0  0  0  0  0  0  0
   46.8020   32.8822   37.1714 H   0  0  0  0  0  0  0  0  0  0  0  0
   44.6526   31.7507   35.8868 H   0  0  0  0  0  0  0  0  0  0  0  0
   41.5292   33.6178   38.4032 H   0  0  0  0  0  0  0  0  0  0  0  0
   38.8483   33.3054   39.4003 H   0  0  0  0  0  0  0  0  0  0  0  0
   39.1793   34.2294   37.8959 H   0  0  0  0  0  0  0  0  0  0  0  0
   37.9428   32.9265   37.8959 H   0  0  0  0  0  0  0  0  0  0  0  0
   40.5046   29.1961   36.8019 H   0  0  0  0  0  0  0  0  0  0  0  0
  1  9  1  0
  2  1  2  0
  3  2  1  0
  4  5  1  0
  4  3  2  0
  5  6  2  0
  6  1  1  0
  7 12  2  0
  8  7  1  0
  9  8  2  0
  9 10  1  0
 10 11  2  0
 11 12  1  0
 13 17  1  0
 13  5  1  0
 14 13  2  0
 15 14  1  0
 15 16  2  0
 16 17  1  0
 18 16  1  0
 18 19  1  0
 20 19  2  0
 20 21  1  0
 22 20  1  0
 23 22  2  0
 24 25  1  0
 24 22  1  0
 25 18  1  0
 26 25  2  0
  2 27  1  0
  3 28  1  0
  7 29  1  0
  8 30  1  0
 11 31  1  0
 14 32  1  0
 15 33  1  0
 19 34  1  0
 21 35  1  0
 21 36  1  0
 21 37  1  0
 24 38  1  0
M  ISO  8  27  14  28  14  29  14  30  14  31  14  32  14  33  14  34  14
M  ISO  4  35   8  36   8  37   8  38   9
M  END
>  <minimizedAffinity>  (1) 
-5.80487633

>  <minimizedRMSD>  (1) 
2.04869151

$$$$
