
     RDKit          3D

 35 38  0  0  0  0  0  0  0  0999 V2000
   46.6790   34.7330   42.0360 C   0  0  0  0  0  0  0  0  0  0  0  0
   47.9540   35.2030   41.8410 C   0  0  0  0  0  0  0  0  0  0  0  0
   48.6490   35.0590   40.6630 C   0  0  0  0  0  0  0  0  0  0  0  0
   48.0370   34.4210   39.6470 N   0  0  0  0  0  0  0  0  0  0  0  0
   46.7910   33.9590   39.8290 C   0  0  0  0  0  0  0  0  0  0  0  0
   46.1000   34.0960   40.9840 N   0  0  0  0  0  0  0  0  0  0  0  0
   44.4620   35.9680   44.8390 C   0  0  0  0  0  0  0  0  0  0  0  0
   45.0800   35.9510   43.5740 C   0  0  0  0  0  0  0  0  0  0  0  0
   45.9540   34.8980   43.3050 C   0  0  0  0  0  0  0  0  0  0  0  0
   46.1580   33.9600   44.2570 N   0  0  0  0  0  0  0  0  0  0  0  0
   45.5450   34.0080   45.4610 C   0  0  0  0  0  0  0  0  0  0  0  0
   44.7020   35.0090   45.7460 N   0  0  0  0  0  0  0  0  0  0  0  0
   46.0090   33.2510   38.8210 C   0  0  0  0  0  0  0  0  0  0  0  0
   46.5160   33.0490   37.5410 C   0  0  0  0  0  0  0  0  0  0  0  0
   45.5850   32.3540   36.7710 C   0  0  0  0  0  0  0  0  0  0  0  0
   44.5310   32.1760   37.6850 C   0  0  0  0  0  0  0  0  0  0  0  0
   44.8280   32.7120   38.8470 O   0  0  0  0  0  0  0  0  0  0  0  0
   43.2930   31.4830   37.3410 C   0  0  0  0  0  0  0  0  0  0  0  0
   42.1130   31.7000   38.0220 C   0  0  0  0  0  0  0  0  0  0  0  0
   40.9410   31.0510   37.7040 C   0  0  0  0  0  0  0  0  0  0  0  0
   40.9040   30.1380   36.6680 C   0  0  0  0  0  0  0  0  0  0  0  0
   42.0970   29.9390   36.0040 C   0  0  0  0  0  0  0  0  0  0  0  0
   43.2920   30.5760   36.3000 C   0  0  0  0  0  0  0  0  0  0  0  0
   48.4478   35.7244   42.6743 H   0  0  0  0  0  0  0  0  0  0  0  0
   49.6707   35.4518   40.5543 H   0  0  0  0  0  0  0  0  0  0  0  0
   43.7682   36.7843   45.0887 H   0  0  0  0  0  0  0  0  0  0  0  0
   44.8817   36.7356   42.8289 H   0  0  0  0  0  0  0  0  0  0  0  0
   45.7389   33.2238   46.2076 H   0  0  0  0  0  0  0  0  0  0  0  0
   47.5023   33.3867   37.1900 H   0  0  0  0  0  0  0  0  0  0  0  0
   45.6561   32.0295   35.7224 H   0  0  0  0  0  0  0  0  0  0  0  0
   42.1082   32.4209   38.8529 H   0  0  0  0  0  0  0  0  0  0  0  0
   40.0273   31.2611   38.2793 H   0  0  0  0  0  0  0  0  0  0  0  0
   39.9831   29.6042   36.3904 H   0  0  0  0  0  0  0  0  0  0  0  0
   42.1000   29.2175   35.1737 H   0  0  0  0  0  0  0  0  0  0  0  0
   44.2067   30.3664   35.7261 H   0  0  0  0  0  0  0  0  0  0  0  0
  1  9  1  0
  2  1  2  0
  3  2  1  0
  4  5  1  0
  4  3  2  0
  5  6  2  0
  6  1  1  0
  7 12  2  0
  8  7  1  0
  9  8  2  0
  9 10  1  0
 10 11  2  0
 11 12  1  0
 13 17  1  0
 13  5  1  0
 14 13  2  0
 15 14  1  0
 15 16  2  0
 16 17  1  0
 18 16  1  0
 18 19  2  0
 20 19  1  0
 21 20  2  0
 22 23  2  0
 22 21  1  0
 23 18  1  0
  2 24  1  0
  3 25  1  0
  7 26  1  0
  8 27  1  0
 11 28  1  0
 14 29  1  0
 15 30  1  0
 19 31  1  0
 20 32  1  0
 21 33  1  0
 22 34  1  0
 23 35  1  0
M  ISO  8  24  14  25  14  26  14  27  14  28  14  29  14  30  14  31  14
M  ISO  4  32  14  33  14  34  14  35  14
M  END
>  <minimizedAffinity>  (1) 
-5.56326628

>  <minimizedRMSD>  (1) 
0.821261883

$$$$
