
     RDKit          3D

 41 44  0  0  0  0  0  0  0  0999 V2000
   46.8020   34.7950   42.0280 C   0  0  0  0  0  0  0  0  0  0  0  0
   48.0380   35.3310   41.8460 C   0  0  0  0  0  0  0  0  0  0  0  0
   48.7610   35.2220   40.6820 C   0  0  0  0  0  0  0  0  0  0  0  0
   48.2100   34.5430   39.6570 N   0  0  0  0  0  0  0  0  0  0  0  0
   47.0080   34.0150   39.8130 C   0  0  0  0  0  0  0  0  0  0  0  0
   46.2860   34.1150   40.9550 N   0  0  0  0  0  0  0  0  0  0  0  0
   44.4650   35.9480   44.7790 C   0  0  0  0  0  0  0  0  0  0  0  0
   45.1300   35.9470   43.5380 C   0  0  0  0  0  0  0  0  0  0  0  0
   46.0420   34.9190   43.2740 C   0  0  0  0  0  0  0  0  0  0  0  0
   46.2500   33.9670   44.2190 N   0  0  0  0  0  0  0  0  0  0  0  0
   45.5830   34.0100   45.4040 C   0  0  0  0  0  0  0  0  0  0  0  0
   44.7090   34.9710   45.6900 N   0  0  0  0  0  0  0  0  0  0  0  0
   46.2680   33.2490   38.8000 C   0  0  0  0  0  0  0  0  0  0  0  0
   46.7030   33.2570   37.4650 C   0  0  0  0  0  0  0  0  0  0  0  0
   45.8280   32.4540   36.7160 C   0  0  0  0  0  0  0  0  0  0  0  0
   44.9100   32.0130   37.6880 C   0  0  0  0  0  0  0  0  0  0  0  0
   45.2120   32.4980   38.8510 O   0  0  0  0  0  0  0  0  0  0  0  0
   43.7580   31.1200   37.4160 C   0  0  0  0  0  0  0  0  0  0  0  0
   42.4600   31.7120   37.9750 C   0  0  0  0  0  0  0  0  0  0  0  0
   41.2680   31.0510   37.3430 C   0  0  0  0  0  0  0  0  0  0  0  0
   41.6230   29.7000   36.7680 C   0  0  0  0  0  0  0  0  0  0  0  0
   42.6190   29.8210   35.6310 C   0  0  0  0  0  0  0  0  0  0  0  0
   43.5560   30.9400   35.9420 C   0  0  0  0  0  0  0  0  0  0  0  0
   48.4875   35.8865   42.6823 H   0  0  0  0  0  0  0  0  0  0  0  0
   49.7590   35.6753   40.5902 H   0  0  0  0  0  0  0  0  0  0  0  0
   43.7435   36.7450   45.0120 H   0  0  0  0  0  0  0  0  0  0  0  0
   44.9375   36.7346   42.7946 H   0  0  0  0  0  0  0  0  0  0  0  0
   45.7727   33.2242   46.1501 H   0  0  0  0  0  0  0  0  0  0  0  0
   47.5772   33.7982   37.0740 H   0  0  0  0  0  0  0  0  0  0  0  0
   45.8534   32.2266   35.6401 H   0  0  0  0  0  0  0  0  0  0  0  0
   43.9851   30.1578   37.8983 H   0  0  0  0  0  0  0  0  0  0  0  0
   42.4282   31.5529   39.0630 H   0  0  0  0  0  0  0  0  0  0  0  0
   42.4325   32.7883   37.7493 H   0  0  0  0  0  0  0  0  0  0  0  0
   40.4859   30.9204   38.1054 H   0  0  0  0  0  0  0  0  0  0  0  0
   40.9129   31.6922   36.5228 H   0  0  0  0  0  0  0  0  0  0  0  0
   42.0619   29.0782   37.5622 H   0  0  0  0  0  0  0  0  0  0  0  0
   40.7041   29.2422   36.3729 H   0  0  0  0  0  0  0  0  0  0  0  0
   42.0867   30.0324   34.6919 H   0  0  0  0  0  0  0  0  0  0  0  0
   43.1783   28.8807   35.5171 H   0  0  0  0  0  0  0  0  0  0  0  0
   44.5289   30.7268   35.4751 H   0  0  0  0  0  0  0  0  0  0  0  0
   43.1154   31.8673   35.5471 H   0  0  0  0  0  0  0  0  0  0  0  0
  1  9  1  0
  2  1  2  0
  3  2  1  0
  4  5  1  0
  4  3  2  0
  5  6  2  0
  6  1  1  0
  7 12  2  0
  8  7  1  0
  9  8  2  0
  9 10  1  0
 10 11  2  0
 11 12  1  0
 13 17  1  0
 13  5  1  0
 14 13  2  0
 15 14  1  0
 15 16  2  0
 16 17  1  0
 18 16  1  0
 18 19  1  0
 20 19  1  0
 21 20  1  0
 22 23  1  0
 22 21  1  0
 23 18  1  0
  2 24  1  0
  3 25  1  0
  7 26  1  0
  8 27  1  0
 11 28  1  0
 14 29  1  0
 15 30  1  0
 18 31  1  0
 19 32  1  0
 19 33  1  0
 20 34  1  0
 20 35  1  0
 21 36  1  0
 21 37  1  0
 22 38  1  0
 22 39  1  0
 23 40  1  0
 23 41  1  0
M  ISO  8  24  14  25  14  26  14  27  14  28  14  29  14  30  14  31  13
M  ISO  8  32  13  33  13  34  13  35  13  36  13  37  13  38  13  39  13
M  ISO  2  40  13  41  13
M  END
>  <minimizedAffinity>  (1) 
-5.52570105

>  <minimizedRMSD>  (1) 
0.397424459

$$$$
