
     RDKit          3D

 33 36  0  0  0  0  0  0  0  0999 V2000
   46.6940   34.7370   42.0690 C   0  0  0  0  0  0  0  0  0  0  0  0
   47.9690   35.2240   41.8760 C   0  0  0  0  0  0  0  0  0  0  0  0
   48.6740   35.1060   40.7000 C   0  0  0  0  0  0  0  0  0  0  0  0
   48.0780   34.4710   39.6680 N   0  0  0  0  0  0  0  0  0  0  0  0
   46.8550   33.9980   39.8380 C   0  0  0  0  0  0  0  0  0  0  0  0
   46.1480   34.1070   40.9920 N   0  0  0  0  0  0  0  0  0  0  0  0
   44.4510   35.9690   44.8570 C   0  0  0  0  0  0  0  0  0  0  0  0
   45.0910   35.9380   43.5970 C   0  0  0  0  0  0  0  0  0  0  0  0
   45.9740   34.8780   43.3270 C   0  0  0  0  0  0  0  0  0  0  0  0
   46.1790   33.9420   44.2630 N   0  0  0  0  0  0  0  0  0  0  0  0
   45.5500   33.9980   45.4640 C   0  0  0  0  0  0  0  0  0  0  0  0
   44.6940   35.0010   45.7590 N   0  0  0  0  0  0  0  0  0  0  0  0
   46.0630   33.2840   38.8240 C   0  0  0  0  0  0  0  0  0  0  0  0
   46.5960   33.0960   37.5320 C   0  0  0  0  0  0  0  0  0  0  0  0
   45.6400   32.3920   36.7740 C   0  0  0  0  0  0  0  0  0  0  0  0
   44.5890   32.2100   37.6950 C   0  0  0  0  0  0  0  0  0  0  0  0
   44.8820   32.7360   38.8420 O   0  0  0  0  0  0  0  0  0  0  0  0
   43.3570   31.5150   37.3440 C   0  0  0  0  0  0  0  0  0  0  0  0
   42.1660   31.6980   38.0520 C   0  0  0  0  0  0  0  0  0  0  0  0
   41.0710   30.9790   37.6160 C   0  0  0  0  0  0  0  0  0  0  0  0
   41.1390   30.1430   36.5660 N   0  0  0  0  0  0  0  0  0  0  0  0
   42.2690   29.9700   35.8950 C   0  0  0  0  0  0  0  0  0  0  0  0
   43.3450   30.6610   36.3040 N   0  0  0  0  0  0  0  0  0  0  0  0
   48.4547   35.7407   42.7169 H   0  0  0  0  0  0  0  0  0  0  0  0
   49.6903   35.5158   40.6038 H   0  0  0  0  0  0  0  0  0  0  0  0
   43.7542   36.7847   45.1000 H   0  0  0  0  0  0  0  0  0  0  0  0
   44.9033   36.7218   42.8484 H   0  0  0  0  0  0  0  0  0  0  0  0
   45.7403   33.2130   46.2107 H   0  0  0  0  0  0  0  0  0  0  0  0
   47.5805   33.4375   37.1798 H   0  0  0  0  0  0  0  0  0  0  0  0
   45.6991   32.0658   35.7251 H   0  0  0  0  0  0  0  0  0  0  0  0
   42.1042   32.3801   38.9127 H   0  0  0  0  0  0  0  0  0  0  0  0
   40.1131   31.0940   38.1445 H   0  0  0  0  0  0  0  0  0  0  0  0
   42.3231   29.2859   35.0353 H   0  0  0  0  0  0  0  0  0  0  0  0
  1  9  1  0
  2  1  2  0
  3  2  1  0
  4  5  1  0
  4  3  2  0
  5  6  2  0
  6  1  1  0
  7 12  2  0
  8  7  1  0
  9  8  2  0
  9 10  1  0
 10 11  2  0
 11 12  1  0
 13 17  1  0
 13  5  1  0
 14 13  2  0
 15 14  1  0
 15 16  2  0
 16 17  1  0
 18 16  1  0
 18 19  2  0
 20 19  1  0
 21 20  2  0
 22 23  2  0
 22 21  1  0
 23 18  1  0
  2 24  1  0
  3 25  1  0
  7 26  1  0
  8 27  1  0
 11 28  1  0
 14 29  1  0
 15 30  1  0
 19 31  1  0
 20 32  1  0
 22 33  1  0
M  ISO  8  24  14  25  14  26  14  27  14  28  14  29  14  30  14  31  14
M  ISO  2  32  14  33  14
M  END
>  <minimizedAffinity>  (1) 
-5.41713047

>  <minimizedRMSD>  (1) 
0.774477124

$$$$
