
     RDKit          3D

 41 44  0  0  1  0  0  0  0  0999 V2000
   45.6090   33.4820   42.8310 C   0  0  0  0  0  0  0  0  0  0  0  0
   45.4380   32.1460   43.1230 C   0  0  0  0  0  0  0  0  0  0  0  0
   44.3240   31.4830   42.6950 C   0  0  0  0  0  0  0  0  0  0  0  0
   43.3630   32.0800   41.9860 N   0  0  0  0  0  0  0  0  0  0  0  0
   43.5340   33.3640   41.7090 C   0  0  0  0  0  0  0  0  0  0  0  0
   44.6100   34.0410   42.1110 N   0  0  0  0  0  0  0  0  0  0  0  0
   48.0390   34.4070   42.4720 C   0  0  1  0  0  0  0  0  0  0  0  0
   47.1180   35.5740   42.5940 C   0  0  0  0  0  0  0  0  0  0  0  0
   46.7460   34.3520   43.2500 C   0  0  1  0  0  0  0  0  0  0  0  0
   48.1160   33.8600   38.7920 C   0  0  0  0  0  0  0  0  0  0  0  0
   47.9650   34.5110   40.0610 C   0  0  0  0  0  0  0  0  0  0  0  0
   48.2000   33.7330   41.1890 C   0  0  0  0  0  0  0  0  0  0  0  0
   48.5530   32.4320   41.0620 N   0  0  0  0  0  0  0  0  0  0  0  0
   48.6890   31.8410   39.8680 C   0  0  0  0  0  0  0  0  0  0  0  0
   48.4740   32.5420   38.7230 N   0  0  0  0  0  0  0  0  0  0  0  0
   42.4750   34.0650   40.9340 C   0  0  1  0  0  0  0  0  0  0  0  0
   42.1130   35.3220   41.6420 C   0  0  0  0  0  0  0  0  0  0  0  0
   42.9080   34.3630   39.5110 C   0  0  0  0  0  0  0  0  0  0  0  0
   41.7820   34.6980   38.6630 N   0  0  0  0  0  0  0  0  0  0  0  0
   40.6950   33.9150   38.5060 C   0  0  0  0  0  0  0  0  0  0  0  0
   39.8010   34.5100   37.6350 C   0  0  0  0  0  0  0  0  0  0  0  0
   40.3920   35.6840   37.2720 N   0  0  0  0  0  0  0  0  0  0  0  0
   41.5830   35.7850   37.8970 C   0  0  0  0  0  0  0  0  0  0  0  0
   46.2034   31.6109   43.7042 H   0  0  0  0  0  0  0  0  0  0  0  0
   44.2140   30.4171   42.9436 H   0  0  0  0  0  0  0  0  0  0  0  0
   49.0944   34.1874   42.6910 H   0  0  0  0  0  0  0  0  0  0  0  0
   47.4193   36.4445   43.1952 H   0  0  0  0  0  0  0  0  0  0  0  0
   46.6210   36.2359   41.8695 H   0  0  0  0  0  0  0  0  0  0  0  0
   46.4554   34.1017   44.2810 H   0  0  0  0  0  0  0  0  0  0  0  0
   47.9421   34.4264   37.8652 H   0  0  0  0  0  0  0  0  0  0  0  0
   47.6783   35.5702   40.1378 H   0  0  0  0  0  0  0  0  0  0  0  0
   48.9767   30.7807   39.8132 H   0  0  0  0  0  0  0  0  0  0  0  0
   41.5995   33.4026   40.8656 H   0  0  0  0  0  0  0  0  0  0  0  0
   42.1604   35.1575   42.7286 H   0  0  0  0  0  0  0  0  0  0  0  0
   42.8185   36.1176   41.3605 H   0  0  0  0  0  0  0  0  0  0  0  0
   41.0924   35.6205   41.3605 H   0  0  0  0  0  0  0  0  0  0  0  0
   43.6091   35.2105   39.5226 H   0  0  0  0  0  0  0  0  0  0  0  0
   43.3851   33.4596   39.1034 H   0  0  0  0  0  0  0  0  0  0  0  0
   40.5419   32.9438   38.9994 H   0  0  0  0  0  0  0  0  0  0  0  0
   38.8258   34.1211   37.3066 H   0  0  0  0  0  0  0  0  0  0  0  0
   42.2836   36.6270   37.7957 H   0  0  0  0  0  0  0  0  0  0  0  0
  1  2  2  0
  1  9  1  0
  3  2  1  0
  4  3  2  0
  5  4  1  0
  5  6  2  0
  6  1  1  0
  7  8  1  0
  7  9  1  0
  8  9  1  0
 10 11  2  0
 11 12  1  0
 12  7  1  0
 13 12  2  0
 14 13  1  0
 15 10  1  0
 15 14  2  0
 16 17  1  0
 16  5  1  0
 18 16  1  0
 19 18  1  0
 20 19  1  0
 21 20  2  0
 22 21  1  0
 22 23  2  0
 23 19  1  0
  2 24  1  0
  3 25  1  0
  7 26  1  1
  8 27  1  0
  8 28  1  0
  9 29  1  1
 10 30  1  0
 11 31  1  0
 14 32  1  0
 16 33  1  6
 17 34  1  0
 17 35  1  0
 17 36  1  0
 18 37  1  0
 18 38  1  0
 20 39  1  0
 21 40  1  0
 23 41  1  0
M  ISO  8  24  14  25  14  26  13  27  13  28  13  29  13  30  14  31  14
M  ISO  8  32  14  33   8  34   8  35   8  36   8  37   8  38   8  39  14
M  ISO  2  40  14  41  14
M  END
>  <minimizedAffinity>  (1) 
-4.68580437

>  <minimizedRMSD>  (1) 
1.29210556

$$$$
