
     RDKit          3D

 37 40  0  0  0  0  0  0  0  0999 V2000
   46.7060   34.7470   41.9930 C   0  0  0  0  0  0  0  0  0  0  0  0
   47.9720   35.2270   41.7910 C   0  0  0  0  0  0  0  0  0  0  0  0
   48.6800   35.0850   40.6190 C   0  0  0  0  0  0  0  0  0  0  0  0
   48.0820   34.4300   39.6070 N   0  0  0  0  0  0  0  0  0  0  0  0
   46.8540   33.9530   39.7790 C   0  0  0  0  0  0  0  0  0  0  0  0
   46.1500   34.0900   40.9300 N   0  0  0  0  0  0  0  0  0  0  0  0
   44.4710   35.9870   44.7820 C   0  0  0  0  0  0  0  0  0  0  0  0
   45.1040   35.9650   43.5190 C   0  0  0  0  0  0  0  0  0  0  0  0
   45.9740   34.9120   43.2510 C   0  0  0  0  0  0  0  0  0  0  0  0
   46.1670   33.9740   44.2010 N   0  0  0  0  0  0  0  0  0  0  0  0
   45.5440   34.0230   45.4020 C   0  0  0  0  0  0  0  0  0  0  0  0
   44.7020   35.0240   45.6890 N   0  0  0  0  0  0  0  0  0  0  0  0
   46.0790   33.2210   38.7710 C   0  0  0  0  0  0  0  0  0  0  0  0
   46.6540   32.9060   37.5310 C   0  0  0  0  0  0  0  0  0  0  0  0
   45.6730   32.2100   36.7940 C   0  0  0  0  0  0  0  0  0  0  0  0
   44.5810   32.1620   37.6500 C   0  0  0  0  0  0  0  0  0  0  0  0
   44.8670   32.7550   38.7700 O   0  0  0  0  0  0  0  0  0  0  0  0
   43.3510   31.5400   37.3040 N   0  0  0  0  0  0  0  0  0  0  0  0
   42.1300   31.6830   38.1110 C   0  0  0  0  0  0  0  0  0  0  0  0
   41.0690   30.9240   37.3880 C   0  0  0  0  0  0  0  0  0  0  0  0
   41.8880   29.8710   36.6320 C   0  0  0  0  0  0  0  0  0  0  0  0
   43.0600   30.6940   36.1630 C   0  0  0  0  0  0  0  0  0  0  0  0
   48.4562   35.7622   42.6211 H   0  0  0  0  0  0  0  0  0  0  0  0
   49.6966   35.4918   40.5137 H   0  0  0  0  0  0  0  0  0  0  0  0
   43.7781   36.8057   45.0262 H   0  0  0  0  0  0  0  0  0  0  0  0
   44.9160   36.7521   42.7739 H   0  0  0  0  0  0  0  0  0  0  0  0
   45.7307   33.2354   46.1469 H   0  0  0  0  0  0  0  0  0  0  0  0
   47.6726   33.1537   37.1978 H   0  0  0  0  0  0  0  0  0  0  0  0
   45.7544   31.8001   35.7765 H   0  0  0  0  0  0  0  0  0  0  0  0
   42.2841   31.2620   39.1155 H   0  0  0  0  0  0  0  0  0  0  0  0
   41.8532   32.7398   38.2396 H   0  0  0  0  0  0  0  0  0  0  0  0
   40.3650   30.4539   38.0904 H   0  0  0  0  0  0  0  0  0  0  0  0
   40.4425   31.5502   36.7358 H   0  0  0  0  0  0  0  0  0  0  0  0
   42.2084   29.0555   37.2971 H   0  0  0  0  0  0  0  0  0  0  0  0
   41.3385   29.3660   35.8239 H   0  0  0  0  0  0  0  0  0  0  0  0
   43.9195   30.0524   35.9187 H   0  0  0  0  0  0  0  0  0  0  0  0
   42.8464   31.2647   35.2472 H   0  0  0  0  0  0  0  0  0  0  0  0
  1  9  1  0
  2  1  2  0
  3  2  1  0
  4  5  1  0
  4  3  2  0
  5  6  2  0
  6  1  1  0
  7 12  2  0
  8  7  1  0
  9  8  2  0
  9 10  1  0
 10 11  2  0
 11 12  1  0
 13  5  1  0
 14 13  2  0
 15 14  1  0
 15 16  2  0
 16 17  1  0
 17 13  1  0
 18 16  1  0
 18 19  1  0
 20 19  1  0
 21 20  1  0
 22 21  1  0
 22 18  1  0
  2 23  1  0
  3 24  1  0
  7 25  1  0
  8 26  1  0
 11 27  1  0
 14 28  1  0
 15 29  1  0
 19 30  1  0
 19 31  1  0
 20 32  1  0
 20 33  1  0
 21 34  1  0
 21 35  1  0
 22 36  1  0
 22 37  1  0
M  ISO  8  23  14  24  14  25  14  26  14  27  14  28  14  29  14  30  13
M  ISO  7  31  13  32  13  33  13  34  13  35  13  36  13  37  13
M  END
>  <minimizedAffinity>  (1) 
-5.30972624

>  <minimizedRMSD>  (1) 
0.730656087

$$$$
