
     RDKit          3D

 32 35  0  0  0  0  0  0  0  0999 V2000
   46.7150   34.7540   42.0980 C   0  0  0  0  0  0  0  0  0  0  0  0
   47.9800   35.2240   41.9040 C   0  0  0  0  0  0  0  0  0  0  0  0
   48.6820   35.0990   40.7250 C   0  0  0  0  0  0  0  0  0  0  0  0
   48.0820   34.4740   39.7000 N   0  0  0  0  0  0  0  0  0  0  0  0
   46.8410   34.0050   39.8710 C   0  0  0  0  0  0  0  0  0  0  0  0
   46.1430   34.1230   41.0260 N   0  0  0  0  0  0  0  0  0  0  0  0
   44.4490   35.9590   44.8710 C   0  0  0  0  0  0  0  0  0  0  0  0
   45.0860   35.9500   43.6150 C   0  0  0  0  0  0  0  0  0  0  0  0
   45.9800   34.8950   43.3580 C   0  0  0  0  0  0  0  0  0  0  0  0
   46.1940   33.9490   44.2980 N   0  0  0  0  0  0  0  0  0  0  0  0
   45.5540   34.0020   45.4960 C   0  0  0  0  0  0  0  0  0  0  0  0
   44.7000   34.9830   45.7830 N   0  0  0  0  0  0  0  0  0  0  0  0
   46.0680   33.3070   38.8500 C   0  0  0  0  0  0  0  0  0  0  0  0
   46.6170   33.0410   37.5950 C   0  0  0  0  0  0  0  0  0  0  0  0
   45.6720   32.3680   36.8160 C   0  0  0  0  0  0  0  0  0  0  0  0
   44.5850   32.2690   37.6780 C   0  0  0  0  0  0  0  0  0  0  0  0
   44.8540   32.8220   38.8380 O   0  0  0  0  0  0  0  0  0  0  0  0
   43.3040   31.6860   37.4790 N   0  0  0  0  0  0  0  0  0  0  0  0
   42.9640   30.6850   36.6880 N   0  0  0  0  0  0  0  0  0  0  0  0
   41.6610   30.4150   36.7700 C   0  0  0  0  0  0  0  0  0  0  0  0
   41.1560   31.3210   37.6830 C   0  0  0  0  0  0  0  0  0  0  0  0
   42.2030   32.1150   38.1220 C   0  0  0  0  0  0  0  0  0  0  0  0
   48.4724   35.7365   42.7436 H   0  0  0  0  0  0  0  0  0  0  0  0
   49.7020   35.4989   40.6269 H   0  0  0  0  0  0  0  0  0  0  0  0
   43.7410   36.7643   45.1165 H   0  0  0  0  0  0  0  0  0  0  0  0
   44.8928   36.7337   42.8677 H   0  0  0  0  0  0  0  0  0  0  0  0
   45.7453   33.2185   46.2440 H   0  0  0  0  0  0  0  0  0  0  0  0
   47.6313   33.3169   37.2708 H   0  0  0  0  0  0  0  0  0  0  0  0
   45.7646   32.0072   35.7810 H   0  0  0  0  0  0  0  0  0  0  0  0
   41.1058   29.6364   36.2263 H   0  0  0  0  0  0  0  0  0  0  0  0
   40.1069   31.3982   38.0047 H   0  0  0  0  0  0  0  0  0  0  0  0
   42.1453   32.9351   38.8528 H   0  0  0  0  0  0  0  0  0  0  0  0
  1  9  1  0
  2  1  2  0
  3  2  1  0
  4  5  1  0
  4  3  2  0
  5  6  2  0
  6  1  1  0
  7 12  2  0
  8  7  1  0
  9  8  2  0
  9 10  1  0
 10 11  2  0
 11 12  1  0
 13  5  1  0
 14 13  2  0
 15 14  1  0
 15 16  2  0
 16 17  1  0
 17 13  1  0
 18 16  1  0
 18 22  1  0
 19 20  2  0
 19 18  1  0
 20 21  1  0
 21 22  2  0
  2 23  1  0
  3 24  1  0
  7 25  1  0
  8 26  1  0
 11 27  1  0
 14 28  1  0
 15 29  1  0
 20 30  1  0
 21 31  1  0
 22 32  1  0
M  ISO  8  23  14  24  14  25  14  26  14  27  14  28  14  29  14  30  14
M  ISO  2  31  14  32  14
M  END
>  <minimizedAffinity>  (1) 
-5.30915833

>  <minimizedRMSD>  (1) 
0.849712312

$$$$
