
     RDKit          3D

 31 34  0  0  0  0  0  0  0  0999 V2000
   46.7420   34.7750   42.0810 C   0  0  0  0  0  0  0  0  0  0  0  0
   48.0030   35.2620   41.9020 C   0  0  0  0  0  0  0  0  0  0  0  0
   48.7220   35.1450   40.7380 C   0  0  0  0  0  0  0  0  0  0  0  0
   48.1370   34.5030   39.7040 N   0  0  0  0  0  0  0  0  0  0  0  0
   46.8950   34.0170   39.8650 C   0  0  0  0  0  0  0  0  0  0  0  0
   46.1970   34.1390   41.0110 N   0  0  0  0  0  0  0  0  0  0  0  0
   44.4510   35.9450   44.8540 C   0  0  0  0  0  0  0  0  0  0  0  0
   45.0990   35.9380   43.6060 C   0  0  0  0  0  0  0  0  0  0  0  0
   45.9980   34.9120   43.3300 C   0  0  0  0  0  0  0  0  0  0  0  0
   46.2030   33.9680   44.2820 N   0  0  0  0  0  0  0  0  0  0  0  0
   45.5610   34.0050   45.4730 C   0  0  0  0  0  0  0  0  0  0  0  0
   44.6970   34.9760   45.7610 N   0  0  0  0  0  0  0  0  0  0  0  0
   46.1450   33.2990   38.8310 C   0  0  0  0  0  0  0  0  0  0  0  0
   46.7260   33.0380   37.5850 C   0  0  0  0  0  0  0  0  0  0  0  0
   45.7910   32.3490   36.8180 C   0  0  0  0  0  0  0  0  0  0  0  0
   44.6960   32.2360   37.6580 C   0  0  0  0  0  0  0  0  0  0  0  0
   44.9480   32.8050   38.8210 O   0  0  0  0  0  0  0  0  0  0  0  0
   43.4020   31.6160   37.4300 C   0  0  0  0  0  0  0  0  0  0  0  0
   42.2720   32.1080   38.2650 C   0  0  0  0  0  0  0  0  0  0  0  0
   40.7990   31.1040   37.7050 S   0  0  0  0  0  0  0  0  0  0  0  0
   41.9330   30.2160   36.4750 C   0  0  0  0  0  0  0  0  0  0  0  0
   42.9360   30.6860   36.6410 N   0  0  0  0  0  0  0  0  0  0  0  0
   48.4761   35.7837   42.7470 H   0  0  0  0  0  0  0  0  0  0  0  0
   49.7374   35.5591   40.6510 H   0  0  0  0  0  0  0  0  0  0  0  0
   43.7374   36.7472   45.0932 H   0  0  0  0  0  0  0  0  0  0  0  0
   44.8998   36.7258   42.8645 H   0  0  0  0  0  0  0  0  0  0  0  0
   45.7567   33.2184   46.2166 H   0  0  0  0  0  0  0  0  0  0  0  0
   47.7395   33.3257   37.2686 H   0  0  0  0  0  0  0  0  0  0  0  0
   45.8970   31.9808   35.7869 H   0  0  0  0  0  0  0  0  0  0  0  0
   42.2983   32.8888   39.0393 H   0  0  0  0  0  0  0  0  0  0  0  0
   41.6676   29.4216   35.7619 H   0  0  0  0  0  0  0  0  0  0  0  0
  1  9  1  0
  2  1  2  0
  3  2  1  0
  4  5  1  0
  4  3  2  0
  5  6  2  0
  6  1  1  0
  7 12  2  0
  8  7  1  0
  9  8  2  0
  9 10  1  0
 10 11  2  0
 11 12  1  0
 13  5  1  0
 14 13  2  0
 15 14  1  0
 15 16  2  0
 16 17  1  0
 17 13  1  0
 18 16  1  0
 18 19  2  0
 20 19  1  0
 21 22  2  0
 21 20  1  0
 22 18  1  0
  2 23  1  0
  3 24  1  0
  7 25  1  0
  8 26  1  0
 11 27  1  0
 14 28  1  0
 15 29  1  0
 19 30  1  0
 21 31  1  0
M  ISO  8  23  14  24  14  25  14  26  14  27  14  28  14  29  14  30  14
M  ISO  1  31  14
M  END
>  <minimizedAffinity>  (1) 
-5.28883171

>  <minimizedRMSD>  (1) 
0.795441747

$$$$
