
     RDKit          3D

 30 33  0  0  0  0  0  0  0  0999 V2000
   46.7670   34.7790   42.0540 C   0  0  0  0  0  0  0  0  0  0  0  0
   48.0320   35.2980   41.8840 C   0  0  0  0  0  0  0  0  0  0  0  0
   48.7580   35.1930   40.7200 C   0  0  0  0  0  0  0  0  0  0  0  0
   48.1940   34.5430   39.6840 N   0  0  0  0  0  0  0  0  0  0  0  0
   46.9770   34.0390   39.8360 C   0  0  0  0  0  0  0  0  0  0  0  0
   46.2530   34.1370   40.9760 N   0  0  0  0  0  0  0  0  0  0  0  0
   44.4610   35.9520   44.8120 C   0  0  0  0  0  0  0  0  0  0  0  0
   45.1180   35.9510   43.5590 C   0  0  0  0  0  0  0  0  0  0  0  0
   46.0170   34.9070   43.3070 C   0  0  0  0  0  0  0  0  0  0  0  0
   46.2130   33.9730   44.2420 N   0  0  0  0  0  0  0  0  0  0  0  0
   45.5750   33.9920   45.4320 C   0  0  0  0  0  0  0  0  0  0  0  0
   44.7010   34.9820   45.7120 N   0  0  0  0  0  0  0  0  0  0  0  0
   46.2240   33.3040   38.8050 C   0  0  0  0  0  0  0  0  0  0  0  0
   46.8160   33.0110   37.5760 C   0  0  0  0  0  0  0  0  0  0  0  0
   45.8970   32.3150   36.7870 C   0  0  0  0  0  0  0  0  0  0  0  0
   44.7800   32.2360   37.6300 C   0  0  0  0  0  0  0  0  0  0  0  0
   45.0240   32.8170   38.7630 O   0  0  0  0  0  0  0  0  0  0  0  0
   43.5040   31.6010   37.3100 C   0  0  0  0  0  0  0  0  0  0  0  0
   43.1630   30.7430   36.3170 N   0  0  0  0  0  0  0  0  0  0  0  0
   41.9040   30.4430   36.4340 O   0  0  0  0  0  0  0  0  0  0  0  0
   41.3760   31.0600   37.4650 C   0  0  0  0  0  0  0  0  0  0  0  0
   42.3580   31.7740   38.0080 N   0  0  0  0  0  0  0  0  0  0  0  0
   48.4899   35.8292   42.7314 H   0  0  0  0  0  0  0  0  0  0  0  0
   49.7660   35.6257   40.6382 H   0  0  0  0  0  0  0  0  0  0  0  0
   43.7472   36.7537   45.0523 H   0  0  0  0  0  0  0  0  0  0  0  0
   44.9305   36.7377   42.8134 H   0  0  0  0  0  0  0  0  0  0  0  0
   45.7673   33.2016   46.1725 H   0  0  0  0  0  0  0  0  0  0  0  0
   47.8390   33.2835   37.2772 H   0  0  0  0  0  0  0  0  0  0  0  0
   46.0189   31.9277   35.7647 H   0  0  0  0  0  0  0  0  0  0  0  0
   40.3333   30.9990   37.8099 H   0  0  0  0  0  0  0  0  0  0  0  0
  1  9  1  0
  2  1  2  0
  3  2  1  0
  4  5  1  0
  4  3  2  0
  5  6  2  0
  6  1  1  0
  7 12  2  0
  8  7  1  0
  9  8  2  0
  9 10  1  0
 10 11  2  0
 11 12  1  0
 13  5  1  0
 14 13  2  0
 15 14  1  0
 15 16  2  0
 16 17  1  0
 17 13  1  0
 18 16  1  0
 18 22  1  0
 19 20  1  0
 19 18  2  0
 20 21  1  0
 21 22  2  0
  2 23  1  0
  3 24  1  0
  7 25  1  0
  8 26  1  0
 11 27  1  0
 14 28  1  0
 15 29  1  0
 21 30  1  0
M  ISO  8  23  14  24  14  25  14  26  14  27  14  28  14  29  14  30  14
M  END
>  <minimizedAffinity>  (1) 
-5.28157377

>  <minimizedRMSD>  (1) 
0.888502717

$$$$
