
     RDKit          3D

 28 30  0  0  0  0  0  0  0  0999 V2000
   46.7780   34.7840   42.0550 C   0  0  0  0  0  0  0  0  0  0  0  0
   48.0420   35.2980   41.8830 C   0  0  0  0  0  0  0  0  0  0  0  0
   48.7650   35.1970   40.7230 C   0  0  0  0  0  0  0  0  0  0  0  0
   48.1990   34.5500   39.6820 N   0  0  0  0  0  0  0  0  0  0  0  0
   46.9660   34.0430   39.8360 C   0  0  0  0  0  0  0  0  0  0  0  0
   46.2450   34.1370   40.9720 N   0  0  0  0  0  0  0  0  0  0  0  0
   44.4630   35.9530   44.8000 C   0  0  0  0  0  0  0  0  0  0  0  0
   45.1220   35.9490   43.5590 C   0  0  0  0  0  0  0  0  0  0  0  0
   46.0290   34.9060   43.3000 C   0  0  0  0  0  0  0  0  0  0  0  0
   46.2200   33.9750   44.2370 N   0  0  0  0  0  0  0  0  0  0  0  0
   45.5770   33.9940   45.4230 C   0  0  0  0  0  0  0  0  0  0  0  0
   44.7020   34.9760   45.7100 N   0  0  0  0  0  0  0  0  0  0  0  0
   46.2420   33.3240   38.8010 C   0  0  0  0  0  0  0  0  0  0  0  0
   46.7230   33.2590   37.4940 C   0  0  0  0  0  0  0  0  0  0  0  0
   45.8390   32.5120   36.7180 C   0  0  0  0  0  0  0  0  0  0  0  0
   44.8490   32.1620   37.6280 C   0  0  0  0  0  0  0  0  0  0  0  0
   45.1110   32.6470   38.8230 O   0  0  0  0  0  0  0  0  0  0  0  0
   43.6180   31.3520   37.3860 C   0  0  0  0  0  0  0  0  0  0  0  0
   48.5028   35.8245   42.7318 H   0  0  0  0  0  0  0  0  0  0  0  0
   49.7734   35.6290   40.6428 H   0  0  0  0  0  0  0  0  0  0  0  0
   43.7476   36.7548   45.0354 H   0  0  0  0  0  0  0  0  0  0  0  0
   44.9345   36.7364   42.8141 H   0  0  0  0  0  0  0  0  0  0  0  0
   45.7692   33.2012   46.1609 H   0  0  0  0  0  0  0  0  0  0  0  0
   47.6524   33.7235   37.1329 H   0  0  0  0  0  0  0  0  0  0  0  0
   45.9079   32.2613   35.6492 H   0  0  0  0  0  0  0  0  0  0  0  0
   43.1753   31.0607   38.3500 H   0  0  0  0  0  0  0  0  0  0  0  0
   42.8923   31.9496   36.8149 H   0  0  0  0  0  0  0  0  0  0  0  0
   43.8796   30.4490   36.8149 H   0  0  0  0  0  0  0  0  0  0  0  0
  1  9  1  0
  2  1  2  0
  3  2  1  0
  4  5  1  0
  4  3  2  0
  5  6  2  0
  6  1  1  0
  7 12  2  0
  8  7  1  0
  9  8  2  0
  9 10  1  0
 10 11  2  0
 11 12  1  0
 13 17  1  0
 13  5  1  0
 14 13  2  0
 15 14  1  0
 15 16  2  0
 16 17  1  0
 18 16  1  0
  2 19  1  0
  3 20  1  0
  7 21  1  0
  8 22  1  0
 11 23  1  0
 14 24  1  0
 15 25  1  0
 18 26  1  0
 18 27  1  0
 18 28  1  0
M  ISO  8  19  14  20  14  21  14  22  14  23  14  24  14  25  14  26   8
M  ISO  2  27   8  28   8
M  END
>  <minimizedAffinity>  (1) 
-5.04356241

>  <minimizedRMSD>  (1) 
0.240309596

$$$$
