
     RDKit          3D

 31 33  0  0  0  0  0  0  0  0999 V2000
   46.7040   34.7370   42.0880 C   0  0  0  0  0  0  0  0  0  0  0  0
   47.9600   35.2220   41.8860 C   0  0  0  0  0  0  0  0  0  0  0  0
   48.6610   35.0980   40.7020 C   0  0  0  0  0  0  0  0  0  0  0  0
   48.0590   34.4540   39.6770 N   0  0  0  0  0  0  0  0  0  0  0  0
   46.8270   33.9740   39.8600 C   0  0  0  0  0  0  0  0  0  0  0  0
   46.1390   34.0930   41.0180 N   0  0  0  0  0  0  0  0  0  0  0  0
   44.4500   35.9610   44.8750 C   0  0  0  0  0  0  0  0  0  0  0  0
   45.0900   35.9310   43.6200 C   0  0  0  0  0  0  0  0  0  0  0  0
   45.9810   34.8780   43.3480 C   0  0  0  0  0  0  0  0  0  0  0  0
   46.1790   33.9530   44.2920 N   0  0  0  0  0  0  0  0  0  0  0  0
   45.5490   34.0060   45.4920 C   0  0  0  0  0  0  0  0  0  0  0  0
   44.6940   34.9940   45.7860 N   0  0  0  0  0  0  0  0  0  0  0  0
   46.0530   33.2620   38.8570 C   0  0  0  0  0  0  0  0  0  0  0  0
   46.5570   33.0760   37.5710 C   0  0  0  0  0  0  0  0  0  0  0  0
   45.6150   32.3630   36.8090 C   0  0  0  0  0  0  0  0  0  0  0  0
   44.5860   32.1680   37.7200 C   0  0  0  0  0  0  0  0  0  0  0  0
   44.8730   32.6950   38.8820 O   0  0  0  0  0  0  0  0  0  0  0  0
   43.3480   31.4310   37.3210 C   0  0  0  0  0  0  0  0  0  0  0  0
   42.1270   32.0470   37.9810 C   0  0  0  0  0  0  0  0  0  0  0  0
   48.4486   35.7469   42.7201 H   0  0  0  0  0  0  0  0  0  0  0  0
   49.6756   35.5097   40.5967 H   0  0  0  0  0  0  0  0  0  0  0  0
   43.7493   36.7747   45.1136 H   0  0  0  0  0  0  0  0  0  0  0  0
   44.8971   36.7130   42.8708 H   0  0  0  0  0  0  0  0  0  0  0  0
   45.7442   33.2220   46.2385 H   0  0  0  0  0  0  0  0  0  0  0  0
   47.5341   33.4299   37.2104 H   0  0  0  0  0  0  0  0  0  0  0  0
   45.6774   32.0416   35.7588 H   0  0  0  0  0  0  0  0  0  0  0  0
   43.2330   31.4813   36.2282 H   0  0  0  0  0  0  0  0  0  0  0  0
   43.4373   30.3835   37.6448 H   0  0  0  0  0  0  0  0  0  0  0  0
   42.2346   31.9927   39.0744 H   0  0  0  0  0  0  0  0  0  0  0  0
   42.0355   33.0991   37.6734 H   0  0  0  0  0  0  0  0  0  0  0  0
   41.2264   31.4954   37.6734 H   0  0  0  0  0  0  0  0  0  0  0  0
  1  9  1  0
  2  1  2  0
  3  2  1  0
  4  5  1  0
  4  3  2  0
  5  6  2  0
  6  1  1  0
  7 12  2  0
  8  7  1  0
  9  8  2  0
  9 10  1  0
 10 11  2  0
 11 12  1  0
 13 17  1  0
 13  5  1  0
 14 13  2  0
 15 14  1  0
 15 16  2  0
 16 17  1  0
 18 16  1  0
 18 19  1  0
  2 20  1  0
  3 21  1  0
  7 22  1  0
  8 23  1  0
 11 24  1  0
 14 25  1  0
 15 26  1  0
 18 27  1  0
 18 28  1  0
 19 29  1  0
 19 30  1  0
 19 31  1  0
M  ISO  8  20  14  21  14  22  14  23  14  24  14  25  14  26  14  27   8
M  ISO  4  28   8  29   8  30   8  31   8
M  END
>  <minimizedAffinity>  (1) 
-4.97380686

>  <minimizedRMSD>  (1) 
0.474354327

$$$$
