
     RDKit          3D

 41 44  0  0  1  0  0  0  0  0999 V2000
   44.5560   33.5930   42.7280 C   0  0  0  0  0  0  0  0  0  0  0  0
   44.3380   32.2410   42.8750 C   0  0  0  0  0  0  0  0  0  0  0  0
   43.3330   31.6260   42.1870 C   0  0  0  0  0  0  0  0  0  0  0  0
   42.5250   32.2870   41.3530 N   0  0  0  0  0  0  0  0  0  0  0  0
   42.7370   33.6000   41.2100 C   0  0  0  0  0  0  0  0  0  0  0  0
   43.7140   34.2210   41.8740 N   0  0  0  0  0  0  0  0  0  0  0  0
   47.0260   34.4390   42.9840 C   0  0  1  0  0  0  0  0  0  0  0  0
   46.1410   35.6350   42.9100 C   0  0  0  0  0  0  0  0  0  0  0  0
   45.5850   34.4170   43.4300 C   0  0  1  0  0  0  0  0  0  0  0  0
   47.9870   33.9520   39.4240 C   0  0  0  0  0  0  0  0  0  0  0  0
   47.5540   34.5880   40.6350 C   0  0  0  0  0  0  0  0  0  0  0  0
   47.4710   33.7770   41.7660 C   0  0  0  0  0  0  0  0  0  0  0  0
   47.7900   32.4630   41.6850 N   0  0  0  0  0  0  0  0  0  0  0  0
   48.1900   31.8900   40.5470 C   0  0  0  0  0  0  0  0  0  0  0  0
   48.2950   32.6240   39.4030 N   0  0  0  0  0  0  0  0  0  0  0  0
   41.8510   34.3600   40.3110 C   0  0  1  0  0  0  0  0  0  0  0  0
   41.3150   35.5360   41.0470 C   0  0  0  0  0  0  0  0  0  0  0  0
   42.5610   34.7950   39.0460 C   0  0  0  0  0  0  0  0  0  0  0  0
   43.0350   33.5660   38.3580 C   0  0  0  0  0  0  0  0  0  0  0  0
   44.3160   33.1820   38.0330 C   0  0  0  0  0  0  0  0  0  0  0  0
   44.1980   31.9750   37.4140 N   0  0  0  0  0  0  0  0  0  0  0  0
   42.8760   31.6650   37.3800 C   0  0  0  0  0  0  0  0  0  0  0  0
   42.1480   32.6290   37.9540 N   0  0  0  0  0  0  0  0  0  0  0  0
   44.9775   31.6540   43.5506 H   0  0  0  0  0  0  0  0  0  0  0  0
   43.1822   30.5450   42.3241 H   0  0  0  0  0  0  0  0  0  0  0  0
   47.9917   34.1800   43.4426 H   0  0  0  0  0  0  0  0  0  0  0  0
   46.3170   36.4850   43.5857 H   0  0  0  0  0  0  0  0  0  0  0  0
   45.8525   36.3252   42.1036 H   0  0  0  0  0  0  0  0  0  0  0  0
   45.0486   34.1618   44.3558 H   0  0  0  0  0  0  0  0  0  0  0  0
   48.0716   34.5435   38.5005 H   0  0  0  0  0  0  0  0  0  0  0  0
   47.3011   35.6580   40.6693 H   0  0  0  0  0  0  0  0  0  0  0  0
   48.4365   30.8181   40.5326 H   0  0  0  0  0  0  0  0  0  0  0  0
   41.0246   33.7055   39.9969 H   0  0  0  0  0  0  0  0  0  0  0  0
   41.3957   35.3589   42.1296 H   0  0  0  0  0  0  0  0  0  0  0  0
   41.8937   36.4319   40.7779 H   0  0  0  0  0  0  0  0  0  0  0  0
   40.2592   35.6869   40.7779 H   0  0  0  0  0  0  0  0  0  0  0  0
   41.8661   35.3460   38.3952 H   0  0  0  0  0  0  0  0  0  0  0  0
   43.4060   35.4581   39.2831 H   0  0  0  0  0  0  0  0  0  0  0  0
   45.2448   33.7365   38.2324 H   0  0  0  0  0  0  0  0  0  0  0  0
   42.4607   30.7462   36.9403 H   0  0  0  0  0  0  0  0  0  0  0  0
   41.1243   32.6527   38.0652 H   0  0  0  0  0  0  0  0  0  0  0  0
  1  2  2  0
  1  9  1  0
  3  2  1  0
  4  3  2  0
  5  4  1  0
  5  6  2  0
  6  1  1  0
  7  9  1  0
  8  7  1  0
  8  9  1  0
 10 11  2  0
 11 12  1  0
 12  7  1  0
 13 12  2  0
 14 13  1  0
 15 10  1  0
 15 14  2  0
 16 17  1  0
 16  5  1  0
 18 16  1  0
 19 18  1  0
 20 19  2  0
 21 20  1  0
 22 21  2  0
 22 23  1  0
 23 19  1  0
  2 24  1  0
  3 25  1  0
  7 26  1  1
  8 27  1  0
  8 28  1  0
  9 29  1  1
 10 30  1  0
 11 31  1  0
 14 32  1  0
 16 33  1  6
 17 34  1  0
 17 35  1  0
 17 36  1  0
 18 37  1  0
 18 38  1  0
 20 39  1  0
 22 40  1  0
 23 41  1  0
M  ISO  8  24  14  25  14  26  13  27  13  28  13  29  13  30  14  31  14
M  ISO  8  32  14  33   8  34   8  35   8  36   8  37   8  38   8  39  14
M  ISO  2  40  14  41   9
M  END
>  <minimizedAffinity>  (1) 
-4.56847858

>  <minimizedRMSD>  (1) 
0.37895146

$$$$
