
     RDKit          3D

 47 50  0  0  0  0  0  0  0  0999 V2000
   45.8800   33.2130   38.8540 C   0  0  0  0  0  0  0  0  0  0  0  0
   46.3710   32.9810   37.5650 C   0  0  0  0  0  0  0  0  0  0  0  0
   45.3930   32.3000   36.8220 C   0  0  0  0  0  0  0  0  0  0  0  0
   44.3560   32.1660   37.7450 C   0  0  0  0  0  0  0  0  0  0  0  0
   44.6760   32.7010   38.8930 O   0  0  0  0  0  0  0  0  0  0  0  0
   46.6390   34.6950   42.0610 C   0  0  0  0  0  0  0  0  0  0  0  0
   47.9000   35.1310   41.8360 C   0  0  0  0  0  0  0  0  0  0  0  0
   48.5760   34.9740   40.6450 C   0  0  0  0  0  0  0  0  0  0  0  0
   47.9390   34.3440   39.6380 N   0  0  0  0  0  0  0  0  0  0  0  0
   46.6960   33.9080   39.8420 C   0  0  0  0  0  0  0  0  0  0  0  0
   46.0360   34.0610   41.0040 N   0  0  0  0  0  0  0  0  0  0  0  0
   44.4520   35.9920   44.8720 C   0  0  0  0  0  0  0  0  0  0  0  0
   45.0750   35.9290   43.6130 C   0  0  0  0  0  0  0  0  0  0  0  0
   45.9380   34.8690   43.3250 C   0  0  0  0  0  0  0  0  0  0  0  0
   46.1230   33.9640   44.2820 N   0  0  0  0  0  0  0  0  0  0  0  0
   45.5220   34.0280   45.4920 C   0  0  0  0  0  0  0  0  0  0  0  0
   44.6910   35.0340   45.7890 N   0  0  0  0  0  0  0  0  0  0  0  0
   43.0890   31.4840   37.3680 C   0  0  0  0  0  0  0  0  0  0  0  0
   42.0500   31.6530   38.4620 C   0  0  0  0  0  0  0  0  0  0  0  0
   40.9270   32.5640   38.0760 C   0  0  0  0  0  0  0  0  0  0  0  0
   39.5700   31.9220   38.2090 C   0  0  0  0  0  0  0  0  0  0  0  0
   38.5310   32.8950   37.6930 C   0  0  0  0  0  0  0  0  0  0  0  0
   38.9850   34.3300   37.7430 C   0  0  0  0  0  0  0  0  0  0  0  0
   39.7810   34.6170   38.9910 C   0  0  0  0  0  0  0  0  0  0  0  0
   40.9530   33.6980   39.1090 C   0  0  0  0  0  0  0  0  0  0  0  0
   47.3615   33.2827   37.1938 H   0  0  0  0  0  0  0  0  0  0  0  0
   45.4344   31.9588   35.7771 H   0  0  0  0  0  0  0  0  0  0  0  0
   48.4201   35.6447   42.6579 H   0  0  0  0  0  0  0  0  0  0  0  0
   49.6020   35.3506   40.5204 H   0  0  0  0  0  0  0  0  0  0  0  0
   43.7703   36.8224   45.1081 H   0  0  0  0  0  0  0  0  0  0  0  0
   44.8842   36.7085   42.8606 H   0  0  0  0  0  0  0  0  0  0  0  0
   45.7183   33.2452   46.2395 H   0  0  0  0  0  0  0  0  0  0  0  0
   42.7062   31.9214   36.4341 H   0  0  0  0  0  0  0  0  0  0  0  0
   43.2893   30.4113   37.2293 H   0  0  0  0  0  0  0  0  0  0  0  0
   41.6311   30.6645   38.7015 H   0  0  0  0  0  0  0  0  0  0  0  0
   42.5570   32.1084   39.3254 H   0  0  0  0  0  0  0  0  0  0  0  0
   41.0639   32.8679   37.0277 H   0  0  0  0  0  0  0  0  0  0  0  0
   39.5375   30.9950   37.6177 H   0  0  0  0  0  0  0  0  0  0  0  0
   39.3688   31.6759   39.2621 H   0  0  0  0  0  0  0  0  0  0  0  0
   37.6229   32.7941   38.3056 H   0  0  0  0  0  0  0  0  0  0  0  0
   38.3471   32.6471   36.6372 H   0  0  0  0  0  0  0  0  0  0  0  0
   39.6128   34.5367   36.8637 H   0  0  0  0  0  0  0  0  0  0  0  0
   38.0927   34.9732   37.7484 H   0  0  0  0  0  0  0  0  0  0  0  0
   40.1418   35.6555   38.9553 H   0  0  0  0  0  0  0  0  0  0  0  0
   39.1285   34.4623   39.8630 H   0  0  0  0  0  0  0  0  0  0  0  0
   40.9526   33.2557   40.1162 H   0  0  0  0  0  0  0  0  0  0  0  0
   41.8597   34.2929   38.9243 H   0  0  0  0  0  0  0  0  0  0  0  0
  1  5  1  0
  1 10  1  0
  2  1  2  0
  3  2  1  0
  3  4  2  0
  4  5  1  0
  6 14  1  0
  7  6  2  0
  8  7  1  0
  9 10  1  0
  9  8  2  0
 10 11  2  0
 11  6  1  0
 12 17  2  0
 13 12  1  0
 14 13  2  0
 14 15  1  0
 15 16  2  0
 16 17  1  0
 18  4  1  0
 18 19  1  0
 20 21  1  0
 20 19  1  0
 20 25  1  0
 22 23  1  0
 22 21  1  0
 23 24  1  0
 24 25  1  0
  2 26  1  0
  3 27  1  0
  7 28  1  0
  8 29  1  0
 12 30  1  0
 13 31  1  0
 16 32  1  0
 18 33  1  0
 18 34  1  0
 19 35  1  0
 19 36  1  0
 20 37  1  0
 21 38  1  0
 21 39  1  0
 22 40  1  0
 22 41  1  0
 23 42  1  0
 23 43  1  0
 24 44  1  0
 24 45  1  0
 25 46  1  0
 25 47  1  0
M  ISO  8  26  14  27  14  28  14  29  14  30  14  31  14  32  14  33   8
M  ISO  8  34   8  35   8  36   8  37  13  38  13  39  13  40  13  41  13
M  ISO  6  42  13  43  13  44  13  45  13  46  13  47  13
M  END
>  <minimizedAffinity>  (1) 
-6.3212986

>  <minimizedRMSD>  (1) 
1.40781415

$$$$
