
     RDKit          3D

 44 47  0  0  0  0  0  0  0  0999 V2000
   44.8920   32.9250   38.9290 C   0  0  0  0  0  0  0  0  0  0  0  0
   45.2670   32.2750   37.7610 C   0  0  0  0  0  0  0  0  0  0  0  0
   44.1370   31.7600   37.1220 C   0  0  0  0  0  0  0  0  0  0  0  0
   43.1190   32.1520   37.9850 C   0  0  0  0  0  0  0  0  0  0  0  0
   43.5960   32.8160   39.0060 O   0  0  0  0  0  0  0  0  0  0  0  0
   46.1670   34.4100   41.9630 C   0  0  0  0  0  0  0  0  0  0  0  0
   47.4400   34.6940   41.5750 C   0  0  0  0  0  0  0  0  0  0  0  0
   47.9530   34.4230   40.3200 C   0  0  0  0  0  0  0  0  0  0  0  0
   47.1390   33.8380   39.4200 N   0  0  0  0  0  0  0  0  0  0  0  0
   45.8830   33.5530   39.7870 C   0  0  0  0  0  0  0  0  0  0  0  0
   45.3810   33.8160   41.0100 N   0  0  0  0  0  0  0  0  0  0  0  0
   44.4610   36.0650   44.9190 C   0  0  0  0  0  0  0  0  0  0  0  0
   44.9220   35.8800   43.5910 C   0  0  0  0  0  0  0  0  0  0  0  0
   45.6470   34.7040   43.2900 C   0  0  0  0  0  0  0  0  0  0  0  0
   45.8690   33.8150   44.2610 N   0  0  0  0  0  0  0  0  0  0  0  0
   45.4070   34.0370   45.5250 C   0  0  0  0  0  0  0  0  0  0  0  0
   44.7150   35.1380   45.8560 N   0  0  0  0  0  0  0  0  0  0  0  0
   41.6910   31.7990   37.6780 C   0  0  0  0  0  0  0  0  0  0  0  0
   40.7530   32.6170   38.5520 C   0  0  0  0  0  0  0  0  0  0  0  0
   40.1700   33.8050   37.8630 C   0  0  0  0  0  0  0  0  0  0  0  0
   40.7170   35.1070   38.3580 C   0  0  0  0  0  0  0  0  0  0  0  0
   40.1310   35.1860   39.7540 C   0  0  0  0  0  0  0  0  0  0  0  0
   38.8190   34.4370   39.6930 C   0  0  0  0  0  0  0  0  0  0  0  0
   38.7190   33.9010   38.2850 C   0  0  0  0  0  0  0  0  0  0  0  0
   46.2995   32.1799   37.3938 H   0  0  0  0  0  0  0  0  0  0  0  0
   44.0696   31.1927   36.1820 H   0  0  0  0  0  0  0  0  0  0  0  0
   48.1057   35.1713   42.3092 H   0  0  0  0  0  0  0  0  0  0  0  0
   48.9924   34.6769   40.0646 H   0  0  0  0  0  0  0  0  0  0  0  0
   43.8940   36.9702   45.1820 H   0  0  0  0  0  0  0  0  0  0  0  0
   44.7207   36.6325   42.8143 H   0  0  0  0  0  0  0  0  0  0  0  0
   45.6093   33.2853   46.3022 H   0  0  0  0  0  0  0  0  0  0  0  0
   41.4823   32.0136   36.6195 H   0  0  0  0  0  0  0  0  0  0  0  0
   41.5321   30.7295   37.8805 H   0  0  0  0  0  0  0  0  0  0  0  0
   39.9284   31.9666   38.8791 H   0  0  0  0  0  0  0  0  0  0  0  0
   41.3498   32.9964   39.3945 H   0  0  0  0  0  0  0  0  0  0  0  0
   40.3722   33.6677   36.7905 H   0  0  0  0  0  0  0  0  0  0  0  0
   41.8165   35.0934   38.3865 H   0  0  0  0  0  0  0  0  0  0  0  0
   40.4609   35.9662   37.7207 H   0  0  0  0  0  0  0  0  0  0  0  0
   40.8082   34.7138   40.4810 H   0  0  0  0  0  0  0  0  0  0  0  0
   39.9875   36.2285   40.0745 H   0  0  0  0  0  0  0  0  0  0  0  0
   38.8151   33.6107   40.4190 H   0  0  0  0  0  0  0  0  0  0  0  0
   37.9679   35.0885   39.9406 H   0  0  0  0  0  0  0  0  0  0  0  0
   38.1618   34.5924   37.6358 H   0  0  0  0  0  0  0  0  0  0  0  0
   38.1804   32.9442   38.2188 H   0  0  0  0  0  0  0  0  0  0  0  0
  1  5  1  0
  1 10  1  0
  2  1  2  0
  3  2  1  0
  3  4  2  0
  4  5  1  0
  6 14  1  0
  7  6  2  0
  8  7  1  0
  9 10  1  0
  9  8  2  0
 10 11  2  0
 11  6  1  0
 12 17  2  0
 13 12  1  0
 14 13  2  0
 14 15  1  0
 15 16  2  0
 16 17  1  0
 18  4  1  0
 18 19  1  0
 20 24  1  0
 20 21  1  0
 20 19  1  0
 21 22  1  0
 23 22  1  0
 24 23  1  0
  2 25  1  0
  3 26  1  0
  7 27  1  0
  8 28  1  0
 12 29  1  0
 13 30  1  0
 16 31  1  0
 18 32  1  0
 18 33  1  0
 19 34  1  0
 19 35  1  0
 20 36  1  0
 21 37  1  0
 21 38  1  0
 22 39  1  0
 22 40  1  0
 23 41  1  0
 23 42  1  0
 24 43  1  0
 24 44  1  0
M  ISO  8  25  14  26  14  27  14  28  14  29  14  30  14  31  14  32   8
M  ISO  8  33   8  34   8  35   8  36  13  37  13  38  13  39  13  40  13
M  ISO  4  41  13  42  13  43  13  44  13
M  END
>  <minimizedAffinity>  (1) 
-6.07440662

>  <minimizedRMSD>  (1) 
2.4614687

$$$$
