
     RDKit          3D

 46 49  0  0  0  0  0  0  0  0999 V2000
   45.4500   33.0610   38.8950 C   0  0  0  0  0  0  0  0  0  0  0  0
   45.9010   32.6670   37.6380 C   0  0  0  0  0  0  0  0  0  0  0  0
   44.8510   32.0420   36.9610 C   0  0  0  0  0  0  0  0  0  0  0  0
   43.8020   32.1010   37.8830 C   0  0  0  0  0  0  0  0  0  0  0  0
   44.1910   32.6950   38.9820 O   0  0  0  0  0  0  0  0  0  0  0  0
   46.4330   34.5720   42.0250 C   0  0  0  0  0  0  0  0  0  0  0  0
   47.7100   34.9560   41.7250 C   0  0  0  0  0  0  0  0  0  0  0  0
   48.3150   34.7450   40.5010 C   0  0  0  0  0  0  0  0  0  0  0  0
   47.5980   34.1210   39.5390 N   0  0  0  0  0  0  0  0  0  0  0  0
   46.3550   33.7420   39.8140 C   0  0  0  0  0  0  0  0  0  0  0  0
   45.7540   33.9450   41.0140 N   0  0  0  0  0  0  0  0  0  0  0  0
   44.4680   36.0760   44.8970 C   0  0  0  0  0  0  0  0  0  0  0  0
   45.0280   35.9410   43.6100 C   0  0  0  0  0  0  0  0  0  0  0  0
   45.8120   34.8040   43.3240 C   0  0  0  0  0  0  0  0  0  0  0  0
   46.0000   33.8890   44.2820 N   0  0  0  0  0  0  0  0  0  0  0  0
   45.4440   34.0550   45.5140 C   0  0  0  0  0  0  0  0  0  0  0  0
   44.6980   35.1130   45.8250 N   0  0  0  0  0  0  0  0  0  0  0  0
   42.4630   31.5340   37.5610 C   0  0  0  0  0  0  0  0  0  0  0  0
   41.3750   32.5360   37.8610 C   0  0  0  0  0  0  0  0  0  0  0  0
   40.4870   32.1230   38.9230 N   0  0  0  0  0  0  0  0  0  0  0  0
   39.1560   32.0290   38.4300 C   0  0  0  0  0  0  0  0  0  0  0  0
   38.4630   33.3820   38.4170 C   0  0  0  0  0  0  0  0  0  0  0  0
   38.2160   33.7630   39.8590 C   0  0  0  0  0  0  0  0  0  0  0  0
   39.3510   33.3370   40.7300 C   0  0  0  0  0  0  0  0  0  0  0  0
   40.6450   33.0860   39.9900 C   0  0  0  0  0  0  0  0  0  0  0  0
   46.9160   32.8222   37.2434 H   0  0  0  0  0  0  0  0  0  0  0  0
   44.8499   31.6093   35.9497 H   0  0  0  0  0  0  0  0  0  0  0  0
   48.2925   35.4649   42.5071 H   0  0  0  0  0  0  0  0  0  0  0  0
   49.3479   35.0743   40.3147 H   0  0  0  0  0  0  0  0  0  0  0  0
   43.8515   36.9523   45.1460 H   0  0  0  0  0  0  0  0  0  0  0  0
   44.8563   36.7095   42.8420 H   0  0  0  0  0  0  0  0  0  0  0  0
   45.6178   33.2860   46.2811 H   0  0  0  0  0  0  0  0  0  0  0  0
   42.2984   30.6300   38.1657 H   0  0  0  0  0  0  0  0  0  0  0  0
   42.4313   31.2866   36.4897 H   0  0  0  0  0  0  0  0  0  0  0  0
   41.8473   33.4859   38.1519 H   0  0  0  0  0  0  0  0  0  0  0  0
   40.7659   32.6341   36.9503 H   0  0  0  0  0  0  0  0  0  0  0  0
   39.1832   31.6328   37.4042 H   0  0  0  0  0  0  0  0  0  0  0  0
   38.5905   31.3611   39.0964 H   0  0  0  0  0  0  0  0  0  0  0  0
   39.1059   34.1316   37.9325 H   0  0  0  0  0  0  0  0  0  0  0  0
   37.5186   33.3352   37.8549 H   0  0  0  0  0  0  0  0  0  0  0  0
   38.1010   34.8548   39.9274 H   0  0  0  0  0  0  0  0  0  0  0  0
   37.3026   33.2555   40.2027 H   0  0  0  0  0  0  0  0  0  0  0  0
   39.5282   34.1266   41.4751 H   0  0  0  0  0  0  0  0  0  0  0  0
   39.0570   32.3787   41.1829 H   0  0  0  0  0  0  0  0  0  0  0  0
   41.3922   32.7060   40.7022 H   0  0  0  0  0  0  0  0  0  0  0  0
   40.9668   34.0372   39.5410 H   0  0  0  0  0  0  0  0  0  0  0  0
  1  5  1  0
  1 10  1  0
  2  1  2  0
  3  2  1  0
  3  4  2  0
  4  5  1  0
  6 14  1  0
  7  6  2  0
  8  7  1  0
  9 10  1  0
  9  8  2  0
 10 11  2  0
 11  6  1  0
 12 17  2  0
 13 12  1  0
 14 13  2  0
 14 15  1  0
 15 16  2  0
 16 17  1  0
 18 19  1  0
 18  4  1  0
 19 20  1  0
 20 25  1  0
 21 20  1  0
 22 21  1  0
 22 23  1  0
 23 24  1  0
 25 24  1  0
  2 26  1  0
  3 27  1  0
  7 28  1  0
  8 29  1  0
 12 30  1  0
 13 31  1  0
 16 32  1  0
 18 33  1  0
 18 34  1  0
 19 35  1  0
 19 36  1  0
 21 37  1  0
 21 38  1  0
 22 39  1  0
 22 40  1  0
 23 41  1  0
 23 42  1  0
 24 43  1  0
 24 44  1  0
 25 45  1  0
 25 46  1  0
M  ISO  8  26  14  27  14  28  14  29  14  30  14  31  14  32  14  33   8
M  ISO  8  34   8  35   8  36   8  37  13  38  13  39  13  40  13  41  13
M  ISO  5  42  13  43  13  44  13  45  13  46  13
M  END
>  <minimizedAffinity>  (1) 
-5.88972425

>  <minimizedRMSD>  (1) 
1.54656708

$$$$
