
     RDKit          3D

 38 41  0  0  0  0  0  0  0  0999 V2000
   45.9230   33.1990   38.8220 C   0  0  0  0  0  0  0  0  0  0  0  0
   46.4210   32.9320   37.5560 C   0  0  0  0  0  0  0  0  0  0  0  0
   45.4500   32.2540   36.8150 C   0  0  0  0  0  0  0  0  0  0  0  0
   44.3990   32.1520   37.7100 C   0  0  0  0  0  0  0  0  0  0  0  0
   44.7070   32.7050   38.8520 O   0  0  0  0  0  0  0  0  0  0  0  0
   46.6480   34.6910   42.0360 C   0  0  0  0  0  0  0  0  0  0  0  0
   47.9200   35.1410   41.8140 C   0  0  0  0  0  0  0  0  0  0  0  0
   48.6020   34.9840   40.6220 C   0  0  0  0  0  0  0  0  0  0  0  0
   47.9670   34.3430   39.6070 N   0  0  0  0  0  0  0  0  0  0  0  0
   46.7210   33.8980   39.8120 C   0  0  0  0  0  0  0  0  0  0  0  0
   46.0530   34.0480   40.9720 N   0  0  0  0  0  0  0  0  0  0  0  0
   44.4670   35.9880   44.8390 C   0  0  0  0  0  0  0  0  0  0  0  0
   45.0900   35.9330   43.5680 C   0  0  0  0  0  0  0  0  0  0  0  0
   45.9470   34.8650   43.2970 C   0  0  0  0  0  0  0  0  0  0  0  0
   46.1360   33.9510   44.2480 N   0  0  0  0  0  0  0  0  0  0  0  0
   45.5300   34.0240   45.4560 C   0  0  0  0  0  0  0  0  0  0  0  0
   44.7040   35.0300   45.7510 N   0  0  0  0  0  0  0  0  0  0  0  0
   43.0980   31.4840   37.3650 C   0  0  0  0  0  0  0  0  0  0  0  0
   42.0580   31.7660   38.4270 C   0  0  0  0  0  0  0  0  0  0  0  0
   40.7180   31.6140   37.9320 N   0  0  0  0  0  0  0  0  0  0  0  0
   40.1130   30.6550   37.2610 N   0  0  0  0  0  0  0  0  0  0  0  0
   38.8180   30.9970   37.0280 C   0  0  0  0  0  0  0  0  0  0  0  0
   38.5970   32.2530   37.5900 C   0  0  0  0  0  0  0  0  0  0  0  0
   39.8150   32.6130   38.1520 C   0  0  0  0  0  0  0  0  0  0  0  0
   47.4215   33.2098   37.1928 H   0  0  0  0  0  0  0  0  0  0  0  0
   45.5066   31.8913   35.7780 H   0  0  0  0  0  0  0  0  0  0  0  0
   48.4332   35.6610   42.6363 H   0  0  0  0  0  0  0  0  0  0  0  0
   49.6262   35.3660   40.4995 H   0  0  0  0  0  0  0  0  0  0  0  0
   43.7867   36.8180   45.0803 H   0  0  0  0  0  0  0  0  0  0  0  0
   44.9033   36.7118   42.8140 H   0  0  0  0  0  0  0  0  0  0  0  0
   45.7211   33.2424   46.2060 H   0  0  0  0  0  0  0  0  0  0  0  0
   42.7402   31.8666   36.3977 H   0  0  0  0  0  0  0  0  0  0  0  0
   43.2609   30.3977   37.3071 H   0  0  0  0  0  0  0  0  0  0  0  0
   42.2076   31.0670   39.2631 H   0  0  0  0  0  0  0  0  0  0  0  0
   42.1811   32.8104   38.7495 H   0  0  0  0  0  0  0  0  0  0  0  0
   38.0753   30.3892   36.4904 H   0  0  0  0  0  0  0  0  0  0  0  0
   37.6621   32.8326   37.5888 H   0  0  0  0  0  0  0  0  0  0  0  0
   40.0188   33.5518   38.6879 H   0  0  0  0  0  0  0  0  0  0  0  0
  1  5  1  0
  1 10  1  0
  2  1  2  0
  3  2  1  0
  3  4  2  0
  4  5  1  0
  6 14  1  0
  7  6  2  0
  8  7  1  0
  9 10  1  0
  9  8  2  0
 10 11  2  0
 11  6  1  0
 12 17  2  0
 13 12  1  0
 14 13  2  0
 14 15  1  0
 15 16  2  0
 16 17  1  0
 18  4  1  0
 18 19  1  0
 20 24  1  0
 20 19  1  0
 21 20  1  0
 22 21  2  0
 22 23  1  0
 23 24  2  0
  2 25  1  0
  3 26  1  0
  7 27  1  0
  8 28  1  0
 12 29  1  0
 13 30  1  0
 16 31  1  0
 18 32  1  0
 18 33  1  0
 19 34  1  0
 19 35  1  0
 22 36  1  0
 23 37  1  0
 24 38  1  0
M  ISO  8  25  14  26  14  27  14  28  14  29  14  30  14  31  14  32   8
M  ISO  6  33   8  34   8  35   8  36  14  37  14  38  14
M  END
>  <minimizedAffinity>  (1) 
-5.34823465

>  <minimizedRMSD>  (1) 
0.383484781

$$$$
