
     RDKit          3D

 36 39  0  0  0  0  0  0  0  0999 V2000
   45.6440   33.1910   38.9390 C   0  0  0  0  0  0  0  0  0  0  0  0
   46.0440   33.0160   37.6160 C   0  0  0  0  0  0  0  0  0  0  0  0
   45.0380   32.3500   36.9110 C   0  0  0  0  0  0  0  0  0  0  0  0
   44.0610   32.1590   37.8890 C   0  0  0  0  0  0  0  0  0  0  0  0
   44.4500   32.6530   39.0230 O   0  0  0  0  0  0  0  0  0  0  0  0
   46.5270   34.6450   42.1130 C   0  0  0  0  0  0  0  0  0  0  0  0
   47.7990   35.0470   41.8640 C   0  0  0  0  0  0  0  0  0  0  0  0
   48.4320   34.8640   40.6480 C   0  0  0  0  0  0  0  0  0  0  0  0
   47.7550   34.2560   39.6590 N   0  0  0  0  0  0  0  0  0  0  0  0
   46.5020   33.8560   39.8950 C   0  0  0  0  0  0  0  0  0  0  0  0
   45.8710   34.0290   41.0750 N   0  0  0  0  0  0  0  0  0  0  0  0
   44.4490   36.0460   44.9600 C   0  0  0  0  0  0  0  0  0  0  0  0
   45.0360   35.9570   43.6820 C   0  0  0  0  0  0  0  0  0  0  0  0
   45.8650   34.8440   43.4000 C   0  0  0  0  0  0  0  0  0  0  0  0
   46.0450   33.9440   44.3560 N   0  0  0  0  0  0  0  0  0  0  0  0
   45.4630   34.0590   45.5790 C   0  0  0  0  0  0  0  0  0  0  0  0
   44.6750   35.0960   45.8780 N   0  0  0  0  0  0  0  0  0  0  0  0
   42.7810   31.4730   37.5810 C   0  0  0  0  0  0  0  0  0  0  0  0
   41.5980   32.3590   37.9140 C   0  0  0  0  0  0  0  0  0  0  0  0
   41.2870   32.3890   39.3410 C   0  0  0  0  0  0  0  0  0  0  0  0
   41.2040   33.5400   40.0350 N   0  0  0  0  0  0  0  0  0  0  0  0
   40.9120   33.2690   41.2920 O   0  0  0  0  0  0  0  0  0  0  0  0
   40.8030   31.9550   41.4280 C   0  0  0  0  0  0  0  0  0  0  0  0
   41.0320   31.4150   40.2320 N   0  0  0  0  0  0  0  0  0  0  0  0
   47.0026   33.3501   37.1923 H   0  0  0  0  0  0  0  0  0  0  0  0
   45.0206   32.0516   35.8524 H   0  0  0  0  0  0  0  0  0  0  0  0
   48.3558   35.5445   42.6717 H   0  0  0  0  0  0  0  0  0  0  0  0
   49.4654   35.2081   40.4940 H   0  0  0  0  0  0  0  0  0  0  0  0
   43.8013   36.9005   45.2057 H   0  0  0  0  0  0  0  0  0  0  0  0
   44.8549   36.7322   42.9229 H   0  0  0  0  0  0  0  0  0  0  0  0
   45.6442   33.2832   46.3375 H   0  0  0  0  0  0  0  0  0  0  0  0
   42.7544   31.2246   36.5098 H   0  0  0  0  0  0  0  0  0  0  0  0
   42.7173   30.5589   38.1896 H   0  0  0  0  0  0  0  0  0  0  0  0
   41.8242   33.3835   37.5836 H   0  0  0  0  0  0  0  0  0  0  0  0
   40.7211   31.9429   37.3963 H   0  0  0  0  0  0  0  0  0  0  0  0
   40.5675   31.4120   42.3552 H   0  0  0  0  0  0  0  0  0  0  0  0
  1  5  1  0
  1 10  1  0
  2  1  2  0
  3  2  1  0
  3  4  2  0
  4  5  1  0
  6 14  1  0
  7  6  2  0
  8  7  1  0
  9 10  1  0
  9  8  2  0
 10 11  2  0
 11  6  1  0
 12 17  2  0
 13 12  1  0
 14 13  2  0
 14 15  1  0
 15 16  2  0
 16 17  1  0
 18  4  1  0
 18 19  1  0
 19 20  1  0
 20 21  2  0
 20 24  1  0
 21 22  1  0
 22 23  1  0
 24 23  2  0
  2 25  1  0
  3 26  1  0
  7 27  1  0
  8 28  1  0
 12 29  1  0
 13 30  1  0
 16 31  1  0
 18 32  1  0
 18 33  1  0
 19 34  1  0
 19 35  1  0
 23 36  1  0
M  ISO  8  25  14  26  14  27  14  28  14  29  14  30  14  31  14  32   8
M  ISO  4  33   8  34   8  35   8  36  14
M  END
>  <minimizedAffinity>  (1) 
-5.26716566

>  <minimizedRMSD>  (1) 
0.782566965

$$$$
