
     RDKit          3D

 37 40  0  0  0  0  0  0  0  0999 V2000
   46.0720   33.2650   38.8600 C   0  0  0  0  0  0  0  0  0  0  0  0
   46.5780   33.0390   37.5910 C   0  0  0  0  0  0  0  0  0  0  0  0
   45.6450   32.3380   36.8250 C   0  0  0  0  0  0  0  0  0  0  0  0
   44.5980   32.1820   37.7180 C   0  0  0  0  0  0  0  0  0  0  0  0
   44.8750   32.7220   38.8700 O   0  0  0  0  0  0  0  0  0  0  0  0
   46.7070   34.7250   42.0940 C   0  0  0  0  0  0  0  0  0  0  0  0
   47.9640   35.2210   41.8930 C   0  0  0  0  0  0  0  0  0  0  0  0
   48.6610   35.1060   40.7070 C   0  0  0  0  0  0  0  0  0  0  0  0
   48.0670   34.4660   39.6850 N   0  0  0  0  0  0  0  0  0  0  0  0
   46.8350   33.9740   39.8660 C   0  0  0  0  0  0  0  0  0  0  0  0
   46.1570   34.0880   41.0220 N   0  0  0  0  0  0  0  0  0  0  0  0
   44.4540   35.9580   44.8720 C   0  0  0  0  0  0  0  0  0  0  0  0
   45.1000   35.9090   43.6300 C   0  0  0  0  0  0  0  0  0  0  0  0
   45.9920   34.8580   43.3530 C   0  0  0  0  0  0  0  0  0  0  0  0
   46.1930   33.9340   44.3000 N   0  0  0  0  0  0  0  0  0  0  0  0
   45.5480   34.0140   45.4960 C   0  0  0  0  0  0  0  0  0  0  0  0
   44.6920   35.0030   45.7860 N   0  0  0  0  0  0  0  0  0  0  0  0
   43.3350   31.4660   37.3310 C   0  0  0  0  0  0  0  0  0  0  0  0
   42.1880   31.9090   38.2050 C   0  0  0  0  0  0  0  0  0  0  0  0
   40.8710   31.4180   37.7080 C   0  0  0  0  0  0  0  0  0  0  0  0
   40.7570   30.2680   36.8990 C   0  0  0  0  0  0  0  0  0  0  0  0
   38.8940   30.1840   36.6180 S   0  0  0  0  0  0  0  0  0  0  0  0
   38.6900   31.7480   37.6770 C   0  0  0  0  0  0  0  0  0  0  0  0
   39.7360   32.0100   37.9840 N   0  0  0  0  0  0  0  0  0  0  0  0
   47.5682   33.3637   37.2388 H   0  0  0  0  0  0  0  0  0  0  0  0
   45.7216   31.9975   35.7818 H   0  0  0  0  0  0  0  0  0  0  0  0
   48.4512   35.7448   42.7286 H   0  0  0  0  0  0  0  0  0  0  0  0
   49.6723   35.5256   40.6014 H   0  0  0  0  0  0  0  0  0  0  0  0
   43.7541   36.7759   45.0980 H   0  0  0  0  0  0  0  0  0  0  0  0
   44.9107   36.6876   42.8764 H   0  0  0  0  0  0  0  0  0  0  0  0
   45.7366   33.2379   46.2524 H   0  0  0  0  0  0  0  0  0  0  0  0
   43.0981   31.6917   36.2808 H   0  0  0  0  0  0  0  0  0  0  0  0
   43.4848   30.3841   37.4617 H   0  0  0  0  0  0  0  0  0  0  0  0
   42.3486   31.5212   39.2218 H   0  0  0  0  0  0  0  0  0  0  0  0
   42.1622   33.0086   38.1919 H   0  0  0  0  0  0  0  0  0  0  0  0
   41.5466   29.5971   36.5295 H   0  0  0  0  0  0  0  0  0  0  0  0
   37.7588   32.2757   37.9308 H   0  0  0  0  0  0  0  0  0  0  0  0
  1  5  1  0
  1 10  1  0
  2  1  2  0
  3  2  1  0
  3  4  2  0
  4  5  1  0
  6 14  1  0
  7  6  2  0
  8  7  1  0
  9 10  1  0
  9  8  2  0
 10 11  2  0
 11  6  1  0
 12 17  2  0
 13 12  1  0
 14 13  2  0
 14 15  1  0
 15 16  2  0
 16 17  1  0
 18  4  1  0
 18 19  1  0
 20 24  1  0
 20 19  1  0
 21 20  2  0
 22 21  1  0
 22 23  1  0
 23 24  2  0
  2 25  1  0
  3 26  1  0
  7 27  1  0
  8 28  1  0
 12 29  1  0
 13 30  1  0
 16 31  1  0
 18 32  1  0
 18 33  1  0
 19 34  1  0
 19 35  1  0
 21 36  1  0
 23 37  1  0
M  ISO  8  25  14  26  14  27  14  28  14  29  14  30  14  31  14  32   8
M  ISO  5  33   8  34   8  35   8  36  14  37  14
M  END
>  <minimizedAffinity>  (1) 
-5.23157501

>  <minimizedRMSD>  (1) 
0.391118169

$$$$
