
     RDKit          3D

 38 41  0  0  0  0  0  0  0  0999 V2000
   46.1510   34.3950   41.9560 C   0  0  0  0  0  0  0  0  0  0  0  0
   47.4230   34.6720   41.5700 C   0  0  0  0  0  0  0  0  0  0  0  0
   47.9330   34.3930   40.3100 C   0  0  0  0  0  0  0  0  0  0  0  0
   47.1050   33.8090   39.4190 N   0  0  0  0  0  0  0  0  0  0  0  0
   45.8520   33.5310   39.7860 C   0  0  0  0  0  0  0  0  0  0  0  0
   45.3520   33.8010   41.0130 N   0  0  0  0  0  0  0  0  0  0  0  0
   44.4650   36.0490   44.9180 C   0  0  0  0  0  0  0  0  0  0  0  0
   44.9160   35.8550   43.6030 C   0  0  0  0  0  0  0  0  0  0  0  0
   45.6380   34.6970   43.2860 C   0  0  0  0  0  0  0  0  0  0  0  0
   45.8570   33.8290   44.2700 N   0  0  0  0  0  0  0  0  0  0  0  0
   45.4170   34.0280   45.5380 C   0  0  0  0  0  0  0  0  0  0  0  0
   44.7260   35.1250   45.8650 N   0  0  0  0  0  0  0  0  0  0  0  0
   44.8460   32.9050   38.9420 C   0  0  0  0  0  0  0  0  0  0  0  0
   45.2130   32.2120   37.7920 C   0  0  0  0  0  0  0  0  0  0  0  0
   44.0730   31.7100   37.1620 C   0  0  0  0  0  0  0  0  0  0  0  0
   43.0590   32.1490   38.0040 C   0  0  0  0  0  0  0  0  0  0  0  0
   43.5440   32.8300   39.0130 O   0  0  0  0  0  0  0  0  0  0  0  0
   41.6370   31.8240   37.6980 C   0  0  0  0  0  0  0  0  0  0  0  0
   40.7310   32.9730   38.1040 C   0  0  0  0  0  0  0  0  0  0  0  0
   39.2630   32.5300   38.0430 C   0  0  0  0  0  0  0  0  0  0  0  0
   38.3170   33.3280   38.9400 C   0  0  0  0  0  0  0  0  0  0  0  0
   38.2590   33.4320   37.4480 C   0  0  0  0  0  0  0  0  0  0  0  0
   48.0916   35.1477   42.3026 H   0  0  0  0  0  0  0  0  0  0  0  0
   48.9726   34.6386   40.0476 H   0  0  0  0  0  0  0  0  0  0  0  0
   43.8981   36.9556   45.1763 H   0  0  0  0  0  0  0  0  0  0  0  0
   44.7043   36.6061   42.8277 H   0  0  0  0  0  0  0  0  0  0  0  0
   45.6323   33.2743   46.3098 H   0  0  0  0  0  0  0  0  0  0  0  0
   46.2447   32.0800   37.4340 H   0  0  0  0  0  0  0  0  0  0  0  0
   43.9971   31.1191   36.2373 H   0  0  0  0  0  0  0  0  0  0  0  0
   41.5310   31.6433   36.6181 H   0  0  0  0  0  0  0  0  0  0  0  0
   41.3475   30.9253   38.2624 H   0  0  0  0  0  0  0  0  0  0  0  0
   40.9752   33.2845   39.1303 H   0  0  0  0  0  0  0  0  0  0  0  0
   40.8833   33.8149   37.4126 H   0  0  0  0  0  0  0  0  0  0  0  0
   39.5179   31.4729   37.8771 H   0  0  0  0  0  0  0  0  0  0  0  0
   37.5139   32.8177   39.4919 H   0  0  0  0  0  0  0  0  0  0  0  0
   38.4327   34.0351   39.7747 H   0  0  0  0  0  0  0  0  0  0  0  0
   38.5847   34.3591   36.9536 H   0  0  0  0  0  0  0  0  0  0  0  0
   37.4614   33.3049   36.7013 H   0  0  0  0  0  0  0  0  0  0  0  0
  1  9  1  0
  2  1  2  0
  3  2  1  0
  4  5  1  0
  4  3  2  0
  5  6  2  0
  6  1  1  0
  7 12  2  0
  8  7  1  0
  9  8  2  0
  9 10  1  0
 10 11  2  0
 11 12  1  0
 13 17  1  0
 13  5  1  0
 14 13  2  0
 15 14  1  0
 15 16  2  0
 16 17  1  0
 18 16  1  0
 18 19  1  0
 20 19  1  0
 20 21  1  0
 22 20  1  0
 22 21  1  0
  2 23  1  0
  3 24  1  0
  7 25  1  0
  8 26  1  0
 11 27  1  0
 14 28  1  0
 15 29  1  0
 18 30  1  0
 18 31  1  0
 19 32  1  0
 19 33  1  0
 20 34  1  0
 21 35  1  0
 21 36  1  0
 22 37  1  0
 22 38  1  0
M  ISO  8  23  14  24  14  25  14  26  14  27  14  28  14  29  14  30   8
M  ISO  8  31   8  32   8  33   8  34  13  35  13  36  13  37  13  38  13
M  END
>  <minimizedAffinity>  (1) 
-5.29680824

>  <minimizedRMSD>  (1) 
1.65916073

$$$$
