
     RDKit          3D

 45 49  0  0  1  0  0  0  0  0999 V2000
   45.2420   32.9280   38.7660 C   0  0  0  0  0  0  0  0  0  0  0  0
   45.6610   32.3910   37.5460 C   0  0  0  0  0  0  0  0  0  0  0  0
   44.5840   31.8040   36.8970 C   0  0  0  0  0  0  0  0  0  0  0  0
   43.5440   32.0270   37.7880 C   0  0  0  0  0  0  0  0  0  0  0  0
   43.9630   32.6730   38.8420 O   0  0  0  0  0  0  0  0  0  0  0  0
   46.3480   34.4710   41.8250 C   0  0  0  0  0  0  0  0  0  0  0  0
   47.6200   34.8210   41.4910 C   0  0  0  0  0  0  0  0  0  0  0  0
   48.1830   34.5730   40.2550 C   0  0  0  0  0  0  0  0  0  0  0  0
   47.4320   33.9490   39.3250 N   0  0  0  0  0  0  0  0  0  0  0  0
   46.1830   33.6040   39.6450 C   0  0  0  0  0  0  0  0  0  0  0  0
   45.6190   33.8390   40.8500 N   0  0  0  0  0  0  0  0  0  0  0  0
   44.4830   36.0460   44.7350 C   0  0  0  0  0  0  0  0  0  0  0  0
   45.0050   35.8680   43.4460 C   0  0  0  0  0  0  0  0  0  0  0  0
   45.7640   34.7400   43.1410 C   0  0  0  0  0  0  0  0  0  0  0  0
   45.9550   33.8730   44.1170 N   0  0  0  0  0  0  0  0  0  0  0  0
   45.4560   34.0350   45.3660 C   0  0  0  0  0  0  0  0  0  0  0  0
   44.7270   35.1060   45.6800 N   0  0  0  0  0  0  0  0  0  0  0  0
   42.1590   31.5450   37.4770 C   0  0  0  0  0  0  0  0  0  0  0  0
   41.1850   32.0640   38.5280 C   0  0  0  0  0  0  0  0  0  0  0  0
   40.0280   32.7830   37.8340 C   0  0  1  0  0  0  0  0  0  0  0  0
   38.7010   32.7860   38.5720 C   0  0  0  0  0  0  0  0  0  0  0  0
   39.4910   34.0350   38.3960 C   0  0  1  0  0  0  0  0  0  0  0  0
   39.9610   34.6300   39.6590 C   0  0  0  0  0  0  0  0  0  0  0  0
   40.5330   35.8600   39.7590 C   0  0  0  0  0  0  0  0  0  0  0  0
   40.8540   36.0960   41.1000 C   0  0  0  0  0  0  0  0  0  0  0  0
   40.4450   34.9670   41.7490 C   0  0  0  0  0  0  0  0  0  0  0  0
   39.9370   34.1440   40.8920 O   0  0  0  0  0  0  0  0  0  0  0  0
   46.6898   32.4280   37.1583 H   0  0  0  0  0  0  0  0  0  0  0  0
   44.5607   31.2921   35.9237 H   0  0  0  0  0  0  0  0  0  0  0  0
   48.2341   35.3301   42.2484 H   0  0  0  0  0  0  0  0  0  0  0  0
   49.2171   34.8765   40.0347 H   0  0  0  0  0  0  0  0  0  0  0  0
   43.8837   36.9364   44.9759 H   0  0  0  0  0  0  0  0  0  0  0  0
   44.8140   36.6240   42.6701 H   0  0  0  0  0  0  0  0  0  0  0  0
   45.6553   33.2715   46.1324 H   0  0  0  0  0  0  0  0  0  0  0  0
   41.8576   31.9141   36.4856 H   0  0  0  0  0  0  0  0  0  0  0  0
   42.1470   30.4451   37.4816 H   0  0  0  0  0  0  0  0  0  0  0  0
   40.7938   31.2200   39.1150 H   0  0  0  0  0  0  0  0  0  0  0  0
   41.7050   32.7644   39.1981 H   0  0  0  0  0  0  0  0  0  0  0  0
   40.3915   32.4952   36.8365 H   0  0  0  0  0  0  0  0  0  0  0  0
   37.7602   32.6436   38.0200 H   0  0  0  0  0  0  0  0  0  0  0  0
   38.2764   32.2391   39.4267 H   0  0  0  0  0  0  0  0  0  0  0  0
   39.3731   35.0276   37.9369 H   0  0  0  0  0  0  0  0  0  0  0  0
   40.7132   36.5536   38.9245 H   0  0  0  0  0  0  0  0  0  0  0  0
   41.3284   36.9889   41.5332 H   0  0  0  0  0  0  0  0  0  0  0  0
   40.5338   34.7863   42.8304 H   0  0  0  0  0  0  0  0  0  0  0  0
  1  5  1  0
  1 10  1  0
  2  1  2  0
  3  2  1  0
  3  4  2  0
  4  5  1  0
  6 14  1  0
  7  6  2  0
  8  7  1  0
  9 10  1  0
  9  8  2  0
 10 11  2  0
 11  6  1  0
 12 17  2  0
 13 12  1  0
 14 13  2  0
 14 15  1  0
 15 16  2  0
 16 17  1  0
 18  4  1  0
 18 19  1  0
 20 22  1  0
 20 19  1  0
 20 21  1  0
 22 21  1  0
 22 23  1  0
 23 24  2  0
 23 27  1  0
 24 25  1  0
 25 26  2  0
 27 26  1  0
  2 28  1  0
  3 29  1  0
  7 30  1  0
  8 31  1  0
 12 32  1  0
 13 33  1  0
 16 34  1  0
 18 35  1  0
 18 36  1  0
 19 37  1  0
 19 38  1  0
 20 39  1  6
 21 40  1  0
 21 41  1  0
 22 42  1  6
 24 43  1  0
 25 44  1  0
 26 45  1  0
M  ISO  8  28  14  29  14  30  14  31  14  32  14  33  14  34  14  35   8
M  ISO  8  36   8  37   8  38   8  39  13  40  13  41  13  42  13  43  14
M  ISO  2  44  14  45  14
M  END
>  <minimizedAffinity>  (1) 
-6.31574917

>  <minimizedRMSD>  (1) 
2.08313847

$$$$
