
     RDKit          3D

 41 44  0  0  1  0  0  0  0  0999 V2000
   45.0040   32.9030   38.8330 C   0  0  0  0  0  0  0  0  0  0  0  0
   45.3960   32.2690   37.6650 C   0  0  0  0  0  0  0  0  0  0  0  0
   44.2820   31.7310   37.0300 C   0  0  0  0  0  0  0  0  0  0  0  0
   43.2460   32.0890   37.8920 C   0  0  0  0  0  0  0  0  0  0  0  0
   43.7040   32.7620   38.9140 O   0  0  0  0  0  0  0  0  0  0  0  0
   46.2370   34.4300   41.8560 C   0  0  0  0  0  0  0  0  0  0  0  0
   47.5090   34.7340   41.4880 C   0  0  0  0  0  0  0  0  0  0  0  0
   48.0390   34.4630   40.2450 C   0  0  0  0  0  0  0  0  0  0  0  0
   47.2410   33.8570   39.3350 N   0  0  0  0  0  0  0  0  0  0  0  0
   45.9860   33.5540   39.6890 C   0  0  0  0  0  0  0  0  0  0  0  0
   45.4610   33.8180   40.9100 N   0  0  0  0  0  0  0  0  0  0  0  0
   44.4910   36.0830   44.7890 C   0  0  0  0  0  0  0  0  0  0  0  0
   44.9670   35.8930   43.4790 C   0  0  0  0  0  0  0  0  0  0  0  0
   45.6970   34.7270   43.1810 C   0  0  0  0  0  0  0  0  0  0  0  0
   45.9040   33.8570   44.1630 N   0  0  0  0  0  0  0  0  0  0  0  0
   45.4310   34.0670   45.4260 C   0  0  0  0  0  0  0  0  0  0  0  0
   44.7350   35.1590   45.7420 N   0  0  0  0  0  0  0  0  0  0  0  0
   41.8370   31.6980   37.5780 C   0  0  0  0  0  0  0  0  0  0  0  0
   40.8910   32.3570   38.5800 C   0  0  0  0  0  0  0  0  0  0  0  0
   39.9600   33.3180   37.8580 C   0  0  1  0  0  0  0  0  0  0  0  0
   39.1730   34.2740   38.7730 C   0  0  0  0  0  0  0  0  0  0  0  0
   40.2100   34.7600   37.8170 C   0  0  1  0  0  0  0  0  0  0  0  0
   41.4880   35.2910   38.2870 C   0  0  0  0  0  0  0  0  0  0  0  0
   41.5400   35.6620   39.4880 O   0  0  0  0  0  0  0  0  0  0  0  0
   42.7310   35.5100   37.7400 O   0  0  0  0  0  0  0  0  0  0  0  0
   46.4302   32.2016   37.2964 H   0  0  0  0  0  0  0  0  0  0  0  0
   44.2310   31.1665   36.0873 H   0  0  0  0  0  0  0  0  0  0  0  0
   48.1562   35.2271   42.2283 H   0  0  0  0  0  0  0  0  0  0  0  0
   49.0775   34.7307   40.0002 H   0  0  0  0  0  0  0  0  0  0  0  0
   43.9177   36.9882   45.0376 H   0  0  0  0  0  0  0  0  0  0  0  0
   44.7717   36.6441   42.6995 H   0  0  0  0  0  0  0  0  0  0  0  0
   45.6295   33.3150   46.2039 H   0  0  0  0  0  0  0  0  0  0  0  0
   41.5824   32.0295   36.5605 H   0  0  0  0  0  0  0  0  0  0  0  0
   41.7365   30.6045   37.6430 H   0  0  0  0  0  0  0  0  0  0  0  0
   40.2954   31.5814   39.0837 H   0  0  0  0  0  0  0  0  0  0  0  0
   41.4810   32.9138   39.3228 H   0  0  0  0  0  0  0  0  0  0  0  0
   39.7539   32.5799   37.0688 H   0  0  0  0  0  0  0  0  0  0  0  0
   38.1073   34.4719   38.5855 H   0  0  0  0  0  0  0  0  0  0  0  0
   38.9903   34.3626   39.8541 H   0  0  0  0  0  0  0  0  0  0  0  0
   40.2032   35.5203   37.0221 H   0  0  0  0  0  0  0  0  0  0  0  0
   43.4547   35.8961   38.2943 H   0  0  0  0  0  0  0  0  0  0  0  0
  1  5  1  0
  1 10  1  0
  2  1  2  0
  3  2  1  0
  3  4  2  0
  4  5  1  0
  6 14  1  0
  7  6  2  0
  8  7  1  0
  9 10  1  0
  9  8  2  0
 10 11  2  0
 11  6  1  0
 12 17  2  0
 13 12  1  0
 14 13  2  0
 14 15  1  0
 15 16  2  0
 16 17  1  0
 18  4  1  0
 18 19  1  0
 20 19  1  0
 20 21  1  0
 22 20  1  0
 22 23  1  0
 22 21  1  0
 23 24  2  0
 25 23  1  0
  2 26  1  0
  3 27  1  0
  7 28  1  0
  8 29  1  0
 12 30  1  0
 13 31  1  0
 16 32  1  0
 18 33  1  0
 18 34  1  0
 19 35  1  0
 19 36  1  0
 20 37  1  6
 21 38  1  0
 21 39  1  0
 22 40  1  6
 25 41  1  0
M  ISO  8  26  14  27  14  28  14  29  14  30  14  31  14  32  14  33   8
M  ISO  8  34   8  35   8  36   8  37  13  38  13  39  13  40  13  41   3
M  END
>  <minimizedAffinity>  (1) 
-6.00584936

>  <minimizedRMSD>  (1) 
1.4635781

$$$$
