
     RDKit          3D

 40 43  0  0  1  0  0  0  0  0999 V2000
   44.9020   32.9160   38.9150 C   0  0  0  0  0  0  0  0  0  0  0  0
   45.2750   32.2680   37.7410 C   0  0  0  0  0  0  0  0  0  0  0  0
   44.1450   31.7500   37.1120 C   0  0  0  0  0  0  0  0  0  0  0  0
   43.1150   32.1300   37.9790 C   0  0  0  0  0  0  0  0  0  0  0  0
   43.6020   32.7980   39.0000 O   0  0  0  0  0  0  0  0  0  0  0  0
   46.1720   34.4120   41.9410 C   0  0  0  0  0  0  0  0  0  0  0  0
   47.4490   34.6980   41.5510 C   0  0  0  0  0  0  0  0  0  0  0  0
   47.9680   34.4260   40.2980 C   0  0  0  0  0  0  0  0  0  0  0  0
   47.1470   33.8350   39.4030 N   0  0  0  0  0  0  0  0  0  0  0  0
   45.8980   33.5490   39.7670 C   0  0  0  0  0  0  0  0  0  0  0  0
   45.3910   33.8120   40.9840 N   0  0  0  0  0  0  0  0  0  0  0  0
   44.4660   36.0660   44.8820 C   0  0  0  0  0  0  0  0  0  0  0  0
   44.9240   35.8780   43.5680 C   0  0  0  0  0  0  0  0  0  0  0  0
   45.6500   34.7090   43.2670 C   0  0  0  0  0  0  0  0  0  0  0  0
   45.8620   33.8460   44.2480 N   0  0  0  0  0  0  0  0  0  0  0  0
   45.4150   34.0400   45.5120 C   0  0  0  0  0  0  0  0  0  0  0  0
   44.7180   35.1470   45.8300 N   0  0  0  0  0  0  0  0  0  0  0  0
   41.7000   31.7720   37.6840 C   0  0  0  0  0  0  0  0  0  0  0  0
   40.7830   32.4340   38.7060 C   0  0  0  0  0  0  0  0  0  0  0  0
   39.6630   33.1830   37.9780 C   0  0  1  0  0  0  0  0  0  0  0  0
   38.8800   34.1680   38.8430 C   0  0  0  0  0  0  0  0  0  0  0  0
   39.7780   34.6380   37.7510 C   0  0  1  0  0  0  0  0  0  0  0  0
   41.0490   35.3340   38.1490 C   0  0  0  0  0  0  0  0  0  0  0  0
   41.5240   36.2890   37.5180 O   0  0  0  0  0  0  0  0  0  0  0  0
   46.3055   32.1785   37.3667 H   0  0  0  0  0  0  0  0  0  0  0  0
   44.0792   31.1846   36.1707 H   0  0  0  0  0  0  0  0  0  0  0  0
   48.1120   35.1788   42.2853 H   0  0  0  0  0  0  0  0  0  0  0  0
   49.0068   34.6806   40.0410 H   0  0  0  0  0  0  0  0  0  0  0  0
   43.8968   36.9720   45.1374 H   0  0  0  0  0  0  0  0  0  0  0  0
   44.7201   36.6281   42.7897 H   0  0  0  0  0  0  0  0  0  0  0  0
   45.6234   33.2862   46.2855 H   0  0  0  0  0  0  0  0  0  0  0  0
   41.4365   32.1213   36.6748 H   0  0  0  0  0  0  0  0  0  0  0  0
   41.5799   30.6799   37.7378 H   0  0  0  0  0  0  0  0  0  0  0  0
   40.3453   31.6643   39.3586 H   0  0  0  0  0  0  0  0  0  0  0  0
   41.3635   33.1436   39.3139 H   0  0  0  0  0  0  0  0  0  0  0  0
   39.4421   32.3326   37.3161 H   0  0  0  0  0  0  0  0  0  0  0  0
   37.7883   34.2518   38.7369 H   0  0  0  0  0  0  0  0  0  0  0  0
   38.7849   34.3637   39.9213 H   0  0  0  0  0  0  0  0  0  0  0  0
   39.6512   35.2806   36.8673 H   0  0  0  0  0  0  0  0  0  0  0  0
   41.5830   34.9790   39.0427 H   0  0  0  0  0  0  0  0  0  0  0  0
  1  5  1  0
  1 10  1  0
  2  1  2  0
  3  2  1  0
  3  4  2  0
  4  5  1  0
  6 14  1  0
  7  6  2  0
  8  7  1  0
  9 10  1  0
  9  8  2  0
 10 11  2  0
 11  6  1  0
 12 17  2  0
 13 12  1  0
 14 13  2  0
 14 15  1  0
 15 16  2  0
 16 17  1  0
 18  4  1  0
 18 19  1  0
 20 19  1  0
 20 21  1  0
 22 20  1  0
 22 23  1  0
 22 21  1  0
 24 23  2  0
  2 25  1  0
  3 26  1  0
  7 27  1  0
  8 28  1  0
 12 29  1  0
 13 30  1  0
 16 31  1  0
 18 32  1  0
 18 33  1  0
 19 34  1  0
 19 35  1  0
 20 36  1  6
 21 37  1  0
 21 38  1  0
 22 39  1  6
 23 40  1  0
M  ISO  8  25  14  26  14  27  14  28  14  29  14  30  14  31  14  32   8
M  ISO  8  33   8  34   8  35   8  36  13  37  13  38  13  39  13  40   6
M  END
>  <minimizedAffinity>  (1) 
-5.59567451

>  <minimizedRMSD>  (1) 
0.855483115

$$$$
