
     RDKit          3D

 48 52  0  0  1  0  0  0  0  0999 V2000
   44.7100   32.6500   38.6570 C   0  0  0  0  0  0  0  0  0  0  0  0
   45.0290   32.0090   37.4590 C   0  0  0  0  0  0  0  0  0  0  0  0
   43.8760   31.4430   36.9160 C   0  0  0  0  0  0  0  0  0  0  0  0
   42.9090   31.7960   37.8580 C   0  0  0  0  0  0  0  0  0  0  0  0
   43.4340   32.4820   38.8310 O   0  0  0  0  0  0  0  0  0  0  0  0
   46.1050   34.3250   41.5360 C   0  0  0  0  0  0  0  0  0  0  0  0
   47.3670   34.5770   41.0940 C   0  0  0  0  0  0  0  0  0  0  0  0
   47.8360   34.2210   39.8440 C   0  0  0  0  0  0  0  0  0  0  0  0
   46.9850   33.5830   39.0130 N   0  0  0  0  0  0  0  0  0  0  0  0
   45.7430   33.3280   39.4340 C   0  0  0  0  0  0  0  0  0  0  0  0
   45.2810   33.6740   40.6520 N   0  0  0  0  0  0  0  0  0  0  0  0
   44.6100   36.1900   44.4720 C   0  0  0  0  0  0  0  0  0  0  0  0
   45.0300   35.9440   43.1520 C   0  0  0  0  0  0  0  0  0  0  0  0
   45.6240   34.7100   42.8660 C   0  0  0  0  0  0  0  0  0  0  0  0
   45.7540   33.8420   43.8600 N   0  0  0  0  0  0  0  0  0  0  0  0
   45.3440   34.0990   45.1190 C   0  0  0  0  0  0  0  0  0  0  0  0
   44.7760   35.2620   45.4250 N   0  0  0  0  0  0  0  0  0  0  0  0
   41.4970   31.3750   37.6530 C   0  0  0  0  0  0  0  0  0  0  0  0
   40.5500   32.3780   38.2990 C   0  0  0  0  0  0  0  0  0  0  0  0
   39.1480   32.2230   37.7020 C   0  0  1  0  0  0  0  0  0  0  0  0
   38.0090   32.7100   38.5840 C   0  0  0  0  0  0  0  0  0  0  0  0
   38.3790   33.4060   37.3010 C   0  0  2  0  0  0  0  0  0  0  0  0
   37.3660   33.2690   36.2220 C   0  0  0  0  0  0  0  0  0  0  0  0
   36.1750   33.9990   36.1710 C   0  0  0  0  0  0  0  0  0  0  0  0
   35.2750   33.8210   35.1320 C   0  0  0  0  0  0  0  0  0  0  0  0
   35.5370   32.9130   34.1210 C   0  0  0  0  0  0  0  0  0  0  0  0
   36.7150   32.1630   34.1330 C   0  0  0  0  0  0  0  0  0  0  0  0
   37.5910   32.3640   35.1800 C   0  0  0  0  0  0  0  0  0  0  0  0
   46.0331   31.9582   37.0128 H   0  0  0  0  0  0  0  0  0  0  0  0
   43.7591   30.8674   35.9860 H   0  0  0  0  0  0  0  0  0  0  0  0
   48.0573   35.0968   41.7746 H   0  0  0  0  0  0  0  0  0  0  0  0
   48.8672   34.4496   39.5368 H   0  0  0  0  0  0  0  0  0  0  0  0
   44.1412   37.1526   44.7243 H   0  0  0  0  0  0  0  0  0  0  0  0
   44.8950   36.7015   42.3659 H   0  0  0  0  0  0  0  0  0  0  0  0
   45.4810   33.3381   45.9015 H   0  0  0  0  0  0  0  0  0  0  0  0
   41.2872   31.3197   36.5746 H   0  0  0  0  0  0  0  0  0  0  0  0
   41.3457   30.3888   38.1161 H   0  0  0  0  0  0  0  0  0  0  0  0
   40.5080   32.1955   39.3829 H   0  0  0  0  0  0  0  0  0  0  0  0
   40.9156   33.3981   38.1100 H   0  0  0  0  0  0  0  0  0  0  0  0
   39.4184   31.2955   37.1760 H   0  0  0  0  0  0  0  0  0  0  0  0
   37.0748   32.1334   38.6538 H   0  0  0  0  0  0  0  0  0  0  0  0
   37.8970   33.0043   39.6379 H   0  0  0  0  0  0  0  0  0  0  0  0
   38.6797   34.4213   37.0030 H   0  0  0  0  0  0  0  0  0  0  0  0
   35.9489   34.7246   36.9662 H   0  0  0  0  0  0  0  0  0  0  0  0
   34.3441   34.4067   35.1108 H   0  0  0  0  0  0  0  0  0  0  0  0
   34.8132   32.7813   33.3032 H   0  0  0  0  0  0  0  0  0  0  0  0
   36.9366   31.4378   33.3361 H   0  0  0  0  0  0  0  0  0  0  0  0
   38.5215   31.7776   35.1959 H   0  0  0  0  0  0  0  0  0  0  0  0
  1  5  1  0
  1 10  1  0
  2  1  2  0
  3  2  1  0
  3  4  2  0
  4  5  1  0
  6 14  1  0
  7  6  2  0
  8  7  1  0
  9 10  1  0
  9  8  2  0
 10 11  2  0
 11  6  1  0
 12 17  2  0
 13 12  1  0
 14 13  2  0
 14 15  1  0
 15 16  2  0
 16 17  1  0
 18  4  1  0
 18 19  1  0
 20 19  1  0
 20 21  1  0
 22 20  1  0
 22 21  1  0
 23 22  1  0
 24 23  2  0
 25 24  1  0
 26 27  1  0
 26 25  2  0
 27 28  2  0
 28 23  1  0
  2 29  1  0
  3 30  1  0
  7 31  1  0
  8 32  1  0
 12 33  1  0
 13 34  1  0
 16 35  1  0
 18 36  1  0
 18 37  1  0
 19 38  1  0
 19 39  1  0
 20 40  1  6
 21 41  1  0
 21 42  1  0
 22 43  1  1
 24 44  1  0
 25 45  1  0
 26 46  1  0
 27 47  1  0
 28 48  1  0
M  ISO  8  29  14  30  14  31  14  32  14  33  14  34  14  35  14  36   8
M  ISO  8  37   8  38   8  39   8  40  13  41  13  42  13  43  13  44  14
M  ISO  4  45  14  46  14  47  14  48  14
M  END
>  <minimizedAffinity>  (1) 
-5.53737974

>  <minimizedRMSD>  (1) 
0.832698345

$$$$
