
     RDKit          3D

 48 52  0  0  1  0  0  0  0  0999 V2000
   44.6270   32.6660   38.7520 C   0  0  0  0  0  0  0  0  0  0  0  0
   44.9430   32.0210   37.5570 C   0  0  0  0  0  0  0  0  0  0  0  0
   43.7850   31.4700   37.0100 C   0  0  0  0  0  0  0  0  0  0  0  0
   42.8100   31.8330   37.9450 C   0  0  0  0  0  0  0  0  0  0  0  0
   43.3360   32.5160   38.9260 O   0  0  0  0  0  0  0  0  0  0  0  0
   46.0440   34.2870   41.6410 C   0  0  0  0  0  0  0  0  0  0  0  0
   47.3040   34.5480   41.2060 C   0  0  0  0  0  0  0  0  0  0  0  0
   47.7600   34.2080   39.9390 C   0  0  0  0  0  0  0  0  0  0  0  0
   46.9050   33.5860   39.1040 N   0  0  0  0  0  0  0  0  0  0  0  0
   45.6690   33.3270   39.5250 C   0  0  0  0  0  0  0  0  0  0  0  0
   45.2100   33.6550   40.7590 N   0  0  0  0  0  0  0  0  0  0  0  0
   44.5070   36.1180   44.5900 C   0  0  0  0  0  0  0  0  0  0  0  0
   44.9180   35.8500   43.2780 C   0  0  0  0  0  0  0  0  0  0  0  0
   45.5790   34.6520   42.9770 C   0  0  0  0  0  0  0  0  0  0  0  0
   45.7800   33.8200   43.9850 N   0  0  0  0  0  0  0  0  0  0  0  0
   45.3820   34.0780   45.2550 C   0  0  0  0  0  0  0  0  0  0  0  0
   44.7470   35.2240   45.5600 N   0  0  0  0  0  0  0  0  0  0  0  0
   41.3940   31.4370   37.7430 C   0  0  0  0  0  0  0  0  0  0  0  0
   40.4620   32.4900   38.3310 C   0  0  0  0  0  0  0  0  0  0  0  0
   39.0440   32.3170   37.7510 C   0  0  1  0  0  0  0  0  0  0  0  0
   37.9390   32.9280   38.5950 C   0  0  0  0  0  0  0  0  0  0  0  0
   38.3340   33.5040   37.2650 C   0  0  2  0  0  0  0  0  0  0  0  0
   37.3360   33.3090   36.1810 C   0  0  0  0  0  0  0  0  0  0  0  0
   37.6200   32.3770   35.1860 C   0  0  0  0  0  0  0  0  0  0  0  0
   36.7120   32.1630   34.1520 C   0  0  0  0  0  0  0  0  0  0  0  0
   35.5240   32.9000   34.1410 C   0  0  0  0  0  0  0  0  0  0  0  0
   35.2630   33.8300   35.1510 C   0  0  0  0  0  0  0  0  0  0  0  0
   36.1660   34.0380   36.1740 C   0  0  0  0  0  0  0  0  0  0  0  0
   45.9483   31.9569   37.1151 H   0  0  0  0  0  0  0  0  0  0  0  0
   43.6678   30.8955   36.0793 H   0  0  0  0  0  0  0  0  0  0  0  0
   47.9987   35.0545   41.8922 H   0  0  0  0  0  0  0  0  0  0  0  0
   48.7889   34.4397   39.6265 H   0  0  0  0  0  0  0  0  0  0  0  0
   43.9886   37.0596   44.8239 H   0  0  0  0  0  0  0  0  0  0  0  0
   44.7211   36.5826   42.4814 H   0  0  0  0  0  0  0  0  0  0  0  0
   45.5809   33.3405   46.0465 H   0  0  0  0  0  0  0  0  0  0  0  0
   41.1951   31.3371   36.6657 H   0  0  0  0  0  0  0  0  0  0  0  0
   41.2148   30.4771   38.2495 H   0  0  0  0  0  0  0  0  0  0  0  0
   40.4255   32.3753   39.4244 H   0  0  0  0  0  0  0  0  0  0  0  0
   40.8388   33.4912   38.0749 H   0  0  0  0  0  0  0  0  0  0  0  0
   39.2607   31.3348   37.3057 H   0  0  0  0  0  0  0  0  0  0  0  0
   36.9768   32.4077   38.7111 H   0  0  0  0  0  0  0  0  0  0  0  0
   37.8498   33.3069   39.6238 H   0  0  0  0  0  0  0  0  0  0  0  0
   38.6683   34.4875   36.9029 H   0  0  0  0  0  0  0  0  0  0  0  0
   38.5619   31.8096   35.2168 H   0  0  0  0  0  0  0  0  0  0  0  0
   36.9250   31.4294   33.3605 H   0  0  0  0  0  0  0  0  0  0  0  0
   34.7919   32.7473   33.3343 H   0  0  0  0  0  0  0  0  0  0  0  0
   34.3250   34.4042   35.1304 H   0  0  0  0  0  0  0  0  0  0  0  0
   35.9563   34.7705   36.9674 H   0  0  0  0  0  0  0  0  0  0  0  0
  1  5  1  0
  1 10  1  0
  2  1  2  0
  3  2  1  0
  3  4  2  0
  4  5  1  0
  6 14  1  0
  7  6  2  0
  8  7  1  0
  9 10  1  0
  9  8  2  0
 10 11  2  0
 11  6  1  0
 12 17  2  0
 13 12  1  0
 14 13  2  0
 14 15  1  0
 15 16  2  0
 16 17  1  0
 18  4  1  0
 18 19  1  0
 20 19  1  0
 20 21  1  0
 22 20  1  0
 22 21  1  0
 23 22  1  0
 24 23  2  0
 25 24  1  0
 26 25  2  0
 26 27  1  0
 27 28  2  0
 28 23  1  0
  2 29  1  0
  3 30  1  0
  7 31  1  0
  8 32  1  0
 12 33  1  0
 13 34  1  0
 16 35  1  0
 18 36  1  0
 18 37  1  0
 19 38  1  0
 19 39  1  0
 20 40  1  6
 21 41  1  0
 21 42  1  0
 22 43  1  1
 24 44  1  0
 25 45  1  0
 26 46  1  0
 27 47  1  0
 28 48  1  0
M  ISO  8  29  14  30  14  31  14  32  14  33  14  34  14  35  14  36   8
M  ISO  8  37   8  38   8  39   8  40  13  41  13  42  13  43  13  44  14
M  ISO  4  45  14  46  14  47  14  48  14
M  END
>  <minimizedAffinity>  (1) 
-5.48984909

>  <minimizedRMSD>  (1) 
0.791389167

$$$$
