
     RDKit          3D

 53 57  0  0  1  0  0  0  0  0999 V2000
   45.8860   33.1800   38.8240 C   0  0  0  0  0  0  0  0  0  0  0  0
   46.3620   32.9390   37.5490 C   0  0  0  0  0  0  0  0  0  0  0  0
   45.3990   32.2540   36.8050 C   0  0  0  0  0  0  0  0  0  0  0  0
   44.3680   32.1280   37.7230 C   0  0  0  0  0  0  0  0  0  0  0  0
   44.6830   32.6680   38.8630 O   0  0  0  0  0  0  0  0  0  0  0  0
   46.6420   34.6680   42.0190 C   0  0  0  0  0  0  0  0  0  0  0  0
   47.9020   35.1220   41.8040 C   0  0  0  0  0  0  0  0  0  0  0  0
   48.5850   34.9710   40.5990 C   0  0  0  0  0  0  0  0  0  0  0  0
   47.9380   34.3300   39.5950 N   0  0  0  0  0  0  0  0  0  0  0  0
   46.6980   33.8840   39.8090 C   0  0  0  0  0  0  0  0  0  0  0  0
   46.0340   34.0260   40.9680 N   0  0  0  0  0  0  0  0  0  0  0  0
   44.4620   35.9940   44.8310 C   0  0  0  0  0  0  0  0  0  0  0  0
   45.0870   35.9130   43.5770 C   0  0  0  0  0  0  0  0  0  0  0  0
   45.9470   34.8400   43.2970 C   0  0  0  0  0  0  0  0  0  0  0  0
   46.1340   33.9330   44.2520 N   0  0  0  0  0  0  0  0  0  0  0  0
   45.5180   34.0330   45.4610 C   0  0  0  0  0  0  0  0  0  0  0  0
   44.6970   35.0360   45.7580 N   0  0  0  0  0  0  0  0  0  0  0  0
   43.1010   31.4380   37.3420 C   0  0  0  0  0  0  0  0  0  0  0  0
   41.9340   31.9860   38.1420 C   0  0  0  0  0  0  0  0  0  0  0  0
   40.8060   30.9530   38.1980 C   0  0  1  0  0  0  0  0  0  0  0  0
   39.4340   31.5150   38.5470 C   0  0  0  0  0  0  0  0  0  0  0  0
   39.7400   30.9640   37.1950 C   0  0  2  0  0  0  0  0  0  0  0  0
   39.1020   29.8390   36.6300 N   0  0  0  0  0  0  0  0  0  0  0  0
   39.8010   28.6050   36.6850 C   0  0  0  0  0  0  0  0  0  0  0  0
   40.5990   28.4630   35.4150 C   0  0  0  0  0  0  0  0  0  0  0  0
   39.8060   28.6290   34.1660 C   0  0  0  0  0  0  0  0  0  0  0  0
   38.7760   29.7090   34.1940 C   0  0  0  0  0  0  0  0  0  0  0  0
   38.2220   30.0240   35.5510 C   0  0  0  0  0  0  0  0  0  0  0  0
   47.3516   33.2416   37.1760 H   0  0  0  0  0  0  0  0  0  0  0  0
   45.4462   31.9055   35.7627 H   0  0  0  0  0  0  0  0  0  0  0  0
   48.4142   35.6393   42.6287 H   0  0  0  0  0  0  0  0  0  0  0  0
   49.6070   35.3560   40.4678 H   0  0  0  0  0  0  0  0  0  0  0  0
   43.7854   36.8308   45.0591 H   0  0  0  0  0  0  0  0  0  0  0  0
   44.9036   36.6870   42.8172 H   0  0  0  0  0  0  0  0  0  0  0  0
   45.7055   33.2578   46.2185 H   0  0  0  0  0  0  0  0  0  0  0  0
   42.9110   31.5966   36.2702 H   0  0  0  0  0  0  0  0  0  0  0  0
   43.2040   30.3637   37.5549 H   0  0  0  0  0  0  0  0  0  0  0  0
   42.2690   32.2152   39.1644 H   0  0  0  0  0  0  0  0  0  0  0  0
   41.5620   32.9006   37.6572 H   0  0  0  0  0  0  0  0  0  0  0  0
   41.4762   30.1631   38.5681 H   0  0  0  0  0  0  0  0  0  0  0  0
   38.7680   30.9690   39.2314 H   0  0  0  0  0  0  0  0  0  0  0  0
   39.0484   32.4663   38.9425 H   0  0  0  0  0  0  0  0  0  0  0  0
   39.6784   31.3409   36.1634 H   0  0  0  0  0  0  0  0  0  0  0  0
   40.4768   28.5975   37.5529 H   0  0  0  0  0  0  0  0  0  0  0  0
   39.0926   27.7695   36.7858 H   0  0  0  0  0  0  0  0  0  0  0  0
   41.3933   29.2240   35.4214 H   0  0  0  0  0  0  0  0  0  0  0  0
   40.9889   27.4345   35.4038 H   0  0  0  0  0  0  0  0  0  0  0  0
   39.2931   27.6775   33.9620 H   0  0  0  0  0  0  0  0  0  0  0  0
   40.5272   28.9215   33.3886 H   0  0  0  0  0  0  0  0  0  0  0  0
   39.2319   30.6253   33.7909 H   0  0  0  0  0  0  0  0  0  0  0  0
   37.9297   29.3410   33.5953 H   0  0  0  0  0  0  0  0  0  0  0  0
   37.9064   31.0778   35.5501 H   0  0  0  0  0  0  0  0  0  0  0  0
   37.4004   29.3102   35.7106 H   0  0  0  0  0  0  0  0  0  0  0  0
  1  5  1  0
  1 10  1  0
  2  1  2  0
  3  2  1  0
  3  4  2  0
  4  5  1  0
  6 14  1  0
  7  6  2  0
  8  7  1  0
  9 10  1  0
  9  8  2  0
 10 11  2  0
 11  6  1  0
 12 17  2  0
 13 12  1  0
 14 13  2  0
 14 15  1  0
 15 16  2  0
 16 17  1  0
 18  4  1  0
 18 19  1  0
 19 20  1  0
 20 21  1  0
 22 20  1  0
 22 21  1  0
 23 24  1  0
 23 22  1  0
 25 24  1  0
 26 27  1  0
 26 25  1  0
 27 28  1  0
 28 23  1  0
  2 29  1  0
  3 30  1  0
  7 31  1  0
  8 32  1  0
 12 33  1  0
 13 34  1  0
 16 35  1  0
 18 36  1  0
 18 37  1  0
 19 38  1  0
 19 39  1  0
 20 40  1  1
 21 41  1  0
 21 42  1  0
 22 43  1  6
 24 44  1  0
 24 45  1  0
 25 46  1  0
 25 47  1  0
 26 48  1  0
 26 49  1  0
 27 50  1  0
 27 51  1  0
 28 52  1  0
 28 53  1  0
M  ISO  8  29  14  30  14  31  14  32  14  33  14  34  14  35  14  36   8
M  ISO  8  37   8  38   8  39   8  40  13  41  13  42  13  43  13  44  13
M  ISO  8  45  13  46  13  47  13  48  13  49  13  50  13  51  13  52  13
M  ISO  1  53  13
M  END
>  <minimizedAffinity>  (1) 
-5.42496967

>  <minimizedRMSD>  (1) 
2.13782477

$$$$
