
     RDKit          3D

 35 37  0  0  1  0  0  0  0  0999 V2000
   44.4980   33.6420   42.6650 C   0  0  0  0  0  0  0  0  0  0  0  0
   44.3200   32.2790   42.7280 C   0  0  0  0  0  0  0  0  0  0  0  0
   43.3250   31.6800   42.0160 C   0  0  0  0  0  0  0  0  0  0  0  0
   42.4860   32.3650   41.2380 N   0  0  0  0  0  0  0  0  0  0  0  0
   42.6610   33.6790   41.1790 C   0  0  0  0  0  0  0  0  0  0  0  0
   43.6260   34.2950   41.8630 N   0  0  0  0  0  0  0  0  0  0  0  0
   46.9680   34.4610   42.9970 C   0  0  1  0  0  0  0  0  0  0  0  0
   46.0970   35.6640   42.9060 C   0  0  0  0  0  0  0  0  0  0  0  0
   45.5130   34.4500   43.4020 C   0  0  1  0  0  0  0  0  0  0  0  0
   48.0160   33.9850   39.4620 C   0  0  0  0  0  0  0  0  0  0  0  0
   47.5570   34.6100   40.6670 C   0  0  0  0  0  0  0  0  0  0  0  0
   47.4410   33.7960   41.7950 C   0  0  0  0  0  0  0  0  0  0  0  0
   47.7560   32.4810   41.7080 N   0  0  0  0  0  0  0  0  0  0  0  0
   48.1810   31.9170   40.5780 C   0  0  0  0  0  0  0  0  0  0  0  0
   48.3180   32.6540   39.4420 N   0  0  0  0  0  0  0  0  0  0  0  0
   41.7350   34.4790   40.3350 C   0  0  1  0  0  0  0  0  0  0  0  0
   41.2430   35.6410   41.1180 C   0  0  0  0  0  0  0  0  0  0  0  0
   42.3960   34.9390   39.0480 C   0  0  0  0  0  0  0  0  0  0  0  0
   41.2550   35.7810   37.9330 S   0  0  0  0  0  0  0  0  0  0  0  0
   44.9852   31.6694   43.3571 H   0  0  0  0  0  0  0  0  0  0  0  0
   43.2090   30.5883   42.0855 H   0  0  0  0  0  0  0  0  0  0  0  0
   47.9196   34.1938   43.4797 H   0  0  0  0  0  0  0  0  0  0  0  0
   46.2619   36.5080   43.5919 H   0  0  0  0  0  0  0  0  0  0  0  0
   45.8386   36.3616   42.0957 H   0  0  0  0  0  0  0  0  0  0  0  0
   44.9473   34.1947   44.3102 H   0  0  0  0  0  0  0  0  0  0  0  0
   48.1259   34.5829   38.5453 H   0  0  0  0  0  0  0  0  0  0  0  0
   47.3078   35.6808   40.7015 H   0  0  0  0  0  0  0  0  0  0  0  0
   48.4237   30.8442   40.5631 H   0  0  0  0  0  0  0  0  0  0  0  0
   40.8869   33.8406   40.0465 H   0  0  0  0  0  0  0  0  0  0  0  0
   41.3347   35.4244   42.1925 H   0  0  0  0  0  0  0  0  0  0  0  0
   41.8420   36.5299   40.8707 H   0  0  0  0  0  0  0  0  0  0  0  0
   40.1879   35.8295   40.8707 H   0  0  0  0  0  0  0  0  0  0  0  0
   43.2133   35.6303   39.3011 H   0  0  0  0  0  0  0  0  0  0  0  0
   42.7637   34.0423   38.5277 H   0  0  0  0  0  0  0  0  0  0  0  0
   40.3238   36.4682   38.6661 H   0  0  0  0  0  0  0  0  0  0  0  0
  1  2  2  0
  1  9  1  0
  3  2  1  0
  4  3  2  0
  5  4  1  0
  5  6  2  0
  6  1  1  0
  7  9  1  0
  8  7  1  0
  8  9  1  0
 10 11  2  0
 11 12  1  0
 12  7  1  0
 13 12  2  0
 14 13  1  0
 15 10  1  0
 15 14  2  0
 16 17  1  0
 16  5  1  0
 18 16  1  0
 19 18  1  0
  2 20  1  0
  3 21  1  0
  7 22  1  1
  8 23  1  0
  8 24  1  0
  9 25  1  1
 10 26  1  0
 11 27  1  0
 14 28  1  0
 16 29  1  6
 17 30  1  0
 17 31  1  0
 17 32  1  0
 18 33  1  0
 18 34  1  0
 19 35  1  0
M  ISO  8  20  14  21  14  22  13  23  13  24  13  25  13  26  14  27  14
M  ISO  8  28  14  29   8  30   8  31   8  32   8  33   8  34   8  35  11
M  END
>  <minimizedAffinity>  (1) 
-4.24631262

>  <minimizedRMSD>  (1) 
0.205926523

$$$$
