
     RDKit          3D

 39 42  0  0  1  0  0  0  0  0999 V2000
   45.5460   33.0970   38.8060 C   0  0  0  0  0  0  0  0  0  0  0  0
   45.9750   32.8210   37.5150 C   0  0  0  0  0  0  0  0  0  0  0  0
   44.9530   32.1730   36.8140 C   0  0  0  0  0  0  0  0  0  0  0  0
   43.9410   32.1030   37.7780 C   0  0  0  0  0  0  0  0  0  0  0  0
   44.3240   32.6430   38.8980 O   0  0  0  0  0  0  0  0  0  0  0  0
   46.4840   34.5980   41.9480 C   0  0  0  0  0  0  0  0  0  0  0  0
   47.7630   34.9830   41.6820 C   0  0  0  0  0  0  0  0  0  0  0  0
   48.3900   34.7750   40.4640 C   0  0  0  0  0  0  0  0  0  0  0  0
   47.6840   34.1540   39.4920 N   0  0  0  0  0  0  0  0  0  0  0  0
   46.4310   33.7720   39.7400 C   0  0  0  0  0  0  0  0  0  0  0  0
   45.8110   33.9710   40.9290 N   0  0  0  0  0  0  0  0  0  0  0  0
   44.4730   36.0660   44.8060 C   0  0  0  0  0  0  0  0  0  0  0  0
   45.0450   35.9400   43.5320 C   0  0  0  0  0  0  0  0  0  0  0  0
   45.8430   34.8260   43.2370 C   0  0  0  0  0  0  0  0  0  0  0  0
   46.0240   33.9190   44.2050 N   0  0  0  0  0  0  0  0  0  0  0  0
   45.4550   34.0650   45.4380 C   0  0  0  0  0  0  0  0  0  0  0  0
   44.6920   35.1160   45.7420 N   0  0  0  0  0  0  0  0  0  0  0  0
   42.6360   31.4700   37.4470 C   0  0  0  0  0  0  0  0  0  0  0  0
   41.4960   32.2070   38.1350 C   0  0  0  0  0  0  0  0  0  0  0  0
   40.1730   31.4860   37.8610 C   0  0  1  0  0  0  0  0  0  0  0  0
   39.1800   31.5260   39.0260 C   0  0  0  0  0  0  0  0  0  0  0  0
   38.9340   32.2640   37.7540 C   0  0  1  0  0  0  0  0  0  0  0  0
   39.0090   34.0770   37.8200 S   0  0  0  0  0  0  0  0  0  0  0  0
   46.9649   33.0728   37.1068 H   0  0  0  0  0  0  0  0  0  0  0  0
   44.9463   31.8121   35.7749 H   0  0  0  0  0  0  0  0  0  0  0  0
   48.3299   35.4872   42.4785 H   0  0  0  0  0  0  0  0  0  0  0  0
   49.4259   35.1035   40.2936 H   0  0  0  0  0  0  0  0  0  0  0  0
   43.8460   36.9380   45.0436 H   0  0  0  0  0  0  0  0  0  0  0  0
   44.8684   36.7114   42.7680 H   0  0  0  0  0  0  0  0  0  0  0  0
   45.6310   33.2937   46.2023 H   0  0  0  0  0  0  0  0  0  0  0  0
   42.4835   31.5032   36.3581 H   0  0  0  0  0  0  0  0  0  0  0  0
   42.6477   30.4272   37.7968 H   0  0  0  0  0  0  0  0  0  0  0  0
   41.6798   32.2336   39.2192 H   0  0  0  0  0  0  0  0  0  0  0  0
   41.4383   33.2335   37.7439 H   0  0  0  0  0  0  0  0  0  0  0  0
   40.6394   30.7246   37.2186 H   0  0  0  0  0  0  0  0  0  0  0  0
   38.5823   30.6373   39.2769 H   0  0  0  0  0  0  0  0  0  0  0  0
   39.2262   31.7872   40.0935 H   0  0  0  0  0  0  0  0  0  0  0  0
   38.1229   32.2847   37.0112 H   0  0  0  0  0  0  0  0  0  0  0  0
   39.0259   34.4861   39.1274 H   0  0  0  0  0  0  0  0  0  0  0  0
  1  5  1  0
  1 10  1  0
  2  1  2  0
  3  2  1  0
  3  4  2  0
  4  5  1  0
  6 14  1  0
  7  6  2  0
  8  7  1  0
  9 10  1  0
  9  8  2  0
 10 11  2  0
 11  6  1  0
 12 17  2  0
 13 12  1  0
 14 13  2  0
 14 15  1  0
 15 16  2  0
 16 17  1  0
 18  4  1  0
 18 19  1  0
 20 19  1  0
 20 21  1  0
 22 23  1  0
 22 20  1  0
 22 21  1  0
  2 24  1  0
  3 25  1  0
  7 26  1  0
  8 27  1  0
 12 28  1  0
 13 29  1  0
 16 30  1  0
 18 31  1  0
 18 32  1  0
 19 33  1  0
 19 34  1  0
 20 35  1  6
 21 36  1  0
 21 37  1  0
 22 38  1  6
 23 39  1  0
M  ISO  8  24  14  25  14  26  14  27  14  28  14  29  14  30  14  31   8
M  ISO  8  32   8  33   8  34   8  35  13  36  13  37  13  38  13  39  11
M  END
>  <minimizedAffinity>  (1) 
-5.25578737

>  <minimizedRMSD>  (1) 
0.897510469

$$$$
