
     RDKit          3D

 40 43  0  0  1  0  0  0  0  0999 V2000
   44.9980   32.9670   38.9620 C   0  0  0  0  0  0  0  0  0  0  0  0
   45.3950   32.2820   37.8130 C   0  0  0  0  0  0  0  0  0  0  0  0
   44.2650   31.7760   37.1490 C   0  0  0  0  0  0  0  0  0  0  0  0
   43.2270   32.2110   37.9780 C   0  0  0  0  0  0  0  0  0  0  0  0
   43.7030   32.8790   38.9850 O   0  0  0  0  0  0  0  0  0  0  0  0
   46.2290   34.4280   42.0080 C   0  0  0  0  0  0  0  0  0  0  0  0
   47.5070   34.7200   41.6490 C   0  0  0  0  0  0  0  0  0  0  0  0
   48.0420   34.4590   40.4010 C   0  0  0  0  0  0  0  0  0  0  0  0
   47.2370   33.8810   39.4910 N   0  0  0  0  0  0  0  0  0  0  0  0
   45.9770   33.5890   39.8310 C   0  0  0  0  0  0  0  0  0  0  0  0
   45.4530   33.8420   41.0470 N   0  0  0  0  0  0  0  0  0  0  0  0
   44.4760   36.0440   44.9520 C   0  0  0  0  0  0  0  0  0  0  0  0
   44.9520   35.8600   43.6500 C   0  0  0  0  0  0  0  0  0  0  0  0
   45.6860   34.7150   43.3390 C   0  0  0  0  0  0  0  0  0  0  0  0
   45.8980   33.8440   44.3100 N   0  0  0  0  0  0  0  0  0  0  0  0
   45.4400   34.0190   45.5690 C   0  0  0  0  0  0  0  0  0  0  0  0
   44.7320   35.1100   45.8950 N   0  0  0  0  0  0  0  0  0  0  0  0
   41.8170   31.8840   37.6330 C   0  0  0  0  0  0  0  0  0  0  0  0
   40.8770   32.9330   38.2240 C   0  0  0  0  0  0  0  0  0  0  0  0
   39.4260   32.5330   37.9380 C   0  0  1  0  0  0  0  0  0  0  0  0
   38.4130   33.0550   38.9410 C   0  0  0  0  0  0  0  0  0  0  0  0
   38.4550   33.5680   37.5410 C   0  0  2  0  0  0  0  0  0  0  0  0
   37.4130   33.2240   36.6060 N   0  0  0  0  0  0  0  0  0  0  0  0
   46.4352   32.1571   37.4778 H   0  0  0  0  0  0  0  0  0  0  0  0
   44.2112   31.1904   36.2194 H   0  0  0  0  0  0  0  0  0  0  0  0
   48.1571   35.1941   42.3991 H   0  0  0  0  0  0  0  0  0  0  0  0
   49.0849   34.7139   40.1615 H   0  0  0  0  0  0  0  0  0  0  0  0
   43.8966   36.9435   45.2073 H   0  0  0  0  0  0  0  0  0  0  0  0
   44.7488   36.6140   42.8752 H   0  0  0  0  0  0  0  0  0  0  0  0
   45.6503   33.2581   46.3350 H   0  0  0  0  0  0  0  0  0  0  0  0
   41.7039   31.8688   36.5389 H   0  0  0  0  0  0  0  0  0  0  0  0
   41.5635   30.8975   38.0483 H   0  0  0  0  0  0  0  0  0  0  0  0
   41.0333   32.9953   39.3111 H   0  0  0  0  0  0  0  0  0  0  0  0
   41.0854   33.9123   37.7683 H   0  0  0  0  0  0  0  0  0  0  0  0
   39.7080   31.5606   37.5081 H   0  0  0  0  0  0  0  0  0  0  0  0
   37.5812   32.4157   39.2718 H   0  0  0  0  0  0  0  0  0  0  0  0
   38.4599   33.5039   39.9441 H   0  0  0  0  0  0  0  0  0  0  0  0
   38.5271   34.5744   37.1028 H   0  0  0  0  0  0  0  0  0  0  0  0
   36.5668   32.9446   37.1225 H   0  0  0  0  0  0  0  0  0  0  0  0
   37.2002   34.0394   36.0137 H   0  0  0  0  0  0  0  0  0  0  0  0
  1  5  1  0
  1 10  1  0
  2  1  2  0
  3  2  1  0
  3  4  2  0
  4  5  1  0
  6 14  1  0
  7  6  2  0
  8  7  1  0
  9 10  1  0
  9  8  2  0
 10 11  2  0
 11  6  1  0
 12 17  2  0
 13 12  1  0
 14 13  2  0
 14 15  1  0
 15 16  2  0
 16 17  1  0
 18  4  1  0
 18 19  1  0
 20 19  1  0
 20 21  1  0
 22 20  1  0
 22 21  1  0
 23 22  1  0
  2 24  1  0
  3 25  1  0
  7 26  1  0
  8 27  1  0
 12 28  1  0
 13 29  1  0
 16 30  1  0
 18 31  1  0
 18 32  1  0
 19 33  1  0
 19 34  1  0
 20 35  1  6
 21 36  1  0
 21 37  1  0
 22 38  1  1
 23 39  1  0
 23 40  1  0
M  ISO  8  24  14  25  14  26  14  27  14  28  14  29  14  30  14  31   8
M  ISO  8  32   8  33   8  34   8  35  13  36  13  37  13  38  13  39   5
M  ISO  1  40   5
M  END
>  <minimizedAffinity>  (1) 
-5.16996098

>  <minimizedRMSD>  (1) 
0.177885666

$$$$
