
     RDKit          3D

 47 51  0  0  1  0  0  0  0  0999 V2000
   44.7080   32.6490   38.6500 C   0  0  0  0  0  0  0  0  0  0  0  0
   45.0120   32.0160   37.4480 C   0  0  0  0  0  0  0  0  0  0  0  0
   43.8670   31.4510   36.9060 C   0  0  0  0  0  0  0  0  0  0  0  0
   42.8960   31.7900   37.8530 C   0  0  0  0  0  0  0  0  0  0  0  0
   43.4280   32.4730   38.8250 O   0  0  0  0  0  0  0  0  0  0  0  0
   46.0980   34.3060   41.5300 C   0  0  0  0  0  0  0  0  0  0  0  0
   47.3620   34.5670   41.0860 C   0  0  0  0  0  0  0  0  0  0  0  0
   47.8290   34.2170   39.8270 C   0  0  0  0  0  0  0  0  0  0  0  0
   46.9750   33.5830   39.0010 N   0  0  0  0  0  0  0  0  0  0  0  0
   45.7310   33.3200   39.4190 C   0  0  0  0  0  0  0  0  0  0  0  0
   45.2720   33.6580   40.6430 N   0  0  0  0  0  0  0  0  0  0  0  0
   44.6030   36.1850   44.4550 C   0  0  0  0  0  0  0  0  0  0  0  0
   45.0230   35.9210   43.1490 C   0  0  0  0  0  0  0  0  0  0  0  0
   45.6260   34.6810   42.8560 C   0  0  0  0  0  0  0  0  0  0  0  0
   45.7600   33.8300   43.8550 N   0  0  0  0  0  0  0  0  0  0  0  0
   45.3480   34.0960   45.1240 C   0  0  0  0  0  0  0  0  0  0  0  0
   44.7750   35.2650   45.4200 N   0  0  0  0  0  0  0  0  0  0  0  0
   41.4780   31.3700   37.6600 C   0  0  0  0  0  0  0  0  0  0  0  0
   40.5400   32.4130   38.2300 C   0  0  0  0  0  0  0  0  0  0  0  0
   39.1290   32.2310   37.6830 C   0  0  1  0  0  0  0  0  0  0  0  0
   38.0140   32.7200   38.5920 C   0  0  0  0  0  0  0  0  0  0  0  0
   38.3200   33.4200   37.3180 C   0  0  2  0  0  0  0  0  0  0  0  0
   37.3430   33.2490   36.1950 C   0  0  0  0  0  0  0  0  0  0  0  0
   36.1550   33.9570   36.1070 C   0  0  0  0  0  0  0  0  0  0  0  0
   35.2990   33.7480   35.0430 C   0  0  0  0  0  0  0  0  0  0  0  0
   35.6020   32.8350   34.0450 C   0  0  0  0  0  0  0  0  0  0  0  0
   36.8050   32.1370   34.1620 C   0  0  0  0  0  0  0  0  0  0  0  0
   37.6110   32.3700   35.2140 N   0  0  0  0  0  0  0  0  0  0  0  0
   46.0132   31.9706   36.9946 H   0  0  0  0  0  0  0  0  0  0  0  0
   43.7524   30.8824   35.9714 H   0  0  0  0  0  0  0  0  0  0  0  0
   48.0522   35.0861   41.7673 H   0  0  0  0  0  0  0  0  0  0  0  0
   48.8582   34.4487   39.5154 H   0  0  0  0  0  0  0  0  0  0  0  0
   44.1300   37.1488   44.6945 H   0  0  0  0  0  0  0  0  0  0  0  0
   44.8846   36.6726   42.3579 H   0  0  0  0  0  0  0  0  0  0  0  0
   45.4881   33.3419   45.9125 H   0  0  0  0  0  0  0  0  0  0  0  0
   41.2779   31.2504   36.5850 H   0  0  0  0  0  0  0  0  0  0  0  0
   41.3127   30.4159   38.1819 H   0  0  0  0  0  0  0  0  0  0  0  0
   40.5170   32.3167   39.3255 H   0  0  0  0  0  0  0  0  0  0  0  0
   40.9040   33.4097   37.9400 H   0  0  0  0  0  0  0  0  0  0  0  0
   39.3926   31.3041   37.1525 H   0  0  0  0  0  0  0  0  0  0  0  0
   37.0872   32.1360   38.6925 H   0  0  0  0  0  0  0  0  0  0  0  0
   37.9386   33.0155   39.6489 H   0  0  0  0  0  0  0  0  0  0  0  0
   38.5549   34.4612   37.0521 H   0  0  0  0  0  0  0  0  0  0  0  0
   35.8928   34.6875   36.8865 H   0  0  0  0  0  0  0  0  0  0  0  0
   34.3592   34.3169   34.9867 H   0  0  0  0  0  0  0  0  0  0  0  0
   34.9227   32.6676   33.1962 H   0  0  0  0  0  0  0  0  0  0  0  0
   37.0928   31.3999   33.3979 H   0  0  0  0  0  0  0  0  0  0  0  0
  1  5  1  0
  1 10  1  0
  2  1  2  0
  3  2  1  0
  3  4  2  0
  4  5  1  0
  6 14  1  0
  7  6  2  0
  8  7  1  0
  9 10  1  0
  9  8  2  0
 10 11  2  0
 11  6  1  0
 12 17  2  0
 13 12  1  0
 14 13  2  0
 14 15  1  0
 15 16  2  0
 16 17  1  0
 18  4  1  0
 18 19  1  0
 20 19  1  0
 20 21  1  0
 22 20  1  0
 22 21  1  0
 23 22  1  0
 24 23  2  0
 25 24  1  0
 26 27  1  0
 26 25  2  0
 27 28  2  0
 28 23  1  0
  2 29  1  0
  3 30  1  0
  7 31  1  0
  8 32  1  0
 12 33  1  0
 13 34  1  0
 16 35  1  0
 18 36  1  0
 18 37  1  0
 19 38  1  0
 19 39  1  0
 20 40  1  6
 21 41  1  0
 21 42  1  0
 22 43  1  1
 24 44  1  0
 25 45  1  0
 26 46  1  0
 27 47  1  0
M  ISO  8  29  14  30  14  31  14  32  14  33  14  34  14  35  14  36   8
M  ISO  8  37   8  38   8  39   8  40  13  41  13  42  13  43  13  44  14
M  ISO  3  45  14  46  14  47  14
M  END
>  <minimizedAffinity>  (1) 
-5.16176319

>  <minimizedRMSD>  (1) 
0.827049017

$$$$
