
     RDKit          3D

 26 27  0  0  1  0  0  0  0  0999 V2000
   47.4260   34.1280   42.8130 C   0  0  2  0  0  0  0  0  0  0  0  0
   47.3770   34.9700   41.6150 C   0  0  2  0  0  0  0  0  0  0  0  0
   46.7010   34.1540   40.5240 C   0  0  0  0  0  0  0  0  0  0  0  0
   46.1410   32.9070   41.1490 C   0  0  0  0  0  0  0  0  0  0  0  0
   47.0560   32.7000   42.3020 C   0  0  0  0  0  0  0  0  0  0  0  0
   46.4420   34.4100   43.8730 C   0  0  0  0  0  0  0  0  0  0  0  0
   45.5320   35.4670   43.6940 C   0  0  0  0  0  0  0  0  0  0  0  0
   44.5810   35.7270   44.6790 C   0  0  0  0  0  0  0  0  0  0  0  0
   44.6010   34.9150   45.7810 N   0  0  0  0  0  0  0  0  0  0  0  0
   45.4770   33.9110   45.9370 C   0  0  0  0  0  0  0  0  0  0  0  0
   46.3890   33.6670   44.9840 N   0  0  0  0  0  0  0  0  0  0  0  0
   48.7820   35.4010   41.1350 C   0  0  0  0  0  0  0  0  0  0  0  0
   48.7550   35.5930   39.7880 F   0  0  0  0  0  0  0  0  0  0  0  0
   49.6870   34.4600   41.5630 F   0  0  0  0  0  0  0  0  0  0  0  0
   49.1020   36.6010   41.7570 F   0  0  0  0  0  0  0  0  0  0  0  0
   48.4175   34.2851   43.2628 H   0  0  0  0  0  0  0  0  0  0  0  0
   46.8253   35.8927   41.8479 H   0  0  0  0  0  0  0  0  0  0  0  0
   47.4357   33.8853   39.7507 H   0  0  0  0  0  0  0  0  0  0  0  0
   45.8957   34.7390   40.0558 H   0  0  0  0  0  0  0  0  0  0  0  0
   45.1043   33.0589   41.4840 H   0  0  0  0  0  0  0  0  0  0  0  0
   46.0937   32.0496   40.4615 H   0  0  0  0  0  0  0  0  0  0  0  0
   46.5505   32.1286   43.0944 H   0  0  0  0  0  0  0  0  0  0  0  0
   47.9505   32.1295   42.0117 H   0  0  0  0  0  0  0  0  0  0  0  0
   45.5705   36.0836   42.7839 H   0  0  0  0  0  0  0  0  0  0  0  0
   43.8511   36.5435   44.5762 H   0  0  0  0  0  0  0  0  0  0  0  0
   45.4475   33.2894   46.8441 H   0  0  0  0  0  0  0  0  0  0  0  0
  1  6  1  0
  2  1  1  0
  3  4  1  0
  3  2  1  0
  4  5  1  0
  5  1  1  0
  6 11  1  0
  7  6  2  0
  7  8  1  0
  8  9  2  0
  9 10  1  0
 11 10  2  0
 12 14  1  0
 12  2  1  0
 12 15  1  0
 13 12  1  0
  1 16  1  1
  2 17  1  1
  3 18  1  0
  3 19  1  0
  4 20  1  0
  4 21  1  0
  5 22  1  0
  5 23  1  0
  7 24  1  0
  8 25  1  0
 10 26  1  0
M  ISO  8  16  13  17  13  18  13  19  13  20  13  21  13  22  13  23  13
M  ISO  3  24  14  25  14  26  14
M  END
>  <minimizedAffinity>  (1) 
-5.31130505

>  <minimizedRMSD>  (1) 
3.53177381

$$$$
