
     RDKit          3D

 26 27  0  0  0  0  0  0  0  0999 V2000
   45.7890   34.7890   42.7290 C   0  0  0  0  0  0  0  0  0  0  0  0
   45.8490   33.8300   43.7630 C   0  0  0  0  0  0  0  0  0  0  0  0
   45.3240   34.1850   45.0030 C   0  0  0  0  0  0  0  0  0  0  0  0
   44.7850   35.4140   45.1680 N   0  0  0  0  0  0  0  0  0  0  0  0
   44.7450   36.3120   44.1470 C   0  0  0  0  0  0  0  0  0  0  0  0
   45.2420   36.0070   42.9360 N   0  0  0  0  0  0  0  0  0  0  0  0
   46.3470   34.4160   41.4100 C   0  0  0  0  0  0  0  0  0  0  0  0
   47.8230   34.3740   41.3270 C   0  0  0  0  0  0  0  0  0  0  0  0
   48.4690   33.2220   42.0340 C   0  0  0  0  0  0  0  0  0  0  0  0
   49.9270   33.6830   42.0390 C   0  0  0  0  0  0  0  0  0  0  0  0
   49.7720   35.0940   42.5650 C   0  0  0  0  0  0  0  0  0  0  0  0
   48.5770   35.5780   41.7360 C   0  0  0  0  0  0  0  0  0  0  0  0
   46.2943   32.8382   43.5954 H   0  0  0  0  0  0  0  0  0  0  0  0
   45.3476   33.4722   45.8405 H   0  0  0  0  0  0  0  0  0  0  0  0
   44.2989   37.3033   44.3151 H   0  0  0  0  0  0  0  0  0  0  0  0
   45.9654   33.4172   41.1518 H   0  0  0  0  0  0  0  0  0  0  0  0
   46.0299   35.2078   40.7154 H   0  0  0  0  0  0  0  0  0  0  0  0
   47.9001   34.2737   40.2343 H   0  0  0  0  0  0  0  0  0  0  0  0
   48.0776   33.1005   43.0548 H   0  0  0  0  0  0  0  0  0  0  0  0
   48.2990   32.2417   41.5649 H   0  0  0  0  0  0  0  0  0  0  0  0
   50.5450   33.0663   42.7082 H   0  0  0  0  0  0  0  0  0  0  0  0
   50.4324   33.6114   41.0646 H   0  0  0  0  0  0  0  0  0  0  0  0
   49.5480   35.1026   43.6419 H   0  0  0  0  0  0  0  0  0  0  0  0
   50.6738   35.7170   42.4721 H   0  0  0  0  0  0  0  0  0  0  0  0
   48.9287   36.1239   40.8482 H   0  0  0  0  0  0  0  0  0  0  0  0
   47.9426   36.2605   42.3206 H   0  0  0  0  0  0  0  0  0  0  0  0
  1  6  1  0
  1  2  2  0
  2  3  1  0
  3  4  2  0
  5  4  1  0
  6  5  2  0
  7  1  1  0
  8  7  1  0
  8 12  1  0
  8  9  1  0
  9 10  1  0
 10 11  1  0
 12 11  1  0
  2 13  1  0
  3 14  1  0
  5 15  1  0
  7 16  1  0
  7 17  1  0
  8 18  1  0
  9 19  1  0
  9 20  1  0
 10 21  1  0
 10 22  1  0
 11 23  1  0
 11 24  1  0
 12 25  1  0
 12 26  1  0
M  ISO  8  13  14  14  14  15  14  16   8  17   8  18  13  19  13  20  13
M  ISO  6  21  13  22  13  23  13  24  13  25  13  26  13
M  END
>  <minimizedAffinity>  (1) 
-4.4525528

>  <minimizedRMSD>  (1) 
1.08990395

$$$$
