
     RDKit          3D

 21 22  0  0  0  0  0  0  0  0999 V2000
   46.6160   34.6290   41.6290 C   0  0  0  0  0  0  0  0  0  0  0  0
   45.9380   34.8830   42.9300 C   0  0  0  0  0  0  0  0  0  0  0  0
   46.0040   33.8800   43.8980 C   0  0  0  0  0  0  0  0  0  0  0  0
   45.3730   34.1010   45.1260 C   0  0  0  0  0  0  0  0  0  0  0  0
   44.7240   35.2930   45.3110 N   0  0  0  0  0  0  0  0  0  0  0  0
   44.6860   36.2360   44.3440 C   0  0  0  0  0  0  0  0  0  0  0  0
   45.2840   36.0510   43.1540 N   0  0  0  0  0  0  0  0  0  0  0  0
   48.0330   34.2570   41.8560 C   0  0  0  0  0  0  0  0  0  0  0  0
   48.9860   35.1290   42.3930 C   0  0  0  0  0  0  0  0  0  0  0  0
   50.2660   34.6380   42.5460 C   0  0  0  0  0  0  0  0  0  0  0  0
   50.6000   33.3640   42.1950 N   0  0  0  0  0  0  0  0  0  0  0  0
   49.6430   32.5400   41.6740 C   0  0  0  0  0  0  0  0  0  0  0  0
   48.3890   33.0030   41.5180 N   0  0  0  0  0  0  0  0  0  0  0  0
   46.5732   35.5392   41.0128 H   0  0  0  0  0  0  0  0  0  0  0  0
   46.1055   33.8026   41.1127 H   0  0  0  0  0  0  0  0  0  0  0  0
   46.5389   32.9394   43.7000 H   0  0  0  0  0  0  0  0  0  0  0  0
   45.3970   33.3401   45.9200 H   0  0  0  0  0  0  0  0  0  0  0  0
   44.1524   37.1787   44.5351 H   0  0  0  0  0  0  0  0  0  0  0  0
   48.7266   36.1587   42.6800 H   0  0  0  0  0  0  0  0  0  0  0  0
   51.0420   35.2957   42.9647 H   0  0  0  0  0  0  0  0  0  0  0  0
   49.8947   31.5089   41.3850 H   0  0  0  0  0  0  0  0  0  0  0  0
  1  8  1  0
  1  2  1  0
  2  7  1  0
  2  3  2  0
  3  4  1  0
  4  5  2  0
  6  5  1  0
  7  6  2  0
  8  9  2  0
  9 10  1  0
 11 10  2  0
 12 11  1  0
 13 12  2  0
 13  8  1  0
  1 14  1  0
  1 15  1  0
  3 16  1  0
  4 17  1  0
  6 18  1  0
  9 19  1  0
 10 20  1  0
 12 21  1  0
M  ISO  8  14   8  15   8  16  14  17  14  18  14  19  14  20  14  21  14
M  END
>  <minimizedAffinity>  (1) 
-4.24094677

>  <minimizedRMSD>  (1) 
1.65488589

$$$$
