
     RDKit          3D

 18 19  0  0  0  0  0  0  0  0999 V2000
   45.8710   34.3850   43.5200 C   0  0  0  0  0  0  0  0  0  0  0  0
   45.9890   33.6160   44.6950 C   0  0  0  0  0  0  0  0  0  0  0  0
   45.3220   34.0850   45.8350 C   0  0  0  0  0  0  0  0  0  0  0  0
   44.6080   35.2380   45.7500 N   0  0  0  0  0  0  0  0  0  0  0  0
   44.5270   35.9380   44.6000 C   0  0  0  0  0  0  0  0  0  0  0  0
   45.1460   35.5340   43.4780 N   0  0  0  0  0  0  0  0  0  0  0  0
   46.5750   33.9020   42.2950 C   0  0  0  0  0  0  0  0  0  0  0  0
   47.9630   34.4380   42.2930 C   0  0  0  0  0  0  0  0  0  0  0  0
   48.2950   35.6100   41.7420 N   0  0  0  0  0  0  0  0  0  0  0  0
   49.5660   35.7930   41.9030 O   0  0  0  0  0  0  0  0  0  0  0  0
   50.0650   34.7540   42.5520 C   0  0  0  0  0  0  0  0  0  0  0  0
   49.0750   33.8540   42.8260 N   0  0  0  0  0  0  0  0  0  0  0  0
   46.5790   32.6879   44.7165 H   0  0  0  0  0  0  0  0  0  0  0  0
   45.3756   33.5290   46.7826 H   0  0  0  0  0  0  0  0  0  0  0  0
   43.9372   36.8663   44.5801 H   0  0  0  0  0  0  0  0  0  0  0  0
   46.6040   32.8024   42.2953 H   0  0  0  0  0  0  0  0  0  0  0  0
   46.0409   34.2480   41.3978 H   0  0  0  0  0  0  0  0  0  0  0  0
   51.1223   34.6327   42.8302 H   0  0  0  0  0  0  0  0  0  0  0  0
  1  2  2  0
  2  3  1  0
  4  3  2  0
  5  4  1  0
  6  1  1  0
  6  5  2  0
  7  1  1  0
  8  7  1  0
  8 12  1  0
  9 10  1  0
  9  8  2  0
 10 11  1  0
 11 12  2  0
  2 13  1  0
  3 14  1  0
  5 15  1  0
  7 16  1  0
  7 17  1  0
 11 18  1  0
M  ISO  6  13  14  14  14  15  14  16   8  17   8  18  14
M  END
>  <minimizedAffinity>  (1) 
-4.03920746

>  <minimizedRMSD>  (1) 
0.951635957

$$$$
