
     RDKit          3D

 28 29  0  0  0  0  0  0  0  0999 V2000
   47.0960   33.8790   42.5210 C   0  0  0  0  0  0  0  0  0  0  0  0
   46.1970   34.4260   43.5670 C   0  0  0  0  0  0  0  0  0  0  0  0
   46.0610   33.7220   44.7710 C   0  0  0  0  0  0  0  0  0  0  0  0
   45.2090   34.2490   45.7500 C   0  0  0  0  0  0  0  0  0  0  0  0
   44.5630   35.4100   45.4830 N   0  0  0  0  0  0  0  0  0  0  0  0
   44.7200   36.0630   44.3090 C   0  0  0  0  0  0  0  0  0  0  0  0
   45.5300   35.5910   43.3380 N   0  0  0  0  0  0  0  0  0  0  0  0
   46.8820   34.4100   41.2120 N   0  0  0  0  0  0  0  0  0  0  0  0
   47.9990   34.8100   40.4790 C   0  0  0  0  0  0  0  0  0  0  0  0
   48.2580   34.1770   39.1630 C   0  0  0  0  0  0  0  0  0  0  0  0
   47.0760   33.4780   38.5520 C   0  0  0  0  0  0  0  0  0  0  0  0
   46.3710   32.7020   39.6410 C   0  0  0  0  0  0  0  0  0  0  0  0
   45.8000   33.7870   40.5500 C   0  0  0  0  0  0  0  0  0  0  0  0
   48.1339   34.0964   42.8134 H   0  0  0  0  0  0  0  0  0  0  0  0
   46.8803   32.8022   42.4583 H   0  0  0  0  0  0  0  0  0  0  0  0
   46.6074   32.7828   44.9423 H   0  0  0  0  0  0  0  0  0  0  0  0
   45.0678   33.7334   46.7114 H   0  0  0  0  0  0  0  0  0  0  0  0
   44.1736   37.0028   44.1413 H   0  0  0  0  0  0  0  0  0  0  0  0
   47.8991   35.8912   40.3029 H   0  0  0  0  0  0  0  0  0  0  0  0
   48.8501   34.4904   41.0983 H   0  0  0  0  0  0  0  0  0  0  0  0
   48.5887   34.9612   38.4661 H   0  0  0  0  0  0  0  0  0  0  0  0
   49.0176   33.4010   39.3387 H   0  0  0  0  0  0  0  0  0  0  0  0
   46.3885   34.2191   38.1182 H   0  0  0  0  0  0  0  0  0  0  0  0
   47.4080   32.7971   37.7544 H   0  0  0  0  0  0  0  0  0  0  0  0
   45.5671   32.0796   39.2210 H   0  0  0  0  0  0  0  0  0  0  0  0
   47.0413   32.0108   40.1729 H   0  0  0  0  0  0  0  0  0  0  0  0
   45.2521   34.5281   39.9495 H   0  0  0  0  0  0  0  0  0  0  0  0
   45.1037   33.3490   41.2803 H   0  0  0  0  0  0  0  0  0  0  0  0
  1  2  1  0
  2  3  2  0
  3  4  1  0
  5  4  2  0
  6  5  1  0
  7  2  1  0
  7  6  2  0
  8  1  1  0
  9  8  1  0
 10  9  1  0
 11 10  1  0
 11 12  1  0
 12 13  1  0
 13  8  1  0
  1 14  1  0
  1 15  1  0
  3 16  1  0
  4 17  1  0
  6 18  1  0
  9 19  1  0
  9 20  1  0
 10 21  1  0
 10 22  1  0
 11 23  1  0
 11 24  1  0
 12 25  1  0
 12 26  1  0
 13 27  1  0
 13 28  1  0
M  ISO  8  14   8  15   8  16  14  17  14  18  14  19  13  20  13  21  13
M  ISO  7  22  13  23  13  24  13  25  13  26  13  27  13  28  13
M  END
>  <minimizedAffinity>  (1) 
-3.94149637

>  <minimizedRMSD>  (1) 
1.5260843

$$$$
