
     RDKit          3D

 25 26  0  0  0  0  0  0  0  0999 V2000
   46.3010   34.0850   44.0560 C   0  0  0  0  0  0  0  0  0  0  0  0
   45.6340   34.1560   45.2840 C   0  0  0  0  0  0  0  0  0  0  0  0
   44.6960   35.1710   45.4720 C   0  0  0  0  0  0  0  0  0  0  0  0
   44.4770   36.0350   44.4550 N   0  0  0  0  0  0  0  0  0  0  0  0
   45.1390   35.9410   43.2770 C   0  0  0  0  0  0  0  0  0  0  0  0
   46.0510   34.9770   43.0590 N   0  0  0  0  0  0  0  0  0  0  0  0
   47.3020   33.0100   43.8440 C   0  0  0  0  0  0  0  0  0  0  0  0
   48.2560   33.2290   42.8670 N   0  0  0  0  0  0  0  0  0  0  0  0
   49.1680   34.2730   42.9390 C   0  0  0  0  0  0  0  0  0  0  0  0
   50.4290   33.6330   42.3400 C   0  0  0  0  0  0  0  0  0  0  0  0
   49.8180   32.7420   41.2770 C   0  0  0  0  0  0  0  0  0  0  0  0
   48.3950   32.4290   41.7430 C   0  0  0  0  0  0  0  0  0  0  0  0
   45.8444   33.4287   46.0820 H   0  0  0  0  0  0  0  0  0  0  0  0
   44.1492   35.2661   46.4217 H   0  0  0  0  0  0  0  0  0  0  0  0
   44.9259   36.6695   42.4808 H   0  0  0  0  0  0  0  0  0  0  0  0
   47.8305   32.8552   44.7962 H   0  0  0  0  0  0  0  0  0  0  0  0
   46.7231   32.1437   43.4914 H   0  0  0  0  0  0  0  0  0  0  0  0
   48.8359   35.1363   42.3436 H   0  0  0  0  0  0  0  0  0  0  0  0
   49.3104   34.6699   43.9550 H   0  0  0  0  0  0  0  0  0  0  0  0
   51.0965   34.3886   41.9001 H   0  0  0  0  0  0  0  0  0  0  0  0
   51.0615   33.1046   43.0686 H   0  0  0  0  0  0  0  0  0  0  0  0
   50.3992   31.8133   41.1787 H   0  0  0  0  0  0  0  0  0  0  0  0
   49.8166   33.2363   40.2943 H   0  0  0  0  0  0  0  0  0  0  0  0
   47.6577   32.6975   40.9721 H   0  0  0  0  0  0  0  0  0  0  0  0
   48.2286   31.3608   41.9459 H   0  0  0  0  0  0  0  0  0  0  0  0
  1  2  2  0
  2  3  1  0
  4  3  2  0
  5  4  1  0
  6  5  2  0
  6  1  1  0
  7  1  1  0
  8  9  1  0
  8  7  1  0
 10  9  1  0
 11 12  1  0
 11 10  1  0
 12  8  1  0
  2 13  1  0
  3 14  1  0
  5 15  1  0
  7 16  1  0
  7 17  1  0
  9 18  1  0
  9 19  1  0
 10 20  1  0
 10 21  1  0
 11 22  1  0
 11 23  1  0
 12 24  1  0
 12 25  1  0
M  ISO  8  13  14  14  14  15  14  16   8  17   8  18  13  19  13  20  13
M  ISO  5  21  13  22  13  23  13  24  13  25  13
M  END
>  <minimizedAffinity>  (1) 
-3.78818631

>  <minimizedRMSD>  (1) 
2.90491414

$$$$
