
     RDKit          3D

 32 33  0  0  1  0  0  0  0  0999 V2000
   47.5970   34.6840   41.5400 C   0  0  2  0  0  0  0  0  0  0  0  0
   48.3580   33.4400   41.4230 C   0  0  2  0  0  0  0  0  0  0  0  0
   49.7610   33.7120   41.9620 C   0  0  0  0  0  0  0  0  0  0  0  0
   49.7670   35.0920   42.5530 C   0  0  0  0  0  0  0  0  0  0  0  0
   48.6800   35.7760   41.8060 C   0  0  0  0  0  0  0  0  0  0  0  0
   46.6520   34.8040   42.6590 C   0  0  0  0  0  0  0  0  0  0  0  0
   46.6410   33.8020   43.6420 C   0  0  0  0  0  0  0  0  0  0  0  0
   45.7710   33.9080   44.7260 C   0  0  0  0  0  0  0  0  0  0  0  0
   44.9610   35.0210   44.7540 N   0  0  0  0  0  0  0  0  0  0  0  0
   44.9870   35.9680   43.8040 C   0  0  0  0  0  0  0  0  0  0  0  0
   45.8330   35.8560   42.7590 N   0  0  0  0  0  0  0  0  0  0  0  0
   48.4430   32.9170   39.9910 C   0  0  0  0  0  0  0  0  0  0  0  0
   47.6140   31.6440   39.8890 C   0  0  0  0  0  0  0  0  0  0  0  0
   47.7870   33.8960   39.0420 C   0  0  0  0  0  0  0  0  0  0  0  0
   46.9859   34.7579   40.6283 H   0  0  0  0  0  0  0  0  0  0  0  0
   47.8405   32.6583   41.9985 H   0  0  0  0  0  0  0  0  0  0  0  0
   50.0142   32.9725   42.7360 H   0  0  0  0  0  0  0  0  0  0  0  0
   50.5038   33.6372   41.1541 H   0  0  0  0  0  0  0  0  0  0  0  0
   49.5489   35.0622   43.6307 H   0  0  0  0  0  0  0  0  0  0  0  0
   50.7398   35.5982   42.4662 H   0  0  0  0  0  0  0  0  0  0  0  0
   49.0616   36.1770   40.8554 H   0  0  0  0  0  0  0  0  0  0  0  0
   48.2697   36.6245   42.3732 H   0  0  0  0  0  0  0  0  0  0  0  0
   47.3157   32.9373   43.5573 H   0  0  0  0  0  0  0  0  0  0  0  0
   45.7336   33.1438   45.5163 H   0  0  0  0  0  0  0  0  0  0  0  0
   44.3172   36.8375   43.8772 H   0  0  0  0  0  0  0  0  0  0  0  0
   49.5027   32.7597   39.7412 H   0  0  0  0  0  0  0  0  0  0  0  0
   47.3764   31.2792   40.8992 H   0  0  0  0  0  0  0  0  0  0  0  0
   46.6807   31.8567   39.3471 H   0  0  0  0  0  0  0  0  0  0  0  0
   48.1859   30.8764   39.3471 H   0  0  0  0  0  0  0  0  0  0  0  0
   47.2659   34.6736   39.6198 H   0  0  0  0  0  0  0  0  0  0  0  0
   48.5552   34.3630   38.4082 H   0  0  0  0  0  0  0  0  0  0  0  0
   47.0629   33.3631   38.4082 H   0  0  0  0  0  0  0  0  0  0  0  0
  1  5  1  0
  1  6  1  0
  2  1  1  0
  2  3  1  0
  3  4  1  0
  5  4  1  0
  6 11  1  0
  6  7  2  0
  7  8  1  0
  8  9  2  0
 10  9  1  0
 11 10  2  0
 12  2  1  0
 13 12  1  0
 14 12  1  0
  1 15  1  6
  2 16  1  1
  3 17  1  0
  3 18  1  0
  4 19  1  0
  4 20  1  0
  5 21  1  0
  5 22  1  0
  7 23  1  0
  8 24  1  0
 10 25  1  0
 12 26  1  0
 13 27  1  0
 13 28  1  0
 13 29  1  0
 14 30  1  0
 14 31  1  0
 14 32  1  0
M  ISO  8  15  13  16  13  17  13  18  13  19  13  20  13  21  13  22  13
M  ISO  8  23  14  24  14  25  14  26   8  27   8  28   8  29   8  30   8
M  ISO  2  31   8  32   8
M  END
>  <minimizedAffinity>  (1) 
-4.6692996

>  <minimizedRMSD>  (1) 
3.21856976

$$$$
