
     RDKit          3D

 23 24  0  0  0  0  0  0  0  0999 V2000
   44.9740   34.5940   42.8980 C   0  0  0  0  0  0  0  0  0  0  0  0
   46.1230   34.5850   41.9540 C   0  0  0  0  0  0  0  0  0  0  0  0
   47.2820   35.2750   42.3280 C   0  0  0  0  0  0  0  0  0  0  0  0
   48.3640   35.2700   41.4480 C   0  0  0  0  0  0  0  0  0  0  0  0
   48.2460   34.5960   40.2670 N   0  0  0  0  0  0  0  0  0  0  0  0
   47.1000   33.9360   39.9390 C   0  0  0  0  0  0  0  0  0  0  0  0
   46.0480   33.9290   40.7720 N   0  0  0  0  0  0  0  0  0  0  0  0
   45.3120   33.8990   44.1470 N   0  0  0  0  0  0  0  0  0  0  0  0
   45.8320   32.6620   44.2180 C   0  0  0  0  0  0  0  0  0  0  0  0
   46.1000   32.1350   45.4840 C   0  0  0  0  0  0  0  0  0  0  0  0
   45.8300   32.8830   46.6130 C   0  0  0  0  0  0  0  0  0  0  0  0
   46.0650   32.4270   47.7620 O   0  0  0  0  0  0  0  0  0  0  0  0
   45.3090   34.1230   46.5190 N   0  0  0  0  0  0  0  0  0  0  0  0
   45.0700   34.5820   45.2790 C   0  0  0  0  0  0  0  0  0  0  0  0
   44.5780   35.7570   45.2520 O   0  0  0  0  0  0  0  0  0  0  0  0
   44.1174   34.0899   42.4266 H   0  0  0  0  0  0  0  0  0  0  0  0
   44.7243   35.6387   43.1354 H   0  0  0  0  0  0  0  0  0  0  0  0
   47.3379   35.8065   43.2894 H   0  0  0  0  0  0  0  0  0  0  0  0
   49.2946   35.7991   41.7009 H   0  0  0  0  0  0  0  0  0  0  0  0
   47.0364   33.4022   38.9793 H   0  0  0  0  0  0  0  0  0  0  0  0
   46.0404   32.0818   43.3070 H   0  0  0  0  0  0  0  0  0  0  0  0
   46.5256   31.1253   45.5813 H   0  0  0  0  0  0  0  0  0  0  0  0
   45.1047   34.6893   47.3547 H   0  0  0  0  0  0  0  0  0  0  0  0
  1  8  1  0
  2  3  2  0
  2  1  1  0
  4  3  1  0
  5  4  2  0
  6  5  1  0
  6  7  2  0
  7  2  1  0
  8  9  1  0
  8 14  1  0
  9 10  2  0
 10 11  1  0
 11 12  2  0
 13 11  1  0
 14 13  1  0
 15 14  2  0
  1 16  1  0
  1 17  1  0
  3 18  1  0
  4 19  1  0
  6 20  1  0
  9 21  1  0
 10 22  1  0
 13 23  1  0
M  ISO  8  16   8  17   8  18  14  19  14  20  14  21  14  22  14  23   9
M  END
>  <minimizedAffinity>  (1) 
-4.67298031

>  <minimizedRMSD>  (1) 
5.66758633

$$$$
