
     RDKit          3D

 26 27  0  0  0  0  0  0  0  0999 V2000
   45.9540   34.8200   43.4620 C   0  0  0  0  0  0  0  0  0  0  0  0
   46.2630   33.6860   44.3470 N   0  0  0  0  0  0  0  0  0  0  0  0
   47.0490   32.6720   43.9900 C   0  0  0  0  0  0  0  0  0  0  0  0
   47.2800   31.6420   44.9040 C   0  0  0  0  0  0  0  0  0  0  0  0
   46.6800   31.7100   46.1570 C   0  0  0  0  0  0  0  0  0  0  0  0
   46.8640   30.7990   47.0090 O   0  0  0  0  0  0  0  0  0  0  0  0
   45.8820   32.7510   46.5020 N   0  0  0  0  0  0  0  0  0  0  0  0
   45.7170   33.6880   45.5700 C   0  0  0  0  0  0  0  0  0  0  0  0
   44.9560   34.6570   45.9320 O   0  0  0  0  0  0  0  0  0  0  0  0
   45.2610   32.8090   47.8130 C   0  0  0  0  0  0  0  0  0  0  0  0
   46.7360   34.7460   42.1970 C   0  0  0  0  0  0  0  0  0  0  0  0
   47.9560   35.4070   42.1270 C   0  0  0  0  0  0  0  0  0  0  0  0
   48.6760   35.3230   40.9340 C   0  0  0  0  0  0  0  0  0  0  0  0
   48.1510   34.6010   39.8970 N   0  0  0  0  0  0  0  0  0  0  0  0
   46.9570   33.9760   40.0170 C   0  0  0  0  0  0  0  0  0  0  0  0
   46.2480   34.0370   41.1420 N   0  0  0  0  0  0  0  0  0  0  0  0
   44.8807   34.8051   43.2215 H   0  0  0  0  0  0  0  0  0  0  0  0
   46.2225   35.7509   43.9829 H   0  0  0  0  0  0  0  0  0  0  0  0
   47.5089   32.6463   42.9911 H   0  0  0  0  0  0  0  0  0  0  0  0
   47.9251   30.7917   44.6378 H   0  0  0  0  0  0  0  0  0  0  0  0
   46.0366   32.7366   48.5896 H   0  0  0  0  0  0  0  0  0  0  0  0
   44.7215   33.7614   47.9213 H   0  0  0  0  0  0  0  0  0  0  0  0
   44.5544   31.9729   47.9213 H   0  0  0  0  0  0  0  0  0  0  0  0
   48.3422   35.9782   42.9841 H   0  0  0  0  0  0  0  0  0  0  0  0
   49.6476   35.8280   40.8295 H   0  0  0  0  0  0  0  0  0  0  0  0
   46.5627   33.4037   39.1644 H   0  0  0  0  0  0  0  0  0  0  0  0
  1  2  1  0
  2  8  1  0
  3  2  1  0
  3  4  2  0
  4  5  1  0
  5  7  1  0
  5  6  2  0
  7 10  1  0
  8  9  2  0
  8  7  1  0
 11  1  1  0
 12 11  2  0
 13 12  1  0
 14 15  1  0
 14 13  2  0
 15 16  2  0
 16 11  1  0
  1 17  1  0
  1 18  1  0
  3 19  1  0
  4 20  1  0
 10 21  1  0
 10 22  1  0
 10 23  1  0
 12 24  1  0
 13 25  1  0
 15 26  1  0
M  ISO  8  17   8  18   8  19  14  20  14  21   8  22   8  23   8  24  14
M  ISO  2  25  14  26  14
M  END
>  <minimizedAffinity>  (1) 
-4.53956747

>  <minimizedRMSD>  (1) 
1.21093261

$$$$
