
     RDKit          3D

 30 32  0  0  0  0  0  0  0  0999 V2000
   46.3960   32.3500   43.8750 N   0  0  0  0  0  0  0  0  0  0  0  0
   45.1300   32.1790   43.5070 C   0  0  0  0  0  0  0  0  0  0  0  0
   44.5790   33.0280   42.5410 C   0  0  0  0  0  0  0  0  0  0  0  0
   45.3770   34.0280   41.9950 C   0  0  0  0  0  0  0  0  0  0  0  0
   44.9250   34.8170   41.1210 O   0  0  0  0  0  0  0  0  0  0  0  0
   46.6540   34.1780   42.3860 N   0  0  0  0  0  0  0  0  0  0  0  0
   47.1090   33.3280   43.3140 C   0  0  0  0  0  0  0  0  0  0  0  0
   48.3330   33.5150   43.6510 O   0  0  0  0  0  0  0  0  0  0  0  0
   47.0560   31.5160   44.8710 C   0  0  0  0  0  0  0  0  0  0  0  0
   46.2870   31.4580   46.1480 C   0  0  0  0  0  0  0  0  0  0  0  0
   46.2220   32.6110   46.9190 C   0  0  0  0  0  0  0  0  0  0  0  0
   45.4990   32.5380   48.1110 C   0  0  0  0  0  0  0  0  0  0  0  0
   44.9020   31.3700   48.4600 N   0  0  0  0  0  0  0  0  0  0  0  0
   44.9930   30.2660   47.6740 C   0  0  0  0  0  0  0  0  0  0  0  0
   45.6770   30.3120   46.5320 N   0  0  0  0  0  0  0  0  0  0  0  0
   47.4610   35.2180   41.8080 C   0  0  0  0  0  0  0  0  0  0  0  0
   48.1570   34.7870   40.5110 C   0  0  0  0  0  0  0  0  0  0  0  0
   48.9180   35.1880   41.7490 C   0  0  0  0  0  0  0  0  0  0  0  0
   44.5229   31.3795   43.9567 H   0  0  0  0  0  0  0  0  0  0  0  0
   43.5341   32.9069   42.2193 H   0  0  0  0  0  0  0  0  0  0  0  0
   47.1569   30.4965   44.4703 H   0  0  0  0  0  0  0  0  0  0  0  0
   48.0402   31.9575   45.0863 H   0  0  0  0  0  0  0  0  0  0  0  0
   46.7183   33.5409   46.6044 H   0  0  0  0  0  0  0  0  0  0  0  0
   45.4138   33.4203   48.7624 H   0  0  0  0  0  0  0  0  0  0  0  0
   44.5006   29.3316   47.9813 H   0  0  0  0  0  0  0  0  0  0  0  0
   46.7810   35.9998   42.1772 H   0  0  0  0  0  0  0  0  0  0  0  0
   48.1448   35.4423   39.6276 H   0  0  0  0  0  0  0  0  0  0  0  0
   48.1264   33.9098   39.8480 H   0  0  0  0  0  0  0  0  0  0  0  0
   49.4696   34.4258   42.3188 H   0  0  0  0  0  0  0  0  0  0  0  0
   49.7067   35.9264   41.9557 H   0  0  0  0  0  0  0  0  0  0  0  0
  1  9  1  0
  2  1  1  0
  3  2  2  0
  4  6  1  0
  4  3  1  0
  5  4  2  0
  6  7  1  0
  7  8  2  0
  7  1  1  0
  9 10  1  0
 10 15  1  0
 10 11  2  0
 11 12  1  0
 12 13  2  0
 14 13  1  0
 15 14  2  0
 16  6  1  0
 17 18  1  0
 17 16  1  0
 18 16  1  0
  2 19  1  0
  3 20  1  0
  9 21  1  0
  9 22  1  0
 11 23  1  0
 12 24  1  0
 14 25  1  0
 16 26  1  0
 17 27  1  0
 17 28  1  0
 18 29  1  0
 18 30  1  0
M  ISO  8  19  14  20  14  21   8  22   8  23  14  24  14  25  14  26  13
M  ISO  4  27  13  28  13  29  13  30  13
M  END
>  <minimizedAffinity>  (1) 
-4.48285055

>  <minimizedRMSD>  (1) 
6.13199186

$$$$
