
     RDKit          3D

 38 40  0  0  1  0  0  0  0  0999 V2000
   44.4060   34.0790   41.7970 N   0  0  0  0  0  0  0  0  0  0  0  0
   44.6600   35.0550   42.6650 C   0  0  0  0  0  0  0  0  0  0  0  0
   45.9840   35.5430   42.7620 C   0  0  0  0  0  0  0  0  0  0  0  0
   46.9590   35.0040   41.9680 C   0  0  0  0  0  0  0  0  0  0  0  0
   48.1310   35.4220   42.0420 O   0  0  0  0  0  0  0  0  0  0  0  0
   46.6760   34.0220   41.1030 N   0  0  0  0  0  0  0  0  0  0  0  0
   45.4060   33.5940   41.0480 C   0  0  0  0  0  0  0  0  0  0  0  0
   45.1710   32.6640   40.2170 O   0  0  0  0  0  0  0  0  0  0  0  0
   43.0760   33.5120   41.6240 C   0  0  0  0  0  0  0  0  0  0  0  0
   42.1850   34.4060   40.8340 C   0  0  0  0  0  0  0  0  0  0  0  0
   41.2240   35.1380   41.5110 C   0  0  0  0  0  0  0  0  0  0  0  0
   40.4000   35.9690   40.7600 C   0  0  0  0  0  0  0  0  0  0  0  0
   40.5720   36.0260   39.4070 N   0  0  0  0  0  0  0  0  0  0  0  0
   41.5210   35.2940   38.7960 C   0  0  0  0  0  0  0  0  0  0  0  0
   42.3220   34.4930   39.4880 N   0  0  0  0  0  0  0  0  0  0  0  0
   47.7010   33.4370   40.2460 C   0  0  2  0  0  0  0  0  0  0  0  0
   48.9260   33.0050   40.9780 C   0  0  0  0  0  0  0  0  0  0  0  0
   48.1260   34.3690   39.1370 C   0  0  0  0  0  0  0  0  0  0  0  0
   47.9870   33.7440   37.8290 N   0  0  0  0  0  0  0  0  0  0  0  0
   46.8840   33.1920   37.2910 C   0  0  0  0  0  0  0  0  0  0  0  0
   47.2200   32.7370   36.0640 N   0  0  0  0  0  0  0  0  0  0  0  0
   48.5280   33.0040   35.8390 C   0  0  0  0  0  0  0  0  0  0  0  0
   48.9710   33.6280   36.9530 N   0  0  0  0  0  0  0  0  0  0  0  0
   43.8589   35.4726   43.2926 H   0  0  0  0  0  0  0  0  0  0  0  0
   46.2276   36.3490   43.4698 H   0  0  0  0  0  0  0  0  0  0  0  0
   43.1663   32.5487   41.1007 H   0  0  0  0  0  0  0  0  0  0  0  0
   42.6298   33.3839   42.6212 H   0  0  0  0  0  0  0  0  0  0  0  0
   41.1164   35.0647   42.6033 H   0  0  0  0  0  0  0  0  0  0  0  0
   39.6207   36.5718   41.2492 H   0  0  0  0  0  0  0  0  0  0  0  0
   41.6352   35.3604   37.7040 H   0  0  0  0  0  0  0  0  0  0  0  0
   47.2116   32.5461   39.8255 H   0  0  0  0  0  0  0  0  0  0  0  0
   48.7471   33.0681   42.0615 H   0  0  0  0  0  0  0  0  0  0  0  0
   49.1686   31.9671   40.7063 H   0  0  0  0  0  0  0  0  0  0  0  0
   49.7660   33.6611   40.7063 H   0  0  0  0  0  0  0  0  0  0  0  0
   47.4988   35.2721   39.1696 H   0  0  0  0  0  0  0  0  0  0  0  0
   49.1861   34.6214   39.2869 H   0  0  0  0  0  0  0  0  0  0  0  0
   45.8926   33.1238   37.7627 H   0  0  0  0  0  0  0  0  0  0  0  0
   49.1095   32.7631   34.9369 H   0  0  0  0  0  0  0  0  0  0  0  0
  1  2  1  0
  2  3  2  0
  4  5  2  0
  4  3  1  0
  6  4  1  0
  7  6  1  0
  7  1  1  0
  8  7  2  0
  9  1  1  0
 10 11  2  0
 10  9  1  0
 12 11  1  0
 13 12  2  0
 14 13  1  0
 14 15  2  0
 15 10  1  0
 16 17  1  0
 16  6  1  0
 18 16  1  0
 19 18  1  0
 20 19  1  0
 21 20  2  0
 22 21  1  0
 22 23  2  0
 23 19  1  0
  2 24  1  0
  3 25  1  0
  9 26  1  0
  9 27  1  0
 11 28  1  0
 12 29  1  0
 14 30  1  0
 16 31  1  6
 17 32  1  0
 17 33  1  0
 17 34  1  0
 18 35  1  0
 18 36  1  0
 20 37  1  0
 22 38  1  0
M  ISO  8  24  14  25  14  26   8  27   8  28  14  29  14  30  14  31   8
M  ISO  7  32   8  33   8  34   8  35   8  36   8  37  14  38  14
M  END
>  <minimizedAffinity>  (1) 
-4.99290705

>  <minimizedRMSD>  (1) 
8.6631794

$$$$
