
     RDKit          3D

 39 40  0  0  1  0  0  0  0  0999 V2000
   45.3990   32.4170   43.8480 N   0  0  0  0  0  0  0  0  0  0  0  0
   44.7580   31.6920   42.9410 C   0  0  0  0  0  0  0  0  0  0  0  0
   44.5810   30.3210   43.1790 C   0  0  0  0  0  0  0  0  0  0  0  0
   45.0690   29.7580   44.3390 C   0  0  0  0  0  0  0  0  0  0  0  0
   44.9150   28.5410   44.5590 O   0  0  0  0  0  0  0  0  0  0  0  0
   45.7090   30.5180   45.2330 N   0  0  0  0  0  0  0  0  0  0  0  0
   45.8520   31.8200   44.9570 C   0  0  0  0  0  0  0  0  0  0  0  0
   46.4730   32.5020   45.8440 O   0  0  0  0  0  0  0  0  0  0  0  0
   45.6340   33.8480   43.6900 C   0  0  0  0  0  0  0  0  0  0  0  0
   46.7360   34.1260   42.7180 C   0  0  0  0  0  0  0  0  0  0  0  0
   48.0290   34.2280   43.1880 C   0  0  0  0  0  0  0  0  0  0  0  0
   49.0320   34.4860   42.2620 C   0  0  0  0  0  0  0  0  0  0  0  0
   48.6960   34.6260   40.9470 N   0  0  0  0  0  0  0  0  0  0  0  0
   47.4200   34.5190   40.5300 C   0  0  0  0  0  0  0  0  0  0  0  0
   46.4420   34.2710   41.3980 N   0  0  0  0  0  0  0  0  0  0  0  0
   46.2310   29.9460   46.4720 C   0  0  2  0  0  0  0  0  0  0  0  0
   47.2040   28.8400   46.2750 C   0  0  0  0  0  0  0  0  0  0  0  0
   45.1360   29.4290   47.3800 C   0  0  0  0  0  0  0  0  0  0  0  0
   45.2960   29.9110   48.7400 N   0  0  0  0  0  0  0  0  0  0  0  0
   45.0320   31.3140   48.9060 C   0  0  0  0  0  0  0  0  0  0  0  0
   44.2490   31.9240   48.0920 N   0  0  0  0  0  0  0  0  0  0  0  0
   45.6170   32.0890   49.9640 N   0  0  0  0  0  0  0  0  0  0  0  0
   44.0370   32.9400   48.1850 H   0  0  0  0  0  0  0  0  0  0  0  0
   44.3731   32.1563   42.0211 H   0  0  0  0  0  0  0  0  0  0  0  0
   44.0543   29.6968   42.4421 H   0  0  0  0  0  0  0  0  0  0  0  0
   44.7105   34.3224   43.3265 H   0  0  0  0  0  0  0  0  0  0  0  0
   45.9297   34.2559   44.6679 H   0  0  0  0  0  0  0  0  0  0  0  0
   48.2576   34.1093   44.2574 H   0  0  0  0  0  0  0  0  0  0  0  0
   50.0800   34.5760   42.5837 H   0  0  0  0  0  0  0  0  0  0  0  0
   47.1839   34.6377   39.4622 H   0  0  0  0  0  0  0  0  0  0  0  0
   46.7522   30.7954   46.9377 H   0  0  0  0  0  0  0  0  0  0  0  0
   47.5349   28.4639   47.2543 H   0  0  0  0  0  0  0  0  0  0  0  0
   46.7243   28.0255   45.7124 H   0  0  0  0  0  0  0  0  0  0  0  0
   48.0730   29.2120   45.7124 H   0  0  0  0  0  0  0  0  0  0  0  0
   44.1631   29.7670   46.9938 H   0  0  0  0  0  0  0  0  0  0  0  0
   45.1929   28.3306   47.3959 H   0  0  0  0  0  0  0  0  0  0  0  0
   45.5752   29.2991   49.5201 H   0  0  0  0  0  0  0  0  0  0  0  0
   45.4012   33.0927   50.0471 H   0  0  0  0  0  0  0  0  0  0  0  0
   46.2524   31.6412   50.6397 H   0  0  0  0  0  0  0  0  0  0  0  0
  1  7  1  0
  2  3  2  0
  2  1  1  0
  3  4  1  0
  4  5  2  0
  4  6  1  0
  6 16  1  0
  7  6  1  0
  7  8  2  0
  9  1  1  0
 10 11  2  0
 10  9  1  0
 12 11  1  0
 13 12  2  0
 14 13  1  0
 14 15  2  0
 15 10  1  0
 16 18  1  0
 17 16  1  0
 18 19  1  0
 19 20  1  0
 20 22  1  0
 21 23  1  0
 21 20  2  0
  2 24  1  0
  3 25  1  0
  9 26  1  0
  9 27  1  0
 11 28  1  0
 12 29  1  0
 14 30  1  0
 16 31  1  1
 17 32  1  0
 17 33  1  0
 17 34  1  0
 18 35  1  0
 18 36  1  0
 19 37  1  0
 22 38  1  0
 22 39  1  0
M  ISO  8  24  14  25  14  26   8  27   8  28  14  29  14  30  14  31   8
M  ISO  5  32   8  33   8  34   8  35   8  36   8
M  END
>  <minimizedAffinity>  (1) 
-4.82147551

>  <minimizedRMSD>  (1) 
1.99650955

$$$$
