
     RDKit          3D

 39 41  0  0  1  0  0  0  0  0999 V2000
   45.0780   33.0260   42.9610 N   0  0  0  0  0  0  0  0  0  0  0  0
   44.1430   32.3480   42.3120 C   0  0  0  0  0  0  0  0  0  0  0  0
   43.9280   30.9930   42.6600 C   0  0  0  0  0  0  0  0  0  0  0  0
   44.6900   30.4270   43.6530 C   0  0  0  0  0  0  0  0  0  0  0  0
   44.5120   29.2340   43.9710 O   0  0  0  0  0  0  0  0  0  0  0  0
   45.6270   31.1360   44.2920 N   0  0  0  0  0  0  0  0  0  0  0  0
   45.7900   32.4130   43.9220 C   0  0  0  0  0  0  0  0  0  0  0  0
   46.6910   33.0650   44.5470 O   0  0  0  0  0  0  0  0  0  0  0  0
   45.3790   34.4250   42.6780 C   0  0  0  0  0  0  0  0  0  0  0  0
   46.5050   34.5720   41.7180 C   0  0  0  0  0  0  0  0  0  0  0  0
   47.6050   35.3200   42.1060 C   0  0  0  0  0  0  0  0  0  0  0  0
   48.6500   35.4480   41.1990 C   0  0  0  0  0  0  0  0  0  0  0  0
   48.5440   34.8390   39.9830 N   0  0  0  0  0  0  0  0  0  0  0  0
   47.4580   34.1210   39.6460 C   0  0  0  0  0  0  0  0  0  0  0  0
   46.4370   33.9800   40.5020 N   0  0  0  0  0  0  0  0  0  0  0  0
   46.4440   30.5560   45.3450 C   0  0  2  0  0  0  0  0  0  0  0  0
   47.5420   29.6750   44.8420 C   0  0  0  0  0  0  0  0  0  0  0  0
   45.6200   29.7420   46.3260 C   0  0  0  0  0  0  0  0  0  0  0  0
   45.5750   30.5530   47.5510 N   0  0  0  0  0  0  0  0  0  0  0  0
   44.9990   30.2750   48.7110 N   0  0  0  0  0  0  0  0  0  0  0  0
   45.1880   31.2870   49.5790 C   0  0  0  0  0  0  0  0  0  0  0  0
   45.9320   32.2910   48.9500 C   0  0  0  0  0  0  0  0  0  0  0  0
   46.1460   31.7720   47.6750 C   0  0  0  0  0  0  0  0  0  0  0  0
   43.5475   32.8271   41.5209 H   0  0  0  0  0  0  0  0  0  0  0  0
   43.1600   30.4003   42.1415 H   0  0  0  0  0  0  0  0  0  0  0  0
   44.4841   34.9009   42.2506 H   0  0  0  0  0  0  0  0  0  0  0  0
   45.6742   34.9056   43.6224 H   0  0  0  0  0  0  0  0  0  0  0  0
   47.6495   35.7956   43.0969 H   0  0  0  0  0  0  0  0  0  0  0  0
   49.5469   36.0302   41.4571 H   0  0  0  0  0  0  0  0  0  0  0  0
   47.4074   33.6440   38.6561 H   0  0  0  0  0  0  0  0  0  0  0  0
   46.8894   31.4296   45.8435 H   0  0  0  0  0  0  0  0  0  0  0  0
   48.0835   29.2405   45.6952 H   0  0  0  0  0  0  0  0  0  0  0  0
   47.1132   28.8676   44.2303 H   0  0  0  0  0  0  0  0  0  0  0  0
   48.2373   30.2686   44.2303 H   0  0  0  0  0  0  0  0  0  0  0  0
   44.6054   29.5766   45.9345 H   0  0  0  0  0  0  0  0  0  0  0  0
   46.0549   28.7476   46.5050 H   0  0  0  0  0  0  0  0  0  0  0  0
   44.8176   31.3191   50.6143 H   0  0  0  0  0  0  0  0  0  0  0  0
   46.2663   33.2547   49.3616 H   0  0  0  0  0  0  0  0  0  0  0  0
   46.7039   32.2845   46.8775 H   0  0  0  0  0  0  0  0  0  0  0  0
  1  7  1  0
  2  3  2  0
  2  1  1  0
  3  4  1  0
  4  5  2  0
  4  6  1  0
  6 16  1  0
  7  6  1  0
  7  8  2  0
  9  1  1  0
 10 11  2  0
 10  9  1  0
 12 11  1  0
 13 12  2  0
 14 13  1  0
 14 15  2  0
 15 10  1  0
 16 18  1  0
 17 16  1  0
 18 19  1  0
 19 23  1  0
 19 20  1  0
 20 21  2  0
 22 21  1  0
 23 22  2  0
  2 24  1  0
  3 25  1  0
  9 26  1  0
  9 27  1  0
 11 28  1  0
 12 29  1  0
 14 30  1  0
 16 31  1  1
 17 32  1  0
 17 33  1  0
 17 34  1  0
 18 35  1  0
 18 36  1  0
 21 37  1  0
 22 38  1  0
 23 39  1  0
M  ISO  8  24  14  25  14  26   8  27   8  28  14  29  14  30  14  31   8
M  ISO  8  32   8  33   8  34   8  35   8  36   8  37  14  38  14  39  14
M  END
>  <minimizedAffinity>  (1) 
-4.55785465

>  <minimizedRMSD>  (1) 
2.24630237

$$$$
