
     RDKit          3D

 46 49  0  0  1  0  0  0  0  0999 V2000
   46.2310   32.6850   39.2120 N   0  0  0  0  0  0  0  0  0  0  0  0
   46.0310   31.4970   38.6480 C   0  0  0  0  0  0  0  0  0  0  0  0
   44.9060   30.7560   39.0390 C   0  0  0  0  0  0  0  0  0  0  0  0
   44.0430   31.2690   39.9860 C   0  0  0  0  0  0  0  0  0  0  0  0
   43.0390   30.6160   40.3400 O   0  0  0  0  0  0  0  0  0  0  0  0
   44.2760   32.4750   40.5340 N   0  0  0  0  0  0  0  0  0  0  0  0
   45.3610   33.1300   40.1230 C   0  0  0  0  0  0  0  0  0  0  0  0
   45.5420   34.2720   40.6710 O   0  0  0  0  0  0  0  0  0  0  0  0
   47.3740   33.5300   38.8730 C   0  0  0  0  0  0  0  0  0  0  0  0
   48.1860   32.9500   37.7610 C   0  0  0  0  0  0  0  0  0  0  0  0
   49.2760   32.1690   38.0890 C   0  0  0  0  0  0  0  0  0  0  0  0
   50.0240   31.6360   37.0330 C   0  0  0  0  0  0  0  0  0  0  0  0
   49.6470   31.9070   35.7570 N   0  0  0  0  0  0  0  0  0  0  0  0
   48.5630   32.6830   35.4850 C   0  0  0  0  0  0  0  0  0  0  0  0
   47.8400   33.1990   36.4810 N   0  0  0  0  0  0  0  0  0  0  0  0
   43.3690   33.0310   41.5330 C   0  0  2  0  0  0  0  0  0  0  0  0
   42.5240   32.0130   42.2150 C   0  0  0  0  0  0  0  0  0  0  0  0
   42.4550   34.0860   40.9550 C   0  0  0  0  0  0  0  0  0  0  0  0
   41.0690   33.6180   40.7280 C   0  0  0  0  0  0  0  0  0  0  0  0
   40.0600   33.8110   41.6510 C   0  0  0  0  0  0  0  0  0  0  0  0
   38.9140   33.2790   41.1760 N   0  0  0  0  0  0  0  0  0  0  0  0
   39.1470   32.7440   39.9670 C   0  0  0  0  0  0  0  0  0  0  0  0
   38.3480   32.0860   39.0540 C   0  0  0  0  0  0  0  0  0  0  0  0
   38.9430   31.6550   37.8670 C   0  0  0  0  0  0  0  0  0  0  0  0
   40.2760   31.8480   37.5570 C   0  0  0  0  0  0  0  0  0  0  0  0
   41.0390   32.5120   38.5030 C   0  0  0  0  0  0  0  0  0  0  0  0
   40.4750   32.9470   39.6790 C   0  0  0  0  0  0  0  0  0  0  0  0
   46.7300   31.1057   37.8942 H   0  0  0  0  0  0  0  0  0  0  0  0
   44.7123   29.7696   38.5924 H   0  0  0  0  0  0  0  0  0  0  0  0
   47.0056   34.5198   38.5654 H   0  0  0  0  0  0  0  0  0  0  0  0
   48.0178   33.6048   39.7618 H   0  0  0  0  0  0  0  0  0  0  0  0
   49.5456   31.9736   39.1374 H   0  0  0  0  0  0  0  0  0  0  0  0
   50.9039   31.0071   37.2337 H   0  0  0  0  0  0  0  0  0  0  0  0
   48.2817   32.8857   34.4411 H   0  0  0  0  0  0  0  0  0  0  0  0
   44.0431   33.4794   42.2777 H   0  0  0  0  0  0  0  0  0  0  0  0
   42.6193   32.1279   43.3048 H   0  0  0  0  0  0  0  0  0  0  0  0
   41.4730   32.1530   41.9221 H   0  0  0  0  0  0  0  0  0  0  0  0
   42.8552   31.0058   41.9221 H   0  0  0  0  0  0  0  0  0  0  0  0
   42.4238   34.9369   41.6514 H   0  0  0  0  0  0  0  0  0  0  0  0
   42.8650   34.3606   39.9719 H   0  0  0  0  0  0  0  0  0  0  0  0
   40.1725   34.3183   42.6205 H   0  0  0  0  0  0  0  0  0  0  0  0
   38.0064   33.2829   41.6630 H   0  0  0  0  0  0  0  0  0  0  0  0
   37.2812   31.9077   39.2544 H   0  0  0  0  0  0  0  0  0  0  0  0
   38.3128   31.1300   37.1340 H   0  0  0  0  0  0  0  0  0  0  0  0
   40.7078   31.4932   36.6096 H   0  0  0  0  0  0  0  0  0  0  0  0
   42.1070   32.6932   38.3116 H   0  0  0  0  0  0  0  0  0  0  0  0
  1  7  1  0
  2  3  2  0
  2  1  1  0
  3  4  1  0
  4  5  2  0
  4  6  1  0
  6 16  1  0
  7  6  1  0
  7  8  2  0
  9  1  1  0
 10 11  2  0
 10  9  1  0
 12 11  1  0
 13 12  2  0
 14 13  1  0
 14 15  2  0
 15 10  1  0
 16 17  1  0
 18 16  1  0
 19 18  1  0
 19 20  2  0
 21 20  1  0
 22 21  1  0
 23 22  2  0
 24 23  1  0
 25 24  2  0
 25 26  1  0
 26 27  2  0
 27 22  1  0
 27 19  1  0
  2 28  1  0
  3 29  1  0
  9 30  1  0
  9 31  1  0
 11 32  1  0
 12 33  1  0
 14 34  1  0
 16 35  1  1
 17 36  1  0
 17 37  1  0
 17 38  1  0
 18 39  1  0
 18 40  1  0
 20 41  1  0
 21 42  1  0
 23 43  1  0
 24 44  1  0
 25 45  1  0
 26 46  1  0
M  ISO  8  28  14  29  14  30   8  31   8  32  14  33  14  34  14  35   8
M  ISO  8  36   8  37   8  38   8  39   8  40   8  41  14  42   9  43  14
M  ISO  3  44  14  45  14  46  14
M  END
>  <minimizedAffinity>  (1) 
-4.32610226

>  <minimizedRMSD>  (1) 
8.99120617

$$$$
