
     RDKit          3D

 42 44  0  0  1  0  0  0  0  0999 V2000
   45.2630   32.5260   43.6220 N   0  0  0  0  0  0  0  0  0  0  0  0
   44.4490   32.7620   42.6040 C   0  0  0  0  0  0  0  0  0  0  0  0
   43.6630   31.7030   42.1140 C   0  0  0  0  0  0  0  0  0  0  0  0
   43.7550   30.4590   42.6950 C   0  0  0  0  0  0  0  0  0  0  0  0
   43.0660   29.5100   42.2730 O   0  0  0  0  0  0  0  0  0  0  0  0
   44.5870   30.2460   43.7220 N   0  0  0  0  0  0  0  0  0  0  0  0
   45.3140   31.2890   44.1510 C   0  0  0  0  0  0  0  0  0  0  0  0
   46.0890   31.0530   45.1250 O   0  0  0  0  0  0  0  0  0  0  0  0
   46.1190   33.5490   44.2050 C   0  0  0  0  0  0  0  0  0  0  0  0
   47.2320   33.9280   43.3030 C   0  0  0  0  0  0  0  0  0  0  0  0
   48.3520   33.1180   43.2790 C   0  0  0  0  0  0  0  0  0  0  0  0
   49.3960   33.4790   42.4290 C   0  0  0  0  0  0  0  0  0  0  0  0
   49.2670   34.6020   41.6680 N   0  0  0  0  0  0  0  0  0  0  0  0
   48.1510   35.3670   41.7230 C   0  0  0  0  0  0  0  0  0  0  0  0
   47.1400   35.0430   42.5270 N   0  0  0  0  0  0  0  0  0  0  0  0
   44.7030   28.9360   44.3560 C   0  0  2  0  0  0  0  0  0  0  0  0
   45.2300   27.8810   43.4390 C   0  0  0  0  0  0  0  0  0  0  0  0
   43.3820   28.4530   44.9240 C   0  0  0  0  0  0  0  0  0  0  0  0
   43.6540   27.6250   46.1580 C   0  0  0  0  0  0  0  0  0  0  0  0
   44.6340   27.8900   47.0900 C   0  0  0  0  0  0  0  0  0  0  0  0
   44.7790   27.0620   48.1650 C   0  0  0  0  0  0  0  0  0  0  0  0
   43.9810   25.9610   48.3660 C   0  0  0  0  0  0  0  0  0  0  0  0
   42.9710   25.6420   47.4570 C   0  0  0  0  0  0  0  0  0  0  0  0
   42.8570   26.5050   46.3800 C   0  0  0  0  0  0  0  0  0  0  0  0
   44.3889   33.7631   42.1521 H   0  0  0  0  0  0  0  0  0  0  0  0
   42.9776   31.8688   41.2698 H   0  0  0  0  0  0  0  0  0  0  0  0
   45.5120   34.4424   44.4134 H   0  0  0  0  0  0  0  0  0  0  0  0
   46.5563   33.1383   45.1270 H   0  0  0  0  0  0  0  0  0  0  0  0
   48.4171   32.2189   43.9094 H   0  0  0  0  0  0  0  0  0  0  0  0
   50.3088   32.8676   42.3734 H   0  0  0  0  0  0  0  0  0  0  0  0
   48.0786   36.2676   41.0955 H   0  0  0  0  0  0  0  0  0  0  0  0
   45.4257   29.0900   45.1708 H   0  0  0  0  0  0  0  0  0  0  0  0
   45.6438   27.0525   44.0326 H   0  0  0  0  0  0  0  0  0  0  0  0
   44.4136   27.5054   42.8046 H   0  0  0  0  0  0  0  0  0  0  0  0
   46.0206   28.3082   42.8046 H   0  0  0  0  0  0  0  0  0  0  0  0
   42.7561   29.3176   45.1899 H   0  0  0  0  0  0  0  0  0  0  0  0
   42.8545   27.8440   44.1751 H   0  0  0  0  0  0  0  0  0  0  0  0
   45.2938   28.7617   46.9684 H   0  0  0  0  0  0  0  0  0  0  0  0
   45.5662   27.2846   48.9003 H   0  0  0  0  0  0  0  0  0  0  0  0
   44.1396   25.3263   49.2503 H   0  0  0  0  0  0  0  0  0  0  0  0
   42.3140   24.7694   47.5866 H   0  0  0  0  0  0  0  0  0  0  0  0
   42.0730   26.2881   45.6396 H   0  0  0  0  0  0  0  0  0  0  0  0
  1  7  1  0
  1  9  1  0
  2  1  1  0
  3  2  2  0
  3  4  1  0
  4  6  1  0
  5  4  2  0
  6  7  1  0
  6 16  1  0
  7  8  2  0
 10  9  1  0
 11 10  2  0
 12 11  1  0
 13 14  1  0
 13 12  2  0
 14 15  2  0
 15 10  1  0
 16 18  1  0
 17 16  1  0
 18 19  1  0
 19 24  1  0
 19 20  2  0
 20 21  1  0
 21 22  2  0
 23 22  1  0
 24 23  2  0
  2 25  1  0
  3 26  1  0
  9 27  1  0
  9 28  1  0
 11 29  1  0
 12 30  1  0
 14 31  1  0
 16 32  1  1
 17 33  1  0
 17 34  1  0
 17 35  1  0
 18 36  1  0
 18 37  1  0
 20 38  1  0
 21 39  1  0
 22 40  1  0
 23 41  1  0
 24 42  1  0
M  ISO  8  25  14  26  14  27   8  28   8  29  14  30  14  31  14  32   8
M  ISO  8  33   8  34   8  35   8  36   8  37   8  38  14  39  14  40  14
M  ISO  2  41  14  42  14
M  END
>  <minimizedAffinity>  (1) 
-4.29069328

>  <minimizedRMSD>  (1) 
4.65154552

$$$$
