
     RDKit          3D

 45 48  0  0  1  0  0  0  0  0999 V2000
   45.2960   30.0700   43.4730 N   0  0  0  0  0  0  0  0  0  0  0  0
   45.3890   28.7740   43.7110 C   0  0  0  0  0  0  0  0  0  0  0  0
   44.2290   27.9830   43.5770 C   0  0  0  0  0  0  0  0  0  0  0  0
   43.0440   28.5730   43.2080 C   0  0  0  0  0  0  0  0  0  0  0  0
   42.0130   27.8840   43.0870 O   0  0  0  0  0  0  0  0  0  0  0  0
   42.9750   29.8890   42.9730 N   0  0  0  0  0  0  0  0  0  0  0  0
   44.1050   30.5990   43.1130 C   0  0  0  0  0  0  0  0  0  0  0  0
   44.0030   31.8510   42.8810 O   0  0  0  0  0  0  0  0  0  0  0  0
   46.4280   30.9870   43.5780 C   0  0  0  0  0  0  0  0  0  0  0  0
   46.6950   31.3830   44.9790 C   0  0  0  0  0  0  0  0  0  0  0  0
   46.2650   32.6310   45.3940 C   0  0  0  0  0  0  0  0  0  0  0  0
   46.5150   33.0050   46.7110 C   0  0  0  0  0  0  0  0  0  0  0  0
   47.1630   32.1380   47.5260 N   0  0  0  0  0  0  0  0  0  0  0  0
   47.5710   30.9180   47.0810 C   0  0  0  0  0  0  0  0  0  0  0  0
   47.3380   30.5470   45.8230 N   0  0  0  0  0  0  0  0  0  0  0  0
   41.7320   30.5320   42.5800 C   0  0  2  0  0  0  0  0  0  0  0  0
   40.5760   30.1810   43.4620 C   0  0  0  0  0  0  0  0  0  0  0  0
   41.3470   30.2300   41.1500 C   0  0  0  0  0  0  0  0  0  0  0  0
   41.5490   31.4750   40.3890 N   0  0  0  0  0  0  0  0  0  0  0  0
   40.5860   32.4310   40.2780 C   0  0  0  0  0  0  0  0  0  0  0  0
   41.0550   33.4430   39.5270 N   0  0  0  0  0  0  0  0  0  0  0  0
   42.3290   33.1500   39.1430 C   0  0  0  0  0  0  0  0  0  0  0  0
   43.2300   33.8420   38.3830 C   0  0  0  0  0  0  0  0  0  0  0  0
   44.4300   33.2450   38.1960 N   0  0  0  0  0  0  0  0  0  0  0  0
   44.6870   32.0400   38.7430 C   0  0  0  0  0  0  0  0  0  0  0  0
   43.8090   31.3470   39.4940 N   0  0  0  0  0  0  0  0  0  0  0  0
   42.6080   31.9180   39.6950 C   0  0  0  0  0  0  0  0  0  0  0  0
   42.8260   35.1050   37.8670 N   0  0  0  0  0  0  0  0  0  0  0  0
   46.3477   28.3227   44.0065 H   0  0  0  0  0  0  0  0  0  0  0  0
   44.2726   26.9004   43.7667 H   0  0  0  0  0  0  0  0  0  0  0  0
   47.3233   30.4934   43.1721 H   0  0  0  0  0  0  0  0  0  0  0  0
   46.1816   31.8961   43.0099 H   0  0  0  0  0  0  0  0  0  0  0  0
   45.7409   33.3078   44.7031 H   0  0  0  0  0  0  0  0  0  0  0  0
   46.1919   33.9881   47.0841 H   0  0  0  0  0  0  0  0  0  0  0  0
   48.0962   30.2344   47.7643 H   0  0  0  0  0  0  0  0  0  0  0  0
   41.9433   31.6063   42.6855 H   0  0  0  0  0  0  0  0  0  0  0  0
   40.8778   30.2726   44.5158 H   0  0  0  0  0  0  0  0  0  0  0  0
   39.7391   30.8655   43.2594 H   0  0  0  0  0  0  0  0  0  0  0  0
   40.2610   29.1467   43.2594 H   0  0  0  0  0  0  0  0  0  0  0  0
   41.9849   29.4302   40.7458 H   0  0  0  0  0  0  0  0  0  0  0  0
   40.3034   29.8887   41.0833 H   0  0  0  0  0  0  0  0  0  0  0  0
   39.5844   32.3832   40.7303 H   0  0  0  0  0  0  0  0  0  0  0  0
   45.6767   31.5941   38.5648 H   0  0  0  0  0  0  0  0  0  0  0  0
   43.4761   35.6573   37.2898 H   0  0  0  0  0  0  0  0  0  0  0  0
   41.8834   35.4669   38.0707 H   0  0  0  0  0  0  0  0  0  0  0  0
  1  9  1  0
  1  2  1  0
  3  2  2  0
  4  3  1  0
  5  4  2  0
  6  7  1  0
  6  4  1  0
  7  1  1  0
  8  7  2  0
  9 10  1  0
 10 11  2  0
 10 15  1  0
 11 12  1  0
 12 13  2  0
 14 13  1  0
 15 14  2  0
 16  6  1  0
 16 17  1  0
 18 16  1  0
 19 18  1  0
 20 19  1  0
 21 20  2  0
 22 21  1  0
 22 27  2  0
 23 22  1  0
 24 23  2  0
 24 25  1  0
 25 26  2  0
 26 27  1  0
 27 19  1  0
 28 23  1  0
  2 29  1  0
  3 30  1  0
  9 31  1  0
  9 32  1  0
 11 33  1  0
 12 34  1  0
 14 35  1  0
 16 36  1  6
 17 37  1  0
 17 38  1  0
 17 39  1  0
 18 40  1  0
 18 41  1  0
 20 42  1  0
 25 43  1  0
 28 44  1  0
 28 45  1  0
M  ISO  8  29  14  30  14  31   8  32   8  33  14  34  14  35  14  36   8
M  ISO  7  37   8  38   8  39   8  40   8  41   8  42  14  43  14
M  END
>  <minimizedAffinity>  (1) 
-4.01802921

>  <minimizedRMSD>  (1) 
9.12173843

$$$$
