
     RDKit          3D

 39 41  0  0  1  0  0  0  0  0999 V2000
   45.3790   32.8250   43.5140 N   0  0  0  0  0  0  0  0  0  0  0  0
   44.6540   31.9330   42.8630 C   0  0  0  0  0  0  0  0  0  0  0  0
   44.6430   30.5990   43.3350 C   0  0  0  0  0  0  0  0  0  0  0  0
   45.3760   30.2720   44.4430 C   0  0  0  0  0  0  0  0  0  0  0  0
   45.3750   29.0990   44.8690 O   0  0  0  0  0  0  0  0  0  0  0  0
   46.1020   31.1940   45.0850 N   0  0  0  0  0  0  0  0  0  0  0  0
   46.0790   32.4430   44.5970 C   0  0  0  0  0  0  0  0  0  0  0  0
   46.7770   33.2950   45.2270 O   0  0  0  0  0  0  0  0  0  0  0  0
   45.4600   34.2240   43.1110 C   0  0  0  0  0  0  0  0  0  0  0  0
   46.4970   34.4390   42.0600 C   0  0  0  0  0  0  0  0  0  0  0  0
   47.6290   35.1930   42.3840 C   0  0  0  0  0  0  0  0  0  0  0  0
   48.5810   35.3790   41.3910 C   0  0  0  0  0  0  0  0  0  0  0  0
   48.3700   34.8270   40.1640 N   0  0  0  0  0  0  0  0  0  0  0  0
   47.2540   34.1000   39.8900 C   0  0  0  0  0  0  0  0  0  0  0  0
   46.3320   33.9100   40.8250 N   0  0  0  0  0  0  0  0  0  0  0  0
   46.8870   30.8650   46.2700 C   0  0  2  0  0  0  0  0  0  0  0  0
   48.0070   29.9250   46.0150 C   0  0  0  0  0  0  0  0  0  0  0  0
   46.0350   30.2710   47.3670 C   0  0  0  0  0  0  0  0  0  0  0  0
   45.1830   31.2990   48.0620 C   0  0  0  0  0  0  0  0  0  0  0  0
   45.9760   32.2480   48.9550 C   0  0  0  0  0  0  0  0  0  0  0  0
   44.9970   31.2970   49.5190 C   0  0  0  0  0  0  0  0  0  0  0  0
   44.0724   32.2205   41.9747 H   0  0  0  0  0  0  0  0  0  0  0  0
   44.0503   29.8316   42.8156 H   0  0  0  0  0  0  0  0  0  0  0  0
   44.4825   34.5379   42.7161 H   0  0  0  0  0  0  0  0  0  0  0  0
   45.7394   34.8183   43.9935 H   0  0  0  0  0  0  0  0  0  0  0  0
   47.7603   35.6227   43.3881 H   0  0  0  0  0  0  0  0  0  0  0  0
   49.4913   35.9629   41.5920 H   0  0  0  0  0  0  0  0  0  0  0  0
   47.1149   33.6673   38.8883 H   0  0  0  0  0  0  0  0  0  0  0  0
   47.3068   31.8328   46.5815 H   0  0  0  0  0  0  0  0  0  0  0  0
   48.4202   29.5782   46.9737 H   0  0  0  0  0  0  0  0  0  0  0  0
   47.6381   29.0621   45.4412 H   0  0  0  0  0  0  0  0  0  0  0  0
   48.7928   30.4380   45.4412 H   0  0  0  0  0  0  0  0  0  0  0  0
   45.3766   29.5076   46.9269 H   0  0  0  0  0  0  0  0  0  0  0  0
   46.7134   29.8393   48.1176 H   0  0  0  0  0  0  0  0  0  0  0  0
   44.4665   31.3455   47.2287 H   0  0  0  0  0  0  0  0  0  0  0  0
   47.0536   32.0914   49.1108 H   0  0  0  0  0  0  0  0  0  0  0  0
   46.1329   33.3357   49.0028 H   0  0  0  0  0  0  0  0  0  0  0  0
   44.0569   31.6750   49.9472 H   0  0  0  0  0  0  0  0  0  0  0  0
   45.0482   30.5183   50.2942 H   0  0  0  0  0  0  0  0  0  0  0  0
  1  7  1  0
  2  3  2  0
  2  1  1  0
  3  4  1  0
  4  5  2  0
  4  6  1  0
  6 16  1  0
  7  6  1  0
  7  8  2  0
  9  1  1  0
 10 11  2  0
 10  9  1  0
 12 11  1  0
 13 12  2  0
 14 13  1  0
 14 15  2  0
 15 10  1  0
 16 18  1  0
 17 16  1  0
 18 19  1  0
 19 20  1  0
 19 21  1  0
 20 21  1  0
  2 22  1  0
  3 23  1  0
  9 24  1  0
  9 25  1  0
 11 26  1  0
 12 27  1  0
 14 28  1  0
 16 29  1  1
 17 30  1  0
 17 31  1  0
 17 32  1  0
 18 33  1  0
 18 34  1  0
 19 35  1  0
 20 36  1  0
 20 37  1  0
 21 38  1  0
 21 39  1  0
M  ISO  8  22  14  23  14  24   8  25   8  26  14  27  14  28  14  29   8
M  ISO  8  30   8  31   8  32   8  33   8  34   8  35  13  36  13  37  13
M  ISO  2  38  13  39  13
M  END
>  <minimizedAffinity>  (1) 
-4.53010893

>  <minimizedRMSD>  (1) 
1.50506139

$$$$
