
     RDKit          3D

 26 27  0  0  1  0  0  0  0  0999 V2000
   48.1060   33.5330   41.1290 C   0  0  2  0  0  0  0  0  0  0  0  0
   47.9990   34.9090   41.6250 C   0  0  2  0  0  0  0  0  0  0  0  0
   49.2590   35.1990   42.4330 C   0  0  0  0  0  0  0  0  0  0  0  0
   50.2120   34.0490   42.2320 C   0  0  0  0  0  0  0  0  0  0  0  0
   49.2890   32.9220   41.9410 C   0  0  0  0  0  0  0  0  0  0  0  0
   48.4890   33.3540   39.7190 C   0  0  0  0  0  0  0  0  0  0  0  0
   48.1490   34.3620   38.8000 C   0  0  0  0  0  0  0  0  0  0  0  0
   48.5250   34.2200   37.4630 C   0  0  0  0  0  0  0  0  0  0  0  0
   49.2120   33.0830   37.1380 N   0  0  0  0  0  0  0  0  0  0  0  0
   49.5300   32.1290   38.0280 C   0  0  0  0  0  0  0  0  0  0  0  0
   49.1630   32.2780   39.3050 N   0  0  0  0  0  0  0  0  0  0  0  0
   46.7740   35.1220   42.5260 C   0  0  0  0  0  0  0  0  0  0  0  0
   47.1071   33.0843   41.2336 H   0  0  0  0  0  0  0  0  0  0  0  0
   47.8865   35.5834   40.7633 H   0  0  0  0  0  0  0  0  0  0  0  0
   49.7213   36.1334   42.0822 H   0  0  0  0  0  0  0  0  0  0  0  0
   49.0134   35.3117   43.4993 H   0  0  0  0  0  0  0  0  0  0  0  0
   50.8907   34.2368   41.3869 H   0  0  0  0  0  0  0  0  0  0  0  0
   50.8720   33.8675   43.0931 H   0  0  0  0  0  0  0  0  0  0  0  0
   48.9206   32.4782   42.8777 H   0  0  0  0  0  0  0  0  0  0  0  0
   49.7938   32.1233   41.3778 H   0  0  0  0  0  0  0  0  0  0  0  0
   47.5933   35.2520   39.1304 H   0  0  0  0  0  0  0  0  0  0  0  0
   48.2812   34.9835   36.7096 H   0  0  0  0  0  0  0  0  0  0  0  0
   50.0862   31.2349   37.7099 H   0  0  0  0  0  0  0  0  0  0  0  0
   47.0810   35.0686   43.5809 H   0  0  0  0  0  0  0  0  0  0  0  0
   46.3356   36.1099   42.3213 H   0  0  0  0  0  0  0  0  0  0  0  0
   46.0278   34.3401   42.3213 H   0  0  0  0  0  0  0  0  0  0  0  0
  1  2  1  0
  1  5  1  0
  2  3  1  0
  2 12  1  0
  4  3  1  0
  5  4  1  0
  6  1  1  0
  7  6  2  0
  8  7  1  0
  9  8  2  0
  9 10  1  0
 10 11  2  0
 11  6  1  0
  1 13  1  6
  2 14  1  6
  3 15  1  0
  3 16  1  0
  4 17  1  0
  4 18  1  0
  5 19  1  0
  5 20  1  0
  7 21  1  0
  8 22  1  0
 10 23  1  0
 12 24  1  0
 12 25  1  0
 12 26  1  0
M  ISO  8  13  13  14  13  15  13  16  13  17  13  18  13  19  13  20  13
M  ISO  6  21  14  22  14  23  14  24   8  25   8  26   8
M  END
>  <minimizedAffinity>  (1) 
-3.91370082

>  <minimizedRMSD>  (1) 
4.34500742

$$$$
