
     RDKit          3D

 46 49  0  0  1  0  0  0  0  0999 V2000
   45.4020   33.0610   42.3780 N   0  0  0  0  0  0  0  0  0  0  0  0
   44.4520   32.1830   42.1460 C   0  0  0  0  0  0  0  0  0  0  0  0
   44.3600   31.0510   42.9940 C   0  0  0  0  0  0  0  0  0  0  0  0
   45.2530   30.9080   44.0180 C   0  0  0  0  0  0  0  0  0  0  0  0
   45.1680   29.9140   44.7590 O   0  0  0  0  0  0  0  0  0  0  0  0
   46.2060   31.8120   44.2340 N   0  0  0  0  0  0  0  0  0  0  0  0
   46.2540   32.8710   43.4000 C   0  0  0  0  0  0  0  0  0  0  0  0
   47.1660   33.7110   43.6280 O   0  0  0  0  0  0  0  0  0  0  0  0
   45.5860   34.2630   41.5650 C   0  0  0  0  0  0  0  0  0  0  0  0
   46.2610   33.9590   40.2660 C   0  0  0  0  0  0  0  0  0  0  0  0
   47.5910   34.3450   40.0900 C   0  0  0  0  0  0  0  0  0  0  0  0
   48.2030   34.0580   38.8840 C   0  0  0  0  0  0  0  0  0  0  0  0
   47.4710   33.4100   37.9280 N   0  0  0  0  0  0  0  0  0  0  0  0
   46.1750   33.0480   38.1340 C   0  0  0  0  0  0  0  0  0  0  0  0
   45.5780   33.3200   39.2920 N   0  0  0  0  0  0  0  0  0  0  0  0
   47.1620   31.6640   45.3260 C   0  0  2  0  0  0  0  0  0  0  0  0
   47.8480   30.3550   45.3630 C   0  0  0  0  0  0  0  0  0  0  0  0
   46.5520   31.9060   46.6720 C   0  0  0  0  0  0  0  0  0  0  0  0
   47.0330   30.9410   47.7220 C   0  0  2  0  0  0  0  0  0  0  0  0
   46.3210   31.0890   49.0530 C   0  0  0  0  0  0  0  0  0  0  0  0
   47.7430   31.4250   48.9250 C   0  0  1  0  0  0  0  0  0  0  0  0
   48.8260   30.5230   49.3990 C   0  0  0  0  0  0  0  0  0  0  0  0
   49.5150   29.6410   48.5900 C   0  0  0  0  0  0  0  0  0  0  0  0
   50.4100   29.0030   49.3720 N   0  0  0  0  0  0  0  0  0  0  0  0
   50.2720   29.4850   50.6350 C   0  0  0  0  0  0  0  0  0  0  0  0
   49.2910   30.4290   50.6630 N   0  0  0  0  0  0  0  0  0  0  0  0
   43.7458   32.3232   41.3144 H   0  0  0  0  0  0  0  0  0  0  0  0
   43.5777   30.2954   42.8293 H   0  0  0  0  0  0  0  0  0  0  0  0
   44.6010   34.7071   41.3587 H   0  0  0  0  0  0  0  0  0  0  0  0
   46.2252   34.9601   42.1266 H   0  0  0  0  0  0  0  0  0  0  0  0
   48.1382   34.8643   40.8906 H   0  0  0  0  0  0  0  0  0  0  0  0
   49.2492   34.3429   38.6988 H   0  0  0  0  0  0  0  0  0  0  0  0
   45.6187   32.5284   37.3399 H   0  0  0  0  0  0  0  0  0  0  0  0
   47.9093   32.4410   45.1071 H   0  0  0  0  0  0  0  0  0  0  0  0
   48.0061   30.0533   46.4089 H   0  0  0  0  0  0  0  0  0  0  0  0
   47.2287   29.6019   44.8538 H   0  0  0  0  0  0  0  0  0  0  0  0
   48.8197   30.4357   44.8538 H   0  0  0  0  0  0  0  0  0  0  0  0
   46.8060   32.9271   46.9927 H   0  0  0  0  0  0  0  0  0  0  0  0
   45.4661   31.7638   46.5696 H   0  0  0  0  0  0  0  0  0  0  0  0
   47.2610   30.1538   46.9883 H   0  0  0  0  0  0  0  0  0  0  0  0
   45.5763   31.8861   49.1947 H   0  0  0  0  0  0  0  0  0  0  0  0
   45.7302   30.4251   49.7012 H   0  0  0  0  0  0  0  0  0  0  0  0
   48.2987   32.3209   49.2390 H   0  0  0  0  0  0  0  0  0  0  0  0
   49.3627   29.4877   47.5114 H   0  0  0  0  0  0  0  0  0  0  0  0
   50.8637   29.1613   51.5040 H   0  0  0  0  0  0  0  0  0  0  0  0
   48.9689   30.9632   51.4826 H   0  0  0  0  0  0  0  0  0  0  0  0
  1  7  1  0
  2  1  1  0
  2  3  2  0
  3  4  1  0
  4  6  1  0
  4  5  2  0
  6 16  1  0
  7  8  2  0
  7  6  1  0
  9  1  1  0
 10  9  1  0
 11 10  2  0
 12 11  1  0
 13 14  1  0
 13 12  2  0
 14 15  2  0
 15 10  1  0
 16 17  1  0
 16 18  1  0
 18 19  1  0
 19 21  1  0
 19 20  1  0
 21 20  1  0
 21 22  1  0
 22 26  1  0
 23 24  1  0
 23 22  2  0
 24 25  2  0
 25 26  1  0
  2 27  1  0
  3 28  1  0
  9 29  1  0
  9 30  1  0
 11 31  1  0
 12 32  1  0
 14 33  1  0
 16 34  1  6
 17 35  1  0
 17 36  1  0
 17 37  1  0
 18 38  1  0
 18 39  1  0
 19 40  1  6
 20 41  1  0
 20 42  1  0
 21 43  1  6
 23 44  1  0
 25 45  1  0
 26 46  1  0
M  ISO  8  27  14  28  14  29   8  30   8  31  14  32  14  33  14  34   8
M  ISO  8  35   8  36   8  37   8  38   8  39   8  40  13  41  13  42  13
M  ISO  4  43  13  44  14  45  14  46   9
M  END
>  <minimizedAffinity>  (1) 
-4.80416393

>  <minimizedRMSD>  (1) 
3.68182874

$$$$
