
     RDKit          3D

 46 48  0  0  1  0  0  0  0  0999 V2000
   47.2680   31.8030   47.2800 C   0  0  2  0  0  0  0  0  0  0  0  0
   46.2910   28.3330   46.4310 N   0  0  0  0  0  0  0  0  0  0  0  0
   45.2950   28.0920   47.2690 C   0  0  0  0  0  0  0  0  0  0  0  0
   44.9090   29.1130   48.1710 C   0  0  0  0  0  0  0  0  0  0  0  0
   45.5680   30.3110   48.1530 C   0  0  0  0  0  0  0  0  0  0  0  0
   45.2250   31.2030   48.9450 O   0  0  0  0  0  0  0  0  0  0  0  0
   46.5750   30.5300   47.2910 N   0  0  0  0  0  0  0  0  0  0  0  0
   46.9000   29.5340   46.4630 C   0  0  0  0  0  0  0  0  0  0  0  0
   47.8460   29.7690   45.6680 O   0  0  0  0  0  0  0  0  0  0  0  0
   46.7620   27.3510   45.4670 C   0  0  0  0  0  0  0  0  0  0  0  0
   47.8740   26.5230   46.0250 C   0  0  0  0  0  0  0  0  0  0  0  0
   49.1110   26.5480   45.3810 C   0  0  0  0  0  0  0  0  0  0  0  0
   50.1340   25.7700   45.9150 C   0  0  0  0  0  0  0  0  0  0  0  0
   49.8870   25.0320   47.0220 N   0  0  0  0  0  0  0  0  0  0  0  0
   48.6610   25.0360   47.6200 C   0  0  0  0  0  0  0  0  0  0  0  0
   47.6690   25.7740   47.1240 N   0  0  0  0  0  0  0  0  0  0  0  0
   48.0460   32.0980   48.5110 C   0  0  0  0  0  0  0  0  0  0  0  0
   46.3740   32.9740   47.0180 C   0  0  0  0  0  0  0  0  0  0  0  0
   45.8220   33.0030   45.6170 C   0  0  2  0  0  0  0  0  0  0  0  0
   46.8540   33.4680   44.5840 C   0  0  0  0  0  0  0  0  0  0  0  0
   45.6350   34.2560   44.8850 C   0  0  1  0  0  0  0  0  0  0  0  0
   44.6350   34.2510   43.8330 N   0  0  0  0  0  0  0  0  0  0  0  0
   44.1150   35.4990   43.3870 C   0  0  0  0  0  0  0  0  0  0  0  0
   44.8320   36.5720   43.4210 N   0  0  0  0  0  0  0  0  0  0  0  0
   42.7640   35.5810   42.8880 N   0  0  0  0  0  0  0  0  0  0  0  0
   45.8050   36.4840   43.7860 H   0  0  0  0  0  0  0  0  0  0  0  0
   47.9681   31.6726   46.4416 H   0  0  0  0  0  0  0  0  0  0  0  0
   44.7789   27.1206   47.2647 H   0  0  0  0  0  0  0  0  0  0  0  0
   44.0856   28.9438   48.8805 H   0  0  0  0  0  0  0  0  0  0  0  0
   47.1228   27.8756   44.5700 H   0  0  0  0  0  0  0  0  0  0  0  0
   45.9247   26.6817   45.2200 H   0  0  0  0  0  0  0  0  0  0  0  0
   49.2724   27.1613   44.4822 H   0  0  0  0  0  0  0  0  0  0  0  0
   51.1281   25.7552   45.4444 H   0  0  0  0  0  0  0  0  0  0  0  0
   48.4901   24.4251   48.5187 H   0  0  0  0  0  0  0  0  0  0  0  0
   47.4346   31.8662   49.3955 H   0  0  0  0  0  0  0  0  0  0  0  0
   48.9581   31.4833   48.5244 H   0  0  0  0  0  0  0  0  0  0  0  0
   48.3213   33.1629   48.5244 H   0  0  0  0  0  0  0  0  0  0  0  0
   45.5314   32.9344   47.7241 H   0  0  0  0  0  0  0  0  0  0  0  0
   46.9817   33.8819   47.1466 H   0  0  0  0  0  0  0  0  0  0  0  0
   45.1444   32.1557   45.7984 H   0  0  0  0  0  0  0  0  0  0  0  0
   46.9526   32.9431   43.6224 H   0  0  0  0  0  0  0  0  0  0  0  0
   47.9371   33.6598   44.5817 H   0  0  0  0  0  0  0  0  0  0  0  0
   45.4407   35.2910   45.2030 H   0  0  0  0  0  0  0  0  0  0  0  0
   44.3094   33.3658   43.4191 H   0  0  0  0  0  0  0  0  0  0  0  0
   42.1758   34.7362   42.8528 H   0  0  0  0  0  0  0  0  0  0  0  0
   42.3875   36.4844   42.5669 H   0  0  0  0  0  0  0  0  0  0  0  0
  1  7  1  0
  1 17  1  0
  2  8  1  0
  2  3  1  0
  3  4  2  0
  5  4  1  0
  5  6  2  0
  7  5  1  0
  8  7  1  0
  9  8  2  0
 10 11  1  0
 10  2  1  0
 11 16  2  0
 12 13  2  0
 12 11  1  0
 13 14  1  0
 14 15  2  0
 16 15  1  0
 18  1  1  0
 19 18  1  0
 20 21  1  0
 20 19  1  0
 21 19  1  0
 22 21  1  0
 23 24  2  0
 23 22  1  0
 24 26  1  0
 25 23  1  0
  1 27  1  6
  3 28  1  0
  4 29  1  0
 10 30  1  0
 10 31  1  0
 12 32  1  0
 13 33  1  0
 15 34  1  0
 17 35  1  0
 17 36  1  0
 17 37  1  0
 18 38  1  0
 18 39  1  0
 19 40  1  6
 20 41  1  0
 20 42  1  0
 21 43  1  1
 22 44  1  0
 25 45  1  0
 25 46  1  0
M  ISO  8  27   8  28  14  29  14  30   8  31   8  32  14  33  14  34  14
M  ISO  8  35   8  36   8  37   8  38   8  39   8  40  13  41  13  42  13
M  ISO  1  43  13
M  END
>  <minimizedAffinity>  (1) 
-4.60260105

>  <minimizedRMSD>  (1) 
7.17838144

$$$$
