
     RDKit          3D

 42 44  0  0  1  0  0  0  0  0999 V2000
   45.7030   32.7520   43.1850 N   0  0  0  0  0  0  0  0  0  0  0  0
   44.6450   32.0190   42.8840 C   0  0  0  0  0  0  0  0  0  0  0  0
   44.6460   30.6520   43.2490 C   0  0  0  0  0  0  0  0  0  0  0  0
   45.7230   30.1260   43.8970 C   0  0  0  0  0  0  0  0  0  0  0  0
   45.7180   28.9260   44.2160 O   0  0  0  0  0  0  0  0  0  0  0  0
   46.7830   30.8780   44.1940 N   0  0  0  0  0  0  0  0  0  0  0  0
   46.7390   32.1730   43.8280 C   0  0  0  0  0  0  0  0  0  0  0  0
   47.7680   32.8700   44.1260 O   0  0  0  0  0  0  0  0  0  0  0  0
   45.8150   34.1610   42.8610 C   0  0  0  0  0  0  0  0  0  0  0  0
   46.7380   34.3920   41.7110 C   0  0  0  0  0  0  0  0  0  0  0  0
   47.8230   35.2620   41.8840 C   0  0  0  0  0  0  0  0  0  0  0  0
   48.6690   35.4630   40.8020 C   0  0  0  0  0  0  0  0  0  0  0  0
   48.4080   34.8110   39.6300 N   0  0  0  0  0  0  0  0  0  0  0  0
   47.3400   33.9730   39.5050 C   0  0  0  0  0  0  0  0  0  0  0  0
   46.5190   33.7690   40.5310 N   0  0  0  0  0  0  0  0  0  0  0  0
   47.9340   30.3260   44.8840 C   0  0  2  0  0  0  0  0  0  0  0  0
   48.6380   29.2520   44.1490 C   0  0  0  0  0  0  0  0  0  0  0  0
   47.6160   29.8020   46.2460 C   0  0  0  0  0  0  0  0  0  0  0  0
   47.2560   30.8860   47.2250 C   0  0  2  0  0  0  0  0  0  0  0  0
   47.8610   30.6680   48.5970 C   0  0  0  0  0  0  0  0  0  0  0  0
   46.4060   30.6300   48.4050 C   0  0  1  0  0  0  0  0  0  0  0  0
   45.6010   31.8330   48.8190 C   0  0  0  0  0  0  0  0  0  0  0  0
   45.2230   32.7400   48.0020 O   0  0  0  0  0  0  0  0  0  0  0  0
   45.2530   31.9540   50.1780 O   0  0  0  0  0  0  0  0  0  0  0  0
   43.7838   32.4615   42.3619 H   0  0  0  0  0  0  0  0  0  0  0  0
   43.7806   30.0163   43.0105 H   0  0  0  0  0  0  0  0  0  0  0  0
   44.8183   34.5472   42.6012 H   0  0  0  0  0  0  0  0  0  0  0  0
   46.2239   34.6829   43.7387 H   0  0  0  0  0  0  0  0  0  0  0  0
   47.9983   35.7684   42.8446 H   0  0  0  0  0  0  0  0  0  0  0  0
   49.5350   36.1359   40.8867 H   0  0  0  0  0  0  0  0  0  0  0  0
   47.1560   33.4619   38.5485 H   0  0  0  0  0  0  0  0  0  0  0  0
   48.5989   31.1990   44.9597 H   0  0  0  0  0  0  0  0  0  0  0  0
   49.0949   28.5550   44.8670 H   0  0  0  0  0  0  0  0  0  0  0  0
   47.9201   28.7089   43.5168 H   0  0  0  0  0  0  0  0  0  0  0  0
   49.4224   29.6937   43.5168 H   0  0  0  0  0  0  0  0  0  0  0  0
   46.7669   29.1074   46.1646 H   0  0  0  0  0  0  0  0  0  0  0  0
   48.5202   29.3037   46.6256 H   0  0  0  0  0  0  0  0  0  0  0  0
   47.2092   31.6571   46.4420 H   0  0  0  0  0  0  0  0  0  0  0  0
   48.4132   29.7422   48.8159 H   0  0  0  0  0  0  0  0  0  0  0  0
   48.5496   31.2290   49.2460 H   0  0  0  0  0  0  0  0  0  0  0  0
   45.6435   29.8924   48.6956 H   0  0  0  0  0  0  0  0  0  0  0  0
   44.7241   32.7321   50.4862 H   0  0  0  0  0  0  0  0  0  0  0  0
  1  7  1  0
  2  1  1  0
  2  3  2  0
  3  4  1  0
  4  6  1  0
  4  5  2  0
  6 16  1  0
  7  8  2  0
  7  6  1  0
  9  1  1  0
 10 11  2  0
 10  9  1  0
 12 11  1  0
 13 12  2  0
 14 13  1  0
 14 15  2  0
 15 10  1  0
 16 18  1  0
 17 16  1  0
 18 19  1  0
 19 21  1  0
 19 20  1  0
 21 20  1  0
 21 22  1  0
 22 24  1  0
 23 22  2  0
  2 25  1  0
  3 26  1  0
  9 27  1  0
  9 28  1  0
 11 29  1  0
 12 30  1  0
 14 31  1  0
 16 32  1  1
 17 33  1  0
 17 34  1  0
 17 35  1  0
 18 36  1  0
 18 37  1  0
 19 38  1  6
 20 39  1  0
 20 40  1  0
 21 41  1  6
 24 42  1  0
M  ISO  8  25  14  26  14  27   8  28   8  29  14  30  14  31  14  32   8
M  ISO  8  33   8  34   8  35   8  36   8  37   8  38  13  39  13  40  13
M  ISO  2  41  13  42   3
M  END
>  <minimizedAffinity>  (1) 
-4.59564734

>  <minimizedRMSD>  (1) 
1.47292137

$$$$
