
     RDKit          3D

 46 49  0  0  1  0  0  0  0  0999 V2000
   45.5490   33.0430   43.1380 N   0  0  0  0  0  0  0  0  0  0  0  0
   44.4490   32.4020   42.7640 C   0  0  0  0  0  0  0  0  0  0  0  0
   44.3020   31.0450   43.1480 C   0  0  0  0  0  0  0  0  0  0  0  0
   45.2870   30.4430   43.8850 C   0  0  0  0  0  0  0  0  0  0  0  0
   45.1570   29.2570   44.2220 O   0  0  0  0  0  0  0  0  0  0  0  0
   46.3900   31.1230   44.2480 N   0  0  0  0  0  0  0  0  0  0  0  0
   46.4730   32.4010   43.8570 C   0  0  0  0  0  0  0  0  0  0  0  0
   47.5190   33.0060   44.2140 O   0  0  0  0  0  0  0  0  0  0  0  0
   45.7950   34.4390   42.7940 C   0  0  0  0  0  0  0  0  0  0  0  0
   46.7490   34.5640   41.6590 C   0  0  0  0  0  0  0  0  0  0  0  0
   47.8830   35.3810   41.8300 C   0  0  0  0  0  0  0  0  0  0  0  0
   48.7690   35.4960   40.7740 C   0  0  0  0  0  0  0  0  0  0  0  0
   48.5050   34.8180   39.6220 N   0  0  0  0  0  0  0  0  0  0  0  0
   47.3890   34.0340   39.4980 C   0  0  0  0  0  0  0  0  0  0  0  0
   46.5250   33.9100   40.5030 N   0  0  0  0  0  0  0  0  0  0  0  0
   47.4310   30.4800   45.0310 C   0  0  2  0  0  0  0  0  0  0  0  0
   47.8640   29.1620   44.5110 C   0  0  0  0  0  0  0  0  0  0  0  0
   47.0780   30.3190   46.4690 C   0  0  0  0  0  0  0  0  0  0  0  0
   48.2780   30.3070   47.3940 C   0  0  2  0  0  0  0  0  0  0  0  0
   48.4220   28.9900   48.1440 C   0  0  0  0  0  0  0  0  0  0  0  0
   48.1160   30.2660   48.8440 C   0  0  1  0  0  0  0  0  0  0  0  0
   49.2310   30.7750   49.6890 C   0  0  0  0  0  0  0  0  0  0  0  0
   49.9040   31.9730   49.5640 C   0  0  0  0  0  0  0  0  0  0  0  0
   50.8650   32.0420   50.5570 C   0  0  0  0  0  0  0  0  0  0  0  0
   50.7190   30.8550   51.2450 C   0  0  0  0  0  0  0  0  0  0  0  0
   49.7470   30.1420   50.6990 O   0  0  0  0  0  0  0  0  0  0  0  0
   43.6727   32.9093   42.1724 H   0  0  0  0  0  0  0  0  0  0  0  0
   43.4042   30.4804   42.8563 H   0  0  0  0  0  0  0  0  0  0  0  0
   44.8419   34.9105   42.5126 H   0  0  0  0  0  0  0  0  0  0  0  0
   46.2361   34.9365   43.6703 H   0  0  0  0  0  0  0  0  0  0  0  0
   48.0593   35.9128   42.7766 H   0  0  0  0  0  0  0  0  0  0  0  0
   49.6689   36.1224   40.8625 H   0  0  0  0  0  0  0  0  0  0  0  0
   47.2040   33.4993   38.5547 H   0  0  0  0  0  0  0  0  0  0  0  0
   48.2704   31.1845   44.9352 H   0  0  0  0  0  0  0  0  0  0  0  0
   48.0848   28.4900   45.3534 H   0  0  0  0  0  0  0  0  0  0  0  0
   47.0611   28.7284   43.8967 H   0  0  0  0  0  0  0  0  0  0  0  0
   48.7676   29.2890   43.8967 H   0  0  0  0  0  0  0  0  0  0  0  0
   46.4229   31.1530   46.7611 H   0  0  0  0  0  0  0  0  0  0  0  0
   46.5843   29.3413   46.5709 H   0  0  0  0  0  0  0  0  0  0  0  0
   48.8770   30.9630   46.7452 H   0  0  0  0  0  0  0  0  0  0  0  0
   47.6523   28.2099   48.0494 H   0  0  0  0  0  0  0  0  0  0  0  0
   49.1923   28.2091   48.2271 H   0  0  0  0  0  0  0  0  0  0  0  0
   47.3216   30.6298   49.5123 H   0  0  0  0  0  0  0  0  0  0  0  0
   49.7094   32.7433   48.8032 H   0  0  0  0  0  0  0  0  0  0  0  0
   51.5798   32.8549   50.7526 H   0  0  0  0  0  0  0  0  0  0  0  0
   51.3189   30.5482   52.1145 H   0  0  0  0  0  0  0  0  0  0  0  0
  1  7  1  0
  2  1  1  0
  2  3  2  0
  3  4  1  0
  4  5  2  0
  4  6  1  0
  6 16  1  0
  7  8  2  0
  7  6  1  0
  9  1  1  0
 10 11  2  0
 10  9  1  0
 12 11  1  0
 13 12  2  0
 14 13  1  0
 14 15  2  0
 15 10  1  0
 16 18  1  0
 17 16  1  0
 18 19  1  0
 19 20  1  0
 19 21  1  0
 20 21  1  0
 21 22  1  0
 22 26  1  0
 23 22  2  0
 23 24  1  0
 24 25  2  0
 26 25  1  0
  2 27  1  0
  3 28  1  0
  9 29  1  0
  9 30  1  0
 11 31  1  0
 12 32  1  0
 14 33  1  0
 16 34  1  1
 17 35  1  0
 17 36  1  0
 17 37  1  0
 18 38  1  0
 18 39  1  0
 19 40  1  1
 20 41  1  0
 20 42  1  0
 21 43  1  6
 23 44  1  0
 24 45  1  0
 25 46  1  0
M  ISO  8  27  14  28  14  29   8  30   8  31  14  32  14  33  14  34   8
M  ISO  8  35   8  36   8  37   8  38   8  39   8  40  13  41  13  42  13
M  ISO  4  43  13  44  14  45  14  46  14
M  END
>  <minimizedAffinity>  (1) 
-4.55440903

>  <minimizedRMSD>  (1) 
3.58905816

$$$$
