
     RDKit          3D

 41 43  0  0  1  0  0  0  0  0999 V2000
   45.1690   33.0910   42.9620 N   0  0  0  0  0  0  0  0  0  0  0  0
   44.2240   32.3430   42.4280 C   0  0  0  0  0  0  0  0  0  0  0  0
   44.0670   31.0160   42.8990 C   0  0  0  0  0  0  0  0  0  0  0  0
   44.8920   30.5480   43.8830 C   0  0  0  0  0  0  0  0  0  0  0  0
   44.7530   29.3880   44.2920 O   0  0  0  0  0  0  0  0  0  0  0  0
   45.8500   31.3290   44.4130 N   0  0  0  0  0  0  0  0  0  0  0  0
   45.9560   32.5720   43.9350 C   0  0  0  0  0  0  0  0  0  0  0  0
   46.8680   33.2890   44.4510 O   0  0  0  0  0  0  0  0  0  0  0  0
   45.4190   34.4740   42.5540 C   0  0  0  0  0  0  0  0  0  0  0  0
   46.5180   34.5650   41.5580 C   0  0  0  0  0  0  0  0  0  0  0  0
   47.6580   35.3060   41.8660 C   0  0  0  0  0  0  0  0  0  0  0  0
   48.6570   35.3680   40.9180 C   0  0  0  0  0  0  0  0  0  0  0  0
   48.4950   34.7100   39.7310 N   0  0  0  0  0  0  0  0  0  0  0  0
   47.3760   34.0010   39.4670 C   0  0  0  0  0  0  0  0  0  0  0  0
   46.4080   33.9320   40.3630 N   0  0  0  0  0  0  0  0  0  0  0  0
   46.7240   30.8380   45.4530 C   0  0  2  0  0  0  0  0  0  0  0  0
   47.3750   29.5450   45.1520 C   0  0  0  0  0  0  0  0  0  0  0  0
   46.0510   30.7070   46.7850 C   0  0  0  0  0  0  0  0  0  0  0  0
   45.9630   32.0040   47.5370 C   0  0  2  0  0  0  0  0  0  0  0  0
   47.2000   32.2970   48.3750 C   0  0  0  0  0  0  0  0  0  0  0  0
   45.8930   32.0330   49.0050 C   0  0  2  0  0  0  0  0  0  0  0  0
   45.8240   30.7850   49.7810 N   0  0  0  0  0  0  0  0  0  0  0  0
   43.5726   32.7398   41.6353 H   0  0  0  0  0  0  0  0  0  0  0  0
   43.2864   30.3668   42.4756 H   0  0  0  0  0  0  0  0  0  0  0  0
   44.5008   34.8858   42.1098 H   0  0  0  0  0  0  0  0  0  0  0  0
   45.7172   35.0451   43.4456 H   0  0  0  0  0  0  0  0  0  0  0  0
   47.7569   35.8232   42.8318 H   0  0  0  0  0  0  0  0  0  0  0  0
   49.5750   35.9411   41.1148 H   0  0  0  0  0  0  0  0  0  0  0  0
   47.2707   33.4801   38.5039 H   0  0  0  0  0  0  0  0  0  0  0  0
   47.4962   31.6202   45.4963 H   0  0  0  0  0  0  0  0  0  0  0  0
   47.6314   29.0358   46.0927 H   0  0  0  0  0  0  0  0  0  0  0  0
   46.6868   28.9147   44.5697 H   0  0  0  0  0  0  0  0  0  0  0  0
   48.2912   29.7225   44.5697 H   0  0  0  0  0  0  0  0  0  0  0  0
   45.0314   30.3265   46.6249 H   0  0  0  0  0  0  0  0  0  0  0  0
   46.6598   30.0200   47.3911 H   0  0  0  0  0  0  0  0  0  0  0  0
   45.3525   32.4870   46.7598 H   0  0  0  0  0  0  0  0  0  0  0  0
   48.0088   31.5549   48.4463 H   0  0  0  0  0  0  0  0  0  0  0  0
   47.9446   33.1055   48.4201 H   0  0  0  0  0  0  0  0  0  0  0  0
   45.2146   32.5600   49.6921 H   0  0  0  0  0  0  0  0  0  0  0  0
   45.8362   31.0052   50.7871 H   0  0  0  0  0  0  0  0  0  0  0  0
   44.9541   30.2845   49.5496 H   0  0  0  0  0  0  0  0  0  0  0  0
  1  7  1  0
  2  3  2  0
  2  1  1  0
  3  4  1  0
  4  5  2  0
  4  6  1  0
  6 16  1  0
  7  6  1  0
  7  8  2  0
  9  1  1  0
 10 11  2  0
 10  9  1  0
 12 11  1  0
 13 12  2  0
 14 13  1  0
 14 15  2  0
 15 10  1  0
 16 18  1  0
 17 16  1  0
 18 19  1  0
 19 20  1  0
 19 21  1  0
 20 21  1  0
 21 22  1  0
  2 23  1  0
  3 24  1  0
  9 25  1  0
  9 26  1  0
 11 27  1  0
 12 28  1  0
 14 29  1  0
 16 30  1  1
 17 31  1  0
 17 32  1  0
 17 33  1  0
 18 34  1  0
 18 35  1  0
 19 36  1  6
 20 37  1  0
 20 38  1  0
 21 39  1  6
 22 40  1  0
 22 41  1  0
M  ISO  8  23  14  24  14  25   8  26   8  27  14  28  14  29  14  30   8
M  ISO  8  31   8  32   8  33   8  34   8  35   8  36  13  37  13  38  13
M  ISO  3  39  13  40   5  41   5
M  END
>  <minimizedAffinity>  (1) 
-4.53330994

>  <minimizedRMSD>  (1) 
0.810360909

$$$$
