
     RDKit          3D

 45 47  0  0  1  0  0  0  0  0999 V2000
   45.0770   33.2860   42.9380 N   0  0  0  0  0  0  0  0  0  0  0  0
   43.9790   33.0260   42.2520 C   0  0  0  0  0  0  0  0  0  0  0  0
   43.4710   31.7020   42.2800 C   0  0  0  0  0  0  0  0  0  0  0  0
   44.1260   30.7500   43.0070 C   0  0  0  0  0  0  0  0  0  0  0  0
   43.6750   29.5840   43.0300 O   0  0  0  0  0  0  0  0  0  0  0  0
   45.2340   31.0370   43.6920 N   0  0  0  0  0  0  0  0  0  0  0  0
   45.6690   32.3090   43.6290 C   0  0  0  0  0  0  0  0  0  0  0  0
   46.7220   32.5580   44.2860 O   0  0  0  0  0  0  0  0  0  0  0  0
   45.6660   34.6170   42.9630 C   0  0  0  0  0  0  0  0  0  0  0  0
   46.7540   34.7680   41.9460 C   0  0  0  0  0  0  0  0  0  0  0  0
   47.8830   35.5180   42.2580 C   0  0  0  0  0  0  0  0  0  0  0  0
   48.8700   35.6320   41.2860 C   0  0  0  0  0  0  0  0  0  0  0  0
   48.6900   35.0150   40.0910 N   0  0  0  0  0  0  0  0  0  0  0  0
   47.5680   34.2830   39.8140 C   0  0  0  0  0  0  0  0  0  0  0  0
   46.6230   34.1720   40.7390 N   0  0  0  0  0  0  0  0  0  0  0  0
   45.9270   30.0270   44.4630 C   0  0  2  0  0  0  0  0  0  0  0  0
   46.2560   28.7930   43.7070 C   0  0  0  0  0  0  0  0  0  0  0  0
   45.2030   29.6200   45.7070 C   0  0  0  0  0  0  0  0  0  0  0  0
   45.6620   30.3770   46.9330 C   0  0  2  0  0  0  0  0  0  0  0  0
   46.5280   29.5350   47.8580 C   0  0  0  0  0  0  0  0  0  0  0  0
   45.1830   30.0100   48.2650 C   0  0  1  0  0  0  0  0  0  0  0  0
   45.0150   31.1230   49.2570 C   0  0  0  0  0  0  0  0  0  0  0  0
   45.8460   32.3370   48.9430 C   0  0  0  0  0  0  0  0  0  0  0  0
   43.4726   33.8139   41.6752 H   0  0  0  0  0  0  0  0  0  0  0  0
   42.5587   31.4449   41.7217 H   0  0  0  0  0  0  0  0  0  0  0  0
   44.8796   35.3573   42.7544 H   0  0  0  0  0  0  0  0  0  0  0  0
   46.1070   34.7747   43.9583 H   0  0  0  0  0  0  0  0  0  0  0  0
   47.9909   36.0037   43.2391 H   0  0  0  0  0  0  0  0  0  0  0  0
   49.7829   36.2134   41.4825 H   0  0  0  0  0  0  0  0  0  0  0  0
   47.4506   33.7924   38.8365 H   0  0  0  0  0  0  0  0  0  0  0  0
   46.8633   30.5396   44.7288 H   0  0  0  0  0  0  0  0  0  0  0  0
   46.4734   27.9777   44.4127 H   0  0  0  0  0  0  0  0  0  0  0  0
   45.4014   28.5120   43.0740 H   0  0  0  0  0  0  0  0  0  0  0  0
   47.1371   28.9747   43.0740 H   0  0  0  0  0  0  0  0  0  0  0  0
   44.1282   29.8046   45.5632 H   0  0  0  0  0  0  0  0  0  0  0  0
   45.4177   28.5549   45.8788 H   0  0  0  0  0  0  0  0  0  0  0  0
   45.7078   31.3430   46.4088 H   0  0  0  0  0  0  0  0  0  0  0  0
   46.6983   28.4700   47.6417 H   0  0  0  0  0  0  0  0  0  0  0  0
   47.5466   29.6079   48.2669 H   0  0  0  0  0  0  0  0  0  0  0  0
   44.3071   29.4851   48.6740 H   0  0  0  0  0  0  0  0  0  0  0  0
   43.9560   31.4201   49.2710 H   0  0  0  0  0  0  0  0  0  0  0  0
   45.3542   30.7419   50.2315 H   0  0  0  0  0  0  0  0  0  0  0  0
   46.1708   32.8115   49.8807 H   0  0  0  0  0  0  0  0  0  0  0  0
   46.7286   32.0363   48.3593 H   0  0  0  0  0  0  0  0  0  0  0  0
   45.2463   33.0509   48.3593 H   0  0  0  0  0  0  0  0  0  0  0  0
  1  9  1  0
  1  7  1  0
  2  3  2  0
  2  1  1  0
  3  4  1  0
  4  5  2  0
  4  6  1  0
  6 16  1  0
  7  6  1  0
  7  8  2  0
 10 11  2  0
 10  9  1  0
 12 11  1  0
 13 12  2  0
 14 13  1  0
 14 15  2  0
 15 10  1  0
 16 18  1  0
 17 16  1  0
 18 19  1  0
 19 20  1  0
 19 21  1  0
 20 21  1  0
 21 22  1  0
 23 22  1  0
  2 24  1  0
  3 25  1  0
  9 26  1  0
  9 27  1  0
 11 28  1  0
 12 29  1  0
 14 30  1  0
 16 31  1  1
 17 32  1  0
 17 33  1  0
 17 34  1  0
 18 35  1  0
 18 36  1  0
 19 37  1  6
 20 38  1  0
 20 39  1  0
 21 40  1  6
 22 41  1  0
 22 42  1  0
 23 43  1  0
 23 44  1  0
 23 45  1  0
M  ISO  8  24  14  25  14  26   8  27   8  28  14  29  14  30  14  31   8
M  ISO  8  32   8  33   8  34   8  35   8  36   8  37  13  38  13  39  13
M  ISO  6  40  13  41   8  42   8  43   8  44   8  45   8
M  END
>  <minimizedAffinity>  (1) 
-4.3331399

>  <minimizedRMSD>  (1) 
1.71587634

$$$$
