
     RDKit          3D

 50 54  0  0  1  0  0  0  0  0999 V2000
   49.9670   30.2650   43.2440 C   0  0  2  0  0  0  0  0  0  0  0  0
   47.2200   31.5420   41.1140 N   0  0  0  0  0  0  0  0  0  0  0  0
   46.7300   30.4380   40.5660 C   0  0  0  0  0  0  0  0  0  0  0  0
   47.3240   29.1940   40.9040 C   0  0  0  0  0  0  0  0  0  0  0  0
   48.3730   29.1660   41.7760 C   0  0  0  0  0  0  0  0  0  0  0  0
   48.8910   28.0790   42.0700 O   0  0  0  0  0  0  0  0  0  0  0  0
   48.8510   30.3000   42.3170 N   0  0  0  0  0  0  0  0  0  0  0  0
   48.2540   31.4360   41.9630 C   0  0  0  0  0  0  0  0  0  0  0  0
   48.7280   32.4960   42.4910 O   0  0  0  0  0  0  0  0  0  0  0  0
   46.6800   32.8560   40.8290 C   0  0  0  0  0  0  0  0  0  0  0  0
   47.0240   33.3080   39.4510 C   0  0  0  0  0  0  0  0  0  0  0  0
   48.1690   34.1040   39.2650 C   0  0  0  0  0  0  0  0  0  0  0  0
   48.4610   34.5080   37.9730 C   0  0  0  0  0  0  0  0  0  0  0  0
   47.6470   34.1270   36.9620 N   0  0  0  0  0  0  0  0  0  0  0  0
   46.5480   33.3580   37.1730 C   0  0  0  0  0  0  0  0  0  0  0  0
   46.2440   32.9550   38.4090 N   0  0  0  0  0  0  0  0  0  0  0  0
   51.2960   30.1320   42.6060 C   0  0  0  0  0  0  0  0  0  0  0  0
   49.8350   29.2000   44.2840 C   0  0  0  0  0  0  0  0  0  0  0  0
   48.9420   29.5890   45.4370 C   0  0  2  0  0  0  0  0  0  0  0  0
   49.3260   28.9090   46.7350 C   0  0  0  0  0  0  0  0  0  0  0  0
   48.0540   28.6140   46.0800 C   0  0  1  0  0  0  0  0  0  0  0  0
   46.8010   29.1420   46.5910 N   0  0  0  0  0  0  0  0  0  0  0  0
   45.5900   28.6150   46.3810 C   0  0  0  0  0  0  0  0  0  0  0  0
   44.6280   29.3590   47.0030 N   0  0  0  0  0  0  0  0  0  0  0  0
   45.2490   30.3800   47.6230 C   0  0  0  0  0  0  0  0  0  0  0  0
   44.8740   31.4560   48.4010 C   0  0  0  0  0  0  0  0  0  0  0  0
   45.8120   32.3020   48.8630 N   0  0  0  0  0  0  0  0  0  0  0  0
   47.1250   32.1710   48.6130 C   0  0  0  0  0  0  0  0  0  0  0  0
   47.4600   31.1150   47.8530 N   0  0  0  0  0  0  0  0  0  0  0  0
   46.5910   30.2270   47.3560 C   0  0  0  0  0  0  0  0  0  0  0  0
   49.9155   31.2555   43.7197 H   0  0  0  0  0  0  0  0  0  0  0  0
   45.8829   30.4854   39.8658 H   0  0  0  0  0  0  0  0  0  0  0  0
   46.9417   28.2600   40.4664 H   0  0  0  0  0  0  0  0  0  0  0  0
   45.5852   32.8206   40.9294 H   0  0  0  0  0  0  0  0  0  0  0  0
   47.1192   33.5687   41.5426 H   0  0  0  0  0  0  0  0  0  0  0  0
   48.8073   34.3941   40.1126 H   0  0  0  0  0  0  0  0  0  0  0  0
   49.3445   35.1314   37.7712 H   0  0  0  0  0  0  0  0  0  0  0  0
   45.9087   33.0673   36.3264 H   0  0  0  0  0  0  0  0  0  0  0  0
   52.0700   30.0545   43.3838 H   0  0  0  0  0  0  0  0  0  0  0  0
   51.3134   29.2276   41.9801 H   0  0  0  0  0  0  0  0  0  0  0  0
   51.4923   31.0150   41.9801 H   0  0  0  0  0  0  0  0  0  0  0  0
   49.4175   28.2999   43.8091 H   0  0  0  0  0  0  0  0  0  0  0  0
   50.8394   29.0269   44.6979 H   0  0  0  0  0  0  0  0  0  0  0  0
   48.7649   30.6013   45.0448 H   0  0  0  0  0  0  0  0  0  0  0  0
   50.1283   28.1565   46.7484 H   0  0  0  0  0  0  0  0  0  0  0  0
   49.6317   29.2474   47.7360 H   0  0  0  0  0  0  0  0  0  0  0  0
   47.5793   27.6621   45.7999 H   0  0  0  0  0  0  0  0  0  0  0  0
   45.3956   27.7082   45.7895 H   0  0  0  0  0  0  0  0  0  0  0  0
   43.8135   31.6211   48.6421 H   0  0  0  0  0  0  0  0  0  0  0  0
   47.8726   32.8777   49.0026 H   0  0  0  0  0  0  0  0  0  0  0  0
  1 18  1  0
  2  8  1  0
  3  4  2  0
  3  2  1  0
  4  5  1  0
  5  6  2  0
  5  7  1  0
  7  1  1  0
  8  7  1  0
  8  9  2  0
 10  2  1  0
 11 10  1  0
 12 11  2  0
 13 12  1  0
 14 15  1  0
 14 13  2  0
 15 16  2  0
 16 11  1  0
 17  1  1  0
 18 19  1  0
 19 21  1  0
 19 20  1  0
 21 22  1  0
 21 20  1  0
 22 30  1  0
 23 22  1  0
 23 24  2  0
 24 25  1  0
 25 26  2  0
 26 27  1  0
 28 27  2  0
 29 28  1  0
 30 25  1  0
 30 29  2  0
  1 31  1  1
  3 32  1  0
  4 33  1  0
 10 34  1  0
 10 35  1  0
 12 36  1  0
 13 37  1  0
 15 38  1  0
 17 39  1  0
 17 40  1  0
 17 41  1  0
 18 42  1  0
 18 43  1  0
 19 44  1  1
 20 45  1  0
 20 46  1  0
 21 47  1  6
 23 48  1  0
 26 49  1  0
 28 50  1  0
M  ISO  8  31   8  32  14  33  14  34   8  35   8  36  14  37  14  38  14
M  ISO  8  39   8  40   8  41   8  42   8  43   8  44  13  45  13  46  13
M  ISO  4  47  13  48  14  49  14  50  14
M  END
>  <minimizedAffinity>  (1) 
-4.26196623

>  <minimizedRMSD>  (1) 
4.50346422

$$$$
