
     RDKit          3D

 54 57  0  0  1  0  0  0  0  0999 V2000
   49.1430   30.0540   43.3590 C   0  0  2  0  0  0  0  0  0  0  0  0
   46.6410   31.9330   41.3860 N   0  0  0  0  0  0  0  0  0  0  0  0
   45.7860   31.0010   41.0240 C   0  0  0  0  0  0  0  0  0  0  0  0
   46.0210   29.6650   41.4390 C   0  0  0  0  0  0  0  0  0  0  0  0
   47.1260   29.3870   42.2000 C   0  0  0  0  0  0  0  0  0  0  0  0
   47.3350   28.2220   42.5650 O   0  0  0  0  0  0  0  0  0  0  0  0
   47.9730   30.3460   42.5520 N   0  0  0  0  0  0  0  0  0  0  0  0
   47.7030   31.5950   42.1330 C   0  0  0  0  0  0  0  0  0  0  0  0
   48.5310   32.4900   42.4850 O   0  0  0  0  0  0  0  0  0  0  0  0
   46.4880   33.3330   41.0120 C   0  0  0  0  0  0  0  0  0  0  0  0
   46.9290   33.5820   39.6090 C   0  0  0  0  0  0  0  0  0  0  0  0
   48.1090   34.2990   39.3940 C   0  0  0  0  0  0  0  0  0  0  0  0
   48.5080   34.5240   38.0820 C   0  0  0  0  0  0  0  0  0  0  0  0
   47.7280   34.0330   37.0760 N   0  0  0  0  0  0  0  0  0  0  0  0
   46.5880   33.3400   37.3250 C   0  0  0  0  0  0  0  0  0  0  0  0
   46.1990   33.1200   38.5730 N   0  0  0  0  0  0  0  0  0  0  0  0
   50.2920   29.4990   42.5990 C   0  0  0  0  0  0  0  0  0  0  0  0
   48.8710   29.1390   44.5130 C   0  0  0  0  0  0  0  0  0  0  0  0
   48.5600   29.8950   45.7940 C   0  0  2  0  0  0  0  0  0  0  0  0
   49.2350   29.3000   47.0130 C   0  0  0  0  0  0  0  0  0  0  0  0
   47.7760   29.2650   46.8590 C   0  0  1  0  0  0  0  0  0  0  0  0
   47.0110   30.1540   47.7040 N   0  0  0  0  0  0  0  0  0  0  0  0
   47.0160   31.5180   47.2080 C   0  0  0  0  0  0  0  0  0  0  0  0
   46.4210   32.3910   48.2860 C   0  0  0  0  0  0  0  0  0  0  0  0
   45.7400   31.6160   49.3830 C   0  0  0  0  0  0  0  0  0  0  0  0
   44.8920   30.4740   48.8660 C   0  0  0  0  0  0  0  0  0  0  0  0
   45.6570   29.6540   47.8410 C   0  0  0  0  0  0  0  0  0  0  0  0
   49.4156   31.0503   43.7372 H   0  0  0  0  0  0  0  0  0  0  0  0
   44.9071   31.2525   40.4122 H   0  0  0  0  0  0  0  0  0  0  0  0
   45.3250   28.8624   41.1535 H   0  0  0  0  0  0  0  0  0  0  0  0
   45.4287   33.6135   41.1075 H   0  0  0  0  0  0  0  0  0  0  0  0
   47.1183   33.9370   41.6813 H   0  0  0  0  0  0  0  0  0  0  0  0
   48.7049   34.6745   40.2389 H   0  0  0  0  0  0  0  0  0  0  0  0
   49.4288   35.0834   37.8603 H   0  0  0  0  0  0  0  0  0  0  0  0
   45.9844   32.9593   36.4879 H   0  0  0  0  0  0  0  0  0  0  0  0
   51.0535   29.1312   43.3024 H   0  0  0  0  0  0  0  0  0  0  0  0
   49.9461   28.6687   41.9659 H   0  0  0  0  0  0  0  0  0  0  0  0
   50.7274   30.2861   41.9659 H   0  0  0  0  0  0  0  0  0  0  0  0
   48.0108   28.5009   44.2622 H   0  0  0  0  0  0  0  0  0  0  0  0
   49.7788   28.5431   44.6884 H   0  0  0  0  0  0  0  0  0  0  0  0
   48.4753   30.8674   45.2868 H   0  0  0  0  0  0  0  0  0  0  0  0
   49.8232   28.3748   46.9234 H   0  0  0  0  0  0  0  0  0  0  0  0
   49.9347   29.6651   47.7792 H   0  0  0  0  0  0  0  0  0  0  0  0
   47.0247   28.4620   46.8872 H   0  0  0  0  0  0  0  0  0  0  0  0
   48.0467   31.8362   46.9924 H   0  0  0  0  0  0  0  0  0  0  0  0
   46.4330   31.5960   46.2785 H   0  0  0  0  0  0  0  0  0  0  0  0
   47.2280   32.9900   48.7330 H   0  0  0  0  0  0  0  0  0  0  0  0
   45.6521   33.0152   47.8073 H   0  0  0  0  0  0  0  0  0  0  0  0
   46.5108   31.2048   50.0514 H   0  0  0  0  0  0  0  0  0  0  0  0
   45.0682   32.3117   49.9072 H   0  0  0  0  0  0  0  0  0  0  0  0
   44.6089   29.8253   49.7080 H   0  0  0  0  0  0  0  0  0  0  0  0
   43.9949   30.8910   48.3850 H   0  0  0  0  0  0  0  0  0  0  0  0
   45.1459   29.7201   46.8692 H   0  0  0  0  0  0  0  0  0  0  0  0
   45.6949   28.6073   48.1771 H   0  0  0  0  0  0  0  0  0  0  0  0
  1 18  1  0
  2  8  1  0
  3  2  1  0
  3  4  2  0
  4  5  1  0
  5  7  1  0
  5  6  2  0
  7  1  1  0
  8  9  2  0
  8  7  1  0
 10  2  1  0
 11 10  1  0
 12 11  2  0
 13 12  1  0
 14 15  1  0
 14 13  2  0
 15 16  2  0
 16 11  1  0
 17  1  1  0
 18 19  1  0
 19 21  1  0
 19 20  1  0
 21 20  1  0
 21 22  1  0
 22 27  1  0
 23 22  1  0
 23 24  1  0
 24 25  1  0
 26 25  1  0
 27 26  1  0
  1 28  1  1
  3 29  1  0
  4 30  1  0
 10 31  1  0
 10 32  1  0
 12 33  1  0
 13 34  1  0
 15 35  1  0
 17 36  1  0
 17 37  1  0
 17 38  1  0
 18 39  1  0
 18 40  1  0
 19 41  1  6
 20 42  1  0
 20 43  1  0
 21 44  1  6
 23 45  1  0
 23 46  1  0
 24 47  1  0
 24 48  1  0
 25 49  1  0
 25 50  1  0
 26 51  1  0
 26 52  1  0
 27 53  1  0
 27 54  1  0
M  ISO  8  28   8  29  14  30  14  31   8  32   8  33  14  34  14  35  14
M  ISO  8  36   8  37   8  38   8  39   8  40   8  41  13  42  13  43  13
M  ISO  8  44  13  45  13  46  13  47  13  48  13  49  13  50  13  51  13
M  ISO  3  52  13  53  13  54  13
M  END
>  <minimizedAffinity>  (1) 
-4.06559229

>  <minimizedRMSD>  (1) 
3.64187074

$$$$
