
     RDKit          3D

 22 24  0  0  0  0  0  0  0  0999 V2000
   43.9010   33.8300   40.7920 S   0  0  0  0  0  0  0  0  0  0  0  0
   39.0600   32.9250   41.4760 N   0  0  0  0  0  0  0  0  0  0  0  0
   39.9040   32.0150   41.9960 C   0  0  0  0  0  0  0  0  0  0  0  0
   41.1760   32.3750   41.7440 N   0  0  0  0  0  0  0  0  0  0  0  0
   41.1910   33.5450   41.0420 C   0  0  0  0  0  0  0  0  0  0  0  0
   42.1990   34.3280   40.5440 C   0  0  0  0  0  0  0  0  0  0  0  0
   41.8640   35.4670   39.8710 N   0  0  0  0  0  0  0  0  0  0  0  0
   40.5510   35.7970   39.7110 C   0  0  0  0  0  0  0  0  0  0  0  0
   39.6060   34.9970   40.2180 N   0  0  0  0  0  0  0  0  0  0  0  0
   39.8450   33.8570   40.8940 C   0  0  0  0  0  0  0  0  0  0  0  0
   44.1300   35.5230   43.0270 C   0  0  0  0  0  0  0  0  0  0  0  0
   44.3680   34.2250   42.4910 C   0  0  0  0  0  0  0  0  0  0  0  0
   44.9710   33.2680   43.3130 C   0  0  0  0  0  0  0  0  0  0  0  0
   45.3030   33.6240   44.5880 N   0  0  0  0  0  0  0  0  0  0  0  0
   45.0580   34.8640   45.0500 C   0  0  0  0  0  0  0  0  0  0  0  0
   44.4820   35.8090   44.2940 N   0  0  0  0  0  0  0  0  0  0  0  0
   38.0308   32.9131   41.5140 H   0  0  0  0  0  0  0  0  0  0  0  0
   39.5996   31.1117   42.5451 H   0  0  0  0  0  0  0  0  0  0  0  0
   40.2710   36.7128   39.1699 H   0  0  0  0  0  0  0  0  0  0  0  0
   43.6564   36.2950   42.4026 H   0  0  0  0  0  0  0  0  0  0  0  0
   45.1729   32.2527   42.9410 H   0  0  0  0  0  0  0  0  0  0  0  0
   45.3403   35.1106   46.0842 H   0  0  0  0  0  0  0  0  0  0  0  0
  1 12  1  0
  2  3  1  0
  4  3  2  0
  5  4  1  0
  6  1  1  0
  6  5  2  0
  7  6  1  0
  8  7  2  0
  8  9  1  0
  9 10  2  0
 10  5  1  0
 10  2  1  0
 11 16  2  0
 12 11  1  0
 12 13  2  0
 13 14  1  0
 14 15  2  0
 16 15  1  0
  2 17  1  0
  3 18  1  0
  8 19  1  0
 11 20  1  0
 13 21  1  0
 15 22  1  0
M  ISO  6  17   9  18  14  19  14  20  14  21  14  22  14
M  END
>  <minimizedAffinity>  (1) 
-4.71337748

>  <minimizedRMSD>  (1) 
1.29072773

$$$$
