
     RDKit          3D

 21 22  0  0  0  0  0  0  0  0999 V2000
   43.8370   35.2570   41.1940 S   0  0  0  0  0  0  0  0  0  0  0  0
   44.2460   35.8320   43.8950 C   0  0  0  0  0  0  0  0  0  0  0  0
   44.3950   34.8650   42.8560 C   0  0  0  0  0  0  0  0  0  0  0  0
   44.9730   33.6410   43.1680 C   0  0  0  0  0  0  0  0  0  0  0  0
   45.3750   33.4100   44.4530 N   0  0  0  0  0  0  0  0  0  0  0  0
   45.2120   34.3600   45.4100 C   0  0  0  0  0  0  0  0  0  0  0  0
   44.6640   35.5430   45.1480 N   0  0  0  0  0  0  0  0  0  0  0  0
   42.1540   34.6890   41.0030 C   0  0  0  0  0  0  0  0  0  0  0  0
   41.6810   33.4140   41.2410 C   0  0  0  0  0  0  0  0  0  0  0  0
   40.3460   33.1530   41.0400 C   0  0  0  0  0  0  0  0  0  0  0  0
   39.4810   34.1340   40.6110 C   0  0  0  0  0  0  0  0  0  0  0  0
   39.9250   35.4260   40.3630 C   0  0  0  0  0  0  0  0  0  0  0  0
   41.2750   35.6880   40.5670 C   0  0  0  0  0  0  0  0  0  0  0  0
   43.7922   36.8100   43.6770 H   0  0  0  0  0  0  0  0  0  0  0  0
   45.1047   32.8709   42.3936 H   0  0  0  0  0  0  0  0  0  0  0  0
   45.5444   34.1436   46.4360 H   0  0  0  0  0  0  0  0  0  0  0  0
   42.3605   32.6205   41.5855 H   0  0  0  0  0  0  0  0  0  0  0  0
   39.9614   32.1393   41.2259 H   0  0  0  0  0  0  0  0  0  0  0  0
   38.4188   33.8900   40.4619 H   0  0  0  0  0  0  0  0  0  0  0  0
   39.2358   36.2112   40.0187 H   0  0  0  0  0  0  0  0  0  0  0  0
   41.6608   36.7014   40.3820 H   0  0  0  0  0  0  0  0  0  0  0  0
  1  3  1  0
  2  7  2  0
  3  4  2  0
  3  2  1  0
  4  5  1  0
  5  6  2  0
  7  6  1  0
  8  1  1  0
  8  9  2  0
 10  9  1  0
 11 10  2  0
 12 13  2  0
 12 11  1  0
 13  8  1  0
  2 14  1  0
  4 15  1  0
  6 16  1  0
  9 17  1  0
 10 18  1  0
 11 19  1  0
 12 20  1  0
 13 21  1  0
M  ISO  8  14  14  15  14  16  14  17  14  18  14  19  14  20  14  21  14
M  END
>  <minimizedAffinity>  (1) 
-4.18677998

>  <minimizedRMSD>  (1) 
3.23632646

$$$$
