
     RDKit          3D

 20 21  0  0  0  0  0  0  0  0999 V2000
   44.2690   35.8070   44.2080 C   0  0  0  0  0  0  0  0  0  0  0  0
   44.4540   34.9850   43.0780 C   0  0  0  0  0  0  0  0  0  0  0  0
   45.0700   33.7520   43.2450 C   0  0  0  0  0  0  0  0  0  0  0  0
   45.4810   33.3690   44.5010 N   0  0  0  0  0  0  0  0  0  0  0  0
   45.2770   34.2020   45.5530 C   0  0  0  0  0  0  0  0  0  0  0  0
   44.6840   35.3980   45.4130 N   0  0  0  0  0  0  0  0  0  0  0  0
   43.9040   35.5120   41.4360 S   0  0  0  0  0  0  0  0  0  0  0  0
   42.2290   34.9670   41.2000 C   0  0  0  0  0  0  0  0  0  0  0  0
   41.2170   35.8700   40.8680 C   0  0  0  0  0  0  0  0  0  0  0  0
   39.9150   35.4170   40.6890 C   0  0  0  0  0  0  0  0  0  0  0  0
   39.6920   34.0610   40.8530 C   0  0  0  0  0  0  0  0  0  0  0  0
   40.6830   33.1620   41.1810 C   0  0  0  0  0  0  0  0  0  0  0  0
   41.9410   33.6510   41.3460 N   0  0  0  0  0  0  0  0  0  0  0  0
   43.7822   36.7874   44.0992 H   0  0  0  0  0  0  0  0  0  0  0  0
   45.2278   33.0882   42.3822 H   0  0  0  0  0  0  0  0  0  0  0  0
   45.6086   33.8866   46.5533 H   0  0  0  0  0  0  0  0  0  0  0  0
   41.4497   36.9384   40.7483 H   0  0  0  0  0  0  0  0  0  0  0  0
   39.0980   36.1059   40.4285 H   0  0  0  0  0  0  0  0  0  0  0  0
   38.6692   33.6809   40.7141 H   0  0  0  0  0  0  0  0  0  0  0  0
   40.4652   32.0909   41.3045 H   0  0  0  0  0  0  0  0  0  0  0  0
  1  6  2  0
  2  3  2  0
  2  1  1  0
  3  4  1  0
  4  5  2  0
  6  5  1  0
  7  2  1  0
  8 13  1  0
  8  7  1  0
  9  8  2  0
 10 11  2  0
 10  9  1  0
 11 12  1  0
 12 13  2  0
  1 14  1  0
  3 15  1  0
  5 16  1  0
  9 17  1  0
 10 18  1  0
 11 19  1  0
 12 20  1  0
M  ISO  7  14  14  15  14  16  14  17  14  18  14  19  14  20  14
M  END
>  <minimizedAffinity>  (1) 
-4.15853643

>  <minimizedRMSD>  (1) 
3.28509045

$$$$
