
     RDKit          3D

 20 20  0  0  0  0  0  0  0  0999 V2000
   45.3890   35.9630   42.9980 C   0  0  0  0  0  0  0  0  0  0  0  0
   46.0320   34.7090   42.8810 C   0  0  0  0  0  0  0  0  0  0  0  0
   45.9810   33.8400   43.9660 C   0  0  0  0  0  0  0  0  0  0  0  0
   45.3100   34.2260   45.1110 N   0  0  0  0  0  0  0  0  0  0  0  0
   44.7180   35.4280   45.1640 C   0  0  0  0  0  0  0  0  0  0  0  0
   44.7540   36.2770   44.1370 N   0  0  0  0  0  0  0  0  0  0  0  0
   46.9050   34.2140   41.3840 S   0  0  0  0  0  0  0  0  0  0  0  0
   48.6740   34.5620   41.5230 C   0  0  0  0  0  0  0  0  0  0  0  0
   49.0060   36.0180   41.5610 C   0  0  0  0  0  0  0  0  0  0  0  0
   49.2950   33.8690   42.7180 C   0  0  0  0  0  0  0  0  0  0  0  0
   45.4094   36.6761   42.1607 H   0  0  0  0  0  0  0  0  0  0  0  0
   46.4696   32.8559   43.9133 H   0  0  0  0  0  0  0  0  0  0  0  0
   44.1873   35.7219   46.0816 H   0  0  0  0  0  0  0  0  0  0  0  0
   49.1080   34.1548   40.5979 H   0  0  0  0  0  0  0  0  0  0  0  0
   49.0816   36.3497   42.6071 H   0  0  0  0  0  0  0  0  0  0  0  0
   49.9661   36.1886   41.0519 H   0  0  0  0  0  0  0  0  0  0  0  0
   48.2148   36.5879   41.0519 H   0  0  0  0  0  0  0  0  0  0  0  0
   48.8993   34.3106   43.6445 H   0  0  0  0  0  0  0  0  0  0  0  0
   49.0495   32.7971   42.6887 H   0  0  0  0  0  0  0  0  0  0  0  0
   50.3873   33.9959   42.6887 H   0  0  0  0  0  0  0  0  0  0  0  0
  1  6  2  0
  2  1  1  0
  2  3  2  0
  3  4  1  0
  4  5  2  0
  6  5  1  0
  7  8  1  0
  7  2  1  0
  8  9  1  0
  8 10  1  0
  1 11  1  0
  3 12  1  0
  5 13  1  0
  8 14  1  0
  9 15  1  0
  9 16  1  0
  9 17  1  0
 10 18  1  0
 10 19  1  0
 10 20  1  0
M  ISO  8  11  14  12  14  13  14  14   8  15   8  16   8  17   8  18   8
M  ISO  2  19   8  20   8
M  END
>  <minimizedAffinity>  (1) 
-3.66038871

>  <minimizedRMSD>  (1) 
2.66031313

$$$$
