
     RDKit          3D

 17 17  0  0  0  0  0  0  0  0999 V2000
   45.1790   35.9500   43.2970 C   0  0  0  0  0  0  0  0  0  0  0  0
   45.9620   34.7880   43.1410 C   0  0  0  0  0  0  0  0  0  0  0  0
   46.0800   33.8730   44.2010 C   0  0  0  0  0  0  0  0  0  0  0  0
   45.4040   34.1770   45.3630 N   0  0  0  0  0  0  0  0  0  0  0  0
   44.6660   35.2960   45.4770 C   0  0  0  0  0  0  0  0  0  0  0  0
   44.5520   36.1630   44.4770 N   0  0  0  0  0  0  0  0  0  0  0  0
   46.8290   34.4470   41.5840 S   0  0  0  0  0  0  0  0  0  0  0  0
   48.5880   34.6260   41.9050 C   0  0  0  0  0  0  0  0  0  0  0  0
   49.1170   35.9920   41.5440 C   0  0  0  0  0  0  0  0  0  0  0  0
   45.0794   36.6717   42.4729 H   0  0  0  0  0  0  0  0  0  0  0  0
   46.6831   32.9578   44.1078 H   0  0  0  0  0  0  0  0  0  0  0  0
   44.1431   35.4984   46.4234 H   0  0  0  0  0  0  0  0  0  0  0  0
   48.7684   34.4521   42.9761 H   0  0  0  0  0  0  0  0  0  0  0  0
   49.1136   33.8927   41.2757 H   0  0  0  0  0  0  0  0  0  0  0  0
   49.3352   36.5554   42.4632 H   0  0  0  0  0  0  0  0  0  0  0  0
   50.0383   35.8839   40.9528 H   0  0  0  0  0  0  0  0  0  0  0  0
   48.3632   36.5326   40.9528 H   0  0  0  0  0  0  0  0  0  0  0  0
  1  6  2  0
  2  1  1  0
  2  3  2  0
  3  4  1  0
  4  5  2  0
  6  5  1  0
  7  8  1  0
  7  2  1  0
  9  8  1  0
  1 10  1  0
  3 11  1  0
  5 12  1  0
  8 13  1  0
  8 14  1  0
  9 15  1  0
  9 16  1  0
  9 17  1  0
M  ISO  8  10  14  11  14  12  14  13   8  14   8  15   8  16   8  17   8
M  END
>  <minimizedAffinity>  (1) 
-3.43741441

>  <minimizedRMSD>  (1) 
3.46821284

$$$$
