
     RDKit          3D

 29 31  0  0  0  0  0  0  0  0999 V2000
   43.9360   34.1960   39.7700 N   0  0  0  0  0  0  0  0  0  0  0  0
   44.8230   34.6200   40.6450 N   0  0  0  0  0  0  0  0  0  0  0  0
   44.1740   35.1950   41.6900 C   0  0  0  0  0  0  0  0  0  0  0  0
   42.8480   35.0860   41.3830 C   0  0  0  0  0  0  0  0  0  0  0  0
   42.6720   34.4600   40.1770 C   0  0  0  0  0  0  0  0  0  0  0  0
   41.4600   34.1480   39.4900 N   0  0  0  0  0  0  0  0  0  0  0  0
   40.4160   34.9290   39.8090 C   0  0  0  0  0  0  0  0  0  0  0  0
   39.2180   34.6620   39.1670 C   0  0  0  0  0  0  0  0  0  0  0  0
   39.0960   33.6440   38.2410 C   0  0  0  0  0  0  0  0  0  0  0  0
   37.9000   33.3160   37.5450 N   0  0  0  0  0  0  0  0  0  0  0  0
   40.1960   32.9130   37.9830 N   0  0  0  0  0  0  0  0  0  0  0  0
   41.3840   33.1470   38.5940 C   0  0  0  0  0  0  0  0  0  0  0  0
   42.3860   32.4590   38.3420 O   0  0  0  0  0  0  0  0  0  0  0  0
   44.8580   35.9280   43.1410 S   0  0  0  0  0  0  0  0  0  0  0  0
   45.0630   34.4890   45.5230 C   0  0  0  0  0  0  0  0  0  0  0  0
   45.5650   34.6800   44.2260 C   0  0  0  0  0  0  0  0  0  0  0  0
   46.6250   33.8780   43.8080 C   0  0  0  0  0  0  0  0  0  0  0  0
   47.1340   32.9410   44.6630 N   0  0  0  0  0  0  0  0  0  0  0  0
   46.6060   32.8050   45.8980 C   0  0  0  0  0  0  0  0  0  0  0  0
   45.5920   33.5610   46.3260 N   0  0  0  0  0  0  0  0  0  0  0  0
   44.1736   33.7228   38.8865 H   0  0  0  0  0  0  0  0  0  0  0  0
   42.0293   35.4524   42.0198 H   0  0  0  0  0  0  0  0  0  0  0  0
   40.5074   35.7417   40.5446 H   0  0  0  0  0  0  0  0  0  0  0  0
   38.3378   35.2787   39.4014 H   0  0  0  0  0  0  0  0  0  0  0  0
   37.8943   32.5393   36.8685 H   0  0  0  0  0  0  0  0  0  0  0  0
   37.0395   33.8551   37.7174 H   0  0  0  0  0  0  0  0  0  0  0  0
   44.2274   35.1082   45.8812 H   0  0  0  0  0  0  0  0  0  0  0  0
   47.0480   33.9978   42.7997 H   0  0  0  0  0  0  0  0  0  0  0  0
   47.0253   32.0457   46.5746 H   0  0  0  0  0  0  0  0  0  0  0  0
  1  5  1  0
  1  2  1  0
  2  3  2  0
  3 14  1  0
  4  3  1  0
  5  4  2  0
  6  7  1  0
  6  5  1  0
  8  7  2  0
  9  8  1  0
 10  9  1  0
 11  9  2  0
 11 12  1  0
 12  6  1  0
 13 12  2  0
 14 16  1  0
 15 20  2  0
 16 15  1  0
 17 16  2  0
 17 18  1  0
 18 19  2  0
 19 20  1  0
  1 21  1  0
  4 22  1  0
  7 23  1  0
  8 24  1  0
 10 25  1  0
 10 26  1  0
 15 27  1  0
 17 28  1  0
 19 29  1  0
M  ISO  7  21   9  22  14  23  14  24  14  27  14  28  14  29  14
M  END
>  <minimizedAffinity>  (1) 
-5.45995188

>  <minimizedRMSD>  (1) 
3.13751864

$$$$
