
     RDKit          3D

 27 29  0  0  0  0  0  0  0  0999 V2000
   43.9830   34.2980   39.9340 N   0  0  0  0  0  0  0  0  0  0  0  0
   44.8720   34.5910   40.8630 N   0  0  0  0  0  0  0  0  0  0  0  0
   44.2870   35.3330   41.8360 C   0  0  0  0  0  0  0  0  0  0  0  0
   42.9980   35.4620   41.4270 C   0  0  0  0  0  0  0  0  0  0  0  0
   42.7550   34.8320   40.2400 C   0  0  0  0  0  0  0  0  0  0  0  0
   41.5660   34.6790   39.4050 C   0  0  0  0  0  0  0  0  0  0  0  0
   41.5000   35.4680   38.2560 C   0  0  0  0  0  0  0  0  0  0  0  0
   40.3450   35.2760   37.5090 C   0  0  0  0  0  0  0  0  0  0  0  0
   39.3980   34.3660   37.9340 C   0  0  0  0  0  0  0  0  0  0  0  0
   39.5250   33.6170   39.0840 C   0  0  0  0  0  0  0  0  0  0  0  0
   40.6440   33.7910   39.8240 N   0  0  0  0  0  0  0  0  0  0  0  0
   45.0430   35.9690   43.2800 S   0  0  0  0  0  0  0  0  0  0  0  0
   45.1020   34.4390   45.6150 C   0  0  0  0  0  0  0  0  0  0  0  0
   45.6460   34.6490   44.3440 C   0  0  0  0  0  0  0  0  0  0  0  0
   46.6700   33.8120   43.9160 C   0  0  0  0  0  0  0  0  0  0  0  0
   47.1040   32.8210   44.7460 N   0  0  0  0  0  0  0  0  0  0  0  0
   46.5520   32.6510   45.9680 C   0  0  0  0  0  0  0  0  0  0  0  0
   45.5580   33.4480   46.4070 N   0  0  0  0  0  0  0  0  0  0  0  0
   44.1831   33.7421   39.0903 H   0  0  0  0  0  0  0  0  0  0  0  0
   42.2323   36.0145   41.9913 H   0  0  0  0  0  0  0  0  0  0  0  0
   42.2903   36.1770   37.9683 H   0  0  0  0  0  0  0  0  0  0  0  0
   40.1855   35.8468   36.5823 H   0  0  0  0  0  0  0  0  0  0  0  0
   38.4938   34.2315   37.3222 H   0  0  0  0  0  0  0  0  0  0  0  0
   38.7450   32.9038   39.3889 H   0  0  0  0  0  0  0  0  0  0  0  0
   44.2916   35.0908   45.9732 H   0  0  0  0  0  0  0  0  0  0  0  0
   47.1233   33.9471   42.9229 H   0  0  0  0  0  0  0  0  0  0  0  0
   46.9221   31.8446   46.6182 H   0  0  0  0  0  0  0  0  0  0  0  0
  1  5  1  0
  1  2  1  0
  2  3  2  0
  3 12  1  0
  4  3  1  0
  5  4  2  0
  6 11  1  0
  6  5  1  0
  7  6  2  0
  8  9  2  0
  8  7  1  0
  9 10  1  0
 10 11  2  0
 12 14  1  0
 13 18  2  0
 14 13  1  0
 15 14  2  0
 15 16  1  0
 16 17  2  0
 17 18  1  0
  1 19  1  0
  4 20  1  0
  7 21  1  0
  8 22  1  0
  9 23  1  0
 10 24  1  0
 13 25  1  0
 15 26  1  0
 17 27  1  0
M  ISO  8  19   9  20  14  21  14  22  14  23  14  24  14  25  14  26  14
M  ISO  1  27  14
M  END
>  <minimizedAffinity>  (1) 
-5.45369101

>  <minimizedRMSD>  (1) 
3.01741552

$$$$
