
     RDKit          3D

 28 30  0  0  0  0  0  0  0  0999 V2000
   41.6450   32.4200   40.7720 N   0  0  0  0  0  0  0  0  0  0  0  0
   42.6980   32.8050   41.4700 N   0  0  0  0  0  0  0  0  0  0  0  0
   43.0970   34.0250   41.0280 C   0  0  0  0  0  0  0  0  0  0  0  0
   42.2240   34.3460   40.0300 C   0  0  0  0  0  0  0  0  0  0  0  0
   41.3010   33.3560   39.8450 C   0  0  0  0  0  0  0  0  0  0  0  0
   40.1740   33.2290   38.9110 C   0  0  0  0  0  0  0  0  0  0  0  0
   39.6600   34.3970   38.3900 C   0  0  0  0  0  0  0  0  0  0  0  0
   38.5940   34.2930   37.5040 C   0  0  0  0  0  0  0  0  0  0  0  0
   38.1230   33.0340   37.2060 C   0  0  0  0  0  0  0  0  0  0  0  0
   38.6230   31.8530   37.7160 C   0  0  0  0  0  0  0  0  0  0  0  0
   39.6960   31.9850   38.6050 C   0  0  0  0  0  0  0  0  0  0  0  0
   44.4470   34.9920   41.6120 S   0  0  0  0  0  0  0  0  0  0  0  0
   44.3870   35.6150   44.3160 C   0  0  0  0  0  0  0  0  0  0  0  0
   44.7710   34.6840   43.3470 C   0  0  0  0  0  0  0  0  0  0  0  0
   45.4150   33.5020   43.7560 C   0  0  0  0  0  0  0  0  0  0  0  0
   45.6420   33.3110   45.0940 N   0  0  0  0  0  0  0  0  0  0  0  0
   45.2510   34.2410   45.9890 C   0  0  0  0  0  0  0  0  0  0  0  0
   44.6320   35.3850   45.6220 N   0  0  0  0  0  0  0  0  0  0  0  0
   41.1488   31.5281   40.9108 H   0  0  0  0  0  0  0  0  0  0  0  0
   42.2588   35.2800   39.4500 H   0  0  0  0  0  0  0  0  0  0  0  0
   40.0784   35.3763   38.6655 H   0  0  0  0  0  0  0  0  0  0  0  0
   38.1407   35.1889   37.0548 H   0  0  0  0  0  0  0  0  0  0  0  0
   37.2791   32.9637   36.5040 H   0  0  0  0  0  0  0  0  0  0  0  0
   38.2058   30.8728   37.4419 H   0  0  0  0  0  0  0  0  0  0  0  0
   40.1529   31.0916   39.0557 H   0  0  0  0  0  0  0  0  0  0  0  0
   43.8809   36.5428   44.0110 H   0  0  0  0  0  0  0  0  0  0  0  0
   45.7291   32.7484   43.0188 H   0  0  0  0  0  0  0  0  0  0  0  0
   45.4430   34.0618   47.0572 H   0  0  0  0  0  0  0  0  0  0  0  0
  1  2  1  0
  3  2  2  0
  3 12  1  0
  4  3  1  0
  5  4  2  0
  5  1  1  0
  6  5  1  0
  7  6  2  0
  8  7  1  0
  9  8  2  0
  9 10  1  0
 10 11  2  0
 11  6  1  0
 12 14  1  0
 13 18  2  0
 14 15  2  0
 14 13  1  0
 15 16  1  0
 16 17  2  0
 18 17  1  0
  1 19  1  0
  4 20  1  0
  7 21  1  0
  8 22  1  0
  9 23  1  0
 10 24  1  0
 11 25  1  0
 13 26  1  0
 15 27  1  0
 17 28  1  0
M  ISO  8  19   9  20  14  21  14  22  14  23  14  24  14  25  14  26  14
M  ISO  2  27  14  28  14
M  END
>  <minimizedAffinity>  (1) 
-5.13099813

>  <minimizedRMSD>  (1) 
2.47673202

$$$$
