
     RDKit          3D

 25 27  0  0  0  0  0  0  0  0999 V2000
   43.4270   34.1150   39.9730 N   0  0  0  0  0  0  0  0  0  0  0  0
   44.4470   34.4750   40.7170 N   0  0  0  0  0  0  0  0  0  0  0  0
   43.9930   35.2310   41.7460 C   0  0  0  0  0  0  0  0  0  0  0  0
   42.6410   35.3030   41.5740 C   0  0  0  0  0  0  0  0  0  0  0  0
   42.2680   34.6070   40.4640 C   0  0  0  0  0  0  0  0  0  0  0  0
   40.9660   34.4370   39.9440 C   0  0  0  0  0  0  0  0  0  0  0  0
   39.7470   34.2970   40.5130 C   0  0  0  0  0  0  0  0  0  0  0  0
   38.6100   34.1440   39.7810 C   0  0  0  0  0  0  0  0  0  0  0  0
   38.8730   34.1510   38.2850 C   0  0  0  0  0  0  0  0  0  0  0  0
   40.6960   34.3740   38.1770 S   0  0  0  0  0  0  0  0  0  0  0  0
   44.9420   35.9720   43.0380 S   0  0  0  0  0  0  0  0  0  0  0  0
   45.0350   34.5730   45.4580 C   0  0  0  0  0  0  0  0  0  0  0  0
   45.5800   34.7350   44.1760 C   0  0  0  0  0  0  0  0  0  0  0  0
   46.6440   33.9090   43.7870 C   0  0  0  0  0  0  0  0  0  0  0  0
   47.1140   32.9800   44.6560 N   0  0  0  0  0  0  0  0  0  0  0  0
   46.5510   32.8570   45.8960 C   0  0  0  0  0  0  0  0  0  0  0  0
   45.5340   33.6390   46.2860 N   0  0  0  0  0  0  0  0  0  0  0  0
   43.5005   33.5337   39.1259 H   0  0  0  0  0  0  0  0  0  0  0  0
   41.9510   35.8456   42.2370 H   0  0  0  0  0  0  0  0  0  0  0  0
   39.6717   34.3072   41.6104 H   0  0  0  0  0  0  0  0  0  0  0  0
   37.6099   34.0280   40.2242 H   0  0  0  0  0  0  0  0  0  0  0  0
   38.1482   34.0476   37.4641 H   0  0  0  0  0  0  0  0  0  0  0  0
   44.2000   35.2097   45.7857 H   0  0  0  0  0  0  0  0  0  0  0  0
   47.0926   34.0133   42.7880 H   0  0  0  0  0  0  0  0  0  0  0  0
   46.9417   32.0984   46.5902 H   0  0  0  0  0  0  0  0  0  0  0  0
  1  5  1  0
  1  2  1  0
  2  3  2  0
  3 11  1  0
  4  3  1  0
  5  4  2  0
  6  5  1  0
  6  7  2  0
  8  7  1  0
  9  8  2  0
 10  9  1  0
 10  6  1  0
 11 13  1  0
 12 17  2  0
 13 12  1  0
 14 13  2  0
 14 15  1  0
 15 16  2  0
 16 17  1  0
  1 18  1  0
  4 19  1  0
  7 20  1  0
  8 21  1  0
  9 22  1  0
 12 23  1  0
 14 24  1  0
 16 25  1  0
M  ISO  8  18   9  19  14  20  14  21  14  22  14  23  14  24  14  25  14
M  END
>  <minimizedAffinity>  (1) 
-5.01025152

>  <minimizedRMSD>  (1) 
2.52015257

$$$$
