
     RDKit          3D

 33 35  0  0  0  0  0  0  0  0999 V2000
   44.8950   33.2510   39.9670 N   0  0  0  0  0  0  0  0  0  0  0  0
   43.5910   33.4150   39.9770 N   0  0  0  0  0  0  0  0  0  0  0  0
   43.2770   34.4890   40.7470 C   0  0  0  0  0  0  0  0  0  0  0  0
   44.4690   34.9510   41.1910 C   0  0  0  0  0  0  0  0  0  0  0  0
   45.5060   34.1970   40.7210 C   0  0  0  0  0  0  0  0  0  0  0  0
   46.8750   34.4430   41.0200 N   0  0  0  0  0  0  0  0  0  0  0  0
   47.3020   35.0450   42.2700 C   0  0  0  0  0  0  0  0  0  0  0  0
   48.7850   35.3110   42.1980 C   0  0  0  0  0  0  0  0  0  0  0  0
   49.5730   34.0650   41.9160 C   0  0  0  0  0  0  0  0  0  0  0  0
   48.8640   33.1880   40.9140 C   0  0  0  0  0  0  0  0  0  0  0  0
   47.9490   34.1100   40.1010 C   0  0  0  0  0  0  0  0  0  0  0  0
   41.6810   35.1490   41.1000 S   0  0  0  0  0  0  0  0  0  0  0  0
   40.7610   35.0840   38.4800 C   0  0  0  0  0  0  0  0  0  0  0  0
   40.5040   34.7420   39.8130 C   0  0  0  0  0  0  0  0  0  0  0  0
   39.3090   34.0770   40.1200 C   0  0  0  0  0  0  0  0  0  0  0  0
   38.4350   33.7810   39.1250 N   0  0  0  0  0  0  0  0  0  0  0  0
   38.7330   34.1370   37.8370 C   0  0  0  0  0  0  0  0  0  0  0  0
   39.8780   34.7790   37.5120 N   0  0  0  0  0  0  0  0  0  0  0  0
   45.3863   32.5043   39.4552 H   0  0  0  0  0  0  0  0  0  0  0  0
   44.5877   35.8249   41.8485 H   0  0  0  0  0  0  0  0  0  0  0  0
   46.7636   35.9912   42.4279 H   0  0  0  0  0  0  0  0  0  0  0  0
   47.0838   34.3651   43.1068 H   0  0  0  0  0  0  0  0  0  0  0  0
   48.9754   36.0394   41.3960 H   0  0  0  0  0  0  0  0  0  0  0  0
   49.1058   35.6985   43.1762 H   0  0  0  0  0  0  0  0  0  0  0  0
   50.5576   34.3461   41.5139 H   0  0  0  0  0  0  0  0  0  0  0  0
   49.6844   33.5026   42.8548 H   0  0  0  0  0  0  0  0  0  0  0  0
   49.5945   32.6984   40.2532 H   0  0  0  0  0  0  0  0  0  0  0  0
   48.2878   32.3962   41.4151 H   0  0  0  0  0  0  0  0  0  0  0  0
   48.4878   35.0156   39.7855 H   0  0  0  0  0  0  0  0  0  0  0  0
   47.5834   33.6354   39.1785 H   0  0  0  0  0  0  0  0  0  0  0  0
   41.6936   35.6070   38.2217 H   0  0  0  0  0  0  0  0  0  0  0  0
   39.0814   33.7973   41.1592 H   0  0  0  0  0  0  0  0  0  0  0  0
   38.0164   33.8924   37.0391 H   0  0  0  0  0  0  0  0  0  0  0  0
  1  2  1  0
  1  5  1  0
  2  3  2  0
  3 12  1  0
  3  4  1  0
  5  6  1  0
  5  4  2  0
  6  7  1  0
  8  7  1  0
  9  8  1  0
 10  9  1  0
 11 10  1  0
 11  6  1  0
 13 14  2  0
 14 15  1  0
 14 12  1  0
 16 15  2  0
 17 16  1  0
 18 17  2  0
 18 13  1  0
  1 19  1  0
  4 20  1  0
  7 21  1  0
  7 22  1  0
  8 23  1  0
  8 24  1  0
  9 25  1  0
  9 26  1  0
 10 27  1  0
 10 28  1  0
 11 29  1  0
 11 30  1  0
 13 31  1  0
 15 32  1  0
 17 33  1  0
M  ISO  8  19   9  20  14  21  13  22  13  23  13  24  13  25  13  26  13
M  ISO  7  27  13  28  13  29  13  30  13  31  14  32  14  33  14
M  END
>  <minimizedAffinity>  (1) 
-4.80131006

>  <minimizedRMSD>  (1) 
8.22593403

$$$$
