
     RDKit          3D

 28 30  0  0  0  0  0  0  0  0999 V2000
   41.4910   32.2900   41.0280 N   0  0  0  0  0  0  0  0  0  0  0  0
   42.5910   32.5780   41.6830 N   0  0  0  0  0  0  0  0  0  0  0  0
   43.2040   33.6360   41.0900 C   0  0  0  0  0  0  0  0  0  0  0  0
   42.4050   33.9550   40.0500 C   0  0  0  0  0  0  0  0  0  0  0  0
   41.3060   33.1280   39.9720 C   0  0  0  0  0  0  0  0  0  0  0  0
   40.2330   33.1320   39.0270 N   0  0  0  0  0  0  0  0  0  0  0  0
   39.8850   31.9410   38.5020 C   0  0  0  0  0  0  0  0  0  0  0  0
   38.8360   31.9530   37.5810 C   0  0  0  0  0  0  0  0  0  0  0  0
   38.2640   33.1770   37.3030 C   0  0  0  0  0  0  0  0  0  0  0  0
   37.3100   33.2130   36.4720 O   0  0  0  0  0  0  0  0  0  0  0  0
   38.6260   34.3560   37.8380 N   0  0  0  0  0  0  0  0  0  0  0  0
   39.6460   34.3090   38.7280 C   0  0  0  0  0  0  0  0  0  0  0  0
   40.0680   35.3450   39.2910 O   0  0  0  0  0  0  0  0  0  0  0  0
   44.7100   34.4130   41.5770 S   0  0  0  0  0  0  0  0  0  0  0  0
   44.5670   35.3140   44.2220 C   0  0  0  0  0  0  0  0  0  0  0  0
   44.9680   34.2770   43.3540 C   0  0  0  0  0  0  0  0  0  0  0  0
   45.5730   33.1360   43.9000 C   0  0  0  0  0  0  0  0  0  0  0  0
   45.7490   33.0740   45.2480 N   0  0  0  0  0  0  0  0  0  0  0  0
   45.3470   34.0960   46.0340 C   0  0  0  0  0  0  0  0  0  0  0  0
   44.7650   35.2010   45.5450 N   0  0  0  0  0  0  0  0  0  0  0  0
   40.8485   31.5258   41.2813 H   0  0  0  0  0  0  0  0  0  0  0  0
   42.6073   34.7775   39.3482 H   0  0  0  0  0  0  0  0  0  0  0  0
   40.3992   31.0103   38.7836 H   0  0  0  0  0  0  0  0  0  0  0  0
   38.4821   31.0295   37.0995 H   0  0  0  0  0  0  0  0  0  0  0  0
   38.1577   35.2385   37.5872 H   0  0  0  0  0  0  0  0  0  0  0  0
   44.0908   36.2177   43.8138 H   0  0  0  0  0  0  0  0  0  0  0  0
   45.8985   32.3085   43.2524 H   0  0  0  0  0  0  0  0  0  0  0  0
   45.5034   34.0190   47.1201 H   0  0  0  0  0  0  0  0  0  0  0  0
  1  2  1  0
  3 14  1  0
  3  2  2  0
  4  3  1  0
  5  4  2  0
  5  1  1  0
  6  5  1  0
  7  6  1  0
  8  7  2  0
  9  8  1  0
  9 11  1  0
 10  9  2  0
 11 12  1  0
 12  6  1  0
 12 13  2  0
 14 16  1  0
 15 20  2  0
 16 17  2  0
 16 15  1  0
 17 18  1  0
 18 19  2  0
 20 19  1  0
  1 21  1  0
  4 22  1  0
  7 23  1  0
  8 24  1  0
 11 25  1  0
 15 26  1  0
 17 27  1  0
 19 28  1  0
M  ISO  8  21   9  22  14  23  14  24  14  25   9  26  14  27  14  28  14
M  END
>  <minimizedAffinity>  (1) 
-4.79850817

>  <minimizedRMSD>  (1) 
2.81479597

$$$$
