
     RDKit          3D

 27 28  0  0  0  0  0  0  0  0999 V2000
   44.0520   35.5930   41.6510 S   0  0  0  0  0  0  0  0  0  0  0  0
   44.3480   35.7380   44.4460 C   0  0  0  0  0  0  0  0  0  0  0  0
   44.5640   34.9810   43.2680 C   0  0  0  0  0  0  0  0  0  0  0  0
   45.1890   33.7330   43.3820 C   0  0  0  0  0  0  0  0  0  0  0  0
   45.5680   33.2900   44.6200 N   0  0  0  0  0  0  0  0  0  0  0  0
   45.3350   34.0640   45.7190 C   0  0  0  0  0  0  0  0  0  0  0  0
   44.7400   35.2530   45.6220 N   0  0  0  0  0  0  0  0  0  0  0  0
   41.0430   33.2770   40.7490 N   0  0  0  0  0  0  0  0  0  0  0  0
   42.2170   33.4830   41.3250 N   0  0  0  0  0  0  0  0  0  0  0  0
   42.5810   34.7900   41.1050 C   0  0  0  0  0  0  0  0  0  0  0  0
   41.5660   35.3120   40.3840 C   0  0  0  0  0  0  0  0  0  0  0  0
   40.5790   34.4030   40.1350 C   0  0  0  0  0  0  0  0  0  0  0  0
   39.3480   34.6560   39.3810 C   0  0  0  0  0  0  0  0  0  0  0  0
   38.2940   33.6670   39.8370 C   0  0  0  0  0  0  0  0  0  0  0  0
   39.5290   34.4690   37.8890 C   0  0  0  0  0  0  0  0  0  0  0  0
   43.8588   36.7216   44.3890 H   0  0  0  0  0  0  0  0  0  0  0  0
   45.3727   33.1175   42.4890 H   0  0  0  0  0  0  0  0  0  0  0  0
   45.6455   33.6982   46.7088 H   0  0  0  0  0  0  0  0  0  0  0  0
   40.5418   32.3773   40.7628 H   0  0  0  0  0  0  0  0  0  0  0  0
   41.5377   36.3550   40.0356 H   0  0  0  0  0  0  0  0  0  0  0  0
   39.0574   35.7003   39.5679 H   0  0  0  0  0  0  0  0  0  0  0  0
   38.2666   33.6412   40.9364 H   0  0  0  0  0  0  0  0  0  0  0  0
   37.3107   33.9759   39.4528 H   0  0  0  0  0  0  0  0  0  0  0  0
   38.5398   32.6660   39.4528 H   0  0  0  0  0  0  0  0  0  0  0  0
   40.2834   33.6896   37.7060 H   0  0  0  0  0  0  0  0  0  0  0  0
   38.5722   34.1661   37.4387 H   0  0  0  0  0  0  0  0  0  0  0  0
   39.8629   35.4154   37.4387 H   0  0  0  0  0  0  0  0  0  0  0  0
  1  3  1  0
  2  7  2  0
  3  4  2  0
  3  2  1  0
  4  5  1  0
  5  6  2  0
  7  6  1  0
  8  9  1  0
 10  9  2  0
 10  1  1  0
 11 10  1  0
 12 11  2  0
 12  8  1  0
 13 14  1  0
 13 12  1  0
 15 13  1  0
  2 16  1  0
  4 17  1  0
  6 18  1  0
  8 19  1  0
 11 20  1  0
 13 21  1  0
 14 22  1  0
 14 23  1  0
 14 24  1  0
 15 25  1  0
 15 26  1  0
 15 27  1  0
M  ISO  8  16  14  17  14  18  14  19   9  20  14  21   8  22   8  23   8
M  ISO  4  24   8  25   8  26   8  27   8
M  END
>  <minimizedAffinity>  (1) 
-4.77644539

>  <minimizedRMSD>  (1) 
1.42549574

$$$$
