
     RDKit          3D

 23 25  0  0  0  0  0  0  0  0999 V2000
   44.3150   33.2090   41.6100 N   0  0  0  0  0  0  0  0  0  0  0  0
   43.0040   33.3870   41.6170 N   0  0  0  0  0  0  0  0  0  0  0  0
   42.7340   34.7010   41.3960 C   0  0  0  0  0  0  0  0  0  0  0  0
   43.9460   35.2870   41.2580 C   0  0  0  0  0  0  0  0  0  0  0  0
   44.9560   34.3790   41.3870 C   0  0  0  0  0  0  0  0  0  0  0  0
   46.3900   34.6270   41.3010 C   0  0  0  0  0  0  0  0  0  0  0  0
   47.2260   34.3250   40.2960 N   0  0  0  0  0  0  0  0  0  0  0  0
   48.4320   34.6980   40.5760 O   0  0  0  0  0  0  0  0  0  0  0  0
   48.4060   35.2470   41.7640 C   0  0  0  0  0  0  0  0  0  0  0  0
   47.1280   35.2150   42.2450 N   0  0  0  0  0  0  0  0  0  0  0  0
   41.1550   35.4820   41.3070 S   0  0  0  0  0  0  0  0  0  0  0  0
   40.6580   35.2070   38.5730 C   0  0  0  0  0  0  0  0  0  0  0  0
   40.2210   34.9160   39.8810 C   0  0  0  0  0  0  0  0  0  0  0  0
   39.0470   34.1780   40.0580 C   0  0  0  0  0  0  0  0  0  0  0  0
   38.3580   33.7620   38.9530 N   0  0  0  0  0  0  0  0  0  0  0  0
   38.8200   34.0680   37.7030 C   0  0  0  0  0  0  0  0  0  0  0  0
   39.9540   34.7810   37.5210 N   0  0  0  0  0  0  0  0  0  0  0  0
   44.7835   32.3032   41.7546 H   0  0  0  0  0  0  0  0  0  0  0  0
   44.0976   36.3595   41.0661 H   0  0  0  0  0  0  0  0  0  0  0  0
   49.2752   35.6673   42.2912 H   0  0  0  0  0  0  0  0  0  0  0  0
   41.5804   35.7859   38.4183 H   0  0  0  0  0  0  0  0  0  0  0  0
   38.6842   33.9364   41.0680 H   0  0  0  0  0  0  0  0  0  0  0  0
   38.2549   33.7255   36.8236 H   0  0  0  0  0  0  0  0  0  0  0  0
  1  2  1  0
  3  2  2  0
  4  5  2  0
  4  3  1  0
  5  1  1  0
  6  5  1  0
  6 10  1  0
  7  8  1  0
  7  6  2  0
  8  9  1  0
  9 10  2  0
 11  3  1  0
 12 13  2  0
 13 14  1  0
 13 11  1  0
 15 14  2  0
 16 15  1  0
 17 16  2  0
 17 12  1  0
  1 18  1  0
  4 19  1  0
  9 20  1  0
 12 21  1  0
 14 22  1  0
 16 23  1  0
M  ISO  6  18   9  19  14  20  14  21  14  22  14  23  14
M  END
>  <minimizedAffinity>  (1) 
-4.68339825

>  <minimizedRMSD>  (1) 
7.58383465

$$$$
