
     RDKit          3D

 24 26  0  0  0  0  0  0  0  0999 V2000
   42.6800   33.4920   40.8800 N   0  0  0  0  0  0  0  0  0  0  0  0
   43.5500   33.6610   41.8450 N   0  0  0  0  0  0  0  0  0  0  0  0
   43.9380   34.9670   41.8820 C   0  0  0  0  0  0  0  0  0  0  0  0
   43.2580   35.5750   40.8890 C   0  0  0  0  0  0  0  0  0  0  0  0
   42.4480   34.6660   40.2310 C   0  0  0  0  0  0  0  0  0  0  0  0
   41.5840   34.9300   39.1320 N   0  0  0  0  0  0  0  0  0  0  0  0
   40.4360   34.2450   39.0300 C   0  0  0  0  0  0  0  0  0  0  0  0
   39.7640   34.6400   37.9280 N   0  0  0  0  0  0  0  0  0  0  0  0
   40.5080   35.5840   37.3410 C   0  0  0  0  0  0  0  0  0  0  0  0
   41.6280   35.7570   38.0920 N   0  0  0  0  0  0  0  0  0  0  0  0
   45.0870   35.7220   42.9860 S   0  0  0  0  0  0  0  0  0  0  0  0
   45.0880   34.4800   45.4890 C   0  0  0  0  0  0  0  0  0  0  0  0
   45.6760   34.5570   44.2160 C   0  0  0  0  0  0  0  0  0  0  0  0
   46.7450   33.6900   43.9320 C   0  0  0  0  0  0  0  0  0  0  0  0
   47.1710   32.8170   44.8820 N   0  0  0  0  0  0  0  0  0  0  0  0
   46.5530   32.7940   46.1030 C   0  0  0  0  0  0  0  0  0  0  0  0
   45.5220   33.6160   46.4060 N   0  0  0  0  0  0  0  0  0  0  0  0
   42.2331   32.5943   40.6448 H   0  0  0  0  0  0  0  0  0  0  0  0
   43.3361   36.6430   40.6374 H   0  0  0  0  0  0  0  0  0  0  0  0
   40.0931   33.4763   39.7382 H   0  0  0  0  0  0  0  0  0  0  0  0
   40.2582   36.1240   36.4158 H   0  0  0  0  0  0  0  0  0  0  0  0
   44.2497   35.1484   45.7349 H   0  0  0  0  0  0  0  0  0  0  0  0
   47.2337   33.7180   42.9469 H   0  0  0  0  0  0  0  0  0  0  0  0
   46.9067   32.0828   46.8640 H   0  0  0  0  0  0  0  0  0  0  0  0
  1  2  1  0
  2  3  2  0
  3 11  1  0
  4  3  1  0
  5  1  1  0
  5  4  2  0
  6  5  1  0
  7  6  1  0
  8  7  2  0
  9  8  1  0
  9 10  2  0
 10  6  1  0
 11 13  1  0
 12 17  2  0
 13 12  1  0
 14 13  2  0
 14 15  1  0
 15 16  2  0
 16 17  1  0
  1 18  1  0
  4 19  1  0
  7 20  1  0
  9 21  1  0
 12 22  1  0
 14 23  1  0
 16 24  1  0
M  ISO  7  18   9  19  14  20  14  21  14  22  14  23  14  24  14
M  END
>  <minimizedAffinity>  (1) 
-4.46619987

>  <minimizedRMSD>  (1) 
2.66630936

$$$$
