
     RDKit          3D

 21 22  0  0  0  0  0  0  0  0999 V2000
   40.9310   34.3120   40.4550 N   0  0  0  0  0  0  0  0  0  0  0  0
   41.9760   34.1570   41.2550 N   0  0  0  0  0  0  0  0  0  0  0  0
   43.1070   34.4520   40.5370 C   0  0  0  0  0  0  0  0  0  0  0  0
   42.6550   34.7750   39.3100 C   0  0  0  0  0  0  0  0  0  0  0  0
   41.2950   34.7020   39.2100 C   0  0  0  0  0  0  0  0  0  0  0  0
   40.4630   34.9760   38.0570 C   0  0  0  0  0  0  0  0  0  0  0  0
   39.3330   34.4360   37.9390 O   0  0  0  0  0  0  0  0  0  0  0  0
   40.9160   35.8330   37.0870 O   0  0  0  0  0  0  0  0  0  0  0  0
   44.7680   34.4160   41.0860 S   0  0  0  0  0  0  0  0  0  0  0  0
   44.4590   35.6890   43.5490 C   0  0  0  0  0  0  0  0  0  0  0  0
   44.8700   34.5210   42.8720 C   0  0  0  0  0  0  0  0  0  0  0  0
   45.3560   33.4550   43.6380 C   0  0  0  0  0  0  0  0  0  0  0  0
   45.4160   33.5770   44.9970 N   0  0  0  0  0  0  0  0  0  0  0  0
   45.0070   34.7220   45.5840 C   0  0  0  0  0  0  0  0  0  0  0  0
   44.5330   35.7670   44.8770 N   0  0  0  0  0  0  0  0  0  0  0  0
   39.9556   34.1543   40.7460 H   0  0  0  0  0  0  0  0  0  0  0  0
   43.3116   35.0666   38.4770 H   0  0  0  0  0  0  0  0  0  0  0  0
   40.3539   36.0261   36.2953 H   0  0  0  0  0  0  0  0  0  0  0  0
   44.0735   36.5440   42.9743 H   0  0  0  0  0  0  0  0  0  0  0  0
   45.6869   32.5267   43.1494 H   0  0  0  0  0  0  0  0  0  0  0  0
   45.0627   34.8050   46.6794 H   0  0  0  0  0  0  0  0  0  0  0  0
  1  2  1  0
  3  9  1  0
  3  2  2  0
  4  3  1  0
  5  4  2  0
  5  1  1  0
  6  5  1  0
  7  6  2  0
  8  6  1  0
  9 11  1  0
 10 15  2  0
 11 10  1  0
 11 12  2  0
 12 13  1  0
 13 14  2  0
 15 14  1  0
  1 16  1  0
  4 17  1  0
  8 18  1  0
 10 19  1  0
 12 20  1  0
 14 21  1  0
M  ISO  6  16   9  17  14  18   3  19  14  20  14  21  14
M  END
>  <minimizedAffinity>  (1) 
-4.37982368

>  <minimizedRMSD>  (1) 
1.97671914

$$$$
