
     RDKit          3D

 20 21  0  0  0  0  0  0  0  0999 V2000
   43.9240   35.5210   41.5010 S   0  0  0  0  0  0  0  0  0  0  0  0
   44.2990   35.7770   44.2590 C   0  0  0  0  0  0  0  0  0  0  0  0
   44.4810   34.9640   43.1250 C   0  0  0  0  0  0  0  0  0  0  0  0
   45.1050   33.7140   43.2860 C   0  0  0  0  0  0  0  0  0  0  0  0
   45.5110   33.3290   44.5230 N   0  0  0  0  0  0  0  0  0  0  0  0
   45.3060   34.1610   45.5820 C   0  0  0  0  0  0  0  0  0  0  0  0
   44.7160   35.3600   45.4710 N   0  0  0  0  0  0  0  0  0  0  0  0
   40.7090   33.4030   40.8730 N   0  0  0  0  0  0  0  0  0  0  0  0
   41.9360   33.5200   41.3230 N   0  0  0  0  0  0  0  0  0  0  0  0
   42.3640   34.7980   41.1040 C   0  0  0  0  0  0  0  0  0  0  0  0
   41.3150   35.4190   40.5000 C   0  0  0  0  0  0  0  0  0  0  0  0
   40.2430   34.5700   40.3350 C   0  0  0  0  0  0  0  0  0  0  0  0
   38.9660   34.8110   39.7580 N   0  0  0  0  0  0  0  0  0  0  0  0
   43.8135   36.7587   44.1557 H   0  0  0  0  0  0  0  0  0  0  0  0
   45.2624   33.0554   42.4191 H   0  0  0  0  0  0  0  0  0  0  0  0
   45.6409   33.8331   46.5771 H   0  0  0  0  0  0  0  0  0  0  0  0
   40.1604   32.5325   40.9197 H   0  0  0  0  0  0  0  0  0  0  0  0
   41.3221   36.4720   40.1818 H   0  0  0  0  0  0  0  0  0  0  0  0
   38.2697   34.0533   39.7135 H   0  0  0  0  0  0  0  0  0  0  0  0
   38.7373   35.7433   39.3845 H   0  0  0  0  0  0  0  0  0  0  0  0
  1  3  1  0
  2  7  2  0
  3  4  2  0
  3  2  1  0
  4  5  1  0
  5  6  2  0
  7  6  1  0
  8  9  1  0
 10  9  2  0
 10  1  1  0
 11 10  1  0
 12 11  2  0
 12  8  1  0
 13 12  1  0
  2 14  1  0
  4 15  1  0
  6 16  1  0
  8 17  1  0
 11 18  1  0
 13 19  1  0
 13 20  1  0
M  ISO  5  14  14  15  14  16  14  17   9  18  14
M  END
>  <minimizedAffinity>  (1) 
-3.93493676

>  <minimizedRMSD>  (1) 
0.453838259

$$$$
