
     RDKit          3D

 19 20  0  0  0  0  0  0  0  0999 V2000
   44.9270   34.6120   41.2410 S   0  0  0  0  0  0  0  0  0  0  0  0
   44.5600   35.7330   43.7700 C   0  0  0  0  0  0  0  0  0  0  0  0
   44.9650   34.6110   43.0410 C   0  0  0  0  0  0  0  0  0  0  0  0
   45.4040   33.4760   43.7300 C   0  0  0  0  0  0  0  0  0  0  0  0
   45.4260   33.4920   45.0990 N   0  0  0  0  0  0  0  0  0  0  0  0
   45.0240   34.6050   45.7610 C   0  0  0  0  0  0  0  0  0  0  0  0
   44.5950   35.7140   45.1190 N   0  0  0  0  0  0  0  0  0  0  0  0
   41.2200   35.5330   40.4770 N   0  0  0  0  0  0  0  0  0  0  0  0
   42.2620   35.5260   41.2730 N   0  0  0  0  0  0  0  0  0  0  0  0
   43.2990   34.8970   40.6310 C   0  0  0  0  0  0  0  0  0  0  0  0
   42.8200   34.5330   39.4190 C   0  0  0  0  0  0  0  0  0  0  0  0
   41.4980   34.9210   39.2840 C   0  0  0  0  0  0  0  0  0  0  0  0
   40.2870   34.7710   37.9950 S   0  0  0  0  0  0  0  0  0  0  0  0
   44.2120   36.6335   43.2428 H   0  0  0  0  0  0  0  0  0  0  0  0
   45.7278   32.5809   43.1787 H   0  0  0  0  0  0  0  0  0  0  0  0
   45.0480   34.6052   46.8607 H   0  0  0  0  0  0  0  0  0  0  0  0
   40.3080   35.9464   40.7185 H   0  0  0  0  0  0  0  0  0  0  0  0
   43.3998   34.0031   38.6489 H   0  0  0  0  0  0  0  0  0  0  0  0
   39.0445   34.6171   38.5513 H   0  0  0  0  0  0  0  0  0  0  0  0
  1  3  1  0
  2  7  2  0
  3  4  2  0
  3  2  1  0
  4  5  1  0
  5  6  2  0
  7  6  1  0
  8  9  1  0
 10  1  1  0
 10  9  2  0
 11 10  1  0
 12 11  2  0
 12  8  1  0
 13 12  1  0
  2 14  1  0
  4 15  1  0
  6 16  1  0
  8 17  1  0
 11 18  1  0
 13 19  1  0
M  ISO  6  14  14  15  14  16  14  17   9  18  14  19  11
M  END
>  <minimizedAffinity>  (1) 
-3.93091774

>  <minimizedRMSD>  (1) 
1.66363466

$$$$
