
     RDKit          3D

 31 33  0  0  0  0  0  0  0  0999 V2000
   43.9010   31.8350   41.6210 N   0  0  0  0  0  0  0  0  0  0  0  0
   44.7880   32.1760   42.5380 N   0  0  0  0  0  0  0  0  0  0  0  0
   44.6610   33.5020   42.8090 C   0  0  0  0  0  0  0  0  0  0  0  0
   43.6570   33.9140   42.0050 C   0  0  0  0  0  0  0  0  0  0  0  0
   43.1540   32.8980   41.2460 C   0  0  0  0  0  0  0  0  0  0  0  0
   40.0470   32.8500   38.3810 C   0  0  0  0  0  0  0  0  0  0  0  0
   41.2870   32.2670   38.1340 C   0  0  0  0  0  0  0  0  0  0  0  0
   42.3140   32.2670   39.0450 C   0  0  0  0  0  0  0  0  0  0  0  0
   42.0830   32.8810   40.2560 C   0  0  0  0  0  0  0  0  0  0  0  0
   40.8750   33.4720   40.5470 C   0  0  0  0  0  0  0  0  0  0  0  0
   39.8660   33.4510   39.6050 C   0  0  0  0  0  0  0  0  0  0  0  0
   38.7420   32.8440   37.2070 S   0  0  0  0  0  0  0  0  0  0  0  0
   38.4290   31.4290   36.7980 O   0  0  0  0  0  0  0  0  0  0  0  0
   37.5430   33.4960   37.8310 O   0  0  0  0  0  0  0  0  0  0  0  0
   45.5890   34.4690   43.9440 S   0  0  0  0  0  0  0  0  0  0  0  0
   45.0520   33.8270   46.6070 C   0  0  0  0  0  0  0  0  0  0  0  0
   45.8660   33.5850   45.4800 C   0  0  0  0  0  0  0  0  0  0  0  0
   46.8940   32.6390   45.5920 C   0  0  0  0  0  0  0  0  0  0  0  0
   47.0720   31.9860   46.7790 N   0  0  0  0  0  0  0  0  0  0  0  0
   46.2630   32.2550   47.8320 C   0  0  0  0  0  0  0  0  0  0  0  0
   45.2740   33.1570   47.7470 N   0  0  0  0  0  0  0  0  0  0  0  0
   43.7924   30.8838   41.2411 H   0  0  0  0  0  0  0  0  0  0  0  0
   43.2875   34.9494   41.9666 H   0  0  0  0  0  0  0  0  0  0  0  0
   41.4520   31.7823   37.1604 H   0  0  0  0  0  0  0  0  0  0  0  0
   43.2816   31.7960   38.8171 H   0  0  0  0  0  0  0  0  0  0  0  0
   40.7147   33.9568   41.5213 H   0  0  0  0  0  0  0  0  0  0  0  0
   38.9001   33.9233   39.8374 H   0  0  0  0  0  0  0  0  0  0  0  0
   39.1061   33.5377   36.0831 H   0  0  0  0  0  0  0  0  0  0  0  0
   44.2371   34.5637   46.5504 H   0  0  0  0  0  0  0  0  0  0  0  0
   47.5494   32.4249   44.7349 H   0  0  0  0  0  0  0  0  0  0  0  0
   46.4212   31.7203   48.7802 H   0  0  0  0  0  0  0  0  0  0  0  0
  1  2  1  0
  2  3  2  0
  3 15  1  0
  4  3  1  0
  5  1  1  0
  5  4  2  0
  6 11  2  0
  7  6  1  0
  7  8  2  0
  8  9  1  0
  9 10  2  0
  9  5  1  0
 11 10  1  0
 12 14  2  0
 12  6  1  0
 13 12  2  0
 15 17  1  0
 16 21  2  0
 17 18  2  0
 17 16  1  0
 18 19  1  0
 19 20  2  0
 21 20  1  0
  1 22  1  0
  4 23  1  0
  7 24  1  0
  8 25  1  0
 10 26  1  0
 11 27  1  0
 12 28  1  0
 16 29  1  0
 18 30  1  0
 20 31  1  0
M  ISO  8  22   9  23  14  24  14  25  14  26  14  27  14  28  11  29  14
M  ISO  2  30  14  31  14
M  END
>  <minimizedAffinity>  (1) 
-3.72984242

>  <minimizedRMSD>  (1) 
4.32503986

$$$$
