
     RDKit          3D

 38 41  0  0  1  0  0  0  0  0999 V2000
   40.3320   35.3860   41.2240 N   0  0  0  0  0  0  0  0  0  0  0  0
   41.5110   35.4300   41.7890 N   0  0  0  0  0  0  0  0  0  0  0  0
   42.4450   34.9570   40.8900 C   0  0  0  0  0  0  0  0  0  0  0  0
   41.7280   34.6360   39.7690 C   0  0  0  0  0  0  0  0  0  0  0  0
   40.4100   34.8990   39.9650 C   0  0  0  0  0  0  0  0  0  0  0  0
   39.1890   34.7420   39.1680 C   0  0  1  0  0  0  0  0  0  0  0  0
   39.2290   33.9720   37.8940 C   0  0  0  0  0  0  0  0  0  0  0  0
   38.4520   33.5120   39.1230 C   0  0  1  0  0  0  0  0  0  0  0  0
   38.6310   32.2230   39.6410 N   0  0  0  0  0  0  0  0  0  0  0  0
   38.4130   31.2480   38.6920 C   0  0  0  0  0  0  0  0  0  0  0  0
   38.5450   29.8970   38.9660 C   0  0  0  0  0  0  0  0  0  0  0  0
   38.3130   28.8410   37.9480 C   0  0  0  0  0  0  0  0  0  0  0  0
   38.9080   29.4740   40.2280 C   0  0  0  0  0  0  0  0  0  0  0  0
   39.0620   28.2850   40.6080 O   0  0  0  0  0  0  0  0  0  0  0  0
   39.1150   30.4420   41.1370 N   0  0  0  0  0  0  0  0  0  0  0  0
   38.9870   31.7480   40.8720 C   0  0  0  0  0  0  0  0  0  0  0  0
   39.1710   32.6820   41.6930 O   0  0  0  0  0  0  0  0  0  0  0  0
   44.1890   34.8010   41.1190 S   0  0  0  0  0  0  0  0  0  0  0  0
   44.3590   35.7400   43.7570 C   0  0  0  0  0  0  0  0  0  0  0  0
   44.5780   34.6640   42.8670 C   0  0  0  0  0  0  0  0  0  0  0  0
   45.1120   33.4820   43.3930 C   0  0  0  0  0  0  0  0  0  0  0  0
   45.4020   33.3990   44.7210 N   0  0  0  0  0  0  0  0  0  0  0  0
   45.1640   34.4840   45.5310 C   0  0  0  0  0  0  0  0  0  0  0  0
   44.6530   35.6350   45.0610 N   0  0  0  0  0  0  0  0  0  0  0  0
   39.4574   35.6838   41.6793 H   0  0  0  0  0  0  0  0  0  0  0  0
   42.1571   34.2246   38.8435 H   0  0  0  0  0  0  0  0  0  0  0  0
   38.9089   35.7687   39.4462 H   0  0  0  0  0  0  0  0  0  0  0  0
   40.1467   33.4497   37.5856 H   0  0  0  0  0  0  0  0  0  0  0  0
   39.0009   34.1706   36.8364 H   0  0  0  0  0  0  0  0  0  0  0  0
   37.4336   33.3008   39.4811 H   0  0  0  0  0  0  0  0  0  0  0  0
   38.1226   31.5550   37.6764 H   0  0  0  0  0  0  0  0  0  0  0  0
   38.1032   27.8859   38.4517 H   0  0  0  0  0  0  0  0  0  0  0  0
   37.4548   29.1202   37.3191 H   0  0  0  0  0  0  0  0  0  0  0  0
   39.2092   28.7347   37.3191 H   0  0  0  0  0  0  0  0  0  0  0  0
   39.3873   30.1636   42.0906 H   0  0  0  0  0  0  0  0  0  0  0  0
   43.9394   36.6814   43.3726 H   0  0  0  0  0  0  0  0  0  0  0  0
   45.2973   32.6208   42.7342 H   0  0  0  0  0  0  0  0  0  0  0  0
   45.4003   34.4075   46.6026 H   0  0  0  0  0  0  0  0  0  0  0  0
  1  2  1  0
  3 18  1  0
  3  2  2  0
  4  5  2  0
  4  3  1  0
  5  1  1  0
  6  5  1  0
  7  8  1  0
  7  6  1  0
  8  6  1  0
  8  9  1  0
  9 16  1  0
 10 11  2  0
 10  9  1  0
 11 13  1  0
 12 11  1  0
 13 14  2  0
 13 15  1  0
 16 15  1  0
 16 17  2  0
 18 20  1  0
 19 24  2  0
 20 21  2  0
 20 19  1  0
 21 22  1  0
 22 23  2  0
 24 23  1  0
  1 25  1  0
  4 26  1  0
  6 27  1  6
  7 28  1  0
  7 29  1  0
  8 30  1  6
 10 31  1  0
 12 32  1  0
 12 33  1  0
 12 34  1  0
 15 35  1  0
 19 36  1  0
 21 37  1  0
 23 38  1  0
M  ISO  8  25   9  26  14  27  13  28  13  29  13  30  13  31  14  32   8
M  ISO  6  33   8  34   8  35   9  36  14  37  14  38  14
M  END
>  <minimizedAffinity>  (1) 
-5.99631166

>  <minimizedRMSD>  (1) 
0.967467725

$$$$
