
     RDKit          3D

 34 37  0  0  1  0  0  0  0  0999 V2000
   40.9750   35.4780   41.1300 N   0  0  0  0  0  0  0  0  0  0  0  0
   42.0360   35.3930   41.8990 N   0  0  0  0  0  0  0  0  0  0  0  0
   43.1320   35.1440   41.1010 C   0  0  0  0  0  0  0  0  0  0  0  0
   42.6390   35.0890   39.8330 C   0  0  0  0  0  0  0  0  0  0  0  0
   41.2770   35.2970   39.8250 C   0  0  0  0  0  0  0  0  0  0  0  0
   40.2180   35.3500   38.8380 C   0  0  1  0  0  0  0  0  0  0  0  0
   40.1220   34.3440   37.7640 C   0  0  0  0  0  0  0  0  0  0  0  0
   39.0780   34.4800   38.8730 C   0  0  1  0  0  0  0  0  0  0  0  0
   38.8060   33.2050   39.5020 C   0  0  0  0  0  0  0  0  0  0  0  0
   38.4660   32.1450   38.6440 C   0  0  0  0  0  0  0  0  0  0  0  0
   38.1970   30.8320   39.0490 C   0  0  0  0  0  0  0  0  0  0  0  0
   38.2890   30.6290   40.4090 C   0  0  0  0  0  0  0  0  0  0  0  0
   38.6200   31.6510   41.2730 C   0  0  0  0  0  0  0  0  0  0  0  0
   38.8680   32.8850   40.8350 N   0  0  0  0  0  0  0  0  0  0  0  0
   44.8110   34.9560   41.6000 S   0  0  0  0  0  0  0  0  0  0  0  0
   44.4910   35.6470   44.3150 C   0  0  0  0  0  0  0  0  0  0  0  0
   44.9260   34.7040   43.3590 C   0  0  0  0  0  0  0  0  0  0  0  0
   45.4800   33.5040   43.8490 C   0  0  0  0  0  0  0  0  0  0  0  0
   45.5850   33.2800   45.1930 N   0  0  0  0  0  0  0  0  0  0  0  0
   45.1360   34.2520   46.0610 C   0  0  0  0  0  0  0  0  0  0  0  0
   44.5990   35.4150   45.6290 N   0  0  0  0  0  0  0  0  0  0  0  0
   40.0239   35.6612   41.4803 H   0  0  0  0  0  0  0  0  0  0  0  0
   43.2468   34.9033   38.9351 H   0  0  0  0  0  0  0  0  0  0  0  0
   40.3244   36.4447   38.8566 H   0  0  0  0  0  0  0  0  0  0  0  0
   39.8848   34.6483   36.7339 H   0  0  0  0  0  0  0  0  0  0  0  0
   40.7607   33.5409   37.3677 H   0  0  0  0  0  0  0  0  0  0  0  0
   38.0473   34.7703   39.1248 H   0  0  0  0  0  0  0  0  0  0  0  0
   38.4064   32.3646   37.5678 H   0  0  0  0  0  0  0  0  0  0  0  0
   37.9347   30.0310   38.3422 H   0  0  0  0  0  0  0  0  0  0  0  0
   38.0933   29.6258   40.8155 H   0  0  0  0  0  0  0  0  0  0  0  0
   38.6810   31.4426   42.3514 H   0  0  0  0  0  0  0  0  0  0  0  0
   44.0525   36.5957   43.9719 H   0  0  0  0  0  0  0  0  0  0  0  0
   45.8319   32.7389   43.1413 H   0  0  0  0  0  0  0  0  0  0  0  0
   45.2175   34.0751   47.1436 H   0  0  0  0  0  0  0  0  0  0  0  0
  1  2  1  0
  3 15  1  0
  3  2  2  0
  4  3  1  0
  5  4  2  0
  5  1  1  0
  6  8  1  0
  6  5  1  0
  7  6  1  0
  7  8  1  0
  8  9  1  0
  9 14  2  0
 10 11  2  0
 10  9  1  0
 11 12  1  0
 12 13  2  0
 14 13  1  0
 15 17  1  0
 16 21  2  0
 17 18  2  0
 17 16  1  0
 18 19  1  0
 19 20  2  0
 21 20  1  0
  1 22  1  0
  4 23  1  0
  6 24  1  6
  7 25  1  0
  7 26  1  0
  8 27  1  6
 10 28  1  0
 11 29  1  0
 12 30  1  0
 13 31  1  0
 16 32  1  0
 18 33  1  0
 20 34  1  0
M  ISO  8  22   9  23  14  24  13  25  13  26  13  27  13  28  14  29  14
M  ISO  5  30  14  31  14  32  14  33  14  34  14
M  END
>  <minimizedAffinity>  (1) 
-5.96543837

>  <minimizedRMSD>  (1) 
1.26950538

$$$$
