
     RDKit          3D

 31 34  0  0  1  0  0  0  0  0999 V2000
   40.8740   33.4670   40.8910 N   0  0  0  0  0  0  0  0  0  0  0  0
   42.0920   33.4250   41.3590 N   0  0  0  0  0  0  0  0  0  0  0  0
   42.7140   34.6260   41.0760 C   0  0  0  0  0  0  0  0  0  0  0  0
   41.7770   35.3540   40.4140 C   0  0  0  0  0  0  0  0  0  0  0  0
   40.6010   34.6600   40.2760 C   0  0  0  0  0  0  0  0  0  0  0  0
   39.2850   34.8480   39.6930 C   0  0  1  0  0  0  0  0  0  0  0  0
   38.9480   34.2580   38.3810 C   0  0  0  0  0  0  0  0  0  0  0  0
   38.2950   33.7870   39.6560 C   0  0  1  0  0  0  0  0  0  0  0  0
   38.4150   32.3530   39.8880 C   0  0  0  0  0  0  0  0  0  0  0  0
   38.5510   31.3550   38.8040 C   0  0  0  0  0  0  0  0  0  0  0  0
   38.6650   29.7600   39.7630 S   0  0  0  0  0  0  0  0  0  0  0  0
   38.5180   30.6520   41.3760 C   0  0  0  0  0  0  0  0  0  0  0  0
   38.4120   31.8760   41.1300 N   0  0  0  0  0  0  0  0  0  0  0  0
   44.3500   35.1250   41.4970 S   0  0  0  0  0  0  0  0  0  0  0  0
   44.3750   35.6950   44.2640 C   0  0  0  0  0  0  0  0  0  0  0  0
   44.6870   34.7980   43.2180 C   0  0  0  0  0  0  0  0  0  0  0  0
   45.3030   33.5840   43.5700 C   0  0  0  0  0  0  0  0  0  0  0  0
   45.5790   33.3000   44.8750 N   0  0  0  0  0  0  0  0  0  0  0  0
   45.2460   34.2220   45.8430 C   0  0  0  0  0  0  0  0  0  0  0  0
   44.6530   35.4000   45.5400 N   0  0  0  0  0  0  0  0  0  0  0  0
   40.1981   32.6942   40.9744 H   0  0  0  0  0  0  0  0  0  0  0  0
   41.9408   36.3737   40.0354 H   0  0  0  0  0  0  0  0  0  0  0  0
   39.2878   35.8671   40.1071 H   0  0  0  0  0  0  0  0  0  0  0  0
   39.6726   33.6161   37.8586 H   0  0  0  0  0  0  0  0  0  0  0  0
   38.5983   34.6408   37.4109 H   0  0  0  0  0  0  0  0  0  0  0  0
   37.3329   33.7392   40.1870 H   0  0  0  0  0  0  0  0  0  0  0  0
   38.5779   31.5129   37.7157 H   0  0  0  0  0  0  0  0  0  0  0  0
   38.5228   30.1901   42.3743 H   0  0  0  0  0  0  0  0  0  0  0  0
   43.8940   36.6550   44.0252 H   0  0  0  0  0  0  0  0  0  0  0  0
   45.5644   32.8575   42.7865 H   0  0  0  0  0  0  0  0  0  0  0  0
   45.4692   33.9933   46.8956 H   0  0  0  0  0  0  0  0  0  0  0  0
  1  2  1  0
  3  2  2  0
  3 14  1  0
  4  3  1  0
  5  4  2  0
  5  1  1  0
  6  5  1  0
  7  8  1  0
  7  6  1  0
  8  6  1  0
  8  9  1  0
  9 13  1  0
 10 11  1  0
 10  9  2  0
 11 12  1  0
 13 12  2  0
 14 16  1  0
 15 20  2  0
 16 17  2  0
 16 15  1  0
 17 18  1  0
 18 19  2  0
 20 19  1  0
  1 21  1  0
  4 22  1  0
  6 23  1  6
  7 24  1  0
  7 25  1  0
  8 26  1  6
 10 27  1  0
 12 28  1  0
 15 29  1  0
 17 30  1  0
 19 31  1  0
M  ISO  8  21   9  22  14  23  13  24  13  25  13  26  13  27  14  28  14
M  ISO  3  29  14  30  14  31  14
M  END
>  <minimizedAffinity>  (1) 
-5.60139322

>  <minimizedRMSD>  (1) 
0.396788418

$$$$
