
     RDKit          3D

 38 41  0  0  1  0  0  0  0  0999 V2000
   40.9480   33.4690   40.8120 N   0  0  0  0  0  0  0  0  0  0  0  0
   42.1550   33.6070   41.3100 N   0  0  0  0  0  0  0  0  0  0  0  0
   42.5300   34.9270   41.1770 C   0  0  0  0  0  0  0  0  0  0  0  0
   41.4670   35.5360   40.5710 C   0  0  0  0  0  0  0  0  0  0  0  0
   40.4620   34.6330   40.3340 C   0  0  0  0  0  0  0  0  0  0  0  0
   39.1360   34.6670   39.7230 C   0  0  1  0  0  0  0  0  0  0  0  0
   38.9140   34.0900   38.3880 C   0  0  0  0  0  0  0  0  0  0  0  0
   38.3190   33.4610   39.6540 C   0  0  1  0  0  0  0  0  0  0  0  0
   38.6260   32.1070   39.8500 N   0  0  0  0  0  0  0  0  0  0  0  0
   38.2930   31.1850   38.7970 C   0  0  0  0  0  0  0  0  0  0  0  0
   38.8370   29.8160   39.1430 C   0  0  0  0  0  0  0  0  0  0  0  0
   38.4880   29.3470   40.3750 O   0  0  0  0  0  0  0  0  0  0  0  0
   37.5590   30.1820   40.9720 C   0  0  0  0  0  0  0  0  0  0  0  0
   38.0650   31.5870   41.0790 C   0  0  0  0  0  0  0  0  0  0  0  0
   44.0440   35.6820   41.6820 S   0  0  0  0  0  0  0  0  0  0  0  0
   44.3470   35.7500   44.4880 C   0  0  0  0  0  0  0  0  0  0  0  0
   44.5520   35.0520   43.2860 C   0  0  0  0  0  0  0  0  0  0  0  0
   45.1910   33.7980   43.3590 C   0  0  0  0  0  0  0  0  0  0  0  0
   45.5870   33.3030   44.5730 N   0  0  0  0  0  0  0  0  0  0  0  0
   45.3480   34.0480   45.7010 C   0  0  0  0  0  0  0  0  0  0  0  0
   44.7390   35.2510   45.6580 N   0  0  0  0  0  0  0  0  0  0  0  0
   40.4331   32.5773   40.7890 H   0  0  0  0  0  0  0  0  0  0  0  0
   41.4234   36.6035   40.3093 H   0  0  0  0  0  0  0  0  0  0  0  0
   38.9777   35.6664   40.1544 H   0  0  0  0  0  0  0  0  0  0  0  0
   39.7369   33.5919   37.8544 H   0  0  0  0  0  0  0  0  0  0  0  0
   38.5204   34.4526   37.4270 H   0  0  0  0  0  0  0  0  0  0  0  0
   37.3734   33.2411   40.1712 H   0  0  0  0  0  0  0  0  0  0  0  0
   38.7382   31.5296   37.8520 H   0  0  0  0  0  0  0  0  0  0  0  0
   37.2000   31.1307   38.6856 H   0  0  0  0  0  0  0  0  0  0  0  0
   38.4685   29.1032   38.3906 H   0  0  0  0  0  0  0  0  0  0  0  0
   39.9323   29.9165   39.1536 H   0  0  0  0  0  0  0  0  0  0  0  0
   36.6386   30.1795   40.3697 H   0  0  0  0  0  0  0  0  0  0  0  0
   37.3660   29.8088   41.9886 H   0  0  0  0  0  0  0  0  0  0  0  0
   38.8449   31.6155   41.8542 H   0  0  0  0  0  0  0  0  0  0  0  0
   37.1989   32.2188   41.3253 H   0  0  0  0  0  0  0  0  0  0  0  0
   43.8511   36.7315   44.4615 H   0  0  0  0  0  0  0  0  0  0  0  0
   45.3714   33.2176   42.4422 H   0  0  0  0  0  0  0  0  0  0  0  0
   45.6648   33.6493   46.6760 H   0  0  0  0  0  0  0  0  0  0  0  0
  1  2  1  0
  3  2  2  0
  3 15  1  0
  4  3  1  0
  5  4  2  0
  5  1  1  0
  6  5  1  0
  7  8  1  0
  7  6  1  0
  8  6  1  0
  8  9  1  0
  9 14  1  0
 10 11  1  0
 10  9  1  0
 11 12  1  0
 12 13  1  0
 13 14  1  0
 15 17  1  0
 16 21  2  0
 17 18  2  0
 17 16  1  0
 18 19  1  0
 19 20  2  0
 21 20  1  0
  1 22  1  0
  4 23  1  0
  6 24  1  6
  7 25  1  0
  7 26  1  0
  8 27  1  6
 10 28  1  0
 10 29  1  0
 11 30  1  0
 11 31  1  0
 13 32  1  0
 13 33  1  0
 14 34  1  0
 14 35  1  0
 16 36  1  0
 18 37  1  0
 20 38  1  0
M  ISO  8  22   9  23  14  24  13  25  13  26  13  27  13  28  13  29  13
M  ISO  8  30  13  31  13  32  13  33  13  34  13  35  13  36  14  37  14
M  ISO  1  38  14
M  END
>  <minimizedAffinity>  (1) 
-5.52483797

>  <minimizedRMSD>  (1) 
1.06848669

$$$$
