
     RDKit          3D

 37 39  0  0  1  0  0  0  0  0999 V2000
   43.1410   34.1010   40.0140 N   0  0  0  0  0  0  0  0  0  0  0  0
   44.2230   34.3070   40.7660 N   0  0  0  0  0  0  0  0  0  0  0  0
   43.9490   35.3480   41.6270 C   0  0  0  0  0  0  0  0  0  0  0  0
   42.6700   35.7430   41.3520 C   0  0  0  0  0  0  0  0  0  0  0  0
   42.1430   34.9830   40.3540 C   0  0  0  0  0  0  0  0  0  0  0  0
   40.8420   34.9680   39.6610 C   0  0  1  0  0  0  0  0  0  0  0  0
   40.8040   35.1090   38.1800 C   0  0  0  0  0  0  0  0  0  0  0  0
   40.5090   33.7720   38.8580 C   0  0  2  0  0  0  0  0  0  0  0  0
   39.1200   33.2120   38.8060 C   0  0  0  0  0  0  0  0  0  0  0  0
   39.2480   31.7070   38.8040 C   0  0  0  0  0  0  0  0  0  0  0  0
   38.4780   33.6630   37.5130 C   0  0  0  0  0  0  0  0  0  0  0  0
   38.2640   33.6510   39.9680 C   0  0  0  0  0  0  0  0  0  0  0  0
   45.0360   36.0360   42.8350 S   0  0  0  0  0  0  0  0  0  0  0  0
   45.0720   34.6000   45.2300 C   0  0  0  0  0  0  0  0  0  0  0  0
   45.6220   34.7850   43.9620 C   0  0  0  0  0  0  0  0  0  0  0  0
   46.6710   33.9280   43.6100 C   0  0  0  0  0  0  0  0  0  0  0  0
   47.1140   32.9720   44.4740 N   0  0  0  0  0  0  0  0  0  0  0  0
   46.5190   32.8620   45.6890 C   0  0  0  0  0  0  0  0  0  0  0  0
   45.5150   33.6610   46.0610 N   0  0  0  0  0  0  0  0  0  0  0  0
   43.0639   33.3816   39.2809 H   0  0  0  0  0  0  0  0  0  0  0  0
   42.1413   36.5599   41.8650 H   0  0  0  0  0  0  0  0  0  0  0  0
   40.3549   35.5107   40.4845 H   0  0  0  0  0  0  0  0  0  0  0  0
   41.7363   35.2484   37.6131 H   0  0  0  0  0  0  0  0  0  0  0  0
   40.2785   35.7605   37.4663 H   0  0  0  0  0  0  0  0  0  0  0  0
   40.9066   32.7476   38.8075 H   0  0  0  0  0  0  0  0  0  0  0  0
   39.2792   31.3403   39.8406 H   0  0  0  0  0  0  0  0  0  0  0  0
   38.3841   31.2662   38.2850 H   0  0  0  0  0  0  0  0  0  0  0  0
   40.1739   31.4184   38.2850 H   0  0  0  0  0  0  0  0  0  0  0  0
   37.5969   34.2820   37.7375 H   0  0  0  0  0  0  0  0  0  0  0  0
   39.2014   34.2524   36.9305 H   0  0  0  0  0  0  0  0  0  0  0  0
   38.1688   32.7826   36.9305 H   0  0  0  0  0  0  0  0  0  0  0  0
   38.7668   33.3932   40.9118 H   0  0  0  0  0  0  0  0  0  0  0  0
   38.1104   34.7392   39.9198 H   0  0  0  0  0  0  0  0  0  0  0  0
   37.2907   33.1408   39.9198 H   0  0  0  0  0  0  0  0  0  0  0  0
   44.2461   35.2509   45.5529 H   0  0  0  0  0  0  0  0  0  0  0  0
   47.1444   34.0276   42.6221 H   0  0  0  0  0  0  0  0  0  0  0  0
   46.8744   32.0913   46.3888 H   0  0  0  0  0  0  0  0  0  0  0  0
  1  5  1  0
  1  2  1  0
  2  3  2  0
  3 13  1  0
  4  3  1  0
  5  4  2  0
  6  5  1  0
  7  8  1  0
  7  6  1  0
  8  6  1  0
  9  8  1  0
  9 12  1  0
 10  9  1  0
 11  9  1  0
 13 15  1  0
 14 19  2  0
 15 14  1  0
 16 15  2  0
 16 17  1  0
 17 18  2  0
 18 19  1  0
  1 20  1  0
  4 21  1  0
  6 22  1  1
  7 23  1  0
  7 24  1  0
  8 25  1  6
 10 26  1  0
 10 27  1  0
 10 28  1  0
 11 29  1  0
 11 30  1  0
 11 31  1  0
 12 32  1  0
 12 33  1  0
 12 34  1  0
 14 35  1  0
 16 36  1  0
 18 37  1  0
M  ISO  8  20   9  21  14  22  13  23  13  24  13  25  13  26   8  27   8
M  ISO  8  28   8  29   8  30   8  31   8  32   8  33   8  34   8  35  14
M  ISO  2  36  14  37  14
M  END
>  <minimizedAffinity>  (1) 
-5.48826361

>  <minimizedRMSD>  (1) 
2.05724716

$$$$
