
     RDKit          3D

 37 40  0  0  1  0  0  0  0  0999 V2000
   41.1940   33.5320   40.7980 N   0  0  0  0  0  0  0  0  0  0  0  0
   42.4070   33.6260   41.3010 N   0  0  0  0  0  0  0  0  0  0  0  0
   42.7410   34.9610   41.3710 C   0  0  0  0  0  0  0  0  0  0  0  0
   41.6580   35.6340   40.8800 C   0  0  0  0  0  0  0  0  0  0  0  0
   40.6710   34.7480   40.5130 C   0  0  0  0  0  0  0  0  0  0  0  0
   39.3430   34.8680   39.9340 C   0  0  1  0  0  0  0  0  0  0  0  0
   39.0560   34.3680   38.5750 C   0  0  0  0  0  0  0  0  0  0  0  0
   38.4760   33.7030   39.8330 C   0  0  1  0  0  0  0  0  0  0  0  0
   38.8010   32.3270   39.8590 N   0  0  0  0  0  0  0  0  0  0  0  0
   38.1600   31.6560   40.9820 C   0  0  0  0  0  0  0  0  0  0  0  0
   37.9800   30.2180   40.6210 C   0  0  0  0  0  0  0  0  0  0  0  0
   38.5890   30.1410   39.2350 C   0  0  0  0  0  0  0  0  0  0  0  0
   38.2870   31.5580   38.7280 C   0  0  0  0  0  0  0  0  0  0  0  0
   44.2390   35.6930   41.9670 S   0  0  0  0  0  0  0  0  0  0  0  0
   44.4350   35.5610   44.7640 C   0  0  0  0  0  0  0  0  0  0  0  0
   44.7070   34.9540   43.5340 C   0  0  0  0  0  0  0  0  0  0  0  0
   45.3720   33.7250   43.5600 C   0  0  0  0  0  0  0  0  0  0  0  0
   45.7290   33.1650   44.7530 N   0  0  0  0  0  0  0  0  0  0  0  0
   45.4260   33.8260   45.9180 C   0  0  0  0  0  0  0  0  0  0  0  0
   44.7910   35.0010   45.9210 N   0  0  0  0  0  0  0  0  0  0  0  0
   40.7021   32.6409   40.6403 H   0  0  0  0  0  0  0  0  0  0  0  0
   41.5854   36.7280   40.7908 H   0  0  0  0  0  0  0  0  0  0  0  0
   39.2433   35.8539   40.4115 H   0  0  0  0  0  0  0  0  0  0  0  0
   39.8400   33.8640   37.9907 H   0  0  0  0  0  0  0  0  0  0  0  0
   38.6486   34.7928   37.6457 H   0  0  0  0  0  0  0  0  0  0  0  0
   37.5516   33.5032   40.3947 H   0  0  0  0  0  0  0  0  0  0  0  0
   38.7936   31.7393   41.8773 H   0  0  0  0  0  0  0  0  0  0  0  0
   37.1862   32.1198   41.1980 H   0  0  0  0  0  0  0  0  0  0  0  0
   38.5137   29.5629   41.3253 H   0  0  0  0  0  0  0  0  0  0  0  0
   36.9311   29.8885   40.6547 H   0  0  0  0  0  0  0  0  0  0  0  0
   39.6705   29.9444   39.2753 H   0  0  0  0  0  0  0  0  0  0  0  0
   38.1970   29.3308   38.6026 H   0  0  0  0  0  0  0  0  0  0  0  0
   38.8266   31.7854   37.7968 H   0  0  0  0  0  0  0  0  0  0  0  0
   37.2358   31.7503   38.4672 H   0  0  0  0  0  0  0  0  0  0  0  0
   43.9121   36.5287   44.7778 H   0  0  0  0  0  0  0  0  0  0  0  0
   45.6081   33.2082   42.6181 H   0  0  0  0  0  0  0  0  0  0  0  0
   45.7152   33.3738   46.8782 H   0  0  0  0  0  0  0  0  0  0  0  0
  1  2  1  0
  2  3  2  0
  3 14  1  0
  4  3  1  0
  5  1  1  0
  5  4  2  0
  6  5  1  0
  7  8  1  0
  7  6  1  0
  8  9  1  0
  8  6  1  0
  9 10  1  0
 11 10  1  0
 12 11  1  0
 13 12  1  0
 13  9  1  0
 14 16  1  0
 15 20  2  0
 16 17  2  0
 16 15  1  0
 17 18  1  0
 18 19  2  0
 19 20  1  0
  1 21  1  0
  4 22  1  0
  6 23  1  6
  7 24  1  0
  7 25  1  0
  8 26  1  6
 10 27  1  0
 10 28  1  0
 11 29  1  0
 11 30  1  0
 12 31  1  0
 12 32  1  0
 13 33  1  0
 13 34  1  0
 15 35  1  0
 17 36  1  0
 19 37  1  0
M  ISO  8  21   9  22  14  23  13  24  13  25  13  26  13  27  13  28  13
M  ISO  8  29  13  30  13  31  13  32  13  33  13  34  13  35  14  36  14
M  ISO  1  37  14
M  END
>  <minimizedAffinity>  (1) 
-5.43265343

>  <minimizedRMSD>  (1) 
0.514547646

$$$$
