
     RDKit          3D

 26 28  0  0  1  0  0  0  0  0999 V2000
   42.2710   33.7300   40.4240 N   0  0  0  0  0  0  0  0  0  0  0  0
   43.5620   33.8980   40.7170 N   0  0  0  0  0  0  0  0  0  0  0  0
   43.6570   34.9330   41.6250 C   0  0  0  0  0  0  0  0  0  0  0  0
   42.3780   35.3580   41.8490 C   0  0  0  0  0  0  0  0  0  0  0  0
   41.4950   34.6280   41.1150 C   0  0  0  0  0  0  0  0  0  0  0  0
   40.0350   34.6560   40.9600 C   0  0  1  0  0  0  0  0  0  0  0  0
   39.4420   34.7270   39.5970 C   0  0  0  0  0  0  0  0  0  0  0  0
   39.3700   33.4510   40.4420 C   0  0  2  0  0  0  0  0  0  0  0  0
   38.0440   33.1260   40.7830 O   0  0  0  0  0  0  0  0  0  0  0  0
   45.1330   35.5780   42.3470 S   0  0  0  0  0  0  0  0  0  0  0  0
   44.9660   34.7650   44.9970 C   0  0  0  0  0  0  0  0  0  0  0  0
   45.6210   34.6300   43.7700 C   0  0  0  0  0  0  0  0  0  0  0  0
   46.6710   33.7140   43.7230 C   0  0  0  0  0  0  0  0  0  0  0  0
   47.0200   33.0040   44.8220 N   0  0  0  0  0  0  0  0  0  0  0  0
   46.3360   33.1910   45.9790 C   0  0  0  0  0  0  0  0  0  0  0  0
   45.3240   34.0560   46.0770 N   0  0  0  0  0  0  0  0  0  0  0  0
   41.9064   33.0235   39.7692 H   0  0  0  0  0  0  0  0  0  0  0  0
   42.1005   36.1771   42.5288 H   0  0  0  0  0  0  0  0  0  0  0  0
   39.9233   35.2714   41.8649 H   0  0  0  0  0  0  0  0  0  0  0  0
   40.0921   34.7695   38.7107 H   0  0  0  0  0  0  0  0  0  0  0  0
   38.7152   35.3762   39.0868 H   0  0  0  0  0  0  0  0  0  0  0  0
   39.6973   32.4013   40.4102 H   0  0  0  0  0  0  0  0  0  0  0  0
   37.9527   33.1036   41.7685 H   0  0  0  0  0  0  0  0  0  0  0  0
   44.1303   35.4755   45.0793 H   0  0  0  0  0  0  0  0  0  0  0  0
   47.2222   33.5664   42.7826 H   0  0  0  0  0  0  0  0  0  0  0  0
   46.6255   32.6097   46.8668 H   0  0  0  0  0  0  0  0  0  0  0  0
  1  2  1  0
  1  5  1  0
  2  3  2  0
  3  4  1  0
  3 10  1  0
  5  4  2  0
  6  5  1  0
  7  8  1  0
  7  6  1  0
  8  9  1  0
  8  6  1  0
 10 12  1  0
 11 16  2  0
 12 11  1  0
 13 12  2  0
 13 14  1  0
 14 15  2  0
 15 16  1  0
  1 17  1  0
  4 18  1  0
  6 19  1  1
  7 20  1  0
  7 21  1  0
  8 22  1  6
  9 23  1  0
 11 24  1  0
 13 25  1  0
 15 26  1  0
M  ISO  8  17   9  18  14  19  13  20  13  21  13  22  13  23   3  24  14
M  ISO  2  25  14  26  14
M  END
>  <minimizedAffinity>  (1) 
-4.86750364

>  <minimizedRMSD>  (1) 
1.45063317

$$$$
