
     RDKit          3D

 39 42  0  0  1  0  0  0  0  0999 V2000
   43.9270   36.0360   41.8860 S   0  0  0  0  0  0  0  0  0  0  0  0
   44.5760   35.5450   44.5290 C   0  0  0  0  0  0  0  0  0  0  0  0
   44.5430   35.0540   43.2340 C   0  0  0  0  0  0  0  0  0  0  0  0
   45.0190   33.7630   43.0820 C   0  0  0  0  0  0  0  0  0  0  0  0
   45.4770   33.0590   44.1450 N   0  0  0  0  0  0  0  0  0  0  0  0
   45.4770   33.6070   45.3760 C   0  0  0  0  0  0  0  0  0  0  0  0
   45.0300   34.8410   45.5670 N   0  0  0  0  0  0  0  0  0  0  0  0
   45.9760   32.7910   46.4300 N   0  0  0  0  0  0  0  0  0  0  0  0
   45.3180   32.9410   47.6010 C   0  0  0  0  0  0  0  0  0  0  0  0
   45.7080   32.1990   48.7150 C   0  0  0  0  0  0  0  0  0  0  0  0
   46.7740   31.3450   48.5120 C   0  0  0  0  0  0  0  0  0  0  0  0
   47.1810   30.5820   49.6420 N   0  0  0  0  0  0  0  0  0  0  0  0
   47.4230   31.2060   47.3300 N   0  0  0  0  0  0  0  0  0  0  0  0
   47.0120   31.9450   46.2780 C   0  0  0  0  0  0  0  0  0  0  0  0
   47.5040   31.9340   45.1200 O   0  0  0  0  0  0  0  0  0  0  0  0
   42.0460   33.5200   39.5410 N   0  0  0  0  0  0  0  0  0  0  0  0
   43.1340   33.8700   40.2110 N   0  0  0  0  0  0  0  0  0  0  0  0
   42.8520   35.0740   40.8450 C   0  0  0  0  0  0  0  0  0  0  0  0
   41.5580   35.4110   40.5200 C   0  0  0  0  0  0  0  0  0  0  0  0
   41.0400   34.4590   39.7120 C   0  0  0  0  0  0  0  0  0  0  0  0
   39.7250   34.2930   39.0450 C   0  0  1  0  0  0  0  0  0  0  0  0
   39.5920   34.7040   37.6030 C   0  0  0  0  0  0  0  0  0  0  0  0
   39.5990   33.2480   38.0310 C   0  0  2  0  0  0  0  0  0  0  0  0
   38.2950   32.5300   37.7980 C   0  0  0  0  0  0  0  0  0  0  0  0
   38.4760   31.6470   36.7180 F   0  0  0  0  0  0  0  0  0  0  0  0
   37.3130   33.4180   37.4270 F   0  0  0  0  0  0  0  0  0  0  0  0
   37.9030   31.8410   38.8990 F   0  0  0  0  0  0  0  0  0  0  0  0
   44.2096   36.5662   44.7103 H   0  0  0  0  0  0  0  0  0  0  0  0
   45.0255   33.3019   42.0833 H   0  0  0  0  0  0  0  0  0  0  0  0
   44.4772   33.6464   47.6749 H   0  0  0  0  0  0  0  0  0  0  0  0
   45.2019   32.2876   49.6877 H   0  0  0  0  0  0  0  0  0  0  0  0
   47.9698   29.9245   49.5624 H   0  0  0  0  0  0  0  0  0  0  0  0
   46.6868   30.6872   50.5395 H   0  0  0  0  0  0  0  0  0  0  0  0
   41.9592   32.6667   38.9708 H   0  0  0  0  0  0  0  0  0  0  0  0
   41.0289   36.3122   40.8633 H   0  0  0  0  0  0  0  0  0  0  0  0
   39.1797   34.5459   39.9662 H   0  0  0  0  0  0  0  0  0  0  0  0
   40.4518   35.1293   37.0646 H   0  0  0  0  0  0  0  0  0  0  0  0
   38.9190   35.3548   37.0255 H   0  0  0  0  0  0  0  0  0  0  0  0
   40.1918   32.3421   37.8365 H   0  0  0  0  0  0  0  0  0  0  0  0
  1  3  1  0
  2  7  2  0
  3  2  1  0
  4  3  2  0
  4  5  1  0
  5  6  2  0
  6  7  1  0
  6  8  1  0
  8  9  1  0
  9 10  2  0
 11 10  1  0
 11 12  1  0
 13 11  2  0
 14  8  1  0
 14 13  1  0
 15 14  2  0
 16 20  1  0
 16 17  1  0
 17 18  2  0
 18  1  1  0
 19 18  1  0
 20 19  2  0
 21 20  1  0
 22 23  1  0
 22 21  1  0
 23 21  1  0
 24 23  1  0
 24 27  1  0
 25 24  1  0
 26 24  1  0
  2 28  1  0
  4 29  1  0
  9 30  1  0
 10 31  1  0
 12 32  1  0
 12 33  1  0
 16 34  1  0
 19 35  1  0
 21 36  1  1
 22 37  1  0
 22 38  1  0
 23 39  1  6
M  ISO  8  28  14  29  14  30  14  31  14  34   9  35  14  36  13  37  13
M  ISO  2  38  13  39  13
M  END
>  <minimizedAffinity>  (1) 
-7.31811094

>  <minimizedRMSD>  (1) 
1.66643775

$$$$
