
     RDKit          3D

 42 46  0  0  1  0  0  0  0  0999 V2000
   44.0740   33.5560   41.5890 C   0  0  0  0  0  0  0  0  0  0  0  0
   43.9670   34.9170   41.7960 C   0  0  0  0  0  0  0  0  0  0  0  0
   42.9790   35.5390   41.0600 C   0  0  0  0  0  0  0  0  0  0  0  0
   42.1900   34.8560   40.2090 N   0  0  0  0  0  0  0  0  0  0  0  0
   42.3350   33.5430   40.0460 C   0  0  0  0  0  0  0  0  0  0  0  0
   43.2710   32.9230   40.7370 N   0  0  0  0  0  0  0  0  0  0  0  0
   41.6140   32.5780   39.1940 C   0  0  0  0  0  0  0  0  0  0  0  0
   42.0480   32.1130   37.9960 N   0  0  0  0  0  0  0  0  0  0  0  0
   41.4190   31.2530   37.2250 C   0  0  0  0  0  0  0  0  0  0  0  0
   40.2340   30.7430   37.5820 N   0  0  0  0  0  0  0  0  0  0  0  0
   39.6970   31.1350   38.7630 C   0  0  0  0  0  0  0  0  0  0  0  0
   38.4770   30.5930   39.1030 C   0  0  0  0  0  0  0  0  0  0  0  0
   37.8750   30.9480   40.2910 C   0  0  0  0  0  0  0  0  0  0  0  0
   38.5540   31.8640   41.1020 C   0  0  0  0  0  0  0  0  0  0  0  0
   39.7710   32.3610   40.6920 C   0  0  0  0  0  0  0  0  0  0  0  0
   40.3950   32.0360   39.5330 C   0  0  0  0  0  0  0  0  0  0  0  0
   45.0200   35.7990   42.9270 S   0  0  0  0  0  0  0  0  0  0  0  0
   44.8410   34.4620   46.6000 N   0  0  0  0  0  0  0  0  0  0  0  0
   44.5310   35.3770   45.6880 N   0  0  0  0  0  0  0  0  0  0  0  0
   45.0940   34.9670   44.4970 C   0  0  0  0  0  0  0  0  0  0  0  0
   45.7400   33.7850   44.7420 C   0  0  0  0  0  0  0  0  0  0  0  0
   45.6000   33.4450   46.0390 C   0  0  0  0  0  0  0  0  0  0  0  0
   46.0760   32.3200   46.8740 C   0  0  1  0  0  0  0  0  0  0  0  0
   47.3100   32.5190   47.7140 C   0  0  0  0  0  0  0  0  0  0  0  0
   45.9270   32.4120   48.3260 C   0  0  2  0  0  0  0  0  0  0  0  0
   45.7100   31.1840   49.1700 C   0  0  0  0  0  0  0  0  0  0  0  0
   44.9460   31.5600   50.2820 F   0  0  0  0  0  0  0  0  0  0  0  0
   46.9230   30.7280   49.6550 F   0  0  0  0  0  0  0  0  0  0  0  0
   45.0970   30.1950   48.4670 F   0  0  0  0  0  0  0  0  0  0  0  0
   44.8368   32.9846   42.1382 H   0  0  0  0  0  0  0  0  0  0  0  0
   42.8319   36.6234   41.1717 H   0  0  0  0  0  0  0  0  0  0  0  0
   41.8741   30.9478   36.2712 H   0  0  0  0  0  0  0  0  0  0  0  0
   37.9842   29.8782   38.4276 H   0  0  0  0  0  0  0  0  0  0  0  0
   36.9024   30.5291   40.5888 H   0  0  0  0  0  0  0  0  0  0  0  0
   38.1188   32.1847   42.0600 H   0  0  0  0  0  0  0  0  0  0  0  0
   40.2762   33.0774   41.3565 H   0  0  0  0  0  0  0  0  0  0  0  0
   44.5565   34.5021   47.5891 H   0  0  0  0  0  0  0  0  0  0  0  0
   46.2916   33.1995   43.9917 H   0  0  0  0  0  0  0  0  0  0  0  0
   45.7713   31.5846   46.1148 H   0  0  0  0  0  0  0  0  0  0  0  0
   48.0366   31.7023   47.8364 H   0  0  0  0  0  0  0  0  0  0  0  0
   48.1344   33.2465   47.7470 H   0  0  0  0  0  0  0  0  0  0  0  0
   45.2679   33.0240   48.9593 H   0  0  0  0  0  0  0  0  0  0  0  0
  1  2  2  0
  2 17  1  0
  3  2  1  0
  4  3  2  0
  5  4  1  0
  5  6  2  0
  6  1  1  0
  7 16  1  0
  7  5  1  0
  8  7  2  0
  9 10  2  0
  9  8  1  0
 10 11  1  0
 11 12  1  0
 11 16  2  0
 12 13  2  0
 13 14  1  0
 15 14  2  0
 16 15  1  0
 17 20  1  0
 19 18  1  0
 20 21  1  0
 20 19  2  0
 21 22  2  0
 22 18  1  0
 22 23  1  0
 23 24  1  0
 23 25  1  0
 24 25  1  0
 25 26  1  0
 26 28  1  0
 26 27  1  0
 29 26  1  0
  1 30  1  0
  3 31  1  0
  9 32  1  0
 12 33  1  0
 13 34  1  0
 14 35  1  0
 15 36  1  0
 18 37  1  0
 21 38  1  0
 23 39  1  6
 24 40  1  0
 24 41  1  0
 25 42  1  6
M  ISO  8  30  14  31  14  32  14  33  14  34  14  35  14  36  14  37   9
M  ISO  5  38  14  39  13  40  13  41  13  42  13
M  END
>  <minimizedAffinity>  (1) 
-7.24399948

>  <minimizedRMSD>  (1) 
10.2473097

$$$$
