
     RDKit          3D

 42 46  0  0  1  0  0  0  0  0999 V2000
   44.9710   34.6420   45.2580 C   0  0  0  0  0  0  0  0  0  0  0  0
   45.5530   34.6750   44.0010 C   0  0  0  0  0  0  0  0  0  0  0  0
   46.6310   33.8220   43.8320 C   0  0  0  0  0  0  0  0  0  0  0  0
   47.0710   33.0180   44.8360 N   0  0  0  0  0  0  0  0  0  0  0  0
   46.4430   33.0520   46.0270 C   0  0  0  0  0  0  0  0  0  0  0  0
   45.4060   33.8510   46.2420 N   0  0  0  0  0  0  0  0  0  0  0  0
   46.9990   32.1640   46.9940 N   0  0  0  0  0  0  0  0  0  0  0  0
   47.0550   32.2390   48.3390 C   0  0  0  0  0  0  0  0  0  0  0  0
   47.6830   31.1570   48.8360 N   0  0  0  0  0  0  0  0  0  0  0  0
   48.0590   30.3410   47.8350 C   0  0  0  0  0  0  0  0  0  0  0  0
   48.7080   29.1340   47.6730 C   0  0  0  0  0  0  0  0  0  0  0  0
   49.1000   28.5520   48.6940 O   0  0  0  0  0  0  0  0  0  0  0  0
   48.9150   28.5970   46.4580 N   0  0  0  0  0  0  0  0  0  0  0  0
   48.4930   29.2230   45.3650 C   0  0  0  0  0  0  0  0  0  0  0  0
   48.6330   28.7880   44.0180 N   0  0  0  0  0  0  0  0  0  0  0  0
   47.8510   30.4080   45.4850 N   0  0  0  0  0  0  0  0  0  0  0  0
   47.6230   30.9860   46.6980 C   0  0  0  0  0  0  0  0  0  0  0  0
   44.9410   35.7430   42.7240 S   0  0  0  0  0  0  0  0  0  0  0  0
   42.2200   33.5260   40.9820 N   0  0  0  0  0  0  0  0  0  0  0  0
   43.3410   33.6320   41.6810 N   0  0  0  0  0  0  0  0  0  0  0  0
   43.5790   34.9910   41.8630 C   0  0  0  0  0  0  0  0  0  0  0  0
   42.5550   35.6720   41.2440 C   0  0  0  0  0  0  0  0  0  0  0  0
   41.7040   34.7810   40.6940 C   0  0  0  0  0  0  0  0  0  0  0  0
   40.4540   34.9190   39.9040 C   0  0  1  0  0  0  0  0  0  0  0  0
   40.5550   35.0380   38.4070 C   0  0  0  0  0  0  0  0  0  0  0  0
   40.0280   33.7870   39.0860 C   0  0  2  0  0  0  0  0  0  0  0  0
   38.5730   33.5050   38.8170 C   0  0  0  0  0  0  0  0  0  0  0  0
   38.4260   32.1110   38.7010 F   0  0  0  0  0  0  0  0  0  0  0  0
   38.1980   34.0430   37.6040 F   0  0  0  0  0  0  0  0  0  0  0  0
   37.7840   33.9790   39.8120 F   0  0  0  0  0  0  0  0  0  0  0  0
   44.1103   35.2981   45.4546 H   0  0  0  0  0  0  0  0  0  0  0  0
   47.1447   33.7944   42.8597 H   0  0  0  0  0  0  0  0  0  0  0  0
   46.6472   33.0637   48.9420 H   0  0  0  0  0  0  0  0  0  0  0  0
   49.4040   27.6944   46.3741 H   0  0  0  0  0  0  0  0  0  0  0  0
   49.1070   27.8973   43.8111 H   0  0  0  0  0  0  0  0  0  0  0  0
   48.2604   29.3637   43.2495 H   0  0  0  0  0  0  0  0  0  0  0  0
   41.7914   32.6352   40.6927 H   0  0  0  0  0  0  0  0  0  0  0  0
   42.4479   36.7661   41.2042 H   0  0  0  0  0  0  0  0  0  0  0  0
   39.9799   35.5253   40.6899 H   0  0  0  0  0  0  0  0  0  0  0  0
   41.5381   35.0308   37.9136 H   0  0  0  0  0  0  0  0  0  0  0  0
   40.1862   35.7379   37.6428 H   0  0  0  0  0  0  0  0  0  0  0  0
   40.2759   32.7164   39.1358 H   0  0  0  0  0  0  0  0  0  0  0  0
  1  6  2  0
  2  1  1  0
  3  2  2  0
  3  4  1  0
  4  5  2  0
  5  6  1  0
  5  7  1  0
  7  8  1  0
  8  9  2  0
 10  9  1  0
 11 10  1  0
 11 12  2  0
 13 11  1  0
 14 16  2  0
 14 13  1  0
 15 14  1  0
 16 17  1  0
 17  7  1  0
 17 10  2  0
 18  2  1  0
 19 20  1  0
 20 21  2  0
 21 18  1  0
 22 21  1  0
 23 19  1  0
 23 22  2  0
 24 23  1  0
 25 26  1  0
 25 24  1  0
 26 24  1  0
 27 26  1  0
 27 30  1  0
 28 27  1  0
 29 27  1  0
  1 31  1  0
  3 32  1  0
  8 33  1  0
 13 34  1  0
 15 35  1  0
 15 36  1  0
 19 37  1  0
 22 38  1  0
 24 39  1  1
 25 40  1  0
 25 41  1  0
 26 42  1  1
M  ISO  8  31  14  32  14  33  14  34   9  37   9  38  14  39  13  40  13
M  ISO  2  41  13  42  13
M  END
>  <minimizedAffinity>  (1) 
-7.05536222

>  <minimizedRMSD>  (1) 
0.316483796

$$$$
