
     RDKit          3D

 43 46  0  0  1  0  0  0  0  0999 V2000
   43.3730   34.0050   39.9030 N   0  0  0  0  0  0  0  0  0  0  0  0
   44.5500   33.9210   40.5140 N   0  0  0  0  0  0  0  0  0  0  0  0
   44.6260   34.9760   41.4090 C   0  0  0  0  0  0  0  0  0  0  0  0
   43.4510   35.6790   41.3000 C   0  0  0  0  0  0  0  0  0  0  0  0
   42.6590   35.0970   40.3720 C   0  0  0  0  0  0  0  0  0  0  0  0
   41.3140   35.4080   39.8320 C   0  0  1  0  0  0  0  0  0  0  0  0
   41.1830   35.7370   38.3720 C   0  0  0  0  0  0  0  0  0  0  0  0
   40.6760   34.4290   38.9530 C   0  0  2  0  0  0  0  0  0  0  0  0
   39.1780   34.2630   38.9090 C   0  0  0  0  0  0  0  0  0  0  0  0
   38.8990   32.9020   39.1160 F   0  0  0  0  0  0  0  0  0  0  0  0
   38.7100   34.5560   37.6410 F   0  0  0  0  0  0  0  0  0  0  0  0
   38.5650   35.0490   39.8290 F   0  0  0  0  0  0  0  0  0  0  0  0
   45.9760   35.3650   42.4950 S   0  0  0  0  0  0  0  0  0  0  0  0
   45.3910   34.3850   45.0360 C   0  0  0  0  0  0  0  0  0  0  0  0
   46.0750   34.1800   43.8320 C   0  0  0  0  0  0  0  0  0  0  0  0
   46.8320   33.0040   43.7320 C   0  0  0  0  0  0  0  0  0  0  0  0
   46.8780   32.1210   44.7710 N   0  0  0  0  0  0  0  0  0  0  0  0
   46.1850   32.4030   45.8920 C   0  0  0  0  0  0  0  0  0  0  0  0
   45.4550   33.5000   46.0410 N   0  0  0  0  0  0  0  0  0  0  0  0
   46.1960   31.5200   47.0080 N   0  0  0  0  0  0  0  0  0  0  0  0
   46.9300   31.7430   48.2410 C   0  0  0  0  0  0  0  0  0  0  0  0
   45.8950   32.1850   49.2530 C   0  0  0  0  0  0  0  0  0  0  0  0
   44.8920   31.0610   49.3840 C   0  0  0  0  0  0  0  0  0  0  0  0
   45.2350   29.8650   48.5230 C   0  0  0  0  0  0  0  0  0  0  0  0
   45.4760   30.2630   47.0830 C   0  0  0  0  0  0  0  0  0  0  0  0
   43.0379   33.3504   39.1818 H   0  0  0  0  0  0  0  0  0  0  0  0
   43.1939   36.5781   41.8793 H   0  0  0  0  0  0  0  0  0  0  0  0
   41.0187   35.9160   40.7619 H   0  0  0  0  0  0  0  0  0  0  0  0
   42.0713   35.7497   37.7233 H   0  0  0  0  0  0  0  0  0  0  0  0
   40.7513   36.5598   37.7833 H   0  0  0  0  0  0  0  0  0  0  0  0
   40.8453   33.3516   38.8095 H   0  0  0  0  0  0  0  0  0  0  0  0
   44.7858   35.2951   45.1606 H   0  0  0  0  0  0  0  0  0  0  0  0
   47.3926   32.7919   42.8096 H   0  0  0  0  0  0  0  0  0  0  0  0
   47.4184   30.8143   48.5711 H   0  0  0  0  0  0  0  0  0  0  0  0
   47.7233   32.4943   48.1137 H   0  0  0  0  0  0  0  0  0  0  0  0
   46.3749   32.3774   50.2239 H   0  0  0  0  0  0  0  0  0  0  0  0
   45.4021   33.1134   48.9286 H   0  0  0  0  0  0  0  0  0  0  0  0
   44.8600   30.7394   50.4354 H   0  0  0  0  0  0  0  0  0  0  0  0
   43.9186   31.4448   49.0446 H   0  0  0  0  0  0  0  0  0  0  0  0
   46.1449   29.3900   48.9187 H   0  0  0  0  0  0  0  0  0  0  0  0
   44.3839   29.1686   48.5486 H   0  0  0  0  0  0  0  0  0  0  0  0
   44.5078   30.3713   46.5722 H   0  0  0  0  0  0  0  0  0  0  0  0
   46.0802   29.4819   46.5984 H   0  0  0  0  0  0  0  0  0  0  0  0
  1  5  1  0
  1  2  1  0
  2  3  2  0
  3 13  1  0
  4  3  1  0
  5  4  2  0
  6  5  1  0
  7  8  1  0
  7  6  1  0
  8  6  1  0
  9  8  1  0
  9 10  1  0
  9 12  1  0
 11  9  1  0
 13 15  1  0
 14 19  2  0
 15 14  1  0
 16 15  2  0
 16 17  1  0
 17 18  2  0
 18 19  1  0
 18 20  1  0
 20 25  1  0
 20 21  1  0
 21 22  1  0
 22 23  1  0
 24 23  1  0
 25 24  1  0
  1 26  1  0
  4 27  1  0
  6 28  1  1
  7 29  1  0
  7 30  1  0
  8 31  1  6
 14 32  1  0
 16 33  1  0
 21 34  1  0
 21 35  1  0
 22 36  1  0
 22 37  1  0
 23 38  1  0
 23 39  1  0
 24 40  1  0
 24 41  1  0
 25 42  1  0
 25 43  1  0
M  ISO  8  26   9  27  14  28  13  29  13  30  13  31  13  32  14  33  14
M  ISO  8  34  13  35  13  36  13  37  13  38  13  39  13  40  13  41  13
M  ISO  2  42  13  43  13
M  END
>  <minimizedAffinity>  (1) 
-7.00922871

>  <minimizedRMSD>  (1) 
0.826021492

$$$$
