
     RDKit          3D

 39 43  0  0  1  0  0  0  0  0999 V2000
   44.8840   35.8190   42.8310 S   0  0  0  0  0  0  0  0  0  0  0  0
   45.0200   34.5710   45.3040 C   0  0  0  0  0  0  0  0  0  0  0  0
   45.5700   34.6820   44.0200 C   0  0  0  0  0  0  0  0  0  0  0  0
   46.6590   33.8650   43.7460 C   0  0  0  0  0  0  0  0  0  0  0  0
   47.1480   33.0080   44.6890 N   0  0  0  0  0  0  0  0  0  0  0  0
   46.5570   32.9660   45.8990 C   0  0  0  0  0  0  0  0  0  0  0  0
   45.5150   33.7230   46.2190 N   0  0  0  0  0  0  0  0  0  0  0  0
   46.9900   32.1000   46.9700 N   0  0  0  0  0  0  0  0  0  0  0  0
   46.9490   32.3130   48.2980 C   0  0  0  0  0  0  0  0  0  0  0  0
   47.4630   31.2240   48.9100 N   0  0  0  0  0  0  0  0  0  0  0  0
   47.8250   30.3320   47.9640 C   0  0  0  0  0  0  0  0  0  0  0  0
   48.3970   29.0600   47.9730 C   0  0  0  0  0  0  0  0  0  0  0  0
   48.6370   28.4170   46.7960 N   0  0  0  0  0  0  0  0  0  0  0  0
   48.3270   28.9990   45.6230 C   0  0  0  0  0  0  0  0  0  0  0  0
   47.7830   30.2090   45.5970 N   0  0  0  0  0  0  0  0  0  0  0  0
   47.5270   30.8820   46.7350 C   0  0  0  0  0  0  0  0  0  0  0  0
   42.2740   33.5780   40.9510 N   0  0  0  0  0  0  0  0  0  0  0  0
   43.3820   33.6990   41.6710 N   0  0  0  0  0  0  0  0  0  0  0  0
   43.5630   35.0540   41.9200 C   0  0  0  0  0  0  0  0  0  0  0  0
   42.5190   35.7210   41.3190 C   0  0  0  0  0  0  0  0  0  0  0  0
   41.7100   34.8220   40.7130 C   0  0  0  0  0  0  0  0  0  0  0  0
   40.4640   34.9480   39.9110 C   0  0  1  0  0  0  0  0  0  0  0  0
   40.5790   35.0580   38.4180 C   0  0  0  0  0  0  0  0  0  0  0  0
   40.0500   33.8080   39.0970 C   0  0  2  0  0  0  0  0  0  0  0  0
   38.5950   33.5170   38.8270 C   0  0  0  0  0  0  0  0  0  0  0  0
   38.4470   32.1350   38.7070 F   0  0  0  0  0  0  0  0  0  0  0  0
   38.2270   34.0680   37.6090 F   0  0  0  0  0  0  0  0  0  0  0  0
   37.8020   34.0050   39.8150 F   0  0  0  0  0  0  0  0  0  0  0  0
   44.1562   35.1980   45.5702 H   0  0  0  0  0  0  0  0  0  0  0  0
   47.1342   33.9092   42.7549 H   0  0  0  0  0  0  0  0  0  0  0  0
   46.5647   33.2148   48.7971 H   0  0  0  0  0  0  0  0  0  0  0  0
   48.6536   28.5773   48.9276 H   0  0  0  0  0  0  0  0  0  0  0  0
   48.5257   28.4685   44.6801 H   0  0  0  0  0  0  0  0  0  0  0  0
   41.8869   32.6844   40.6156 H   0  0  0  0  0  0  0  0  0  0  0  0
   42.3672   36.8104   41.3299 H   0  0  0  0  0  0  0  0  0  0  0  0
   39.9792   35.5564   40.6887 H   0  0  0  0  0  0  0  0  0  0  0  0
   41.5671   35.0522   37.9347 H   0  0  0  0  0  0  0  0  0  0  0  0
   40.2148   35.7524   37.6465 H   0  0  0  0  0  0  0  0  0  0  0  0
   40.3022   32.7386   39.1494 H   0  0  0  0  0  0  0  0  0  0  0  0
  1  3  1  0
  2  7  2  0
  3  2  1  0
  4  3  2  0
  4  5  1  0
  5  6  2  0
  6  7  1  0
  6  8  1  0
  8  9  1  0
  9 10  2  0
 11 12  2  0
 11 10  1  0
 13 12  1  0
 14 13  2  0
 15 14  1  0
 15 16  2  0
 16  8  1  0
 16 11  1  0
 17 18  1  0
 18 19  2  0
 19  1  1  0
 20 19  1  0
 21 17  1  0
 21 20  2  0
 22 21  1  0
 23 24  1  0
 23 22  1  0
 24 22  1  0
 25 24  1  0
 25 28  1  0
 26 25  1  0
 27 25  1  0
  2 29  1  0
  4 30  1  0
  9 31  1  0
 12 32  1  0
 14 33  1  0
 17 34  1  0
 20 35  1  0
 22 36  1  1
 23 37  1  0
 23 38  1  0
 24 39  1  1
M  ISO  8  29  14  30  14  31  14  32  14  33  14  34   9  35  14  36  13
M  ISO  3  37  13  38  13  39  13
M  END
>  <minimizedAffinity>  (1) 
-6.97196674

>  <minimizedRMSD>  (1) 
0.433487624

$$$$
