
     RDKit          3D

 42 45  0  0  1  0  0  0  0  0999 V2000
   43.1620   34.0090   40.1730 N   0  0  0  0  0  0  0  0  0  0  0  0
   44.3050   34.0140   40.8460 N   0  0  0  0  0  0  0  0  0  0  0  0
   44.3060   35.1540   41.6400 C   0  0  0  0  0  0  0  0  0  0  0  0
   43.1210   35.8180   41.4080 C   0  0  0  0  0  0  0  0  0  0  0  0
   42.4010   35.1220   40.5030 C   0  0  0  0  0  0  0  0  0  0  0  0
   41.0770   35.3480   39.8690 C   0  0  1  0  0  0  0  0  0  0  0  0
   41.0240   35.6580   38.4000 C   0  0  0  0  0  0  0  0  0  0  0  0
   40.5680   34.3230   38.9590 C   0  0  2  0  0  0  0  0  0  0  0  0
   39.0920   34.0530   38.8160 C   0  0  0  0  0  0  0  0  0  0  0  0
   38.8930   32.6720   38.8390 F   0  0  0  0  0  0  0  0  0  0  0  0
   38.6520   34.5020   37.5780 F   0  0  0  0  0  0  0  0  0  0  0  0
   38.3750   34.6610   39.7940 F   0  0  0  0  0  0  0  0  0  0  0  0
   45.5800   35.6950   42.7590 S   0  0  0  0  0  0  0  0  0  0  0  0
   45.2660   34.3180   45.1360 C   0  0  0  0  0  0  0  0  0  0  0  0
   45.9610   34.4280   43.9440 C   0  0  0  0  0  0  0  0  0  0  0  0
   46.9600   33.4890   43.7530 C   0  0  0  0  0  0  0  0  0  0  0  0
   47.2200   32.5320   44.6920 N   0  0  0  0  0  0  0  0  0  0  0  0
   46.4920   32.5000   45.8240 C   0  0  0  0  0  0  0  0  0  0  0  0
   45.5250   33.3800   46.0490 N   0  0  0  0  0  0  0  0  0  0  0  0
   46.7540   31.4660   46.8640 C   0  0  1  0  0  0  0  0  0  0  0  0
   47.1210   32.1950   48.1220 C   0  0  0  0  0  0  0  0  0  0  0  0
   45.8370   32.4040   48.8990 C   0  0  0  0  0  0  0  0  0  0  0  0
   45.5080   31.0020   49.4170 C   0  0  0  0  0  0  0  0  0  0  0  0
   45.0860   30.1370   48.2670 C   0  0  0  0  0  0  0  0  0  0  0  0
   45.6700   30.4740   46.9540 C   0  0  0  0  0  0  0  0  0  0  0  0
   42.8791   33.2819   39.5005 H   0  0  0  0  0  0  0  0  0  0  0  0
   42.8123   36.7611   41.8827 H   0  0  0  0  0  0  0  0  0  0  0  0
   40.6870   35.8446   40.7697 H   0  0  0  0  0  0  0  0  0  0  0  0
   41.9516   35.7269   37.8128 H   0  0  0  0  0  0  0  0  0  0  0  0
   40.5790   36.4459   37.7746 H   0  0  0  0  0  0  0  0  0  0  0  0
   40.8190   33.2589   38.8382 H   0  0  0  0  0  0  0  0  0  0  0  0
   44.4609   35.0390   45.3406 H   0  0  0  0  0  0  0  0  0  0  0  0
   47.5552   33.5141   42.8283 H   0  0  0  0  0  0  0  0  0  0  0  0
   47.6060   30.8197   46.6062 H   0  0  0  0  0  0  0  0  0  0  0  0
   47.8283   31.5957   48.7140 H   0  0  0  0  0  0  0  0  0  0  0  0
   47.6044   33.1563   47.8937 H   0  0  0  0  0  0  0  0  0  0  0  0
   45.9900   33.1061   49.7318 H   0  0  0  0  0  0  0  0  0  0  0  0
   45.0307   32.8385   48.2899 H   0  0  0  0  0  0  0  0  0  0  0  0
   46.3984   30.5685   49.8959 H   0  0  0  0  0  0  0  0  0  0  0  0
   44.6923   31.0621   50.1525 H   0  0  0  0  0  0  0  0  0  0  0  0
   44.3828   29.3008   48.3944 H   0  0  0  0  0  0  0  0  0  0  0  0
   45.2954   29.9841   46.0431 H   0  0  0  0  0  0  0  0  0  0  0  0
  1  5  1  0
  1  2  1  0
  2  3  2  0
  3 13  1  0
  4  3  1  0
  5  4  2  0
  6  5  1  0
  7  8  1  0
  7  6  1  0
  8  6  1  0
  9 10  1  0
  9  8  1  0
  9 12  1  0
 11  9  1  0
 13 15  1  0
 14 19  2  0
 15 14  1  0
 16 15  2  0
 16 17  1  0
 17 18  2  0
 18 19  1  0
 20 18  1  0
 20 25  1  0
 20 21  1  0
 21 22  1  0
 22 23  1  0
 24 23  1  0
 25 24  2  0
  1 26  1  0
  4 27  1  0
  6 28  1  1
  7 29  1  0
  7 30  1  0
  8 31  1  6
 14 32  1  0
 16 33  1  0
 20 34  1  6
 21 35  1  0
 21 36  1  0
 22 37  1  0
 22 38  1  0
 23 39  1  0
 23 40  1  0
 24 41  1  0
 25 42  1  0
M  ISO  8  26   9  27  14  28  13  29  13  30  13  31  13  32  14  33  14
M  ISO  8  34  13  35  13  36  13  37  13  38  13  39  13  40  13  41  13
M  ISO  1  42  13
M  END
>  <minimizedAffinity>  (1) 
-6.96736336

>  <minimizedRMSD>  (1) 
0.550085127

$$$$
