
     RDKit          3D

 40 43  0  0  1  0  0  0  0  0999 V2000
   43.0440   33.6620   40.5020 N   0  0  0  0  0  0  0  0  0  0  0  0
   44.1940   33.5520   41.1540 N   0  0  0  0  0  0  0  0  0  0  0  0
   44.4920   34.8090   41.6690 C   0  0  0  0  0  0  0  0  0  0  0  0
   43.4750   35.6580   41.2940 C   0  0  0  0  0  0  0  0  0  0  0  0
   42.5700   34.9640   40.5700 C   0  0  0  0  0  0  0  0  0  0  0  0
   41.2950   35.3380   39.9010 C   0  0  1  0  0  0  0  0  0  0  0  0
   41.3200   35.6120   38.4210 C   0  0  0  0  0  0  0  0  0  0  0  0
   40.6830   34.3630   39.0000 C   0  0  2  0  0  0  0  0  0  0  0  0
   39.1920   34.2890   38.8140 C   0  0  0  0  0  0  0  0  0  0  0  0
   38.8120   32.9410   38.9130 F   0  0  0  0  0  0  0  0  0  0  0  0
   38.8330   34.7080   37.5570 F   0  0  0  0  0  0  0  0  0  0  0  0
   38.5380   35.0270   39.7520 F   0  0  0  0  0  0  0  0  0  0  0  0
   45.9130   35.2700   42.6320 S   0  0  0  0  0  0  0  0  0  0  0  0
   45.2620   34.4280   45.1880 C   0  0  0  0  0  0  0  0  0  0  0  0
   46.0620   34.2430   44.0740 C   0  0  0  0  0  0  0  0  0  0  0  0
   46.9760   33.2090   44.1690 C   0  0  0  0  0  0  0  0  0  0  0  0
   47.0720   32.4370   45.2830 N   0  0  0  0  0  0  0  0  0  0  0  0
   46.2570   32.6810   46.3270 C   0  0  0  0  0  0  0  0  0  0  0  0
   45.3540   33.6740   46.2820 N   0  0  0  0  0  0  0  0  0  0  0  0
   46.2910   31.9210   47.5320 N   0  0  0  0  0  0  0  0  0  0  0  0
   46.6520   30.5260   47.7390 C   0  0  0  0  0  0  0  0  0  0  0  0
   45.3710   30.0220   48.4130 C   0  0  0  0  0  0  0  0  0  0  0  0
   44.9430   31.2360   49.2400 C   0  0  0  0  0  0  0  0  0  0  0  0
   45.9790   32.3140   48.8960 C   0  0  0  0  0  0  0  0  0  0  0  0
   42.5695   32.8891   40.0137 H   0  0  0  0  0  0  0  0  0  0  0  0
   43.4100   36.7274   41.5434 H   0  0  0  0  0  0  0  0  0  0  0  0
   40.9472   35.9008   40.7798 H   0  0  0  0  0  0  0  0  0  0  0  0
   42.2634   35.5455   37.8592 H   0  0  0  0  0  0  0  0  0  0  0  0
   40.9959   36.4323   37.7636 H   0  0  0  0  0  0  0  0  0  0  0  0
   40.7984   33.2723   38.9160 H   0  0  0  0  0  0  0  0  0  0  0  0
   44.5153   35.2355   45.1690 H   0  0  0  0  0  0  0  0  0  0  0  0
   47.6438   33.0061   43.3188 H   0  0  0  0  0  0  0  0  0  0  0  0
   46.8449   30.0079   46.7880 H   0  0  0  0  0  0  0  0  0  0  0  0
   47.5751   30.3650   48.3152 H   0  0  0  0  0  0  0  0  0  0  0  0
   44.6061   29.7568   47.6683 H   0  0  0  0  0  0  0  0  0  0  0  0
   45.5153   29.1093   49.0098 H   0  0  0  0  0  0  0  0  0  0  0  0
   43.9316   31.5632   48.9570 H   0  0  0  0  0  0  0  0  0  0  0  0
   44.9055   31.0181   50.3176 H   0  0  0  0  0  0  0  0  0  0  0  0
   46.8612   32.2590   49.5508 H   0  0  0  0  0  0  0  0  0  0  0  0
   45.6329   33.3511   49.0167 H   0  0  0  0  0  0  0  0  0  0  0  0
  1  5  1  0
  1  2  1  0
  2  3  2  0
  3 13  1  0
  4  3  1  0
  5  4  2  0
  6  5  1  0
  7  8  1  0
  7  6  1  0
  8  6  1  0
  9 10  1  0
  9  8  1  0
  9 12  1  0
 11  9  1  0
 13 15  1  0
 14 19  2  0
 15 16  2  0
 15 14  1  0
 16 17  1  0
 17 18  2  0
 18 20  1  0
 19 18  1  0
 20 21  1  0
 20 24  1  0
 21 22  1  0
 22 23  1  0
 24 23  1  0
  1 25  1  0
  4 26  1  0
  6 27  1  1
  7 28  1  0
  7 29  1  0
  8 30  1  6
 14 31  1  0
 16 32  1  0
 21 33  1  0
 21 34  1  0
 22 35  1  0
 22 36  1  0
 23 37  1  0
 23 38  1  0
 24 39  1  0
 24 40  1  0
M  ISO  8  25   9  26  14  27  13  28  13  29  13  30  13  31  14  32  14
M  ISO  8  33  13  34  13  35  13  36  13  37  13  38  13  39  13  40  13
M  END
>  <minimizedAffinity>  (1) 
-6.96045351

>  <minimizedRMSD>  (1) 
0.648075879

$$$$
