
     RDKit          3D

 42 46  0  0  1  0  0  0  0  0999 V2000
   45.1040   35.6740   42.8980 S   0  0  0  0  0  0  0  0  0  0  0  0
   45.0290   34.5370   45.4440 C   0  0  0  0  0  0  0  0  0  0  0  0
   45.6490   34.5610   44.1860 C   0  0  0  0  0  0  0  0  0  0  0  0
   46.7130   33.6670   43.9940 C   0  0  0  0  0  0  0  0  0  0  0  0
   47.1000   32.8290   44.9990 N   0  0  0  0  0  0  0  0  0  0  0  0
   46.4430   32.8780   46.1740 C   0  0  0  0  0  0  0  0  0  0  0  0
   45.4310   33.7050   46.4070 N   0  0  0  0  0  0  0  0  0  0  0  0
   46.8750   31.9710   47.2340 C   0  0  0  0  0  0  0  0  0  0  0  0
   46.6610   32.0370   48.5960 C   0  0  0  0  0  0  0  0  0  0  0  0
   47.2330   30.9940   49.2240 N   0  0  0  0  0  0  0  0  0  0  0  0
   47.8390   30.2140   48.2990 C   0  0  0  0  0  0  0  0  0  0  0  0
   48.5720   29.0260   48.3710 C   0  0  0  0  0  0  0  0  0  0  0  0
   49.0900   28.4260   47.2530 C   0  0  0  0  0  0  0  0  0  0  0  0
   48.8720   29.0250   46.0180 C   0  0  0  0  0  0  0  0  0  0  0  0
   48.1440   30.2000   45.9680 C   0  0  0  0  0  0  0  0  0  0  0  0
   47.6200   30.8080   47.0910 C   0  0  0  0  0  0  0  0  0  0  0  0
   42.3330   33.5740   41.0850 N   0  0  0  0  0  0  0  0  0  0  0  0
   43.4570   33.6460   41.7890 N   0  0  0  0  0  0  0  0  0  0  0  0
   43.7270   34.9850   42.0160 C   0  0  0  0  0  0  0  0  0  0  0  0
   42.7180   35.7010   41.4180 C   0  0  0  0  0  0  0  0  0  0  0  0
   41.8430   34.8470   40.8360 C   0  0  0  0  0  0  0  0  0  0  0  0
   40.5960   35.0470   40.0510 C   0  0  1  0  0  0  0  0  0  0  0  0
   40.7110   35.2450   38.5610 C   0  0  0  0  0  0  0  0  0  0  0  0
   40.1710   33.9630   39.1640 C   0  0  2  0  0  0  0  0  0  0  0  0
   38.7140   33.7050   38.8770 C   0  0  0  0  0  0  0  0  0  0  0  0
   38.5410   32.3150   38.7530 F   0  0  0  0  0  0  0  0  0  0  0  0
   38.3550   34.2470   37.6650 F   0  0  0  0  0  0  0  0  0  0  0  0
   37.9200   34.2050   39.8590 F   0  0  0  0  0  0  0  0  0  0  0  0
   44.1905   35.2210   45.6418 H   0  0  0  0  0  0  0  0  0  0  0  0
   47.2383   33.6414   43.0278 H   0  0  0  0  0  0  0  0  0  0  0  0
   46.0978   32.8359   49.1006 H   0  0  0  0  0  0  0  0  0  0  0  0
   47.2131   30.8185   50.2387 H   0  0  0  0  0  0  0  0  0  0  0  0
   48.7378   28.5593   49.3532 H   0  0  0  0  0  0  0  0  0  0  0  0
   49.6652   27.4916   47.3313 H   0  0  0  0  0  0  0  0  0  0  0  0
   49.2708   28.5732   45.0978 H   0  0  0  0  0  0  0  0  0  0  0  0
   47.9749   30.6715   44.9886 H   0  0  0  0  0  0  0  0  0  0  0  0
   41.8897   32.6994   40.7697 H   0  0  0  0  0  0  0  0  0  0  0  0
   42.6341   36.7978   41.4129 H   0  0  0  0  0  0  0  0  0  0  0  0
   40.1197   35.6142   40.8643 H   0  0  0  0  0  0  0  0  0  0  0  0
   41.6986   35.2585   38.0768 H   0  0  0  0  0  0  0  0  0  0  0  0
   40.3528   35.9876   37.8328 H   0  0  0  0  0  0  0  0  0  0  0  0
   40.4137   32.8902   39.1505 H   0  0  0  0  0  0  0  0  0  0  0  0
  1  3  1  0
  2  7  2  0
  3  2  1  0
  4  3  2  0
  4  5  1  0
  5  6  2  0
  6  7  1  0
  6  8  1  0
  8  9  2  0
  9 10  1  0
 11 12  2  0
 11 10  1  0
 13 12  1  0
 14 13  2  0
 15 14  1  0
 15 16  2  0
 16  8  1  0
 16 11  1  0
 17 18  1  0
 18 19  2  0
 19  1  1  0
 20 19  1  0
 21 17  1  0
 21 20  2  0
 22 21  1  0
 23 24  1  0
 23 22  1  0
 24 22  1  0
 25 24  1  0
 25 28  1  0
 26 25  1  0
 27 25  1  0
  2 29  1  0
  4 30  1  0
  9 31  1  0
 10 32  1  0
 12 33  1  0
 13 34  1  0
 14 35  1  0
 15 36  1  0
 17 37  1  0
 20 38  1  0
 22 39  1  1
 23 40  1  0
 23 41  1  0
 24 42  1  1
M  ISO  8  29  14  30  14  31  14  32   9  33  14  34  14  35  14  36  14
M  ISO  6  37   9  38  14  39  13  40  13  41  13  42  13
M  END
>  <minimizedAffinity>  (1) 
-6.90997028

>  <minimizedRMSD>  (1) 
0.160216436

$$$$
