
     RDKit          3D

 41 44  0  0  1  0  0  0  0  0999 V2000
   43.8450   36.1460   41.9320 S   0  0  0  0  0  0  0  0  0  0  0  0
   44.6830   35.4450   44.4760 C   0  0  0  0  0  0  0  0  0  0  0  0
   44.5280   35.0540   43.1560 C   0  0  0  0  0  0  0  0  0  0  0  0
   44.9430   33.7630   42.8800 C   0  0  0  0  0  0  0  0  0  0  0  0
   45.4640   32.9490   43.8410 N   0  0  0  0  0  0  0  0  0  0  0  0
   45.5740   33.4210   45.0980 C   0  0  0  0  0  0  0  0  0  0  0  0
   45.1910   34.6500   45.4180 N   0  0  0  0  0  0  0  0  0  0  0  0
   46.1300   32.4850   46.0220 N   0  0  0  0  0  0  0  0  0  0  0  0
   45.5770   32.4600   47.2660 C   0  0  0  0  0  0  0  0  0  0  0  0
   46.0780   31.5650   48.2170 C   0  0  0  0  0  0  0  0  0  0  0  0
   45.4490   31.5610   49.5770 C   0  0  0  0  0  0  0  0  0  0  0  0
   47.1270   30.7100   47.8980 C   0  0  0  0  0  0  0  0  0  0  0  0
   47.5750   29.9060   48.7550 O   0  0  0  0  0  0  0  0  0  0  0  0
   47.6120   30.8050   46.6430 N   0  0  0  0  0  0  0  0  0  0  0  0
   47.1460   31.6580   45.7130 C   0  0  0  0  0  0  0  0  0  0  0  0
   47.6440   31.6950   44.5600 O   0  0  0  0  0  0  0  0  0  0  0  0
   42.1420   33.8380   39.2640 N   0  0  0  0  0  0  0  0  0  0  0  0
   43.2200   34.2040   39.9390 N   0  0  0  0  0  0  0  0  0  0  0  0
   42.8330   35.2390   40.7820 C   0  0  0  0  0  0  0  0  0  0  0  0
   41.4900   35.4570   40.5680 C   0  0  0  0  0  0  0  0  0  0  0  0
   41.0400   34.5980   39.6280 C   0  0  0  0  0  0  0  0  0  0  0  0
   39.7250   34.3690   38.9890 C   0  0  1  0  0  0  0  0  0  0  0  0
   39.5530   34.7330   37.5400 C   0  0  0  0  0  0  0  0  0  0  0  0
   39.6080   33.2900   38.0090 C   0  0  2  0  0  0  0  0  0  0  0  0
   38.3230   32.5210   37.8200 C   0  0  0  0  0  0  0  0  0  0  0  0
   38.4930   31.6300   36.7670 F   0  0  0  0  0  0  0  0  0  0  0  0
   37.3010   33.3940   37.4580 F   0  0  0  0  0  0  0  0  0  0  0  0
   37.9780   31.8560   38.9600 F   0  0  0  0  0  0  0  0  0  0  0  0
   44.3718   36.4609   44.7607 H   0  0  0  0  0  0  0  0  0  0  0  0
   44.8494   33.3817   41.8525 H   0  0  0  0  0  0  0  0  0  0  0  0
   44.7466   33.1352   47.5199 H   0  0  0  0  0  0  0  0  0  0  0  0
   46.2364   31.5660   50.3451 H   0  0  0  0  0  0  0  0  0  0  0  0
   44.8187   32.4552   49.6921 H   0  0  0  0  0  0  0  0  0  0  0  0
   44.8302   30.6589   49.6921 H   0  0  0  0  0  0  0  0  0  0  0  0
   48.3901   30.1837   46.3794 H   0  0  0  0  0  0  0  0  0  0  0  0
   42.1236   33.0865   38.5599 H   0  0  0  0  0  0  0  0  0  0  0  0
   40.8790   36.2131   41.0827 H   0  0  0  0  0  0  0  0  0  0  0  0
   39.1907   34.6315   39.9140 H   0  0  0  0  0  0  0  0  0  0  0  0
   40.3902   35.1652   36.9723 H   0  0  0  0  0  0  0  0  0  0  0  0
   38.8513   35.3484   36.9579 H   0  0  0  0  0  0  0  0  0  0  0  0
   40.2214   32.3947   37.8297 H   0  0  0  0  0  0  0  0  0  0  0  0
  1  3  1  0
  2  7  2  0
  3  2  1  0
  4  3  2  0
  4  5  1  0
  5  6  2  0
  6  7  1  0
  6  8  1  0
  8  9  1  0
  9 10  2  0
 10 11  1  0
 12 10  1  0
 12 13  2  0
 14 12  1  0
 15  8  1  0
 15 14  1  0
 16 15  2  0
 17 21  1  0
 17 18  1  0
 18 19  2  0
 19  1  1  0
 20 19  1  0
 21 20  2  0
 22 21  1  0
 23 24  1  0
 23 22  1  0
 24 22  1  0
 25 24  1  0
 25 28  1  0
 26 25  1  0
 27 25  1  0
  2 29  1  0
  4 30  1  0
  9 31  1  0
 11 32  1  0
 11 33  1  0
 11 34  1  0
 14 35  1  0
 17 36  1  0
 20 37  1  0
 22 38  1  1
 23 39  1  0
 23 40  1  0
 24 41  1  6
M  ISO  8  29  14  30  14  31  14  32   8  33   8  34   8  35   9  36   9
M  ISO  5  37  14  38  13  39  13  40  13  41  13
M  END
>  <minimizedAffinity>  (1) 
-6.82356596

>  <minimizedRMSD>  (1) 
1.73021114

$$$$
