
     RDKit          3D

 41 44  0  0  1  0  0  0  0  0999 V2000
   42.2650   33.4800   40.7960 N   0  0  0  0  0  0  0  0  0  0  0  0
   43.4130   33.5330   41.4590 N   0  0  0  0  0  0  0  0  0  0  0  0
   43.7360   34.8760   41.6060 C   0  0  0  0  0  0  0  0  0  0  0  0
   42.7330   35.6010   41.0050 C   0  0  0  0  0  0  0  0  0  0  0  0
   41.8100   34.7550   40.4960 C   0  0  0  0  0  0  0  0  0  0  0  0
   40.5510   34.9460   39.7490 C   0  0  1  0  0  0  0  0  0  0  0  0
   40.6150   35.1290   38.2580 C   0  0  0  0  0  0  0  0  0  0  0  0
   40.0760   33.8600   38.8920 C   0  0  2  0  0  0  0  0  0  0  0  0
   38.6070   33.6290   38.6520 C   0  0  0  0  0  0  0  0  0  0  0  0
   38.4120   32.2450   38.5060 F   0  0  0  0  0  0  0  0  0  0  0  0
   38.2200   34.1940   37.4590 F   0  0  0  0  0  0  0  0  0  0  0  0
   37.8530   34.1050   39.6730 F   0  0  0  0  0  0  0  0  0  0  0  0
   45.1670   35.5480   42.4120 S   0  0  0  0  0  0  0  0  0  0  0  0
   44.8330   34.9010   45.1010 C   0  0  0  0  0  0  0  0  0  0  0  0
   45.5340   34.6520   43.9130 C   0  0  0  0  0  0  0  0  0  0  0  0
   46.5240   33.6710   43.9700 C   0  0  0  0  0  0  0  0  0  0  0  0
   46.7760   33.0020   45.1340 N   0  0  0  0  0  0  0  0  0  0  0  0
   46.0510   33.3080   46.2270 C   0  0  0  0  0  0  0  0  0  0  0  0
   45.0990   34.2320   46.2300 N   0  0  0  0  0  0  0  0  0  0  0  0
   46.2790   32.6360   47.4630 N   0  0  0  0  0  0  0  0  0  0  0  0
   45.2330   32.1280   48.3140 C   0  0  0  0  0  0  0  0  0  0  0  0
   45.5220   30.7640   48.8660 C   0  0  0  0  0  0  0  0  0  0  0  0
   46.8050   30.6490   49.3830 O   0  0  0  0  0  0  0  0  0  0  0  0
   47.6750   30.8950   48.3070 C   0  0  0  0  0  0  0  0  0  0  0  0
   47.5910   32.3800   48.0190 C   0  0  0  0  0  0  0  0  0  0  0  0
   41.7778   32.6097   40.5390 H   0  0  0  0  0  0  0  0  0  0  0  0
   42.6891   36.6986   40.9477 H   0  0  0  0  0  0  0  0  0  0  0  0
   40.1112   35.5242   40.5750 H   0  0  0  0  0  0  0  0  0  0  0  0
   41.5845   35.1221   37.7384 H   0  0  0  0  0  0  0  0  0  0  0  0
   40.2427   35.8713   37.5366 H   0  0  0  0  0  0  0  0  0  0  0  0
   40.2992   32.7829   38.8854 H   0  0  0  0  0  0  0  0  0  0  0  0
   44.0431   35.6666   45.1060 H   0  0  0  0  0  0  0  0  0  0  0  0
   47.1078   33.4337   43.0684 H   0  0  0  0  0  0  0  0  0  0  0  0
   45.1001   32.8235   49.1558 H   0  0  0  0  0  0  0  0  0  0  0  0
   44.3263   32.0425   47.6971 H   0  0  0  0  0  0  0  0  0  0  0  0
   44.8003   30.5503   49.6682 H   0  0  0  0  0  0  0  0  0  0  0  0
   45.4365   30.0479   48.0354 H   0  0  0  0  0  0  0  0  0  0  0  0
   48.7042   30.6180   48.5791 H   0  0  0  0  0  0  0  0  0  0  0  0
   47.3949   30.3014   47.4243 H   0  0  0  0  0  0  0  0  0  0  0  0
   48.3689   32.6682   47.2967 H   0  0  0  0  0  0  0  0  0  0  0  0
   47.7460   32.9648   48.9377 H   0  0  0  0  0  0  0  0  0  0  0  0
  1  2  1  0
  2  3  2  0
  3 13  1  0
  4  3  1  0
  5  1  1  0
  5  4  2  0
  6  5  1  0
  7  8  1  0
  7  6  1  0
  8  6  1  0
  9  8  1  0
  9 12  1  0
 10  9  1  0
 11  9  1  0
 13 15  1  0
 14 19  2  0
 15 16  2  0
 15 14  1  0
 16 17  1  0
 17 18  2  0
 18 19  1  0
 18 20  1  0
 20 25  1  0
 20 21  1  0
 21 22  1  0
 22 23  1  0
 24 23  1  0
 25 24  1  0
  1 26  1  0
  4 27  1  0
  6 28  1  1
  7 29  1  0
  7 30  1  0
  8 31  1  6
 14 32  1  0
 16 33  1  0
 21 34  1  0
 21 35  1  0
 22 36  1  0
 22 37  1  0
 24 38  1  0
 24 39  1  0
 25 40  1  0
 25 41  1  0
M  ISO  8  26   9  27  14  28  13  29  13  30  13  31  13  32  14  33  14
M  ISO  8  34  13  35  13  36  13  37  13  38  13  39  13  40  13  41  13
M  END
>  <minimizedAffinity>  (1) 
-6.81460857

>  <minimizedRMSD>  (1) 
0.611371636

$$$$
