
     RDKit          3D

 35 38  0  0  1  0  0  0  0  0999 V2000
   43.3070   33.8660   40.0420 N   0  0  0  0  0  0  0  0  0  0  0  0
   44.4920   33.7690   40.6310 N   0  0  0  0  0  0  0  0  0  0  0  0
   44.6520   34.9030   41.4210 C   0  0  0  0  0  0  0  0  0  0  0  0
   43.5160   35.6670   41.2710 C   0  0  0  0  0  0  0  0  0  0  0  0
   42.6750   35.0410   40.4210 C   0  0  0  0  0  0  0  0  0  0  0  0
   41.3300   35.3880   39.8890 C   0  0  1  0  0  0  0  0  0  0  0  0
   41.2060   35.7080   38.4220 C   0  0  0  0  0  0  0  0  0  0  0  0
   40.6770   34.4150   39.0120 C   0  0  2  0  0  0  0  0  0  0  0  0
   39.1770   34.2790   38.9560 C   0  0  0  0  0  0  0  0  0  0  0  0
   38.8550   32.9430   39.2400 F   0  0  0  0  0  0  0  0  0  0  0  0
   38.7070   34.5540   37.6950 F   0  0  0  0  0  0  0  0  0  0  0  0
   38.5750   35.1060   39.8560 F   0  0  0  0  0  0  0  0  0  0  0  0
   46.0470   35.3170   42.4410 S   0  0  0  0  0  0  0  0  0  0  0  0
   45.1660   34.6550   44.9780 C   0  0  0  0  0  0  0  0  0  0  0  0
   46.0410   34.3680   43.9440 C   0  0  0  0  0  0  0  0  0  0  0  0
   46.9010   33.3050   44.1610 C   0  0  0  0  0  0  0  0  0  0  0  0
   46.8620   32.6010   45.3350 N   0  0  0  0  0  0  0  0  0  0  0  0
   45.9800   32.9440   46.2940 C   0  0  0  0  0  0  0  0  0  0  0  0
   45.1380   33.9630   46.1170 N   0  0  0  0  0  0  0  0  0  0  0  0
   45.9150   32.2320   47.5250 N   0  0  0  0  0  0  0  0  0  0  0  0
   44.9650   31.7830   48.3650 C   0  0  0  0  0  0  0  0  0  0  0  0
   45.6350   31.1580   49.3980 C   0  0  0  0  0  0  0  0  0  0  0  0
   46.9620   31.2220   49.2010 N   0  0  0  0  0  0  0  0  0  0  0  0
   47.1320   31.8860   48.0430 C   0  0  0  0  0  0  0  0  0  0  0  0
   42.9126   33.1680   39.3953 H   0  0  0  0  0  0  0  0  0  0  0  0
   43.3250   36.6315   41.7642 H   0  0  0  0  0  0  0  0  0  0  0  0
   41.0439   35.9099   40.8141 H   0  0  0  0  0  0  0  0  0  0  0  0
   42.0952   35.7005   37.7745 H   0  0  0  0  0  0  0  0  0  0  0  0
   40.7889   36.5331   37.8260 H   0  0  0  0  0  0  0  0  0  0  0  0
   40.8288   33.3334   38.8809 H   0  0  0  0  0  0  0  0  0  0  0  0
   44.4625   35.4915   44.8540 H   0  0  0  0  0  0  0  0  0  0  0  0
   47.6239   33.0226   43.3815 H   0  0  0  0  0  0  0  0  0  0  0  0
   43.8762   31.8916   48.2520 H   0  0  0  0  0  0  0  0  0  0  0  0
   45.1506   30.6760   50.2600 H   0  0  0  0  0  0  0  0  0  0  0  0
   48.1041   32.1159   47.5824 H   0  0  0  0  0  0  0  0  0  0  0  0
  1  5  1  0
  1  2  1  0
  2  3  2  0
  3 13  1  0
  4  3  1  0
  5  4  2  0
  6  5  1  0
  7  8  1  0
  7  6  1  0
  8  6  1  0
  9  8  1  0
  9 10  1  0
  9 12  1  0
 11  9  1  0
 13 15  1  0
 14 19  2  0
 15 16  2  0
 15 14  1  0
 16 17  1  0
 17 18  2  0
 18 20  1  0
 19 18  1  0
 20 24  1  0
 20 21  1  0
 21 22  2  0
 23 22  1  0
 24 23  2  0
  1 25  1  0
  4 26  1  0
  6 27  1  1
  7 28  1  0
  7 29  1  0
  8 30  1  6
 14 31  1  0
 16 32  1  0
 21 33  1  0
 22 34  1  0
 24 35  1  0
M  ISO  8  25   9  26  14  27  13  28  13  29  13  30  13  31  14  32  14
M  ISO  3  33  14  34  14  35  14
M  END
>  <minimizedAffinity>  (1) 
-6.80339146

>  <minimizedRMSD>  (1) 
0.909876883

$$$$
