
     RDKit          3D

 38 41  0  0  1  0  0  0  0  0999 V2000
   42.2210   33.5870   40.8690 N   0  0  0  0  0  0  0  0  0  0  0  0
   43.3000   33.7080   41.6270 N   0  0  0  0  0  0  0  0  0  0  0  0
   43.4190   35.0560   41.9470 C   0  0  0  0  0  0  0  0  0  0  0  0
   42.3680   35.7140   41.3450 C   0  0  0  0  0  0  0  0  0  0  0  0
   41.6150   34.8190   40.6740 C   0  0  0  0  0  0  0  0  0  0  0  0
   40.3910   34.9360   39.8460 C   0  0  1  0  0  0  0  0  0  0  0  0
   40.5340   35.0340   38.3530 C   0  0  0  0  0  0  0  0  0  0  0  0
   39.9960   33.7880   39.0340 C   0  0  2  0  0  0  0  0  0  0  0  0
   38.5500   33.4960   38.7180 C   0  0  0  0  0  0  0  0  0  0  0  0
   38.4120   32.1090   38.5840 F   0  0  0  0  0  0  0  0  0  0  0  0
   38.2020   34.0460   37.5110 F   0  0  0  0  0  0  0  0  0  0  0  0
   37.7300   33.9520   39.7060 F   0  0  0  0  0  0  0  0  0  0  0  0
   44.6760   35.8350   42.9380 S   0  0  0  0  0  0  0  0  0  0  0  0
   45.1130   34.4480   45.2800 C   0  0  0  0  0  0  0  0  0  0  0  0
   45.4970   34.6420   43.9630 C   0  0  0  0  0  0  0  0  0  0  0  0
   46.5460   33.8460   43.5350 C   0  0  0  0  0  0  0  0  0  0  0  0
   47.1420   32.9450   44.3640 N   0  0  0  0  0  0  0  0  0  0  0  0
   46.7040   32.8240   45.6320 C   0  0  0  0  0  0  0  0  0  0  0  0
   45.7020   33.5610   46.0940 N   0  0  0  0  0  0  0  0  0  0  0  0
   47.2740   31.9060   46.5610 N   0  0  0  0  0  0  0  0  0  0  0  0
   47.4770   32.5100   47.7680 C   0  0  0  0  0  0  0  0  0  0  0  0
   48.0270   31.8050   48.8360 C   0  0  0  0  0  0  0  0  0  0  0  0
   48.3440   30.4690   48.5740 C   0  0  0  0  0  0  0  0  0  0  0  0
   48.8460   29.7540   49.4800 O   0  0  0  0  0  0  0  0  0  0  0  0
   48.1290   29.8990   47.3630 N   0  0  0  0  0  0  0  0  0  0  0  0
   47.5900   30.6320   46.3560 C   0  0  0  0  0  0  0  0  0  0  0  0
   47.3500   30.2140   45.2100 O   0  0  0  0  0  0  0  0  0  0  0  0
   41.8782   32.6982   40.4773 H   0  0  0  0  0  0  0  0  0  0  0  0
   42.1746   36.7953   41.4027 H   0  0  0  0  0  0  0  0  0  0  0  0
   39.8906   35.5513   40.6082 H   0  0  0  0  0  0  0  0  0  0  0  0
   41.5310   35.0271   37.8883 H   0  0  0  0  0  0  0  0  0  0  0  0
   40.1824   35.7204   37.5686 H   0  0  0  0  0  0  0  0  0  0  0  0
   40.2482   32.7201   39.1111 H   0  0  0  0  0  0  0  0  0  0  0  0
   44.2837   35.0518   45.6772 H   0  0  0  0  0  0  0  0  0  0  0  0
   46.9066   33.9438   42.5004 H   0  0  0  0  0  0  0  0  0  0  0  0
   47.2027   33.5672   47.8990 H   0  0  0  0  0  0  0  0  0  0  0  0
   48.2001   32.2680   49.8187 H   0  0  0  0  0  0  0  0  0  0  0  0
   48.3744   28.9108   47.2073 H   0  0  0  0  0  0  0  0  0  0  0  0
  1  2  1  0
  2  3  2  0
  3 13  1  0
  4  3  1  0
  5  1  1  0
  5  4  2  0
  6  5  1  0
  7  8  1  0
  7  6  1  0
  8  6  1  0
  9  8  1  0
  9 12  1  0
 10  9  1  0
 11  9  1  0
 13 15  1  0
 14 19  2  0
 15 14  1  0
 16 15  2  0
 16 17  1  0
 17 18  2  0
 18 19  1  0
 18 20  1  0
 20 21  1  0
 21 22  2  0
 23 22  1  0
 23 24  2  0
 25 23  1  0
 26 20  1  0
 26 25  1  0
 27 26  2  0
  1 28  1  0
  4 29  1  0
  6 30  1  1
  7 31  1  0
  7 32  1  0
  8 33  1  1
 14 34  1  0
 16 35  1  0
 21 36  1  0
 22 37  1  0
 25 38  1  0
M  ISO  8  28   9  29  14  30  13  31  13  32  13  33  13  34  14  35  14
M  ISO  3  36  14  37  14  38   9
M  END
>  <minimizedAffinity>  (1) 
-6.73091555

>  <minimizedRMSD>  (1) 
0.771443009

$$$$
