
     RDKit          3D

 36 39  0  0  1  0  0  0  0  0999 V2000
   42.4080   33.6760   40.2010 N   0  0  0  0  0  0  0  0  0  0  0  0
   43.5140   33.8580   40.9100 N   0  0  0  0  0  0  0  0  0  0  0  0
   43.4770   35.1610   41.3890 C   0  0  0  0  0  0  0  0  0  0  0  0
   42.3110   35.7340   40.9340 C   0  0  0  0  0  0  0  0  0  0  0  0
   41.6300   34.8260   40.1920 C   0  0  0  0  0  0  0  0  0  0  0  0
   40.3480   34.8670   39.4550 C   0  0  1  0  0  0  0  0  0  0  0  0
   40.3830   34.9670   37.9550 C   0  0  0  0  0  0  0  0  0  0  0  0
   39.9650   33.6950   38.6680 C   0  0  2  0  0  0  0  0  0  0  0  0
   38.5240   33.3170   38.4690 C   0  0  0  0  0  0  0  0  0  0  0  0
   38.4500   31.9330   38.2850 F   0  0  0  0  0  0  0  0  0  0  0  0
   38.0330   33.9030   37.3200 F   0  0  0  0  0  0  0  0  0  0  0  0
   37.7590   33.6910   39.5340 F   0  0  0  0  0  0  0  0  0  0  0  0
   44.6980   35.9700   42.3990 S   0  0  0  0  0  0  0  0  0  0  0  0
   44.6710   35.1960   45.0550 C   0  0  0  0  0  0  0  0  0  0  0  0
   45.1540   34.9470   43.7820 C   0  0  0  0  0  0  0  0  0  0  0  0
   46.0120   33.8540   43.6620 C   0  0  0  0  0  0  0  0  0  0  0  0
   46.3390   33.0910   44.7450 N   0  0  0  0  0  0  0  0  0  0  0  0
   45.8170   33.4130   45.9450 C   0  0  0  0  0  0  0  0  0  0  0  0
   44.9980   34.4430   46.1100 N   0  0  0  0  0  0  0  0  0  0  0  0
   46.1420   32.6190   47.1400 C   0  0  0  0  0  0  0  0  0  0  0  0
   45.1600   32.2720   48.0560 C   0  0  0  0  0  0  0  0  0  0  0  0
   45.5580   31.5190   49.1560 C   0  0  0  0  0  0  0  0  0  0  0  0
   46.8310   31.1060   49.3920 N   0  0  0  0  0  0  0  0  0  0  0  0
   47.7320   31.4720   48.4760 C   0  0  0  0  0  0  0  0  0  0  0  0
   47.3930   32.1880   47.4110 N   0  0  0  0  0  0  0  0  0  0  0  0
   42.1595   32.7990   39.7213 H   0  0  0  0  0  0  0  0  0  0  0  0
   41.9839   36.7639   41.1395 H   0  0  0  0  0  0  0  0  0  0  0  0
   39.8657   35.4525   40.2516 H   0  0  0  0  0  0  0  0  0  0  0  0
   41.3449   35.0157   37.4236 H   0  0  0  0  0  0  0  0  0  0  0  0
   39.9398   35.6297   37.1971 H   0  0  0  0  0  0  0  0  0  0  0  0
   40.2842   32.6435   38.7168 H   0  0  0  0  0  0  0  0  0  0  0  0
   43.9909   36.0475   45.2045 H   0  0  0  0  0  0  0  0  0  0  0  0
   46.4324   33.6026   42.6771 H   0  0  0  0  0  0  0  0  0  0  0  0
   44.1126   32.5787   47.9187 H   0  0  0  0  0  0  0  0  0  0  0  0
   44.7864   31.2375   49.8877 H   0  0  0  0  0  0  0  0  0  0  0  0
   48.7821   31.1722   48.6078 H   0  0  0  0  0  0  0  0  0  0  0  0
  1  2  1  0
  2  3  2  0
  3 13  1  0
  4  3  1  0
  5  1  1  0
  5  4  2  0
  6  5  1  0
  7  8  1  0
  7  6  1  0
  8  6  1  0
  9  8  1  0
  9 12  1  0
 10  9  1  0
 11  9  1  0
 13 15  1  0
 14 19  2  0
 15 14  1  0
 16 15  2  0
 16 17  1  0
 17 18  2  0
 18 19  1  0
 18 20  1  0
 20 25  1  0
 20 21  2  0
 21 22  1  0
 22 23  2  0
 24 23  1  0
 25 24  2  0
  1 26  1  0
  4 27  1  0
  6 28  1  1
  7 29  1  0
  7 30  1  0
  8 31  1  1
 14 32  1  0
 16 33  1  0
 21 34  1  0
 22 35  1  0
 24 36  1  0
M  ISO  8  26   9  27  14  28  13  29  13  30  13  31  13  32  14  33  14
M  ISO  3  34  14  35  14  36  14
M  END
>  <minimizedAffinity>  (1) 
-6.67957783

>  <minimizedRMSD>  (1) 
0.799413323

$$$$
