
     RDKit          3D

 41 44  0  0  1  0  0  0  0  0999 V2000
   49.3930   33.3480   42.5480 C   0  0  2  0  0  0  0  0  0  0  0  0
   47.9440   33.4420   42.5200 C   0  0  2  0  0  0  0  0  0  0  0  0
   47.7120   34.9420   42.1550 C   0  0  0  0  0  0  0  0  0  0  0  0
   48.9920   35.5420   41.6830 C   0  0  0  0  0  0  0  0  0  0  0  0
   49.9770   34.7780   42.4840 C   0  0  0  0  0  0  0  0  0  0  0  0
   50.0460   32.6390   41.4280 C   0  0  0  0  0  0  0  0  0  0  0  0
   49.2520   32.2940   40.3280 C   0  0  0  0  0  0  0  0  0  0  0  0
   49.8070   31.6220   39.2390 C   0  0  0  0  0  0  0  0  0  0  0  0
   51.1550   31.3440   39.3470 N   0  0  0  0  0  0  0  0  0  0  0  0
   51.8950   31.6840   40.4090 C   0  0  0  0  0  0  0  0  0  0  0  0
   51.3360   32.3280   41.4390 N   0  0  0  0  0  0  0  0  0  0  0  0
   47.2500   33.1450   43.8050 C   0  0  0  0  0  0  0  0  0  0  0  0
   46.4940   34.0040   44.3090 O   0  0  0  0  0  0  0  0  0  0  0  0
   47.1800   32.0330   44.7480 C   0  0  0  0  0  0  0  0  0  0  0  0
   47.7210   30.7770   44.4130 C   0  0  0  0  0  0  0  0  0  0  0  0
   47.5780   29.5930   45.0960 C   0  0  0  0  0  0  0  0  0  0  0  0
   46.8230   29.6230   46.2360 C   0  0  0  0  0  0  0  0  0  0  0  0
   46.2500   30.7760   46.6680 C   0  0  0  0  0  0  0  0  0  0  0  0
   45.5430   30.7690   47.8390 C   0  0  0  0  0  0  0  0  0  0  0  0
   44.9910   31.9260   48.3380 C   0  0  0  0  0  0  0  0  0  0  0  0
   45.1860   33.1000   47.6010 C   0  0  0  0  0  0  0  0  0  0  0  0
   45.9030   33.0140   46.4450 C   0  0  0  0  0  0  0  0  0  0  0  0
   46.4660   31.8740   45.9110 C   0  0  0  0  0  0  0  0  0  0  0  0
   49.5927   32.7761   43.4662 H   0  0  0  0  0  0  0  0  0  0  0  0
   47.5328   32.6947   41.8254 H   0  0  0  0  0  0  0  0  0  0  0  0
   46.9577   35.0129   41.3575 H   0  0  0  0  0  0  0  0  0  0  0  0
   47.3581   35.4852   43.0437 H   0  0  0  0  0  0  0  0  0  0  0  0
   49.1387   35.3832   40.6045 H   0  0  0  0  0  0  0  0  0  0  0  0
   49.0543   36.6329   41.8095 H   0  0  0  0  0  0  0  0  0  0  0  0
   50.9608   34.7752   41.9919 H   0  0  0  0  0  0  0  0  0  0  0  0
   50.1333   35.2125   43.4824 H   0  0  0  0  0  0  0  0  0  0  0  0
   48.1833   32.5546   40.3224 H   0  0  0  0  0  0  0  0  0  0  0  0
   49.2139   31.3345   38.3583 H   0  0  0  0  0  0  0  0  0  0  0  0
   52.9657   31.4331   40.4347 H   0  0  0  0  0  0  0  0  0  0  0  0
   48.3294   30.7389   43.4973 H   0  0  0  0  0  0  0  0  0  0  0  0
   48.0490   28.6641   44.7421 H   0  0  0  0  0  0  0  0  0  0  0  0
   46.6774   28.6977   46.8127 H   0  0  0  0  0  0  0  0  0  0  0  0
   45.4141   29.8252   48.3892 H   0  0  0  0  0  0  0  0  0  0  0  0
   44.4196   31.9285   49.2779 H   0  0  0  0  0  0  0  0  0  0  0  0
   44.7740   34.0607   47.9436 H   0  0  0  0  0  0  0  0  0  0  0  0
   46.0470   33.9476   45.8815 H   0  0  0  0  0  0  0  0  0  0  0  0
  2  1  1  0
  2 12  1  0
  3  2  1  0
  4  3  1  0
  4  5  1  0
  5  1  1  0
  6 11  1  0
  6  1  1  0
  7  6  2  0
  8  9  2  0
  8  7  1  0
  9 10  1  0
 10 11  2  0
 12 13  2  0
 12 14  1  0
 14 23  1  0
 15 14  2  0
 15 16  1  0
 16 17  2  0
 17 18  1  0
 18 19  2  0
 19 20  1  0
 21 20  2  0
 22 21  1  0
 23 22  2  0
 23 18  1  0
  1 24  1  1
  2 25  1  6
  3 26  1  0
  3 27  1  0
  4 28  1  0
  4 29  1  0
  5 30  1  0
  5 31  1  0
  7 32  1  0
  8 33  1  0
 10 34  1  0
 15 35  1  0
 16 36  1  0
 17 37  1  0
 19 38  1  0
 20 39  1  0
 21 40  1  0
 22 41  1  0
M  ISO  8  24  13  25  13  26  13  27  13  28  13  29  13  30  13  31  13
M  ISO  8  32  14  33  14  34  14  35  14  36  14  37  14  38  14  39  14
M  ISO  2  40  14  41  14
M  END
>  <minimizedAffinity>  (1) 
-6.11598825

>  <minimizedRMSD>  (1) 
0.957933724

$$$$
