
     RDKit          3D

 31 33  0  0  1  0  0  0  0  0999 V2000
   42.0630   33.5730   40.9000 N   0  0  0  0  0  0  0  0  0  0  0  0
   43.1730   33.7200   41.6160 N   0  0  0  0  0  0  0  0  0  0  0  0
   43.4380   35.0790   41.6920 C   0  0  0  0  0  0  0  0  0  0  0  0
   42.4430   35.7230   40.9940 C   0  0  0  0  0  0  0  0  0  0  0  0
   41.5800   34.8080   40.4960 C   0  0  0  0  0  0  0  0  0  0  0  0
   40.3490   34.9050   39.6700 C   0  0  1  0  0  0  0  0  0  0  0  0
   40.4920   34.9880   38.1760 C   0  0  0  0  0  0  0  0  0  0  0  0
   39.9650   33.7440   38.8680 C   0  0  2  0  0  0  0  0  0  0  0  0
   38.5210   33.4260   38.5730 C   0  0  0  0  0  0  0  0  0  0  0  0
   38.4210   32.0420   38.3740 F   0  0  0  0  0  0  0  0  0  0  0  0
   38.1390   34.0280   37.3850 F   0  0  0  0  0  0  0  0  0  0  0  0
   37.7090   33.8440   39.5790 F   0  0  0  0  0  0  0  0  0  0  0  0
   44.7980   35.8590   42.5200 S   0  0  0  0  0  0  0  0  0  0  0  0
   44.7960   34.9250   45.1420 C   0  0  0  0  0  0  0  0  0  0  0  0
   45.3830   34.8490   43.8730 C   0  0  0  0  0  0  0  0  0  0  0  0
   46.4380   33.9400   43.7260 C   0  0  0  0  0  0  0  0  0  0  0  0
   46.8520   33.1840   44.7820 N   0  0  0  0  0  0  0  0  0  0  0  0
   46.2280   33.3250   45.9670 C   0  0  0  0  0  0  0  0  0  0  0  0
   45.2230   34.1690   46.1620 N   0  0  0  0  0  0  0  0  0  0  0  0
   46.7480   32.4610   47.0490 C   0  0  0  0  0  0  0  0  0  0  0  0
   46.3780   31.2760   47.1200 O   0  0  0  0  0  0  0  0  0  0  0  0
   47.6530   33.0470   47.9550 O   0  0  0  0  0  0  0  0  0  0  0  0
   41.6235   32.6687   40.6767 H   0  0  0  0  0  0  0  0  0  0  0  0
   42.3617   36.8120   40.8614 H   0  0  0  0  0  0  0  0  0  0  0  0
   39.8418   35.5217   40.4266 H   0  0  0  0  0  0  0  0  0  0  0  0
   41.4894   34.9856   37.7122 H   0  0  0  0  0  0  0  0  0  0  0  0
   40.1345   35.6631   37.3845 H   0  0  0  0  0  0  0  0  0  0  0  0
   40.2292   32.6791   38.9463 H   0  0  0  0  0  0  0  0  0  0  0  0
   43.9624   35.6238   45.3055 H   0  0  0  0  0  0  0  0  0  0  0  0
   46.9364   33.8352   42.7510 H   0  0  0  0  0  0  0  0  0  0  0  0
   48.0290   32.5095   48.6965 H   0  0  0  0  0  0  0  0  0  0  0  0
  1  2  1  0
  2  3  2  0
  3 13  1  0
  4  3  1  0
  5  1  1  0
  5  4  2  0
  6  5  1  0
  7  8  1  0
  7  6  1  0
  8  6  1  0
  9  8  1  0
  9 12  1  0
 10  9  1  0
 11  9  1  0
 13 15  1  0
 14 19  2  0
 15 14  1  0
 16 15  2  0
 16 17  1  0
 17 18  2  0
 18 19  1  0
 18 20  1  0
 20 21  2  0
 20 22  1  0
  1 23  1  0
  4 24  1  0
  6 25  1  1
  7 26  1  0
  7 27  1  0
  8 28  1  1
 14 29  1  0
 16 30  1  0
 22 31  1  0
M  ISO  8  23   9  24  14  25  13  26  13  27  13  28  13  29  14  30  14
M  ISO  1  31   3
M  END
>  <minimizedAffinity>  (1) 
-6.15206289

>  <minimizedRMSD>  (1) 
0.529097497

$$$$
