
     RDKit          3D

 30 32  0  0  1  0  0  0  0  0999 V2000
   42.2730   33.5640   41.0060 N   0  0  0  0  0  0  0  0  0  0  0  0
   43.4040   33.6360   41.6990 N   0  0  0  0  0  0  0  0  0  0  0  0
   43.6990   34.9840   41.8620 C   0  0  0  0  0  0  0  0  0  0  0  0
   42.7020   35.7010   41.2400 C   0  0  0  0  0  0  0  0  0  0  0  0
   41.8110   34.8370   40.7050 C   0  0  0  0  0  0  0  0  0  0  0  0
   40.5660   35.0170   39.9240 C   0  0  1  0  0  0  0  0  0  0  0  0
   40.6680   35.2530   38.4430 C   0  0  0  0  0  0  0  0  0  0  0  0
   40.1510   33.9470   39.0190 C   0  0  2  0  0  0  0  0  0  0  0  0
   38.6990   33.6760   38.7240 C   0  0  0  0  0  0  0  0  0  0  0  0
   38.5620   32.2970   38.4980 F   0  0  0  0  0  0  0  0  0  0  0  0
   38.3210   34.3080   37.5590 F   0  0  0  0  0  0  0  0  0  0  0  0
   37.9010   34.0700   39.7480 F   0  0  0  0  0  0  0  0  0  0  0  0
   45.0950   35.6890   42.7100 S   0  0  0  0  0  0  0  0  0  0  0  0
   45.0530   34.5900   45.2540 C   0  0  0  0  0  0  0  0  0  0  0  0
   45.6600   34.6060   44.0050 C   0  0  0  0  0  0  0  0  0  0  0  0
   46.7330   33.7230   43.8360 C   0  0  0  0  0  0  0  0  0  0  0  0
   47.1360   32.9080   44.8510 N   0  0  0  0  0  0  0  0  0  0  0  0
   46.4830   32.9640   46.0280 C   0  0  0  0  0  0  0  0  0  0  0  0
   45.4600   33.7820   46.2430 N   0  0  0  0  0  0  0  0  0  0  0  0
   46.9720   32.0570   47.0780 C   0  0  0  0  0  0  0  0  0  0  0  0
   47.6380   32.5400   48.0320 O   0  0  0  0  0  0  0  0  0  0  0  0
   41.8058   32.6881   40.7314 H   0  0  0  0  0  0  0  0  0  0  0  0
   42.6405   36.7980   41.1871 H   0  0  0  0  0  0  0  0  0  0  0  0
   40.0843   35.5541   40.7544 H   0  0  0  0  0  0  0  0  0  0  0  0
   41.6520   35.2935   37.9531 H   0  0  0  0  0  0  0  0  0  0  0  0
   40.2938   36.0076   37.7355 H   0  0  0  0  0  0  0  0  0  0  0  0
   40.4080   32.8779   38.9857 H   0  0  0  0  0  0  0  0  0  0  0  0
   44.2055   35.2665   45.4388 H   0  0  0  0  0  0  0  0  0  0  0  0
   47.2583   33.6865   42.8702 H   0  0  0  0  0  0  0  0  0  0  0  0
   46.7603   30.9786   47.0310 H   0  0  0  0  0  0  0  0  0  0  0  0
  1  2  1  0
  2  3  2  0
  3 13  1  0
  4  3  1  0
  5  1  1  0
  5  4  2  0
  6  5  1  0
  7  8  1  0
  7  6  1  0
  8  6  1  0
  9  8  1  0
  9 12  1  0
 10  9  1  0
 11  9  1  0
 13 15  1  0
 14 19  2  0
 15 14  1  0
 16 15  2  0
 16 17  1  0
 17 18  2  0
 18 19  1  0
 18 20  1  0
 20 21  2  0
  1 22  1  0
  4 23  1  0
  6 24  1  1
  7 25  1  0
  7 26  1  0
  8 27  1  1
 14 28  1  0
 16 29  1  0
 20 30  1  0
M  ISO  8  22   9  23  14  24  13  25  13  26  13  27  13  28  14  29  14
M  ISO  1  30   6
M  END
>  <minimizedAffinity>  (1) 
-5.69704819

>  <minimizedRMSD>  (1) 
0.232082114

$$$$
