
     RDKit          3D

 31 33  0  0  1  0  0  0  0  0999 V2000
   42.3690   33.5940   41.0000 N   0  0  0  0  0  0  0  0  0  0  0  0
   43.4980   33.6120   41.6870 N   0  0  0  0  0  0  0  0  0  0  0  0
   43.8420   34.9480   41.8590 C   0  0  0  0  0  0  0  0  0  0  0  0
   42.8660   35.6970   41.2440 C   0  0  0  0  0  0  0  0  0  0  0  0
   41.9410   34.8780   40.7030 C   0  0  0  0  0  0  0  0  0  0  0  0
   40.6980   35.1020   39.9210 C   0  0  1  0  0  0  0  0  0  0  0  0
   40.8110   35.2490   38.4290 C   0  0  0  0  0  0  0  0  0  0  0  0
   40.2150   34.0140   39.0740 C   0  0  2  0  0  0  0  0  0  0  0  0
   38.7470   33.8070   38.8030 C   0  0  0  0  0  0  0  0  0  0  0  0
   38.5310   32.4280   38.6610 F   0  0  0  0  0  0  0  0  0  0  0  0
   38.4080   34.3790   37.6000 F   0  0  0  0  0  0  0  0  0  0  0  0
   37.9870   34.3290   39.8010 F   0  0  0  0  0  0  0  0  0  0  0  0
   45.2660   35.6110   42.6940 S   0  0  0  0  0  0  0  0  0  0  0  0
   45.1040   34.5520   45.2450 C   0  0  0  0  0  0  0  0  0  0  0  0
   45.7580   34.5450   44.0250 C   0  0  0  0  0  0  0  0  0  0  0  0
   46.8090   33.6490   43.9330 C   0  0  0  0  0  0  0  0  0  0  0  0
   47.1590   32.8430   44.9790 N   0  0  0  0  0  0  0  0  0  0  0  0
   46.4620   32.9230   46.1290 C   0  0  0  0  0  0  0  0  0  0  0  0
   45.4420   33.7680   46.2680 N   0  0  0  0  0  0  0  0  0  0  0  0
   46.8450   32.0450   47.2680 C   0  0  0  0  0  0  0  0  0  0  0  0
   41.8715   32.7362   40.7214 H   0  0  0  0  0  0  0  0  0  0  0  0
   42.8433   36.7959   41.2001 H   0  0  0  0  0  0  0  0  0  0  0  0
   40.2533   35.7122   40.7209 H   0  0  0  0  0  0  0  0  0  0  0  0
   41.7944   35.2003   37.9386 H   0  0  0  0  0  0  0  0  0  0  0  0
   40.4834   35.9857   37.6807 H   0  0  0  0  0  0  0  0  0  0  0  0
   40.4055   32.9308   39.0936 H   0  0  0  0  0  0  0  0  0  0  0  0
   44.2584   35.2431   45.3773 H   0  0  0  0  0  0  0  0  0  0  0  0
   47.3771   33.5843   42.9933 H   0  0  0  0  0  0  0  0  0  0  0  0
   46.6220   32.5562   48.2161 H   0  0  0  0  0  0  0  0  0  0  0  0
   46.2748   31.1058   47.2149 H   0  0  0  0  0  0  0  0  0  0  0  0
   47.9213   31.8240   47.2149 H   0  0  0  0  0  0  0  0  0  0  0  0
  1  2  1  0
  2  3  2  0
  3 13  1  0
  4  3  1  0
  5  1  1  0
  5  4  2  0
  6  5  1  0
  7  8  1  0
  7  6  1  0
  8  6  1  0
  9  8  1  0
  9 12  1  0
 10  9  1  0
 11  9  1  0
 13 15  1  0
 14 19  2  0
 15 14  1  0
 16 15  2  0
 16 17  1  0
 17 18  2  0
 18 19  1  0
 18 20  1  0
  1 21  1  0
  4 22  1  0
  6 23  1  1
  7 24  1  0
  7 25  1  0
  8 26  1  1
 14 27  1  0
 16 28  1  0
 20 29  1  0
 20 30  1  0
 20 31  1  0
M  ISO  8  21   9  22  14  23  13  24  13  25  13  26  13  27  14  28  14
M  ISO  3  29   8  30   8  31   8
M  END
>  <minimizedAffinity>  (1) 
-5.67093277

>  <minimizedRMSD>  (1) 
0.0408677906

$$$$
