
     RDKit          3D

 30 32  0  0  1  0  0  0  0  0999 V2000
   42.3780   33.5820   40.9940 N   0  0  0  0  0  0  0  0  0  0  0  0
   43.5100   33.6120   41.6860 N   0  0  0  0  0  0  0  0  0  0  0  0
   43.8440   34.9510   41.8560 C   0  0  0  0  0  0  0  0  0  0  0  0
   42.8680   35.7000   41.2410 C   0  0  0  0  0  0  0  0  0  0  0  0
   41.9490   34.8680   40.7000 C   0  0  0  0  0  0  0  0  0  0  0  0
   40.7070   35.0900   39.9210 C   0  0  1  0  0  0  0  0  0  0  0  0
   40.8100   35.2480   38.4280 C   0  0  0  0  0  0  0  0  0  0  0  0
   40.2190   34.0070   39.0700 C   0  0  2  0  0  0  0  0  0  0  0  0
   38.7510   33.8120   38.8050 C   0  0  0  0  0  0  0  0  0  0  0  0
   38.5180   32.4310   38.6960 F   0  0  0  0  0  0  0  0  0  0  0  0
   38.4000   34.3630   37.5920 F   0  0  0  0  0  0  0  0  0  0  0  0
   37.9890   34.3420   39.7940 F   0  0  0  0  0  0  0  0  0  0  0  0
   45.2630   35.6100   42.7030 S   0  0  0  0  0  0  0  0  0  0  0  0
   45.0940   34.5550   45.2580 C   0  0  0  0  0  0  0  0  0  0  0  0
   45.7620   34.5360   44.0340 C   0  0  0  0  0  0  0  0  0  0  0  0
   46.8170   33.6400   43.9310 C   0  0  0  0  0  0  0  0  0  0  0  0
   47.1640   32.8350   44.9750 N   0  0  0  0  0  0  0  0  0  0  0  0
   46.4620   32.9200   46.1220 C   0  0  0  0  0  0  0  0  0  0  0  0
   45.4440   33.7590   46.2730 N   0  0  0  0  0  0  0  0  0  0  0  0
   46.8900   32.0440   47.1610 N   0  0  0  0  0  0  0  0  0  0  0  0
   41.8855   32.7219   40.7137 H   0  0  0  0  0  0  0  0  0  0  0  0
   42.8394   36.7987   41.1963 H   0  0  0  0  0  0  0  0  0  0  0  0
   40.2670   35.6944   40.7279 H   0  0  0  0  0  0  0  0  0  0  0  0
   41.7901   35.2035   37.9306 H   0  0  0  0  0  0  0  0  0  0  0  0
   40.4768   35.9894   37.6869 H   0  0  0  0  0  0  0  0  0  0  0  0
   40.4101   32.9238   39.0828 H   0  0  0  0  0  0  0  0  0  0  0  0
   44.2507   35.2484   45.3926 H   0  0  0  0  0  0  0  0  0  0  0  0
   47.3833   33.5784   42.9900 H   0  0  0  0  0  0  0  0  0  0  0  0
   46.4052   32.0474   48.0698 H   0  0  0  0  0  0  0  0  0  0  0  0
   47.6842   31.4074   47.0033 H   0  0  0  0  0  0  0  0  0  0  0  0
  1  2  1  0
  2  3  2  0
  3 13  1  0
  4  3  1  0
  5  1  1  0
  5  4  2  0
  6  5  1  0
  7  8  1  0
  7  6  1  0
  8  6  1  0
  9  8  1  0
  9 12  1  0
 10  9  1  0
 11  9  1  0
 13 15  1  0
 14 19  2  0
 15 14  1  0
 16 15  2  0
 16 17  1  0
 17 18  2  0
 18 19  1  0
 18 20  1  0
  1 21  1  0
  4 22  1  0
  6 23  1  1
  7 24  1  0
  7 25  1  0
  8 26  1  1
 14 27  1  0
 16 28  1  0
 20 29  1  0
 20 30  1  0
M  ISO  8  21   9  22  14  23  13  24  13  25  13  26  13  27  14  28  14
M  END
>  <minimizedAffinity>  (1) 
-5.59485626

>  <minimizedRMSD>  (1) 
0.0446471274

$$$$
