
     RDKit          3D

 35 38  0  0  1  0  0  0  0  0999 V2000
   43.3490   33.9400   39.9520 N   0  0  0  0  0  0  0  0  0  0  0  0
   44.5380   33.8450   40.5320 N   0  0  0  0  0  0  0  0  0  0  0  0
   44.6670   34.9330   41.3770 C   0  0  0  0  0  0  0  0  0  0  0  0
   43.5140   35.6610   41.2680 C   0  0  0  0  0  0  0  0  0  0  0  0
   42.6770   35.0700   40.3910 C   0  0  0  0  0  0  0  0  0  0  0  0
   41.3280   35.3950   39.8640 C   0  0  1  0  0  0  0  0  0  0  0  0
   41.1880   35.7270   38.4020 C   0  0  0  0  0  0  0  0  0  0  0  0
   40.6740   34.4240   38.9880 C   0  0  2  0  0  0  0  0  0  0  0  0
   39.1810   34.2760   38.9560 C   0  0  0  0  0  0  0  0  0  0  0  0
   38.8640   32.9450   39.2370 F   0  0  0  0  0  0  0  0  0  0  0  0
   38.6970   34.5370   37.6970 F   0  0  0  0  0  0  0  0  0  0  0  0
   38.5790   35.1060   39.8580 F   0  0  0  0  0  0  0  0  0  0  0  0
   46.0580   35.3370   42.4070 S   0  0  0  0  0  0  0  0  0  0  0  0
   45.1260   34.7370   44.9400 C   0  0  0  0  0  0  0  0  0  0  0  0
   46.0110   34.4040   43.9270 C   0  0  0  0  0  0  0  0  0  0  0  0
   46.8490   33.3090   44.1680 C   0  0  0  0  0  0  0  0  0  0  0  0
   46.7740   32.6250   45.3460 N   0  0  0  0  0  0  0  0  0  0  0  0
   45.8810   33.0210   46.2740 C   0  0  0  0  0  0  0  0  0  0  0  0
   45.0660   34.0520   46.0940 N   0  0  0  0  0  0  0  0  0  0  0  0
   45.7790   32.3060   47.5450 C   0  0  0  0  0  0  0  0  0  0  0  0
   46.8350   31.7450   48.2580 C   0  0  0  0  0  0  0  0  0  0  0  0
   46.4150   31.1540   49.3930 N   0  0  0  0  0  0  0  0  0  0  0  0
   45.0630   31.3450   49.4040 C   0  0  0  0  0  0  0  0  0  0  0  0
   44.7000   32.0290   48.3030 N   0  0  0  0  0  0  0  0  0  0  0  0
   42.9758   33.2659   39.2685 H   0  0  0  0  0  0  0  0  0  0  0  0
   43.3009   36.5913   41.8150 H   0  0  0  0  0  0  0  0  0  0  0  0
   41.0449   35.9039   40.7972 H   0  0  0  0  0  0  0  0  0  0  0  0
   42.0709   35.7315   37.7459 H   0  0  0  0  0  0  0  0  0  0  0  0
   40.7593   36.5539   37.8168 H   0  0  0  0  0  0  0  0  0  0  0  0
   40.8324   33.3452   38.8426 H   0  0  0  0  0  0  0  0  0  0  0  0
   44.4492   35.5918   44.7941 H   0  0  0  0  0  0  0  0  0  0  0  0
   47.5738   32.9975   43.4014 H   0  0  0  0  0  0  0  0  0  0  0  0
   47.8855   31.7802   47.9335 H   0  0  0  0  0  0  0  0  0  0  0  0
   44.3776   30.9946   50.1898 H   0  0  0  0  0  0  0  0  0  0  0  0
   43.7340   32.3021   48.0725 H   0  0  0  0  0  0  0  0  0  0  0  0
  1  5  1  0
  1  2  1  0
  2  3  2  0
  3 13  1  0
  4  3  1  0
  5  4  2  0
  6  5  1  0
  7  8  1  0
  7  6  1  0
  8  6  1  0
  9  8  1  0
  9 10  1  0
  9 12  1  0
 11  9  1  0
 13 15  1  0
 14 19  2  0
 15 16  2  0
 15 14  1  0
 16 17  1  0
 17 18  2  0
 18 20  1  0
 19 18  1  0
 20 21  2  0
 20 24  1  0
 21 22  1  0
 22 23  2  0
 24 23  1  0
  1 25  1  0
  4 26  1  0
  6 27  1  1
  7 28  1  0
  7 29  1  0
  8 30  1  6
 14 31  1  0
 16 32  1  0
 21 33  1  0
 23 34  1  0
 24 35  1  0
M  ISO  8  25   9  26  14  27  13  28  13  29  13  30  13  31  14  32  14
M  ISO  3  33  14  34  14  35   9
M  END
>  <minimizedAffinity>  (1) 
-6.77060795

>  <minimizedRMSD>  (1) 
1.0062449

$$$$
