
     RDKit          3D

 42 46  0  0  1  0  0  0  0  0999 V2000
   45.1680   35.5940   42.7090 S   0  0  0  0  0  0  0  0  0  0  0  0
   45.0400   34.6050   45.2730 C   0  0  0  0  0  0  0  0  0  0  0  0
   45.6790   34.5260   44.0410 C   0  0  0  0  0  0  0  0  0  0  0  0
   46.7110   33.5880   43.9180 C   0  0  0  0  0  0  0  0  0  0  0  0
   47.0540   32.8020   44.9730 N   0  0  0  0  0  0  0  0  0  0  0  0
   46.3850   32.9410   46.1360 C   0  0  0  0  0  0  0  0  0  0  0  0
   45.3930   33.8190   46.3060 N   0  0  0  0  0  0  0  0  0  0  0  0
   46.7310   32.1070   47.2910 C   0  0  0  0  0  0  0  0  0  0  0  0
   47.7710   32.3650   48.1940 C   0  0  0  0  0  0  0  0  0  0  0  0
   47.8300   31.4130   49.1460 N   0  0  0  0  0  0  0  0  0  0  0  0
   46.8260   30.5520   48.8470 C   0  0  0  0  0  0  0  0  0  0  0  0
   46.1680   30.9670   47.7360 N   0  0  0  0  0  0  0  0  0  0  0  0
   45.0460   30.3070   47.1210 C   0  0  0  0  0  0  0  0  0  0  0  0
   44.9900   28.8150   47.3830 C   0  0  0  0  0  0  0  0  0  0  0  0
   45.3840   29.2730   46.0400 C   0  0  0  0  0  0  0  0  0  0  0  0
   42.2830   33.5560   41.0400 N   0  0  0  0  0  0  0  0  0  0  0  0
   43.4150   33.6080   41.7340 N   0  0  0  0  0  0  0  0  0  0  0  0
   43.7460   34.9450   41.8720 C   0  0  0  0  0  0  0  0  0  0  0  0
   42.7760   35.6670   41.2390 C   0  0  0  0  0  0  0  0  0  0  0  0
   41.8590   34.8430   40.7150 C   0  0  0  0  0  0  0  0  0  0  0  0
   40.6110   35.0490   39.9230 C   0  0  1  0  0  0  0  0  0  0  0  0
   40.7560   35.2090   38.4160 C   0  0  0  0  0  0  0  0  0  0  0  0
   40.1550   33.9830   39.0540 C   0  0  2  0  0  0  0  0  0  0  0  0
   38.7050   33.7570   38.7660 C   0  0  0  0  0  0  0  0  0  0  0  0
   38.5170   32.4000   38.4930 F   0  0  0  0  0  0  0  0  0  0  0  0
   38.3250   34.4330   37.6250 F   0  0  0  0  0  0  0  0  0  0  0  0
   37.9310   34.1630   39.8100 F   0  0  0  0  0  0  0  0  0  0  0  0
   44.2235   35.3299   45.4068 H   0  0  0  0  0  0  0  0  0  0  0  0
   47.2471   33.4864   42.9629 H   0  0  0  0  0  0  0  0  0  0  0  0
   48.4488   33.2293   48.1338 H   0  0  0  0  0  0  0  0  0  0  0  0
   46.5806   29.6473   49.4226 H   0  0  0  0  0  0  0  0  0  0  0  0
   44.3592   31.1630   47.1958 H   0  0  0  0  0  0  0  0  0  0  0  0
   45.7379   28.3486   48.0411 H   0  0  0  0  0  0  0  0  0  0  0  0
   44.2175   28.1313   47.7648 H   0  0  0  0  0  0  0  0  0  0  0  0
   44.7028   29.1267   45.1888 H   0  0  0  0  0  0  0  0  0  0  0  0
   46.2475   29.0935   45.3826 H   0  0  0  0  0  0  0  0  0  0  0  0
   41.7902   32.6897   40.7799 H   0  0  0  0  0  0  0  0  0  0  0  0
   42.7509   36.7645   41.1693 H   0  0  0  0  0  0  0  0  0  0  0  0
   40.1420   35.6335   40.7282 H   0  0  0  0  0  0  0  0  0  0  0  0
   41.7480   35.1622   37.9430 H   0  0  0  0  0  0  0  0  0  0  0  0
   40.4432   35.9462   37.6619 H   0  0  0  0  0  0  0  0  0  0  0  0
   40.3532   32.9011   39.0665 H   0  0  0  0  0  0  0  0  0  0  0  0
  1  3  1  0
  2  7  2  0
  3  2  1  0
  4  3  2  0
  4  5  1  0
  5  6  2  0
  6  7  1  0
  6  8  1  0
  8 12  1  0
  8  9  2  0
  9 10  1  0
 11 10  2  0
 12 11  1  0
 13 14  1  0
 13 12  1  0
 15 13  1  0
 15 14  1  0
 16 17  1  0
 17 18  2  0
 18  1  1  0
 19 18  1  0
 20 16  1  0
 20 19  2  0
 21 20  1  0
 22 23  1  0
 22 21  1  0
 23 21  1  0
 24 23  1  0
 24 27  1  0
 25 24  1  0
 26 24  1  0
  2 28  1  0
  4 29  1  0
  9 30  1  0
 11 31  1  0
 13 32  1  0
 14 33  1  0
 14 34  1  0
 15 35  1  0
 15 36  1  0
 16 37  1  0
 19 38  1  0
 21 39  1  1
 22 40  1  0
 22 41  1  0
 23 42  1  1
M  ISO  8  28  14  29  14  30  14  31  14  32  13  33  13  34  13  35  13
M  ISO  7  36  13  37   9  38  14  39  13  40  13  41  13  42  13
M  END
>  <minimizedAffinity>  (1) 
-6.48975945

>  <minimizedRMSD>  (1) 
1.5475657

$$$$
