
     RDKit          3D

 38 41  0  0  1  0  0  0  0  0999 V2000
   42.3020   33.6090   40.9680 N   0  0  0  0  0  0  0  0  0  0  0  0
   43.4190   33.6720   41.6820 N   0  0  0  0  0  0  0  0  0  0  0  0
   43.7090   35.0000   41.8710 C   0  0  0  0  0  0  0  0  0  0  0  0
   42.7250   35.7240   41.2450 C   0  0  0  0  0  0  0  0  0  0  0  0
   41.8430   34.8910   40.6770 C   0  0  0  0  0  0  0  0  0  0  0  0
   40.6010   35.0820   39.8710 C   0  0  1  0  0  0  0  0  0  0  0  0
   40.7550   35.1990   38.3620 C   0  0  0  0  0  0  0  0  0  0  0  0
   40.1410   33.9960   39.0310 C   0  0  2  0  0  0  0  0  0  0  0  0
   38.6920   33.7720   38.7350 C   0  0  0  0  0  0  0  0  0  0  0  0
   38.5040   32.4190   38.4510 F   0  0  0  0  0  0  0  0  0  0  0  0
   38.3100   34.4550   37.6070 F   0  0  0  0  0  0  0  0  0  0  0  0
   37.9170   34.1640   39.7920 F   0  0  0  0  0  0  0  0  0  0  0  0
   45.0930   35.6870   42.7490 S   0  0  0  0  0  0  0  0  0  0  0  0
   45.0260   34.5870   45.2630 C   0  0  0  0  0  0  0  0  0  0  0  0
   45.6600   34.5800   44.0200 C   0  0  0  0  0  0  0  0  0  0  0  0
   46.7280   33.6760   43.8540 C   0  0  0  0  0  0  0  0  0  0  0  0
   47.1040   32.8580   44.8820 N   0  0  0  0  0  0  0  0  0  0  0  0
   46.4240   32.9390   46.0560 C   0  0  0  0  0  0  0  0  0  0  0  0
   45.4220   33.7650   46.2590 N   0  0  0  0  0  0  0  0  0  0  0  0
   46.8170   32.0660   47.1690 C   0  0  0  0  0  0  0  0  0  0  0  0
   47.7250   32.3900   48.1790 C   0  0  0  0  0  0  0  0  0  0  0  0
   47.8680   31.3690   49.0530 N   0  0  0  0  0  0  0  0  0  0  0  0
   47.0350   30.3890   48.5830 C   0  0  0  0  0  0  0  0  0  0  0  0
   46.4250   30.8230   47.4700 N   0  0  0  0  0  0  0  0  0  0  0  0
   45.4800   30.0470   46.7120 C   0  0  0  0  0  0  0  0  0  0  0  0
   41.8408   32.7370   40.6717 H   0  0  0  0  0  0  0  0  0  0  0  0
   42.6692   36.8222   41.2144 H   0  0  0  0  0  0  0  0  0  0  0  0
   40.1322   35.6921   40.6571 H   0  0  0  0  0  0  0  0  0  0  0  0
   41.7490   35.1313   37.8958 H   0  0  0  0  0  0  0  0  0  0  0  0
   40.4520   35.9173   37.5859 H   0  0  0  0  0  0  0  0  0  0  0  0
   40.3296   32.9133   39.0787 H   0  0  0  0  0  0  0  0  0  0  0  0
   44.1862   35.2763   45.4354 H   0  0  0  0  0  0  0  0  0  0  0  0
   47.2612   33.6286   42.8930 H   0  0  0  0  0  0  0  0  0  0  0  0
   48.2549   33.3510   48.2537 H   0  0  0  0  0  0  0  0  0  0  0  0
   46.8891   29.4016   49.0453 H   0  0  0  0  0  0  0  0  0  0  0  0
   44.8169   29.5025   47.4003 H   0  0  0  0  0  0  0  0  0  0  0  0
   44.8803   30.7167   46.0781 H   0  0  0  0  0  0  0  0  0  0  0  0
   46.0203   29.3285   46.0781 H   0  0  0  0  0  0  0  0  0  0  0  0
  1  2  1  0
  2  3  2  0
  3 13  1  0
  4  3  1  0
  5  1  1  0
  5  4  2  0
  6  5  1  0
  7  8  1  0
  7  6  1  0
  8  6  1  0
  9  8  1  0
  9 12  1  0
 10  9  1  0
 11  9  1  0
 13 15  1  0
 14 19  2  0
 15 14  1  0
 16 15  2  0
 16 17  1  0
 17 18  2  0
 18 19  1  0
 18 20  1  0
 20 24  1  0
 20 21  2  0
 21 22  1  0
 23 22  2  0
 24 23  1  0
 25 24  1  0
  1 26  1  0
  4 27  1  0
  6 28  1  1
  7 29  1  0
  7 30  1  0
  8 31  1  1
 14 32  1  0
 16 33  1  0
 21 34  1  0
 23 35  1  0
 25 36  1  0
 25 37  1  0
 25 38  1  0
M  ISO  8  26   9  27  14  28  13  29  13  30  13  31  13  32  14  33  14
M  ISO  5  34  14  35  14  36   8  37   8  38   8
M  END
>  <minimizedAffinity>  (1) 
-6.42264032

>  <minimizedRMSD>  (1) 
1.29863739

$$$$
