
     RDKit          3D

 40 43  0  0  1  0  0  0  0  0999 V2000
   44.5350   35.6730   43.8420 C   0  0  0  0  0  0  0  0  0  0  0  0
   44.3350   35.9110   42.4580 C   0  0  0  0  0  0  0  0  0  0  0  0
   44.9240   35.0010   41.5660 C   0  0  0  0  0  0  0  0  0  0  0  0
   45.6350   33.9650   42.0360 N   0  0  0  0  0  0  0  0  0  0  0  0
   45.7900   33.7910   43.3880 C   0  0  0  0  0  0  0  0  0  0  0  0
   45.2460   34.6350   44.2670 N   0  0  0  0  0  0  0  0  0  0  0  0
   46.5510   32.6800   43.9060 N   0  0  0  0  0  0  0  0  0  0  0  0
   47.3360   32.0150   43.0610 C   0  0  0  0  0  0  0  0  0  0  0  0
   48.1000   30.9400   43.4450 C   0  0  0  0  0  0  0  0  0  0  0  0
   48.0510   30.5360   44.7620 C   0  0  0  0  0  0  0  0  0  0  0  0
   48.7210   29.5610   45.1870 O   0  0  0  0  0  0  0  0  0  0  0  0
   47.2540   31.2290   45.5740 N   0  0  0  0  0  0  0  0  0  0  0  0
   46.5190   32.2700   45.1780 C   0  0  0  0  0  0  0  0  0  0  0  0
   45.7940   32.8840   45.9580 O   0  0  0  0  0  0  0  0  0  0  0  0
   47.2240   30.7950   46.9510 C   0  0  1  0  0  0  0  0  0  0  0  0
   47.5750   31.7840   47.9810 C   0  0  0  0  0  0  0  0  0  0  0  0
   47.0620   31.0530   49.2490 C   0  0  0  0  0  0  0  0  0  0  0  0
   45.6430   30.8480   48.8100 C   0  0  0  0  0  0  0  0  0  0  0  0
   45.8850   30.2800   47.3810 C   0  0  2  0  0  0  0  0  0  0  0  0
   45.7410   28.8590   47.5670 C   0  0  0  0  0  0  0  0  0  0  0  0
   44.7720   28.0110   47.8600 C   0  0  0  0  0  0  0  0  0  0  0  0
   44.9480   26.6560   47.9540 C   0  0  0  0  0  0  0  0  0  0  0  0
   46.2690   26.1860   47.7130 C   0  0  0  0  0  0  0  0  0  0  0  0
   47.2010   27.7680   47.3570 S   0  0  0  0  0  0  0  0  0  0  0  0
   44.0927   36.3613   44.5772 H   0  0  0  0  0  0  0  0  0  0  0  0
   43.7460   36.7684   42.1005 H   0  0  0  0  0  0  0  0  0  0  0  0
   44.8025   35.1375   40.4813 H   0  0  0  0  0  0  0  0  0  0  0  0
   47.3744   32.3402   42.0109 H   0  0  0  0  0  0  0  0  0  0  0  0
   48.7363   30.4136   42.7183 H   0  0  0  0  0  0  0  0  0  0  0  0
   48.0045   30.0210   46.9091 H   0  0  0  0  0  0  0  0  0  0  0  0
   48.6599   31.9607   48.0234 H   0  0  0  0  0  0  0  0  0  0  0  0
   47.1502   32.7862   47.8224 H   0  0  0  0  0  0  0  0  0  0  0  0
   47.5863   30.1017   49.4226 H   0  0  0  0  0  0  0  0  0  0  0  0
   47.2011   31.5837   50.2024 H   0  0  0  0  0  0  0  0  0  0  0  0
   45.1164   30.1271   49.4526 H   0  0  0  0  0  0  0  0  0  0  0  0
   45.0095   31.7463   48.8517 H   0  0  0  0  0  0  0  0  0  0  0  0
   45.2035   30.5765   46.5700 H   0  0  0  0  0  0  0  0  0  0  0  0
   43.7652   28.4164   48.0389 H   0  0  0  0  0  0  0  0  0  0  0  0
   44.1205   25.9744   48.2002 H   0  0  0  0  0  0  0  0  0  0  0  0
   46.6468   25.1531   47.7314 H   0  0  0  0  0  0  0  0  0  0  0  0
  1  6  2  0
  2  1  1  0
  3  4  1  0
  3  2  2  0
  4  5  2  0
  5  7  1  0
  5  6  1  0
  7 13  1  0
  8  9  2  0
  8  7  1  0
  9 10  1  0
 10 11  2  0
 10 12  1  0
 12 15  1  0
 13 12  1  0
 13 14  2  0
 15 19  1  0
 15 16  1  0
 16 17  1  0
 18 17  1  0
 19 20  1  0
 19 18  1  0
 20 21  2  0
 21 22  1  0
 23 22  2  0
 24 20  1  0
 24 23  1  0
  1 25  1  0
  2 26  1  0
  3 27  1  0
  8 28  1  0
  9 29  1  0
 15 30  1  6
 16 31  1  0
 16 32  1  0
 17 33  1  0
 17 34  1  0
 18 35  1  0
 18 36  1  0
 19 37  1  6
 21 38  1  0
 22 39  1  0
 23 40  1  0
M  ISO  8  25  14  26  14  27  14  28  14  29  14  30  13  31  13  32  13
M  ISO  8  33  13  34  13  35  13  36  13  37  13  38  14  39  14  40  14
M  END
>  <minimizedAffinity>  (1) 
-5.33682156

>  <minimizedRMSD>  (1) 
3.13029408

$$$$
