
     RDKit          3D

 40 43  0  0  1  0  0  0  0  0999 V2000
   44.6250   35.7670   43.8270 C   0  0  0  0  0  0  0  0  0  0  0  0
   44.3550   35.9200   42.4430 C   0  0  0  0  0  0  0  0  0  0  0  0
   44.8220   34.9060   41.5930 C   0  0  0  0  0  0  0  0  0  0  0  0
   45.4920   33.8500   42.0880 N   0  0  0  0  0  0  0  0  0  0  0  0
   45.7180   33.7670   43.4480 C   0  0  0  0  0  0  0  0  0  0  0  0
   45.2930   34.7080   44.3000 N   0  0  0  0  0  0  0  0  0  0  0  0
   46.4200   32.6510   44.0050 N   0  0  0  0  0  0  0  0  0  0  0  0
   47.1730   31.9110   43.1680 C   0  0  0  0  0  0  0  0  0  0  0  0
   47.8850   30.8030   43.6100 C   0  0  0  0  0  0  0  0  0  0  0  0
   47.8160   30.4620   44.9270 C   0  0  0  0  0  0  0  0  0  0  0  0
   48.4330   29.4740   45.3840 O   0  0  0  0  0  0  0  0  0  0  0  0
   47.0560   31.2260   45.7250 N   0  0  0  0  0  0  0  0  0  0  0  0
   46.3840   32.2760   45.2880 C   0  0  0  0  0  0  0  0  0  0  0  0
   45.6970   32.9530   46.0380 O   0  0  0  0  0  0  0  0  0  0  0  0
   47.0120   30.8580   47.1140 C   0  0  1  0  0  0  0  0  0  0  0  0
   47.5520   31.8420   48.0830 C   0  0  0  0  0  0  0  0  0  0  0  0
   46.9710   31.2590   49.4030 C   0  0  0  0  0  0  0  0  0  0  0  0
   45.5260   31.3140   49.0040 C   0  0  0  0  0  0  0  0  0  0  0  0
   45.6230   30.6170   47.6340 C   0  0  2  0  0  0  0  0  0  0  0  0
   45.1420   29.2350   47.8260 C   0  0  0  0  0  0  0  0  0  0  0  0
   44.6150   28.3110   46.8380 C   0  0  0  0  0  0  0  0  0  0  0  0
   45.9550   28.0420   47.3700 C   0  0  0  0  0  0  0  0  0  0  0  0
   44.2765   36.5384   44.5295 H   0  0  0  0  0  0  0  0  0  0  0  0
   43.8064   36.7909   42.0550 H   0  0  0  0  0  0  0  0  0  0  0  0
   44.6383   34.9754   40.5107 H   0  0  0  0  0  0  0  0  0  0  0  0
   47.2255   32.1918   42.1057 H   0  0  0  0  0  0  0  0  0  0  0  0
   48.4932   30.2120   42.9094 H   0  0  0  0  0  0  0  0  0  0  0  0
   47.6410   29.9564   47.0744 H   0  0  0  0  0  0  0  0  0  0  0  0
   48.6520   31.8497   48.0883 H   0  0  0  0  0  0  0  0  0  0  0  0
   47.2855   32.8897   47.8799 H   0  0  0  0  0  0  0  0  0  0  0  0
   47.3154   30.2326   49.5976 H   0  0  0  0  0  0  0  0  0  0  0  0
   47.2457   31.7769   50.3338 H   0  0  0  0  0  0  0  0  0  0  0  0
   44.8842   30.7588   49.7039 H   0  0  0  0  0  0  0  0  0  0  0  0
   45.0784   32.3187   48.9911 H   0  0  0  0  0  0  0  0  0  0  0  0
   44.9822   31.0041   46.8280 H   0  0  0  0  0  0  0  0  0  0  0  0
   44.7232   29.6438   48.7574 H   0  0  0  0  0  0  0  0  0  0  0  0
   44.5010   28.6390   45.7943 H   0  0  0  0  0  0  0  0  0  0  0  0
   43.6908   27.7191   46.7636 H   0  0  0  0  0  0  0  0  0  0  0  0
   46.1222   27.1926   48.0486 H   0  0  0  0  0  0  0  0  0  0  0  0
   46.9565   27.8884   46.9417 H   0  0  0  0  0  0  0  0  0  0  0  0
  1  6  2  0
  2  1  1  0
  3  4  1  0
  3  2  2  0
  4  5  2  0
  5  7  1  0
  5  6  1  0
  7 13  1  0
  8  9  2  0
  8  7  1  0
  9 10  1  0
 10 11  2  0
 10 12  1  0
 12 15  1  0
 13 12  1  0
 13 14  2  0
 15 19  1  0
 15 16  1  0
 16 17  1  0
 18 17  1  0
 19 20  1  0
 19 18  1  0
 21 22  1  0
 21 20  1  0
 22 20  1  0
  1 23  1  0
  2 24  1  0
  3 25  1  0
  8 26  1  0
  9 27  1  0
 15 28  1  6
 16 29  1  0
 16 30  1  0
 17 31  1  0
 17 32  1  0
 18 33  1  0
 18 34  1  0
 19 35  1  6
 20 36  1  0
 21 37  1  0
 21 38  1  0
 22 39  1  0
 22 40  1  0
M  ISO  8  23  14  24  14  25  14  26  14  27  14  28  13  29  13  30  13
M  ISO  8  31  13  32  13  33  13  34  13  35  13  36  13  37  13  38  13
M  ISO  2  39  13  40  13
M  END
>  <minimizedAffinity>  (1) 
-5.30827093

>  <minimizedRMSD>  (1) 
2.23060179

$$$$
