
     RDKit          3D

 40 43  0  0  1  0  0  0  0  0999 V2000
   44.5270   35.8020   44.0560 C   0  0  0  0  0  0  0  0  0  0  0  0
   44.2670   36.0550   42.6920 C   0  0  0  0  0  0  0  0  0  0  0  0
   44.8040   35.1590   41.7500 C   0  0  0  0  0  0  0  0  0  0  0  0
   45.5360   34.1070   42.1740 N   0  0  0  0  0  0  0  0  0  0  0  0
   45.7570   33.9110   43.5180 C   0  0  0  0  0  0  0  0  0  0  0  0
   45.2510   34.7580   44.4440 N   0  0  0  0  0  0  0  0  0  0  0  0
   46.5260   32.8000   43.9890 N   0  0  0  0  0  0  0  0  0  0  0  0
   47.2760   32.1370   43.0880 C   0  0  0  0  0  0  0  0  0  0  0  0
   48.0500   31.0580   43.4240 C   0  0  0  0  0  0  0  0  0  0  0  0
   48.0560   30.6390   44.7350 C   0  0  0  0  0  0  0  0  0  0  0  0
   48.7350   29.6580   45.1350 O   0  0  0  0  0  0  0  0  0  0  0  0
   47.2950   31.3270   45.5960 N   0  0  0  0  0  0  0  0  0  0  0  0
   46.5490   32.3730   45.2540 C   0  0  0  0  0  0  0  0  0  0  0  0
   45.8620   32.9800   46.0820 O   0  0  0  0  0  0  0  0  0  0  0  0
   47.3190   30.8610   46.9670 C   0  0  1  0  0  0  0  0  0  0  0  0
   47.6320   31.8320   48.0230 C   0  0  0  0  0  0  0  0  0  0  0  0
   47.2280   30.9620   49.2530 C   0  0  0  0  0  0  0  0  0  0  0  0
   45.7590   30.7540   48.8420 C   0  0  0  0  0  0  0  0  0  0  0  0
   46.0070   30.2620   47.3950 C   0  0  2  0  0  0  0  0  0  0  0  0
   46.0080   28.8340   47.5200 N   0  0  0  0  0  0  0  0  0  0  0  0
   46.9670   27.9480   47.2840 C   0  0  0  0  0  0  0  0  0  0  0  0
   46.4080   26.7190   47.5750 C   0  0  0  0  0  0  0  0  0  0  0  0
   45.1350   26.8850   47.9780 N   0  0  0  0  0  0  0  0  0  0  0  0
   44.8930   28.2060   47.9410 C   0  0  0  0  0  0  0  0  0  0  0  0
   44.1204   36.4856   44.8159 H   0  0  0  0  0  0  0  0  0  0  0  0
   43.6664   36.9211   42.3772 H   0  0  0  0  0  0  0  0  0  0  0  0
   44.6287   35.3145   40.6752 H   0  0  0  0  0  0  0  0  0  0  0  0
   47.2666   32.4752   42.0413 H   0  0  0  0  0  0  0  0  0  0  0  0
   48.6524   30.5387   42.6641 H   0  0  0  0  0  0  0  0  0  0  0  0
   48.1489   30.1424   46.8970 H   0  0  0  0  0  0  0  0  0  0  0  0
   48.6983   32.1018   48.0369 H   0  0  0  0  0  0  0  0  0  0  0  0
   47.1332   32.8089   47.9407 H   0  0  0  0  0  0  0  0  0  0  0  0
   47.7902   30.0180   49.3066 H   0  0  0  0  0  0  0  0  0  0  0  0
   47.4101   31.3927   50.2487 H   0  0  0  0  0  0  0  0  0  0  0  0
   45.2571   29.9948   49.4598 H   0  0  0  0  0  0  0  0  0  0  0  0
   45.0999   31.6282   48.9481 H   0  0  0  0  0  0  0  0  0  0  0  0
   45.2696   30.5520   46.6321 H   0  0  0  0  0  0  0  0  0  0  0  0
   47.9894   28.1494   46.9317 H   0  0  0  0  0  0  0  0  0  0  0  0
   46.9248   25.7517   47.4902 H   0  0  0  0  0  0  0  0  0  0  0  0
   43.9439   28.6930   48.2094 H   0  0  0  0  0  0  0  0  0  0  0  0
  1  6  2  0
  2  1  1  0
  3  4  1  0
  3  2  2  0
  4  5  2  0
  5  7  1  0
  5  6  1  0
  7 13  1  0
  8  9  2  0
  8  7  1  0
  9 10  1  0
 10 11  2  0
 10 12  1  0
 12 15  1  0
 13 12  1  0
 13 14  2  0
 15 19  1  0
 15 16  1  0
 16 17  1  0
 18 17  1  0
 19 20  1  0
 19 18  1  0
 20 24  1  0
 21 20  1  0
 21 22  2  0
 22 23  1  0
 24 23  2  0
  1 25  1  0
  2 26  1  0
  3 27  1  0
  8 28  1  0
  9 29  1  0
 15 30  1  6
 16 31  1  0
 16 32  1  0
 17 33  1  0
 17 34  1  0
 18 35  1  0
 18 36  1  0
 19 37  1  6
 21 38  1  0
 22 39  1  0
 24 40  1  0
M  ISO  8  25  14  26  14  27  14  28  14  29  14  30  13  31  13  32  13
M  ISO  8  33  13  34  13  35  13  36  13  37  13  38  14  39  14  40  14
M  END
>  <minimizedAffinity>  (1) 
-5.19684172

>  <minimizedRMSD>  (1) 
3.01028562

$$$$
