
     RDKit          3D

 35 37  0  0  1  0  0  0  0  0999 V2000
   44.8710   35.4370   45.0550 C   0  0  0  0  0  0  0  0  0  0  0  0
   44.1990   35.6120   43.8240 C   0  0  0  0  0  0  0  0  0  0  0  0
   44.2970   34.5640   42.8810 C   0  0  0  0  0  0  0  0  0  0  0  0
   45.0050   33.4670   43.1760 N   0  0  0  0  0  0  0  0  0  0  0  0
   45.6370   33.3590   44.3960 C   0  0  0  0  0  0  0  0  0  0  0  0
   45.5650   34.3330   45.3150 N   0  0  0  0  0  0  0  0  0  0  0  0
   46.3980   32.1830   44.7250 N   0  0  0  0  0  0  0  0  0  0  0  0
   46.7380   31.3550   43.7220 C   0  0  0  0  0  0  0  0  0  0  0  0
   47.4630   30.2040   43.9320 C   0  0  0  0  0  0  0  0  0  0  0  0
   47.8520   29.8930   45.2130 C   0  0  0  0  0  0  0  0  0  0  0  0
   48.5140   28.8630   45.4860 O   0  0  0  0  0  0  0  0  0  0  0  0
   47.4900   30.7470   46.1690 N   0  0  0  0  0  0  0  0  0  0  0  0
   46.7880   31.8600   45.9580 C   0  0  0  0  0  0  0  0  0  0  0  0
   46.4800   32.6170   46.8860 O   0  0  0  0  0  0  0  0  0  0  0  0
   47.9140   30.3890   47.5040 C   0  0  1  0  0  0  0  0  0  0  0  0
   49.2700   29.9020   47.7110 C   0  0  0  0  0  0  0  0  0  0  0  0
   49.2880   29.9500   49.2710 C   0  0  0  0  0  0  0  0  0  0  0  0
   48.9930   31.4440   49.4130 C   0  0  0  0  0  0  0  0  0  0  0  0
   47.7870   31.5620   48.4690 C   0  0  2  0  0  0  0  0  0  0  0  0
   46.6450   31.3570   49.3760 N   0  0  0  0  0  0  0  0  0  0  0  0
   44.8188   36.2312   45.8143 H   0  0  0  0  0  0  0  0  0  0  0  0
   43.6242   36.5250   43.6091 H   0  0  0  0  0  0  0  0  0  0  0  0
   43.7928   34.6495   41.9071 H   0  0  0  0  0  0  0  0  0  0  0  0
   46.4259   31.6061   42.6975 H   0  0  0  0  0  0  0  0  0  0  0  0
   47.7260   29.5458   43.0908 H   0  0  0  0  0  0  0  0  0  0  0  0
   47.2297   29.5473   47.6866 H   0  0  0  0  0  0  0  0  0  0  0  0
   49.4088   28.8814   47.3247 H   0  0  0  0  0  0  0  0  0  0  0  0
   50.0663   30.4662   47.2034 H   0  0  0  0  0  0  0  0  0  0  0  0
   48.5052   29.3216   49.7207 H   0  0  0  0  0  0  0  0  0  0  0  0
   50.1975   29.5779   49.7652 H   0  0  0  0  0  0  0  0  0  0  0  0
   48.7313   31.7130   50.4470 H   0  0  0  0  0  0  0  0  0  0  0  0
   49.8362   32.1097   49.1768 H   0  0  0  0  0  0  0  0  0  0  0  0
   47.6985   32.4997   47.9007 H   0  0  0  0  0  0  0  0  0  0  0  0
   46.9674   31.4149   50.3525 H   0  0  0  0  0  0  0  0  0  0  0  0
   45.9358   32.0841   49.2049 H   0  0  0  0  0  0  0  0  0  0  0  0
  1  6  2  0
  2  1  1  0
  3  4  1  0
  3  2  2  0
  4  5  2  0
  5  7  1  0
  5  6  1  0
  7 13  1  0
  8  9  2  0
  8  7  1  0
  9 10  1  0
 10 11  2  0
 10 12  1  0
 12 15  1  0
 13 12  1  0
 13 14  2  0
 15 16  1  0
 15 19  1  0
 16 17  1  0
 17 18  1  0
 19 20  1  0
 19 18  1  0
  1 21  1  0
  2 22  1  0
  3 23  1  0
  8 24  1  0
  9 25  1  0
 15 26  1  1
 16 27  1  0
 16 28  1  0
 17 29  1  0
 17 30  1  0
 18 31  1  0
 18 32  1  0
 19 33  1  6
 20 34  1  0
 20 35  1  0
M  ISO  8  21  14  22  14  23  14  24  14  25  14  26  13  27  13  28  13
M  ISO  7  29  13  30  13  31  13  32  13  33  13  34   5  35   5
M  END
>  <minimizedAffinity>  (1) 
-5.00621319

>  <minimizedRMSD>  (1) 
0.463694692

$$$$
