
     RDKit          3D

 42 44  0  0  1  0  0  0  0  0999 V2000
   45.4870   34.0370   45.4840 C   0  0  0  0  0  0  0  0  0  0  0  0
   44.7230   35.2290   45.5020 C   0  0  0  0  0  0  0  0  0  0  0  0
   44.6540   35.9560   44.2910 C   0  0  0  0  0  0  0  0  0  0  0  0
   45.2990   35.5080   43.1870 N   0  0  0  0  0  0  0  0  0  0  0  0
   46.0210   34.3480   43.2380 C   0  0  0  0  0  0  0  0  0  0  0  0
   46.1080   33.6260   44.3800 N   0  0  0  0  0  0  0  0  0  0  0  0
   46.7310   33.8460   42.1100 N   0  0  0  0  0  0  0  0  0  0  0  0
   46.9570   34.7140   41.1010 C   0  0  0  0  0  0  0  0  0  0  0  0
   47.6580   34.3560   39.9690 C   0  0  0  0  0  0  0  0  0  0  0  0
   48.1420   33.0790   39.8610 C   0  0  0  0  0  0  0  0  0  0  0  0
   48.7960   32.6500   38.8700 O   0  0  0  0  0  0  0  0  0  0  0  0
   47.8870   32.2570   40.8980 N   0  0  0  0  0  0  0  0  0  0  0  0
   47.2090   32.6170   41.9790 C   0  0  0  0  0  0  0  0  0  0  0  0
   47.0040   31.7980   42.9050 O   0  0  0  0  0  0  0  0  0  0  0  0
   48.4200   30.9260   40.8030 C   0  0  1  0  0  0  0  0  0  0  0  0
   48.4840   30.2700   39.5180 C   0  0  0  0  0  0  0  0  0  0  0  0
   49.1800   28.9620   39.9870 C   0  0  0  0  0  0  0  0  0  0  0  0
   50.3820   29.5990   40.6740 C   0  0  0  0  0  0  0  0  0  0  0  0
   49.8320   30.8480   41.3600 C   0  0  1  0  0  0  0  0  0  0  0  0
   50.7400   31.9770   41.0740 C   0  0  0  0  0  0  0  0  0  0  0  0
   52.1390   31.6560   40.6190 C   0  0  0  0  0  0  0  0  0  0  0  0
   50.9610   32.6970   42.4230 C   0  0  0  0  0  0  0  0  0  0  0  0
   45.5694   33.4371   46.4024 H   0  0  0  0  0  0  0  0  0  0  0  0
   44.2091   35.5722   46.4120 H   0  0  0  0  0  0  0  0  0  0  0  0
   44.0740   36.8895   44.2452 H   0  0  0  0  0  0  0  0  0  0  0  0
   46.5693   35.7400   41.1847 H   0  0  0  0  0  0  0  0  0  0  0  0
   47.8264   35.0859   39.1635 H   0  0  0  0  0  0  0  0  0  0  0  0
   47.6543   30.3912   41.3841 H   0  0  0  0  0  0  0  0  0  0  0  0
   49.0922   30.8302   38.7926 H   0  0  0  0  0  0  0  0  0  0  0  0
   47.5286   30.1483   38.9865 H   0  0  0  0  0  0  0  0  0  0  0  0
   48.5568   28.3857   40.6866 H   0  0  0  0  0  0  0  0  0  0  0  0
   49.4058   28.2258   39.2015 H   0  0  0  0  0  0  0  0  0  0  0  0
   50.8136   28.9098   41.4148 H   0  0  0  0  0  0  0  0  0  0  0  0
   51.1846   29.8396   39.9613 H   0  0  0  0  0  0  0  0  0  0  0  0
   49.7820   30.8501   42.4589 H   0  0  0  0  0  0  0  0  0  0  0  0
   50.2504   32.5248   40.2554 H   0  0  0  0  0  0  0  0  0  0  0  0
   52.7851   31.5077   41.4968 H   0  0  0  0  0  0  0  0  0  0  0  0
   52.1261   30.7375   40.0139 H   0  0  0  0  0  0  0  0  0  0  0  0
   52.5278   32.4883   40.0139 H   0  0  0  0  0  0  0  0  0  0  0  0
   50.7477   32.0022   43.2487 H   0  0  0  0  0  0  0  0  0  0  0  0
   52.0049   33.0372   42.4904 H   0  0  0  0  0  0  0  0  0  0  0  0
   50.2877   33.5642   42.4904 H   0  0  0  0  0  0  0  0  0  0  0  0
  1  2  2  0
  3  2  1  0
  4  5  1  0
  4  3  2  0
  5  6  2  0
  6  1  1  0
  7  5  1  0
  8  7  1  0
  9  8  2  0
 10  9  1  0
 10 12  1  0
 11 10  2  0
 12 13  1  0
 13  7  1  0
 13 14  2  0
 15 12  1  0
 15 19  1  0
 16 17  1  0
 16 15  1  0
 17 18  1  0
 18 19  1  0
 20 19  1  0
 20 22  1  0
 21 20  1  0
  1 23  1  0
  2 24  1  0
  3 25  1  0
  8 26  1  0
  9 27  1  0
 15 28  1  1
 16 29  1  0
 16 30  1  0
 17 31  1  0
 17 32  1  0
 18 33  1  0
 18 34  1  0
 19 35  1  1
 20 36  1  0
 21 37  1  0
 21 38  1  0
 21 39  1  0
 22 40  1  0
 22 41  1  0
 22 42  1  0
M  ISO  8  23  14  24  14  25  14  26  14  27  14  28  13  29  13  30  13
M  ISO  8  31  13  32  13  33  13  34  13  35  13  36   8  37   8  38   8
M  ISO  4  39   8  40   8  41   8  42   8
M  END
>  <minimizedAffinity>  (1) 
-4.84208298

>  <minimizedRMSD>  (1) 
5.68645239

$$$$
