
     RDKit          3D

 39 41  0  0  1  0  0  0  0  0999 V2000
   45.1870   34.2540   45.3830 C   0  0  0  0  0  0  0  0  0  0  0  0
   44.5860   35.5440   45.3260 C   0  0  0  0  0  0  0  0  0  0  0  0
   44.7960   36.2960   44.1460 C   0  0  0  0  0  0  0  0  0  0  0  0
   45.5360   35.7810   43.1460 N   0  0  0  0  0  0  0  0  0  0  0  0
   46.0920   34.5280   43.2540 C   0  0  0  0  0  0  0  0  0  0  0  0
   45.9130   33.7830   44.3650 N   0  0  0  0  0  0  0  0  0  0  0  0
   46.8770   33.9650   42.2110 N   0  0  0  0  0  0  0  0  0  0  0  0
   47.3130   34.7990   41.2460 C   0  0  0  0  0  0  0  0  0  0  0  0
   48.0820   34.3630   40.1870 C   0  0  0  0  0  0  0  0  0  0  0  0
   48.4170   33.0390   40.1070 C   0  0  0  0  0  0  0  0  0  0  0  0
   49.1110   32.5500   39.1830 O   0  0  0  0  0  0  0  0  0  0  0  0
   47.9630   32.2570   41.0810 N   0  0  0  0  0  0  0  0  0  0  0  0
   47.2160   32.6870   42.1080 C   0  0  0  0  0  0  0  0  0  0  0  0
   46.8200   31.8970   42.9940 O   0  0  0  0  0  0  0  0  0  0  0  0
   48.3140   30.8580   40.9980 C   0  0  1  0  0  0  0  0  0  0  0  0
   48.9170   30.3540   39.7860 C   0  0  0  0  0  0  0  0  0  0  0  0
   49.2450   28.9170   40.2750 C   0  0  0  0  0  0  0  0  0  0  0  0
   50.0440   29.2820   41.5010 C   0  0  0  0  0  0  0  0  0  0  0  0
   49.3250   30.4950   42.0920 C   0  0  1  0  0  0  0  0  0  0  0  0
   50.4000   31.5340   42.2600 C   0  0  0  0  0  0  0  0  0  0  0  0
   51.6100   30.8310   42.8600 C   0  0  0  0  0  0  0  0  0  0  0  0
   45.0510   33.6342   46.2815 H   0  0  0  0  0  0  0  0  0  0  0  0
   43.9866   35.9373   46.1603 H   0  0  0  0  0  0  0  0  0  0  0  0
   44.3557   37.2991   44.0459 H   0  0  0  0  0  0  0  0  0  0  0  0
   47.0463   35.8645   41.3050 H   0  0  0  0  0  0  0  0  0  0  0  0
   48.4216   35.0710   39.4166 H   0  0  0  0  0  0  0  0  0  0  0  0
   47.3170   30.4005   41.0794 H   0  0  0  0  0  0  0  0  0  0  0  0
   49.8220   30.9145   39.5088 H   0  0  0  0  0  0  0  0  0  0  0  0
   48.2974   30.4212   38.8796 H   0  0  0  0  0  0  0  0  0  0  0  0
   48.3385   28.3460   40.5246 H   0  0  0  0  0  0  0  0  0  0  0  0
   49.7523   28.2664   39.5475 H   0  0  0  0  0  0  0  0  0  0  0  0
   50.0526   28.4491   42.2195 H   0  0  0  0  0  0  0  0  0  0  0  0
   51.0951   29.5000   41.2607 H   0  0  0  0  0  0  0  0  0  0  0  0
   48.8123   30.3642   43.0564 H   0  0  0  0  0  0  0  0  0  0  0  0
   50.6613   31.9683   41.2837 H   0  0  0  0  0  0  0  0  0  0  0  0
   50.0575   32.3507   42.9124 H   0  0  0  0  0  0  0  0  0  0  0  0
   51.5480   30.8670   43.9577 H   0  0  0  0  0  0  0  0  0  0  0  0
   51.6269   29.7825   42.5279 H   0  0  0  0  0  0  0  0  0  0  0  0
   52.5293   31.3356   42.5279 H   0  0  0  0  0  0  0  0  0  0  0  0
  2  1  2  0
  3  2  1  0
  4  5  1  0
  4  3  2  0
  5  6  2  0
  6  1  1  0
  7  5  1  0
  8  7  1  0
  9  8  2  0
 10  9  1  0
 10 12  1  0
 11 10  2  0
 12 13  1  0
 13  7  1  0
 13 14  2  0
 15 12  1  0
 15 19  1  0
 16 17  1  0
 16 15  1  0
 17 18  1  0
 18 19  1  0
 19 20  1  0
 20 21  1  0
  1 22  1  0
  2 23  1  0
  3 24  1  0
  8 25  1  0
  9 26  1  0
 15 27  1  1
 16 28  1  0
 16 29  1  0
 17 30  1  0
 17 31  1  0
 18 32  1  0
 18 33  1  0
 19 34  1  1
 20 35  1  0
 20 36  1  0
 21 37  1  0
 21 38  1  0
 21 39  1  0
M  ISO  8  22  14  23  14  24  14  25  14  26  14  27  13  28  13  29  13
M  ISO  8  30  13  31  13  32  13  33  13  34  13  35   8  36   8  37   8
M  ISO  2  38   8  39   8
M  END
>  <minimizedAffinity>  (1) 
-4.43298101

>  <minimizedRMSD>  (1) 
5.28882027

$$$$
