
     RDKit          3D

 24 25  0  0  1  0  0  0  0  0999 V2000
   45.2610   32.9540   47.4640 C   0  0  0  0  0  0  0  0  0  0  0  0
   45.7900   32.7540   46.1770 C   0  0  0  0  0  0  0  0  0  0  0  0
   46.1280   31.4330   45.8160 C   0  0  0  0  0  0  0  0  0  0  0  0
   45.9240   30.4440   46.7270 N   0  0  0  0  0  0  0  0  0  0  0  0
   45.4140   30.6760   47.9490 C   0  0  0  0  0  0  0  0  0  0  0  0
   45.0870   31.9270   48.3100 N   0  0  0  0  0  0  0  0  0  0  0  0
   45.9670   33.9110   45.2750 C   0  0  2  0  0  0  0  0  0  0  0  0
   44.8870   34.9210   45.5160 C   0  0  0  0  0  0  0  0  0  0  0  0
   44.4950   35.7860   44.3950 C   0  0  0  0  0  0  0  0  0  0  0  0
   45.2960   35.7530   43.1620 C   0  0  0  0  0  0  0  0  0  0  0  0
   46.4440   34.8160   43.1110 C   0  0  0  0  0  0  0  0  0  0  0  0
   46.0490   33.5260   43.8130 C   0  0  0  0  0  0  0  0  0  0  0  0
   44.9849   33.9699   47.7831 H   0  0  0  0  0  0  0  0  0  0  0  0
   46.5457   31.2086   44.8235 H   0  0  0  0  0  0  0  0  0  0  0  0
   45.2650   29.8427   48.6515 H   0  0  0  0  0  0  0  0  0  0  0  0
   46.9415   34.3609   45.5158 H   0  0  0  0  0  0  0  0  0  0  0  0
   44.4035   35.0119   46.4998 H   0  0  0  0  0  0  0  0  0  0  0  0
   43.6188   36.4460   44.4764 H   0  0  0  0  0  0  0  0  0  0  0  0
   44.6185   35.4877   42.3370 H   0  0  0  0  0  0  0  0  0  0  0  0
   45.7501   36.7529   43.0985 H   0  0  0  0  0  0  0  0  0  0  0  0
   46.7026   34.6035   42.0632 H   0  0  0  0  0  0  0  0  0  0  0  0
   47.3165   35.2632   43.6097 H   0  0  0  0  0  0  0  0  0  0  0  0
   45.0755   33.1657   43.4489 H   0  0  0  0  0  0  0  0  0  0  0  0
   46.7642   32.7103   43.6308 H   0  0  0  0  0  0  0  0  0  0  0  0
  1  6  2  0
  2  1  1  0
  3  2  2  0
  3  4  1  0
  4  5  2  0
  5  6  1  0
  7  8  1  0
  7  2  1  0
  9  8  2  0
 10  9  1  0
 11 10  1  0
 11 12  1  0
 12  7  1  0
  1 13  1  0
  3 14  1  0
  5 15  1  0
  7 16  1  1
  8 17  1  0
  9 18  1  0
 10 19  1  0
 10 20  1  0
 11 21  1  0
 11 22  1  0
 12 23  1  0
 12 24  1  0
M  ISO  8  13  14  14  14  15  14  16  13  17  13  18  13  19  13  20  13
M  ISO  4  21  13  22  13  23  13  24  13
M  END
>  <minimizedAffinity>  (1) 
-4.1074357

>  <minimizedRMSD>  (1) 
4.24397087

$$$$
