
     RDKit          3D

 35 37  0  0  1  0  0  0  0  0999 V2000
   49.1260   33.7250   42.7020 C   0  0  2  0  0  0  0  0  0  0  0  0
   47.7140   33.9360   42.5060 C   0  0  2  0  0  0  0  0  0  0  0  0
   47.6140   35.3670   41.9170 C   0  0  0  0  0  0  0  0  0  0  0  0
   48.9810   35.8030   41.4910 C   0  0  0  0  0  0  0  0  0  0  0  0
   49.8240   35.0980   42.4810 C   0  0  0  0  0  0  0  0  0  0  0  0
   49.8130   32.8230   41.7500 C   0  0  0  0  0  0  0  0  0  0  0  0
   49.0320   32.1630   40.8010 C   0  0  0  0  0  0  0  0  0  0  0  0
   49.6090   31.2960   39.8760 C   0  0  0  0  0  0  0  0  0  0  0  0
   50.9800   31.1540   39.9790 N   0  0  0  0  0  0  0  0  0  0  0  0
   51.7120   31.7960   40.8980 C   0  0  0  0  0  0  0  0  0  0  0  0
   51.1270   32.6250   41.7780 N   0  0  0  0  0  0  0  0  0  0  0  0
   46.8430   33.8710   43.7100 C   0  0  0  0  0  0  0  0  0  0  0  0
   45.9630   34.6600   43.9130 O   0  0  0  0  0  0  0  0  0  0  0  0
   46.9340   32.8620   44.7600 C   0  0  0  0  0  0  0  0  0  0  0  0
   47.2760   31.5450   44.5400 C   0  0  0  0  0  0  0  0  0  0  0  0
   47.3910   30.5830   45.5180 C   0  0  0  0  0  0  0  0  0  0  0  0
   47.1530   30.9230   46.8320 C   0  0  0  0  0  0  0  0  0  0  0  0
   46.8060   32.2220   47.1250 C   0  0  0  0  0  0  0  0  0  0  0  0
   46.7120   33.1250   46.0950 C   0  0  0  0  0  0  0  0  0  0  0  0
   49.1989   33.2700   43.7008 H   0  0  0  0  0  0  0  0  0  0  0  0
   47.3448   33.1158   41.8728 H   0  0  0  0  0  0  0  0  0  0  0  0
   46.9383   35.3644   41.0490 H   0  0  0  0  0  0  0  0  0  0  0  0
   47.2172   36.0590   42.6744 H   0  0  0  0  0  0  0  0  0  0  0  0
   49.2067   35.4787   40.4644 H   0  0  0  0  0  0  0  0  0  0  0  0
   49.1228   36.8936   41.4698 H   0  0  0  0  0  0  0  0  0  0  0  0
   50.8421   34.9553   42.0896 H   0  0  0  0  0  0  0  0  0  0  0  0
   49.9227   35.6661   43.4178 H   0  0  0  0  0  0  0  0  0  0  0  0
   47.9448   32.3297   40.7829 H   0  0  0  0  0  0  0  0  0  0  0  0
   49.0163   30.7628   39.1182 H   0  0  0  0  0  0  0  0  0  0  0  0
   52.8008   31.6433   40.9326 H   0  0  0  0  0  0  0  0  0  0  0  0
   47.4724   31.2387   43.5019 H   0  0  0  0  0  0  0  0  0  0  0  0
   47.6703   29.5526   45.2530 H   0  0  0  0  0  0  0  0  0  0  0  0
   47.2387   30.1713   47.6305 H   0  0  0  0  0  0  0  0  0  0  0  0
   46.6082   32.5303   48.1622 H   0  0  0  0  0  0  0  0  0  0  0  0
   46.4332   34.1556   46.3600 H   0  0  0  0  0  0  0  0  0  0  0  0
  2  1  1  0
  2 12  1  0
  3  2  1  0
  4  3  1  0
  4  5  1  0
  5  1  1  0
  6 11  1  0
  6  1  1  0
  7  6  2  0
  8  9  2  0
  8  7  1  0
  9 10  1  0
 10 11  2  0
 12 13  2  0
 12 14  1  0
 14 19  1  0
 15 14  2  0
 15 16  1  0
 16 17  2  0
 17 18  1  0
 19 18  2  0
  1 20  1  1
  2 21  1  6
  3 22  1  0
  3 23  1  0
  4 24  1  0
  4 25  1  0
  5 26  1  0
  5 27  1  0
  7 28  1  0
  8 29  1  0
 10 30  1  0
 15 31  1  0
 16 32  1  0
 17 33  1  0
 18 34  1  0
 19 35  1  0
M  ISO  8  20  13  21  13  22  13  23  13  24  13  25  13  26  13  27  13
M  ISO  8  28  14  29  14  30  14  31  14  32  14  33  14  34  14  35  14
M  END
>  <minimizedAffinity>  (1) 
-5.37300587

>  <minimizedRMSD>  (1) 
0.691256166

$$$$
