
     RDKit          3D

 35 38  0  0  1  0  0  0  0  0999 V2000
   46.7420   34.6340   43.0950 C   0  0  2  0  0  0  0  0  0  0  0  0
   46.7580   33.7800   44.3250 C   0  0  0  0  0  0  0  0  0  0  0  0
   45.7370   34.0260   45.3190 C   0  0  0  0  0  0  0  0  0  0  0  0
   44.7380   35.0740   45.1070 C   0  0  0  0  0  0  0  0  0  0  0  0
   44.9030   35.9300   43.9240 C   0  0  0  0  0  0  0  0  0  0  0  0
   45.3850   35.1390   42.7460 C   0  0  2  0  0  0  0  0  0  0  0  0
   44.4710   34.1500   42.2900 N   0  0  0  0  0  0  0  0  0  0  0  0
   44.4190   32.8470   42.6240 C   0  0  0  0  0  0  0  0  0  0  0  0
   43.4060   32.2410   41.9770 N   0  0  0  0  0  0  0  0  0  0  0  0
   42.8010   33.1670   41.2190 C   0  0  0  0  0  0  0  0  0  0  0  0
   41.7060   33.0090   40.3760 C   0  0  0  0  0  0  0  0  0  0  0  0
   41.2780   34.1020   39.7130 N   0  0  0  0  0  0  0  0  0  0  0  0
   41.9180   35.2820   39.8920 C   0  0  0  0  0  0  0  0  0  0  0  0
   42.9810   35.4210   40.7150 N   0  0  0  0  0  0  0  0  0  0  0  0
   43.4690   34.3590   41.4160 C   0  0  0  0  0  0  0  0  0  0  0  0
   48.0740   32.7210   42.2540 C   0  0  0  0  0  0  0  0  0  0  0  0
   47.4470   33.9610   41.9890 C   0  0  0  0  0  0  0  0  0  0  0  0
   47.5360   34.5000   40.6790 C   0  0  0  0  0  0  0  0  0  0  0  0
   48.2240   33.7910   39.7460 N   0  0  0  0  0  0  0  0  0  0  0  0
   48.8140   32.6040   40.0330 C   0  0  0  0  0  0  0  0  0  0  0  0
   48.7360   32.0780   41.2780 N   0  0  0  0  0  0  0  0  0  0  0  0
   47.3061   35.5529   43.3130 H   0  0  0  0  0  0  0  0  0  0  0  0
   47.5167   32.9963   44.4668 H   0  0  0  0  0  0  0  0  0  0  0  0
   45.7112   33.4227   46.2385 H   0  0  0  0  0  0  0  0  0  0  0  0
   43.7564   34.5840   45.0266 H   0  0  0  0  0  0  0  0  0  0  0  0
   44.8520   35.7521   45.9656 H   0  0  0  0  0  0  0  0  0  0  0  0
   43.9349   36.3896   43.6758 H   0  0  0  0  0  0  0  0  0  0  0  0
   45.6513   36.7026   44.1546 H   0  0  0  0  0  0  0  0  0  0  0  0
   45.4528   35.7831   41.8569 H   0  0  0  0  0  0  0  0  0  0  0  0
   45.1054   32.3492   43.3247 H   0  0  0  0  0  0  0  0  0  0  0  0
   41.2106   32.0343   40.2555 H   0  0  0  0  0  0  0  0  0  0  0  0
   41.5573   36.1650   39.3442 H   0  0  0  0  0  0  0  0  0  0  0  0
   48.0193   32.2824   43.2613 H   0  0  0  0  0  0  0  0  0  0  0  0
   47.0632   35.4608   40.4271 H   0  0  0  0  0  0  0  0  0  0  0  0
   49.3612   32.0635   39.2466 H   0  0  0  0  0  0  0  0  0  0  0  0
  1  2  1  0
  2  3  2  0
  4  3  1  0
  5  4  1  0
  6  1  1  0
  6  5  1  0
  7  8  1  0
  7  6  1  0
  9  8  2  0
 10 15  2  0
 10  9  1  0
 11 10  1  0
 12 13  1  0
 12 11  2  0
 13 14  2  0
 14 15  1  0
 15  7  1  0
 17 16  2  0
 17  1  1  0
 18 17  1  0
 19 20  1  0
 19 18  2  0
 20 21  2  0
 21 16  1  0
  1 22  1  1
  2 23  1  0
  3 24  1  0
  4 25  1  0
  4 26  1  0
  5 27  1  0
  5 28  1  0
  6 29  1  6
  8 30  1  0
 11 31  1  0
 13 32  1  0
 16 33  1  0
 18 34  1  0
 20 35  1  0
M  ISO  8  22  13  23  13  24  13  25  13  26  13  27  13  28  13  29  13
M  ISO  6  30  14  31  14  32  14  33  14  34  14  35  14
M  END
>  <minimizedAffinity>  (1) 
-5.52172422

>  <minimizedRMSD>  (1) 
4.12427521

$$$$
