
     RDKit          3D

 40 42  0  0  1  0  0  0  0  0999 V2000
   45.4610   34.2510   41.0260 C   0  0  2  0  0  0  0  0  0  0  0  0
   44.1150   34.3250   40.3460 C   0  0  0  0  0  0  0  0  0  0  0  0
   43.9470   33.5640   39.1350 C   0  0  0  0  0  0  0  0  0  0  0  0
   45.0290   32.7590   38.5770 C   0  0  0  0  0  0  0  0  0  0  0  0
   46.3680   32.9810   39.1970 C   0  0  0  0  0  0  0  0  0  0  0  0
   46.3060   33.1130   40.6750 C   0  0  1  0  0  0  0  0  0  0  0  0
   45.1250   35.8400   42.8480 C   0  0  0  0  0  0  0  0  0  0  0  0
   45.2630   34.4840   42.4820 C   0  0  0  0  0  0  0  0  0  0  0  0
   45.2670   33.4770   43.4560 C   0  0  0  0  0  0  0  0  0  0  0  0
   45.1380   33.8590   44.7590 N   0  0  0  0  0  0  0  0  0  0  0  0
   45.0050   35.1700   45.1100 C   0  0  0  0  0  0  0  0  0  0  0  0
   44.9990   36.1390   44.1620 N   0  0  0  0  0  0  0  0  0  0  0  0
   47.7580   33.4220   41.0680 C   0  0  0  0  0  0  0  0  0  0  0  0
   48.1860   34.7590   40.4910 C   0  0  0  0  0  0  0  0  0  0  0  0
   48.5810   35.7450   41.5280 C   0  0  0  0  0  0  0  0  0  0  0  0
   49.6530   35.2180   42.4560 C   0  0  0  0  0  0  0  0  0  0  0  0
   49.5030   33.7320   42.6940 C   0  0  0  0  0  0  0  0  0  0  0  0
   47.9820   33.4460   42.5750 C   0  0  0  0  0  0  0  0  0  0  0  0
   46.0886   35.0584   40.6208 H   0  0  0  0  0  0  0  0  0  0  0  0
   43.2973   34.9344   40.7582 H   0  0  0  0  0  0  0  0  0  0  0  0
   42.9771   33.5901   38.6166 H   0  0  0  0  0  0  0  0  0  0  0  0
   44.7658   31.6987   38.7051 H   0  0  0  0  0  0  0  0  0  0  0  0
   45.1249   33.0626   37.5241 H   0  0  0  0  0  0  0  0  0  0  0  0
   47.0160   32.1278   38.9477 H   0  0  0  0  0  0  0  0  0  0  0  0
   46.7640   33.9263   38.7976 H   0  0  0  0  0  0  0  0  0  0  0  0
   45.8976   32.2217   41.1737 H   0  0  0  0  0  0  0  0  0  0  0  0
   45.1200   36.6329   42.0856 H   0  0  0  0  0  0  0  0  0  0  0  0
   45.3704   32.4172   43.1800 H   0  0  0  0  0  0  0  0  0  0  0  0
   44.9018   35.4433   46.1705 H   0  0  0  0  0  0  0  0  0  0  0  0
   48.3654   32.6042   40.6530 H   0  0  0  0  0  0  0  0  0  0  0  0
   49.0435   34.5926   39.8224 H   0  0  0  0  0  0  0  0  0  0  0  0
   47.3197   35.1764   39.9568 H   0  0  0  0  0  0  0  0  0  0  0  0
   48.9610   36.6482   41.0283 H   0  0  0  0  0  0  0  0  0  0  0  0
   47.6910   35.9613   42.1372 H   0  0  0  0  0  0  0  0  0  0  0  0
   50.6390   35.4098   42.0076 H   0  0  0  0  0  0  0  0  0  0  0  0
   49.5539   35.7327   43.4231 H   0  0  0  0  0  0  0  0  0  0  0  0
   50.0619   33.1628   41.9366 H   0  0  0  0  0  0  0  0  0  0  0  0
   49.8995   33.4332   43.6756 H   0  0  0  0  0  0  0  0  0  0  0  0
   47.3910   34.2426   43.0505 H   0  0  0  0  0  0  0  0  0  0  0  0
   47.6741   32.5160   43.0752 H   0  0  0  0  0  0  0  0  0  0  0  0
  1  8  1  0
  2  1  1  0
  3  2  2  0
  4  3  1  0
  4  5  1  0
  5  6  1  0
  6  1  1  0
  6 13  1  0
  7 12  2  0
  8  7  1  0
  8  9  2  0
  9 10  1  0
 10 11  2  0
 12 11  1  0
 13 18  1  0
 14 13  1  0
 14 15  1  0
 15 16  1  0
 16 17  1  0
 18 17  1  0
  1 19  1  6
  2 20  1  0
  3 21  1  0
  4 22  1  0
  4 23  1  0
  5 24  1  0
  5 25  1  0
  6 26  1  1
  7 27  1  0
  9 28  1  0
 11 29  1  0
 13 30  1  0
 14 31  1  0
 14 32  1  0
 15 33  1  0
 15 34  1  0
 16 35  1  0
 16 36  1  0
 17 37  1  0
 17 38  1  0
 18 39  1  0
 18 40  1  0
M  ISO  8  19  13  20  13  21  13  22  13  23  13  24  13  25  13  26  13
M  ISO  8  27  14  28  14  29  14  30  13  31  13  32  13  33  13  34  13
M  ISO  6  35  13  36  13  37  13  38  13  39  13  40  13
M  END
>  <minimizedAffinity>  (1) 
-5.41649532

>  <minimizedRMSD>  (1) 
4.16540813

$$$$
