
     RDKit          3D

 37 39  0  0  1  0  0  0  0  0999 V2000
   46.1670   33.9780   44.8040 C   0  0  2  0  0  0  0  0  0  0  0  0
   45.0570   34.8320   45.4150 C   0  0  0  0  0  0  0  0  0  0  0  0
   44.4140   35.8500   44.6170 C   0  0  0  0  0  0  0  0  0  0  0  0
   44.8480   36.0350   43.2270 C   0  0  0  0  0  0  0  0  0  0  0  0
   46.0580   35.3080   42.8220 C   0  0  0  0  0  0  0  0  0  0  0  0
   46.0110   33.8960   43.3550 C   0  0  1  0  0  0  0  0  0  0  0  0
   47.0410   33.2260   42.5870 N   0  0  0  0  0  0  0  0  0  0  0  0
   48.3110   33.7100   42.7900 C   0  0  0  0  0  0  0  0  0  0  0  0
   49.4320   33.2110   42.1960 C   0  0  0  0  0  0  0  0  0  0  0  0
   50.7800   33.7810   42.4590 C   0  0  0  0  0  0  0  0  0  0  0  0
   49.2450   32.1500   41.3360 C   0  0  0  0  0  0  0  0  0  0  0  0
   50.2470   31.6530   40.7630 O   0  0  0  0  0  0  0  0  0  0  0  0
   48.0250   31.6600   41.1200 N   0  0  0  0  0  0  0  0  0  0  0  0
   46.9540   32.1900   41.7320 C   0  0  0  0  0  0  0  0  0  0  0  0
   45.7970   31.7420   41.5420 O   0  0  0  0  0  0  0  0  0  0  0  0
   45.7610   32.6440   46.8560 C   0  0  0  0  0  0  0  0  0  0  0  0
   46.2160   32.6980   45.5310 C   0  0  0  0  0  0  0  0  0  0  0  0
   46.7270   31.5120   44.9420 C   0  0  0  0  0  0  0  0  0  0  0  0
   46.7580   30.3840   45.6740 N   0  0  0  0  0  0  0  0  0  0  0  0
   46.3090   30.3630   46.9580 C   0  0  0  0  0  0  0  0  0  0  0  0
   45.8170   31.4850   47.5380 N   0  0  0  0  0  0  0  0  0  0  0  0
   47.1608   34.4331   44.9272 H   0  0  0  0  0  0  0  0  0  0  0  0
   44.7487   34.6722   46.4587 H   0  0  0  0  0  0  0  0  0  0  0  0
   43.6147   36.4744   45.0427 H   0  0  0  0  0  0  0  0  0  0  0  0
   44.0260   35.7088   42.5728 H   0  0  0  0  0  0  0  0  0  0  0  0
   45.1025   37.1015   43.1382 H   0  0  0  0  0  0  0  0  0  0  0  0
   46.1175   35.2817   41.7239 H   0  0  0  0  0  0  0  0  0  0  0  0
   46.9420   35.8201   43.2298 H   0  0  0  0  0  0  0  0  0  0  0  0
   45.0830   33.3177   43.2351 H   0  0  0  0  0  0  0  0  0  0  0  0
   48.4314   34.5587   43.4794 H   0  0  0  0  0  0  0  0  0  0  0  0
   50.9434   33.8501   43.5446 H   0  0  0  0  0  0  0  0  0  0  0  0
   51.5467   33.1300   42.0135 H   0  0  0  0  0  0  0  0  0  0  0  0
   50.8471   34.7845   42.0135 H   0  0  0  0  0  0  0  0  0  0  0  0
   47.9021   30.8655   40.4761 H   0  0  0  0  0  0  0  0  0  0  0  0
   45.3588   33.5475   47.3375 H   0  0  0  0  0  0  0  0  0  0  0  0
   47.0916   31.5153   43.9042 H   0  0  0  0  0  0  0  0  0  0  0  0
   46.3456   29.4252   47.5318 H   0  0  0  0  0  0  0  0  0  0  0  0
  1  2  1  0
  1 17  1  0
  3  2  2  0
  4  3  1  0
  5  4  1  0
  5  6  1  0
  6  1  1  0
  7  8  1  0
  7  6  1  0
  9 10  1  0
  9  8  2  0
 11  9  1  0
 12 11  2  0
 13 11  1  0
 13 14  1  0
 14  7  1  0
 15 14  2  0
 16 21  2  0
 17 16  1  0
 18 17  2  0
 18 19  1  0
 19 20  2  0
 20 21  1  0
  1 22  1  6
  2 23  1  0
  3 24  1  0
  4 25  1  0
  4 26  1  0
  5 27  1  0
  5 28  1  0
  6 29  1  1
  8 30  1  0
 10 31  1  0
 10 32  1  0
 10 33  1  0
 13 34  1  0
 16 35  1  0
 18 36  1  0
 20 37  1  0
M  ISO  8  22  13  23  13  24  13  25  13  26  13  27  13  28  13  29  13
M  ISO  8  30  14  31   8  32   8  33   8  34   9  35  14  36  14  37  14
M  END
>  <minimizedAffinity>  (1) 
-5.34823751

>  <minimizedRMSD>  (1) 
1.16789961

$$$$
