
     RDKit          3D

 39 41  0  0  1  0  0  0  0  0999 V2000
   49.1420   33.5980   42.6440 C   0  0  2  0  0  0  0  0  0  0  0  0
   47.7330   33.8110   42.4820 C   0  0  2  0  0  0  0  0  0  0  0  0
   47.6010   35.2500   41.9540 C   0  0  0  0  0  0  0  0  0  0  0  0
   48.9400   35.7300   41.5050 C   0  0  0  0  0  0  0  0  0  0  0  0
   49.8140   35.0140   42.4720 C   0  0  0  0  0  0  0  0  0  0  0  0
   49.8510   32.7590   41.6730 C   0  0  0  0  0  0  0  0  0  0  0  0
   49.0790   32.2020   40.6250 C   0  0  0  0  0  0  0  0  0  0  0  0
   49.7250   31.4350   39.6680 C   0  0  0  0  0  0  0  0  0  0  0  0
   51.0870   31.2710   39.8110 N   0  0  0  0  0  0  0  0  0  0  0  0
   51.7960   31.8020   40.8070 C   0  0  0  0  0  0  0  0  0  0  0  0
   51.1570   32.5310   41.7090 N   0  0  0  0  0  0  0  0  0  0  0  0
   46.9200   33.6910   43.7420 C   0  0  0  0  0  0  0  0  0  0  0  0
   46.0790   34.5280   44.0120 O   0  0  0  0  0  0  0  0  0  0  0  0
   46.9380   32.7190   44.7460 N   0  0  0  0  0  0  0  0  0  0  0  0
   46.5680   33.2240   46.0560 C   0  0  0  0  0  0  0  0  0  0  0  0
   45.7990   32.1940   46.8770 C   0  0  0  0  0  0  0  0  0  0  0  0
   46.6230   31.0000   46.9160 N   0  0  0  0  0  0  0  0  0  0  0  0
   46.4890   30.4260   45.5670 C   0  0  0  0  0  0  0  0  0  0  0  0
   47.2800   31.3170   44.6020 C   0  0  0  0  0  0  0  0  0  0  0  0
   49.2214   33.0795   43.6109 H   0  0  0  0  0  0  0  0  0  0  0  0
   47.3403   33.0316   41.8125 H   0  0  0  0  0  0  0  0  0  0  0  0
   46.8999   35.2685   41.1066 H   0  0  0  0  0  0  0  0  0  0  0  0
   47.2214   35.9044   42.7526 H   0  0  0  0  0  0  0  0  0  0  0  0
   49.1521   35.4335   40.4672 H   0  0  0  0  0  0  0  0  0  0  0  0
   49.0594   36.8235   41.4971 H   0  0  0  0  0  0  0  0  0  0  0  0
   50.8341   34.9137   42.0727 H   0  0  0  0  0  0  0  0  0  0  0  0
   49.9055   35.5508   43.4278 H   0  0  0  0  0  0  0  0  0  0  0  0
   47.9938   32.3736   40.5715 H   0  0  0  0  0  0  0  0  0  0  0  0
   49.1759   30.9775   38.8318 H   0  0  0  0  0  0  0  0  0  0  0  0
   52.8816   31.6392   40.8777 H   0  0  0  0  0  0  0  0  0  0  0  0
   47.4833   33.4988   46.6007 H   0  0  0  0  0  0  0  0  0  0  0  0
   45.9120   34.0946   45.9083 H   0  0  0  0  0  0  0  0  0  0  0  0
   45.6280   32.5712   47.8961 H   0  0  0  0  0  0  0  0  0  0  0  0
   44.8153   31.9842   46.4316 H   0  0  0  0  0  0  0  0  0  0  0  0
   47.6047   31.2397   47.1153 H   0  0  0  0  0  0  0  0  0  0  0  0
   46.8957   29.4040   45.5524 H   0  0  0  0  0  0  0  0  0  0  0  0
   45.4307   30.3805   45.2705 H   0  0  0  0  0  0  0  0  0  0  0  0
   47.0618   31.0032   43.5705 H   0  0  0  0  0  0  0  0  0  0  0  0
   48.3486   31.2041   44.8371 H   0  0  0  0  0  0  0  0  0  0  0  0
  2  1  1  0
  2 12  1  0
  3  2  1  0
  4  3  1  0
  4  5  1  0
  5  1  1  0
  6 11  1  0
  6  1  1  0
  7  6  2  0
  8  9  2  0
  8  7  1  0
  9 10  1  0
 10 11  2  0
 12 13  2  0
 12 14  1  0
 14 15  1  0
 15 16  1  0
 16 17  1  0
 18 17  1  0
 19 14  1  0
 19 18  1  0
  1 20  1  1
  2 21  1  6
  3 22  1  0
  3 23  1  0
  4 24  1  0
  4 25  1  0
  5 26  1  0
  5 27  1  0
  7 28  1  0
  8 29  1  0
 10 30  1  0
 15 31  1  0
 15 32  1  0
 16 33  1  0
 16 34  1  0
 17 35  1  0
 18 36  1  0
 18 37  1  0
 19 38  1  0
 19 39  1  0
M  ISO  8  20  13  21  13  22  13  23  13  24  13  25  13  26  13  27  13
M  ISO  8  28  14  29  14  30  14  31  13  32  13  33  13  34  13  35   5
M  ISO  4  36  13  37  13  38  13  39  13
M  END
>  <minimizedAffinity>  (1) 
-5.34140968

>  <minimizedRMSD>  (1) 
0.204075053

$$$$
