
     RDKit          3D

 37 39  0  0  1  0  0  0  0  0999 V2000
   46.2280   33.9830   44.8820 C   0  0  2  0  0  0  0  0  0  0  0  0
   45.0120   34.7490   45.3950 C   0  0  0  0  0  0  0  0  0  0  0  0
   44.3870   35.7340   44.5440 C   0  0  0  0  0  0  0  0  0  0  0  0
   44.9420   35.9730   43.2050 C   0  0  0  0  0  0  0  0  0  0  0  0
   46.2400   35.3140   42.9080 C   0  0  0  0  0  0  0  0  0  0  0  0
   46.1460   33.8600   43.4060 C   0  0  1  0  0  0  0  0  0  0  0  0
   46.9640   32.6770   46.8840 C   0  0  0  0  0  0  0  0  0  0  0  0
   46.3350   32.7450   45.6420 C   0  0  0  0  0  0  0  0  0  0  0  0
   45.7970   31.5380   45.1300 C   0  0  0  0  0  0  0  0  0  0  0  0
   45.9130   30.4070   45.8500 N   0  0  0  0  0  0  0  0  0  0  0  0
   46.5360   30.3960   47.0580 C   0  0  0  0  0  0  0  0  0  0  0  0
   47.0480   31.5270   47.5510 N   0  0  0  0  0  0  0  0  0  0  0  0
   47.1540   33.0950   42.7450 N   0  0  0  0  0  0  0  0  0  0  0  0
   48.4980   33.5260   43.0340 C   0  0  0  0  0  0  0  0  0  0  0  0
   49.1490   34.3600   41.9940 C   0  0  0  0  0  0  0  0  0  0  0  0
   48.6840   34.2400   40.7170 O   0  0  0  0  0  0  0  0  0  0  0  0
   47.9770   33.1150   40.4080 C   0  0  0  0  0  0  0  0  0  0  0  0
   46.8800   32.7890   41.3860 C   0  0  0  0  0  0  0  0  0  0  0  0
   47.1793   34.5094   45.0495 H   0  0  0  0  0  0  0  0  0  0  0  0
   44.6158   34.5529   46.4023 H   0  0  0  0  0  0  0  0  0  0  0  0
   43.5087   36.2968   44.8930 H   0  0  0  0  0  0  0  0  0  0  0  0
   44.2075   35.6159   42.4682 H   0  0  0  0  0  0  0  0  0  0  0  0
   45.1415   37.0537   43.1566 H   0  0  0  0  0  0  0  0  0  0  0  0
   46.4291   35.3283   41.8245 H   0  0  0  0  0  0  0  0  0  0  0  0
   47.0656   35.8419   43.4077 H   0  0  0  0  0  0  0  0  0  0  0  0
   45.2233   33.3087   43.1720 H   0  0  0  0  0  0  0  0  0  0  0  0
   47.3984   33.5884   47.3207 H   0  0  0  0  0  0  0  0  0  0  0  0
   45.2898   31.5257   44.1540 H   0  0  0  0  0  0  0  0  0  0  0  0
   46.6183   29.4587   47.6278 H   0  0  0  0  0  0  0  0  0  0  0  0
   48.4717   34.1095   43.9661 H   0  0  0  0  0  0  0  0  0  0  0  0
   49.0984   32.6064   43.0968 H   0  0  0  0  0  0  0  0  0  0  0  0
   49.0306   35.4123   42.2917 H   0  0  0  0  0  0  0  0  0  0  0  0
   50.1880   34.0011   41.9522 H   0  0  0  0  0  0  0  0  0  0  0  0
   47.5243   33.2536   39.4151 H   0  0  0  0  0  0  0  0  0  0  0  0
   48.6878   32.2760   40.4382 H   0  0  0  0  0  0  0  0  0  0  0  0
   45.9832   33.3516   41.0874 H   0  0  0  0  0  0  0  0  0  0  0  0
   46.7568   31.6967   41.3442 H   0  0  0  0  0  0  0  0  0  0  0  0
  1  2  1  0
  1  8  1  0
  3  2  2  0
  4  3  1  0
  5  4  1  0
  5  6  1  0
  6  1  1  0
  7 12  2  0
  8  7  1  0
  9  8  2  0
  9 10  1  0
 10 11  2  0
 11 12  1  0
 13 14  1  0
 13  6  1  0
 15 14  1  0
 16 15  1  0
 17 16  1  0
 17 18  1  0
 18 13  1  0
  1 19  1  6
  2 20  1  0
  3 21  1  0
  4 22  1  0
  4 23  1  0
  5 24  1  0
  5 25  1  0
  6 26  1  1
  7 27  1  0
  9 28  1  0
 11 29  1  0
 14 30  1  0
 14 31  1  0
 15 32  1  0
 15 33  1  0
 17 34  1  0
 17 35  1  0
 18 36  1  0
 18 37  1  0
M  ISO  8  19  13  20  13  21  13  22  13  23  13  24  13  25  13  26  13
M  ISO  8  27  14  28  14  29  14  30  13  31  13  32  13  33  13  34  13
M  ISO  3  35  13  36  13  37  13
M  END
>  <minimizedAffinity>  (1) 
-4.76601934

>  <minimizedRMSD>  (1) 
1.18320692

$$$$
