
     RDKit          3D

 35 37  0  0  1  0  0  0  0  0999 V2000
   46.0630   33.8560   45.6260 C   0  0  2  0  0  0  0  0  0  0  0  0
   44.9430   34.8230   45.8580 C   0  0  0  0  0  0  0  0  0  0  0  0
   44.4540   35.5630   44.7200 C   0  0  0  0  0  0  0  0  0  0  0  0
   45.0390   35.3540   43.4030 C   0  0  0  0  0  0  0  0  0  0  0  0
   46.2680   34.5490   43.3360 C   0  0  0  0  0  0  0  0  0  0  0  0
   46.1820   33.3640   44.2550 C   0  0  2  0  0  0  0  0  0  0  0  0
   45.3920   32.2980   43.7820 N   0  0  0  0  0  0  0  0  0  0  0  0
   45.6260   31.0500   44.2970 C   0  0  0  0  0  0  0  0  0  0  0  0
   44.9240   29.9520   43.9140 C   0  0  0  0  0  0  0  0  0  0  0  0
   43.9220   30.0240   42.9720 C   0  0  0  0  0  0  0  0  0  0  0  0
   43.2540   28.8130   42.6460 N   0  0  0  0  0  0  0  0  0  0  0  0
   43.7010   31.2410   42.4760 N   0  0  0  0  0  0  0  0  0  0  0  0
   44.4050   32.3100   42.8690 C   0  0  0  0  0  0  0  0  0  0  0  0
   44.1300   33.4120   42.3490 O   0  0  0  0  0  0  0  0  0  0  0  0
   45.0230   32.7070   47.5540 C   0  0  0  0  0  0  0  0  0  0  0  0
   46.1120   32.8580   46.6960 C   0  0  0  0  0  0  0  0  0  0  0  0
   47.2520   32.0370   46.9020 C   0  0  0  0  0  0  0  0  0  0  0  0
   47.2150   31.1440   47.9320 N   0  0  0  0  0  0  0  0  0  0  0  0
   46.1360   31.0270   48.7450 C   0  0  0  0  0  0  0  0  0  0  0  0
   45.0480   31.8060   48.5530 N   0  0  0  0  0  0  0  0  0  0  0  0
   47.0084   34.4128   45.7042 H   0  0  0  0  0  0  0  0  0  0  0  0
   44.5093   34.9638   46.8590 H   0  0  0  0  0  0  0  0  0  0  0  0
   43.6363   36.2876   44.8477 H   0  0  0  0  0  0  0  0  0  0  0  0
   44.2821   34.8557   42.7795 H   0  0  0  0  0  0  0  0  0  0  0  0
   45.3364   36.3564   43.0613 H   0  0  0  0  0  0  0  0  0  0  0  0
   46.4113   34.1953   42.3043 H   0  0  0  0  0  0  0  0  0  0  0  0
   47.1165   35.1755   43.6481 H   0  0  0  0  0  0  0  0  0  0  0  0
   47.1124   32.7774   44.2701 H   0  0  0  0  0  0  0  0  0  0  0  0
   46.4163   30.9322   45.0531 H   0  0  0  0  0  0  0  0  0  0  0  0
   45.1623   28.9791   44.3685 H   0  0  0  0  0  0  0  0  0  0  0  0
   42.4972   28.8143   41.9473 H   0  0  0  0  0  0  0  0  0  0  0  0
   43.5265   27.9339   43.1084 H   0  0  0  0  0  0  0  0  0  0  0  0
   44.1303   33.3338   47.4119 H   0  0  0  0  0  0  0  0  0  0  0  0
   48.1358   32.1186   46.2522 H   0  0  0  0  0  0  0  0  0  0  0  0
   46.1461   30.2942   49.5653 H   0  0  0  0  0  0  0  0  0  0  0  0
  1  2  1  0
  1 16  1  0
  3  2  2  0
  4  3  1  0
  5  4  1  0
  5  6  1  0
  6  1  1  0
  7  6  1  0
  7  8  1  0
  9  8  2  0
 10  9  1  0
 11 10  1  0
 12 13  1  0
 12 10  2  0
 13  7  1  0
 14 13  2  0
 15 20  2  0
 16 17  2  0
 16 15  1  0
 17 18  1  0
 18 19  2  0
 20 19  1  0
  1 21  1  1
  2 22  1  0
  3 23  1  0
  4 24  1  0
  4 25  1  0
  5 26  1  0
  5 27  1  0
  6 28  1  1
  8 29  1  0
  9 30  1  0
 11 31  1  0
 11 32  1  0
 15 33  1  0
 17 34  1  0
 19 35  1  0
M  ISO  8  21  13  22  13  23  13  24  13  25  13  26  13  27  13  28  13
M  ISO  5  29  14  30  14  33  14  34  14  35  14
M  END
>  <minimizedAffinity>  (1) 
-4.76542568

>  <minimizedRMSD>  (1) 
0.999634922

$$$$
