
     RDKit          3D

 36 38  0  0  1  0  0  0  0  0999 V2000
   45.9950   33.9590   45.0740 C   0  0  2  0  0  0  0  0  0  0  0  0
   44.8790   34.9210   45.4440 C   0  0  0  0  0  0  0  0  0  0  0  0
   44.4440   35.9080   44.4810 C   0  0  0  0  0  0  0  0  0  0  0  0
   45.0910   35.9600   43.1710 C   0  0  0  0  0  0  0  0  0  0  0  0
   46.2950   35.1110   43.0020 C   0  0  0  0  0  0  0  0  0  0  0  0
   46.0210   33.7340   43.6080 C   0  0  1  0  0  0  0  0  0  0  0  0
   45.5590   32.8660   47.2700 C   0  0  0  0  0  0  0  0  0  0  0  0
   45.8720   32.7690   45.9140 C   0  0  0  0  0  0  0  0  0  0  0  0
   46.0720   31.4650   45.3880 C   0  0  0  0  0  0  0  0  0  0  0  0
   45.9490   30.4060   46.2130 N   0  0  0  0  0  0  0  0  0  0  0  0
   45.6420   30.5550   47.5280 C   0  0  0  0  0  0  0  0  0  0  0  0
   45.4480   31.7880   48.0500 N   0  0  0  0  0  0  0  0  0  0  0  0
   47.0480   32.9150   43.0870 N   0  0  0  0  0  0  0  0  0  0  0  0
   48.3780   33.3480   43.1320 C   0  0  0  0  0  0  0  0  0  0  0  0
   49.0730   32.6260   41.9670 C   0  0  0  0  0  0  0  0  0  0  0  0
   47.9270   32.5280   40.9810 C   0  0  0  0  0  0  0  0  0  0  0  0
   46.7630   32.2170   41.8920 C   0  0  0  0  0  0  0  0  0  0  0  0
   46.9920   34.3727   45.2856 H   0  0  0  0  0  0  0  0  0  0  0  0
   44.4061   34.8672   46.4357 H   0  0  0  0  0  0  0  0  0  0  0  0
   43.6360   36.6113   44.7310 H   0  0  0  0  0  0  0  0  0  0  0  0
   44.3517   35.6477   42.4188 H   0  0  0  0  0  0  0  0  0  0  0  0
   45.4426   36.9960   43.0569 H   0  0  0  0  0  0  0  0  0  0  0  0
   46.5238   35.0041   41.9314 H   0  0  0  0  0  0  0  0  0  0  0  0
   47.1528   35.5767   43.5092 H   0  0  0  0  0  0  0  0  0  0  0  0
   45.0729   33.2297   43.3697 H   0  0  0  0  0  0  0  0  0  0  0  0
   45.3987   33.8613   47.7102 H   0  0  0  0  0  0  0  0  0  0  0  0
   46.3227   31.3218   44.3266 H   0  0  0  0  0  0  0  0  0  0  0  0
   45.5506   29.6680   48.1721 H   0  0  0  0  0  0  0  0  0  0  0  0
   48.4339   34.4385   42.9991 H   0  0  0  0  0  0  0  0  0  0  0  0
   48.8525   33.1230   44.0985 H   0  0  0  0  0  0  0  0  0  0  0  0
   49.9075   33.2175   41.5624 H   0  0  0  0  0  0  0  0  0  0  0  0
   49.5328   31.6628   42.2332 H   0  0  0  0  0  0  0  0  0  0  0  0
   48.0929   31.7204   40.2528 H   0  0  0  0  0  0  0  0  0  0  0  0
   47.7860   33.4317   40.3699 H   0  0  0  0  0  0  0  0  0  0  0  0
   45.8196   32.5713   41.4511 H   0  0  0  0  0  0  0  0  0  0  0  0
   46.6418   31.1366   42.0592 H   0  0  0  0  0  0  0  0  0  0  0  0
  1  2  1  0
  1  8  1  0
  3  2  2  0
  4  3  1  0
  5  4  1  0
  5  6  1  0
  6  1  1  0
  7 12  2  0
  8  7  1  0
  9  8  2  0
  9 10  1  0
 10 11  2  0
 11 12  1  0
 13 14  1  0
 13  6  1  0
 15 14  1  0
 16 17  1  0
 16 15  1  0
 17 13  1  0
  1 18  1  1
  2 19  1  0
  3 20  1  0
  4 21  1  0
  4 22  1  0
  5 23  1  0
  5 24  1  0
  6 25  1  6
  7 26  1  0
  9 27  1  0
 11 28  1  0
 14 29  1  0
 14 30  1  0
 15 31  1  0
 15 32  1  0
 16 33  1  0
 16 34  1  0
 17 35  1  0
 17 36  1  0
M  ISO  8  18  13  19  13  20  13  21  13  22  13  23  13  24  13  25  13
M  ISO  8  26  14  27  14  28  14  29  13  30  13  31  13  32  13  33  13
M  ISO  3  34  13  35  13  36  13
M  END
>  <minimizedAffinity>  (1) 
-4.69242334

>  <minimizedRMSD>  (1) 
0.434002966

$$$$
