
     RDKit          3D

 32 34  0  0  1  0  0  0  0  0999 V2000
   46.2710   33.7870   45.5140 C   0  0  2  0  0  0  0  0  0  0  0  0
   45.0340   34.6500   45.5890 C   0  0  0  0  0  0  0  0  0  0  0  0
   44.6780   35.3690   44.3840 C   0  0  0  0  0  0  0  0  0  0  0  0
   45.4890   35.2490   43.1660 C   0  0  0  0  0  0  0  0  0  0  0  0
   46.7710   34.5040   43.2960 C   0  0  0  0  0  0  0  0  0  0  0  0
   46.5100   33.2660   44.1440 C   0  0  2  0  0  0  0  0  0  0  0  0
   45.1610   32.7830   47.4920 C   0  0  0  0  0  0  0  0  0  0  0  0
   46.2200   32.7810   46.5820 C   0  0  0  0  0  0  0  0  0  0  0  0
   47.2180   31.7850   46.7500 C   0  0  0  0  0  0  0  0  0  0  0  0
   47.0790   30.9130   47.7720 N   0  0  0  0  0  0  0  0  0  0  0  0
   46.0520   30.9380   48.6300 C   0  0  0  0  0  0  0  0  0  0  0  0
   45.1000   31.8730   48.4850 N   0  0  0  0  0  0  0  0  0  0  0  0
   45.4500   32.4240   43.5750 C   0  0  0  0  0  0  0  0  0  0  0  0
   45.2950   31.0650   43.8780 C   0  0  0  0  0  0  0  0  0  0  0  0
   44.3230   30.2260   43.3780 C   0  0  0  0  0  0  0  0  0  0  0  0
   43.4370   30.7570   42.5190 N   0  0  0  0  0  0  0  0  0  0  0  0
   43.5680   32.0710   42.2100 C   0  0  0  0  0  0  0  0  0  0  0  0
   44.5220   32.8650   42.7100 N   0  0  0  0  0  0  0  0  0  0  0  0
   47.1711   34.3905   45.7028 H   0  0  0  0  0  0  0  0  0  0  0  0
   44.4361   34.7280   46.5090 H   0  0  0  0  0  0  0  0  0  0  0  0
   43.7872   36.0144   44.3809 H   0  0  0  0  0  0  0  0  0  0  0  0
   45.7263   36.2659   42.8203 H   0  0  0  0  0  0  0  0  0  0  0  0
   44.8786   34.6607   42.4650 H   0  0  0  0  0  0  0  0  0  0  0  0
   47.1324   34.2058   42.3008 H   0  0  0  0  0  0  0  0  0  0  0  0
   47.5358   35.1377   43.7688 H   0  0  0  0  0  0  0  0  0  0  0  0
   47.3563   32.5638   44.1699 H   0  0  0  0  0  0  0  0  0  0  0  0
   44.3658   33.5371   47.3975 H   0  0  0  0  0  0  0  0  0  0  0  0
   48.0789   31.7254   46.0679 H   0  0  0  0  0  0  0  0  0  0  0  0
   45.9889   30.2011   49.4442 H   0  0  0  0  0  0  0  0  0  0  0  0
   46.0177   30.6262   44.5817 H   0  0  0  0  0  0  0  0  0  0  0  0
   44.2746   29.1665   43.6698 H   0  0  0  0  0  0  0  0  0  0  0  0
   42.8464   32.5107   41.5058 H   0  0  0  0  0  0  0  0  0  0  0  0
  1  2  1  0
  1  8  1  0
  3  2  2  0
  4  5  1  0
  4  3  1  0
  5  6  1  0
  6  1  1  0
  7 12  2  0
  8  9  2  0
  8  7  1  0
  9 10  1  0
 10 11  2  0
 12 11  1  0
 13 14  2  0
 13  6  1  0
 15 14  1  0
 16 15  2  0
 17 16  1  0
 17 18  2  0
 18 13  1  0
  1 19  1  1
  2 20  1  0
  3 21  1  0
  4 22  1  0
  4 23  1  0
  5 24  1  0
  5 25  1  0
  6 26  1  1
  7 27  1  0
  9 28  1  0
 11 29  1  0
 14 30  1  0
 15 31  1  0
 17 32  1  0
M  ISO  8  19  13  20  13  21  13  22  13  23  13  24  13  25  13  26  13
M  ISO  6  27  14  28  14  29  14  30  14  31  14  32  14
M  END
>  <minimizedAffinity>  (1) 
-4.67779589

>  <minimizedRMSD>  (1) 
0.98072803

$$$$
