
     RDKit          3D

 27 28  0  0  1  0  0  0  0  0999 V2000
   46.2600   33.7740   45.5530 C   0  0  2  0  0  0  0  0  0  0  0  0
   45.0220   34.6390   45.6160 C   0  0  0  0  0  0  0  0  0  0  0  0
   44.6840   35.3800   44.4210 C   0  0  0  0  0  0  0  0  0  0  0  0
   45.5130   35.2830   43.2210 C   0  0  0  0  0  0  0  0  0  0  0  0
   46.7400   34.4520   43.3070 C   0  0  0  0  0  0  0  0  0  0  0  0
   46.4330   33.2330   44.1630 C   0  0  2  0  0  0  0  0  0  0  0  0
   45.1990   32.8080   47.5640 C   0  0  0  0  0  0  0  0  0  0  0  0
   46.2170   32.7670   46.6120 C   0  0  0  0  0  0  0  0  0  0  0  0
   47.1720   31.7490   46.7250 C   0  0  0  0  0  0  0  0  0  0  0  0
   47.0730   30.8560   47.7370 N   0  0  0  0  0  0  0  0  0  0  0  0
   46.0730   30.9200   48.6490 C   0  0  0  0  0  0  0  0  0  0  0  0
   45.1420   31.8930   48.5590 N   0  0  0  0  0  0  0  0  0  0  0  0
   45.2320   32.4950   43.7050 C   0  0  0  0  0  0  0  0  0  0  0  0
   45.0970   31.2410   43.8690 O   0  0  0  0  0  0  0  0  0  0  0  0
   44.0930   32.9020   43.0690 O   0  0  0  0  0  0  0  0  0  0  0  0
   47.1672   34.3639   45.7505 H   0  0  0  0  0  0  0  0  0  0  0  0
   44.4080   34.7018   46.5265 H   0  0  0  0  0  0  0  0  0  0  0  0
   43.7925   36.0243   44.4150 H   0  0  0  0  0  0  0  0  0  0  0  0
   45.8230   36.3031   42.9501 H   0  0  0  0  0  0  0  0  0  0  0  0
   44.8788   34.7747   42.4798 H   0  0  0  0  0  0  0  0  0  0  0  0
   47.0436   34.1318   42.2994 H   0  0  0  0  0  0  0  0  0  0  0  0
   47.5599   35.0325   43.7550 H   0  0  0  0  0  0  0  0  0  0  0  0
   47.2423   32.4905   44.1028 H   0  0  0  0  0  0  0  0  0  0  0  0
   44.4323   33.5945   47.5053 H   0  0  0  0  0  0  0  0  0  0  0  0
   47.9945   31.6759   45.9983 H   0  0  0  0  0  0  0  0  0  0  0  0
   46.0200   30.1802   49.4614 H   0  0  0  0  0  0  0  0  0  0  0  0
   43.9713   33.8559   42.8337 H   0  0  0  0  0  0  0  0  0  0  0  0
  1  2  1  0
  1  8  1  0
  3  2  2  0
  4  5  1  0
  4  3  1  0
  5  6  1  0
  6  1  1  0
  7 12  2  0
  8  9  2  0
  8  7  1  0
  9 10  1  0
 10 11  2  0
 12 11  1  0
 13 14  2  0
 13  6  1  0
 15 13  1  0
  1 16  1  1
  2 17  1  0
  3 18  1  0
  4 19  1  0
  4 20  1  0
  5 21  1  0
  5 22  1  0
  6 23  1  1
  7 24  1  0
  9 25  1  0
 11 26  1  0
 15 27  1  0
M  ISO  8  16  13  17  13  18  13  19  13  20  13  21  13  22  13  23  13
M  ISO  4  24  14  25  14  26  14  27   3
M  END
>  <minimizedAffinity>  (1) 
-4.66373634

>  <minimizedRMSD>  (1) 
0.844875038

$$$$
