
     RDKit          3D

 31 33  0  0  1  0  0  0  0  0999 V2000
   45.9750   33.9550   45.0920 C   0  0  2  0  0  0  0  0  0  0  0  0
   44.8360   34.9300   45.4430 C   0  0  0  0  0  0  0  0  0  0  0  0
   44.4570   35.9320   44.4670 C   0  0  0  0  0  0  0  0  0  0  0  0
   45.1750   35.9800   43.1820 C   0  0  0  0  0  0  0  0  0  0  0  0
   46.3440   35.0940   43.0540 C   0  0  0  0  0  0  0  0  0  0  0  0
   45.9430   33.7200   43.6510 C   0  0  1  0  0  0  0  0  0  0  0  0
   45.4820   32.9500   47.3320 C   0  0  0  0  0  0  0  0  0  0  0  0
   45.8660   32.8220   45.9990 C   0  0  0  0  0  0  0  0  0  0  0  0
   46.1630   31.5230   45.5310 C   0  0  0  0  0  0  0  0  0  0  0  0
   46.0640   30.4840   46.3800 N   0  0  0  0  0  0  0  0  0  0  0  0
   45.6850   30.6540   47.6750 C   0  0  0  0  0  0  0  0  0  0  0  0
   45.4000   31.8840   48.1300 N   0  0  0  0  0  0  0  0  0  0  0  0
   46.8870   32.8220   42.9930 C   0  0  0  0  0  0  0  0  0  0  0  0
   48.2910   32.9130   43.0390 C   0  0  0  0  0  0  0  0  0  0  0  0
   48.6950   31.8410   42.2700 C   0  0  0  0  0  0  0  0  0  0  0  0
   47.5850   31.1660   41.8020 C   0  0  0  0  0  0  0  0  0  0  0  0
   46.5150   31.7760   42.2530 O   0  0  0  0  0  0  0  0  0  0  0  0
   46.9962   34.3288   45.2575 H   0  0  0  0  0  0  0  0  0  0  0  0
   44.3214   34.8673   46.4132 H   0  0  0  0  0  0  0  0  0  0  0  0
   43.6470   36.6444   44.6822 H   0  0  0  0  0  0  0  0  0  0  0  0
   44.4617   35.7102   42.3893 H   0  0  0  0  0  0  0  0  0  0  0  0
   45.5727   37.0028   43.1065 H   0  0  0  0  0  0  0  0  0  0  0  0
   46.6166   34.9798   41.9944 H   0  0  0  0  0  0  0  0  0  0  0  0
   47.2122   35.5126   43.5841 H   0  0  0  0  0  0  0  0  0  0  0  0
   44.9565   33.2607   43.4904 H   0  0  0  0  0  0  0  0  0  0  0  0
   45.2426   33.9459   47.7330 H   0  0  0  0  0  0  0  0  0  0  0  0
   46.4709   31.3630   44.4872 H   0  0  0  0  0  0  0  0  0  0  0  0
   45.6123   29.7863   48.3472 H   0  0  0  0  0  0  0  0  0  0  0  0
   48.9130   33.6559   43.5598 H   0  0  0  0  0  0  0  0  0  0  0  0
   49.7397   31.5665   42.0619 H   0  0  0  0  0  0  0  0  0  0  0  0
   47.5962   30.2716   41.1618 H   0  0  0  0  0  0  0  0  0  0  0  0
  1  2  1  0
  1  8  1  0
  3  2  2  0
  4  3  1  0
  5  4  1  0
  5  6  1  0
  6  1  1  0
  7 12  2  0
  8  7  1  0
  9  8  2  0
  9 10  1  0
 10 11  2  0
 11 12  1  0
 13 14  2  0
 13  6  1  0
 15 14  1  0
 16 17  1  0
 16 15  2  0
 17 13  1  0
  1 18  1  6
  2 19  1  0
  3 20  1  0
  4 21  1  0
  4 22  1  0
  5 23  1  0
  5 24  1  0
  6 25  1  6
  7 26  1  0
  9 27  1  0
 11 28  1  0
 14 29  1  0
 15 30  1  0
 16 31  1  0
M  ISO  8  18  13  19  13  20  13  21  13  22  13  23  13  24  13  25  13
M  ISO  6  26  14  27  14  28  14  29  14  30  14  31  14
M  END
>  <minimizedAffinity>  (1) 
-4.62060499

>  <minimizedRMSD>  (1) 
0.650824964

$$$$
