
     RDKit          3D

 25 26  0  0  1  0  0  0  0  0999 V2000
   45.9610   33.7020   45.5010 C   0  0  2  0  0  0  0  0  0  0  0  0
   44.9320   34.7540   45.8460 C   0  0  0  0  0  0  0  0  0  0  0  0
   44.5080   35.6590   44.7950 C   0  0  0  0  0  0  0  0  0  0  0  0
   45.0730   35.5250   43.4570 C   0  0  0  0  0  0  0  0  0  0  0  0
   46.2180   34.6130   43.3050 C   0  0  0  0  0  0  0  0  0  0  0  0
   45.8930   33.3410   44.0530 C   0  0  2  0  0  0  0  0  0  0  0  0
   45.1830   32.7540   47.6410 C   0  0  0  0  0  0  0  0  0  0  0  0
   45.8620   32.5780   46.4360 C   0  0  0  0  0  0  0  0  0  0  0  0
   46.4460   31.3220   46.1790 C   0  0  0  0  0  0  0  0  0  0  0  0
   46.3170   30.3440   47.1210 N   0  0  0  0  0  0  0  0  0  0  0  0
   45.6500   30.5480   48.2830 C   0  0  0  0  0  0  0  0  0  0  0  0
   45.0850   31.7500   48.5420 N   0  0  0  0  0  0  0  0  0  0  0  0
   44.6150   32.8930   43.7280 O   0  0  0  0  0  0  0  0  0  0  0  0
   46.9771   34.1022   45.6328 H   0  0  0  0  0  0  0  0  0  0  0  0
   44.5178   34.8308   46.8621 H   0  0  0  0  0  0  0  0  0  0  0  0
   43.7646   36.4419   45.0057 H   0  0  0  0  0  0  0  0  0  0  0  0
   44.2726   35.1668   42.7929 H   0  0  0  0  0  0  0  0  0  0  0  0
   45.4667   36.5223   43.2113 H   0  0  0  0  0  0  0  0  0  0  0  0
   46.3812   34.3904   42.2402 H   0  0  0  0  0  0  0  0  0  0  0  0
   47.1334   35.0730   43.7056 H   0  0  0  0  0  0  0  0  0  0  0  0
   46.5917   32.5309   43.7968 H   0  0  0  0  0  0  0  0  0  0  0  0
   44.7189   33.7263   47.8628 H   0  0  0  0  0  0  0  0  0  0  0  0
   46.9920   31.1348   45.2426 H   0  0  0  0  0  0  0  0  0  0  0  0
   45.5676   29.7338   49.0180 H   0  0  0  0  0  0  0  0  0  0  0  0
   44.1066   32.7148   44.5586 H   0  0  0  0  0  0  0  0  0  0  0  0
  1  2  1  0
  1  8  1  0
  3  2  2  0
  4  3  1  0
  5  4  1  0
  5  6  1  0
  6  1  1  0
  7 12  2  0
  8  7  1  0
  9  8  2  0
  9 10  1  0
 10 11  2  0
 11 12  1  0
 13  6  1  0
  1 14  1  6
  2 15  1  0
  3 16  1  0
  4 17  1  0
  4 18  1  0
  5 19  1  0
  5 20  1  0
  6 21  1  1
  7 22  1  0
  9 23  1  0
 11 24  1  0
 13 25  1  0
M  ISO  8  14  13  15  13  16  13  17  13  18  13  19  13  20  13  21  13
M  ISO  4  22  14  23  14  24  14  25   3
M  END
>  <minimizedAffinity>  (1) 
-4.60725403

>  <minimizedRMSD>  (1) 
0.411830038

$$$$
