
     RDKit          3D

 30 32  0  0  1  0  0  0  0  0999 V2000
   46.1380   34.1060   45.0260 C   0  0  2  0  0  0  0  0  0  0  0  0
   44.9400   34.9530   45.3830 C   0  0  0  0  0  0  0  0  0  0  0  0
   44.4310   35.8340   44.3540 C   0  0  0  0  0  0  0  0  0  0  0  0
   45.0740   35.8810   43.0270 C   0  0  0  0  0  0  0  0  0  0  0  0
   46.3660   35.1540   42.8990 C   0  0  0  0  0  0  0  0  0  0  0  0
   46.2170   33.8010   43.5770 C   0  0  2  0  0  0  0  0  0  0  0  0
   45.3310   32.8800   47.0360 C   0  0  0  0  0  0  0  0  0  0  0  0
   46.1990   32.9530   45.9410 C   0  0  0  0  0  0  0  0  0  0  0  0
   47.1270   31.8930   45.7570 C   0  0  0  0  0  0  0  0  0  0  0  0
   47.1190   30.8720   46.6490 N   0  0  0  0  0  0  0  0  0  0  0  0
   46.2590   30.8400   47.6970 C   0  0  0  0  0  0  0  0  0  0  0  0
   45.3730   31.8470   47.8770 N   0  0  0  0  0  0  0  0  0  0  0  0
   45.0990   33.0240   43.0180 C   0  0  0  0  0  0  0  0  0  0  0  0
   44.7990   31.6400   43.4110 C   0  0  0  0  0  0  0  0  0  0  0  0
   43.3220   31.2810   42.3700 S   0  0  0  0  0  0  0  0  0  0  0  0
   43.3670   33.0210   41.6040 C   0  0  0  0  0  0  0  0  0  0  0  0
   44.2880   33.5350   42.1180 N   0  0  0  0  0  0  0  0  0  0  0  0
   47.0665   34.6740   45.1850 H   0  0  0  0  0  0  0  0  0  0  0  0
   44.4758   34.9027   46.3790 H   0  0  0  0  0  0  0  0  0  0  0  0
   43.5597   36.4723   44.5624 H   0  0  0  0  0  0  0  0  0  0  0  0
   44.3721   35.4497   42.2981 H   0  0  0  0  0  0  0  0  0  0  0  0
   45.3127   36.9404   42.8519 H   0  0  0  0  0  0  0  0  0  0  0  0
   46.6107   35.0132   41.8358 H   0  0  0  0  0  0  0  0  0  0  0  0
   47.1753   35.7297   43.3719 H   0  0  0  0  0  0  0  0  0  0  0  0
   47.0669   33.1263   43.3969 H   0  0  0  0  0  0  0  0  0  0  0  0
   44.6031   33.6872   47.2052 H   0  0  0  0  0  0  0  0  0  0  0  0
   47.8330   31.9005   44.9135 H   0  0  0  0  0  0  0  0  0  0  0  0
   46.2816   29.9952   48.4011 H   0  0  0  0  0  0  0  0  0  0  0  0
   45.3174   30.9921   44.1332 H   0  0  0  0  0  0  0  0  0  0  0  0
   42.6864   33.4473   40.8523 H   0  0  0  0  0  0  0  0  0  0  0  0
  1  2  1  0
  1  8  1  0
  3  2  2  0
  4  3  1  0
  5  4  1  0
  5  6  1  0
  6  1  1  0
  7 12  2  0
  8  7  1  0
  9  8  2  0
  9 10  1  0
 10 11  2  0
 11 12  1  0
 13 14  2  0
 13  6  1  0
 15 14  1  0
 16 17  2  0
 16 15  1  0
 17 13  1  0
  1 18  1  1
  2 19  1  0
  3 20  1  0
  4 21  1  0
  4 22  1  0
  5 23  1  0
  5 24  1  0
  6 25  1  1
  7 26  1  0
  9 27  1  0
 11 28  1  0
 14 29  1  0
 16 30  1  0
M  ISO  8  18  13  19  13  20  13  21  13  22  13  23  13  24  13  25  13
M  ISO  5  26  14  27  14  28  14  29  14  30  14
M  END
>  <minimizedAffinity>  (1) 
-4.52841759

>  <minimizedRMSD>  (1) 
0.626472294

$$$$
