
     RDKit          3D

 26 27  0  0  1  0  0  0  0  0999 V2000
   46.0910   34.0830   45.2260 C   0  0  2  0  0  0  0  0  0  0  0  0
   44.8970   34.9720   45.4740 C   0  0  0  0  0  0  0  0  0  0  0  0
   44.4470   35.8010   44.3780 C   0  0  0  0  0  0  0  0  0  0  0  0
   45.1330   35.7600   43.0910 C   0  0  0  0  0  0  0  0  0  0  0  0
   46.3640   34.9530   43.0060 C   0  0  0  0  0  0  0  0  0  0  0  0
   46.1870   33.6780   43.7900 C   0  0  2  0  0  0  0  0  0  0  0  0
   45.2200   33.0190   47.2730 C   0  0  0  0  0  0  0  0  0  0  0  0
   46.0980   32.9760   46.1890 C   0  0  0  0  0  0  0  0  0  0  0  0
   46.9610   31.8750   46.0800 C   0  0  0  0  0  0  0  0  0  0  0  0
   46.9040   30.9040   47.0330 N   0  0  0  0  0  0  0  0  0  0  0  0
   46.0410   30.9730   48.0760 C   0  0  0  0  0  0  0  0  0  0  0  0
   45.2030   32.0290   48.1930 N   0  0  0  0  0  0  0  0  0  0  0  0
   44.9660   32.9350   43.3890 C   0  0  0  0  0  0  0  0  0  0  0  0
   44.6520   31.7600   43.1630 O   0  0  0  0  0  0  0  0  0  0  0  0
   47.0199   34.6441   45.4058 H   0  0  0  0  0  0  0  0  0  0  0  0
   44.3892   34.9887   46.4497 H   0  0  0  0  0  0  0  0  0  0  0  0
   43.5821   36.4667   44.5154 H   0  0  0  0  0  0  0  0  0  0  0  0
   44.4239   35.3599   42.3513 H   0  0  0  0  0  0  0  0  0  0  0  0
   45.4610   36.7947   42.9129 H   0  0  0  0  0  0  0  0  0  0  0  0
   46.5706   34.7099   41.9533 H   0  0  0  0  0  0  0  0  0  0  0  0
   47.2057   35.5250   43.4235 H   0  0  0  0  0  0  0  0  0  0  0  0
   47.0330   33.0003   43.6029 H   0  0  0  0  0  0  0  0  0  0  0  0
   44.5321   33.8706   47.3801 H   0  0  0  0  0  0  0  0  0  0  0  0
   47.6692   31.7978   45.2418 H   0  0  0  0  0  0  0  0  0  0  0  0
   46.0219   30.1701   48.8277 H   0  0  0  0  0  0  0  0  0  0  0  0
   44.1091   33.6120   43.2573 H   0  0  0  0  0  0  0  0  0  0  0  0
  1  2  1  0
  1  8  1  0
  3  2  2  0
  4  3  1  0
  5  4  1  0
  5  6  1  0
  6  1  1  0
  7 12  2  0
  8  7  1  0
  9  8  2  0
  9 10  1  0
 10 11  2  0
 11 12  1  0
 13  6  1  0
 14 13  2  0
  1 15  1  1
  2 16  1  0
  3 17  1  0
  4 18  1  0
  4 19  1  0
  5 20  1  0
  5 21  1  0
  6 22  1  1
  7 23  1  0
  9 24  1  0
 11 25  1  0
 13 26  1  0
M  ISO  8  15  13  16  13  17  13  18  13  19  13  20  13  21  13  22  13
M  ISO  4  23  14  24  14  25  14  26   6
M  END
>  <minimizedAffinity>  (1) 
-4.21694136

>  <minimizedRMSD>  (1) 
0.614000618

$$$$
