
     RDKit          3D

 34 36  0  0  1  0  0  0  0  0999 V2000
   49.0780   33.7460   42.7020 C   0  0  2  0  0  0  0  0  0  0  0  0
   47.6660   33.9670   42.4750 C   0  0  2  0  0  0  0  0  0  0  0  0
   47.5960   35.3940   41.8820 C   0  0  0  0  0  0  0  0  0  0  0  0
   48.9850   35.8210   41.4970 C   0  0  0  0  0  0  0  0  0  0  0  0
   49.7930   35.1050   42.5050 C   0  0  0  0  0  0  0  0  0  0  0  0
   49.7710   32.8300   41.7760 C   0  0  0  0  0  0  0  0  0  0  0  0
   49.0020   32.1540   40.8270 C   0  0  0  0  0  0  0  0  0  0  0  0
   49.5980   31.2770   39.9210 C   0  0  0  0  0  0  0  0  0  0  0  0
   50.9660   31.1490   40.0450 N   0  0  0  0  0  0  0  0  0  0  0  0
   51.6900   31.8090   40.9620 C   0  0  0  0  0  0  0  0  0  0  0  0
   51.0880   32.6410   41.8170 N   0  0  0  0  0  0  0  0  0  0  0  0
   46.7960   33.9260   43.6880 C   0  0  0  0  0  0  0  0  0  0  0  0
   45.9590   34.7630   43.8800 O   0  0  0  0  0  0  0  0  0  0  0  0
   46.9530   32.8240   44.6710 C   0  0  0  0  0  0  0  0  0  0  0  0
   46.7390   33.1040   46.0210 C   0  0  0  0  0  0  0  0  0  0  0  0
   46.8380   32.2200   47.0500 C   0  0  0  0  0  0  0  0  0  0  0  0
   47.1820   30.9270   46.7360 C   0  0  0  0  0  0  0  0  0  0  0  0
   47.3910   30.6620   45.4000 C   0  0  0  0  0  0  0  0  0  0  0  0
   47.2820   31.5640   44.4130 N   0  0  0  0  0  0  0  0  0  0  0  0
   49.1266   33.2956   43.7044 H   0  0  0  0  0  0  0  0  0  0  0  0
   47.2862   33.1566   41.8355 H   0  0  0  0  0  0  0  0  0  0  0  0
   46.9481   35.3947   40.9930 H   0  0  0  0  0  0  0  0  0  0  0  0
   47.1808   36.0904   42.6254 H   0  0  0  0  0  0  0  0  0  0  0  0
   49.2372   35.4999   40.4756 H   0  0  0  0  0  0  0  0  0  0  0  0
   49.1366   36.9105   41.4867 H   0  0  0  0  0  0  0  0  0  0  0  0
   50.8194   34.9523   42.1400 H   0  0  0  0  0  0  0  0  0  0  0  0
   49.8734   35.6692   43.4459 H   0  0  0  0  0  0  0  0  0  0  0  0
   47.9143   32.3148   40.7934 H   0  0  0  0  0  0  0  0  0  0  0  0
   49.0198   30.7278   39.1633 H   0  0  0  0  0  0  0  0  0  0  0  0
   52.7795   31.6651   41.0099 H   0  0  0  0  0  0  0  0  0  0  0  0
   46.4641   34.1378   46.2775 H   0  0  0  0  0  0  0  0  0  0  0  0
   46.6506   32.5270   48.0895 H   0  0  0  0  0  0  0  0  0  0  0  0
   47.2846   30.1487   47.5065 H   0  0  0  0  0  0  0  0  0  0  0  0
   47.6678   29.6343   45.1221 H   0  0  0  0  0  0  0  0  0  0  0  0
  2  1  1  0
  2 12  1  0
  3  2  1  0
  4  3  1  0
  4  5  1  0
  5  1  1  0
  6 11  1  0
  6  1  1  0
  7  6  2  0
  8  9  2  0
  8  7  1  0
  9 10  1  0
 10 11  2  0
 12 13  2  0
 12 14  1  0
 14 15  2  0
 15 16  1  0
 17 16  2  0
 18 17  1  0
 19 14  1  0
 19 18  2  0
  1 20  1  1
  2 21  1  6
  3 22  1  0
  3 23  1  0
  4 24  1  0
  4 25  1  0
  5 26  1  0
  5 27  1  0
  7 28  1  0
  8 29  1  0
 10 30  1  0
 15 31  1  0
 16 32  1  0
 17 33  1  0
 18 34  1  0
M  ISO  8  20  13  21  13  22  13  23  13  24  13  25  13  26  13  27  13
M  ISO  7  28  14  29  14  30  14  31  14  32  14  33  14  34  14
M  END
>  <minimizedAffinity>  (1) 
-5.22289896

>  <minimizedRMSD>  (1) 
0.311465442

$$$$
