
     RDKit          3D

 45 49  0  0  1  0  0  0  0  0999 V2000
   41.1050   33.4630   39.4100 C   0  0  2  0  0  0  0  0  0  0  0  0
   40.7500   34.7730   38.7520 C   0  0  0  0  0  0  0  0  0  0  0  0
   40.6290   35.9750   39.5790 C   0  0  0  0  0  0  0  0  0  0  0  0
   40.8750   35.9060   41.0190 C   0  0  0  0  0  0  0  0  0  0  0  0
   40.8990   34.5290   41.5540 C   0  0  0  0  0  0  0  0  0  0  0  0
   41.7310   33.6420   40.7020 C   0  0  1  0  0  0  0  0  0  0  0  0
   41.1600   31.5610   37.8570 C   0  0  0  0  0  0  0  0  0  0  0  0
   41.8410   32.6120   38.4500 C   0  0  0  0  0  0  0  0  0  0  0  0
   43.1970   32.8050   38.1200 C   0  0  0  0  0  0  0  0  0  0  0  0
   43.7820   31.9680   37.2450 N   0  0  0  0  0  0  0  0  0  0  0  0
   43.1040   30.9510   36.6770 C   0  0  0  0  0  0  0  0  0  0  0  0
   41.8090   30.7540   36.9820 N   0  0  0  0  0  0  0  0  0  0  0  0
   41.8770   32.4460   41.4990 N   0  0  0  0  0  0  0  0  0  0  0  0
   40.9290   31.6140   41.9860 N   0  0  0  0  0  0  0  0  0  0  0  0
   41.5600   30.6330   42.6190 C   0  0  0  0  0  0  0  0  0  0  0  0
   42.9220   30.8630   42.5230 C   0  0  0  0  0  0  0  0  0  0  0  0
   43.1050   32.0310   41.8030 C   0  0  0  0  0  0  0  0  0  0  0  0
   44.5140   32.2630   41.7220 N   0  0  0  0  0  0  0  0  0  0  0  0
   45.3890   32.0290   40.6800 C   0  0  0  0  0  0  0  0  0  0  0  0
   46.6240   32.3910   41.0630 N   0  0  0  0  0  0  0  0  0  0  0  0
   46.5800   32.8500   42.3190 C   0  0  0  0  0  0  0  0  0  0  0  0
   47.5670   33.3240   43.1280 C   0  0  0  0  0  0  0  0  0  0  0  0
   48.7560   33.3730   42.6920 O   0  0  0  0  0  0  0  0  0  0  0  0
   47.3240   33.7480   44.3820 N   0  0  0  0  0  0  0  0  0  0  0  0
   46.0330   33.6640   44.7680 C   0  0  0  0  0  0  0  0  0  0  0  0
   45.5890   34.0700   46.0770 N   0  0  0  0  0  0  0  0  0  0  0  0
   45.0290   33.2010   44.0020 N   0  0  0  0  0  0  0  0  0  0  0  0
   45.2770   32.7790   42.7470 C   0  0  0  0  0  0  0  0  0  0  0  0
   40.1872   32.9125   39.6640 H   0  0  0  0  0  0  0  0  0  0  0  0
   40.5843   34.8245   37.6658 H   0  0  0  0  0  0  0  0  0  0  0  0
   40.3521   36.9334   39.1156 H   0  0  0  0  0  0  0  0  0  0  0  0
   41.8472   36.3763   41.2278 H   0  0  0  0  0  0  0  0  0  0  0  0
   40.0411   36.4270   41.5120 H   0  0  0  0  0  0  0  0  0  0  0  0
   41.3165   34.5456   42.5715 H   0  0  0  0  0  0  0  0  0  0  0  0
   39.8703   34.1395   41.5661 H   0  0  0  0  0  0  0  0  0  0  0  0
   42.7246   34.0366   40.4430 H   0  0  0  0  0  0  0  0  0  0  0  0
   40.1008   31.3828   38.0944 H   0  0  0  0  0  0  0  0  0  0  0  0
   43.7692   33.6288   38.5717 H   0  0  0  0  0  0  0  0  0  0  0  0
   43.6095   30.2826   35.9645 H   0  0  0  0  0  0  0  0  0  0  0  0
   41.0835   29.7841   43.1312 H   0  0  0  0  0  0  0  0  0  0  0  0
   43.7171   30.2301   42.9440 H   0  0  0  0  0  0  0  0  0  0  0  0
   45.1189   31.6142   39.6977 H   0  0  0  0  0  0  0  0  0  0  0  0
   48.0655   34.1086   44.9993 H   0  0  0  0  0  0  0  0  0  0  0  0
   44.5942   33.9893   46.3314 H   0  0  0  0  0  0  0  0  0  0  0  0
   46.2664   34.4409   46.7585 H   0  0  0  0  0  0  0  0  0  0  0  0
  1  6  1  0
  2  1  1  0
  2  3  2  0
  3  4  1  0
  4  5  1  0
  6 13  1  0
  6  5  1  0
  7  8  2  0
  8  1  1  0
  9  8  1  0
 10  9  2  0
 11 12  2  0
 11 10  1  0
 12  7  1  0
 13 17  1  0
 13 14  1  0
 14 15  2  0
 16 15  1  0
 17 16  2  0
 18 17  1  0
 18 28  1  0
 19 20  2  0
 19 18  1  0
 20 21  1  0
 21 28  2  0
 21 22  1  0
 22 24  1  0
 23 22  2  0
 24 25  1  0
 25 26  1  0
 27 25  2  0
 28 27  1  0
  1 29  1  1
  2 30  1  0
  3 31  1  0
  4 32  1  0
  4 33  1  0
  5 34  1  0
  5 35  1  0
  6 36  1  6
  7 37  1  0
  9 38  1  0
 11 39  1  0
 15 40  1  0
 16 41  1  0
 19 42  1  0
 24 43  1  0
 26 44  1  0
 26 45  1  0
M  ISO  8  29  13  30  13  31  13  32  13  33  13  34  13  35  13  36  13
M  ISO  7  37  14  38  14  39  14  40  14  41  14  42  14  43   9
M  END
>  <minimizedAffinity>  (1) 
-6.03345442

>  <minimizedRMSD>  (1) 
7.54725361

$$$$
