
     RDKit          3D

 44 47  0  0  1  0  0  0  0  0999 V2000
   45.9680   33.3810   45.1910 C   0  0  2  0  0  0  0  0  0  0  0  0
   45.2560   34.3890   46.0550 C   0  0  0  0  0  0  0  0  0  0  0  0
   44.4680   35.4130   45.4500 C   0  0  0  0  0  0  0  0  0  0  0  0
   44.3430   35.4750   44.0210 C   0  0  0  0  0  0  0  0  0  0  0  0
   44.8260   34.3310   43.2160 C   0  0  0  0  0  0  0  0  0  0  0  0
   45.3020   33.1820   43.9330 C   0  0  1  0  0  0  0  0  0  0  0  0
   47.1510   32.1840   46.9930 C   0  0  0  0  0  0  0  0  0  0  0  0
   46.2110   32.1550   45.9750 C   0  0  0  0  0  0  0  0  0  0  0  0
   45.5590   30.9270   45.7380 C   0  0  0  0  0  0  0  0  0  0  0  0
   45.8670   29.8570   46.4900 N   0  0  0  0  0  0  0  0  0  0  0  0
   46.7880   29.9250   47.4700 C   0  0  0  0  0  0  0  0  0  0  0  0
   47.4230   31.0820   47.7160 N   0  0  0  0  0  0  0  0  0  0  0  0
   46.0650   32.4340   42.9400 N   0  0  0  0  0  0  0  0  0  0  0  0
   45.7890   31.2250   42.3930 N   0  0  0  0  0  0  0  0  0  0  0  0
   46.7670   31.0110   41.5040 C   0  0  0  0  0  0  0  0  0  0  0  0
   47.6350   32.0930   41.5180 C   0  0  0  0  0  0  0  0  0  0  0  0
   47.1730   33.0070   42.4550 C   0  0  0  0  0  0  0  0  0  0  0  0
   48.0580   34.1480   42.5620 C   0  0  0  0  0  0  0  0  0  0  0  0
   48.0320   34.9640   41.2800 C   0  0  0  0  0  0  0  0  0  0  0  0
   49.1780   35.9420   41.5660 C   0  0  0  0  0  0  0  0  0  0  0  0
   50.1300   35.1760   42.4770 C   0  0  0  0  0  0  0  0  0  0  0  0
   49.5600   33.7520   42.5160 C   0  0  0  0  0  0  0  0  0  0  0  0
   46.9557   33.7656   44.8969 H   0  0  0  0  0  0  0  0  0  0  0  0
   45.3435   34.3356   47.1502 H   0  0  0  0  0  0  0  0  0  0  0  0
   43.9556   36.1558   46.0790 H   0  0  0  0  0  0  0  0  0  0  0  0
   43.2741   35.6022   43.7945 H   0  0  0  0  0  0  0  0  0  0  0  0
   45.0041   36.3047   43.7304 H   0  0  0  0  0  0  0  0  0  0  0  0
   45.6515   34.6940   42.5861 H   0  0  0  0  0  0  0  0  0  0  0  0
   43.9421   33.9769   42.6653 H   0  0  0  0  0  0  0  0  0  0  0  0
   44.4431   32.6232   44.3330 H   0  0  0  0  0  0  0  0  0  0  0  0
   47.6826   33.1215   47.2133 H   0  0  0  0  0  0  0  0  0  0  0  0
   44.8033   30.8458   44.9428 H   0  0  0  0  0  0  0  0  0  0  0  0
   47.0202   29.0322   48.0692 H   0  0  0  0  0  0  0  0  0  0  0  0
   46.8662   30.1208   40.8655 H   0  0  0  0  0  0  0  0  0  0  0  0
   48.5340   32.2070   40.8944 H   0  0  0  0  0  0  0  0  0  0  0  0
   47.7275   34.6424   43.4874 H   0  0  0  0  0  0  0  0  0  0  0  0
   47.0729   35.4860   41.1474 H   0  0  0  0  0  0  0  0  0  0  0  0
   48.1413   34.3787   40.3551 H   0  0  0  0  0  0  0  0  0  0  0  0
   49.6834   36.2295   40.6322 H   0  0  0  0  0  0  0  0  0  0  0  0
   48.8211   36.8734   42.0298 H   0  0  0  0  0  0  0  0  0  0  0  0
   51.1491   35.1759   42.0628 H   0  0  0  0  0  0  0  0  0  0  0  0
   50.2036   35.6252   43.4784 H   0  0  0  0  0  0  0  0  0  0  0  0
   49.8147   33.1724   41.6165 H   0  0  0  0  0  0  0  0  0  0  0  0
   49.9214   33.0999   43.3248 H   0  0  0  0  0  0  0  0  0  0  0  0
  1  8  1  0
  1  2  1  0
  3  2  2  0
  4  3  1  0
  5  6  1  0
  5  4  1  0
  6  1  1  0
  7 12  2  0
  8  7  1  0
  9  8  2  0
  9 10  1  0
 10 11  2  0
 11 12  1  0
 13  6  1  0
 14 13  1  0
 15 16  1  0
 15 14  2  0
 16 17  2  0
 17 18  1  0
 17 13  1  0
 19 20  1  0
 19 18  1  0
 20 21  1  0
 21 22  1  0
 22 18  1  0
  1 23  1  6
  2 24  1  0
  3 25  1  0
  4 26  1  0
  4 27  1  0
  5 28  1  0
  5 29  1  0
  6 30  1  1
  7 31  1  0
  9 32  1  0
 11 33  1  0
 15 34  1  0
 16 35  1  0
 18 36  1  0
 19 37  1  0
 19 38  1  0
 20 39  1  0
 20 40  1  0
 21 41  1  0
 21 42  1  0
 22 43  1  0
 22 44  1  0
M  ISO  8  23  13  24  13  25  13  26  13  27  13  28  13  29  13  30  13
M  ISO  8  31  14  32  14  33  14  34  14  35  14  36  13  37  13  38  13
M  ISO  6  39  13  40  13  41  13  42  13  43  13  44  13
M  END
>  <minimizedAffinity>  (1) 
-5.52063417

>  <minimizedRMSD>  (1) 
1.97766733

$$$$
