
     RDKit          3D

 35 37  0  0  1  0  0  0  0  0999 V2000
   46.3030   33.9770   44.8010 C   0  0  2  0  0  0  0  0  0  0  0  0
   45.0710   34.7580   45.1700 C   0  0  0  0  0  0  0  0  0  0  0  0
   44.4720   35.6540   44.1820 C   0  0  0  0  0  0  0  0  0  0  0  0
   45.0440   35.7620   42.8490 C   0  0  0  0  0  0  0  0  0  0  0  0
   46.3860   35.1630   42.7020 C   0  0  0  0  0  0  0  0  0  0  0  0
   46.4760   33.8520   43.3700 C   0  0  1  0  0  0  0  0  0  0  0  0
   46.9960   32.7060   46.7900 C   0  0  0  0  0  0  0  0  0  0  0  0
   46.3330   32.7040   45.5620 C   0  0  0  0  0  0  0  0  0  0  0  0
   45.7440   31.5080   45.1010 C   0  0  0  0  0  0  0  0  0  0  0  0
   45.8420   30.4030   45.8620 N   0  0  0  0  0  0  0  0  0  0  0  0
   46.4870   30.4170   47.0460 C   0  0  0  0  0  0  0  0  0  0  0  0
   47.0540   31.5510   47.5020 N   0  0  0  0  0  0  0  0  0  0  0  0
   47.7580   33.3400   42.9530 N   0  0  0  0  0  0  0  0  0  0  0  0
   48.3390   32.1500   43.0950 N   0  0  0  0  0  0  0  0  0  0  0  0
   49.5160   32.1610   42.5050 C   0  0  0  0  0  0  0  0  0  0  0  0
   49.6960   33.4200   41.9600 C   0  0  0  0  0  0  0  0  0  0  0  0
   48.5700   34.1320   42.2650 C   0  0  0  0  0  0  0  0  0  0  0  0
   48.7610   35.4520   41.7280 C   0  0  0  0  0  0  0  0  0  0  0  0
   49.1720   36.0650   40.7470 O   0  0  0  0  0  0  0  0  0  0  0  0
   47.1987   34.5383   45.1055 H   0  0  0  0  0  0  0  0  0  0  0  0
   44.6264   34.6561   46.1710 H   0  0  0  0  0  0  0  0  0  0  0  0
   43.5855   36.2486   44.4477 H   0  0  0  0  0  0  0  0  0  0  0  0
   44.3657   35.2598   42.1435 H   0  0  0  0  0  0  0  0  0  0  0  0
   45.1603   36.8371   42.6474 H   0  0  0  0  0  0  0  0  0  0  0  0
   46.6026   35.0328   41.6314 H   0  0  0  0  0  0  0  0  0  0  0  0
   47.1154   35.8380   43.1735 H   0  0  0  0  0  0  0  0  0  0  0  0
   45.6757   33.1507   43.0912 H   0  0  0  0  0  0  0  0  0  0  0  0
   47.4626   33.6253   47.1738 H   0  0  0  0  0  0  0  0  0  0  0  0
   45.2145   31.4794   44.1373 H   0  0  0  0  0  0  0  0  0  0  0  0
   46.5508   29.4959   47.6440 H   0  0  0  0  0  0  0  0  0  0  0  0
   50.2263   31.3226   42.4546 H   0  0  0  0  0  0  0  0  0  0  0  0
   50.5698   33.7763   41.3948 H   0  0  0  0  0  0  0  0  0  0  0  0
   47.7360   35.8456   41.7950 H   0  0  0  0  0  0  0  0  0  0  0  0
   49.7422   35.5339   42.2184 H   0  0  0  0  0  0  0  0  0  0  0  0
   49.6978   36.8493   41.0444 H   0  0  0  0  0  0  0  0  0  0  0  0
  1  2  1  0
  1  8  1  0
  3  2  2  0
  4  3  1  0
  5  4  1  0
  5  6  1  0
  6  1  1  0
  7 12  2  0
  8  7  1  0
  9  8  2  0
  9 10  1  0
 10 11  2  0
 11 12  1  0
 13 14  1  0
 13  6  1  0
 15 14  2  0
 16 17  2  0
 16 15  1  0
 17 13  1  0
 18 17  1  0
 19 18  1  0
  1 20  1  1
  2 21  1  0
  3 22  1  0
  4 23  1  0
  4 24  1  0
  5 25  1  0
  5 26  1  0
  6 27  1  6
  7 28  1  0
  9 29  1  0
 11 30  1  0
 15 31  1  0
 16 32  1  0
 18 33  1  0
 18 34  1  0
 19 35  1  0
M  ISO  8  20  13  21  13  22  13  23  13  24  13  25  13  26  13  27  13
M  ISO  8  28  14  29  14  30  14  31  14  32  14  33   8  34   8  35   3
M  END
>  <minimizedAffinity>  (1) 
-5.31923389

>  <minimizedRMSD>  (1) 
0.685651779

$$$$
