
     RDKit          3D

 33 35  0  0  1  0  0  0  0  0999 V2000
   49.0610   33.7300   42.7020 C   0  0  2  0  0  0  0  0  0  0  0  0
   47.6680   33.9770   42.4820 C   0  0  2  0  0  0  0  0  0  0  0  0
   47.6100   35.4010   41.8850 C   0  0  0  0  0  0  0  0  0  0  0  0
   48.9830   35.8090   41.4770 C   0  0  0  0  0  0  0  0  0  0  0  0
   49.7940   35.1020   42.4970 C   0  0  0  0  0  0  0  0  0  0  0  0
   49.7640   32.8110   41.7960 C   0  0  0  0  0  0  0  0  0  0  0  0
   48.9780   32.1380   40.8330 C   0  0  0  0  0  0  0  0  0  0  0  0
   49.6240   31.2960   39.9360 C   0  0  0  0  0  0  0  0  0  0  0  0
   50.9960   31.1810   40.0570 N   0  0  0  0  0  0  0  0  0  0  0  0
   51.7120   31.8270   40.9750 C   0  0  0  0  0  0  0  0  0  0  0  0
   51.0780   32.6240   41.8210 N   0  0  0  0  0  0  0  0  0  0  0  0
   46.7860   33.9410   43.6880 C   0  0  0  0  0  0  0  0  0  0  0  0
   45.9410   34.7690   43.8980 O   0  0  0  0  0  0  0  0  0  0  0  0
   46.9470   32.8310   44.6600 C   0  0  0  0  0  0  0  0  0  0  0  0
   46.7400   33.1000   46.0190 C   0  0  0  0  0  0  0  0  0  0  0  0
   46.8460   32.1970   47.0440 C   0  0  0  0  0  0  0  0  0  0  0  0
   47.1880   30.9360   46.6580 N   0  0  0  0  0  0  0  0  0  0  0  0
   47.3880   30.6790   45.3560 C   0  0  0  0  0  0  0  0  0  0  0  0
   47.2750   31.5850   44.3740 N   0  0  0  0  0  0  0  0  0  0  0  0
   49.0913   33.2639   43.6979 H   0  0  0  0  0  0  0  0  0  0  0  0
   47.2833   33.1692   41.8421 H   0  0  0  0  0  0  0  0  0  0  0  0
   46.9469   35.4068   41.0074 H   0  0  0  0  0  0  0  0  0  0  0  0
   47.2196   36.1042   42.6354 H   0  0  0  0  0  0  0  0  0  0  0  0
   49.2224   35.4659   40.4597 H   0  0  0  0  0  0  0  0  0  0  0  0
   49.1439   36.8965   41.4390 H   0  0  0  0  0  0  0  0  0  0  0  0
   50.8208   34.9438   42.1357 H   0  0  0  0  0  0  0  0  0  0  0  0
   49.8793   35.6739   43.4327 H   0  0  0  0  0  0  0  0  0  0  0  0
   47.8874   32.2767   40.7948 H   0  0  0  0  0  0  0  0  0  0  0  0
   49.0677   30.7450   39.1633 H   0  0  0  0  0  0  0  0  0  0  0  0
   52.8035   31.7016   41.0292 H   0  0  0  0  0  0  0  0  0  0  0  0
   46.4672   34.1311   46.2881 H   0  0  0  0  0  0  0  0  0  0  0  0
   46.6690   32.4686   48.0951 H   0  0  0  0  0  0  0  0  0  0  0  0
   47.6643   29.6521   45.0745 H   0  0  0  0  0  0  0  0  0  0  0  0
  2  1  1  0
  2 12  1  0
  3  2  1  0
  4  3  1  0
  4  5  1  0
  5  1  1  0
  6 11  1  0
  6  1  1  0
  7  6  2  0
  8  9  2  0
  8  7  1  0
  9 10  1  0
 10 11  2  0
 12 13  2  0
 12 14  1  0
 14 15  2  0
 15 16  1  0
 17 16  2  0
 18 17  1  0
 19 14  1  0
 19 18  2  0
  1 20  1  1
  2 21  1  6
  3 22  1  0
  3 23  1  0
  4 24  1  0
  4 25  1  0
  5 26  1  0
  5 27  1  0
  7 28  1  0
  8 29  1  0
 10 30  1  0
 15 31  1  0
 16 32  1  0
 18 33  1  0
M  ISO  8  20  13  21  13  22  13  23  13  24  13  25  13  26  13  27  13
M  ISO  6  28  14  29  14  30  14  31  14  32  14  33  14
M  END
>  <minimizedAffinity>  (1) 
-5.13859701

>  <minimizedRMSD>  (1) 
0.216174662

$$$$
