
     RDKit          3D

 38 41  0  0  1  0  0  0  0  0999 V2000
   46.3150   33.4320   45.4930 C   0  0  2  0  0  0  0  0  0  0  0  0
   45.2570   34.4660   45.8260 C   0  0  0  0  0  0  0  0  0  0  0  0
   44.5420   35.1330   44.7270 C   0  0  0  0  0  0  0  0  0  0  0  0
   44.8320   34.7710   43.3480 C   0  0  0  0  0  0  0  0  0  0  0  0
   46.1350   34.0850   43.1910 C   0  0  0  0  0  0  0  0  0  0  0  0
   46.1760   32.9230   44.1390 C   0  0  1  0  0  0  0  0  0  0  0  0
   47.3170   32.6020   47.5720 C   0  0  0  0  0  0  0  0  0  0  0  0
   46.3780   32.4250   46.5650 C   0  0  0  0  0  0  0  0  0  0  0  0
   45.5450   31.2910   46.6050 C   0  0  0  0  0  0  0  0  0  0  0  0
   45.6910   30.4160   47.6190 N   0  0  0  0  0  0  0  0  0  0  0  0
   46.6080   30.6030   48.5880 C   0  0  0  0  0  0  0  0  0  0  0  0
   47.4100   31.6820   48.5610 N   0  0  0  0  0  0  0  0  0  0  0  0
   47.2880   32.1380   43.6630 N   0  0  0  0  0  0  0  0  0  0  0  0
   47.5790   30.8380   43.8430 N   0  0  0  0  0  0  0  0  0  0  0  0
   48.6980   30.5770   43.1820 C   0  0  0  0  0  0  0  0  0  0  0  0
   49.1200   31.7450   42.5720 C   0  0  0  0  0  0  0  0  0  0  0  0
   48.2070   32.7310   42.8920 C   0  0  0  0  0  0  0  0  0  0  0  0
   48.6110   33.9600   42.2840 N   0  0  0  0  0  0  0  0  0  0  0  0
   48.2200   34.2330   41.0210 N   0  0  0  0  0  0  0  0  0  0  0  0
   48.6940   35.4320   40.6450 C   0  0  0  0  0  0  0  0  0  0  0  0
   49.4080   35.9250   41.7170 C   0  0  0  0  0  0  0  0  0  0  0  0
   49.3670   35.0130   42.7540 C   0  0  0  0  0  0  0  0  0  0  0  0
   47.3105   33.8994   45.4717 H   0  0  0  0  0  0  0  0  0  0  0  0
   45.0278   34.7134   46.8730 H   0  0  0  0  0  0  0  0  0  0  0  0
   43.7893   35.9042   44.9474 H   0  0  0  0  0  0  0  0  0  0  0  0
   44.0376   34.1012   42.9871 H   0  0  0  0  0  0  0  0  0  0  0  0
   44.8791   35.7034   42.7663 H   0  0  0  0  0  0  0  0  0  0  0  0
   46.2430   33.7250   42.1572 H   0  0  0  0  0  0  0  0  0  0  0  0
   46.9575   34.7814   43.4111 H   0  0  0  0  0  0  0  0  0  0  0  0
   45.2716   32.2977   44.1716 H   0  0  0  0  0  0  0  0  0  0  0  0
   47.9787   33.4807   47.5665 H   0  0  0  0  0  0  0  0  0  0  0  0
   44.7895   31.1225   45.8235 H   0  0  0  0  0  0  0  0  0  0  0  0
   46.7010   29.8709   49.4037 H   0  0  0  0  0  0  0  0  0  0  0  0
   49.2033   29.6014   43.1279 H   0  0  0  0  0  0  0  0  0  0  0  0
   50.0173   31.8661   41.9473 H   0  0  0  0  0  0  0  0  0  0  0  0
   48.5425   35.9242   39.6730 H   0  0  0  0  0  0  0  0  0  0  0  0
   49.9290   36.8935   41.7424 H   0  0  0  0  0  0  0  0  0  0  0  0
   49.8374   35.1069   43.7439 H   0  0  0  0  0  0  0  0  0  0  0  0
  1  2  1  0
  1  8  1  0
  3  2  2  0
  4  3  1  0
  5  4  1  0
  5  6  1  0
  6  1  1  0
  7 12  2  0
  8  9  2  0
  8  7  1  0
  9 10  1  0
 10 11  2  0
 12 11  1  0
 13 14  1  0
 13  6  1  0
 15 14  2  0
 16 17  2  0
 16 15  1  0
 17 13  1  0
 18 22  1  0
 18 17  1  0
 19 18  1  0
 20 19  2  0
 20 21  1  0
 21 22  2  0
  1 23  1  6
  2 24  1  0
  3 25  1  0
  4 26  1  0
  4 27  1  0
  5 28  1  0
  5 29  1  0
  6 30  1  1
  7 31  1  0
  9 32  1  0
 11 33  1  0
 15 34  1  0
 16 35  1  0
 20 36  1  0
 21 37  1  0
 22 38  1  0
M  ISO  8  23  13  24  13  25  13  26  13  27  13  28  13  29  13  30  13
M  ISO  8  31  14  32  14  33  14  34  14  35  14  36  14  37  14  38  14
M  END
>  <minimizedAffinity>  (1) 
-5.21671391

>  <minimizedRMSD>  (1) 
1.85375237

$$$$
