
     RDKit          3D

 38 41  0  0  1  0  0  0  0  0999 V2000
   46.0730   33.8020   44.6290 C   0  0  2  0  0  0  0  0  0  0  0  0
   45.1440   34.7510   45.3260 C   0  0  0  0  0  0  0  0  0  0  0  0
   44.3690   35.7070   44.5550 C   0  0  0  0  0  0  0  0  0  0  0  0
   44.4740   35.7110   43.1210 C   0  0  0  0  0  0  0  0  0  0  0  0
   45.3820   34.7670   42.4740 C   0  0  0  0  0  0  0  0  0  0  0  0
   45.7330   33.6070   43.2560 C   0  0  1  0  0  0  0  0  0  0  0  0
   46.8810   32.6280   46.6340 C   0  0  0  0  0  0  0  0  0  0  0  0
   46.1980   32.5640   45.4340 C   0  0  0  0  0  0  0  0  0  0  0  0
   45.6860   31.3120   45.0470 C   0  0  0  0  0  0  0  0  0  0  0  0
   45.8710   30.2410   45.8360 N   0  0  0  0  0  0  0  0  0  0  0  0
   46.5410   30.3360   47.0000 C   0  0  0  0  0  0  0  0  0  0  0  0
   47.0380   31.5200   47.3900 N   0  0  0  0  0  0  0  0  0  0  0  0
   46.7030   32.9020   42.4420 N   0  0  0  0  0  0  0  0  0  0  0  0
   46.5180   31.7780   41.6990 N   0  0  0  0  0  0  0  0  0  0  0  0
   47.6650   31.5660   41.0780 C   0  0  0  0  0  0  0  0  0  0  0  0
   48.5470   32.5580   41.4450 C   0  0  0  0  0  0  0  0  0  0  0  0
   47.9210   33.4270   42.3380 C   0  0  0  0  0  0  0  0  0  0  0  0
   48.7830   34.4850   42.8670 C   0  0  0  0  0  0  0  0  0  0  0  0
   49.2400   35.5390   41.8410 C   0  0  0  0  0  0  0  0  0  0  0  0
   50.2510   34.6430   42.4220 C   0  0  0  0  0  0  0  0  0  0  0  0
   47.0788   34.2432   44.5687 H   0  0  0  0  0  0  0  0  0  0  0  0
   45.0496   34.7229   46.4216 H   0  0  0  0  0  0  0  0  0  0  0  0
   43.7067   36.4226   45.0642 H   0  0  0  0  0  0  0  0  0  0  0  0
   43.4674   35.5137   42.7237 H   0  0  0  0  0  0  0  0  0  0  0  0
   44.9094   36.6948   42.8915 H   0  0  0  0  0  0  0  0  0  0  0  0
   44.9039   34.4184   41.5467 H   0  0  0  0  0  0  0  0  0  0  0  0
   46.3211   35.3158   42.3099 H   0  0  0  0  0  0  0  0  0  0  0  0
   44.8390   32.9953   43.4475 H   0  0  0  0  0  0  0  0  0  0  0  0
   47.2989   33.5866   46.9751 H   0  0  0  0  0  0  0  0  0  0  0  0
   45.1353   31.2105   44.1002 H   0  0  0  0  0  0  0  0  0  0  0  0
   46.6807   29.4451   47.6299 H   0  0  0  0  0  0  0  0  0  0  0  0
   47.8789   30.7382   40.3859 H   0  0  0  0  0  0  0  0  0  0  0  0
   49.5837   32.6504   41.0891 H   0  0  0  0  0  0  0  0  0  0  0  0
   48.2905   34.4373   43.8494 H   0  0  0  0  0  0  0  0  0  0  0  0
   49.2339   36.6046   42.1139 H   0  0  0  0  0  0  0  0  0  0  0  0
   48.9379   35.7937   40.8144 H   0  0  0  0  0  0  0  0  0  0  0  0
   50.7182   33.8683   41.7962 H   0  0  0  0  0  0  0  0  0  0  0  0
   51.2028   34.7977   42.9512 H   0  0  0  0  0  0  0  0  0  0  0  0
  1  2  1  0
  1  8  1  0
  3  2  2  0
  4  3  1  0
  5  4  1  0
  5  6  1  0
  6  1  1  0
  7 12  2  0
  8  7  1  0
  9  8  2  0
  9 10  1  0
 10 11  2  0
 11 12  1  0
 13  6  1  0
 14 13  1  0
 15 16  1  0
 15 14  2  0
 16 17  2  0
 17 13  1  0
 17 18  1  0
 19 20  1  0
 19 18  1  0
 20 18  1  0
  1 21  1  6
  2 22  1  0
  3 23  1  0
  4 24  1  0
  4 25  1  0
  5 26  1  0
  5 27  1  0
  6 28  1  1
  7 29  1  0
  9 30  1  0
 11 31  1  0
 15 32  1  0
 16 33  1  0
 18 34  1  0
 19 35  1  0
 19 36  1  0
 20 37  1  0
 20 38  1  0
M  ISO  8  21  13  22  13  23  13  24  13  25  13  26  13  27  13  28  13
M  ISO  8  29  14  30  14  31  14  32  14  33  14  34  13  35  13  36  13
M  ISO  2  37  13  38  13
M  END
>  <minimizedAffinity>  (1) 
-5.175457

>  <minimizedRMSD>  (1) 
1.22165763

$$$$
