
     RDKit          3D

 32 34  0  0  1  0  0  0  0  0999 V2000
   46.4520   33.7410   44.6250 C   0  0  2  0  0  0  0  0  0  0  0  0
   45.3330   34.6310   45.1110 C   0  0  0  0  0  0  0  0  0  0  0  0
   44.7470   35.6030   44.1980 C   0  0  0  0  0  0  0  0  0  0  0  0
   45.2290   35.6990   42.8250 C   0  0  0  0  0  0  0  0  0  0  0  0
   46.4930   34.9880   42.5640 C   0  0  0  0  0  0  0  0  0  0  0  0
   46.4960   33.6360   43.1730 C   0  0  1  0  0  0  0  0  0  0  0  0
   47.0230   32.4030   46.6120 C   0  0  0  0  0  0  0  0  0  0  0  0
   46.4290   32.4620   45.3620 C   0  0  0  0  0  0  0  0  0  0  0  0
   45.8460   31.2840   44.8390 C   0  0  0  0  0  0  0  0  0  0  0  0
   45.8880   30.1550   45.5700 N   0  0  0  0  0  0  0  0  0  0  0  0
   46.4710   30.1210   46.7840 C   0  0  0  0  0  0  0  0  0  0  0  0
   47.0310   31.2310   47.2960 N   0  0  0  0  0  0  0  0  0  0  0  0
   47.7170   33.0400   42.6590 N   0  0  0  0  0  0  0  0  0  0  0  0
   47.9420   31.8940   41.9940 N   0  0  0  0  0  0  0  0  0  0  0  0
   49.2590   31.8310   41.7400 C   0  0  0  0  0  0  0  0  0  0  0  0
   49.8650   32.9630   42.2610 C   0  0  0  0  0  0  0  0  0  0  0  0
   48.8710   33.7140   42.8400 C   0  0  0  0  0  0  0  0  0  0  0  0
   49.4660   34.8580   43.3730 O   0  0  0  0  0  0  0  0  0  0  0  0
   47.4206   34.2065   44.8596 H   0  0  0  0  0  0  0  0  0  0  0  0
   44.9642   34.5461   46.1439 H   0  0  0  0  0  0  0  0  0  0  0  0
   43.9400   36.2653   44.5446 H   0  0  0  0  0  0  0  0  0  0  0  0
   44.4577   35.2812   42.1613 H   0  0  0  0  0  0  0  0  0  0  0  0
   45.4287   36.7648   42.6401 H   0  0  0  0  0  0  0  0  0  0  0  0
   46.6292   34.8899   41.4769 H   0  0  0  0  0  0  0  0  0  0  0  0
   47.3126   35.5686   43.0125 H   0  0  0  0  0  0  0  0  0  0  0  0
   45.6226   33.0162   42.9219 H   0  0  0  0  0  0  0  0  0  0  0  0
   47.4855   33.3009   47.0476 H   0  0  0  0  0  0  0  0  0  0  0  0
   45.3655   31.2908   43.8495 H   0  0  0  0  0  0  0  0  0  0  0  0
   46.4889   29.1827   47.3579 H   0  0  0  0  0  0  0  0  0  0  0  0
   49.7715   31.0165   41.2071 H   0  0  0  0  0  0  0  0  0  0  0  0
   50.9356   33.2122   42.2191 H   0  0  0  0  0  0  0  0  0  0  0  0
   50.4428   34.9941   43.2864 H   0  0  0  0  0  0  0  0  0  0  0  0
  1  2  1  0
  1  8  1  0
  3  2  2  0
  4  3  1  0
  5  4  1  0
  5  6  1  0
  6  1  1  0
  7 12  2  0
  8  7  1  0
  9  8  2  0
  9 10  1  0
 10 11  2  0
 11 12  1  0
 13 17  1  0
 13  6  1  0
 14 13  1  0
 15 14  2  0
 15 16  1  0
 16 17  2  0
 17 18  1  0
  1 19  1  1
  2 20  1  0
  3 21  1  0
  4 22  1  0
  4 23  1  0
  5 24  1  0
  5 25  1  0
  6 26  1  6
  7 27  1  0
  9 28  1  0
 11 29  1  0
 15 30  1  0
 16 31  1  0
 18 32  1  0
M  ISO  8  19  13  20  13  21  13  22  13  23  13  24  13  25  13  26  13
M  ISO  6  27  14  28  14  29  14  30  14  31  14  32   3
M  END
>  <minimizedAffinity>  (1) 
-4.97730255

>  <minimizedRMSD>  (1) 
0.525700212

$$$$
