
     RDKit          3D

 33 35  0  0  1  0  0  0  0  0999 V2000
   46.4500   33.7350   44.6190 C   0  0  2  0  0  0  0  0  0  0  0  0
   45.3340   34.6320   45.1140 C   0  0  0  0  0  0  0  0  0  0  0  0
   44.7450   35.6070   44.2020 C   0  0  0  0  0  0  0  0  0  0  0  0
   45.2140   35.6960   42.8290 C   0  0  0  0  0  0  0  0  0  0  0  0
   46.4670   34.9730   42.5500 C   0  0  0  0  0  0  0  0  0  0  0  0
   46.4700   33.6300   43.1720 C   0  0  1  0  0  0  0  0  0  0  0  0
   47.0250   32.4050   46.6050 C   0  0  0  0  0  0  0  0  0  0  0  0
   46.4230   32.4580   45.3580 C   0  0  0  0  0  0  0  0  0  0  0  0
   45.8330   31.2810   44.8520 C   0  0  0  0  0  0  0  0  0  0  0  0
   45.8750   30.1580   45.5890 N   0  0  0  0  0  0  0  0  0  0  0  0
   46.4650   30.1310   46.8000 C   0  0  0  0  0  0  0  0  0  0  0  0
   47.0320   31.2420   47.3000 N   0  0  0  0  0  0  0  0  0  0  0  0
   47.6630   33.0080   42.6320 N   0  0  0  0  0  0  0  0  0  0  0  0
   47.8370   31.8500   41.9740 N   0  0  0  0  0  0  0  0  0  0  0  0
   49.1390   31.7600   41.6690 C   0  0  0  0  0  0  0  0  0  0  0  0
   49.7860   32.8900   42.1510 C   0  0  0  0  0  0  0  0  0  0  0  0
   48.8300   33.6660   42.7600 C   0  0  0  0  0  0  0  0  0  0  0  0
   49.4680   34.8290   43.2780 N   0  0  0  0  0  0  0  0  0  0  0  0
   47.4261   34.1902   44.8426 H   0  0  0  0  0  0  0  0  0  0  0  0
   44.9717   34.5492   46.1493 H   0  0  0  0  0  0  0  0  0  0  0  0
   43.9453   36.2753   44.5539 H   0  0  0  0  0  0  0  0  0  0  0  0
   44.4309   35.2866   42.1739 H   0  0  0  0  0  0  0  0  0  0  0  0
   45.4259   36.7597   42.6453 H   0  0  0  0  0  0  0  0  0  0  0  0
   46.5810   34.8627   41.4615 H   0  0  0  0  0  0  0  0  0  0  0  0
   47.3005   35.5514   42.9751 H   0  0  0  0  0  0  0  0  0  0  0  0
   45.5807   33.0232   42.9466 H   0  0  0  0  0  0  0  0  0  0  0  0
   47.4956   33.3042   47.0292 H   0  0  0  0  0  0  0  0  0  0  0  0
   45.3446   31.2823   43.8664 H   0  0  0  0  0  0  0  0  0  0  0  0
   46.4826   29.1971   47.3809 H   0  0  0  0  0  0  0  0  0  0  0  0
   49.6154   30.9296   41.1273 H   0  0  0  0  0  0  0  0  0  0  0  0
   50.8581   33.1197   42.0622 H   0  0  0  0  0  0  0  0  0  0  0  0
   50.4806   34.9632   43.1454 H   0  0  0  0  0  0  0  0  0  0  0  0
   48.9169   35.5360   43.7852 H   0  0  0  0  0  0  0  0  0  0  0  0
  1  2  1  0
  1  8  1  0
  3  2  2  0
  4  3  1  0
  5  4  1  0
  5  6  1  0
  6  1  1  0
  7 12  2  0
  8  7  1  0
  9  8  2  0
  9 10  1  0
 10 11  2  0
 11 12  1  0
 13 17  1  0
 13  6  1  0
 14 13  1  0
 15 14  2  0
 15 16  1  0
 16 17  2  0
 17 18  1  0
  1 19  1  1
  2 20  1  0
  3 21  1  0
  4 22  1  0
  4 23  1  0
  5 24  1  0
  5 25  1  0
  6 26  1  6
  7 27  1  0
  9 28  1  0
 11 29  1  0
 15 30  1  0
 16 31  1  0
 18 32  1  0
 18 33  1  0
M  ISO  8  19  13  20  13  21  13  22  13  23  13  24  13  25  13  26  13
M  ISO  5  27  14  28  14  29  14  30  14  31  14
M  END
>  <minimizedAffinity>  (1) 
-4.94432878

>  <minimizedRMSD>  (1) 
0.562551796

$$$$
