
     RDKit          3D

 38 41  0  0  1  0  0  0  0  0999 V2000
   45.1780   33.3520   43.0340 C   0  0  2  0  0  0  0  0  0  0  0  0
   45.1530   33.9360   44.4260 C   0  0  0  0  0  0  0  0  0  0  0  0
   44.9670   35.3440   44.6220 C   0  0  0  0  0  0  0  0  0  0  0  0
   44.7900   36.1890   43.4760 C   0  0  0  0  0  0  0  0  0  0  0  0
   44.7220   35.6090   42.1490 C   0  0  0  0  0  0  0  0  0  0  0  0
   44.4520   34.1870   42.1020 C   0  0  1  0  0  0  0  0  0  0  0  0
   45.5400   31.0230   43.7200 C   0  0  0  0  0  0  0  0  0  0  0  0
   44.6930   31.9420   43.0870 C   0  0  0  0  0  0  0  0  0  0  0  0
   43.4820   31.4850   42.5370 C   0  0  0  0  0  0  0  0  0  0  0  0
   43.1760   30.1800   42.6360 N   0  0  0  0  0  0  0  0  0  0  0  0
   43.9960   29.3020   43.2450 C   0  0  0  0  0  0  0  0  0  0  0  0
   45.1570   29.7180   43.7770 N   0  0  0  0  0  0  0  0  0  0  0  0
   44.6650   33.8290   40.6980 N   0  0  0  0  0  0  0  0  0  0  0  0
   45.8300   33.4110   40.1190 N   0  0  0  0  0  0  0  0  0  0  0  0
   45.5350   33.0950   38.8760 C   0  0  0  0  0  0  0  0  0  0  0  0
   44.2050   33.3180   38.6900 C   0  0  0  0  0  0  0  0  0  0  0  0
   43.6330   33.8040   39.8790 C   0  0  0  0  0  0  0  0  0  0  0  0
   42.1810   34.1880   39.8640 C   0  0  0  0  0  0  0  0  0  0  0  0
   41.6370   34.9400   38.7420 C   0  0  0  0  0  0  0  0  0  0  0  0
   40.3180   35.1760   38.8470 C   0  0  0  0  0  0  0  0  0  0  0  0
   39.4710   34.7730   39.9000 C   0  0  0  0  0  0  0  0  0  0  0  0
   40.8290   33.9160   40.8840 S   0  0  0  0  0  0  0  0  0  0  0  0
   46.2089   33.3288   42.6511 H   0  0  0  0  0  0  0  0  0  0  0  0
   45.2785   33.2759   45.2969 H   0  0  0  0  0  0  0  0  0  0  0  0
   44.9601   35.7702   45.6361 H   0  0  0  0  0  0  0  0  0  0  0  0
   43.8502   36.7396   43.6300 H   0  0  0  0  0  0  0  0  0  0  0  0
   45.7213   36.7738   43.4479 H   0  0  0  0  0  0  0  0  0  0  0  0
   43.9233   36.1239   41.5949 H   0  0  0  0  0  0  0  0  0  0  0  0
   45.7224   35.7405   41.7109 H   0  0  0  0  0  0  0  0  0  0  0  0
   43.4269   33.9899   42.4488 H   0  0  0  0  0  0  0  0  0  0  0  0
   46.4935   31.3488   44.1612 H   0  0  0  0  0  0  0  0  0  0  0  0
   42.7970   32.1836   42.0344 H   0  0  0  0  0  0  0  0  0  0  0  0
   43.7139   28.2406   43.3069 H   0  0  0  0  0  0  0  0  0  0  0  0
   46.2393   32.7171   38.1202 H   0  0  0  0  0  0  0  0  0  0  0  0
   43.6597   33.1441   37.7506 H   0  0  0  0  0  0  0  0  0  0  0  0
   42.2458   35.2814   37.8919 H   0  0  0  0  0  0  0  0  0  0  0  0
   39.8512   35.7417   38.0272 H   0  0  0  0  0  0  0  0  0  0  0  0
   38.3950   34.9108   40.0825 H   0  0  0  0  0  0  0  0  0  0  0  0
  1  8  1  0
  1  2  1  0
  2  3  2  0
  4  3  1  0
  5  4  1  0
  6  5  1  0
  6  1  1  0
  7 12  2  0
  8  7  1  0
  9 10  1  0
  9  8  2  0
 10 11  2  0
 11 12  1  0
 13  6  1  0
 14 13  1  0
 15 14  2  0
 16 15  1  0
 16 17  2  0
 17 13  1  0
 18 17  1  0
 18 22  1  0
 19 20  1  0
 19 18  2  0
 20 21  2  0
 21 22  1  0
  1 23  1  6
  2 24  1  0
  3 25  1  0
  4 26  1  0
  4 27  1  0
  5 28  1  0
  5 29  1  0
  6 30  1  1
  7 31  1  0
  9 32  1  0
 11 33  1  0
 15 34  1  0
 16 35  1  0
 19 36  1  0
 20 37  1  0
 21 38  1  0
M  ISO  8  23  13  24  13  25  13  26  13  27  13  28  13  29  13  30  13
M  ISO  8  31  14  32  14  33  14  34  14  35  14  36  14  37  14  38  14
M  END
>  <minimizedAffinity>  (1) 
-4.77209759

>  <minimizedRMSD>  (1) 
5.68588591

$$$$
