
     RDKit          3D

 43 45  0  0  1  0  0  0  0  0999 V2000
   44.2500   33.1790   40.7310 C   0  0  2  0  0  0  0  0  0  0  0  0
   43.2080   33.5450   39.7080 C   0  0  0  0  0  0  0  0  0  0  0  0
   42.4970   34.7860   39.8270 C   0  0  0  0  0  0  0  0  0  0  0  0
   42.7930   35.6780   40.9270 C   0  0  0  0  0  0  0  0  0  0  0  0
   44.0700   35.4950   41.6280 C   0  0  0  0  0  0  0  0  0  0  0  0
   44.8610   34.3490   41.2920 C   0  0  1  0  0  0  0  0  0  0  0  0
   45.6670   31.1750   40.9030 C   0  0  0  0  0  0  0  0  0  0  0  0
   45.1960   32.2350   40.1250 C   0  0  0  0  0  0  0  0  0  0  0  0
   45.6870   32.3330   38.8100 C   0  0  0  0  0  0  0  0  0  0  0  0
   46.5730   31.4450   38.3290 N   0  0  0  0  0  0  0  0  0  0  0  0
   47.0110   30.4280   39.1160 C   0  0  0  0  0  0  0  0  0  0  0  0
   46.5630   30.3030   40.3720 N   0  0  0  0  0  0  0  0  0  0  0  0
   45.7330   34.1570   42.4240 N   0  0  0  0  0  0  0  0  0  0  0  0
   45.4350   33.8670   43.7060 N   0  0  0  0  0  0  0  0  0  0  0  0
   46.5650   33.7360   44.3490 C   0  0  0  0  0  0  0  0  0  0  0  0
   47.5850   33.9480   43.4580 C   0  0  0  0  0  0  0  0  0  0  0  0
   47.0600   34.2310   42.1780 C   0  0  0  0  0  0  0  0  0  0  0  0
   48.1270   34.4980   41.2470 C   0  0  0  0  0  0  0  0  0  0  0  0
   48.0450   34.6420   39.8400 C   0  0  0  0  0  0  0  0  0  0  0  0
   48.9200   35.7870   41.6740 C   0  0  0  0  0  0  0  0  0  0  0  0
   49.2250   33.4490   41.4240 C   0  0  0  0  0  0  0  0  0  0  0  0
   43.7868   32.6704   41.5893 H   0  0  0  0  0  0  0  0  0  0  0  0
   42.9922   32.8635   38.8720 H   0  0  0  0  0  0  0  0  0  0  0  0
   41.7310   35.0576   39.0857 H   0  0  0  0  0  0  0  0  0  0  0  0
   42.7795   36.7041   40.5309 H   0  0  0  0  0  0  0  0  0  0  0  0
   42.0258   35.4528   41.6824 H   0  0  0  0  0  0  0  0  0  0  0  0
   44.6835   36.3861   41.4291 H   0  0  0  0  0  0  0  0  0  0  0  0
   43.7873   35.3364   42.6791 H   0  0  0  0  0  0  0  0  0  0  0  0
   45.4115   34.5686   40.3653 H   0  0  0  0  0  0  0  0  0  0  0  0
   45.3152   31.0473   41.9374 H   0  0  0  0  0  0  0  0  0  0  0  0
   45.3388   33.1521   38.1636 H   0  0  0  0  0  0  0  0  0  0  0  0
   47.7374   29.7033   38.7196 H   0  0  0  0  0  0  0  0  0  0  0  0
   46.6779   33.4976   45.4169 H   0  0  0  0  0  0  0  0  0  0  0  0
   48.6562   33.9041   43.7042 H   0  0  0  0  0  0  0  0  0  0  0  0
   47.5141   35.5743   39.5972 H   0  0  0  0  0  0  0  0  0  0  0  0
   49.0591   34.6762   39.4152 H   0  0  0  0  0  0  0  0  0  0  0  0
   47.4981   33.7873   39.4152 H   0  0  0  0  0  0  0  0  0  0  0  0
   48.9573   35.8477   42.7717 H   0  0  0  0  0  0  0  0  0  0  0  0
   49.9437   35.7369   41.2745 H   0  0  0  0  0  0  0  0  0  0  0  0
   48.4137   36.6781   41.2745 H   0  0  0  0  0  0  0  0  0  0  0  0
   49.4015   33.2804   42.4966 H   0  0  0  0  0  0  0  0  0  0  0  0
   48.9113   32.5065   40.9514 H   0  0  0  0  0  0  0  0  0  0  0  0
   50.1522   33.8054   40.9514 H   0  0  0  0  0  0  0  0  0  0  0  0
  1  6  1  0
  2  3  2  0
  2  1  1  0
  3  4  1  0
  4  5  1  0
  6  5  1  0
  6 13  1  0
  8  1  1  0
  8  7  2  0
  9  8  1  0
 10  9  2  0
 10 11  1  0
 11 12  2  0
 12  7  1  0
 13 14  1  0
 14 15  2  0
 16 15  1  0
 17 13  1  0
 17 16  2  0
 18 21  1  0
 18 20  1  0
 18 17  1  0
 19 18  1  0
  1 22  1  1
  2 23  1  0
  3 24  1  0
  4 25  1  0
  4 26  1  0
  5 27  1  0
  5 28  1  0
  6 29  1  6
  7 30  1  0
  9 31  1  0
 11 32  1  0
 15 33  1  0
 16 34  1  0
 19 35  1  0
 19 36  1  0
 19 37  1  0
 20 38  1  0
 20 39  1  0
 20 40  1  0
 21 41  1  0
 21 42  1  0
 21 43  1  0
M  ISO  8  22  13  23  13  24  13  25  13  26  13  27  13  28  13  29  13
M  ISO  8  30  14  31  14  32  14  33  14  34  14  35   8  36   8  37   8
M  ISO  6  38   8  39   8  40   8  41   8  42   8  43   8
M  END
>  <minimizedAffinity>  (1) 
-4.74803019

>  <minimizedRMSD>  (1) 
4.69136143

$$$$
