
     RDKit          3D

 36 38  0  0  1  0  0  0  0  0999 V2000
   44.9020   34.2000   40.2800 C   0  0  2  0  0  0  0  0  0  0  0  0
   46.0430   34.2780   41.2510 C   0  0  0  0  0  0  0  0  0  0  0  0
   45.8860   35.0590   42.4850 C   0  0  0  0  0  0  0  0  0  0  0  0
   44.6270   35.7110   42.7740 C   0  0  0  0  0  0  0  0  0  0  0  0
   43.6820   35.8010   41.6490 C   0  0  0  0  0  0  0  0  0  0  0  0
   43.6340   34.5550   40.8790 C   0  0  1  0  0  0  0  0  0  0  0  0
   45.3710   32.8830   38.2590 C   0  0  0  0  0  0  0  0  0  0  0  0
   44.9240   32.8900   39.5840 C   0  0  0  0  0  0  0  0  0  0  0  0
   44.5100   31.6770   40.1690 C   0  0  0  0  0  0  0  0  0  0  0  0
   44.5570   30.5480   39.4350 N   0  0  0  0  0  0  0  0  0  0  0  0
   44.9900   30.5570   38.1590 C   0  0  0  0  0  0  0  0  0  0  0  0
   45.3900   31.7030   37.5820 N   0  0  0  0  0  0  0  0  0  0  0  0
   42.5440   34.7460   39.9510 N   0  0  0  0  0  0  0  0  0  0  0  0
   42.5120   35.2150   38.7030 N   0  0  0  0  0  0  0  0  0  0  0  0
   41.2790   35.1460   38.2460 C   0  0  0  0  0  0  0  0  0  0  0  0
   40.5040   34.6110   39.2530 C   0  0  0  0  0  0  0  0  0  0  0  0
   41.3320   34.3720   40.3220 C   0  0  0  0  0  0  0  0  0  0  0  0
   40.5070   33.8720   41.3940 C   0  0  0  0  0  0  0  0  0  0  0  0
   39.8810   34.3970   42.3590 O   0  0  0  0  0  0  0  0  0  0  0  0
   39.8140   33.0630   42.2300 O   0  0  0  0  0  0  0  0  0  0  0  0
   45.0347   34.9678   39.5036 H   0  0  0  0  0  0  0  0  0  0  0  0
   46.9879   33.7554   41.0409 H   0  0  0  0  0  0  0  0  0  0  0  0
   46.7259   35.1483   43.1897 H   0  0  0  0  0  0  0  0  0  0  0  0
   44.1355   35.1528   43.5845 H   0  0  0  0  0  0  0  0  0  0  0  0
   44.8800   36.7487   43.0369 H   0  0  0  0  0  0  0  0  0  0  0  0
   42.6777   36.0149   42.0435 H   0  0  0  0  0  0  0  0  0  0  0  0
   44.0224   36.6045   40.9793 H   0  0  0  0  0  0  0  0  0  0  0  0
   43.4495   33.6753   41.5131 H   0  0  0  0  0  0  0  0  0  0  0  0
   45.7008   33.8134   37.7736 H   0  0  0  0  0  0  0  0  0  0  0  0
   44.1537   31.6520   41.2094 H   0  0  0  0  0  0  0  0  0  0  0  0
   45.0163   29.6190   37.5851 H   0  0  0  0  0  0  0  0  0  0  0  0
   40.9327   35.4565   37.2492 H   0  0  0  0  0  0  0  0  0  0  0  0
   39.4230   34.4125   39.2083 H   0  0  0  0  0  0  0  0  0  0  0  0
   39.7156   33.3274   40.8582 H   0  0  0  0  0  0  0  0  0  0  0  0
   41.3503   33.5218   42.0073 H   0  0  0  0  0  0  0  0  0  0  0  0
   39.7930   32.6453   43.1273 H   0  0  0  0  0  0  0  0  0  0  0  0
  1  6  1  0
  1  2  1  0
  2  3  2  0
  3  4  1  0
  5  4  1  0
  6  5  1  0
  7  8  2  0
  8  9  1  0
  8  1  1  0
 10  9  2  0
 11 10  1  0
 12 11  2  0
 12  7  1  0
 13 17  1  0
 13  6  1  0
 14 13  1  0
 15 14  2  0
 15 16  1  0
 16 17  2  0
 17 18  1  0
 18 19  1  0
 20 19  1  0
  1 21  1  6
  2 22  1  0
  3 23  1  0
  4 24  1  0
  4 25  1  0
  5 26  1  0
  5 27  1  0
  6 28  1  1
  7 29  1  0
  9 30  1  0
 11 31  1  0
 15 32  1  0
 16 33  1  0
 18 34  1  0
 18 35  1  0
 20 36  1  0
M  ISO  8  21  13  22  13  23  13  24  13  25  13  26  13  27  13  28  13
M  ISO  8  29  14  30  14  31  14  32  14  33  14  34   8  35   8  36   3
M  END
>  <minimizedAffinity>  (1) 
-4.62761831

>  <minimizedRMSD>  (1) 
7.34531689

$$$$
