
     RDKit          3D

 30 32  0  0  0  0  0  0  0  0999 V2000
   47.5460   33.9670   39.5220 C   0  0  0  0  0  0  0  0  0  0  0  0
   46.3170   33.5120   39.8840 C   0  0  0  0  0  0  0  0  0  0  0  0
   45.7380   33.7710   41.1120 C   0  0  0  0  0  0  0  0  0  0  0  0
   46.4330   34.5210   42.0170 C   0  0  0  0  0  0  0  0  0  0  0  0
   47.6690   34.9740   41.6440 C   0  0  0  0  0  0  0  0  0  0  0  0
   48.2500   34.7290   40.4400 C   0  0  0  0  0  0  0  0  0  0  0  0
   44.4600   36.1030   44.8330 C   0  0  0  0  0  0  0  0  0  0  0  0
   45.0310   35.9360   43.5460 C   0  0  0  0  0  0  0  0  0  0  0  0
   45.8040   34.7890   43.3010 C   0  0  0  0  0  0  0  0  0  0  0  0
   45.9770   33.8910   44.2920 N   0  0  0  0  0  0  0  0  0  0  0  0
   45.4110   34.0860   45.5170 C   0  0  0  0  0  0  0  0  0  0  0  0
   44.6670   35.1740   45.7750 N   0  0  0  0  0  0  0  0  0  0  0  0
   48.2020   33.5670   37.9390 S   0  0  0  0  0  0  0  0  0  0  0  0
   47.1280   32.7870   37.1720 O   0  0  0  0  0  0  0  0  0  0  0  0
   48.5990   34.7880   37.1940 O   0  0  0  0  0  0  0  0  0  0  0  0
   49.5790   32.5190   38.2020 C   0  0  0  0  0  0  0  0  0  0  0  0
   49.8460   31.5480   39.1590 C   0  0  0  0  0  0  0  0  0  0  0  0
   51.0700   31.0170   38.9210 N   0  0  0  0  0  0  0  0  0  0  0  0
   51.5510   31.6390   37.8490 C   0  0  0  0  0  0  0  0  0  0  0  0
   50.6740   32.5480   37.3950 N   0  0  0  0  0  0  0  0  0  0  0  0
   45.7530   32.9050   39.1605 H   0  0  0  0  0  0  0  0  0  0  0  0
   44.7385   33.3812   41.3551 H   0  0  0  0  0  0  0  0  0  0  0  0
   48.2322   35.5791   42.3697 H   0  0  0  0  0  0  0  0  0  0  0  0
   49.2487   35.1237   40.2018 H   0  0  0  0  0  0  0  0  0  0  0  0
   43.8503   36.9909   45.0565 H   0  0  0  0  0  0  0  0  0  0  0  0
   44.8724   36.6869   42.7580 H   0  0  0  0  0  0  0  0  0  0  0  0
   45.5666   33.3383   46.3087 H   0  0  0  0  0  0  0  0  0  0  0  0
   49.1722   31.2569   39.9783 H   0  0  0  0  0  0  0  0  0  0  0  0
   52.5329   31.4365   37.3963 H   0  0  0  0  0  0  0  0  0  0  0  0
   50.8068   33.1608   36.5779 H   0  0  0  0  0  0  0  0  0  0  0  0
  1  2  2  0
  1  6  1  0
  2  3  1  0
  3  4  2  0
  4  9  1  0
  5  4  1  0
  6  5  2  0
  7 12  2  0
  8  7  1  0
  9  8  2  0
  9 10  1  0
 10 11  2  0
 11 12  1  0
 13 16  1  0
 13  1  1  0
 14 13  2  0
 15 13  2  0
 16 17  2  0
 18 17  1  0
 19 18  2  0
 20 19  1  0
 20 16  1  0
  2 21  1  0
  3 22  1  0
  5 23  1  0
  6 24  1  0
  7 25  1  0
  8 26  1  0
 11 27  1  0
 17 28  1  0
 19 29  1  0
 20 30  1  0
M  ISO  8  21  14  22  14  23  14  24  14  25  14  26  14  27  14  28  14
M  ISO  2  29  14  30   9
M  END
>  <minimizedAffinity>  (1) 
-5.89601374

>  <minimizedRMSD>  (1) 
1.14416456

$$$$
