
     RDKit          3D

 30 32  0  0  0  0  0  0  0  0999 V2000
   47.4510   33.9340   39.5500 C   0  0  0  0  0  0  0  0  0  0  0  0
   46.2260   33.4710   39.9260 C   0  0  0  0  0  0  0  0  0  0  0  0
   45.6660   33.7290   41.1600 C   0  0  0  0  0  0  0  0  0  0  0  0
   46.3700   34.4840   42.0560 C   0  0  0  0  0  0  0  0  0  0  0  0
   47.5990   34.9450   41.6760 C   0  0  0  0  0  0  0  0  0  0  0  0
   48.1870   34.7070   40.4560 C   0  0  0  0  0  0  0  0  0  0  0  0
   44.4530   36.0710   44.9110 C   0  0  0  0  0  0  0  0  0  0  0  0
   44.9990   35.8970   43.6190 C   0  0  0  0  0  0  0  0  0  0  0  0
   45.7650   34.7550   43.3500 C   0  0  0  0  0  0  0  0  0  0  0  0
   45.9620   33.8490   44.3390 N   0  0  0  0  0  0  0  0  0  0  0  0
   45.4150   34.0590   45.5750 C   0  0  0  0  0  0  0  0  0  0  0  0
   44.6790   35.1490   45.8420 N   0  0  0  0  0  0  0  0  0  0  0  0
   48.0950   33.5390   37.9630 S   0  0  0  0  0  0  0  0  0  0  0  0
   48.5260   34.8530   37.3060 O   0  0  0  0  0  0  0  0  0  0  0  0
   49.2380   32.5970   38.0720 O   0  0  0  0  0  0  0  0  0  0  0  0
   45.0170   32.5530   35.8600 N   0  0  0  0  0  0  0  0  0  0  0  0
   45.7350   33.4290   36.5450 N   0  0  0  0  0  0  0  0  0  0  0  0
   46.8340   32.8030   37.0010 C   0  0  0  0  0  0  0  0  0  0  0  0
   46.7570   31.4900   36.5610 C   0  0  0  0  0  0  0  0  0  0  0  0
   45.5910   31.3390   35.8320 C   0  0  0  0  0  0  0  0  0  0  0  0
   45.6553   32.8613   39.2101 H   0  0  0  0  0  0  0  0  0  0  0  0
   44.6720   33.3347   41.4180 H   0  0  0  0  0  0  0  0  0  0  0  0
   48.1605   35.5525   42.4010 H   0  0  0  0  0  0  0  0  0  0  0  0
   49.1823   35.1027   40.2053 H   0  0  0  0  0  0  0  0  0  0  0  0
   43.8477   36.9595   45.1438 H   0  0  0  0  0  0  0  0  0  0  0  0
   44.8248   36.6484   42.8348 H   0  0  0  0  0  0  0  0  0  0  0  0
   45.5824   33.3166   46.3692 H   0  0  0  0  0  0  0  0  0  0  0  0
   44.1220   32.7764   35.4017 H   0  0  0  0  0  0  0  0  0  0  0  0
   47.4982   30.7015   36.7584 H   0  0  0  0  0  0  0  0  0  0  0  0
   45.2177   30.4288   35.3398 H   0  0  0  0  0  0  0  0  0  0  0  0
  1  2  2  0
  1  6  1  0
  2  3  1  0
  3  4  2  0
  4  9  1  0
  5  4  1  0
  6  5  2  0
  7 12  2  0
  8  7  1  0
  9  8  2  0
  9 10  1  0
 10 11  2  0
 11 12  1  0
 13 15  2  0
 13  1  1  0
 14 13  2  0
 16 17  1  0
 17 18  2  0
 18 13  1  0
 19 18  1  0
 20 16  1  0
 20 19  2  0
  2 21  1  0
  3 22  1  0
  5 23  1  0
  6 24  1  0
  7 25  1  0
  8 26  1  0
 11 27  1  0
 16 28  1  0
 19 29  1  0
 20 30  1  0
M  ISO  8  21  14  22  14  23  14  24  14  25  14  26  14  27  14  28   9
M  ISO  2  29  14  30  14
M  END
>  <minimizedAffinity>  (1) 
-5.66320753

>  <minimizedRMSD>  (1) 
3.29546332

$$$$
