
     RDKit          3D

 34 37  0  0  0  0  0  0  0  0999 V2000
   48.0050   33.4140   39.5050 C   0  0  0  0  0  0  0  0  0  0  0  0
   47.6100   32.3190   40.2120 C   0  0  0  0  0  0  0  0  0  0  0  0
   47.1580   32.3790   41.5160 C   0  0  0  0  0  0  0  0  0  0  0  0
   47.1030   33.5970   42.1320 C   0  0  0  0  0  0  0  0  0  0  0  0
   47.5030   34.6890   41.4130 C   0  0  0  0  0  0  0  0  0  0  0  0
   47.9520   34.6490   40.1260 C   0  0  0  0  0  0  0  0  0  0  0  0
   46.5730   32.9270   45.8210 C   0  0  0  0  0  0  0  0  0  0  0  0
   47.1130   32.8070   44.5200 C   0  0  0  0  0  0  0  0  0  0  0  0
   46.6200   33.6390   43.5050 C   0  0  0  0  0  0  0  0  0  0  0  0
   45.6450   34.5270   43.8030 N   0  0  0  0  0  0  0  0  0  0  0  0
   45.1480   34.6150   45.0720 C   0  0  0  0  0  0  0  0  0  0  0  0
   45.6100   33.8260   46.0540 N   0  0  0  0  0  0  0  0  0  0  0  0
   48.5800   33.2230   37.8540 S   0  0  0  0  0  0  0  0  0  0  0  0
   49.0480   34.5890   37.3580 O   0  0  0  0  0  0  0  0  0  0  0  0
   49.6720   32.2180   37.7740 O   0  0  0  0  0  0  0  0  0  0  0  0
   46.9130   31.9560   33.4370 N   0  0  0  0  0  0  0  0  0  0  0  0
   48.2210   32.3240   33.5040 C   0  0  0  0  0  0  0  0  0  0  0  0
   48.5880   32.6550   34.7600 N   0  0  0  0  0  0  0  0  0  0  0  0
   47.4770   32.4940   35.5240 C   0  0  0  0  0  0  0  0  0  0  0  0
   47.2370   32.6790   36.8780 C   0  0  0  0  0  0  0  0  0  0  0  0
   45.9890   32.4250   37.3370 N   0  0  0  0  0  0  0  0  0  0  0  0
   45.0100   32.0080   36.5180 C   0  0  0  0  0  0  0  0  0  0  0  0
   45.2380   31.8240   35.1850 N   0  0  0  0  0  0  0  0  0  0  0  0
   46.4570   32.0650   34.6990 C   0  0  0  0  0  0  0  0  0  0  0  0
   47.6531   31.3364   39.7194 H   0  0  0  0  0  0  0  0  0  0  0  0
   46.8492   31.4662   42.0465 H   0  0  0  0  0  0  0  0  0  0  0  0
   47.4595   35.6702   41.9083 H   0  0  0  0  0  0  0  0  0  0  0  0
   48.2607   35.5650   39.6010 H   0  0  0  0  0  0  0  0  0  0  0  0
   46.9418   32.2861   46.6354 H   0  0  0  0  0  0  0  0  0  0  0  0
   47.9055   32.0742   44.3080 H   0  0  0  0  0  0  0  0  0  0  0  0
   44.3554   35.3451   45.2928 H   0  0  0  0  0  0  0  0  0  0  0  0
   46.3866   31.6589   32.6030 H   0  0  0  0  0  0  0  0  0  0  0  0
   48.8987   32.3488   32.6379 H   0  0  0  0  0  0  0  0  0  0  0  0
   44.0083   31.8116   36.9280 H   0  0  0  0  0  0  0  0  0  0  0  0
  1  6  1  0
  1  2  2  0
  2  3  1  0
  3  4  2  0
  4  9  1  0
  5  4  1  0
  6  5  2  0
  7 12  2  0
  8  7  1  0
  9 10  1  0
  9  8  2  0
 10 11  2  0
 11 12  1  0
 13  1  1  0
 14 13  2  0
 15 13  2  0
 16 17  1  0
 16 24  1  0
 17 18  2  0
 18 19  1  0
 19 20  2  0
 20 21  1  0
 20 13  1  0
 22 21  2  0
 23 22  1  0
 24 23  2  0
 24 19  1  0
  2 25  1  0
  3 26  1  0
  5 27  1  0
  6 28  1  0
  7 29  1  0
  8 30  1  0
 11 31  1  0
 16 32  1  0
 17 33  1  0
 22 34  1  0
M  ISO  8  25  14  26  14  27  14  28  14  29  14  30  14  31  14  32   9
M  ISO  2  33  14  34  14
M  END
>  <minimizedAffinity>  (1) 
-5.59719133

>  <minimizedRMSD>  (1) 
4.68125248

$$$$
