
     RDKit          3D

 32 34  0  0  1  0  0  0  0  0999 V2000
   49.0460   33.7680   42.7070 C   0  0  2  0  0  0  0  0  0  0  0  0
   47.6430   34.0050   42.4570 C   0  0  2  0  0  0  0  0  0  0  0  0
   47.5980   35.4280   41.8470 C   0  0  0  0  0  0  0  0  0  0  0  0
   49.0000   35.8390   41.4920 C   0  0  0  0  0  0  0  0  0  0  0  0
   49.7810   35.1120   42.5220 C   0  0  0  0  0  0  0  0  0  0  0  0
   49.7400   32.8370   41.7870 C   0  0  0  0  0  0  0  0  0  0  0  0
   48.9720   32.1600   40.8410 C   0  0  0  0  0  0  0  0  0  0  0  0
   49.5740   31.2760   39.9430 C   0  0  0  0  0  0  0  0  0  0  0  0
   50.9410   31.1440   40.0750 N   0  0  0  0  0  0  0  0  0  0  0  0
   51.6620   31.8070   40.9930 C   0  0  0  0  0  0  0  0  0  0  0  0
   51.0570   32.6420   41.8340 N   0  0  0  0  0  0  0  0  0  0  0  0
   46.7640   33.9960   43.6660 C   0  0  0  0  0  0  0  0  0  0  0  0
   45.9170   34.8300   43.8090 O   0  0  0  0  0  0  0  0  0  0  0  0
   46.8780   32.9760   44.7100 C   0  0  0  0  0  0  0  0  0  0  0  0
   46.5090   33.2010   46.0200 C   0  0  0  0  0  0  0  0  0  0  0  0
   46.7340   32.0410   46.7720 C   0  0  0  0  0  0  0  0  0  0  0  0
   47.2350   31.1620   45.8600 C   0  0  0  0  0  0  0  0  0  0  0  0
   47.2990   31.7320   44.7060 O   0  0  0  0  0  0  0  0  0  0  0  0
   49.0750   33.3210   43.7117 H   0  0  0  0  0  0  0  0  0  0  0  0
   47.2595   33.1942   41.8202 H   0  0  0  0  0  0  0  0  0  0  0  0
   46.9720   35.4244   40.9425 H   0  0  0  0  0  0  0  0  0  0  0  0
   47.1698   36.1357   42.5721 H   0  0  0  0  0  0  0  0  0  0  0  0
   49.2707   35.5141   40.4766 H   0  0  0  0  0  0  0  0  0  0  0  0
   49.1641   36.9267   41.4843 H   0  0  0  0  0  0  0  0  0  0  0  0
   50.8123   34.9443   42.1781 H   0  0  0  0  0  0  0  0  0  0  0  0
   49.8504   35.6775   43.4629 H   0  0  0  0  0  0  0  0  0  0  0  0
   47.8849   32.3231   40.8016 H   0  0  0  0  0  0  0  0  0  0  0  0
   48.9993   30.7243   39.1845 H   0  0  0  0  0  0  0  0  0  0  0  0
   52.7507   31.6603   41.0499 H   0  0  0  0  0  0  0  0  0  0  0  0
   46.1016   34.1443   46.4127 H   0  0  0  0  0  0  0  0  0  0  0  0
   46.5499   31.8785   47.8442 H   0  0  0  0  0  0  0  0  0  0  0  0
   47.5379   30.1266   46.0751 H   0  0  0  0  0  0  0  0  0  0  0  0
  2  1  1  0
  2 12  1  0
  3  2  1  0
  4  3  1  0
  4  5  1  0
  5  1  1  0
  6 11  1  0
  6  1  1  0
  7  6  2  0
  8  9  2  0
  8  7  1  0
  9 10  1  0
 10 11  2  0
 12 13  2  0
 12 14  1  0
 14 15  2  0
 15 16  1  0
 17 16  2  0
 18 14  1  0
 18 17  1  0
  1 19  1  1
  2 20  1  6
  3 21  1  0
  3 22  1  0
  4 23  1  0
  4 24  1  0
  5 25  1  0
  5 26  1  0
  7 27  1  0
  8 28  1  0
 10 29  1  0
 15 30  1  0
 16 31  1  0
 17 32  1  0
M  ISO  8  19  13  20  13  21  13  22  13  23  13  24  13  25  13  26  13
M  ISO  6  27  14  28  14  29  14  30  14  31  14  32  14
M  END
>  <minimizedAffinity>  (1) 
-5.03433132

>  <minimizedRMSD>  (1) 
0.357101709

$$$$
