
     RDKit          3D

 30 32  0  0  0  0  0  0  0  0999 V2000
   47.5420   33.9900   39.5600 C   0  0  0  0  0  0  0  0  0  0  0  0
   46.3140   33.5240   39.9100 C   0  0  0  0  0  0  0  0  0  0  0  0
   45.7190   33.7770   41.1290 C   0  0  0  0  0  0  0  0  0  0  0  0
   46.3950   34.5350   42.0420 C   0  0  0  0  0  0  0  0  0  0  0  0
   47.6300   35.0000   41.6830 C   0  0  0  0  0  0  0  0  0  0  0  0
   48.2420   34.7630   40.4790 C   0  0  0  0  0  0  0  0  0  0  0  0
   44.4520   36.0770   44.8940 C   0  0  0  0  0  0  0  0  0  0  0  0
   45.0000   35.9420   43.5880 C   0  0  0  0  0  0  0  0  0  0  0  0
   45.7710   34.8020   43.3260 C   0  0  0  0  0  0  0  0  0  0  0  0
   45.9660   33.8770   44.3130 N   0  0  0  0  0  0  0  0  0  0  0  0
   45.4170   34.0570   45.5490 C   0  0  0  0  0  0  0  0  0  0  0  0
   44.6730   35.1460   45.8230 N   0  0  0  0  0  0  0  0  0  0  0  0
   48.2180   33.5810   37.9870 S   0  0  0  0  0  0  0  0  0  0  0  0
   47.1130   32.9060   37.1600 O   0  0  0  0  0  0  0  0  0  0  0  0
   48.7180   34.7940   37.2930 O   0  0  0  0  0  0  0  0  0  0  0  0
   49.4580   32.3780   38.2520 C   0  0  0  0  0  0  0  0  0  0  0  0
   49.5910   31.5380   39.3380 C   0  0  0  0  0  0  0  0  0  0  0  0
   50.7210   30.7820   39.0730 C   0  0  0  0  0  0  0  0  0  0  0  0
   51.2120   31.2010   37.8460 C   0  0  0  0  0  0  0  0  0  0  0  0
   50.4240   32.1510   37.4020 O   0  0  0  0  0  0  0  0  0  0  0  0
   45.7639   32.9110   39.1808 H   0  0  0  0  0  0  0  0  0  0  0  0
   44.7210   33.3765   41.3606 H   0  0  0  0  0  0  0  0  0  0  0  0
   48.1748   35.6117   42.4172 H   0  0  0  0  0  0  0  0  0  0  0  0
   49.2400   35.1657   40.2511 H   0  0  0  0  0  0  0  0  0  0  0  0
   43.8403   36.9575   45.1398 H   0  0  0  0  0  0  0  0  0  0  0  0
   44.8250   36.7035   42.8137 H   0  0  0  0  0  0  0  0  0  0  0  0
   45.5841   33.3028   46.3321 H   0  0  0  0  0  0  0  0  0  0  0  0
   48.9404   31.4809   40.2231 H   0  0  0  0  0  0  0  0  0  0  0  0
   51.1481   29.9974   39.7148 H   0  0  0  0  0  0  0  0  0  0  0  0
   52.1034   30.8070   37.3358 H   0  0  0  0  0  0  0  0  0  0  0  0
  1  2  2  0
  1  6  1  0
  2  3  1  0
  3  4  2  0
  4  9  1  0
  5  4  1  0
  6  5  2  0
  7 12  2  0
  8  7  1  0
  9  8  2  0
  9 10  1  0
 10 11  2  0
 11 12  1  0
 13 16  1  0
 13  1  1  0
 14 13  2  0
 15 13  2  0
 16 17  2  0
 18 17  1  0
 19 18  2  0
 20 19  1  0
 20 16  1  0
  2 21  1  0
  3 22  1  0
  5 23  1  0
  6 24  1  0
  7 25  1  0
  8 26  1  0
 11 27  1  0
 17 28  1  0
 18 29  1  0
 19 30  1  0
M  ISO  8  21  14  22  14  23  14  24  14  25  14  26  14  27  14  28  14
M  ISO  2  29  14  30  14
M  END
>  <minimizedAffinity>  (1) 
-5.46819019

>  <minimizedRMSD>  (1) 
1.25075614

$$$$
