
     RDKit          3D

 30 32  0  0  0  0  0  0  0  0999 V2000
   47.5270   33.9710   39.5490 C   0  0  0  0  0  0  0  0  0  0  0  0
   46.3040   33.5080   39.9120 C   0  0  0  0  0  0  0  0  0  0  0  0
   45.7220   33.7620   41.1390 C   0  0  0  0  0  0  0  0  0  0  0  0
   46.4140   34.5200   42.0400 C   0  0  0  0  0  0  0  0  0  0  0  0
   47.6460   34.9840   41.6690 C   0  0  0  0  0  0  0  0  0  0  0  0
   48.2350   34.7430   40.4630 C   0  0  0  0  0  0  0  0  0  0  0  0
   44.4540   36.1020   44.8660 C   0  0  0  0  0  0  0  0  0  0  0  0
   45.0190   35.9290   43.5810 C   0  0  0  0  0  0  0  0  0  0  0  0
   45.7890   34.7880   43.3260 C   0  0  0  0  0  0  0  0  0  0  0  0
   45.9640   33.8890   44.3170 N   0  0  0  0  0  0  0  0  0  0  0  0
   45.4060   34.0840   45.5450 C   0  0  0  0  0  0  0  0  0  0  0  0
   44.6650   35.1740   45.8070 N   0  0  0  0  0  0  0  0  0  0  0  0
   48.1980   33.5780   37.9670 S   0  0  0  0  0  0  0  0  0  0  0  0
   47.0420   33.0720   37.0930 O   0  0  0  0  0  0  0  0  0  0  0  0
   48.8310   34.7710   37.3420 O   0  0  0  0  0  0  0  0  0  0  0  0
   49.3310   32.3140   38.1790 C   0  0  0  0  0  0  0  0  0  0  0  0
   49.9640   31.7170   39.2530 C   0  0  0  0  0  0  0  0  0  0  0  0
   50.8510   30.6910   39.0930 C   0  0  0  0  0  0  0  0  0  0  0  0
   51.0640   30.2900   37.6820 C   0  0  0  0  0  0  0  0  0  0  0  0
   49.9350   31.4680   36.7700 S   0  0  0  0  0  0  0  0  0  0  0  0
   45.7448   32.8962   39.1888 H   0  0  0  0  0  0  0  0  0  0  0  0
   44.7263   33.3637   41.3841 H   0  0  0  0  0  0  0  0  0  0  0  0
   48.2014   35.5953   42.3955 H   0  0  0  0  0  0  0  0  0  0  0  0
   49.2309   35.1436   40.2229 H   0  0  0  0  0  0  0  0  0  0  0  0
   43.8466   36.9913   45.0900 H   0  0  0  0  0  0  0  0  0  0  0  0
   44.8558   36.6798   42.7938 H   0  0  0  0  0  0  0  0  0  0  0  0
   45.5650   33.3359   46.3357 H   0  0  0  0  0  0  0  0  0  0  0  0
   49.7465   32.0797   40.2684 H   0  0  0  0  0  0  0  0  0  0  0  0
   51.3624   30.2050   39.9370 H   0  0  0  0  0  0  0  0  0  0  0  0
   51.7171   29.5032   37.2767 H   0  0  0  0  0  0  0  0  0  0  0  0
  1  2  2  0
  1  6  1  0
  2  3  1  0
  3  4  2  0
  4  9  1  0
  5  4  1  0
  6  5  2  0
  7 12  2  0
  8  7  1  0
  9  8  2  0
  9 10  1  0
 10 11  2  0
 11 12  1  0
 13 16  1  0
 13  1  1  0
 14 13  2  0
 15 13  2  0
 16 17  2  0
 18 17  1  0
 19 18  2  0
 20 19  1  0
 20 16  1  0
  2 21  1  0
  3 22  1  0
  5 23  1  0
  6 24  1  0
  7 25  1  0
  8 26  1  0
 11 27  1  0
 17 28  1  0
 18 29  1  0
 19 30  1  0
M  ISO  8  21  14  22  14  23  14  24  14  25  14  26  14  27  14  28  14
M  ISO  2  29  14  30  14
M  END
>  <minimizedAffinity>  (1) 
-5.37766027

>  <minimizedRMSD>  (1) 
1.56749213

$$$$
