
     RDKit          3D

 35 36  0  0  0  0  0  0  0  0999 V2000
   47.3730   33.9010   39.3940 C   0  0  0  0  0  0  0  0  0  0  0  0
   46.1170   33.5310   39.7670 C   0  0  0  0  0  0  0  0  0  0  0  0
   45.5810   33.7960   41.0110 C   0  0  0  0  0  0  0  0  0  0  0  0
   46.3470   34.4650   41.9220 C   0  0  0  0  0  0  0  0  0  0  0  0
   47.6060   34.8320   41.5410 C   0  0  0  0  0  0  0  0  0  0  0  0
   48.1480   34.5770   40.3180 C   0  0  0  0  0  0  0  0  0  0  0  0
   44.4790   36.0750   44.7970 C   0  0  0  0  0  0  0  0  0  0  0  0
   45.0040   35.8960   43.4950 C   0  0  0  0  0  0  0  0  0  0  0  0
   45.7590   34.7440   43.2250 C   0  0  0  0  0  0  0  0  0  0  0  0
   45.9590   33.8470   44.2110 N   0  0  0  0  0  0  0  0  0  0  0  0
   45.4360   34.0530   45.4550 C   0  0  0  0  0  0  0  0  0  0  0  0
   44.7090   35.1520   45.7340 N   0  0  0  0  0  0  0  0  0  0  0  0
   47.9540   33.5140   37.7830 S   0  0  0  0  0  0  0  0  0  0  0  0
   46.7300   33.3860   36.8620 O   0  0  0  0  0  0  0  0  0  0  0  0
   48.8610   34.5760   37.2650 O   0  0  0  0  0  0  0  0  0  0  0  0
   48.7460   31.9450   37.6860 C   0  0  0  0  0  0  0  0  0  0  0  0
   50.2480   32.0610   37.5950 C   0  0  0  0  0  0  0  0  0  0  0  0
   48.4780   31.2560   39.0340 C   0  0  0  0  0  0  0  0  0  0  0  0
   48.1370   31.0540   36.6370 C   0  0  0  0  0  0  0  0  0  0  0  0
   45.4955   32.9915   39.0372 H   0  0  0  0  0  0  0  0  0  0  0  0
   44.5594   33.4753   41.2629 H   0  0  0  0  0  0  0  0  0  0  0  0
   48.2254   35.3711   42.2729 H   0  0  0  0  0  0  0  0  0  0  0  0
   49.1709   34.8989   40.0729 H   0  0  0  0  0  0  0  0  0  0  0  0
   43.8848   36.9694   45.0357 H   0  0  0  0  0  0  0  0  0  0  0  0
   44.8239   36.6451   42.7099 H   0  0  0  0  0  0  0  0  0  0  0  0
   45.6116   33.3074   46.2445 H   0  0  0  0  0  0  0  0  0  0  0  0
   50.6753   32.0940   38.6081 H   0  0  0  0  0  0  0  0  0  0  0  0
   50.6509   31.1913   37.0553 H   0  0  0  0  0  0  0  0  0  0  0  0
   50.5126   32.9823   37.0553 H   0  0  0  0  0  0  0  0  0  0  0  0
   48.7437   31.9391   39.8542 H   0  0  0  0  0  0  0  0  0  0  0  0
   47.4122   30.9935   39.1061 H   0  0  0  0  0  0  0  0  0  0  0  0
   49.0863   30.3424   39.1061 H   0  0  0  0  0  0  0  0  0  0  0  0
   47.5807   30.2402   37.1251 H   0  0  0  0  0  0  0  0  0  0  0  0
   47.4511   31.6421   36.0096 H   0  0  0  0  0  0  0  0  0  0  0  0
   48.9341   30.6285   36.0096 H   0  0  0  0  0  0  0  0  0  0  0  0
  1  2  2  0
  1  6  1  0
  2  3  1  0
  3  4  2  0
  4  9  1  0
  5  4  1  0
  6  5  2  0
  7 12  2  0
  8  7  1  0
  9  8  2  0
  9 10  1  0
 10 11  2  0
 11 12  1  0
 13  1  1  0
 14 13  2  0
 15 13  2  0
 16 13  1  0
 16 18  1  0
 17 16  1  0
 19 16  1  0
  2 20  1  0
  3 21  1  0
  5 22  1  0
  6 23  1  0
  7 24  1  0
  8 25  1  0
 11 26  1  0
 17 27  1  0
 17 28  1  0
 17 29  1  0
 18 30  1  0
 18 31  1  0
 18 32  1  0
 19 33  1  0
 19 34  1  0
 19 35  1  0
M  ISO  8  20  14  21  14  22  14  23  14  24  14  25  14  26  14  27   8
M  ISO  8  28   8  29   8  30   8  31   8  32   8  33   8  34   8  35   8
M  END
>  <minimizedAffinity>  (1) 
-5.1931982

>  <minimizedRMSD>  (1) 
1.43081856

$$$$
