
     RDKit          3D

 29 30  0  0  0  0  0  0  0  0999 V2000
   47.5200   33.9960   39.5370 C   0  0  0  0  0  0  0  0  0  0  0  0
   46.2870   33.5460   39.8920 C   0  0  0  0  0  0  0  0  0  0  0  0
   45.7160   33.7920   41.1250 C   0  0  0  0  0  0  0  0  0  0  0  0
   46.4190   34.5240   42.0390 C   0  0  0  0  0  0  0  0  0  0  0  0
   47.6560   34.9700   41.6700 C   0  0  0  0  0  0  0  0  0  0  0  0
   48.2390   34.7390   40.4580 C   0  0  0  0  0  0  0  0  0  0  0  0
   44.4560   36.0720   44.8830 C   0  0  0  0  0  0  0  0  0  0  0  0
   45.0200   35.9130   43.5930 C   0  0  0  0  0  0  0  0  0  0  0  0
   45.7980   34.7760   43.3270 C   0  0  0  0  0  0  0  0  0  0  0  0
   45.9840   33.8670   44.3130 N   0  0  0  0  0  0  0  0  0  0  0  0
   45.4240   34.0570   45.5430 C   0  0  0  0  0  0  0  0  0  0  0  0
   44.6750   35.1440   45.8130 N   0  0  0  0  0  0  0  0  0  0  0  0
   48.1590   33.5990   37.9440 S   0  0  0  0  0  0  0  0  0  0  0  0
   47.0020   33.0840   37.0820 O   0  0  0  0  0  0  0  0  0  0  0  0
   48.8080   34.7770   37.3160 O   0  0  0  0  0  0  0  0  0  0  0  0
   49.3490   32.3060   38.1550 C   0  0  0  0  0  0  0  0  0  0  0  0
   49.7190   31.7160   36.8080 C   0  0  0  0  0  0  0  0  0  0  0  0
   45.7156   32.9563   39.1601 H   0  0  0  0  0  0  0  0  0  0  0  0
   44.7146   33.4060   41.3663 H   0  0  0  0  0  0  0  0  0  0  0  0
   48.2247   35.5593   42.4044 H   0  0  0  0  0  0  0  0  0  0  0  0
   49.2406   35.1277   40.2220 H   0  0  0  0  0  0  0  0  0  0  0  0
   43.8421   36.9549   45.1146 H   0  0  0  0  0  0  0  0  0  0  0  0
   44.8506   36.6691   42.8122 H   0  0  0  0  0  0  0  0  0  0  0  0
   45.5876   33.3068   46.3307 H   0  0  0  0  0  0  0  0  0  0  0  0
   50.2509   32.7156   38.6333 H   0  0  0  0  0  0  0  0  0  0  0  0
   48.9163   31.5172   38.7879 H   0  0  0  0  0  0  0  0  0  0  0  0
   50.2979   30.7929   36.9586 H   0  0  0  0  0  0  0  0  0  0  0  0
   48.8028   31.4864   36.2441 H   0  0  0  0  0  0  0  0  0  0  0  0
   50.3246   32.4407   36.2441 H   0  0  0  0  0  0  0  0  0  0  0  0
  1  2  2  0
  1  6  1  0
  2  3  1  0
  3  4  2  0
  4  9  1  0
  5  4  1  0
  6  5  2  0
  7 12  2  0
  8  7  1  0
  9  8  2  0
  9 10  1  0
 10 11  2  0
 11 12  1  0
 13 16  1  0
 13  1  1  0
 14 13  2  0
 15 13  2  0
 17 16  1  0
  2 18  1  0
  3 19  1  0
  5 20  1  0
  6 21  1  0
  7 22  1  0
  8 23  1  0
 11 24  1  0
 16 25  1  0
 16 26  1  0
 17 27  1  0
 17 28  1  0
 17 29  1  0
M  ISO  8  18  14  19  14  20  14  21  14  22  14  23  14  24  14  25   8
M  ISO  4  26   8  27   8  28   8  29   8
M  END
>  <minimizedAffinity>  (1) 
-5.06157351

>  <minimizedRMSD>  (1) 
0.905519605

$$$$
