
     RDKit          3D

 39 43  0  0  0  0  0  0  0  0999 V2000
   47.6250   33.9890   39.5480 C   0  0  0  0  0  0  0  0  0  0  0  0
   46.4180   33.4870   39.9110 C   0  0  0  0  0  0  0  0  0  0  0  0
   45.8280   33.7480   41.1340 C   0  0  0  0  0  0  0  0  0  0  0  0
   46.4830   34.5500   42.0350 C   0  0  0  0  0  0  0  0  0  0  0  0
   47.7020   35.0560   41.6700 C   0  0  0  0  0  0  0  0  0  0  0  0
   48.3010   34.8080   40.4610 C   0  0  0  0  0  0  0  0  0  0  0  0
   44.4520   36.0650   44.8450 C   0  0  0  0  0  0  0  0  0  0  0  0
   45.0430   35.9230   43.5560 C   0  0  0  0  0  0  0  0  0  0  0  0
   45.8310   34.8000   43.3120 C   0  0  0  0  0  0  0  0  0  0  0  0
   46.0020   33.8950   44.3000 N   0  0  0  0  0  0  0  0  0  0  0  0
   45.4220   34.0650   45.5210 C   0  0  0  0  0  0  0  0  0  0  0  0
   44.6620   35.1330   45.7810 N   0  0  0  0  0  0  0  0  0  0  0  0
   48.3130   33.6150   37.9780 S   0  0  0  0  0  0  0  0  0  0  0  0
   48.8390   34.9300   37.3860 O   0  0  0  0  0  0  0  0  0  0  0  0
   49.4110   32.6120   38.1130 O   0  0  0  0  0  0  0  0  0  0  0  0
   47.0410   33.0110   36.9510 C   0  0  0  0  0  0  0  0  0  0  0  0
   45.7280   33.2850   36.8880 N   0  0  0  0  0  0  0  0  0  0  0  0
   45.1600   32.5990   35.9660 O   0  0  0  0  0  0  0  0  0  0  0  0
   46.0560   31.8360   35.3670 C   0  0  0  0  0  0  0  0  0  0  0  0
   47.2230   32.1030   35.9880 N   0  0  0  0  0  0  0  0  0  0  0  0
   46.0500   30.8770   34.2950 N   0  0  0  0  0  0  0  0  0  0  0  0
   45.2820   29.8160   33.9410 C   0  0  0  0  0  0  0  0  0  0  0  0
   45.7790   29.2950   32.8120 N   0  0  0  0  0  0  0  0  0  0  0  0
   46.8560   30.0130   32.4450 C   0  0  0  0  0  0  0  0  0  0  0  0
   47.6820   29.8270   31.3350 C   0  0  0  0  0  0  0  0  0  0  0  0
   48.7250   30.6790   31.1550 N   0  0  0  0  0  0  0  0  0  0  0  0
   48.8870   31.6420   32.0610 C   0  0  0  0  0  0  0  0  0  0  0  0
   48.0900   31.8180   33.1280 N   0  0  0  0  0  0  0  0  0  0  0  0
   47.0260   31.0000   33.3680 C   0  0  0  0  0  0  0  0  0  0  0  0
   45.8833   32.8417   39.1985 H   0  0  0  0  0  0  0  0  0  0  0  0
   44.8462   33.3183   41.3817 H   0  0  0  0  0  0  0  0  0  0  0  0
   48.2319   35.6989   42.3882 H   0  0  0  0  0  0  0  0  0  0  0  0
   49.2828   35.2395   40.2161 H   0  0  0  0  0  0  0  0  0  0  0  0
   43.8241   36.9398   45.0698 H   0  0  0  0  0  0  0  0  0  0  0  0
   44.8814   36.6799   42.7744 H   0  0  0  0  0  0  0  0  0  0  0  0
   45.5819   33.3108   46.3056 H   0  0  0  0  0  0  0  0  0  0  0  0
   44.4018   29.4470   34.4878 H   0  0  0  0  0  0  0  0  0  0  0  0
   47.4929   29.0101   30.6230 H   0  0  0  0  0  0  0  0  0  0  0  0
   49.7279   32.3383   31.9268 H   0  0  0  0  0  0  0  0  0  0  0  0
  1  2  2  0
  1  6  1  0
  2  3  1  0
  3  4  2  0
  4  9  1  0
  5  4  1  0
  6  5  2  0
  7 12  2  0
  8  7  1  0
  9  8  2  0
  9 10  1  0
 10 11  2  0
 11 12  1  0
 13 15  2  0
 13  1  1  0
 14 13  2  0
 16 13  1  0
 17 16  2  0
 18 17  1  0
 19 18  1  0
 19 20  2  0
 20 16  1  0
 21 19  1  0
 22 21  1  0
 23 22  2  0
 24 23  1  0
 24 29  2  0
 25 24  1  0
 26 25  2  0
 26 27  1  0
 27 28  2  0
 28 29  1  0
 29 21  1  0
  2 30  1  0
  3 31  1  0
  5 32  1  0
  6 33  1  0
  7 34  1  0
  8 35  1  0
 11 36  1  0
 22 37  1  0
 25 38  1  0
 27 39  1  0
M  ISO  8  30  14  31  14  32  14  33  14  34  14  35  14  36  14  37  14
M  ISO  2  38  14  39  14
M  END
>  <minimizedAffinity>  (1) 
-7.42256021

>  <minimizedRMSD>  (1) 
1.77493763

$$$$
