
     RDKit          3D

 42 46  0  0  0  0  0  0  0  0999 V2000
   47.6740   33.9320   39.5940 C   0  0  0  0  0  0  0  0  0  0  0  0
   46.5110   33.3350   40.0000 C   0  0  0  0  0  0  0  0  0  0  0  0
   45.9380   33.5960   41.2190 C   0  0  0  0  0  0  0  0  0  0  0  0
   46.5190   34.4770   42.0830 C   0  0  0  0  0  0  0  0  0  0  0  0
   47.6830   35.0710   41.6680 C   0  0  0  0  0  0  0  0  0  0  0  0
   48.2830   34.8380   40.4700 C   0  0  0  0  0  0  0  0  0  0  0  0
   44.4580   35.9610   44.8760 C   0  0  0  0  0  0  0  0  0  0  0  0
   45.0490   35.8090   43.6080 C   0  0  0  0  0  0  0  0  0  0  0  0
   45.8710   34.7130   43.3530 C   0  0  0  0  0  0  0  0  0  0  0  0
   46.0680   33.8320   44.3470 N   0  0  0  0  0  0  0  0  0  0  0  0
   45.4890   33.9930   45.5680 C   0  0  0  0  0  0  0  0  0  0  0  0
   44.6970   35.0430   45.8250 N   0  0  0  0  0  0  0  0  0  0  0  0
   48.3680   33.5660   38.0270 S   0  0  0  0  0  0  0  0  0  0  0  0
   48.9170   34.8630   37.4530 O   0  0  0  0  0  0  0  0  0  0  0  0
   49.4430   32.5420   38.1550 O   0  0  0  0  0  0  0  0  0  0  0  0
   47.0930   32.9950   36.9850 C   0  0  0  0  0  0  0  0  0  0  0  0
   45.8190   33.3720   36.8370 N   0  0  0  0  0  0  0  0  0  0  0  0
   45.2370   32.6590   35.9350 O   0  0  0  0  0  0  0  0  0  0  0  0
   46.0790   31.7830   35.4430 C   0  0  0  0  0  0  0  0  0  0  0  0
   47.2230   31.9980   36.0980 N   0  0  0  0  0  0  0  0  0  0  0  0
   45.9540   30.7470   34.4200 C   0  0  0  0  0  0  0  0  0  0  0  0
   45.0410   29.7040   34.3180 C   0  0  0  0  0  0  0  0  0  0  0  0
   45.3230   29.0130   33.2030 N   0  0  0  0  0  0  0  0  0  0  0  0
   46.3820   29.5840   32.6010 C   0  0  0  0  0  0  0  0  0  0  0  0
   46.9650   29.1430   31.4150 C   0  0  0  0  0  0  0  0  0  0  0  0
   48.0490   29.8710   30.9620 C   0  0  0  0  0  0  0  0  0  0  0  0
   48.5070   30.9690   31.6610 C   0  0  0  0  0  0  0  0  0  0  0  0
   47.9130   31.3860   32.8330 C   0  0  0  0  0  0  0  0  0  0  0  0
   46.8190   30.6770   33.3220 C   0  0  0  0  0  0  0  0  0  0  0  0
   46.0181   32.6203   39.3246 H   0  0  0  0  0  0  0  0  0  0  0  0
   45.0027   33.0908   41.5017 H   0  0  0  0  0  0  0  0  0  0  0  0
   48.1650   35.7856   42.3515 H   0  0  0  0  0  0  0  0  0  0  0  0
   49.2195   35.3467   40.1974 H   0  0  0  0  0  0  0  0  0  0  0  0
   43.8075   36.8226   45.0868 H   0  0  0  0  0  0  0  0  0  0  0  0
   44.8626   36.5535   42.8200 H   0  0  0  0  0  0  0  0  0  0  0  0
   45.6741   33.2491   46.3569 H   0  0  0  0  0  0  0  0  0  0  0  0
   44.2295   29.4837   35.0271 H   0  0  0  0  0  0  0  0  0  0  0  0
   44.8139   28.1841   32.8646 H   0  0  0  0  0  0  0  0  0  0  0  0
   46.5846   28.2661   30.8706 H   0  0  0  0  0  0  0  0  0  0  0  0
   48.5534   29.5710   30.0316 H   0  0  0  0  0  0  0  0  0  0  0  0
   49.3710   31.5277   31.2718 H   0  0  0  0  0  0  0  0  0  0  0  0
   48.2969   32.2642   33.3728 H   0  0  0  0  0  0  0  0  0  0  0  0
  1  2  2  0
  1  6  1  0
  2  3  1  0
  3  4  2  0
  4  9  1  0
  5  4  1  0
  6  5  2  0
  7 12  2  0
  8  7  1  0
  9  8  2  0
  9 10  1  0
 10 11  2  0
 11 12  1  0
 13 15  2  0
 13  1  1  0
 14 13  2  0
 16 13  1  0
 17 16  2  0
 18 17  1  0
 19 18  1  0
 19 20  2  0
 20 16  1  0
 21 19  1  0
 22 21  2  0
 23 22  1  0
 24 23  1  0
 24 29  2  0
 25 24  1  0
 26 25  2  0
 26 27  1  0
 27 28  2  0
 28 29  1  0
 29 21  1  0
  2 30  1  0
  3 31  1  0
  5 32  1  0
  6 33  1  0
  7 34  1  0
  8 35  1  0
 11 36  1  0
 22 37  1  0
 23 38  1  0
 25 39  1  0
 26 40  1  0
 27 41  1  0
 28 42  1  0
M  ISO  8  30  14  31  14  32  14  33  14  34  14  35  14  36  14  37  14
M  ISO  5  38   9  39  14  40  14  41  14  42  14
M  END
>  <minimizedAffinity>  (1) 
-6.94838762

>  <minimizedRMSD>  (1) 
1.38719893

$$$$
