
     RDKit          3D

 41 44  0  0  0  0  0  0  0  0999 V2000
   47.6050   33.9670   39.5320 C   0  0  0  0  0  0  0  0  0  0  0  0
   46.3860   33.4670   39.8960 C   0  0  0  0  0  0  0  0  0  0  0  0
   45.8130   33.7420   41.1240 C   0  0  0  0  0  0  0  0  0  0  0  0
   46.4680   34.5360   42.0180 C   0  0  0  0  0  0  0  0  0  0  0  0
   47.6840   35.0330   41.6510 C   0  0  0  0  0  0  0  0  0  0  0  0
   48.2880   34.7870   40.4440 C   0  0  0  0  0  0  0  0  0  0  0  0
   44.4550   36.0890   44.8170 C   0  0  0  0  0  0  0  0  0  0  0  0
   45.0380   35.9380   43.5280 C   0  0  0  0  0  0  0  0  0  0  0  0
   45.8210   34.7950   43.2980 C   0  0  0  0  0  0  0  0  0  0  0  0
   45.9940   33.8920   44.2830 N   0  0  0  0  0  0  0  0  0  0  0  0
   45.4120   34.0800   45.5070 C   0  0  0  0  0  0  0  0  0  0  0  0
   44.6530   35.1740   45.7530 N   0  0  0  0  0  0  0  0  0  0  0  0
   48.2910   33.5910   37.9630 S   0  0  0  0  0  0  0  0  0  0  0  0
   48.8100   34.9070   37.3640 O   0  0  0  0  0  0  0  0  0  0  0  0
   49.3770   32.5970   38.0860 O   0  0  0  0  0  0  0  0  0  0  0  0
   47.0080   32.9960   36.9380 C   0  0  0  0  0  0  0  0  0  0  0  0
   45.7110   33.3650   36.8020 N   0  0  0  0  0  0  0  0  0  0  0  0
   45.1340   32.6460   35.9240 O   0  0  0  0  0  0  0  0  0  0  0  0
   45.9870   31.7630   35.4180 C   0  0  0  0  0  0  0  0  0  0  0  0
   47.1370   31.9960   36.0580 N   0  0  0  0  0  0  0  0  0  0  0  0
   45.0250   28.9100   32.4300 C   0  0  0  0  0  0  0  0  0  0  0  0
   44.1090   29.3600   33.3500 C   0  0  0  0  0  0  0  0  0  0  0  0
   44.3670   30.2930   34.3510 C   0  0  0  0  0  0  0  0  0  0  0  0
   45.6590   30.7750   34.3810 C   0  0  0  0  0  0  0  0  0  0  0  0
   46.6590   30.3950   33.5090 C   0  0  0  0  0  0  0  0  0  0  0  0
   46.2830   29.4700   32.5680 C   0  0  0  0  0  0  0  0  0  0  0  0
   44.5910   27.7470   31.2290 S   0  0  0  0  0  0  0  0  0  0  0  0
   45.3310   26.4620   31.4460 O   0  0  0  0  0  0  0  0  0  0  0  0
   44.9240   28.2220   29.8410 O   0  0  0  0  0  0  0  0  0  0  0  0
   45.8425   32.8241   39.1880 H   0  0  0  0  0  0  0  0  0  0  0  0
   44.8296   33.3205   41.3794 H   0  0  0  0  0  0  0  0  0  0  0  0
   48.2155   35.6734   42.3703 H   0  0  0  0  0  0  0  0  0  0  0  0
   49.2709   35.2163   40.2000 H   0  0  0  0  0  0  0  0  0  0  0  0
   43.8360   36.9713   45.0372 H   0  0  0  0  0  0  0  0  0  0  0  0
   44.8811   36.6893   42.7400 H   0  0  0  0  0  0  0  0  0  0  0  0
   45.5625   33.3334   46.3007 H   0  0  0  0  0  0  0  0  0  0  0  0
   43.0899   28.9503   33.2910 H   0  0  0  0  0  0  0  0  0  0  0  0
   43.5973   30.6213   35.0650 H   0  0  0  0  0  0  0  0  0  0  0  0
   47.6792   30.8025   33.5642 H   0  0  0  0  0  0  0  0  0  0  0  0
   47.0546   29.1425   31.8557 H   0  0  0  0  0  0  0  0  0  0  0  0
   43.2384   27.5628   31.3445 H   0  0  0  0  0  0  0  0  0  0  0  0
  1  2  2  0
  1  6  1  0
  2  3  1  0
  3  4  2  0
  4  9  1  0
  5  4  1  0
  6  5  2  0
  7 12  2  0
  8  7  1  0
  9  8  2  0
  9 10  1  0
 10 11  2  0
 11 12  1  0
 13 15  2  0
 13  1  1  0
 14 13  2  0
 16 13  1  0
 17 16  2  0
 18 17  1  0
 19 18  1  0
 19 20  2  0
 20 16  1  0
 21 26  2  0
 21 22  1  0
 22 23  2  0
 23 24  1  0
 24 19  1  0
 25 24  2  0
 26 25  1  0
 27 28  2  0
 27 21  1  0
 29 27  2  0
  2 30  1  0
  3 31  1  0
  5 32  1  0
  6 33  1  0
  7 34  1  0
  8 35  1  0
 11 36  1  0
 22 37  1  0
 23 38  1  0
 25 39  1  0
 26 40  1  0
 27 41  1  0
M  ISO  8  30  14  31  14  32  14  33  14  34  14  35  14  36  14  37  14
M  ISO  4  38  14  39  14  40  14  41  11
M  END
>  <minimizedAffinity>  (1) 
-6.73692417

>  <minimizedRMSD>  (1) 
1.47060943

$$$$
