
     RDKit          3D

 31 33  0  0  1  0  0  0  0  0999 V2000
   49.0910   33.7410   42.6970 C   0  0  2  0  0  0  0  0  0  0  0  0
   47.6820   33.9570   42.4750 C   0  0  2  0  0  0  0  0  0  0  0  0
   47.6020   35.3860   41.8850 C   0  0  0  0  0  0  0  0  0  0  0  0
   48.9830   35.8100   41.4810 C   0  0  0  0  0  0  0  0  0  0  0  0
   49.8040   35.1010   42.4950 C   0  0  0  0  0  0  0  0  0  0  0  0
   49.7850   32.8270   41.7620 C   0  0  0  0  0  0  0  0  0  0  0  0
   49.0140   32.1550   40.8140 C   0  0  0  0  0  0  0  0  0  0  0  0
   49.6090   31.2800   39.9040 C   0  0  0  0  0  0  0  0  0  0  0  0
   50.9790   31.1530   40.0280 N   0  0  0  0  0  0  0  0  0  0  0  0
   51.7030   31.8070   40.9430 C   0  0  0  0  0  0  0  0  0  0  0  0
   51.1020   32.6380   41.8030 N   0  0  0  0  0  0  0  0  0  0  0  0
   46.8160   33.9130   43.6940 C   0  0  0  0  0  0  0  0  0  0  0  0
   45.9980   34.7650   43.9080 O   0  0  0  0  0  0  0  0  0  0  0  0
   46.9900   32.7700   44.6250 C   0  0  0  0  0  0  0  0  0  0  0  0
   46.6650   33.0160   46.0170 C   0  0  0  0  0  0  0  0  0  0  0  0
   46.9720   31.5000   46.8250 S   0  0  0  0  0  0  0  0  0  0  0  0
   47.5180   30.6650   45.1790 C   0  0  0  0  0  0  0  0  0  0  0  0
   47.3890   31.5250   44.4680 N   0  0  0  0  0  0  0  0  0  0  0  0
   49.1430   33.2917   43.6997 H   0  0  0  0  0  0  0  0  0  0  0  0
   47.3048   33.1462   41.8345 H   0  0  0  0  0  0  0  0  0  0  0  0
   46.9407   35.3884   41.0060 H   0  0  0  0  0  0  0  0  0  0  0  0
   47.1973   36.0820   42.6345 H   0  0  0  0  0  0  0  0  0  0  0  0
   49.2254   35.4780   40.4607 H   0  0  0  0  0  0  0  0  0  0  0  0
   49.1341   36.8993   41.4557 H   0  0  0  0  0  0  0  0  0  0  0  0
   50.8297   34.9504   42.1273 H   0  0  0  0  0  0  0  0  0  0  0  0
   49.8894   35.6695   43.4328 H   0  0  0  0  0  0  0  0  0  0  0  0
   47.9263   32.3162   40.7832 H   0  0  0  0  0  0  0  0  0  0  0  0
   49.0306   30.7327   39.1451 H   0  0  0  0  0  0  0  0  0  0  0  0
   52.7924   31.6619   40.9887 H   0  0  0  0  0  0  0  0  0  0  0  0
   46.3039   33.9533   46.4654 H   0  0  0  0  0  0  0  0  0  0  0  0
   47.8596   29.6369   44.9885 H   0  0  0  0  0  0  0  0  0  0  0  0
  2  1  1  0
  2 12  1  0
  3  2  1  0
  4  3  1  0
  4  5  1  0
  5  1  1  0
  6 11  1  0
  6  1  1  0
  7  6  2  0
  8  9  2  0
  8  7  1  0
  9 10  1  0
 10 11  2  0
 12 13  2  0
 12 14  1  0
 14 15  2  0
 15 16  1  0
 17 16  1  0
 18 14  1  0
 18 17  2  0
  1 19  1  1
  2 20  1  6
  3 21  1  0
  3 22  1  0
  4 23  1  0
  4 24  1  0
  5 25  1  0
  5 26  1  0
  7 27  1  0
  8 28  1  0
 10 29  1  0
 15 30  1  0
 17 31  1  0
M  ISO  8  19  13  20  13  21  13  22  13  23  13  24  13  25  13  26  13
M  ISO  5  27  14  28  14  29  14  30  14  31  14
M  END
>  <minimizedAffinity>  (1) 
-4.86997604

>  <minimizedRMSD>  (1) 
0.453870416

$$$$
