
     RDKit          3D

 35 37  0  0  0  0  0  0  0  0999 V2000
   47.5770   33.9560   39.5820 C   0  0  0  0  0  0  0  0  0  0  0  0
   46.3600   33.4820   39.9410 C   0  0  0  0  0  0  0  0  0  0  0  0
   45.7870   33.7550   41.1670 C   0  0  0  0  0  0  0  0  0  0  0  0
   46.4470   34.5300   42.0670 C   0  0  0  0  0  0  0  0  0  0  0  0
   47.6820   35.0090   41.6990 C   0  0  0  0  0  0  0  0  0  0  0  0
   48.2740   34.7560   40.4980 C   0  0  0  0  0  0  0  0  0  0  0  0
   44.4510   36.0930   44.8750 C   0  0  0  0  0  0  0  0  0  0  0  0
   45.0320   35.9240   43.5960 C   0  0  0  0  0  0  0  0  0  0  0  0
   45.8100   34.7930   43.3450 C   0  0  0  0  0  0  0  0  0  0  0  0
   45.9810   33.8940   44.3370 N   0  0  0  0  0  0  0  0  0  0  0  0
   45.4100   34.0830   45.5600 C   0  0  0  0  0  0  0  0  0  0  0  0
   44.6600   35.1630   45.8180 N   0  0  0  0  0  0  0  0  0  0  0  0
   48.2530   33.5740   38.0100 S   0  0  0  0  0  0  0  0  0  0  0  0
   48.7350   34.8730   37.3820 O   0  0  0  0  0  0  0  0  0  0  0  0
   49.3810   32.6060   38.1430 O   0  0  0  0  0  0  0  0  0  0  0  0
   46.9830   32.9080   37.0130 C   0  0  0  0  0  0  0  0  0  0  0  0
   45.8110   33.4230   36.5860 N   0  0  0  0  0  0  0  0  0  0  0  0
   45.1910   32.5580   35.8630 O   0  0  0  0  0  0  0  0  0  0  0  0
   45.8910   31.4530   35.7720 C   0  0  0  0  0  0  0  0  0  0  0  0
   47.0000   31.6690   36.4830 N   0  0  0  0  0  0  0  0  0  0  0  0
   45.5470   30.2670   35.0630 N   0  0  0  0  0  0  0  0  0  0  0  0
   44.5000   30.2860   34.0990 C   0  0  0  0  0  0  0  0  0  0  0  0
   43.5380   31.1400   34.2120 N   0  0  0  0  0  0  0  0  0  0  0  0
   44.5260   29.3710   33.0310 N   0  0  0  0  0  0  0  0  0  0  0  0
   42.7450   31.2190   33.5600 H   0  0  0  0  0  0  0  0  0  0  0  0
   45.8061   32.8545   39.2272 H   0  0  0  0  0  0  0  0  0  0  0  0
   44.7967   33.3454   41.4151 H   0  0  0  0  0  0  0  0  0  0  0  0
   48.2269   35.6363   42.4198 H   0  0  0  0  0  0  0  0  0  0  0  0
   49.2656   35.1658   40.2555 H   0  0  0  0  0  0  0  0  0  0  0  0
   43.8347   36.9776   45.0933 H   0  0  0  0  0  0  0  0  0  0  0  0
   44.8723   36.6754   42.8087 H   0  0  0  0  0  0  0  0  0  0  0  0
   45.5679   33.3345   46.3505 H   0  0  0  0  0  0  0  0  0  0  0  0
   46.0578   29.3920   35.2485 H   0  0  0  0  0  0  0  0  0  0  0  0
   45.2985   28.6944   32.9512 H   0  0  0  0  0  0  0  0  0  0  0  0
   43.7725   29.3776   32.3287 H   0  0  0  0  0  0  0  0  0  0  0  0
  1  2  2  0
  1  6  1  0
  2  3  1  0
  3  4  2  0
  4  9  1  0
  5  4  1  0
  6  5  2  0
  7 12  2  0
  8  7  1  0
  9  8  2  0
  9 10  1  0
 10 11  2  0
 11 12  1  0
 13 15  2  0
 13  1  1  0
 14 13  2  0
 16 13  1  0
 17 16  2  0
 18 17  1  0
 19 18  1  0
 19 20  2  0
 20 16  1  0
 21 19  1  0
 22 23  2  0
 22 21  1  0
 24 22  1  0
 25 23  1  0
  2 26  1  0
  3 27  1  0
  5 28  1  0
  6 29  1  0
  7 30  1  0
  8 31  1  0
 11 32  1  0
 21 33  1  0
 24 34  1  0
 24 35  1  0
M  ISO  7  26  14  27  14  28  14  29  14  30  14  31  14  32  14
M  END
>  <minimizedAffinity>  (1) 
-6.58697367

>  <minimizedRMSD>  (1) 
0.36614266

$$$$
