
     RDKit          3D

 38 41  0  0  0  0  0  0  0  0999 V2000
   47.5960   33.9650   39.5230 C   0  0  0  0  0  0  0  0  0  0  0  0
   46.3830   33.4690   39.8900 C   0  0  0  0  0  0  0  0  0  0  0  0
   45.8090   33.7340   41.1150 C   0  0  0  0  0  0  0  0  0  0  0  0
   46.4670   34.5280   42.0170 C   0  0  0  0  0  0  0  0  0  0  0  0
   47.6830   35.0210   41.6350 C   0  0  0  0  0  0  0  0  0  0  0  0
   48.2820   34.7800   40.4330 C   0  0  0  0  0  0  0  0  0  0  0  0
   44.4550   36.0960   44.8100 C   0  0  0  0  0  0  0  0  0  0  0  0
   45.0470   35.9160   43.5430 C   0  0  0  0  0  0  0  0  0  0  0  0
   45.8280   34.7820   43.2890 C   0  0  0  0  0  0  0  0  0  0  0  0
   45.9970   33.8760   44.2810 N   0  0  0  0  0  0  0  0  0  0  0  0
   45.4040   34.0910   45.4970 C   0  0  0  0  0  0  0  0  0  0  0  0
   44.6560   35.1690   45.7530 N   0  0  0  0  0  0  0  0  0  0  0  0
   48.2760   33.5930   37.9520 S   0  0  0  0  0  0  0  0  0  0  0  0
   48.7980   34.8990   37.3510 O   0  0  0  0  0  0  0  0  0  0  0  0
   49.3580   32.5840   38.0710 O   0  0  0  0  0  0  0  0  0  0  0  0
   46.9850   33.0050   36.9280 C   0  0  0  0  0  0  0  0  0  0  0  0
   45.6930   33.3690   36.7920 N   0  0  0  0  0  0  0  0  0  0  0  0
   45.1210   32.6420   35.9030 O   0  0  0  0  0  0  0  0  0  0  0  0
   45.9630   31.7700   35.4000 C   0  0  0  0  0  0  0  0  0  0  0  0
   47.1170   31.9970   36.0360 N   0  0  0  0  0  0  0  0  0  0  0  0
   45.6780   30.7750   34.3660 C   0  0  0  0  0  0  0  0  0  0  0  0
   44.4050   30.2480   34.2960 C   0  0  0  0  0  0  0  0  0  0  0  0
   44.0760   29.2910   33.3280 C   0  0  0  0  0  0  0  0  0  0  0  0
   45.1200   28.9520   32.4910 C   0  0  0  0  0  0  0  0  0  0  0  0
   46.4080   29.4510   32.5230 C   0  0  0  0  0  0  0  0  0  0  0  0
   46.6720   30.3920   33.5020 C   0  0  0  0  0  0  0  0  0  0  0  0
   45.8379   32.8301   39.1796 H   0  0  0  0  0  0  0  0  0  0  0  0
   44.8261   33.3094   41.3674 H   0  0  0  0  0  0  0  0  0  0  0  0
   48.2197   35.6608   42.3510 H   0  0  0  0  0  0  0  0  0  0  0  0
   49.2649   35.2088   40.1880 H   0  0  0  0  0  0  0  0  0  0  0  0
   43.8389   36.9829   45.0191 H   0  0  0  0  0  0  0  0  0  0  0  0
   44.8952   36.6669   42.7537 H   0  0  0  0  0  0  0  0  0  0  0  0
   45.5490   33.3472   46.2943 H   0  0  0  0  0  0  0  0  0  0  0  0
   43.6384   30.5839   35.0098 H   0  0  0  0  0  0  0  0  0  0  0  0
   43.0728   28.8479   33.2421 H   0  0  0  0  0  0  0  0  0  0  0  0
   44.9030   28.2036   31.7145 H   0  0  0  0  0  0  0  0  0  0  0  0
   47.1786   29.1194   31.8115 H   0  0  0  0  0  0  0  0  0  0  0  0
   47.6766   30.8320   33.5873 H   0  0  0  0  0  0  0  0  0  0  0  0
  1  2  2  0
  1  6  1  0
  2  3  1  0
  3  4  2  0
  4  9  1  0
  5  4  1  0
  6  5  2  0
  7 12  2  0
  8  7  1  0
  9  8  2  0
  9 10  1  0
 10 11  2  0
 11 12  1  0
 13 15  2  0
 13  1  1  0
 14 13  2  0
 16 13  1  0
 17 16  2  0
 18 17  1  0
 19 18  1  0
 19 20  2  0
 20 16  1  0
 21 19  1  0
 22 21  2  0
 23 22  1  0
 24 25  1  0
 24 23  2  0
 25 26  2  0
 26 21  1  0
  2 27  1  0
  3 28  1  0
  5 29  1  0
  6 30  1  0
  7 31  1  0
  8 32  1  0
 11 33  1  0
 22 34  1  0
 23 35  1  0
 24 36  1  0
 25 37  1  0
 26 38  1  0
M  ISO  8  27  14  28  14  29  14  30  14  31  14  32  14  33  14  34  14
M  ISO  4  35  14  36  14  37  14  38  14
M  END
>  <minimizedAffinity>  (1) 
-6.41862345

>  <minimizedRMSD>  (1) 
1.12371838

$$$$
