
     RDKit          3D

 36 39  0  0  0  0  0  0  0  0999 V2000
   47.5940   33.9690   39.5390 C   0  0  0  0  0  0  0  0  0  0  0  0
   46.3840   33.4730   39.9050 C   0  0  0  0  0  0  0  0  0  0  0  0
   45.8120   33.7390   41.1320 C   0  0  0  0  0  0  0  0  0  0  0  0
   46.4640   34.5270   42.0290 C   0  0  0  0  0  0  0  0  0  0  0  0
   47.6820   35.0250   41.6560 C   0  0  0  0  0  0  0  0  0  0  0  0
   48.2790   34.7850   40.4520 C   0  0  0  0  0  0  0  0  0  0  0  0
   44.4570   36.0710   44.8450 C   0  0  0  0  0  0  0  0  0  0  0  0
   45.0440   35.9060   43.5610 C   0  0  0  0  0  0  0  0  0  0  0  0
   45.8270   34.7800   43.3040 C   0  0  0  0  0  0  0  0  0  0  0  0
   46.0020   33.8750   44.2960 N   0  0  0  0  0  0  0  0  0  0  0  0
   45.4260   34.0610   45.5210 C   0  0  0  0  0  0  0  0  0  0  0  0
   44.6650   35.1520   45.7720 N   0  0  0  0  0  0  0  0  0  0  0  0
   48.2700   33.5980   37.9680 S   0  0  0  0  0  0  0  0  0  0  0  0
   48.8020   34.9000   37.3710 O   0  0  0  0  0  0  0  0  0  0  0  0
   49.3500   32.5750   38.0820 O   0  0  0  0  0  0  0  0  0  0  0  0
   46.9850   33.0170   36.9420 C   0  0  0  0  0  0  0  0  0  0  0  0
   45.7060   33.3800   36.8050 N   0  0  0  0  0  0  0  0  0  0  0  0
   45.1080   32.6660   35.9150 O   0  0  0  0  0  0  0  0  0  0  0  0
   45.9510   31.7960   35.4140 C   0  0  0  0  0  0  0  0  0  0  0  0
   47.1090   32.0080   36.0450 N   0  0  0  0  0  0  0  0  0  0  0  0
   45.6640   30.8060   34.3810 C   0  0  0  0  0  0  0  0  0  0  0  0
   44.4100   30.2490   34.2910 C   0  0  0  0  0  0  0  0  0  0  0  0
   44.2270   29.3200   33.2830 C   0  0  0  0  0  0  0  0  0  0  0  0
   45.1900   28.9530   32.4180 N   0  0  0  0  0  0  0  0  0  0  0  0
   46.4100   29.5380   32.5580 C   0  0  0  0  0  0  0  0  0  0  0  0
   46.6390   30.4460   33.5220 N   0  0  0  0  0  0  0  0  0  0  0  0
   45.8384   32.8339   39.1952 H   0  0  0  0  0  0  0  0  0  0  0  0
   44.8293   33.3142   41.3848 H   0  0  0  0  0  0  0  0  0  0  0  0
   48.2171   35.6624   42.3753 H   0  0  0  0  0  0  0  0  0  0  0  0
   49.2610   35.2156   40.2066 H   0  0  0  0  0  0  0  0  0  0  0  0
   43.8371   36.9528   45.0645 H   0  0  0  0  0  0  0  0  0  0  0  0
   44.8823   36.6598   42.7764 H   0  0  0  0  0  0  0  0  0  0  0  0
   45.5827   33.3145   46.3135 H   0  0  0  0  0  0  0  0  0  0  0  0
   43.5993   30.5263   34.9809 H   0  0  0  0  0  0  0  0  0  0  0  0
   43.2358   28.8537   33.1825 H   0  0  0  0  0  0  0  0  0  0  0  0
   47.2233   29.2631   31.8703 H   0  0  0  0  0  0  0  0  0  0  0  0
  1  2  2  0
  1  6  1  0
  2  3  1  0
  3  4  2  0
  4  9  1  0
  5  4  1  0
  6  5  2  0
  7 12  2  0
  8  7  1  0
  9  8  2  0
  9 10  1  0
 10 11  2  0
 11 12  1  0
 13 15  2  0
 13  1  1  0
 14 13  2  0
 16 13  1  0
 17 16  2  0
 18 17  1  0
 19 18  1  0
 19 20  2  0
 20 16  1  0
 21 19  1  0
 22 21  2  0
 23 22  1  0
 24 25  1  0
 24 23  2  0
 25 26  2  0
 26 21  1  0
  2 27  1  0
  3 28  1  0
  5 29  1  0
  6 30  1  0
  7 31  1  0
  8 32  1  0
 11 33  1  0
 22 34  1  0
 23 35  1  0
 25 36  1  0
M  ISO  8  27  14  28  14  29  14  30  14  31  14  32  14  33  14  34  14
M  ISO  2  35  14  36  14
M  END
>  <minimizedAffinity>  (1) 
-6.40617323

>  <minimizedRMSD>  (1) 
1.08919692

$$$$
