
     RDKit          3D

 37 40  0  0  0  0  0  0  0  0999 V2000
   47.5910   33.9610   39.5190 C   0  0  0  0  0  0  0  0  0  0  0  0
   46.3720   33.4630   39.8890 C   0  0  0  0  0  0  0  0  0  0  0  0
   45.8050   33.7390   41.1240 C   0  0  0  0  0  0  0  0  0  0  0  0
   46.4700   34.5330   42.0150 C   0  0  0  0  0  0  0  0  0  0  0  0
   47.6770   35.0200   41.6350 C   0  0  0  0  0  0  0  0  0  0  0  0
   48.2690   34.7720   40.4330 C   0  0  0  0  0  0  0  0  0  0  0  0
   44.4580   36.0900   44.8160 C   0  0  0  0  0  0  0  0  0  0  0  0
   45.0480   35.9180   43.5410 C   0  0  0  0  0  0  0  0  0  0  0  0
   45.8260   34.7900   43.2950 C   0  0  0  0  0  0  0  0  0  0  0  0
   45.9920   33.8940   44.2830 N   0  0  0  0  0  0  0  0  0  0  0  0
   45.4110   34.0860   45.4980 C   0  0  0  0  0  0  0  0  0  0  0  0
   44.6560   35.1740   45.7500 N   0  0  0  0  0  0  0  0  0  0  0  0
   48.2780   33.5880   37.9470 S   0  0  0  0  0  0  0  0  0  0  0  0
   48.8020   34.8940   37.3560 O   0  0  0  0  0  0  0  0  0  0  0  0
   49.3520   32.5700   38.0720 O   0  0  0  0  0  0  0  0  0  0  0  0
   46.9870   33.0010   36.9240 C   0  0  0  0  0  0  0  0  0  0  0  0
   45.6940   33.3790   36.7940 N   0  0  0  0  0  0  0  0  0  0  0  0
   45.0990   32.6640   35.9120 O   0  0  0  0  0  0  0  0  0  0  0  0
   45.9340   31.7820   35.4070 C   0  0  0  0  0  0  0  0  0  0  0  0
   47.1000   31.9990   36.0420 N   0  0  0  0  0  0  0  0  0  0  0  0
   45.6560   30.7680   34.3680 C   0  0  0  0  0  0  0  0  0  0  0  0
   44.3990   30.1980   34.2690 C   0  0  0  0  0  0  0  0  0  0  0  0
   44.1610   29.2660   33.3060 C   0  0  0  0  0  0  0  0  0  0  0  0
   45.2070   28.9300   32.4610 C   0  0  0  0  0  0  0  0  0  0  0  0
   46.4740   29.5120   32.5680 C   0  0  0  0  0  0  0  0  0  0  0  0
   46.6660   30.4380   33.5430 N   0  0  0  0  0  0  0  0  0  0  0  0
   45.8231   32.8221   39.1833 H   0  0  0  0  0  0  0  0  0  0  0  0
   44.8223   33.3197   41.3856 H   0  0  0  0  0  0  0  0  0  0  0  0
   48.2167   35.6609   42.3477 H   0  0  0  0  0  0  0  0  0  0  0  0
   49.2532   35.1983   40.1889 H   0  0  0  0  0  0  0  0  0  0  0  0
   43.8414   36.9759   45.0282 H   0  0  0  0  0  0  0  0  0  0  0  0
   44.8933   36.6686   42.7519 H   0  0  0  0  0  0  0  0  0  0  0  0
   45.5603   33.3383   46.2909 H   0  0  0  0  0  0  0  0  0  0  0  0
   43.5989   30.4956   34.9627 H   0  0  0  0  0  0  0  0  0  0  0  0
   43.1722   28.7955   33.2019 H   0  0  0  0  0  0  0  0  0  0  0  0
   45.0341   28.1778   31.6773 H   0  0  0  0  0  0  0  0  0  0  0  0
   47.2885   29.2292   31.8849 H   0  0  0  0  0  0  0  0  0  0  0  0
  1  2  2  0
  1  6  1  0
  2  3  1  0
  3  4  2  0
  4  9  1  0
  5  4  1  0
  6  5  2  0
  7 12  2  0
  8  7  1  0
  9  8  2  0
  9 10  1  0
 10 11  2  0
 11 12  1  0
 13 15  2  0
 13  1  1  0
 14 13  2  0
 16 13  1  0
 17 16  2  0
 18 17  1  0
 19 18  1  0
 19 20  2  0
 20 16  1  0
 21 19  1  0
 22 21  2  0
 23 22  1  0
 24 25  1  0
 24 23  2  0
 25 26  2  0
 26 21  1  0
  2 27  1  0
  3 28  1  0
  5 29  1  0
  6 30  1  0
  7 31  1  0
  8 32  1  0
 11 33  1  0
 22 34  1  0
 23 35  1  0
 24 36  1  0
 25 37  1  0
M  ISO  8  27  14  28  14  29  14  30  14  31  14  32  14  33  14  34  14
M  ISO  3  35  14  36  14  37  14
M  END
>  <minimizedAffinity>  (1) 
-6.39375687

>  <minimizedRMSD>  (1) 
1.07420433

$$$$
