
     RDKit          3D

 35 38  0  0  0  0  0  0  0  0999 V2000
   47.5900   33.9450   39.5760 C   0  0  0  0  0  0  0  0  0  0  0  0
   46.4060   33.4120   39.9550 C   0  0  0  0  0  0  0  0  0  0  0  0
   45.8380   33.6760   41.1920 C   0  0  0  0  0  0  0  0  0  0  0  0
   46.4900   34.5020   42.0650 C   0  0  0  0  0  0  0  0  0  0  0  0
   47.6820   35.0340   41.6760 C   0  0  0  0  0  0  0  0  0  0  0  0
   48.2680   34.7940   40.4660 C   0  0  0  0  0  0  0  0  0  0  0  0
   44.4570   36.0290   44.8850 C   0  0  0  0  0  0  0  0  0  0  0  0
   45.0420   35.8770   43.6000 C   0  0  0  0  0  0  0  0  0  0  0  0
   45.8440   34.7450   43.3560 C   0  0  0  0  0  0  0  0  0  0  0  0
   46.0320   33.8510   44.3380 N   0  0  0  0  0  0  0  0  0  0  0  0
   45.4520   34.0280   45.5630 C   0  0  0  0  0  0  0  0  0  0  0  0
   44.6810   35.1070   45.8150 N   0  0  0  0  0  0  0  0  0  0  0  0
   48.2670   33.5780   37.9960 S   0  0  0  0  0  0  0  0  0  0  0  0
   48.7720   34.9020   37.3940 O   0  0  0  0  0  0  0  0  0  0  0  0
   49.3830   32.5990   38.1090 O   0  0  0  0  0  0  0  0  0  0  0  0
   46.9930   32.9680   36.9860 C   0  0  0  0  0  0  0  0  0  0  0  0
   45.7270   33.3470   36.7900 N   0  0  0  0  0  0  0  0  0  0  0  0
   45.1260   32.6070   35.9430 O   0  0  0  0  0  0  0  0  0  0  0  0
   45.9700   31.6710   35.5150 C   0  0  0  0  0  0  0  0  0  0  0  0
   47.1260   31.9080   36.1720 N   0  0  0  0  0  0  0  0  0  0  0  0
   45.8390   30.6000   34.5840 N   0  0  0  0  0  0  0  0  0  0  0  0
   44.6100   30.5630   33.9920 C   0  0  0  0  0  0  0  0  0  0  0  0
   44.5870   29.4930   33.1120 C   0  0  0  0  0  0  0  0  0  0  0  0
   45.7950   28.9070   33.1910 N   0  0  0  0  0  0  0  0  0  0  0  0
   46.5570   29.5700   34.0790 C   0  0  0  0  0  0  0  0  0  0  0  0
   45.8757   32.7464   39.2581 H   0  0  0  0  0  0  0  0  0  0  0  0
   44.8731   33.2257   41.4681 H   0  0  0  0  0  0  0  0  0  0  0  0
   48.2050   35.6980   42.3800 H   0  0  0  0  0  0  0  0  0  0  0  0
   49.2336   35.2481   40.1988 H   0  0  0  0  0  0  0  0  0  0  0  0
   43.8249   36.9012   45.1081 H   0  0  0  0  0  0  0  0  0  0  0  0
   44.8727   36.6264   42.8128 H   0  0  0  0  0  0  0  0  0  0  0  0
   45.6157   33.2813   46.3540 H   0  0  0  0  0  0  0  0  0  0  0  0
   43.7814   31.2614   34.1807 H   0  0  0  0  0  0  0  0  0  0  0  0
   43.7460   29.1836   32.4741 H   0  0  0  0  0  0  0  0  0  0  0  0
   47.5926   29.3169   34.3500 H   0  0  0  0  0  0  0  0  0  0  0  0
  1  2  2  0
  1  6  1  0
  2  3  1  0
  3  4  2  0
  4  9  1  0
  5  4  1  0
  6  5  2  0
  7 12  2  0
  8  7  1  0
  9  8  2  0
  9 10  1  0
 10 11  2  0
 11 12  1  0
 13 15  2  0
 13  1  1  0
 14 13  2  0
 16 13  1  0
 17 16  2  0
 18 17  1  0
 19 18  1  0
 19 20  2  0
 20 16  1  0
 21 19  1  0
 22 21  1  0
 23 24  1  0
 23 22  2  0
 24 25  2  0
 25 21  1  0
  2 26  1  0
  3 27  1  0
  5 28  1  0
  6 29  1  0
  7 30  1  0
  8 31  1  0
 11 32  1  0
 22 33  1  0
 23 34  1  0
 25 35  1  0
M  ISO  8  26  14  27  14  28  14  29  14  30  14  31  14  32  14  33  14
M  ISO  2  34  14  35  14
M  END
>  <minimizedAffinity>  (1) 
-6.3273921

>  <minimizedRMSD>  (1) 
0.805956304

$$$$
