
     RDKit          3D

 40 43  0  0  0  0  0  0  0  0999 V2000
   47.5520   33.9370   39.5490 C   0  0  0  0  0  0  0  0  0  0  0  0
   46.3200   33.4670   39.9150 C   0  0  0  0  0  0  0  0  0  0  0  0
   45.7690   33.7580   41.1370 C   0  0  0  0  0  0  0  0  0  0  0  0
   46.4370   34.5310   42.0320 C   0  0  0  0  0  0  0  0  0  0  0  0
   47.6670   34.9970   41.6590 C   0  0  0  0  0  0  0  0  0  0  0  0
   48.2600   34.7380   40.4600 C   0  0  0  0  0  0  0  0  0  0  0  0
   44.4560   36.1430   44.8210 C   0  0  0  0  0  0  0  0  0  0  0  0
   45.0320   35.9680   43.5450 C   0  0  0  0  0  0  0  0  0  0  0  0
   45.8000   34.8060   43.3140 C   0  0  0  0  0  0  0  0  0  0  0  0
   45.9630   33.9040   44.3070 N   0  0  0  0  0  0  0  0  0  0  0  0
   45.3820   34.1260   45.5250 C   0  0  0  0  0  0  0  0  0  0  0  0
   44.6440   35.2250   45.7720 N   0  0  0  0  0  0  0  0  0  0  0  0
   48.2280   33.5410   37.9690 S   0  0  0  0  0  0  0  0  0  0  0  0
   48.6260   34.8550   37.2980 O   0  0  0  0  0  0  0  0  0  0  0  0
   49.3990   32.6400   38.1130 O   0  0  0  0  0  0  0  0  0  0  0  0
   46.9710   32.7880   37.0150 C   0  0  0  0  0  0  0  0  0  0  0  0
   45.7810   33.2440   36.5640 N   0  0  0  0  0  0  0  0  0  0  0  0
   45.1780   32.3330   35.8930 O   0  0  0  0  0  0  0  0  0  0  0  0
   45.9240   31.2390   35.8640 C   0  0  0  0  0  0  0  0  0  0  0  0
   47.0310   31.5170   36.5550 N   0  0  0  0  0  0  0  0  0  0  0  0
   45.4260   30.1040   35.1640 N   0  0  0  0  0  0  0  0  0  0  0  0
   46.0700   29.1910   34.2020 C   0  0  0  0  0  0  0  0  0  0  0  0
   45.1180   29.3700   33.0250 C   0  0  0  0  0  0  0  0  0  0  0  0
   43.7580   29.6560   33.6680 C   0  0  0  0  0  0  0  0  0  0  0  0
   44.1070   29.4450   35.1480 C   0  0  0  0  0  0  0  0  0  0  0  0
   45.7561   32.8386   39.2099 H   0  0  0  0  0  0  0  0  0  0  0  0
   44.7759   33.3613   41.3948 H   0  0  0  0  0  0  0  0  0  0  0  0
   48.2159   35.6245   42.3766 H   0  0  0  0  0  0  0  0  0  0  0  0
   49.2541   35.1403   40.2151 H   0  0  0  0  0  0  0  0  0  0  0  0
   43.8512   37.0371   45.0326 H   0  0  0  0  0  0  0  0  0  0  0  0
   44.8867   36.7163   42.7519 H   0  0  0  0  0  0  0  0  0  0  0  0
   45.5216   33.3853   46.3262 H   0  0  0  0  0  0  0  0  0  0  0  0
   47.0941   29.5078   33.9554 H   0  0  0  0  0  0  0  0  0  0  0  0
   46.2017   28.1556   34.5494 H   0  0  0  0  0  0  0  0  0  0  0  0
   45.0753   28.4541   32.4174 H   0  0  0  0  0  0  0  0  0  0  0  0
   45.4376   30.1767   32.3490 H   0  0  0  0  0  0  0  0  0  0  0  0
   43.4227   30.6850   33.4712 H   0  0  0  0  0  0  0  0  0  0  0  0
   42.9316   29.0329   33.2956 H   0  0  0  0  0  0  0  0  0  0  0  0
   43.3887   29.9414   35.8170 H   0  0  0  0  0  0  0  0  0  0  0  0
   44.0927   28.4015   35.4956 H   0  0  0  0  0  0  0  0  0  0  0  0
  1  2  2  0
  1  6  1  0
  2  3  1  0
  3  4  2  0
  4  9  1  0
  5  4  1  0
  6  5  2  0
  7 12  2  0
  8  7  1  0
  9  8  2  0
  9 10  1  0
 10 11  2  0
 11 12  1  0
 13 15  2  0
 13  1  1  0
 14 13  2  0
 16 13  1  0
 17 16  2  0
 18 17  1  0
 19 18  1  0
 19 20  2  0
 20 16  1  0
 21 19  1  0
 22 21  1  0
 23 24  1  0
 23 22  1  0
 24 25  1  0
 25 21  1  0
  2 26  1  0
  3 27  1  0
  5 28  1  0
  6 29  1  0
  7 30  1  0
  8 31  1  0
 11 32  1  0
 22 33  1  0
 22 34  1  0
 23 35  1  0
 23 36  1  0
 24 37  1  0
 24 38  1  0
 25 39  1  0
 25 40  1  0
M  ISO  8  26  14  27  14  28  14  29  14  30  14  31  14  32  14  33  13
M  ISO  7  34  13  35  13  36  13  37  13  38  13  39  13  40  13
M  END
>  <minimizedAffinity>  (1) 
-6.26945686

>  <minimizedRMSD>  (1) 
0.222734213

$$$$
