
     RDKit          3D

 35 38  0  0  0  0  0  0  0  0999 V2000
   47.5890   33.9660   39.5270 C   0  0  0  0  0  0  0  0  0  0  0  0
   46.3830   33.4700   39.8950 C   0  0  0  0  0  0  0  0  0  0  0  0
   45.7990   33.7300   41.1240 C   0  0  0  0  0  0  0  0  0  0  0  0
   46.4710   34.5260   42.0170 C   0  0  0  0  0  0  0  0  0  0  0  0
   47.6810   35.0190   41.6360 C   0  0  0  0  0  0  0  0  0  0  0  0
   48.2790   34.7830   40.4400 C   0  0  0  0  0  0  0  0  0  0  0  0
   44.4580   36.0830   44.8270 C   0  0  0  0  0  0  0  0  0  0  0  0
   45.0480   35.9160   43.5420 C   0  0  0  0  0  0  0  0  0  0  0  0
   45.8290   34.7790   43.3000 C   0  0  0  0  0  0  0  0  0  0  0  0
   46.0030   33.8730   44.2840 N   0  0  0  0  0  0  0  0  0  0  0  0
   45.4160   34.0790   45.5030 C   0  0  0  0  0  0  0  0  0  0  0  0
   44.6660   35.1560   45.7560 N   0  0  0  0  0  0  0  0  0  0  0  0
   48.2670   33.5930   37.9450 S   0  0  0  0  0  0  0  0  0  0  0  0
   48.8000   34.8940   37.3610 O   0  0  0  0  0  0  0  0  0  0  0  0
   49.3470   32.5750   38.0650 O   0  0  0  0  0  0  0  0  0  0  0  0
   46.9850   33.0080   36.9290 C   0  0  0  0  0  0  0  0  0  0  0  0
   45.6940   33.3970   36.7920 N   0  0  0  0  0  0  0  0  0  0  0  0
   45.1010   32.6690   35.9090 O   0  0  0  0  0  0  0  0  0  0  0  0
   45.9340   31.7840   35.4220 C   0  0  0  0  0  0  0  0  0  0  0  0
   47.0960   31.9870   36.0470 N   0  0  0  0  0  0  0  0  0  0  0  0
   45.5790   30.8060   34.4000 C   0  0  0  0  0  0  0  0  0  0  0  0
   44.3040   30.2900   34.2500 C   0  0  0  0  0  0  0  0  0  0  0  0
   44.3790   29.4000   33.1800 C   0  0  0  0  0  0  0  0  0  0  0  0
   45.6950   29.4210   32.7350 C   0  0  0  0  0  0  0  0  0  0  0  0
   46.3460   30.2600   33.4870 O   0  0  0  0  0  0  0  0  0  0  0  0
   45.8413   32.8297   39.1832 H   0  0  0  0  0  0  0  0  0  0  0  0
   44.8162   33.3068   41.3789 H   0  0  0  0  0  0  0  0  0  0  0  0
   48.2164   35.6587   42.3530 H   0  0  0  0  0  0  0  0  0  0  0  0
   49.2617   35.2128   40.1957 H   0  0  0  0  0  0  0  0  0  0  0  0
   43.8396   36.9657   45.0473 H   0  0  0  0  0  0  0  0  0  0  0  0
   44.8931   36.6668   42.7532 H   0  0  0  0  0  0  0  0  0  0  0  0
   45.5661   33.3351   46.2993 H   0  0  0  0  0  0  0  0  0  0  0  0
   43.4150   30.5321   34.8509 H   0  0  0  0  0  0  0  0  0  0  0  0
   43.5559   28.7978   32.7678 H   0  0  0  0  0  0  0  0  0  0  0  0
   46.1100   28.8362   31.9008 H   0  0  0  0  0  0  0  0  0  0  0  0
  1  2  2  0
  1  6  1  0
  2  3  1  0
  3  4  2  0
  4  9  1  0
  5  4  1  0
  6  5  2  0
  7 12  2  0
  8  7  1  0
  9  8  2  0
  9 10  1  0
 10 11  2  0
 11 12  1  0
 13 15  2  0
 13  1  1  0
 14 13  2  0
 16 13  1  0
 17 16  2  0
 18 17  1  0
 19 18  1  0
 19 20  2  0
 20 16  1  0
 21 19  1  0
 22 21  2  0
 23 22  1  0
 24 23  2  0
 24 25  1  0
 25 21  1  0
  2 26  1  0
  3 27  1  0
  5 28  1  0
  6 29  1  0
  7 30  1  0
  8 31  1  0
 11 32  1  0
 22 33  1  0
 23 34  1  0
 24 35  1  0
M  ISO  8  26  14  27  14  28  14  29  14  30  14  31  14  32  14  33  14
M  ISO  2  34  14  35  14
M  END
>  <minimizedAffinity>  (1) 
-6.17114019

>  <minimizedRMSD>  (1) 
0.957616985

$$$$
