
     RDKit          3D

 31 33  0  0  0  0  0  0  0  0999 V2000
   47.6360   33.9820   39.6090 C   0  0  0  0  0  0  0  0  0  0  0  0
   46.4550   33.4470   39.9880 C   0  0  0  0  0  0  0  0  0  0  0  0
   45.8670   33.6980   41.2060 C   0  0  0  0  0  0  0  0  0  0  0  0
   46.5010   34.5350   42.0950 C   0  0  0  0  0  0  0  0  0  0  0  0
   47.6900   35.0700   41.7070 C   0  0  0  0  0  0  0  0  0  0  0  0
   48.2960   34.8390   40.5050 C   0  0  0  0  0  0  0  0  0  0  0  0
   44.4520   36.0270   44.8970 C   0  0  0  0  0  0  0  0  0  0  0  0
   45.0430   35.8850   43.6200 C   0  0  0  0  0  0  0  0  0  0  0  0
   45.8490   34.7730   43.3690 C   0  0  0  0  0  0  0  0  0  0  0  0
   46.0300   33.8800   44.3590 N   0  0  0  0  0  0  0  0  0  0  0  0
   45.4530   34.0350   45.5800 C   0  0  0  0  0  0  0  0  0  0  0  0
   44.6700   35.1110   45.8270 N   0  0  0  0  0  0  0  0  0  0  0  0
   48.3270   33.6180   38.0390 S   0  0  0  0  0  0  0  0  0  0  0  0
   48.9280   34.9060   37.4810 O   0  0  0  0  0  0  0  0  0  0  0  0
   49.3610   32.5560   38.1490 O   0  0  0  0  0  0  0  0  0  0  0  0
   47.0320   33.1080   36.9780 C   0  0  0  0  0  0  0  0  0  0  0  0
   45.7180   33.3680   36.9810 N   0  0  0  0  0  0  0  0  0  0  0  0
   45.1370   32.7730   35.9970 O   0  0  0  0  0  0  0  0  0  0  0  0
   46.0220   32.1000   35.3040 C   0  0  0  0  0  0  0  0  0  0  0  0
   47.2000   32.2990   35.9030 N   0  0  0  0  0  0  0  0  0  0  0  0
   45.7760   31.2910   34.1160 C   0  0  0  0  0  0  0  0  0  0  0  0
   46.7130   30.6510   33.5730 O   0  0  0  0  0  0  0  0  0  0  0  0
   44.4980   31.2290   33.5820 O   0  0  0  0  0  0  0  0  0  0  0  0
   45.9369   32.7763   39.2868 H   0  0  0  0  0  0  0  0  0  0  0  0
   44.9031   33.2359   41.4656 H   0  0  0  0  0  0  0  0  0  0  0  0
   48.2019   35.7389   42.4145 H   0  0  0  0  0  0  0  0  0  0  0  0
   49.2595   35.3041   40.2496 H   0  0  0  0  0  0  0  0  0  0  0  0
   43.8136   36.8955   45.1164 H   0  0  0  0  0  0  0  0  0  0  0  0
   44.8704   36.6384   42.8373 H   0  0  0  0  0  0  0  0  0  0  0  0
   45.6225   33.2858   46.3674 H   0  0  0  0  0  0  0  0  0  0  0  0
   44.3245   30.6815   32.7756 H   0  0  0  0  0  0  0  0  0  0  0  0
  1  2  2  0
  1  6  1  0
  2  3  1  0
  3  4  2  0
  4  9  1  0
  5  4  1  0
  6  5  2  0
  7 12  2  0
  8  7  1  0
  9  8  2  0
  9 10  1  0
 10 11  2  0
 11 12  1  0
 13 15  2  0
 13  1  1  0
 14 13  2  0
 16 17  2  0
 16 13  1  0
 18 17  1  0
 19 20  2  0
 19 18  1  0
 20 16  1  0
 21 19  1  0
 22 21  2  0
 23 21  1  0
  2 24  1  0
  3 25  1  0
  5 26  1  0
  6 27  1  0
  7 28  1  0
  8 29  1  0
 11 30  1  0
 23 31  1  0
M  ISO  8  24  14  25  14  26  14  27  14  28  14  29  14  30  14  31   3
M  END
>  <minimizedAffinity>  (1) 
-6.1537776

>  <minimizedRMSD>  (1) 
0.99744916

$$$$
