
     RDKit          3D

 32 34  0  0  1  0  0  0  0  0999 V2000
   49.2350   33.6860   42.6460 C   0  0  2  0  0  0  0  0  0  0  0  0
   47.8110   33.8810   42.5410 C   0  0  2  0  0  0  0  0  0  0  0  0
   47.6600   35.3210   42.0020 C   0  0  0  0  0  0  0  0  0  0  0  0
   48.9950   35.7880   41.4980 C   0  0  0  0  0  0  0  0  0  0  0  0
   49.9050   35.0850   42.4340 C   0  0  0  0  0  0  0  0  0  0  0  0
   49.8950   32.8240   41.6620 C   0  0  0  0  0  0  0  0  0  0  0  0
   49.1020   32.2800   40.6520 C   0  0  0  0  0  0  0  0  0  0  0  0
   49.6540   31.4510   39.6770 C   0  0  0  0  0  0  0  0  0  0  0  0
   51.0120   31.2270   39.8020 N   0  0  0  0  0  0  0  0  0  0  0  0
   51.7560   31.7590   40.7780 C   0  0  0  0  0  0  0  0  0  0  0  0
   51.1940   32.5490   41.6970 N   0  0  0  0  0  0  0  0  0  0  0  0
   47.0320   33.7770   43.8110 C   0  0  0  0  0  0  0  0  0  0  0  0
   45.9930   34.3750   43.9700 O   0  0  0  0  0  0  0  0  0  0  0  0
   46.9220   33.1880   45.1510 C   0  0  0  0  0  0  0  0  0  0  0  0
   45.6260   33.6420   45.8750 C   0  0  0  0  0  0  0  0  0  0  0  0
   45.8940   32.2160   45.5630 C   0  0  0  0  0  0  0  0  0  0  0  0
   49.3569   33.1965   43.6235 H   0  0  0  0  0  0  0  0  0  0  0  0
   47.4042   33.0790   41.9075 H   0  0  0  0  0  0  0  0  0  0  0  0
   46.9288   35.3340   41.1803 H   0  0  0  0  0  0  0  0  0  0  0  0
   47.3080   35.9867   42.8038 H   0  0  0  0  0  0  0  0  0  0  0  0
   49.1661   35.4774   40.4567 H   0  0  0  0  0  0  0  0  0  0  0  0
   49.1177   36.8809   41.4772 H   0  0  0  0  0  0  0  0  0  0  0  0
   50.9072   34.9746   41.9942 H   0  0  0  0  0  0  0  0  0  0  0  0
   50.0426   35.6328   43.3779 H   0  0  0  0  0  0  0  0  0  0  0  0
   48.0263   32.5083   40.6245 H   0  0  0  0  0  0  0  0  0  0  0  0
   49.0537   31.0082   38.8686 H   0  0  0  0  0  0  0  0  0  0  0  0
   52.8341   31.5453   40.8240 H   0  0  0  0  0  0  0  0  0  0  0  0
   48.0146   33.1625   45.2761 H   0  0  0  0  0  0  0  0  0  0  0  0
   45.6668   34.0004   46.9142 H   0  0  0  0  0  0  0  0  0  0  0  0
   44.8154   34.3563   45.6685 H   0  0  0  0  0  0  0  0  0  0  0  0
   45.2917   31.7081   44.7954 H   0  0  0  0  0  0  0  0  0  0  0  0
   45.9181   31.2990   46.1701 H   0  0  0  0  0  0  0  0  0  0  0  0
  2  1  1  0
  2 12  1  0
  3  2  1  0
  4  3  1  0
  4  5  1  0
  5  1  1  0
  6 11  1  0
  6  1  1  0
  7  6  2  0
  8  9  2  0
  8  7  1  0
  9 10  1  0
 10 11  2  0
 12 13  2  0
 12 14  1  0
 14 16  1  0
 14 15  1  0
 16 15  1  0
  1 17  1  1
  2 18  1  6
  3 19  1  0
  3 20  1  0
  4 21  1  0
  4 22  1  0
  5 23  1  0
  5 24  1  0
  7 25  1  0
  8 26  1  0
 10 27  1  0
 14 28  1  0
 15 29  1  0
 15 30  1  0
 16 31  1  0
 16 32  1  0
M  ISO  8  17  13  18  13  19  13  20  13  21  13  22  13  23  13  24  13
M  ISO  8  25  14  26  14  27  14  28  13  29  13  30  13  31  13  32  13
M  END
>  <minimizedAffinity>  (1) 
-4.68845177

>  <minimizedRMSD>  (1) 
0.206854492

$$$$
