
     RDKit          3D

 40 42  0  0  0  0  0  0  0  0999 V2000
   47.5830   33.9510   39.5410 C   0  0  0  0  0  0  0  0  0  0  0  0
   46.3670   33.4590   39.9000 C   0  0  0  0  0  0  0  0  0  0  0  0
   45.7900   33.7350   41.1270 C   0  0  0  0  0  0  0  0  0  0  0  0
   46.4610   34.5310   42.0150 C   0  0  0  0  0  0  0  0  0  0  0  0
   47.6800   35.0200   41.6470 C   0  0  0  0  0  0  0  0  0  0  0  0
   48.2820   34.7700   40.4480 C   0  0  0  0  0  0  0  0  0  0  0  0
   44.4550   36.1130   44.8100 C   0  0  0  0  0  0  0  0  0  0  0  0
   45.0440   35.9300   43.5430 C   0  0  0  0  0  0  0  0  0  0  0  0
   45.8160   34.7970   43.2970 C   0  0  0  0  0  0  0  0  0  0  0  0
   45.9840   33.8890   44.2920 N   0  0  0  0  0  0  0  0  0  0  0  0
   45.3960   34.1050   45.5040 C   0  0  0  0  0  0  0  0  0  0  0  0
   44.6480   35.1920   45.7580 N   0  0  0  0  0  0  0  0  0  0  0  0
   48.2590   33.5600   37.9670 S   0  0  0  0  0  0  0  0  0  0  0  0
   48.7560   34.8780   37.3410 O   0  0  0  0  0  0  0  0  0  0  0  0
   49.3710   32.6010   38.0900 O   0  0  0  0  0  0  0  0  0  0  0  0
   46.9840   32.9240   36.9570 C   0  0  0  0  0  0  0  0  0  0  0  0
   45.7310   33.3580   36.7160 N   0  0  0  0  0  0  0  0  0  0  0  0
   45.1430   32.5710   35.9000 O   0  0  0  0  0  0  0  0  0  0  0  0
   45.9420   31.5880   35.5530 C   0  0  0  0  0  0  0  0  0  0  0  0
   47.1050   31.8020   36.2150 N   0  0  0  0  0  0  0  0  0  0  0  0
   45.6300   30.4690   34.6230 C   0  0  0  0  0  0  0  0  0  0  0  0
   44.1880   30.5610   34.1360 C   0  0  0  0  0  0  0  0  0  0  0  0
   45.7370   29.1340   35.3500 C   0  0  0  0  0  0  0  0  0  0  0  0
   46.5570   30.4410   33.4450 C   0  0  0  0  0  0  0  0  0  0  0  0
   45.8229   32.8190   39.1898 H   0  0  0  0  0  0  0  0  0  0  0  0
   44.8046   33.3199   41.3852 H   0  0  0  0  0  0  0  0  0  0  0  0
   48.2141   35.6592   42.3654 H   0  0  0  0  0  0  0  0  0  0  0  0
   49.2686   35.1894   40.2015 H   0  0  0  0  0  0  0  0  0  0  0  0
   43.8435   37.0038   45.0159 H   0  0  0  0  0  0  0  0  0  0  0  0
   44.8947   36.6790   42.7513 H   0  0  0  0  0  0  0  0  0  0  0  0
   45.5395   33.3621   46.3025 H   0  0  0  0  0  0  0  0  0  0  0  0
   43.5107   30.6042   35.0017 H   0  0  0  0  0  0  0  0  0  0  0  0
   44.0637   31.4689   33.5275 H   0  0  0  0  0  0  0  0  0  0  0  0
   43.9493   29.6763   33.5275 H   0  0  0  0  0  0  0  0  0  0  0  0
   45.7232   29.3060   36.4364 H   0  0  0  0  0  0  0  0  0  0  0  0
   44.8872   28.4944   35.0692 H   0  0  0  0  0  0  0  0  0  0  0  0
   46.6778   28.6379   35.0692 H   0  0  0  0  0  0  0  0  0  0  0  0
   47.5982   30.4096   33.7984 H   0  0  0  0  0  0  0  0  0  0  0  0
   46.3494   29.5487   32.8361 H   0  0  0  0  0  0  0  0  0  0  0  0
   46.4036   31.3442   32.8361 H   0  0  0  0  0  0  0  0  0  0  0  0
  1  2  2  0
  1  6  1  0
  2  3  1  0
  3  4  2  0
  4  9  1  0
  5  4  1  0
  6  5  2  0
  7 12  2  0
  8  7  1  0
  9  8  2  0
  9 10  1  0
 10 11  2  0
 11 12  1  0
 13 15  2  0
 13  1  1  0
 14 13  2  0
 16 13  1  0
 17 16  2  0
 18 17  1  0
 19 18  1  0
 19 20  2  0
 20 16  1  0
 21 23  1  0
 21 19  1  0
 22 21  1  0
 24 21  1  0
  2 25  1  0
  3 26  1  0
  5 27  1  0
  6 28  1  0
  7 29  1  0
  8 30  1  0
 11 31  1  0
 22 32  1  0
 22 33  1  0
 22 34  1  0
 23 35  1  0
 23 36  1  0
 23 37  1  0
 24 38  1  0
 24 39  1  0
 24 40  1  0
M  ISO  8  25  14  26  14  27  14  28  14  29  14  30  14  31  14  32   8
M  ISO  8  33   8  34   8  35   8  36   8  37   8  38   8  39   8  40   8
M  END
>  <minimizedAffinity>  (1) 
-5.90481472

>  <minimizedRMSD>  (1) 
0.573423803

$$$$
