
     RDKit          3D

 35 38  0  0  0  0  0  0  0  0999 V2000
   47.5920   33.9550   39.5700 C   0  0  0  0  0  0  0  0  0  0  0  0
   46.3820   33.4650   39.9280 C   0  0  0  0  0  0  0  0  0  0  0  0
   45.7960   33.7370   41.1580 C   0  0  0  0  0  0  0  0  0  0  0  0
   46.4730   34.5370   42.0480 C   0  0  0  0  0  0  0  0  0  0  0  0
   47.6850   35.0210   41.6750 C   0  0  0  0  0  0  0  0  0  0  0  0
   48.2820   34.7710   40.4790 C   0  0  0  0  0  0  0  0  0  0  0  0
   44.4520   36.1110   44.8380 C   0  0  0  0  0  0  0  0  0  0  0  0
   45.0430   35.9470   43.5550 C   0  0  0  0  0  0  0  0  0  0  0  0
   45.8250   34.7980   43.3270 C   0  0  0  0  0  0  0  0  0  0  0  0
   45.9850   33.9060   44.3140 N   0  0  0  0  0  0  0  0  0  0  0  0
   45.3970   34.1050   45.5320 C   0  0  0  0  0  0  0  0  0  0  0  0
   44.6470   35.1890   45.7790 N   0  0  0  0  0  0  0  0  0  0  0  0
   48.2680   33.5650   37.9940 S   0  0  0  0  0  0  0  0  0  0  0  0
   48.7450   34.8840   37.3640 O   0  0  0  0  0  0  0  0  0  0  0  0
   49.3990   32.6080   38.1290 O   0  0  0  0  0  0  0  0  0  0  0  0
   47.0090   32.9020   37.0000 C   0  0  0  0  0  0  0  0  0  0  0  0
   45.7770   33.3550   36.6760 N   0  0  0  0  0  0  0  0  0  0  0  0
   45.1910   32.5150   35.9000 O   0  0  0  0  0  0  0  0  0  0  0  0
   45.9680   31.4810   35.6630 C   0  0  0  0  0  0  0  0  0  0  0  0
   47.0900   31.7350   36.3510 N   0  0  0  0  0  0  0  0  0  0  0  0
   45.7520   30.2560   34.8370 C   0  0  0  0  0  0  0  0  0  0  0  0
   44.8300   30.2730   33.6930 C   0  0  0  0  0  0  0  0  0  0  0  0
   46.2690   30.3160   33.3830 C   0  0  0  0  0  0  0  0  0  0  0  0
   45.8404   32.8251   39.2158 H   0  0  0  0  0  0  0  0  0  0  0  0
   44.8106   33.3208   41.4145 H   0  0  0  0  0  0  0  0  0  0  0  0
   48.2223   35.6606   42.3907 H   0  0  0  0  0  0  0  0  0  0  0  0
   49.2680   35.1924   40.2337 H   0  0  0  0  0  0  0  0  0  0  0  0
   43.8358   36.9966   45.0525 H   0  0  0  0  0  0  0  0  0  0  0  0
   44.8937   36.6960   42.7634 H   0  0  0  0  0  0  0  0  0  0  0  0
   45.5423   33.3592   46.3274 H   0  0  0  0  0  0  0  0  0  0  0  0
   45.8633   29.6015   35.7140 H   0  0  0  0  0  0  0  0  0  0  0  0
   44.2518   29.3690   33.4513 H   0  0  0  0  0  0  0  0  0  0  0  0
   43.9762   30.9094   33.4174 H   0  0  0  0  0  0  0  0  0  0  0  0
   46.7663   29.4433   32.9345 H   0  0  0  0  0  0  0  0  0  0  0  0
   46.9320   30.9802   32.8091 H   0  0  0  0  0  0  0  0  0  0  0  0
  1  2  2  0
  1  6  1  0
  2  3  1  0
  3  4  2  0
  4  9  1  0
  5  4  1  0
  6  5  2  0
  7 12  2  0
  8  7  1  0
  9  8  2  0
  9 10  1  0
 10 11  2  0
 11 12  1  0
 13 15  2  0
 13  1  1  0
 14 13  2  0
 16 13  1  0
 17 16  2  0
 18 17  1  0
 19 18  1  0
 19 20  2  0
 20 16  1  0
 21 19  1  0
 22 21  1  0
 23 22  1  0
 23 21  1  0
  2 24  1  0
  3 25  1  0
  5 26  1  0
  6 27  1  0
  7 28  1  0
  8 29  1  0
 11 30  1  0
 21 31  1  0
 22 32  1  0
 22 33  1  0
 23 34  1  0
 23 35  1  0
M  ISO  8  24  14  25  14  26  14  27  14  28  14  29  14  30  14  31  13
M  ISO  4  32  13  33  13  34  13  35  13
M  END
>  <minimizedAffinity>  (1) 
-5.81763077

>  <minimizedRMSD>  (1) 
0.719938636

$$$$
