
     RDKit          3D

 29 31  0  0  0  0  0  0  0  0999 V2000
   47.5370   33.9380   39.5390 C   0  0  0  0  0  0  0  0  0  0  0  0
   46.3170   33.4900   39.9070 C   0  0  0  0  0  0  0  0  0  0  0  0
   45.7400   33.7720   41.1360 C   0  0  0  0  0  0  0  0  0  0  0  0
   46.4490   34.5450   42.0200 C   0  0  0  0  0  0  0  0  0  0  0  0
   47.6740   34.9930   41.6510 C   0  0  0  0  0  0  0  0  0  0  0  0
   48.2540   34.7250   40.4460 C   0  0  0  0  0  0  0  0  0  0  0  0
   44.4570   36.1380   44.8270 C   0  0  0  0  0  0  0  0  0  0  0  0
   45.0370   35.9640   43.5510 C   0  0  0  0  0  0  0  0  0  0  0  0
   45.8090   34.8180   43.3000 C   0  0  0  0  0  0  0  0  0  0  0  0
   45.9680   33.9150   44.3010 N   0  0  0  0  0  0  0  0  0  0  0  0
   45.3860   34.1260   45.5250 C   0  0  0  0  0  0  0  0  0  0  0  0
   44.6520   35.2180   45.7610 N   0  0  0  0  0  0  0  0  0  0  0  0
   48.1960   33.5340   37.9580 S   0  0  0  0  0  0  0  0  0  0  0  0
   48.5630   34.8340   37.2620 O   0  0  0  0  0  0  0  0  0  0  0  0
   49.3920   32.6540   38.1020 O   0  0  0  0  0  0  0  0  0  0  0  0
   46.9620   32.7300   37.0370 C   0  0  0  0  0  0  0  0  0  0  0  0
   45.8150   33.1750   36.4890 N   0  0  0  0  0  0  0  0  0  0  0  0
   45.1920   32.2280   35.8840 O   0  0  0  0  0  0  0  0  0  0  0  0
   45.8710   31.1090   35.9870 C   0  0  0  0  0  0  0  0  0  0  0  0
   46.9580   31.4310   36.6990 N   0  0  0  0  0  0  0  0  0  0  0  0
   45.6180   29.8350   35.5120 O   0  0  0  0  0  0  0  0  0  0  0  0
   45.7523   32.8697   39.1954 H   0  0  0  0  0  0  0  0  0  0  0  0
   44.7426   33.3870   41.3946 H   0  0  0  0  0  0  0  0  0  0  0  0
   48.2349   35.6108   42.3677 H   0  0  0  0  0  0  0  0  0  0  0  0
   49.2518   35.1146   40.1960 H   0  0  0  0  0  0  0  0  0  0  0  0
   43.8491   37.0288   45.0436 H   0  0  0  0  0  0  0  0  0  0  0  0
   44.8859   36.7169   42.7634 H   0  0  0  0  0  0  0  0  0  0  0  0
   45.5255   33.3845   46.3255 H   0  0  0  0  0  0  0  0  0  0  0  0
   46.2592   29.1028   35.6931 H   0  0  0  0  0  0  0  0  0  0  0  0
  1  2  2  0
  1  6  1  0
  2  3  1  0
  3  4  2  0
  4  9  1  0
  5  4  1  0
  6  5  2  0
  7 12  2  0
  8  7  1  0
  9  8  2  0
  9 10  1  0
 10 11  2  0
 11 12  1  0
 13 15  2  0
 13  1  1  0
 14 13  2  0
 16 13  1  0
 17 16  2  0
 18 19  1  0
 18 17  1  0
 19 20  2  0
 20 16  1  0
 21 19  1  0
  2 22  1  0
  3 23  1  0
  5 24  1  0
  6 25  1  0
  7 26  1  0
  8 27  1  0
 11 28  1  0
 21 29  1  0
M  ISO  8  22  14  23  14  24  14  25  14  26  14  27  14  28  14  29   3
M  END
>  <minimizedAffinity>  (1) 
-5.64789438

>  <minimizedRMSD>  (1) 
0.0309457481

$$$$
