
     RDKit          3D

 29 31  0  0  0  0  0  0  0  0999 V2000
   47.5310   33.9360   39.5550 C   0  0  0  0  0  0  0  0  0  0  0  0
   46.3090   33.4730   39.9270 C   0  0  0  0  0  0  0  0  0  0  0  0
   45.7440   33.7510   41.1620 C   0  0  0  0  0  0  0  0  0  0  0  0
   46.4330   34.5220   42.0600 C   0  0  0  0  0  0  0  0  0  0  0  0
   47.6600   34.9800   41.6760 C   0  0  0  0  0  0  0  0  0  0  0  0
   48.2490   34.7300   40.4720 C   0  0  0  0  0  0  0  0  0  0  0  0
   44.4550   36.1140   44.8580 C   0  0  0  0  0  0  0  0  0  0  0  0
   45.0320   35.9320   43.5850 C   0  0  0  0  0  0  0  0  0  0  0  0
   45.8060   34.7850   43.3360 C   0  0  0  0  0  0  0  0  0  0  0  0
   45.9780   33.8870   44.3280 N   0  0  0  0  0  0  0  0  0  0  0  0
   45.4050   34.0930   45.5500 C   0  0  0  0  0  0  0  0  0  0  0  0
   44.6600   35.1880   45.8040 N   0  0  0  0  0  0  0  0  0  0  0  0
   48.1890   33.5510   37.9820 S   0  0  0  0  0  0  0  0  0  0  0  0
   48.5660   34.8670   37.3000 O   0  0  0  0  0  0  0  0  0  0  0  0
   49.3920   32.6760   38.1080 O   0  0  0  0  0  0  0  0  0  0  0  0
   46.9580   32.7590   37.0480 C   0  0  0  0  0  0  0  0  0  0  0  0
   45.8080   33.2160   36.5130 N   0  0  0  0  0  0  0  0  0  0  0  0
   45.1890   32.2870   35.8930 O   0  0  0  0  0  0  0  0  0  0  0  0
   45.8810   31.1610   35.9740 C   0  0  0  0  0  0  0  0  0  0  0  0
   46.9680   31.4700   36.6880 N   0  0  0  0  0  0  0  0  0  0  0  0
   45.4120   29.5990   35.2610 S   0  0  0  0  0  0  0  0  0  0  0  0
   45.7436   32.8508   39.2176 H   0  0  0  0  0  0  0  0  0  0  0  0
   44.7502   33.3555   41.4186 H   0  0  0  0  0  0  0  0  0  0  0  0
   48.2174   35.5994   42.3941 H   0  0  0  0  0  0  0  0  0  0  0  0
   49.2433   35.1313   40.2264 H   0  0  0  0  0  0  0  0  0  0  0  0
   43.8449   37.0040   45.0717 H   0  0  0  0  0  0  0  0  0  0  0  0
   44.8782   36.6804   42.7937 H   0  0  0  0  0  0  0  0  0  0  0  0
   45.5545   33.3485   46.3458 H   0  0  0  0  0  0  0  0  0  0  0  0
   45.1429   28.7027   36.2616 H   0  0  0  0  0  0  0  0  0  0  0  0
  1  2  2  0
  1  6  1  0
  2  3  1  0
  3  4  2  0
  4  9  1  0
  5  4  1  0
  6  5  2  0
  7 12  2  0
  8  7  1  0
  9  8  2  0
  9 10  1  0
 10 11  2  0
 11 12  1  0
 13 15  2  0
 13  1  1  0
 14 13  2  0
 16 13  1  0
 17 16  2  0
 18 19  1  0
 18 17  1  0
 19 20  2  0
 20 16  1  0
 21 19  1  0
  2 22  1  0
  3 23  1  0
  5 24  1  0
  6 25  1  0
  7 26  1  0
  8 27  1  0
 11 28  1  0
 21 29  1  0
M  ISO  8  22  14  23  14  24  14  25  14  26  14  27  14  28  14  29  11
M  END
>  <minimizedAffinity>  (1) 
-5.61815929

>  <minimizedRMSD>  (1) 
0.0656470805

$$$$
