
     RDKit          3D

 27 29  0  0  0  0  0  0  0  0999 V2000
   46.5710   34.1590   40.8360 C   0  0  0  0  0  0  0  0  0  0  0  0
   47.5630   34.3110   39.8820 C   0  0  0  0  0  0  0  0  0  0  0  0
   48.5430   35.0220   40.5200 N   0  0  0  0  0  0  0  0  0  0  0  0
   48.1260   35.2640   41.7810 C   0  0  0  0  0  0  0  0  0  0  0  0
   46.9160   34.7400   41.9880 N   0  0  0  0  0  0  0  0  0  0  0  0
   42.9840   33.4400   40.0110 C   0  0  0  0  0  0  0  0  0  0  0  0
   44.1650   34.1430   40.2690 C   0  0  0  0  0  0  0  0  0  0  0  0
   45.3230   33.4440   40.5630 C   0  0  0  0  0  0  0  0  0  0  0  0
   45.2630   32.0780   40.5920 N   0  0  0  0  0  0  0  0  0  0  0  0
   44.1010   31.4230   40.3370 C   0  0  0  0  0  0  0  0  0  0  0  0
   42.9810   32.0850   40.0530 N   0  0  0  0  0  0  0  0  0  0  0  0
   46.1890   34.8130   43.2040 C   0  0  0  0  0  0  0  0  0  0  0  0
   45.3820   35.9550   43.2930 C   0  0  0  0  0  0  0  0  0  0  0  0
   44.5970   36.1910   44.4150 C   0  0  0  0  0  0  0  0  0  0  0  0
   44.6350   35.2670   45.4420 C   0  0  0  0  0  0  0  0  0  0  0  0
   45.4230   34.1360   45.3730 C   0  0  0  0  0  0  0  0  0  0  0  0
   46.1890   33.9260   44.2500 C   0  0  0  0  0  0  0  0  0  0  0  0
   47.5633   33.9433   38.8453 H   0  0  0  0  0  0  0  0  0  0  0  0
   48.7046   35.8176   42.5351 H   0  0  0  0  0  0  0  0  0  0  0  0
   42.0587   33.9857   39.7743 H   0  0  0  0  0  0  0  0  0  0  0  0
   44.1737   35.2425   40.2386 H   0  0  0  0  0  0  0  0  0  0  0  0
   44.0846   30.3235   40.3656 H   0  0  0  0  0  0  0  0  0  0  0  0
   45.3697   36.6757   42.4620 H   0  0  0  0  0  0  0  0  0  0  0  0
   43.9635   37.0876   44.4838 H   0  0  0  0  0  0  0  0  0  0  0  0
   44.0207   35.4375   46.3384 H   0  0  0  0  0  0  0  0  0  0  0  0
   45.4382   33.4141   46.2028 H   0  0  0  0  0  0  0  0  0  0  0  0
   46.8168   33.0248   44.1894 H   0  0  0  0  0  0  0  0  0  0  0  0
  1  5  1  0
  2  3  1  0
  2  1  2  0
  3  4  2  0
  4  5  1  0
  5 12  1  0
  6 11  2  0
  6  7  1  0
  7  8  2  0
  8  9  1  0
  8  1  1  0
 10  9  2  0
 11 10  1  0
 12 13  2  0
 12 17  1  0
 13 14  1  0
 14 15  2  0
 16 15  1  0
 17 16  2  0
  2 18  1  0
  4 19  1  0
  6 20  1  0
  7 21  1  0
 10 22  1  0
 13 23  1  0
 14 24  1  0
 15 25  1  0
 16 26  1  0
 17 27  1  0
M  ISO  8  18  14  19  14  20  14  21  14  22  14  23  14  24  14  25  14
M  ISO  2  26  14  27  14
M  END
>  <minimizedAffinity>  (1) 
-4.76115084

>  <minimizedRMSD>  (1) 
4.23333836

$$$$
