
     RDKit          3D

 24 26  0  0  0  0  0  0  0  0999 V2000
   46.0730   34.2950   41.9650 C   0  0  0  0  0  0  0  0  0  0  0  0
   45.3370   33.6470   41.0100 C   0  0  0  0  0  0  0  0  0  0  0  0
   46.1490   33.5970   39.9140 N   0  0  0  0  0  0  0  0  0  0  0  0
   47.3170   34.1970   40.2310 C   0  0  0  0  0  0  0  0  0  0  0  0
   47.2980   34.6380   41.4930 N   0  0  0  0  0  0  0  0  0  0  0  0
   44.4060   35.9820   44.8710 C   0  0  0  0  0  0  0  0  0  0  0  0
   44.8620   35.7420   43.5670 C   0  0  0  0  0  0  0  0  0  0  0  0
   45.5810   34.5740   43.3240 C   0  0  0  0  0  0  0  0  0  0  0  0
   45.8170   33.7080   44.3510 N   0  0  0  0  0  0  0  0  0  0  0  0
   45.3550   33.9810   45.6000 C   0  0  0  0  0  0  0  0  0  0  0  0
   44.6640   35.0910   45.8590 N   0  0  0  0  0  0  0  0  0  0  0  0
   48.3460   35.3320   42.2100 C   0  0  0  0  0  0  0  0  0  0  0  0
   49.7460   34.8460   42.1570 C   0  0  0  0  0  0  0  0  0  0  0  0
   49.3250   36.1360   41.4560 C   0  0  0  0  0  0  0  0  0  0  0  0
   44.3145   33.2527   41.1050 H   0  0  0  0  0  0  0  0  0  0  0  0
   48.1687   34.3078   39.5437 H   0  0  0  0  0  0  0  0  0  0  0  0
   43.8368   36.8968   45.0929 H   0  0  0  0  0  0  0  0  0  0  0  0
   44.6573   36.4575   42.7570 H   0  0  0  0  0  0  0  0  0  0  0  0
   45.5559   33.2701   46.4150 H   0  0  0  0  0  0  0  0  0  0  0  0
   47.6474   35.5390   43.0341 H   0  0  0  0  0  0  0  0  0  0  0  0
   50.3802   34.8853   43.0549 H   0  0  0  0  0  0  0  0  0  0  0  0
   50.2429   33.9128   41.8534 H   0  0  0  0  0  0  0  0  0  0  0  0
   49.6568   37.1098   41.8454 H   0  0  0  0  0  0  0  0  0  0  0  0
   49.3922   36.5270   40.4300 H   0  0  0  0  0  0  0  0  0  0  0  0
  1  8  1  0
  2  1  2  0
  3  4  2  0
  3  2  1  0
  4  5  1  0
  5  1  1  0
  5 12  1  0
  6 11  2  0
  7  6  1  0
  8  7  2  0
  8  9  1  0
  9 10  2  0
 10 11  1  0
 13 12  1  0
 14 13  1  0
 14 12  1  0
  2 15  1  0
  4 16  1  0
  6 17  1  0
  7 18  1  0
 10 19  1  0
 12 20  1  0
 13 21  1  0
 13 22  1  0
 14 23  1  0
 14 24  1  0
M  ISO  8  15  14  16  14  17  14  18  14  19  14  20  13  21  13  22  13
M  ISO  2  23  13  24  13
M  END
>  <minimizedAffinity>  (1) 
-4.58741236

>  <minimizedRMSD>  (1) 
0.998807073

$$$$
