
     RDKit          3D

 24 26  0  0  0  0  0  0  0  0999 V2000
   46.0260   34.1850   40.8550 C   0  0  0  0  0  0  0  0  0  0  0  0
   47.0250   34.0470   39.9090 C   0  0  0  0  0  0  0  0  0  0  0  0
   48.1530   34.5190   40.5270 N   0  0  0  0  0  0  0  0  0  0  0  0
   47.8020   34.9090   41.7760 C   0  0  0  0  0  0  0  0  0  0  0  0
   46.4990   34.7140   42.0030 N   0  0  0  0  0  0  0  0  0  0  0  0
   42.3560   34.3680   40.1090 C   0  0  0  0  0  0  0  0  0  0  0  0
   43.6790   34.7620   40.3390 C   0  0  0  0  0  0  0  0  0  0  0  0
   44.6340   33.7970   40.6110 C   0  0  0  0  0  0  0  0  0  0  0  0
   44.2370   32.4850   40.6440 N   0  0  0  0  0  0  0  0  0  0  0  0
   42.9590   32.1260   40.4190 C   0  0  0  0  0  0  0  0  0  0  0  0
   42.0230   33.0500   40.1540 N   0  0  0  0  0  0  0  0  0  0  0  0
   45.8130   35.0090   43.1910 C   0  0  0  0  0  0  0  0  0  0  0  0
   45.0590   36.0750   43.5890 C   0  0  0  0  0  0  0  0  0  0  0  0
   44.4960   36.1080   44.8220 C   0  0  0  0  0  0  0  0  0  0  0  0
   44.7470   34.9770   45.6410 C   0  0  0  0  0  0  0  0  0  0  0  0
   45.8220   33.8740   44.5630 S   0  0  0  0  0  0  0  0  0  0  0  0
   46.9343   33.6475   38.8881 H   0  0  0  0  0  0  0  0  0  0  0  0
   48.5016   35.3331   42.5114 H   0  0  0  0  0  0  0  0  0  0  0  0
   41.5863   35.1233   39.8921 H   0  0  0  0  0  0  0  0  0  0  0  0
   43.9569   35.8257   40.3041 H   0  0  0  0  0  0  0  0  0  0  0  0
   42.6790   31.0628   40.4528 H   0  0  0  0  0  0  0  0  0  0  0  0
   44.9061   36.9188   42.9000 H   0  0  0  0  0  0  0  0  0  0  0  0
   43.8848   36.9559   45.1648 H   0  0  0  0  0  0  0  0  0  0  0  0
   44.3952   34.7895   46.6662 H   0  0  0  0  0  0  0  0  0  0  0  0
  1  5  1  0
  2  3  1  0
  2  1  2  0
  3  4  2  0
  4  5  1  0
  5 12  1  0
  6 11  2  0
  6  7  1  0
  7  8  2  0
  8  9  1  0
  8  1  1  0
 10  9  2  0
 11 10  1  0
 12 13  2  0
 12 16  1  0
 13 14  1  0
 14 15  2  0
 16 15  1  0
  2 17  1  0
  4 18  1  0
  6 19  1  0
  7 20  1  0
 10 21  1  0
 13 22  1  0
 14 23  1  0
 15 24  1  0
M  ISO  8  17  14  18  14  19  14  20  14  21  14  22  14  23  14  24  14
M  END
>  <minimizedAffinity>  (1) 
-4.36913252

>  <minimizedRMSD>  (1) 
4.16656685

$$$$
