
     RDKit          3D

 20 21  0  0  0  0  0  0  0  0999 V2000
   44.6720   36.0570   44.2170 C   0  0  0  0  0  0  0  0  0  0  0  0
   45.2700   35.8370   42.9670 C   0  0  0  0  0  0  0  0  0  0  0  0
   46.0510   34.6990   42.7860 C   0  0  0  0  0  0  0  0  0  0  0  0
   46.1990   33.8440   43.8380 N   0  0  0  0  0  0  0  0  0  0  0  0
   45.6110   34.0830   45.0270 C   0  0  0  0  0  0  0  0  0  0  0  0
   44.8550   35.1780   45.2150 N   0  0  0  0  0  0  0  0  0  0  0  0
   46.6840   34.4520   41.4900 C   0  0  0  0  0  0  0  0  0  0  0  0
   46.0590   33.7440   40.4730 C   0  0  0  0  0  0  0  0  0  0  0  0
   46.9760   33.7410   39.4510 N   0  0  0  0  0  0  0  0  0  0  0  0
   48.0580   34.4060   39.8630 C   0  0  0  0  0  0  0  0  0  0  0  0
   47.9030   34.8520   41.1100 N   0  0  0  0  0  0  0  0  0  0  0  0
   48.8350   35.6130   41.9210 C   0  0  0  0  0  0  0  0  0  0  0  0
   44.0522   36.9511   44.3795 H   0  0  0  0  0  0  0  0  0  0  0  0
   45.1241   36.5518   42.1438 H   0  0  0  0  0  0  0  0  0  0  0  0
   45.7518   33.3722   45.8546 H   0  0  0  0  0  0  0  0  0  0  0  0
   45.0575   33.2891   40.4833 H   0  0  0  0  0  0  0  0  0  0  0  0
   48.9596   34.5652   39.2533 H   0  0  0  0  0  0  0  0  0  0  0  0
   48.6215   35.4387   42.9859 H   0  0  0  0  0  0  0  0  0  0  0  0
   49.8631   35.2929   41.6959 H   0  0  0  0  0  0  0  0  0  0  0  0
   48.7270   36.6843   41.6959 H   0  0  0  0  0  0  0  0  0  0  0  0
  1  6  2  0
  2  1  1  0
  3  2  2  0
  3  4  1  0
  4  5  2  0
  5  6  1  0
  7  3  1  0
  8  7  2  0
  9 10  2  0
  9  8  1  0
 10 11  1  0
 11  7  1  0
 11 12  1  0
  1 13  1  0
  2 14  1  0
  5 15  1  0
  8 16  1  0
 10 17  1  0
 12 18  1  0
 12 19  1  0
 12 20  1  0
M  ISO  8  13  14  14  14  15  14  16  14  17  14  18   8  19   8  20   8
M  END
>  <minimizedAffinity>  (1) 
-4.07840443

>  <minimizedRMSD>  (1) 
0.656324506

$$$$
