
     RDKit          3D

 23 25  0  0  0  0  0  0  0  0999 V2000
   46.2750   34.1800   40.8800 C   0  0  0  0  0  0  0  0  0  0  0  0
   47.2390   34.1730   39.8990 C   0  0  0  0  0  0  0  0  0  0  0  0
   48.3400   34.7370   40.4800 N   0  0  0  0  0  0  0  0  0  0  0  0
   48.0140   35.0510   41.7360 C   0  0  0  0  0  0  0  0  0  0  0  0
   46.7490   34.7200   42.0120 N   0  0  0  0  0  0  0  0  0  0  0  0
   42.5950   34.0270   40.1810 C   0  0  0  0  0  0  0  0  0  0  0  0
   43.8870   34.5560   40.3730 C   0  0  0  0  0  0  0  0  0  0  0  0
   44.9250   33.6600   40.6750 C   0  0  0  0  0  0  0  0  0  0  0  0
   44.6230   32.3410   40.7610 N   0  0  0  0  0  0  0  0  0  0  0  0
   43.3840   31.8580   40.5730 C   0  0  0  0  0  0  0  0  0  0  0  0
   42.3740   32.7070   40.2830 N   0  0  0  0  0  0  0  0  0  0  0  0
   46.0250   34.8940   43.2490 C   0  0  0  0  0  0  0  0  0  0  0  0
   46.1130   33.9280   44.2730 C   0  0  0  0  0  0  0  0  0  0  0  0
   45.0130   34.6650   45.5630 S   0  0  0  0  0  0  0  0  0  0  0  0
   44.6360   36.1750   44.4390 C   0  0  0  0  0  0  0  0  0  0  0  0
   45.2550   35.9420   43.4890 N   0  0  0  0  0  0  0  0  0  0  0  0
   47.1444   33.7954   38.8702 H   0  0  0  0  0  0  0  0  0  0  0  0
   48.7008   35.5231   42.4539 H   0  0  0  0  0  0  0  0  0  0  0  0
   41.7594   34.7025   39.9452 H   0  0  0  0  0  0  0  0  0  0  0  0
   44.0762   35.6363   40.2890 H   0  0  0  0  0  0  0  0  0  0  0  0
   43.1928   30.7778   40.6546 H   0  0  0  0  0  0  0  0  0  0  0  0
   46.6835   32.9878   44.2974 H   0  0  0  0  0  0  0  0  0  0  0  0
   43.9933   37.0434   44.6458 H   0  0  0  0  0  0  0  0  0  0  0  0
  1  5  1  0
  2  3  1  0
  2  1  2  0
  3  4  2  0
  4  5  1  0
  5 12  1  0
  6 11  2  0
  6  7  1  0
  7  8  2  0
  8  9  1  0
  8  1  1  0
 10  9  2  0
 11 10  1  0
 12 16  1  0
 12 13  2  0
 13 14  1  0
 15 14  1  0
 16 15  2  0
  2 17  1  0
  4 18  1  0
  6 19  1  0
  7 20  1  0
 10 21  1  0
 13 22  1  0
 15 23  1  0
M  ISO  7  17  14  18  14  19  14  20  14  21  14  22  14  23  14
M  END
>  <minimizedAffinity>  (1) 
-4.02363682

>  <minimizedRMSD>  (1) 
3.97517896

$$$$
