
     RDKit          3D

 29 30  0  0  0  0  0  0  0  0999 V2000
   46.6070   34.5040   42.0020 C   0  0  0  0  0  0  0  0  0  0  0  0
   47.7140   34.9470   41.3260 C   0  0  0  0  0  0  0  0  0  0  0  0
   48.7650   34.6930   42.1470 N   0  0  0  0  0  0  0  0  0  0  0  0
   48.2850   34.1250   43.2570 C   0  0  0  0  0  0  0  0  0  0  0  0
   46.9460   33.9910   43.2040 N   0  0  0  0  0  0  0  0  0  0  0  0
   43.0890   35.6150   41.3830 C   0  0  0  0  0  0  0  0  0  0  0  0
   44.3840   35.5660   41.9340 C   0  0  0  0  0  0  0  0  0  0  0  0
   45.2510   34.5930   41.4590 C   0  0  0  0  0  0  0  0  0  0  0  0
   44.8070   33.7440   40.4950 N   0  0  0  0  0  0  0  0  0  0  0  0
   43.5700   33.8030   39.9790 C   0  0  0  0  0  0  0  0  0  0  0  0
   42.7150   34.7370   40.4250 N   0  0  0  0  0  0  0  0  0  0  0  0
   46.1150   33.4310   44.2060 C   0  0  0  0  0  0  0  0  0  0  0  0
   46.9410   32.6860   45.2350 C   0  0  0  0  0  0  0  0  0  0  0  0
   45.2290   34.3980   44.9300 C   0  0  0  0  0  0  0  0  0  0  0  0
   45.1660   32.3800   43.6100 C   0  0  0  0  0  0  0  0  0  0  0  0
   47.7444   35.4105   40.3289 H   0  0  0  0  0  0  0  0  0  0  0  0
   48.9057   33.8067   44.1075 H   0  0  0  0  0  0  0  0  0  0  0  0
   42.3752   36.3743   41.7351 H   0  0  0  0  0  0  0  0  0  0  0  0
   44.6973   36.2751   42.7144 H   0  0  0  0  0  0  0  0  0  0  0  0
   43.2594   33.0931   39.1982 H   0  0  0  0  0  0  0  0  0  0  0  0
   46.6179   32.9774   46.2453 H   0  0  0  0  0  0  0  0  0  0  0  0
   46.8008   31.6029   45.1033 H   0  0  0  0  0  0  0  0  0  0  0  0
   48.0039   32.9368   45.1033 H   0  0  0  0  0  0  0  0  0  0  0  0
   45.3507   34.2651   46.0151 H   0  0  0  0  0  0  0  0  0  0  0  0
   45.5051   35.4262   44.6532 H   0  0  0  0  0  0  0  0  0  0  0  0
   44.1806   34.2127   44.6532 H   0  0  0  0  0  0  0  0  0  0  0  0
   44.6699   31.8306   44.4236 H   0  0  0  0  0  0  0  0  0  0  0  0
   44.4077   32.8804   42.9898 H   0  0  0  0  0  0  0  0  0  0  0  0
   45.7409   31.6766   42.9898 H   0  0  0  0  0  0  0  0  0  0  0  0
  1  5  1  0
  2  1  2  0
  2  3  1  0
  3  4  2  0
  5  4  1  0
  5 12  1  0
  6  7  2  0
  8  7  1  0
  8  1  1  0
  9  8  2  0
 10 11  2  0
 10  9  1  0
 11  6  1  0
 12 14  1  0
 12 13  1  0
 15 12  1  0
  2 16  1  0
  4 17  1  0
  6 18  1  0
  7 19  1  0
 10 20  1  0
 13 21  1  0
 13 22  1  0
 13 23  1  0
 14 24  1  0
 14 25  1  0
 14 26  1  0
 15 27  1  0
 15 28  1  0
 15 29  1  0
M  ISO  8  16  14  17  14  18  14  19  14  20  14  21   8  22   8  23   8
M  ISO  6  24   8  25   8  26   8  27   8  28   8  29   8
M  END
>  <minimizedAffinity>  (1) 
-3.89203072

>  <minimizedRMSD>  (1) 
3.82952118

$$$$
