
     RDKit          3D

 35 37  0  0  1  0  0  0  0  0999 V2000
   49.1070   33.7400   42.7120 C   0  0  2  0  0  0  0  0  0  0  0  0
   47.6970   33.9640   42.5000 C   0  0  2  0  0  0  0  0  0  0  0  0
   47.6160   35.3930   41.9030 C   0  0  0  0  0  0  0  0  0  0  0  0
   48.9890   35.8150   41.4850 C   0  0  0  0  0  0  0  0  0  0  0  0
   49.8160   35.1060   42.4840 C   0  0  0  0  0  0  0  0  0  0  0  0
   49.7870   32.8260   41.7700 C   0  0  0  0  0  0  0  0  0  0  0  0
   49.0060   32.1560   40.8250 C   0  0  0  0  0  0  0  0  0  0  0  0
   49.5870   31.2820   39.9040 C   0  0  0  0  0  0  0  0  0  0  0  0
   50.9580   31.1510   40.0120 N   0  0  0  0  0  0  0  0  0  0  0  0
   51.6920   31.8040   40.9240 C   0  0  0  0  0  0  0  0  0  0  0  0
   51.1050   32.6340   41.7950 N   0  0  0  0  0  0  0  0  0  0  0  0
   46.8140   33.9160   43.6950 C   0  0  0  0  0  0  0  0  0  0  0  0
   45.9480   34.7150   43.8850 O   0  0  0  0  0  0  0  0  0  0  0  0
   46.8630   32.9180   44.7560 C   0  0  0  0  0  0  0  0  0  0  0  0
   46.5010   33.2340   46.0470 C   0  0  0  0  0  0  0  0  0  0  0  0
   46.5080   32.3010   47.0870 C   0  0  0  0  0  0  0  0  0  0  0  0
   46.8860   31.0020   46.8540 C   0  0  0  0  0  0  0  0  0  0  0  0
   47.2540   30.6460   45.5790 C   0  0  0  0  0  0  0  0  0  0  0  0
   47.2300   31.6010   44.5870 C   0  0  0  0  0  0  0  0  0  0  0  0
   49.1729   33.2929   43.7149 H   0  0  0  0  0  0  0  0  0  0  0  0
   47.3273   33.1435   41.8675 H   0  0  0  0  0  0  0  0  0  0  0  0
   46.9468   35.3924   41.0300 H   0  0  0  0  0  0  0  0  0  0  0  0
   47.2209   36.0921   42.6547 H   0  0  0  0  0  0  0  0  0  0  0  0
   49.2195   35.4845   40.4614 H   0  0  0  0  0  0  0  0  0  0  0  0
   49.1415   36.9041   41.4596 H   0  0  0  0  0  0  0  0  0  0  0  0
   50.8352   34.9514   42.1001 H   0  0  0  0  0  0  0  0  0  0  0  0
   49.9103   35.6791   43.4182 H   0  0  0  0  0  0  0  0  0  0  0  0
   47.9183   32.3193   40.8063 H   0  0  0  0  0  0  0  0  0  0  0  0
   48.9980   30.7392   39.1500 H   0  0  0  0  0  0  0  0  0  0  0  0
   52.7817   31.6572   40.9568 H   0  0  0  0  0  0  0  0  0  0  0  0
   46.1928   34.2664   46.2689 H   0  0  0  0  0  0  0  0  0  0  0  0
   46.2085   32.6095   48.0995 H   0  0  0  0  0  0  0  0  0  0  0  0
   46.8941   30.2634   47.6691 H   0  0  0  0  0  0  0  0  0  0  0  0
   47.5629   29.6145   45.3541 H   0  0  0  0  0  0  0  0  0  0  0  0
   47.5285   31.2861   43.5762 H   0  0  0  0  0  0  0  0  0  0  0  0
  2  1  1  0
  2 12  1  0
  3  2  1  0
  4  3  1  0
  4  5  1  0
  5  1  1  0
  6 11  1  0
  6  1  1  0
  7  6  2  0
  8  9  2  0
  8  7  1  0
  9 10  1  0
 10 11  2  0
 12 13  2  0
 12 14  1  0
 14 15  2  0
 15 16  1  0
 17 16  2  0
 18 17  1  0
 19 14  1  0
 19 18  2  0
  1 20  1  1
  2 21  1  6
  3 22  1  0
  3 23  1  0
  4 24  1  0
  4 25  1  0
  5 26  1  0
  5 27  1  0
  7 28  1  0
  8 29  1  0
 10 30  1  0
 15 31  1  0
 16 32  1  0
 17 33  1  0
 18 34  1  0
 19 35  1  0
M  ISO  8  20  13  21  13  22  13  23  13  24  13  25  13  26  13  27  13
M  ISO  8  28  14  29  14  30  14  31  14  32  14  33  14  34  14  35  14
M  END
>  <minimizedAffinity>  (1) 
-5.3769927

>  <minimizedRMSD>  (1) 
0.379342586

$$$$
