
     RDKit          3D

 27 29  0  0  0  0  0  0  0  0999 V2000
   45.6700   34.0330   41.6050 C   0  0  0  0  0  0  0  0  0  0  0  0
   44.7820   33.3040   40.8280 C   0  0  0  0  0  0  0  0  0  0  0  0
   45.4410   33.1680   39.6250 N   0  0  0  0  0  0  0  0  0  0  0  0
   46.6250   33.7810   39.7210 C   0  0  0  0  0  0  0  0  0  0  0  0
   46.7910   34.3240   40.9380 N   0  0  0  0  0  0  0  0  0  0  0  0
   44.4670   35.9790   44.5750 C   0  0  0  0  0  0  0  0  0  0  0  0
   44.7440   35.6290   43.2440 C   0  0  0  0  0  0  0  0  0  0  0  0
   45.3750   34.4110   42.9810 C   0  0  0  0  0  0  0  0  0  0  0  0
   45.6830   33.6350   44.0450 N   0  0  0  0  0  0  0  0  0  0  0  0
   45.4080   33.9880   45.3170 C   0  0  0  0  0  0  0  0  0  0  0  0
   44.8000   35.1590   45.5770 N   0  0  0  0  0  0  0  0  0  0  0  0
   47.9200   35.0630   41.4370 C   0  0  0  0  0  0  0  0  0  0  0  0
   49.0850   34.2170   41.7060 C   0  0  0  0  0  0  0  0  0  0  0  0
   50.1980   34.3420   42.4880 C   0  0  0  0  0  0  0  0  0  0  0  0
   51.0000   33.2260   42.3760 C   0  0  0  0  0  0  0  0  0  0  0  0
   50.3050   32.4330   41.4860 C   0  0  0  0  0  0  0  0  0  0  0  0
   49.2110   33.0270   41.1200 O   0  0  0  0  0  0  0  0  0  0  0  0
   43.7877   32.9244   41.1059 H   0  0  0  0  0  0  0  0  0  0  0  0
   47.3660   33.8337   38.9097 H   0  0  0  0  0  0  0  0  0  0  0  0
   43.9717   36.9361   44.7954 H   0  0  0  0  0  0  0  0  0  0  0  0
   44.4682   36.3040   42.4204 H   0  0  0  0  0  0  0  0  0  0  0  0
   45.6817   33.3164   46.1441 H   0  0  0  0  0  0  0  0  0  0  0  0
   48.2015   35.8197   40.6898 H   0  0  0  0  0  0  0  0  0  0  0  0
   47.6182   35.5198   42.3910 H   0  0  0  0  0  0  0  0  0  0  0  0
   50.4235   35.2134   43.1203 H   0  0  0  0  0  0  0  0  0  0  0  0
   51.9587   33.0187   42.8740 H   0  0  0  0  0  0  0  0  0  0  0  0
   50.6309   31.4418   41.1376 H   0  0  0  0  0  0  0  0  0  0  0  0
  1  8  1  0
  2  1  2  0
  3  4  2  0
  3  2  1  0
  4  5  1  0
  5 12  1  0
  5  1  1  0
  6 11  2  0
  7  6  1  0
  8  7  2  0
  8  9  1  0
  9 10  2  0
 10 11  1  0
 12 13  1  0
 13 14  2  0
 15 14  1  0
 16 15  2  0
 17 16  1  0
 17 13  1  0
  2 18  1  0
  4 19  1  0
  6 20  1  0
  7 21  1  0
 10 22  1  0
 12 23  1  0
 12 24  1  0
 14 25  1  0
 15 26  1  0
 16 27  1  0
M  ISO  8  18  14  19  14  20  14  21  14  22  14  23   8  24   8  25  14
M  ISO  2  26  14  27  14
M  END
>  <minimizedAffinity>  (1) 
-4.76645327

>  <minimizedRMSD>  (1) 
1.26094961

$$$$
