
     RDKit          3D

 34 37  0  0  0  0  0  0  0  0999 V2000
   46.2800   34.3180   42.0270 C   0  0  0  0  0  0  0  0  0  0  0  0
   45.5410   34.2360   40.8590 C   0  0  0  0  0  0  0  0  0  0  0  0
   46.4770   33.8800   39.9060 N   0  0  0  0  0  0  0  0  0  0  0  0
   47.6610   33.7680   40.4930 C   0  0  0  0  0  0  0  0  0  0  0  0
   47.5650   34.0300   41.7880 N   0  0  0  0  0  0  0  0  0  0  0  0
   44.5150   36.2290   44.7190 C   0  0  0  0  0  0  0  0  0  0  0  0
   45.0750   35.8830   43.4870 C   0  0  0  0  0  0  0  0  0  0  0  0
   45.7000   34.6670   43.3160 C   0  0  0  0  0  0  0  0  0  0  0  0
   45.7550   33.8110   44.3860 N   0  0  0  0  0  0  0  0  0  0  0  0
   45.2010   34.1780   45.5660 C   0  0  0  0  0  0  0  0  0  0  0  0
   44.5880   35.3700   45.7350 N   0  0  0  0  0  0  0  0  0  0  0  0
   48.6300   33.9980   42.7890 C   0  0  0  0  0  0  0  0  0  0  0  0
   49.4920   32.8330   42.4460 C   0  0  0  0  0  0  0  0  0  0  0  0
   50.6040   32.9120   41.6700 N   0  0  0  0  0  0  0  0  0  0  0  0
   51.3510   31.8340   41.3850 C   0  0  0  0  0  0  0  0  0  0  0  0
   51.0420   30.5930   41.8570 N   0  0  0  0  0  0  0  0  0  0  0  0
   49.9310   30.4860   42.6400 C   0  0  0  0  0  0  0  0  0  0  0  0
   49.6090   29.2300   43.1240 C   0  0  0  0  0  0  0  0  0  0  0  0
   48.4940   29.0760   43.9180 C   0  0  0  0  0  0  0  0  0  0  0  0
   47.7190   30.1900   44.2130 C   0  0  0  0  0  0  0  0  0  0  0  0
   48.0190   31.4680   43.7390 C   0  0  0  0  0  0  0  0  0  0  0  0
   49.1580   31.5850   42.9370 C   0  0  0  0  0  0  0  0  0  0  0  0
   44.4639   34.4124   40.7218 H   0  0  0  0  0  0  0  0  0  0  0  0
   48.5931   33.4955   39.9764 H   0  0  0  0  0  0  0  0  0  0  0  0
   44.0183   37.2018   44.8493 H   0  0  0  0  0  0  0  0  0  0  0  0
   45.0165   36.5883   42.6449 H   0  0  0  0  0  0  0  0  0  0  0  0
   45.2519   33.4817   46.4160 H   0  0  0  0  0  0  0  0  0  0  0  0
   49.2153   34.9286   42.7522 H   0  0  0  0  0  0  0  0  0  0  0  0
   48.2201   33.9062   43.8057 H   0  0  0  0  0  0  0  0  0  0  0  0
   52.2411   31.9558   40.7502 H   0  0  0  0  0  0  0  0  0  0  0  0
   50.2381   28.3622   42.8767 H   0  0  0  0  0  0  0  0  0  0  0  0
   48.2216   28.0859   44.3123 H   0  0  0  0  0  0  0  0  0  0  0  0
   46.8302   30.0595   44.8478 H   0  0  0  0  0  0  0  0  0  0  0  0
   47.3918   32.3379   43.9838 H   0  0  0  0  0  0  0  0  0  0  0  0
  1  8  1  0
  2  1  2  0
  3  4  2  0
  3  2  1  0
  4  5  1  0
  5  1  1  0
  5 12  1  0
  6 11  2  0
  7  6  1  0
  8  7  2  0
  8  9  1  0
  9 10  2  0
 10 11  1  0
 13 12  1  0
 13 22  1  0
 14 13  2  0
 15 14  1  0
 15 16  2  0
 16 17  1  0
 17 22  2  0
 17 18  1  0
 18 19  2  0
 19 20  1  0
 21 20  2  0
 22 21  1  0
  2 23  1  0
  4 24  1  0
  6 25  1  0
  7 26  1  0
 10 27  1  0
 12 28  1  0
 12 29  1  0
 15 30  1  0
 18 31  1  0
 19 32  1  0
 20 33  1  0
 21 34  1  0
M  ISO  8  23  14  24  14  25  14  26  14  27  14  28   8  29   8  30  14
M  ISO  4  31  14  32  14  33  14  34  14
M  END
>  <minimizedAffinity>  (1) 
-4.70324898

>  <minimizedRMSD>  (1) 
1.73244941

$$$$
