
     RDKit          3D

 30 32  0  0  0  0  0  0  0  0999 V2000
   44.5470   33.7610   41.6190 C   0  0  0  0  0  0  0  0  0  0  0  0
   43.3490   33.2320   41.1560 C   0  0  0  0  0  0  0  0  0  0  0  0
   43.5880   33.0270   39.8170 N   0  0  0  0  0  0  0  0  0  0  0  0
   44.8470   33.4180   39.5480 C   0  0  0  0  0  0  0  0  0  0  0  0
   45.4550   33.8760   40.6480 N   0  0  0  0  0  0  0  0  0  0  0  0
   44.5380   35.7190   44.8260 C   0  0  0  0  0  0  0  0  0  0  0  0
   44.3520   35.3700   43.4840 C   0  0  0  0  0  0  0  0  0  0  0  0
   44.7430   34.1310   43.0210 C   0  0  0  0  0  0  0  0  0  0  0  0
   45.3080   33.2860   43.9250 N   0  0  0  0  0  0  0  0  0  0  0  0
   45.4900   33.6150   45.2140 C   0  0  0  0  0  0  0  0  0  0  0  0
   45.1020   34.8320   45.6560 N   0  0  0  0  0  0  0  0  0  0  0  0
   46.7860   34.4020   40.7790 C   0  0  0  0  0  0  0  0  0  0  0  0
   47.8410   33.4470   40.7820 N   0  0  0  0  0  0  0  0  0  0  0  0
   48.2860   32.5940   41.7180 C   0  0  0  0  0  0  0  0  0  0  0  0
   49.3320   31.7510   41.5300 C   0  0  0  0  0  0  0  0  0  0  0  0
   50.0060   31.7380   40.3190 C   0  0  0  0  0  0  0  0  0  0  0  0
   50.9680   30.9520   40.1690 O   0  0  0  0  0  0  0  0  0  0  0  0
   49.5630   32.5930   39.3800 N   0  0  0  0  0  0  0  0  0  0  0  0
   48.5190   33.4210   39.5930 C   0  0  0  0  0  0  0  0  0  0  0  0
   48.2420   34.1600   38.5870 O   0  0  0  0  0  0  0  0  0  0  0  0
   42.4297   33.0263   41.7239 H   0  0  0  0  0  0  0  0  0  0  0  0
   45.3150   33.3676   38.5538 H   0  0  0  0  0  0  0  0  0  0  0  0
   44.2256   36.7074   45.1940 H   0  0  0  0  0  0  0  0  0  0  0  0
   43.8900   36.0898   42.7923 H   0  0  0  0  0  0  0  0  0  0  0  0
   45.9528   32.8973   45.9073 H   0  0  0  0  0  0  0  0  0  0  0  0
   46.9590   35.0907   39.9389 H   0  0  0  0  0  0  0  0  0  0  0  0
   46.8179   34.8794   41.7695 H   0  0  0  0  0  0  0  0  0  0  0  0
   47.7741   32.5777   42.6915 H   0  0  0  0  0  0  0  0  0  0  0  0
   49.6459   31.0764   42.3402 H   0  0  0  0  0  0  0  0  0  0  0  0
   50.0374   32.6166   38.4661 H   0  0  0  0  0  0  0  0  0  0  0  0
  1  8  1  0
  2  1  2  0
  3  2  1  0
  4  3  2  0
  4  5  1  0
  5 12  1  0
  5  1  1  0
  6 11  2  0
  7  6  1  0
  8  7  2  0
  8  9  1  0
  9 10  2  0
 10 11  1  0
 12 13  1  0
 13 14  1  0
 15 14  2  0
 16 15  1  0
 17 16  2  0
 18 19  1  0
 18 16  1  0
 19 13  1  0
 20 19  2  0
  2 21  1  0
  4 22  1  0
  6 23  1  0
  7 24  1  0
 10 25  1  0
 12 26  1  0
 12 27  1  0
 14 28  1  0
 15 29  1  0
 18 30  1  0
M  ISO  8  21  14  22  14  23  14  24  14  25  14  26   8  27   8  28  14
M  ISO  2  29  14  30   9
M  END
>  <minimizedAffinity>  (1) 
-4.44516897

>  <minimizedRMSD>  (1) 
3.21133208

$$$$
