
     RDKit          3D

 28 30  0  0  0  0  0  0  0  0999 V2000
   45.9760   34.2420   41.7080 C   0  0  0  0  0  0  0  0  0  0  0  0
   45.0700   33.9550   40.6870 C   0  0  0  0  0  0  0  0  0  0  0  0
   45.8560   33.6810   39.6040 N   0  0  0  0  0  0  0  0  0  0  0  0
   47.1400   33.8050   39.9860 C   0  0  0  0  0  0  0  0  0  0  0  0
   47.2260   34.1460   41.2700 N   0  0  0  0  0  0  0  0  0  0  0  0
   44.5240   36.1040   44.6160 C   0  0  0  0  0  0  0  0  0  0  0  0
   44.9250   35.8050   43.3020 C   0  0  0  0  0  0  0  0  0  0  0  0
   45.5420   34.5920   43.0660 C   0  0  0  0  0  0  0  0  0  0  0  0
   45.7370   33.7330   44.1190 N   0  0  0  0  0  0  0  0  0  0  0  0
   45.3390   34.0550   45.3680 C   0  0  0  0  0  0  0  0  0  0  0  0
   44.7420   35.2230   45.6090 N   0  0  0  0  0  0  0  0  0  0  0  0
   48.4080   34.3790   42.0590 C   0  0  0  0  0  0  0  0  0  0  0  0
   49.2070   33.1700   42.3180 C   0  0  0  0  0  0  0  0  0  0  0  0
   50.5670   33.1310   42.1000 C   0  0  0  0  0  0  0  0  0  0  0  0
   51.1840   31.9180   42.3910 C   0  0  0  0  0  0  0  0  0  0  0  0
   50.5460   30.8290   42.8560 N   0  0  0  0  0  0  0  0  0  0  0  0
   49.2210   30.9060   43.0540 C   0  0  0  0  0  0  0  0  0  0  0  0
   48.6000   32.0440   42.7880 N   0  0  0  0  0  0  0  0  0  0  0  0
   43.9714   33.9504   40.7416 H   0  0  0  0  0  0  0  0  0  0  0  0
   48.0045   33.6457   39.3248 H   0  0  0  0  0  0  0  0  0  0  0  0
   44.0299   37.0625   44.8330 H   0  0  0  0  0  0  0  0  0  0  0  0
   44.7518   36.5187   42.4831 H   0  0  0  0  0  0  0  0  0  0  0  0
   45.5084   33.3483   46.1938 H   0  0  0  0  0  0  0  0  0  0  0  0
   49.0413   35.1038   41.5264 H   0  0  0  0  0  0  0  0  0  0  0  0
   48.0678   34.7494   43.0373 H   0  0  0  0  0  0  0  0  0  0  0  0
   51.1267   33.9992   41.7219 H   0  0  0  0  0  0  0  0  0  0  0  0
   52.2696   31.8447   42.2294 H   0  0  0  0  0  0  0  0  0  0  0  0
   48.6605   30.0379   43.4310 H   0  0  0  0  0  0  0  0  0  0  0  0
  1  8  1  0
  2  1  2  0
  3  4  2  0
  3  2  1  0
  4  5  1  0
  5  1  1  0
  5 12  1  0
  6 11  2  0
  7  6  1  0
  8  7  2  0
  8  9  1  0
  9 10  2  0
 10 11  1  0
 12 13  1  0
 13 18  1  0
 14 13  2  0
 14 15  1  0
 15 16  2  0
 16 17  1  0
 18 17  2  0
  2 19  1  0
  4 20  1  0
  6 21  1  0
  7 22  1  0
 10 23  1  0
 12 24  1  0
 12 25  1  0
 14 26  1  0
 15 27  1  0
 17 28  1  0
M  ISO  8  19  14  20  14  21  14  22  14  23  14  24   8  25   8  26  14
M  ISO  2  27  14  28  14
M  END
>  <minimizedAffinity>  (1) 
-4.32790661

>  <minimizedRMSD>  (1) 
1.50250697

$$$$
