
     RDKit          3D

 27 29  0  0  0  0  0  0  0  0999 V2000
   46.9000   34.7560   42.0700 C   0  0  0  0  0  0  0  0  0  0  0  0
   48.2330   35.0970   41.9900 C   0  0  0  0  0  0  0  0  0  0  0  0
   48.5730   34.8110   40.6880 N   0  0  0  0  0  0  0  0  0  0  0  0
   47.4860   34.3340   40.0650 C   0  0  0  0  0  0  0  0  0  0  0  0
   46.4430   34.2910   40.8920 N   0  0  0  0  0  0  0  0  0  0  0  0
   45.4400   34.0840   45.4550 C   0  0  0  0  0  0  0  0  0  0  0  0
   46.1890   33.9530   44.2850 C   0  0  0  0  0  0  0  0  0  0  0  0
   46.1160   34.8990   43.2830 C   0  0  0  0  0  0  0  0  0  0  0  0
   45.2780   35.9650   43.4890 N   0  0  0  0  0  0  0  0  0  0  0  0
   44.5580   36.0790   44.6260 C   0  0  0  0  0  0  0  0  0  0  0  0
   44.6320   35.1590   45.5970 N   0  0  0  0  0  0  0  0  0  0  0  0
   45.0990   33.8530   40.6080 C   0  0  0  0  0  0  0  0  0  0  0  0
   44.7220   32.6160   41.2140 N   0  0  0  0  0  0  0  0  0  0  0  0
   43.5490   32.5430   41.9120 C   0  0  0  0  0  0  0  0  0  0  0  0
   43.3550   31.2650   42.4290 C   0  0  0  0  0  0  0  0  0  0  0  0
   44.4210   30.5760   42.0350 N   0  0  0  0  0  0  0  0  0  0  0  0
   45.2300   31.3770   41.3150 C   0  0  0  0  0  0  0  0  0  0  0  0
   48.8765   35.5039   42.7839 H   0  0  0  0  0  0  0  0  0  0  0  0
   47.4591   34.0200   39.0111 H   0  0  0  0  0  0  0  0  0  0  0  0
   45.5057   33.3253   46.2488 H   0  0  0  0  0  0  0  0  0  0  0  0
   46.8483   33.0815   44.1594 H   0  0  0  0  0  0  0  0  0  0  0  0
   43.8956   36.9472   44.7578 H   0  0  0  0  0  0  0  0  0  0  0  0
   44.4058   34.6304   40.9616 H   0  0  0  0  0  0  0  0  0  0  0  0
   45.0552   33.6866   39.5215 H   0  0  0  0  0  0  0  0  0  0  0  0
   42.8511   33.3824   42.0472 H   0  0  0  0  0  0  0  0  0  0  0  0
   42.5072   30.9052   43.0304 H   0  0  0  0  0  0  0  0  0  0  0  0
   46.1829   31.0577   40.8679 H   0  0  0  0  0  0  0  0  0  0  0  0
  1  8  1  0
  2  1  2  0
  3  2  1  0
  4  3  2  0
  4  5  1  0
  5  1  1  0
  6 11  2  0
  7  6  1  0
  8  9  1  0
  8  7  2  0
  9 10  2  0
 10 11  1  0
 12  5  1  0
 12 13  1  0
 13 17  1  0
 13 14  1  0
 14 15  2  0
 16 15  1  0
 17 16  2  0
  2 18  1  0
  4 19  1  0
  6 20  1  0
  7 21  1  0
 10 22  1  0
 12 23  1  0
 12 24  1  0
 14 25  1  0
 15 26  1  0
 17 27  1  0
M  ISO  8  18  14  19  14  20  14  21  14  22  14  23   8  24   8  25  14
M  ISO  2  26  14  27  14
M  END
>  <minimizedAffinity>  (1) 
-4.28477812

>  <minimizedRMSD>  (1) 
4.71036959

$$$$
