
     RDKit          3D

 27 29  0  0  0  0  0  0  0  0999 V2000
   46.8760   34.6940   42.0140 C   0  0  0  0  0  0  0  0  0  0  0  0
   48.0800   35.3720   41.7950 C   0  0  0  0  0  0  0  0  0  0  0  0
   48.4370   35.0240   40.5210 N   0  0  0  0  0  0  0  0  0  0  0  0
   47.4900   34.1980   40.0480 C   0  0  0  0  0  0  0  0  0  0  0  0
   46.5310   33.9860   40.9430 N   0  0  0  0  0  0  0  0  0  0  0  0
   45.6330   33.9560   45.4660 C   0  0  0  0  0  0  0  0  0  0  0  0
   46.3480   33.8480   44.2600 C   0  0  0  0  0  0  0  0  0  0  0  0
   46.1370   34.7920   43.2770 C   0  0  0  0  0  0  0  0  0  0  0  0
   45.2430   35.7890   43.5180 N   0  0  0  0  0  0  0  0  0  0  0  0
   44.5650   35.8820   44.6730 C   0  0  0  0  0  0  0  0  0  0  0  0
   44.7590   34.9690   45.6430 N   0  0  0  0  0  0  0  0  0  0  0  0
   45.3520   33.1740   40.8180 C   0  0  0  0  0  0  0  0  0  0  0  0
   44.1060   33.9070   40.5750 C   0  0  0  0  0  0  0  0  0  0  0  0
   42.9660   33.8380   41.3860 C   0  0  0  0  0  0  0  0  0  0  0  0
   41.9810   34.6170   40.9120 N   0  0  0  0  0  0  0  0  0  0  0  0
   42.4600   35.1990   39.7940 C   0  0  0  0  0  0  0  0  0  0  0  0
   43.7160   34.7690   39.6110 N   0  0  0  0  0  0  0  0  0  0  0  0
   48.6175   36.0344   42.4894 H   0  0  0  0  0  0  0  0  0  0  0  0
   47.5061   33.7515   39.0428 H   0  0  0  0  0  0  0  0  0  0  0  0
   45.7860   33.2153   46.2647 H   0  0  0  0  0  0  0  0  0  0  0  0
   47.0621   33.0261   44.1036 H   0  0  0  0  0  0  0  0  0  0  0  0
   43.8508   36.7044   44.8267 H   0  0  0  0  0  0  0  0  0  0  0  0
   45.5060   32.4792   39.9793 H   0  0  0  0  0  0  0  0  0  0  0  0
   45.2245   32.6736   41.7893 H   0  0  0  0  0  0  0  0  0  0  0  0
   42.8879   33.2238   42.2952 H   0  0  0  0  0  0  0  0  0  0  0  0
   41.9160   35.9024   39.1466 H   0  0  0  0  0  0  0  0  0  0  0  0
   44.3148   35.0620   38.8259 H   0  0  0  0  0  0  0  0  0  0  0  0
  1  8  1  0
  2  1  2  0
  3  2  1  0
  4  3  2  0
  4  5  1  0
  5  1  1  0
  6 11  2  0
  7  6  1  0
  8  9  1  0
  8  7  2  0
  9 10  2  0
 10 11  1  0
 12  5  1  0
 13 12  1  0
 13 14  2  0
 15 14  1  0
 16 15  2  0
 17 16  1  0
 17 13  1  0
  2 18  1  0
  4 19  1  0
  6 20  1  0
  7 21  1  0
 10 22  1  0
 12 23  1  0
 12 24  1  0
 14 25  1  0
 16 26  1  0
 17 27  1  0
M  ISO  8  18  14  19  14  20  14  21  14  22  14  23   8  24   8  25  14
M  ISO  2  26  14  27   9
M  END
>  <minimizedAffinity>  (1) 
-4.99392271

>  <minimizedRMSD>  (1) 
4.30118608

$$$$
