
     RDKit          3D

 33 35  0  0  0  0  0  0  0  0999 V2000
   46.8190   34.6940   42.0140 C   0  0  0  0  0  0  0  0  0  0  0  0
   48.0380   35.3200   41.7890 C   0  0  0  0  0  0  0  0  0  0  0  0
   48.3790   34.9600   40.5150 N   0  0  0  0  0  0  0  0  0  0  0  0
   47.4090   34.1750   40.0470 C   0  0  0  0  0  0  0  0  0  0  0  0
   46.4470   33.9950   40.9360 N   0  0  0  0  0  0  0  0  0  0  0  0
   45.5960   33.9780   45.4790 C   0  0  0  0  0  0  0  0  0  0  0  0
   46.2970   33.8640   44.2660 C   0  0  0  0  0  0  0  0  0  0  0  0
   46.0900   34.8140   43.2750 C   0  0  0  0  0  0  0  0  0  0  0  0
   45.2170   35.8170   43.5150 N   0  0  0  0  0  0  0  0  0  0  0  0
   44.5500   35.9180   44.6790 C   0  0  0  0  0  0  0  0  0  0  0  0
   44.7360   35.0070   45.6560 N   0  0  0  0  0  0  0  0  0  0  0  0
   45.2460   33.2250   40.8050 C   0  0  0  0  0  0  0  0  0  0  0  0
   44.1430   33.8560   40.0760 C   0  0  0  0  0  0  0  0  0  0  0  0
   43.3080   34.8730   40.5710 C   0  0  0  0  0  0  0  0  0  0  0  0
   42.3970   35.2280   39.6560 N   0  0  0  0  0  0  0  0  0  0  0  0
   42.6200   34.4650   38.5790 C   0  0  0  0  0  0  0  0  0  0  0  0
   43.6650   33.6480   38.8370 N   0  0  0  0  0  0  0  0  0  0  0  0
   44.1770   32.6890   37.8790 C   0  0  0  0  0  0  0  0  0  0  0  0
   45.3080   33.1820   37.0370 C   0  0  0  0  0  0  0  0  0  0  0  0
   48.6028   35.9619   42.4810 H   0  0  0  0  0  0  0  0  0  0  0  0
   47.4088   33.7299   39.0411 H   0  0  0  0  0  0  0  0  0  0  0  0
   45.7455   33.2366   46.2777 H   0  0  0  0  0  0  0  0  0  0  0  0
   46.9999   33.0335   44.1042 H   0  0  0  0  0  0  0  0  0  0  0  0
   43.8475   36.7500   44.8351 H   0  0  0  0  0  0  0  0  0  0  0  0
   45.5023   32.2919   40.2818 H   0  0  0  0  0  0  0  0  0  0  0  0
   44.8755   33.0854   41.8313 H   0  0  0  0  0  0  0  0  0  0  0  0
   43.3917   35.3169   41.5740 H   0  0  0  0  0  0  0  0  0  0  0  0
   42.0478   34.4976   37.6401 H   0  0  0  0  0  0  0  0  0  0  0  0
   44.5242   31.8046   38.4334 H   0  0  0  0  0  0  0  0  0  0  0  0
   43.3495   32.4729   37.1873 H   0  0  0  0  0  0  0  0  0  0  0  0
   46.1215   33.5366   37.6869 H   0  0  0  0  0  0  0  0  0  0  0  0
   45.6766   32.3629   36.4020 H   0  0  0  0  0  0  0  0  0  0  0  0
   44.9588   34.0095   36.4020 H   0  0  0  0  0  0  0  0  0  0  0  0
  1  8  1  0
  2  1  2  0
  3  2  1  0
  4  3  2  0
  4  5  1  0
  5  1  1  0
  6 11  2  0
  7  6  1  0
  8  9  1  0
  8  7  2  0
  9 10  2  0
 10 11  1  0
 12  5  1  0
 13 14  2  0
 13 12  1  0
 15 14  1  0
 16 17  1  0
 16 15  2  0
 17 13  1  0
 18 17  1  0
 19 18  1  0
  2 20  1  0
  4 21  1  0
  6 22  1  0
  7 23  1  0
 10 24  1  0
 12 25  1  0
 12 26  1  0
 14 27  1  0
 16 28  1  0
 18 29  1  0
 18 30  1  0
 19 31  1  0
 19 32  1  0
 19 33  1  0
M  ISO  8  20  14  21  14  22  14  23  14  24  14  25   8  26   8  27  14
M  ISO  6  28  14  29   8  30   8  31   8  32   8  33   8
M  END
>  <minimizedAffinity>  (1) 
-4.9344182

>  <minimizedRMSD>  (1) 
1.19525778

$$$$
