
     RDKit          3D

 43 46  0  0  0  0  0  0  0  0999 V2000
   47.0320   34.7290   42.1370 C   0  0  0  0  0  0  0  0  0  0  0  0
   48.1600   35.5120   41.9220 C   0  0  0  0  0  0  0  0  0  0  0  0
   48.6090   35.1530   40.6780 N   0  0  0  0  0  0  0  0  0  0  0  0
   47.7800   34.2180   40.2150 C   0  0  0  0  0  0  0  0  0  0  0  0
   46.8120   33.9430   41.0830 N   0  0  0  0  0  0  0  0  0  0  0  0
   45.6910   33.9230   45.5320 C   0  0  0  0  0  0  0  0  0  0  0  0
   46.4600   33.8530   44.3550 C   0  0  0  0  0  0  0  0  0  0  0  0
   46.2360   34.7980   43.3630 C   0  0  0  0  0  0  0  0  0  0  0  0
   45.2960   35.7510   43.5520 N   0  0  0  0  0  0  0  0  0  0  0  0
   44.5660   35.8040   44.6880 C   0  0  0  0  0  0  0  0  0  0  0  0
   44.7600   34.9020   45.6670 N   0  0  0  0  0  0  0  0  0  0  0  0
   45.7410   32.9990   40.9410 C   0  0  0  0  0  0  0  0  0  0  0  0
   44.6660   33.3790   40.0150 C   0  0  0  0  0  0  0  0  0  0  0  0
   43.6110   34.2680   40.3100 C   0  0  0  0  0  0  0  0  0  0  0  0
   42.8010   34.3990   39.2530 N   0  0  0  0  0  0  0  0  0  0  0  0
   43.3000   33.6210   38.2800 C   0  0  0  0  0  0  0  0  0  0  0  0
   44.4110   33.0210   38.7510 N   0  0  0  0  0  0  0  0  0  0  0  0
   45.2240   32.1080   37.9930 C   0  0  0  0  0  0  0  0  0  0  0  0
   44.9900   32.2200   36.5130 C   0  0  0  0  0  0  0  0  0  0  0  0
   44.0430   31.1770   35.9850 C   0  0  0  0  0  0  0  0  0  0  0  0
   44.5750   29.7760   36.1250 C   0  0  0  0  0  0  0  0  0  0  0  0
   45.4690   29.6990   37.3620 C   0  0  0  0  0  0  0  0  0  0  0  0
   44.8770   30.6680   38.3770 C   0  0  0  0  0  0  0  0  0  0  0  0
   48.5972   36.2576   42.6023 H   0  0  0  0  0  0  0  0  0  0  0  0
   47.8843   33.7327   39.2334 H   0  0  0  0  0  0  0  0  0  0  0  0
   45.8434   33.1892   46.3372 H   0  0  0  0  0  0  0  0  0  0  0  0
   47.2200   33.0685   44.2245 H   0  0  0  0  0  0  0  0  0  0  0  0
   43.8074   36.5907   44.8131 H   0  0  0  0  0  0  0  0  0  0  0  0
   46.1724   32.0517   40.5853 H   0  0  0  0  0  0  0  0  0  0  0  0
   45.2692   32.9346   41.9326 H   0  0  0  0  0  0  0  0  0  0  0  0
   43.4736   34.7812   41.2732 H   0  0  0  0  0  0  0  0  0  0  0  0
   42.8758   33.4949   37.2729 H   0  0  0  0  0  0  0  0  0  0  0  0
   46.2692   32.3637   38.2214 H   0  0  0  0  0  0  0  0  0  0  0  0
   44.5706   33.2142   36.2990 H   0  0  0  0  0  0  0  0  0  0  0  0
   45.9587   32.0659   36.0150 H   0  0  0  0  0  0  0  0  0  0  0  0
   43.8593   31.3775   34.9191 H   0  0  0  0  0  0  0  0  0  0  0  0
   43.1194   31.2396   36.5792 H   0  0  0  0  0  0  0  0  0  0  0  0
   43.7359   29.0730   36.2332 H   0  0  0  0  0  0  0  0  0  0  0  0
   45.1581   29.5111   35.2307 H   0  0  0  0  0  0  0  0  0  0  0  0
   45.4711   28.6765   37.7676 H   0  0  0  0  0  0  0  0  0  0  0  0
   46.5101   29.9592   37.1202 H   0  0  0  0  0  0  0  0  0  0  0  0
   45.2883   30.4478   39.3732 H   0  0  0  0  0  0  0  0  0  0  0  0
   43.7832   30.5523   38.3900 H   0  0  0  0  0  0  0  0  0  0  0  0
  1  8  1  0
  2  1  2  0
  3  2  1  0
  4  3  2  0
  4  5  1  0
  5  1  1  0
  6 11  2  0
  7  6  1  0
  8  9  1  0
  8  7  2  0
  9 10  2  0
 10 11  1  0
 12  5  1  0
 13 14  2  0
 13 12  1  0
 15 14  1  0
 16 17  1  0
 16 15  2  0
 17 13  1  0
 18 23  1  0
 18 17  1  0
 19 18  1  0
 20 21  1  0
 20 19  1  0
 21 22  1  0
 22 23  1  0
  2 24  1  0
  4 25  1  0
  6 26  1  0
  7 27  1  0
 10 28  1  0
 12 29  1  0
 12 30  1  0
 14 31  1  0
 16 32  1  0
 18 33  1  0
 19 34  1  0
 19 35  1  0
 20 36  1  0
 20 37  1  0
 21 38  1  0
 21 39  1  0
 22 40  1  0
 22 41  1  0
 23 42  1  0
 23 43  1  0
M  ISO  8  24  14  25  14  26  14  27  14  28  14  29   8  30   8  31  14
M  ISO  8  32  14  33  13  34  13  35  13  36  13  37  13  38  13  39  13
M  ISO  4  40  13  41  13  42  13  43  13
M  END
>  <minimizedAffinity>  (1) 
-4.78735733

>  <minimizedRMSD>  (1) 
2.23954964

$$$$
