
     RDKit          3D

 37 40  0  0  0  0  0  0  0  0999 V2000
   44.5720   34.4580   41.0070 C   0  0  0  0  0  0  0  0  0  0  0  0
   46.6170   33.6640   39.9020 C   0  0  0  0  0  0  0  0  0  0  0  0
   48.0010   33.7130   40.0790 C   0  0  0  0  0  0  0  0  0  0  0  0
   48.1630   34.4380   41.2350 N   0  0  0  0  0  0  0  0  0  0  0  0
   46.9490   34.7710   41.6730 C   0  0  0  0  0  0  0  0  0  0  0  0
   45.9950   34.3090   40.8740 N   0  0  0  0  0  0  0  0  0  0  0  0
   45.5010   32.8340   36.4190 C   0  0  0  0  0  0  0  0  0  0  0  0
   46.1030   33.5150   37.4960 C   0  0  0  0  0  0  0  0  0  0  0  0
   46.0000   32.9740   38.7680 C   0  0  0  0  0  0  0  0  0  0  0  0
   45.3130   31.7980   38.9120 N   0  0  0  0  0  0  0  0  0  0  0  0
   44.7460   31.1670   37.8700 C   0  0  0  0  0  0  0  0  0  0  0  0
   44.8420   31.6870   36.6270 N   0  0  0  0  0  0  0  0  0  0  0  0
   43.8390   33.2910   41.4960 C   0  0  0  0  0  0  0  0  0  0  0  0
   44.3130   32.3530   42.4160 C   0  0  0  0  0  0  0  0  0  0  0  0
   43.3970   31.4030   42.6560 N   0  0  0  0  0  0  0  0  0  0  0  0
   42.3160   31.7080   41.8990 C   0  0  0  0  0  0  0  0  0  0  0  0
   42.6080   32.8380   41.2190 N   0  0  0  0  0  0  0  0  0  0  0  0
   41.7580   33.5320   40.2910 C   0  0  0  0  0  0  0  0  0  0  0  0
   40.8240   34.3050   40.9730 C   0  0  0  0  0  0  0  0  0  0  0  0
   39.8910   35.0690   40.2750 C   0  0  0  0  0  0  0  0  0  0  0  0
   39.9030   35.0490   38.8960 C   0  0  0  0  0  0  0  0  0  0  0  0
   40.8500   34.2670   38.2320 C   0  0  0  0  0  0  0  0  0  0  0  0
   41.7740   33.5110   38.9130 C   0  0  0  0  0  0  0  0  0  0  0  0
   44.1685   34.7158   40.0167 H   0  0  0  0  0  0  0  0  0  0  0  0
   44.4298   35.2345   41.7731 H   0  0  0  0  0  0  0  0  0  0  0  0
   48.7813   33.2730   39.4407 H   0  0  0  0  0  0  0  0  0  0  0  0
   46.7608   35.3568   42.5848 H   0  0  0  0  0  0  0  0  0  0  0  0
   45.5728   33.2469   35.4020 H   0  0  0  0  0  0  0  0  0  0  0  0
   46.6444   34.4581   37.3303 H   0  0  0  0  0  0  0  0  0  0  0  0
   44.2021   30.2243   38.0296 H   0  0  0  0  0  0  0  0  0  0  0  0
   45.3083   32.3887   42.8831 H   0  0  0  0  0  0  0  0  0  0  0  0
   41.3750   31.1407   41.8475 H   0  0  0  0  0  0  0  0  0  0  0  0
   40.8220   34.3132   42.0730 H   0  0  0  0  0  0  0  0  0  0  0  0
   39.1543   35.6803   40.8168 H   0  0  0  0  0  0  0  0  0  0  0  0
   39.1740   35.6430   38.3252 H   0  0  0  0  0  0  0  0  0  0  0  0
   40.8568   34.2556   37.1321 H   0  0  0  0  0  0  0  0  0  0  0  0
   42.5111   32.9017   38.3694 H   0  0  0  0  0  0  0  0  0  0  0  0
  1 13  1  0
  2  3  2  0
  2  6  1  0
  3  4  1  0
  4  5  2  0
  6  1  1  0
  6  5  1  0
  7 12  2  0
  7  8  1  0
  8  9  2  0
  9 10  1  0
  9  2  1  0
 11 10  2  0
 12 11  1  0
 13 14  2  0
 14 15  1  0
 16 15  2  0
 17 13  1  0
 17 16  1  0
 18 19  2  0
 18 17  1  0
 20 19  1  0
 21 20  2  0
 22 21  1  0
 22 23  2  0
 23 18  1  0
  1 24  1  0
  1 25  1  0
  3 26  1  0
  5 27  1  0
  7 28  1  0
  8 29  1  0
 11 30  1  0
 14 31  1  0
 16 32  1  0
 19 33  1  0
 20 34  1  0
 21 35  1  0
 22 36  1  0
 23 37  1  0
M  ISO  8  24   8  25   8  26  14  27  14  28  14  29  14  30  14  31  14
M  ISO  6  32  14  33  14  34  14  35  14  36  14  37  14
M  END
>  <minimizedAffinity>  (1) 
-4.6734128

>  <minimizedRMSD>  (1) 
5.12803268

$$$$
