
     RDKit          3D

 34 37  0  0  0  0  0  0  0  0999 V2000
   46.2240   34.3600   42.0550 C   0  0  0  0  0  0  0  0  0  0  0  0
   47.3000   34.7900   41.2670 C   0  0  0  0  0  0  0  0  0  0  0  0
   48.3990   34.5910   42.0580 N   0  0  0  0  0  0  0  0  0  0  0  0
   47.9790   34.0820   43.2190 C   0  0  0  0  0  0  0  0  0  0  0  0
   46.6580   33.9350   43.2350 N   0  0  0  0  0  0  0  0  0  0  0  0
   42.7320   35.5320   41.4110 C   0  0  0  0  0  0  0  0  0  0  0  0
   44.0630   35.5090   41.8670 C   0  0  0  0  0  0  0  0  0  0  0  0
   44.8310   34.3980   41.5850 C   0  0  0  0  0  0  0  0  0  0  0  0
   44.2770   33.3790   40.8820 N   0  0  0  0  0  0  0  0  0  0  0  0
   43.0050   33.4230   40.4570 C   0  0  0  0  0  0  0  0  0  0  0  0
   42.2340   34.4850   40.7150 N   0  0  0  0  0  0  0  0  0  0  0  0
   45.8340   33.4220   44.2990 C   0  0  0  0  0  0  0  0  0  0  0  0
   45.7410   31.9660   44.3970 C   0  0  0  0  0  0  0  0  0  0  0  0
   45.5270   31.0840   43.3360 C   0  0  0  0  0  0  0  0  0  0  0  0
   45.4960   29.8150   43.7720 N   0  0  0  0  0  0  0  0  0  0  0  0
   45.6850   29.8460   45.0960 C   0  0  0  0  0  0  0  0  0  0  0  0
   45.8290   31.1380   45.4490 N   0  0  0  0  0  0  0  0  0  0  0  0
   46.0540   31.6400   46.7780 C   0  0  0  0  0  0  0  0  0  0  0  0
   45.3180   32.1670   47.8200 C   0  0  0  0  0  0  0  0  0  0  0  0
   46.2220   32.4330   48.8070 N   0  0  0  0  0  0  0  0  0  0  0  0
   47.4440   32.0950   48.4070 C   0  0  0  0  0  0  0  0  0  0  0  0
   47.3620   31.6050   47.1600 N   0  0  0  0  0  0  0  0  0  0  0  0
   47.2685   35.1954   40.2449 H   0  0  0  0  0  0  0  0  0  0  0  0
   48.6421   33.8179   44.0560 H   0  0  0  0  0  0  0  0  0  0  0  0
   42.0950   36.4038   41.6212 H   0  0  0  0  0  0  0  0  0  0  0  0
   44.4803   36.3546   42.4334 H   0  0  0  0  0  0  0  0  0  0  0  0
   42.5916   32.5759   39.8899 H   0  0  0  0  0  0  0  0  0  0  0  0
   46.2408   33.7973   45.2496 H   0  0  0  0  0  0  0  0  0  0  0  0
   44.8142   33.7684   44.0755 H   0  0  0  0  0  0  0  0  0  0  0  0
   45.4010   31.3876   42.2863 H   0  0  0  0  0  0  0  0  0  0  0  0
   45.7169   28.9779   45.7709 H   0  0  0  0  0  0  0  0  0  0  0  0
   44.2316   32.3368   47.8487 H   0  0  0  0  0  0  0  0  0  0  0  0
   48.3660   32.1992   48.9978 H   0  0  0  0  0  0  0  0  0  0  0  0
   48.1496   31.2625   46.5914 H   0  0  0  0  0  0  0  0  0  0  0  0
  1  5  1  0
  2  1  2  0
  2  3  1  0
  3  4  2  0
  4  5  1  0
  5 12  1  0
  6  7  2  0
  8  7  1  0
  8  1  1  0
  9  8  2  0
 10 11  2  0
 10  9  1  0
 11  6  1  0
 12 13  1  0
 13 17  1  0
 14 15  1  0
 14 13  2  0
 15 16  2  0
 16 17  1  0
 17 18  1  0
 18 22  1  0
 18 19  2  0
 19 20  1  0
 21 20  2  0
 22 21  1  0
  2 23  1  0
  4 24  1  0
  6 25  1  0
  7 26  1  0
 10 27  1  0
 12 28  1  0
 12 29  1  0
 14 30  1  0
 16 31  1  0
 19 32  1  0
 21 33  1  0
 22 34  1  0
M  ISO  8  23  14  24  14  25  14  26  14  27  14  28   8  29   8  30  14
M  ISO  4  31  14  32  14  33  14  34   9
M  END
>  <minimizedAffinity>  (1) 
-4.50270271

>  <minimizedRMSD>  (1) 
6.45001888

$$$$
