
     RDKit          3D

 34 37  0  0  0  0  0  0  0  0999 V2000
   47.2580   34.7040   41.9440 C   0  0  0  0  0  0  0  0  0  0  0  0
   48.2270   35.3030   41.1430 C   0  0  0  0  0  0  0  0  0  0  0  0
   49.3920   35.1280   41.8330 N   0  0  0  0  0  0  0  0  0  0  0  0
   49.0970   34.4710   42.9560 C   0  0  0  0  0  0  0  0  0  0  0  0
   47.8010   34.2000   43.0480 N   0  0  0  0  0  0  0  0  0  0  0  0
   43.5850   35.4020   41.8980 C   0  0  0  0  0  0  0  0  0  0  0  0
   44.9390   35.4490   42.2650 C   0  0  0  0  0  0  0  0  0  0  0  0
   45.8380   34.6640   41.5700 C   0  0  0  0  0  0  0  0  0  0  0  0
   45.3650   33.8870   40.5700 N   0  0  0  0  0  0  0  0  0  0  0  0
   44.0700   33.8490   40.2270 C   0  0  0  0  0  0  0  0  0  0  0  0
   43.1760   34.6110   40.8960 N   0  0  0  0  0  0  0  0  0  0  0  0
   47.1080   33.5140   44.0990 C   0  0  0  0  0  0  0  0  0  0  0  0
   47.4360   32.0900   44.2670 C   0  0  0  0  0  0  0  0  0  0  0  0
   48.0260   31.2660   43.2950 C   0  0  0  0  0  0  0  0  0  0  0  0
   48.1870   30.0290   43.7680 N   0  0  0  0  0  0  0  0  0  0  0  0
   47.7130   30.0220   45.0380 C   0  0  0  0  0  0  0  0  0  0  0  0
   47.2700   31.2650   45.3120 N   0  0  0  0  0  0  0  0  0  0  0  0
   46.6880   31.7170   46.5320 C   0  0  0  0  0  0  0  0  0  0  0  0
   47.4520   31.6360   47.7030 C   0  0  0  0  0  0  0  0  0  0  0  0
   46.6630   32.1310   48.7170 C   0  0  0  0  0  0  0  0  0  0  0  0
   45.4820   32.4830   48.1420 C   0  0  0  0  0  0  0  0  0  0  0  0
   45.5150   32.2290   46.8340 O   0  0  0  0  0  0  0  0  0  0  0  0
   48.0857   35.8037   40.1738 H   0  0  0  0  0  0  0  0  0  0  0  0
   49.8401   34.1874   43.7159 H   0  0  0  0  0  0  0  0  0  0  0  0
   42.8525   36.0202   42.4378 H   0  0  0  0  0  0  0  0  0  0  0  0
   45.2765   36.0965   43.0877 H   0  0  0  0  0  0  0  0  0  0  0  0
   43.7358   33.2001   39.4041 H   0  0  0  0  0  0  0  0  0  0  0  0
   47.3393   34.0262   45.0446 H   0  0  0  0  0  0  0  0  0  0  0  0
   46.0444   33.5418   43.8196 H   0  0  0  0  0  0  0  0  0  0  0  0
   48.3148   31.5943   42.2856 H   0  0  0  0  0  0  0  0  0  0  0  0
   47.6935   29.1594   45.7203 H   0  0  0  0  0  0  0  0  0  0  0  0
   48.4790   31.2528   47.7945 H   0  0  0  0  0  0  0  0  0  0  0  0
   46.9337   32.2232   49.7792 H   0  0  0  0  0  0  0  0  0  0  0  0
   44.6241   32.9146   48.6784 H   0  0  0  0  0  0  0  0  0  0  0  0
  1  5  1  0
  2  3  1  0
  2  1  2  0
  3  4  2  0
  4  5  1  0
  5 12  1  0
  6  7  2  0
  8  1  1  0
  8  7  1  0
  9  8  2  0
 10  9  1  0
 10 11  2  0
 11  6  1  0
 12 13  1  0
 13 17  1  0
 14 15  1  0
 14 13  2  0
 15 16  2  0
 16 17  1  0
 17 18  1  0
 18 22  1  0
 18 19  2  0
 19 20  1  0
 21 20  2  0
 22 21  1  0
  2 23  1  0
  4 24  1  0
  6 25  1  0
  7 26  1  0
 10 27  1  0
 12 28  1  0
 12 29  1  0
 14 30  1  0
 16 31  1  0
 19 32  1  0
 20 33  1  0
 21 34  1  0
M  ISO  8  23  14  24  14  25  14  26  14  27  14  28   8  29   8  30  14
M  ISO  4  31  14  32  14  33  14  34  14
M  END
>  <minimizedAffinity>  (1) 
-4.88866758

>  <minimizedRMSD>  (1) 
6.56402588

$$$$
