
     RDKit          3D

 41 45  0  0  0  0  0  0  0  0999 V2000
   47.6620   33.0150   43.8710 C   0  0  0  0  0  0  0  0  0  0  0  0
   47.6510   34.8130   42.1900 C   0  0  0  0  0  0  0  0  0  0  0  0
   48.5650   35.6250   41.5190 C   0  0  0  0  0  0  0  0  0  0  0  0
   49.7830   35.2360   42.0000 N   0  0  0  0  0  0  0  0  0  0  0  0
   49.5720   34.2630   42.8900 C   0  0  0  0  0  0  0  0  0  0  0  0
   48.2780   33.9860   43.0230 N   0  0  0  0  0  0  0  0  0  0  0  0
   44.0460   35.6980   42.6200 C   0  0  0  0  0  0  0  0  0  0  0  0
   45.4300   35.6320   42.8550 C   0  0  0  0  0  0  0  0  0  0  0  0
   46.2030   34.8990   41.9680 C   0  0  0  0  0  0  0  0  0  0  0  0
   45.5930   34.2890   40.9300 N   0  0  0  0  0  0  0  0  0  0  0  0
   44.2680   34.3680   40.7280 C   0  0  0  0  0  0  0  0  0  0  0  0
   43.4920   35.0760   41.5780 N   0  0  0  0  0  0  0  0  0  0  0  0
   47.8190   31.6030   43.4620 C   0  0  0  0  0  0  0  0  0  0  0  0
   48.0040   31.1540   42.1510 C   0  0  0  0  0  0  0  0  0  0  0  0
   48.1110   29.8220   42.1220 N   0  0  0  0  0  0  0  0  0  0  0  0
   47.9990   29.3960   43.3970 C   0  0  0  0  0  0  0  0  0  0  0  0
   47.8250   30.4700   44.1820 N   0  0  0  0  0  0  0  0  0  0  0  0
   47.6630   30.4920   45.5980 C   0  0  0  0  0  0  0  0  0  0  0  0
   48.2570   29.4840   46.3570 C   0  0  0  0  0  0  0  0  0  0  0  0
   47.9540   29.7300   47.6690 C   0  0  0  0  0  0  0  0  0  0  0  0
   47.1980   30.8610   47.6620 C   0  0  0  0  0  0  0  0  0  0  0  0
   47.0300   31.3060   46.4270 O   0  0  0  0  0  0  0  0  0  0  0  0
   46.6080   31.5600   48.8360 C   0  0  0  0  0  0  0  0  0  0  0  0
   45.2620   32.2080   48.5590 C   0  0  0  0  0  0  0  0  0  0  0  0
   45.3720   31.0070   49.4330 C   0  0  0  0  0  0  0  0  0  0  0  0
   48.0944   33.1240   44.8766 H   0  0  0  0  0  0  0  0  0  0  0  0
   46.5824   33.2197   43.8200 H   0  0  0  0  0  0  0  0  0  0  0  0
   48.3530   36.4032   40.7711 H   0  0  0  0  0  0  0  0  0  0  0  0
   50.3720   33.7522   43.4460 H   0  0  0  0  0  0  0  0  0  0  0  0
   43.4082   36.2728   43.3076 H   0  0  0  0  0  0  0  0  0  0  0  0
   45.8851   36.1453   43.7149 H   0  0  0  0  0  0  0  0  0  0  0  0
   43.8128   33.8549   39.8680 H   0  0  0  0  0  0  0  0  0  0  0  0
   48.0545   31.8061   41.2666 H   0  0  0  0  0  0  0  0  0  0  0  0
   48.0427   28.3499   43.7344 H   0  0  0  0  0  0  0  0  0  0  0  0
   48.8577   28.6465   45.9726 H   0  0  0  0  0  0  0  0  0  0  0  0
   48.2579   29.1378   48.5448 H   0  0  0  0  0  0  0  0  0  0  0  0
   47.5793   31.8656   49.2522 H   0  0  0  0  0  0  0  0  0  0  0  0
   45.0203   33.1887   48.9947 H   0  0  0  0  0  0  0  0  0  0  0  0
   44.6895   32.4720   47.6576 H   0  0  0  0  0  0  0  0  0  0  0  0
   44.9823   30.0398   49.0828 H   0  0  0  0  0  0  0  0  0  0  0  0
   45.0528   30.7712   50.4589 H   0  0  0  0  0  0  0  0  0  0  0  0
  2  6  1  0
  3  4  1  0
  3  2  2  0
  4  5  2  0
  5  6  1  0
  6  1  1  0
  7  8  2  0
  9  2  1  0
  9  8  1  0
 10  9  2  0
 11 10  1  0
 11 12  2  0
 12  7  1  0
 13  1  1  0
 13 17  1  0
 14 13  2  0
 15 14  1  0
 15 16  2  0
 16 17  1  0
 17 18  1  0
 18 19  2  0
 18 22  1  0
 19 20  1  0
 21 20  2  0
 21 23  1  0
 22 21  1  0
 23 25  1  0
 24 23  1  0
 24 25  1  0
  1 26  1  0
  1 27  1  0
  3 28  1  0
  5 29  1  0
  7 30  1  0
  8 31  1  0
 11 32  1  0
 14 33  1  0
 16 34  1  0
 19 35  1  0
 20 36  1  0
 23 37  1  0
 24 38  1  0
 24 39  1  0
 25 40  1  0
 25 41  1  0
M  ISO  8  26   8  27   8  28  14  29  14  30  14  31  14  32  14  33  14
M  ISO  8  34  14  35  14  36  14  37  13  38  13  39  13  40  13  41  13
M  END
>  <minimizedAffinity>  (1) 
-5.32247162

>  <minimizedRMSD>  (1) 
1.57182789

$$$$
