
     RDKit          3D

 46 49  0  0  0  0  0  0  0  0999 V2000
   47.8650   32.9320   43.6540 C   0  0  0  0  0  0  0  0  0  0  0  0
   47.7440   34.8780   42.1420 C   0  0  0  0  0  0  0  0  0  0  0  0
   48.6110   35.7960   41.5550 C   0  0  0  0  0  0  0  0  0  0  0  0
   49.8470   35.4370   41.9990 N   0  0  0  0  0  0  0  0  0  0  0  0
   49.6910   34.3740   42.7940 C   0  0  0  0  0  0  0  0  0  0  0  0
   48.4270   34.0170   42.8960 N   0  0  0  0  0  0  0  0  0  0  0  0
   44.1050   35.6030   42.6060 C   0  0  0  0  0  0  0  0  0  0  0  0
   45.4990   35.5860   42.8260 C   0  0  0  0  0  0  0  0  0  0  0  0
   46.2980   34.9030   41.9270 C   0  0  0  0  0  0  0  0  0  0  0  0
   45.6950   34.2860   40.8850 N   0  0  0  0  0  0  0  0  0  0  0  0
   44.3720   34.3070   40.6850 C   0  0  0  0  0  0  0  0  0  0  0  0
   43.5740   34.9690   41.5510 N   0  0  0  0  0  0  0  0  0  0  0  0
   48.0010   31.5940   43.0530 C   0  0  0  0  0  0  0  0  0  0  0  0
   48.2980   31.3180   41.7190 C   0  0  0  0  0  0  0  0  0  0  0  0
   48.3470   30.0070   41.5090 N   0  0  0  0  0  0  0  0  0  0  0  0
   48.0840   29.4030   42.6920 C   0  0  0  0  0  0  0  0  0  0  0  0
   47.8780   30.3710   43.6080 N   0  0  0  0  0  0  0  0  0  0  0  0
   47.5700   30.1980   44.9900 C   0  0  0  0  0  0  0  0  0  0  0  0
   48.1010   29.0910   45.6570 C   0  0  0  0  0  0  0  0  0  0  0  0
   47.6410   29.1840   46.9600 C   0  0  0  0  0  0  0  0  0  0  0  0
   46.8750   30.3130   47.0170 C   0  0  0  0  0  0  0  0  0  0  0  0
   46.8390   30.9110   45.8370 O   0  0  0  0  0  0  0  0  0  0  0  0
   46.1370   30.8950   48.1680 C   0  0  0  0  0  0  0  0  0  0  0  0
   45.4430   32.1920   47.7740 C   0  0  0  0  0  0  0  0  0  0  0  0
   47.0660   31.2280   49.3150 C   0  0  0  0  0  0  0  0  0  0  0  0
   45.0610   29.9610   48.6830 C   0  0  0  0  0  0  0  0  0  0  0  0
   48.3609   32.9133   44.6357 H   0  0  0  0  0  0  0  0  0  0  0  0
   46.7840   33.1296   43.7034 H   0  0  0  0  0  0  0  0  0  0  0  0
   48.3542   36.6271   40.8817 H   0  0  0  0  0  0  0  0  0  0  0  0
   50.5192   33.8587   43.3025 H   0  0  0  0  0  0  0  0  0  0  0  0
   43.4488   36.1409   43.3060 H   0  0  0  0  0  0  0  0  0  0  0  0
   45.9392   36.1033   43.6912 H   0  0  0  0  0  0  0  0  0  0  0  0
   43.9361   33.7874   39.8190 H   0  0  0  0  0  0  0  0  0  0  0  0
   48.4685   32.0816   40.9458 H   0  0  0  0  0  0  0  0  0  0  0  0
   48.0454   28.3187   42.8731 H   0  0  0  0  0  0  0  0  0  0  0  0
   48.7492   28.3088   45.2352 H   0  0  0  0  0  0  0  0  0  0  0  0
   47.8509   28.4871   47.7848 H   0  0  0  0  0  0  0  0  0  0  0  0
   45.1493   32.7409   48.6809 H   0  0  0  0  0  0  0  0  0  0  0  0
   46.1311   32.8097   47.1782 H   0  0  0  0  0  0  0  0  0  0  0  0
   44.5473   31.9623   47.1782 H   0  0  0  0  0  0  0  0  0  0  0  0
   46.5511   31.0434   50.2693 H   0  0  0  0  0  0  0  0  0  0  0  0
   47.9642   30.5959   49.2547 H   0  0  0  0  0  0  0  0  0  0  0  0
   47.3581   32.2868   49.2547 H   0  0  0  0  0  0  0  0  0  0  0  0
   45.0668   29.9660   49.7830 H   0  0  0  0  0  0  0  0  0  0  0  0
   44.0787   30.2977   48.3200 H   0  0  0  0  0  0  0  0  0  0  0  0
   45.2562   28.9411   48.3200 H   0  0  0  0  0  0  0  0  0  0  0  0
  2  6  1  0
  3  4  1  0
  3  2  2  0
  4  5  2  0
  5  6  1  0
  6  1  1  0
  7  8  2  0
  9  2  1  0
  9  8  1  0
 10  9  2  0
 11 10  1  0
 11 12  2  0
 12  7  1  0
 13 17  1  0
 13  1  1  0
 14 13  2  0
 15 14  1  0
 15 16  2  0
 16 17  1  0
 17 18  1  0
 18 19  2  0
 18 22  1  0
 19 20  1  0
 20 21  2  0
 21 23  1  0
 22 21  1  0
 23 26  1  0
 23 25  1  0
 24 23  1  0
  1 27  1  0
  1 28  1  0
  3 29  1  0
  5 30  1  0
  7 31  1  0
  8 32  1  0
 11 33  1  0
 14 34  1  0
 16 35  1  0
 19 36  1  0
 20 37  1  0
 24 38  1  0
 24 39  1  0
 24 40  1  0
 25 41  1  0
 25 42  1  0
 25 43  1  0
 26 44  1  0
 26 45  1  0
 26 46  1  0
M  ISO  8  27   8  28   8  29  14  30  14  31  14  32  14  33  14  34  14
M  ISO  8  35  14  36  14  37  14  38   8  39   8  40   8  41   8  42   8
M  ISO  4  43   8  44   8  45   8  46   8
M  END
>  <minimizedAffinity>  (1) 
-5.05763626

>  <minimizedRMSD>  (1) 
2.08178449

$$$$
