
     RDKit          3D

 36 39  0  0  0  0  0  0  0  0999 V2000
   47.4860   33.2060   44.0330 C   0  0  0  0  0  0  0  0  0  0  0  0
   47.5140   34.8030   42.1540 C   0  0  0  0  0  0  0  0  0  0  0  0
   48.4530   35.5300   41.4230 C   0  0  0  0  0  0  0  0  0  0  0  0
   49.6550   35.1960   41.9770 N   0  0  0  0  0  0  0  0  0  0  0  0
   49.4230   34.3310   42.9650 C   0  0  0  0  0  0  0  0  0  0  0  0
   48.1230   34.0780   43.0900 N   0  0  0  0  0  0  0  0  0  0  0  0
   43.8980   35.6590   42.4600 C   0  0  0  0  0  0  0  0  0  0  0  0
   45.2800   35.6130   42.7340 C   0  0  0  0  0  0  0  0  0  0  0  0
   46.0800   34.8650   41.8900 C   0  0  0  0  0  0  0  0  0  0  0  0
   45.5000   34.2190   40.8530 N   0  0  0  0  0  0  0  0  0  0  0  0
   44.1810   34.2750   40.6060 C   0  0  0  0  0  0  0  0  0  0  0  0
   43.3780   34.9970   41.4130 N   0  0  0  0  0  0  0  0  0  0  0  0
   47.5800   31.7600   43.7550 C   0  0  0  0  0  0  0  0  0  0  0  0
   47.7840   31.1940   42.4970 C   0  0  0  0  0  0  0  0  0  0  0  0
   47.8200   29.8660   42.5910 N   0  0  0  0  0  0  0  0  0  0  0  0
   47.6440   29.5430   43.8880 C   0  0  0  0  0  0  0  0  0  0  0  0
   47.5020   30.7070   44.5660 N   0  0  0  0  0  0  0  0  0  0  0  0
   47.2940   30.8560   45.9680 C   0  0  0  0  0  0  0  0  0  0  0  0
   48.1090   30.1380   46.8490 C   0  0  0  0  0  0  0  0  0  0  0  0
   47.7100   30.4520   48.1250 C   0  0  0  0  0  0  0  0  0  0  0  0
   46.6790   31.3390   47.9760 C   0  0  0  0  0  0  0  0  0  0  0  0
   46.4570   31.5570   46.6870 O   0  0  0  0  0  0  0  0  0  0  0  0
   45.8650   32.0160   48.9660 C   0  0  0  0  0  0  0  0  0  0  0  0
   45.0940   31.4540   49.8160 O   0  0  0  0  0  0  0  0  0  0  0  0
   47.9410   33.3880   45.0178 H   0  0  0  0  0  0  0  0  0  0  0  0
   46.4140   33.4460   43.9759 H   0  0  0  0  0  0  0  0  0  0  0  0
   48.2666   36.2192   40.5862 H   0  0  0  0  0  0  0  0  0  0  0  0
   50.2058   33.8842   43.5955 H   0  0  0  0  0  0  0  0  0  0  0  0
   43.2354   36.2457   43.1133 H   0  0  0  0  0  0  0  0  0  0  0  0
   45.7078   36.1542   43.5908 H   0  0  0  0  0  0  0  0  0  0  0  0
   43.7571   33.7332   39.7476 H   0  0  0  0  0  0  0  0  0  0  0  0
   47.8986   31.7622   41.5621 H   0  0  0  0  0  0  0  0  0  0  0  0
   47.6203   28.5290   44.3138 H   0  0  0  0  0  0  0  0  0  0  0  0
   48.9201   29.4488   46.5711 H   0  0  0  0  0  0  0  0  0  0  0  0
   48.1304   30.0710   49.0674 H   0  0  0  0  0  0  0  0  0  0  0  0
   45.9156   33.1146   48.9876 H   0  0  0  0  0  0  0  0  0  0  0  0
  2  6  1  0
  3  4  1  0
  3  2  2  0
  4  5  2  0
  5  6  1  0
  6  1  1  0
  7  8  2  0
  9  2  1  0
  9  8  1  0
 10  9  2  0
 11 10  1  0
 11 12  2  0
 12  7  1  0
 13  1  1  0
 13 17  1  0
 14 15  1  0
 14 13  2  0
 15 16  2  0
 16 17  1  0
 17 18  1  0
 18 22  1  0
 18 19  2  0
 19 20  1  0
 21 20  2  0
 21 23  1  0
 22 21  1  0
 23 24  2  0
  1 25  1  0
  1 26  1  0
  3 27  1  0
  5 28  1  0
  7 29  1  0
  8 30  1  0
 11 31  1  0
 14 32  1  0
 16 33  1  0
 19 34  1  0
 20 35  1  0
 23 36  1  0
M  ISO  8  25   8  26   8  27  14  28  14  29  14  30  14  31  14  32  14
M  ISO  4  33  14  34  14  35  14  36   6
M  END
>  <minimizedAffinity>  (1) 
-4.95878792

>  <minimizedRMSD>  (1) 
1.08957875

$$$$
