
     RDKit          3D

 35 38  0  0  0  0  0  0  0  0999 V2000
   47.4640   33.1190   44.0410 C   0  0  0  0  0  0  0  0  0  0  0  0
   47.5210   34.7670   42.2020 C   0  0  0  0  0  0  0  0  0  0  0  0
   48.4690   35.5110   41.4880 C   0  0  0  0  0  0  0  0  0  0  0  0
   49.6700   35.1440   42.0460 N   0  0  0  0  0  0  0  0  0  0  0  0
   49.4090   34.2570   43.0070 C   0  0  0  0  0  0  0  0  0  0  0  0
   48.1100   34.0150   43.1180 N   0  0  0  0  0  0  0  0  0  0  0  0
   43.9180   35.6830   42.4960 C   0  0  0  0  0  0  0  0  0  0  0  0
   45.2900   35.6130   42.7770 C   0  0  0  0  0  0  0  0  0  0  0  0
   46.0830   34.8550   41.9260 C   0  0  0  0  0  0  0  0  0  0  0  0
   45.4980   34.2270   40.8780 N   0  0  0  0  0  0  0  0  0  0  0  0
   44.1870   34.3130   40.6370 C   0  0  0  0  0  0  0  0  0  0  0  0
   43.3910   35.0440   41.4470 N   0  0  0  0  0  0  0  0  0  0  0  0
   47.4300   31.7060   43.6600 C   0  0  0  0  0  0  0  0  0  0  0  0
   47.5850   31.2100   42.3560 C   0  0  0  0  0  0  0  0  0  0  0  0
   47.5020   29.8740   42.3500 N   0  0  0  0  0  0  0  0  0  0  0  0
   47.2940   29.4830   43.6340 C   0  0  0  0  0  0  0  0  0  0  0  0
   47.2550   30.5960   44.3960 N   0  0  0  0  0  0  0  0  0  0  0  0
   47.0580   30.6640   45.8090 C   0  0  0  0  0  0  0  0  0  0  0  0
   48.0490   30.1490   46.6350 C   0  0  0  0  0  0  0  0  0  0  0  0
   47.6150   30.3380   47.9250 C   0  0  0  0  0  0  0  0  0  0  0  0
   46.4030   30.9470   47.8390 C   0  0  0  0  0  0  0  0  0  0  0  0
   46.0920   31.1320   46.5510 O   0  0  0  0  0  0  0  0  0  0  0  0
   45.4010   31.4180   49.2440 S   0  0  0  0  0  0  0  0  0  0  0  0
   47.9906   33.1935   45.0039 H   0  0  0  0  0  0  0  0  0  0  0  0
   46.4120   33.4390   44.0714 H   0  0  0  0  0  0  0  0  0  0  0  0
   48.2928   36.2244   40.6695 H   0  0  0  0  0  0  0  0  0  0  0  0
   50.1793   33.7827   43.6329 H   0  0  0  0  0  0  0  0  0  0  0  0
   43.2627   36.2753   43.1516 H   0  0  0  0  0  0  0  0  0  0  0  0
   45.7224   36.1396   43.6405 H   0  0  0  0  0  0  0  0  0  0  0  0
   43.7535   33.7858   39.7744 H   0  0  0  0  0  0  0  0  0  0  0  0
   47.7513   31.8320   41.4641 H   0  0  0  0  0  0  0  0  0  0  0  0
   47.1784   28.4480   43.9881 H   0  0  0  0  0  0  0  0  0  0  0  0
   48.9937   29.6824   46.3191 H   0  0  0  0  0  0  0  0  0  0  0  0
   48.1443   30.0526   48.8460 H   0  0  0  0  0  0  0  0  0  0  0  0
   46.0633   31.1067   50.4021 H   0  0  0  0  0  0  0  0  0  0  0  0
  2  6  1  0
  3  4  1  0
  3  2  2  0
  4  5  2  0
  5  6  1  0
  6  1  1  0
  7  8  2  0
  9  2  1  0
  9  8  1  0
 10  9  2  0
 11 10  1  0
 11 12  2  0
 12  7  1  0
 13  1  1  0
 13 17  1  0
 14 13  2  0
 15 14  1  0
 15 16  2  0
 16 17  1  0
 17 18  1  0
 18 22  1  0
 18 19  2  0
 19 20  1  0
 21 20  2  0
 21 23  1  0
 22 21  1  0
  1 24  1  0
  1 25  1  0
  3 26  1  0
  5 27  1  0
  7 28  1  0
  8 29  1  0
 11 30  1  0
 14 31  1  0
 16 32  1  0
 19 33  1  0
 20 34  1  0
 23 35  1  0
M  ISO  8  24   8  25   8  26  14  27  14  28  14  29  14  30  14  31  14
M  ISO  4  32  14  33  14  34  14  35  11
M  END
>  <minimizedAffinity>  (1) 
-4.79993057

>  <minimizedRMSD>  (1) 
1.16510892

$$$$
