
     RDKit          3D

 44 48  0  0  0  0  0  0  0  0999 V2000
   47.7630   31.4410   42.8760 C   0  0  0  0  0  0  0  0  0  0  0  0
   47.4630   31.2550   41.5160 C   0  0  0  0  0  0  0  0  0  0  0  0
   47.5490   29.9810   41.1740 N   0  0  0  0  0  0  0  0  0  0  0  0
   47.9040   29.2880   42.2790 C   0  0  0  0  0  0  0  0  0  0  0  0
   48.0280   30.1840   43.2980 N   0  0  0  0  0  0  0  0  0  0  0  0
   48.3840   29.9000   44.6330 C   0  0  0  0  0  0  0  0  0  0  0  0
   49.6040   29.2760   44.8800 C   0  0  0  0  0  0  0  0  0  0  0  0
   49.6910   29.1220   46.2580 C   0  0  0  0  0  0  0  0  0  0  0  0
   48.5450   29.6470   46.7730 C   0  0  0  0  0  0  0  0  0  0  0  0
   47.7700   30.1090   45.7960 O   0  0  0  0  0  0  0  0  0  0  0  0
   48.1360   29.7340   48.1910 C   0  0  0  0  0  0  0  0  0  0  0  0
   46.9270   30.4940   48.4010 N   0  0  0  0  0  0  0  0  0  0  0  0
   47.0560   31.7930   48.6880 N   0  0  0  0  0  0  0  0  0  0  0  0
   45.8560   32.3540   48.8530 C   0  0  0  0  0  0  0  0  0  0  0  0
   44.8900   31.3670   48.6640 C   0  0  0  0  0  0  0  0  0  0  0  0
   45.6150   30.2060   48.3800 C   0  0  0  0  0  0  0  0  0  0  0  0
   47.7720   32.7080   43.6110 C   0  0  0  0  0  0  0  0  0  0  0  0
   47.7210   34.7830   42.2800 C   0  0  0  0  0  0  0  0  0  0  0  0
   48.6310   35.6980   41.7290 C   0  0  0  0  0  0  0  0  0  0  0  0
   49.8580   35.2130   42.0870 N   0  0  0  0  0  0  0  0  0  0  0  0
   49.6640   34.0990   42.7940 C   0  0  0  0  0  0  0  0  0  0  0  0
   48.3690   33.8180   42.9230 N   0  0  0  0  0  0  0  0  0  0  0  0
   44.1700   35.7070   42.9480 C   0  0  0  0  0  0  0  0  0  0  0  0
   45.5620   35.5770   43.0970 C   0  0  0  0  0  0  0  0  0  0  0  0
   46.2730   34.9250   42.1330 C   0  0  0  0  0  0  0  0  0  0  0  0
   45.5850   34.4330   41.0660 N   0  0  0  0  0  0  0  0  0  0  0  0
   44.2680   34.5540   40.9190 C   0  0  0  0  0  0  0  0  0  0  0  0
   43.5520   35.1970   41.8680 N   0  0  0  0  0  0  0  0  0  0  0  0
   47.1913   32.0659   40.8242 H   0  0  0  0  0  0  0  0  0  0  0  0
   48.0633   28.2015   42.3436 H   0  0  0  0  0  0  0  0  0  0  0  0
   50.3500   28.9667   44.1331 H   0  0  0  0  0  0  0  0  0  0  0  0
   50.5197   28.6671   46.8204 H   0  0  0  0  0  0  0  0  0  0  0  0
   47.9748   28.7137   48.5691 H   0  0  0  0  0  0  0  0  0  0  0  0
   48.9418   30.2577   48.7262 H   0  0  0  0  0  0  0  0  0  0  0  0
   45.6633   33.4095   49.0955 H   0  0  0  0  0  0  0  0  0  0  0  0
   43.7973   31.4774   48.7249 H   0  0  0  0  0  0  0  0  0  0  0  0
   45.1813   29.2166   48.1728 H   0  0  0  0  0  0  0  0  0  0  0  0
   46.7297   32.9733   43.8417 H   0  0  0  0  0  0  0  0  0  0  0  0
   48.3935   32.5356   44.5021 H   0  0  0  0  0  0  0  0  0  0  0  0
   48.4077   36.6010   41.1419 H   0  0  0  0  0  0  0  0  0  0  0  0
   50.4741   33.4876   43.2183 H   0  0  0  0  0  0  0  0  0  0  0  0
   43.5835   36.2285   43.7187 H   0  0  0  0  0  0  0  0  0  0  0  0
   46.0703   35.9951   43.9784 H   0  0  0  0  0  0  0  0  0  0  0  0
   43.7670   34.1349   40.0339 H   0  0  0  0  0  0  0  0  0  0  0  0
  1  5  1  0
  1 17  1  0
  2  1  2  0
  3  2  1  0
  3  4  2  0
  4  5  1  0
  5  6  1  0
  6  7  2  0
  6 10  1  0
  7  8  1  0
  8  9  2  0
  9 11  1  0
 10  9  1  0
 11 12  1  0
 12 13  1  0
 13 14  2  0
 15 14  1  0
 16 12  1  0
 16 15  2  0
 18 22  1  0
 19 20  1  0
 19 18  2  0
 20 21  2  0
 21 22  1  0
 22 17  1  0
 23 24  2  0
 25 18  1  0
 25 24  1  0
 26 25  2  0
 27 26  1  0
 27 28  2  0
 28 23  1  0
  2 29  1  0
  4 30  1  0
  7 31  1  0
  8 32  1  0
 11 33  1  0
 11 34  1  0
 14 35  1  0
 15 36  1  0
 16 37  1  0
 17 38  1  0
 17 39  1  0
 19 40  1  0
 21 41  1  0
 23 42  1  0
 24 43  1  0
 27 44  1  0
M  ISO  8  29  14  30  14  31  14  32  14  33   8  34   8  35  14  36  14
M  ISO  8  37  14  38   8  39   8  40  14  41  14  42  14  43  14  44  14
M  END
>  <minimizedAffinity>  (1) 
-5.2529068

>  <minimizedRMSD>  (1) 
2.07414699

$$$$
