
     RDKit          3D

 25 26  0  0  0  0  0  0  0  0999 V2000
   44.5570   35.7940   44.8740 C   0  0  0  0  0  0  0  0  0  0  0  0
   45.1250   35.9710   43.6040 C   0  0  0  0  0  0  0  0  0  0  0  0
   46.0660   35.0490   43.1260 C   0  0  0  0  0  0  0  0  0  0  0  0
   46.3820   34.0120   43.9370 N   0  0  0  0  0  0  0  0  0  0  0  0
   45.8320   33.8540   45.1480 C   0  0  0  0  0  0  0  0  0  0  0  0
   44.9290   34.7260   45.6230 N   0  0  0  0  0  0  0  0  0  0  0  0
   46.1250   32.7860   46.0410 N   0  0  0  0  0  0  0  0  0  0  0  0
   45.5810   32.6970   47.2590 C   0  0  0  0  0  0  0  0  0  0  0  0
   45.9360   31.6150   48.0470 C   0  0  0  0  0  0  0  0  0  0  0  0
   45.3880   31.4280   49.4060 C   0  0  0  0  0  0  0  0  0  0  0  0
   46.8250   30.6540   47.5970 C   0  0  0  0  0  0  0  0  0  0  0  0
   47.1570   29.6540   48.3170 O   0  0  0  0  0  0  0  0  0  0  0  0
   47.3620   30.7670   46.3620 N   0  0  0  0  0  0  0  0  0  0  0  0
   47.0020   31.8360   45.6010 C   0  0  0  0  0  0  0  0  0  0  0  0
   47.5320   31.9000   44.4470 O   0  0  0  0  0  0  0  0  0  0  0  0
   44.7190   37.0780   42.8640 N   0  0  0  0  0  0  0  0  0  0  0  0
   43.8184   36.5129   45.2583 H   0  0  0  0  0  0  0  0  0  0  0  0
   46.5281   35.1630   42.1343 H   0  0  0  0  0  0  0  0  0  0  0  0
   44.8750   33.4579   47.6231 H   0  0  0  0  0  0  0  0  0  0  0  0
   46.1550   31.6897   50.1498 H   0  0  0  0  0  0  0  0  0  0  0  0
   44.5104   32.0775   49.5401 H   0  0  0  0  0  0  0  0  0  0  0  0
   45.0906   30.3775   49.5401 H   0  0  0  0  0  0  0  0  0  0  0  0
   48.0252   30.0636   46.0067 H   0  0  0  0  0  0  0  0  0  0  0  0
   45.1127   37.2434   41.9267 H   0  0  0  0  0  0  0  0  0  0  0  0
   44.0249   37.7316   43.2538 H   0  0  0  0  0  0  0  0  0  0  0  0
  1  6  2  0
  2  1  1  0
  3  2  2  0
  3  4  1  0
  4  5  2  0
  5  6  1  0
  5  7  1  0
  7  8  1  0
  8  9  2  0
  9 10  1  0
 11  9  1  0
 11 12  2  0
 13 11  1  0
 14  7  1  0
 14 13  1  0
 15 14  2  0
 16  2  1  0
  1 17  1  0
  3 18  1  0
  8 19  1  0
 10 20  1  0
 10 21  1  0
 10 22  1  0
 13 23  1  0
 16 24  1  0
 16 25  1  0
M  ISO  7  17  14  18  14  19  14  20   8  21   8  22   8  23   9
M  END
>  <minimizedAffinity>  (1) 
-5.5375247

>  <minimizedRMSD>  (1) 
0.350055248

$$$$
