
     RDKit          3D

 22 23  0  0  0  0  0  0  0  0999 V2000
   44.3780   35.9000   44.6160 C   0  0  0  0  0  0  0  0  0  0  0  0
   44.4160   35.4370   43.2900 C   0  0  0  0  0  0  0  0  0  0  0  0
   44.9340   34.1740   43.0240 C   0  0  0  0  0  0  0  0  0  0  0  0
   45.3780   33.4540   44.0810 N   0  0  0  0  0  0  0  0  0  0  0  0
   45.3350   33.9090   45.3370 C   0  0  0  0  0  0  0  0  0  0  0  0
   44.8410   35.1230   45.6160 N   0  0  0  0  0  0  0  0  0  0  0  0
   45.8290   33.0760   46.4030 N   0  0  0  0  0  0  0  0  0  0  0  0
   45.2040   33.1250   47.6150 C   0  0  0  0  0  0  0  0  0  0  0  0
   45.6840   32.3220   48.6390 C   0  0  0  0  0  0  0  0  0  0  0  0
   46.7700   31.5300   48.3380 C   0  0  0  0  0  0  0  0  0  0  0  0
   47.1950   30.8070   49.2720 O   0  0  0  0  0  0  0  0  0  0  0  0
   47.3950   31.4700   47.1510 N   0  0  0  0  0  0  0  0  0  0  0  0
   46.8880   32.2730   46.1890 C   0  0  0  0  0  0  0  0  0  0  0  0
   47.4500   32.2420   45.0640 O   0  0  0  0  0  0  0  0  0  0  0  0
   43.9300   36.2700   42.2840 N   0  0  0  0  0  0  0  0  0  0  0  0
   43.9702   36.8971   44.8385 H   0  0  0  0  0  0  0  0  0  0  0  0
   44.9809   33.7772   41.9991 H   0  0  0  0  0  0  0  0  0  0  0  0
   44.3396   33.7860   47.7762 H   0  0  0  0  0  0  0  0  0  0  0  0
   45.2224   32.3179   49.6374 H   0  0  0  0  0  0  0  0  0  0  0  0
   48.2044   30.8549   46.9851 H   0  0  0  0  0  0  0  0  0  0  0  0
   43.9457   35.9561   41.3031 H   0  0  0  0  0  0  0  0  0  0  0  0
   43.5551   37.1995   42.5214 H   0  0  0  0  0  0  0  0  0  0  0  0
  1  6  2  0
  2  1  1  0
  3  2  2  0
  3  4  1  0
  4  5  2  0
  5  6  1  0
  5  7  1  0
  7  8  1  0
  8  9  2  0
 10  9  1  0
 10 11  2  0
 12 10  1  0
 13  7  1  0
 13 12  1  0
 14 13  2  0
 15  2  1  0
  1 16  1  0
  3 17  1  0
  8 18  1  0
  9 19  1  0
 12 20  1  0
 15 21  1  0
 15 22  1  0
M  ISO  5  16  14  17  14  18  14  19  14  20   9
M  END
>  <minimizedAffinity>  (1) 
-5.21924257

>  <minimizedRMSD>  (1) 
1.07480288

$$$$
