
     RDKit          3D

 28 29  0  0  0  0  0  0  0  0999 V2000
   44.5160   35.6230   45.2520 C   0  0  0  0  0  0  0  0  0  0  0  0
   45.1220   35.5800   43.9670 C   0  0  0  0  0  0  0  0  0  0  0  0
   45.9490   34.5090   43.6650 C   0  0  0  0  0  0  0  0  0  0  0  0
   46.1480   33.5480   44.5990 N   0  0  0  0  0  0  0  0  0  0  0  0
   45.5630   33.6090   45.8110 C   0  0  0  0  0  0  0  0  0  0  0  0
   44.7560   34.6360   46.1340 N   0  0  0  0  0  0  0  0  0  0  0  0
   45.8440   32.5160   46.7540 C   0  0  0  0  0  0  0  0  0  0  0  0
   47.2910   32.2490   46.9910 C   0  0  0  0  0  0  0  0  0  0  0  0
   47.5050   32.0060   48.4810 C   0  0  0  0  0  0  0  0  0  0  0  0
   46.5200   30.9910   49.0010 C   0  0  0  0  0  0  0  0  0  0  0  0
   45.0800   31.3630   48.7390 C   0  0  0  0  0  0  0  0  0  0  0  0
   45.1150   32.7400   48.0750 C   0  0  0  0  0  0  0  0  0  0  0  0
   44.8500   36.6180   43.0840 N   0  0  0  0  0  0  0  0  0  0  0  0
   43.8544   36.4587   45.5238 H   0  0  0  0  0  0  0  0  0  0  0  0
   46.4365   34.4405   42.6813 H   0  0  0  0  0  0  0  0  0  0  0  0
   45.4590   31.6093   46.2644 H   0  0  0  0  0  0  0  0  0  0  0  0
   47.6014   31.3599   46.4225 H   0  0  0  0  0  0  0  0  0  0  0  0
   47.8902   33.1107   46.6617 H   0  0  0  0  0  0  0  0  0  0  0  0
   48.5272   31.6334   48.6431 H   0  0  0  0  0  0  0  0  0  0  0  0
   47.3547   32.9534   49.0194 H   0  0  0  0  0  0  0  0  0  0  0  0
   46.7247   30.0258   48.5148 H   0  0  0  0  0  0  0  0  0  0  0  0
   46.6493   30.9428   50.0923 H   0  0  0  0  0  0  0  0  0  0  0  0
   44.6109   30.6274   48.0691 H   0  0  0  0  0  0  0  0  0  0  0  0
   44.4922   31.3786   49.6686 H   0  0  0  0  0  0  0  0  0  0  0  0
   45.6619   33.4592   48.7025 H   0  0  0  0  0  0  0  0  0  0  0  0
   44.1075   33.1564   47.9283 H   0  0  0  0  0  0  0  0  0  0  0  0
   45.2722   36.6189   42.1445 H   0  0  0  0  0  0  0  0  0  0  0  0
   44.2262   37.3865   43.3690 H   0  0  0  0  0  0  0  0  0  0  0  0
  1  6  2  0
  2  1  1  0
  3  2  2  0
  3  4  1  0
  4  5  2  0
  5  6  1  0
  5  7  1  0
  7  8  1  0
  7 12  1  0
  8  9  1  0
  9 10  1  0
 11 10  1  0
 12 11  1  0
 13  2  1  0
  1 14  1  0
  3 15  1  0
  7 16  1  0
  8 17  1  0
  8 18  1  0
  9 19  1  0
  9 20  1  0
 10 21  1  0
 10 22  1  0
 11 23  1  0
 11 24  1  0
 12 25  1  0
 12 26  1  0
 13 27  1  0
 13 28  1  0
M  ISO  8  14  14  15  14  16  13  17  13  18  13  19  13  20  13  21  13
M  ISO  5  22  13  23  13  24  13  25  13  26  13
M  END
>  <minimizedAffinity>  (1) 
-4.98029852

>  <minimizedRMSD>  (1) 
1.02076304

$$$$
