
     RDKit          3D

 21 22  0  0  0  0  0  0  0  0999 V2000
   44.4550   35.6040   45.1390 C   0  0  0  0  0  0  0  0  0  0  0  0
   45.1000   35.4570   43.8810 C   0  0  0  0  0  0  0  0  0  0  0  0
   46.0240   34.4450   43.6750 C   0  0  0  0  0  0  0  0  0  0  0  0
   46.2690   33.6130   44.7390 N   0  0  0  0  0  0  0  0  0  0  0  0
   45.6570   33.7580   45.9170 C   0  0  0  0  0  0  0  0  0  0  0  0
   44.7690   34.7300   46.1240 N   0  0  0  0  0  0  0  0  0  0  0  0
   45.9980   32.8050   46.9940 C   0  0  0  0  0  0  0  0  0  0  0  0
   45.0790   32.5750   47.9880 C   0  0  0  0  0  0  0  0  0  0  0  0
   45.4500   31.6710   48.9720 C   0  0  0  0  0  0  0  0  0  0  0  0
   46.6970   31.0870   48.8740 C   0  0  0  0  0  0  0  0  0  0  0  0
   47.6140   31.3250   47.8720 C   0  0  0  0  0  0  0  0  0  0  0  0
   47.2090   32.2200   46.9240 N   0  0  0  0  0  0  0  0  0  0  0  0
   44.7740   36.3650   42.8630 N   0  0  0  0  0  0  0  0  0  0  0  0
   43.7210   36.4058   45.3076 H   0  0  0  0  0  0  0  0  0  0  0  0
   46.5345   34.3152   42.7093 H   0  0  0  0  0  0  0  0  0  0  0  0
   44.1020   33.0802   48.0029 H   0  0  0  0  0  0  0  0  0  0  0  0
   44.7726   31.4272   49.8037 H   0  0  0  0  0  0  0  0  0  0  0  0
   46.9828   30.3727   49.6602 H   0  0  0  0  0  0  0  0  0  0  0  0
   48.5965   30.8315   47.8391 H   0  0  0  0  0  0  0  0  0  0  0  0
   45.2233   36.2864   41.9395 H   0  0  0  0  0  0  0  0  0  0  0  0
   44.0853   37.1104   43.0389 H   0  0  0  0  0  0  0  0  0  0  0  0
  1  6  2  0
  2  1  1  0
  3  2  2  0
  3  4  1  0
  4  5  2  0
  5  6  1  0
  5  7  1  0
  7  8  2  0
  8  9  1  0
 10  9  2  0
 11 10  1  0
 12  7  1  0
 12 11  2  0
 13  2  1  0
  1 14  1  0
  3 15  1  0
  8 16  1  0
  9 17  1  0
 10 18  1  0
 11 19  1  0
 13 20  1  0
 13 21  1  0
M  ISO  6  14  14  15  14  16  14  17  14  18  14  19  14
M  END
>  <minimizedAffinity>  (1) 
-4.81111431

>  <minimizedRMSD>  (1) 
0.903847277

$$$$
