
     RDKit          3D

 20 21  0  0  0  0  0  0  0  0999 V2000
   44.4800   35.5680   45.1100 C   0  0  0  0  0  0  0  0  0  0  0  0
   45.1000   35.4600   43.8370 C   0  0  0  0  0  0  0  0  0  0  0  0
   46.0350   34.4550   43.6360 C   0  0  0  0  0  0  0  0  0  0  0  0
   46.3200   33.6150   44.6690 N   0  0  0  0  0  0  0  0  0  0  0  0
   45.7180   33.7390   45.8640 C   0  0  0  0  0  0  0  0  0  0  0  0
   44.8180   34.6920   46.0870 N   0  0  0  0  0  0  0  0  0  0  0  0
   46.0620   32.8090   46.9340 C   0  0  0  0  0  0  0  0  0  0  0  0
   45.1800   32.5660   47.9670 C   0  0  0  0  0  0  0  0  0  0  0  0
   45.4480   31.6950   49.0110 C   0  0  0  0  0  0  0  0  0  0  0  0
   46.6280   31.0600   49.0100 N   0  0  0  0  0  0  0  0  0  0  0  0
   47.5000   31.2980   47.9920 C   0  0  0  0  0  0  0  0  0  0  0  0
   47.2340   32.1540   46.9680 N   0  0  0  0  0  0  0  0  0  0  0  0
   44.7230   36.3810   42.8630 N   0  0  0  0  0  0  0  0  0  0  0  0
   43.7341   36.3536   45.3007 H   0  0  0  0  0  0  0  0  0  0  0  0
   46.5353   34.3393   42.6632 H   0  0  0  0  0  0  0  0  0  0  0  0
   44.2135   33.0912   47.9615 H   0  0  0  0  0  0  0  0  0  0  0  0
   44.7155   31.5301   49.8149 H   0  0  0  0  0  0  0  0  0  0  0  0
   48.4666   30.7729   47.9974 H   0  0  0  0  0  0  0  0  0  0  0  0
   45.1464   36.3409   41.9249 H   0  0  0  0  0  0  0  0  0  0  0  0
   44.0207   37.1024   43.0806 H   0  0  0  0  0  0  0  0  0  0  0  0
  1  6  2  0
  2  1  1  0
  3  2  2  0
  3  4  1  0
  4  5  2  0
  5  6  1  0
  5  7  1  0
  7 12  1  0
  7  8  2  0
  8  9  1  0
 10  9  2  0
 11 10  1  0
 12 11  2  0
 13  2  1  0
  1 14  1  0
  3 15  1  0
  8 16  1  0
  9 17  1  0
 11 18  1  0
 13 19  1  0
 13 20  1  0
M  ISO  5  14  14  15  14  16  14  17  14  18  14
M  END
>  <minimizedAffinity>  (1) 
-4.73335791

>  <minimizedRMSD>  (1) 
0.776886523

$$$$
