
     RDKit          3D

 20 21  0  0  0  0  0  0  0  0999 V2000
   44.4810   35.5670   45.0990 C   0  0  0  0  0  0  0  0  0  0  0  0
   45.1010   35.4550   43.8460 C   0  0  0  0  0  0  0  0  0  0  0  0
   46.0340   34.4520   43.6490 C   0  0  0  0  0  0  0  0  0  0  0  0
   46.3000   33.6160   44.7020 N   0  0  0  0  0  0  0  0  0  0  0  0
   45.6900   33.7510   45.8830 C   0  0  0  0  0  0  0  0  0  0  0  0
   44.7900   34.7050   46.1060 N   0  0  0  0  0  0  0  0  0  0  0  0
   46.0280   32.8200   46.9590 C   0  0  0  0  0  0  0  0  0  0  0  0
   45.1390   32.5750   47.9940 C   0  0  0  0  0  0  0  0  0  0  0  0
   45.5320   31.6800   48.9760 C   0  0  0  0  0  0  0  0  0  0  0  0
   46.7320   31.0780   48.9170 N   0  0  0  0  0  0  0  0  0  0  0  0
   47.5860   31.3230   47.9070 C   0  0  0  0  0  0  0  0  0  0  0  0
   47.2270   32.1930   46.9360 N   0  0  0  0  0  0  0  0  0  0  0  0
   44.7380   36.3700   42.8640 N   0  0  0  0  0  0  0  0  0  0  0  0
   43.7375   36.3595   45.2697 H   0  0  0  0  0  0  0  0  0  0  0  0
   46.5438   34.3301   42.6819 H   0  0  0  0  0  0  0  0  0  0  0  0
   44.1587   33.0723   48.0342 H   0  0  0  0  0  0  0  0  0  0  0  0
   44.8539   31.4597   49.8136 H   0  0  0  0  0  0  0  0  0  0  0  0
   48.5645   30.8217   47.8714 H   0  0  0  0  0  0  0  0  0  0  0  0
   45.1701   36.3219   41.9303 H   0  0  0  0  0  0  0  0  0  0  0  0
   44.0370   37.0959   43.0703 H   0  0  0  0  0  0  0  0  0  0  0  0
  1  6  2  0
  2  1  1  0
  3  2  2  0
  3  4  1  0
  4  5  2  0
  5  6  1  0
  5  7  1  0
  7  8  2  0
  8  9  1  0
 10  9  2  0
 11 10  1  0
 12  7  1  0
 12 11  2  0
 13  2  1  0
  1 14  1  0
  3 15  1  0
  8 16  1  0
  9 17  1  0
 11 18  1  0
 13 19  1  0
 13 20  1  0
M  ISO  5  14  14  15  14  16  14  17  14  18  14
M  END
>  <minimizedAffinity>  (1) 
-4.69607973

>  <minimizedRMSD>  (1) 
0.908586621

$$$$
