
     RDKit          3D

 49 53  0  0  1  0  0  0  0  0999 V2000
   49.0510   33.4310   42.4760 C   0  0  2  0  0  0  0  0  0  0  0  0
   47.6970   33.7230   42.1590 C   0  0  2  0  0  0  0  0  0  0  0  0
   47.7070   35.2460   41.8640 C   0  0  0  0  0  0  0  0  0  0  0  0
   49.1210   35.7070   41.7020 C   0  0  0  0  0  0  0  0  0  0  0  0
   49.8040   34.8060   42.6360 C   0  0  0  0  0  0  0  0  0  0  0  0
   49.8870   32.7200   41.5100 C   0  0  0  0  0  0  0  0  0  0  0  0
   49.2760   32.2900   40.3480 C   0  0  0  0  0  0  0  0  0  0  0  0
   49.9710   31.5890   39.3720 C   0  0  0  0  0  0  0  0  0  0  0  0
   51.3120   31.3660   39.6630 N   0  0  0  0  0  0  0  0  0  0  0  0
   51.8940   31.7830   40.7790 C   0  0  0  0  0  0  0  0  0  0  0  0
   51.1690   32.4460   41.6700 N   0  0  0  0  0  0  0  0  0  0  0  0
   46.6860   33.4330   43.2050 C   0  0  0  0  0  0  0  0  0  0  0  0
   46.3400   34.2960   43.9800 O   0  0  0  0  0  0  0  0  0  0  0  0
   46.0030   32.1890   43.4550 C   0  0  0  0  0  0  0  0  0  0  0  0
   45.3090   31.5370   42.4340 C   0  0  0  0  0  0  0  0  0  0  0  0
   44.6270   30.3290   42.6190 C   0  0  0  0  0  0  0  0  0  0  0  0
   44.6330   29.7430   43.8810 C   0  0  0  0  0  0  0  0  0  0  0  0
   45.3270   30.3900   44.9150 C   0  0  0  0  0  0  0  0  0  0  0  0
   45.9870   31.5810   44.6680 C   0  0  0  0  0  0  0  0  0  0  0  0
   46.4880   31.7240   46.0210 C   0  0  0  0  0  0  0  0  0  0  0  0
   46.0060   32.7550   46.8440 C   0  0  0  0  0  0  0  0  0  0  0  0
   46.5950   32.7980   48.0740 N   0  0  0  0  0  0  0  0  0  0  0  0
   47.4700   31.7790   48.0470 C   0  0  0  0  0  0  0  0  0  0  0  0
   48.3990   31.2840   48.9710 C   0  0  0  0  0  0  0  0  0  0  0  0
   49.1950   30.2020   48.6410 C   0  0  0  0  0  0  0  0  0  0  0  0
   49.1110   29.5760   47.4100 C   0  0  0  0  0  0  0  0  0  0  0  0
   48.2050   30.0320   46.4570 C   0  0  0  0  0  0  0  0  0  0  0  0
   47.4290   31.1070   46.8150 C   0  0  0  0  0  0  0  0  0  0  0  0
   48.9430   32.7706   43.3490 H   0  0  0  0  0  0  0  0  0  0  0  0
   47.3850   33.0707   41.3300 H   0  0  0  0  0  0  0  0  0  0  0  0
   47.1469   35.4450   40.9384 H   0  0  0  0  0  0  0  0  0  0  0  0
   47.2355   35.7868   42.6978 H   0  0  0  0  0  0  0  0  0  0  0  0
   49.4775   35.5692   40.6705 H   0  0  0  0  0  0  0  0  0  0  0  0
   49.2797   36.7776   41.8987 H   0  0  0  0  0  0  0  0  0  0  0  0
   49.7197   35.1781   43.6677 H   0  0  0  0  0  0  0  0  0  0  0  0
   50.8804   34.7215   42.4255 H   0  0  0  0  0  0  0  0  0  0  0  0
   48.2094   32.5091   40.1919 H   0  0  0  0  0  0  0  0  0  0  0  0
   49.4985   31.2381   38.4427 H   0  0  0  0  0  0  0  0  0  0  0  0
   52.9599   31.5825   40.9627 H   0  0  0  0  0  0  0  0  0  0  0  0
   45.2977   31.9957   41.4343 H   0  0  0  0  0  0  0  0  0  0  0  0
   44.0960   29.8516   41.7822 H   0  0  0  0  0  0  0  0  0  0  0  0
   44.1061   28.7949   44.0639 H   0  0  0  0  0  0  0  0  0  0  0  0
   45.3464   29.9500   45.9230 H   0  0  0  0  0  0  0  0  0  0  0  0
   45.2258   33.4624   46.5263 H   0  0  0  0  0  0  0  0  0  0  0  0
   46.4116   33.4577   48.8435 H   0  0  0  0  0  0  0  0  0  0  0  0
   48.4956   31.7561   49.9598 H   0  0  0  0  0  0  0  0  0  0  0  0
   49.9178   29.8273   49.3808 H   0  0  0  0  0  0  0  0  0  0  0  0
   49.7606   28.7175   47.1844 H   0  0  0  0  0  0  0  0  0  0  0  0
   48.1152   29.5565   45.4692 H   0  0  0  0  0  0  0  0  0  0  0  0
  1  5  1  0
  2  1  1  0
  2 12  1  0
  3  2  1  0
  4  3  1  0
  4  5  1  0
  6 11  1  0
  6  1  1  0
  7  6  2  0
  8  9  2  0
  8  7  1  0
  9 10  1  0
 10 11  2  0
 12 14  1  0
 12 13  2  0
 14 19  2  0
 15 16  2  0
 15 14  1  0
 16 17  1  0
 17 18  2  0
 19 18  1  0
 19 20  1  0
 20 28  1  0
 20 21  2  0
 21 22  1  0
 23 22  1  0
 23 24  2  0
 25 24  1  0
 26 25  2  0
 27 28  2  0
 27 26  1  0
 28 23  1  0
  1 29  1  1
  2 30  1  6
  3 31  1  0
  3 32  1  0
  4 33  1  0
  4 34  1  0
  5 35  1  0
  5 36  1  0
  7 37  1  0
  8 38  1  0
 10 39  1  0
 15 40  1  0
 16 41  1  0
 17 42  1  0
 18 43  1  0
 21 44  1  0
 22 45  1  0
 24 46  1  0
 25 47  1  0
 26 48  1  0
 27 49  1  0
M  ISO  8  29  13  30  13  31  13  32  13  33  13  34  13  35  13  36  13
M  ISO  8  37  14  38  14  39  14  40  14  41  14  42  14  43  14  44  14
M  ISO  5  45   9  46  14  47  14  48  14  49  14
M  END
>  <minimizedAffinity>  (1) 
-6.38482285

>  <minimizedRMSD>  (1) 
4.15694809

$$$$
