
     RDKit          3D

 25 26  0  0  0  0  0  0  0  0999 V2000
   44.5740   35.3550   45.2090 C   0  0  0  0  0  0  0  0  0  0  0  0
   45.1450   35.3900   43.9070 C   0  0  0  0  0  0  0  0  0  0  0  0
   46.1740   34.4980   43.5870 C   0  0  0  0  0  0  0  0  0  0  0  0
   46.5690   33.6400   44.5610 N   0  0  0  0  0  0  0  0  0  0  0  0
   46.0270   33.6140   45.7820 C   0  0  0  0  0  0  0  0  0  0  0  0
   45.0330   34.4660   46.1100 N   0  0  0  0  0  0  0  0  0  0  0  0
   46.4490   32.6800   46.8580 C   0  0  0  0  0  0  0  0  0  0  0  0
   46.8320   31.3260   46.3000 C   0  0  0  0  0  0  0  0  0  0  0  0
   45.5800   30.4950   46.6050 C   0  0  0  0  0  0  0  0  0  0  0  0
   45.3280   30.9270   48.0560 C   0  0  0  0  0  0  0  0  0  0  0  0
   45.3110   32.4430   47.8430 C   0  0  0  0  0  0  0  0  0  0  0  0
   44.6550   36.3200   42.9850 N   0  0  0  0  0  0  0  0  0  0  0  0
   43.7638   36.0487   45.4778 H   0  0  0  0  0  0  0  0  0  0  0  0
   46.6415   34.4925   42.5913 H   0  0  0  0  0  0  0  0  0  0  0  0
   47.3125   33.1479   47.3534 H   0  0  0  0  0  0  0  0  0  0  0  0
   47.7172   30.9185   46.8102 H   0  0  0  0  0  0  0  0  0  0  0  0
   47.1055   31.3446   45.2347 H   0  0  0  0  0  0  0  0  0  0  0  0
   44.7406   30.7630   45.9466 H   0  0  0  0  0  0  0  0  0  0  0  0
   45.6925   29.4111   46.4547 H   0  0  0  0  0  0  0  0  0  0  0  0
   44.3676   30.5517   48.4391 H   0  0  0  0  0  0  0  0  0  0  0  0
   46.0523   30.5572   48.7967 H   0  0  0  0  0  0  0  0  0  0  0  0
   45.4933   32.9744   48.7887 H   0  0  0  0  0  0  0  0  0  0  0  0
   44.3427   32.8116   47.4736 H   0  0  0  0  0  0  0  0  0  0  0  0
   45.0534   36.3635   42.0361 H   0  0  0  0  0  0  0  0  0  0  0  0
   43.8957   36.9616   43.2547 H   0  0  0  0  0  0  0  0  0  0  0  0
  1  6  2  0
  2  1  1  0
  3  2  2  0
  3  4  1  0
  4  5  2  0
  5  6  1  0
  5  7  1  0
  7 11  1  0
  8  9  1  0
  8  7  1  0
  9 10  1  0
 11 10  1  0
 12  2  1  0
  1 13  1  0
  3 14  1  0
  7 15  1  0
  8 16  1  0
  8 17  1  0
  9 18  1  0
  9 19  1  0
 10 20  1  0
 10 21  1  0
 11 22  1  0
 11 23  1  0
 12 24  1  0
 12 25  1  0
M  ISO  8  13  14  14  14  15  13  16  13  17  13  18  13  19  13  20  13
M  ISO  3  21  13  22  13  23  13
M  END
>  <minimizedAffinity>  (1) 
-4.35332441

>  <minimizedRMSD>  (1) 
0.898323238

$$$$
