
     RDKit          3D

 42 44  0  0  1  0  0  0  0  0999 V2000
   49.1540   33.2590   42.8000 C   0  0  2  0  0  0  0  0  0  0  0  0
   47.7450   33.1540   42.9120 C   0  0  2  0  0  0  0  0  0  0  0  0
   47.2490   34.5680   42.4790 C   0  0  0  0  0  0  0  0  0  0  0  0
   48.3590   35.3020   41.8250 C   0  0  0  0  0  0  0  0  0  0  0  0
   49.5080   34.7810   42.5690 C   0  0  0  0  0  0  0  0  0  0  0  0
   49.8670   32.6010   41.7060 C   0  0  0  0  0  0  0  0  0  0  0  0
   49.0840   32.1060   40.6840 C   0  0  0  0  0  0  0  0  0  0  0  0
   49.6200   31.4420   39.5880 C   0  0  0  0  0  0  0  0  0  0  0  0
   51.0070   31.3290   39.6150 N   0  0  0  0  0  0  0  0  0  0  0  0
   51.7550   31.8110   40.6010 C   0  0  0  0  0  0  0  0  0  0  0  0
   51.1750   32.4340   41.6230 N   0  0  0  0  0  0  0  0  0  0  0  0
   47.1940   32.8390   44.2560 C   0  0  0  0  0  0  0  0  0  0  0  0
   46.6320   33.6800   44.9140 O   0  0  0  0  0  0  0  0  0  0  0  0
   47.2300   31.5740   44.9530 C   0  0  0  0  0  0  0  0  0  0  0  0
   48.2210   30.6320   44.6900 C   0  0  0  0  0  0  0  0  0  0  0  0
   48.2910   29.3830   45.3000 C   0  0  0  0  0  0  0  0  0  0  0  0
   47.3230   29.0410   46.2270 C   0  0  0  0  0  0  0  0  0  0  0  0
   46.3370   29.9380   46.5130 C   0  0  0  0  0  0  0  0  0  0  0  0
   46.3120   31.1730   45.8790 C   0  0  0  0  0  0  0  0  0  0  0  0
   45.3030   31.9620   46.4490 N   0  0  0  0  0  0  0  0  0  0  0  0
   45.3250   32.9340   47.4700 C   0  0  0  0  0  0  0  0  0  0  0  0
   46.1060   32.6510   48.4540 N   0  0  0  0  0  0  0  0  0  0  0  0
   44.5490   34.1480   47.4700 N   0  0  0  0  0  0  0  0  0  0  0  0
   46.6920   31.8370   48.5870 H   0  0  0  0  0  0  0  0  0  0  0  0
   49.4748   32.7598   43.7262 H   0  0  0  0  0  0  0  0  0  0  0  0
   47.4063   32.3016   42.3048 H   0  0  0  0  0  0  0  0  0  0  0  0
   46.4125   34.4627   41.7725 H   0  0  0  0  0  0  0  0  0  0  0  0
   46.9123   35.1259   43.3652 H   0  0  0  0  0  0  0  0  0  0  0  0
   48.4276   35.0617   40.7538 H   0  0  0  0  0  0  0  0  0  0  0  0
   48.2584   36.3971   41.8504 H   0  0  0  0  0  0  0  0  0  0  0  0
   50.4328   34.8828   41.9822 H   0  0  0  0  0  0  0  0  0  0  0  0
   49.6845   35.3226   43.5100 H   0  0  0  0  0  0  0  0  0  0  0  0
   47.9939   32.2422   40.7390 H   0  0  0  0  0  0  0  0  0  0  0  0
   49.0027   31.0408   38.7707 H   0  0  0  0  0  0  0  0  0  0  0  0
   52.8486   31.6955   40.5725 H   0  0  0  0  0  0  0  0  0  0  0  0
   48.9968   30.8910   43.9544 H   0  0  0  0  0  0  0  0  0  0  0  0
   49.1004   28.6814   45.0498 H   0  0  0  0  0  0  0  0  0  0  0  0
   47.3484   28.0608   46.7255 H   0  0  0  0  0  0  0  0  0  0  0  0
   45.5593   29.6827   47.2479 H   0  0  0  0  0  0  0  0  0  0  0  0
   44.3690   31.8011   46.0456 H   0  0  0  0  0  0  0  0  0  0  0  0
   44.6241   34.8072   48.2579 H   0  0  0  0  0  0  0  0  0  0  0  0
   43.9192   34.3567   46.6821 H   0  0  0  0  0  0  0  0  0  0  0  0
  1  2  1  0
  2 12  1  0
  3  2  1  0
  4  3  1  0
  4  5  1  0
  5  1  1  0
  6  1  1  0
  7  6  2  0
  8  9  2  0
  8  7  1  0
  9 10  1  0
 10 11  2  0
 11  6  1  0
 12 13  2  0
 12 14  1  0
 14 19  1  0
 15 14  2  0
 15 16  1  0
 16 17  2  0
 17 18  1  0
 19 20  1  0
 19 18  2  0
 20 21  1  0
 21 23  1  0
 21 22  2  0
 22 24  1  0
  1 25  1  1
  2 26  1  6
  3 27  1  0
  3 28  1  0
  4 29  1  0
  4 30  1  0
  5 31  1  0
  5 32  1  0
  7 33  1  0
  8 34  1  0
 10 35  1  0
 15 36  1  0
 16 37  1  0
 17 38  1  0
 18 39  1  0
 20 40  1  0
 23 41  1  0
 23 42  1  0
M  ISO  8  25  13  26  13  27  13  28  13  29  13  30  13  31  13  32  13
M  ISO  7  33  14  34  14  35  14  36  14  37  14  38  14  39  14
M  END
>  <minimizedAffinity>  (1) 
-5.98659468

>  <minimizedRMSD>  (1) 
2.96333289

$$$$
