
     RDKit          3D

 19 20  0  0  0  0  0  0  0  0999 V2000
   44.5220   35.6400   45.2200 C   0  0  0  0  0  0  0  0  0  0  0  0
   45.0740   35.7590   43.9340 C   0  0  0  0  0  0  0  0  0  0  0  0
   45.9530   34.7740   43.4570 C   0  0  0  0  0  0  0  0  0  0  0  0
   46.2220   33.7350   44.2980 N   0  0  0  0  0  0  0  0  0  0  0  0
   45.6780   33.6490   45.5270 C   0  0  0  0  0  0  0  0  0  0  0  0
   44.8410   34.5720   46.0000 N   0  0  0  0  0  0  0  0  0  0  0  0
   44.7190   36.8740   43.1640 N   0  0  0  0  0  0  0  0  0  0  0  0
   46.0590   32.4520   46.3510 C   0  0  0  0  0  0  0  0  0  0  0  0
   47.0570   32.5540   47.4140 C   0  0  0  0  0  0  0  0  0  0  0  0
   45.5990   32.4650   47.8110 C   0  0  0  0  0  0  0  0  0  0  0  0
   43.8322   36.4098   45.5962 H   0  0  0  0  0  0  0  0  0  0  0  0
   46.4023   34.8372   42.4549 H   0  0  0  0  0  0  0  0  0  0  0  0
   45.1067   36.9904   42.2169 H   0  0  0  0  0  0  0  0  0  0  0  0
   44.0703   37.5775   43.5449 H   0  0  0  0  0  0  0  0  0  0  0  0
   45.9605   31.7822   45.4841 H   0  0  0  0  0  0  0  0  0  0  0  0
   47.7286   31.7060   47.6137 H   0  0  0  0  0  0  0  0  0  0  0  0
   47.8703   33.2604   47.6366 H   0  0  0  0  0  0  0  0  0  0  0  0
   45.0794   33.3424   48.2236 H   0  0  0  0  0  0  0  0  0  0  0  0
   44.9914   31.8139   48.4567 H   0  0  0  0  0  0  0  0  0  0  0  0
  1  6  2  0
  2  1  1  0
  3  2  2  0
  3  4  1  0
  4  5  2  0
  5  6  1  0
  5  8  1  0
  7  2  1  0
  8  9  1  0
  8 10  1  0
  9 10  1  0
  1 11  1  0
  3 12  1  0
  7 13  1  0
  7 14  1  0
  8 15  1  0
  9 16  1  0
  9 17  1  0
 10 18  1  0
 10 19  1  0
M  ISO  7  11  14  12  14  15  13  16  13  17  13  18  13  19  13
M  END
>  <minimizedAffinity>  (1) 
-3.93181038

>  <minimizedRMSD>  (1) 
0.404661328

$$$$
