
     RDKit          3D

 14 14  0  0  0  0  0  0  0  0999 V2000
   44.5610   35.5400   45.1090 C   0  0  0  0  0  0  0  0  0  0  0  0
   45.0970   35.7190   43.8050 C   0  0  0  0  0  0  0  0  0  0  0  0
   46.0730   34.8240   43.3590 C   0  0  0  0  0  0  0  0  0  0  0  0
   46.4490   33.8250   44.2160 N   0  0  0  0  0  0  0  0  0  0  0  0
   45.9210   33.6880   45.4340 C   0  0  0  0  0  0  0  0  0  0  0  0
   44.9900   34.5270   45.8840 N   0  0  0  0  0  0  0  0  0  0  0  0
   44.6340   36.7750   43.0270 N   0  0  0  0  0  0  0  0  0  0  0  0
   46.3610   32.6070   46.2980 C   0  0  0  0  0  0  0  0  0  0  0  0
   47.1400   32.7090   47.2630 O   0  0  0  0  0  0  0  0  0  0  0  0
   43.7931   36.2316   45.4859 H   0  0  0  0  0  0  0  0  0  0  0  0
   46.5214   34.9185   42.3590 H   0  0  0  0  0  0  0  0  0  0  0  0
   45.0108   36.9205   42.0795 H   0  0  0  0  0  0  0  0  0  0  0  0
   43.9144   37.4115   43.3984 H   0  0  0  0  0  0  0  0  0  0  0  0
   45.9686   31.6030   46.0787 H   0  0  0  0  0  0  0  0  0  0  0  0
  1  6  2  0
  2  1  1  0
  3  2  2  0
  3  4  1  0
  4  5  2  0
  5  6  1  0
  5  8  1  0
  7  2  1  0
  8  9  2  0
  1 10  1  0
  3 11  1  0
  7 12  1  0
  7 13  1  0
  8 14  1  0
M  ISO  3  10  14  11  14  14   6
M  END
>  <minimizedAffinity>  (1) 
-3.49164176

>  <minimizedRMSD>  (1) 
0.199763924

$$$$
