
     RDKit          3D

 15 15  0  0  0  0  0  0  0  0999 V2000
   44.5190   35.5590   45.1010 C   0  0  0  0  0  0  0  0  0  0  0  0
   45.0640   35.6880   43.8050 C   0  0  0  0  0  0  0  0  0  0  0  0
   46.0470   34.8080   43.3750 C   0  0  0  0  0  0  0  0  0  0  0  0
   46.4470   33.8420   44.2380 N   0  0  0  0  0  0  0  0  0  0  0  0
   45.9170   33.7340   45.4700 C   0  0  0  0  0  0  0  0  0  0  0  0
   44.9740   34.5630   45.9110 N   0  0  0  0  0  0  0  0  0  0  0  0
   44.5980   36.7080   42.9810 N   0  0  0  0  0  0  0  0  0  0  0  0
   46.3270   32.6870   46.4510 C   0  0  0  0  0  0  0  0  0  0  0  0
   43.7395   36.2517   45.4509 H   0  0  0  0  0  0  0  0  0  0  0  0
   46.4860   34.8912   42.3698 H   0  0  0  0  0  0  0  0  0  0  0  0
   44.9823   36.8195   42.0319 H   0  0  0  0  0  0  0  0  0  0  0  0
   43.8687   37.3515   43.3202 H   0  0  0  0  0  0  0  0  0  0  0  0
   46.1791   33.0646   47.4735 H   0  0  0  0  0  0  0  0  0  0  0  0
   45.7157   31.7848   46.3013 H   0  0  0  0  0  0  0  0  0  0  0  0
   47.3884   32.4398   46.3013 H   0  0  0  0  0  0  0  0  0  0  0  0
  1  6  2  0
  2  1  1  0
  3  2  2  0
  3  4  1  0
  4  5  2  0
  5  6  1  0
  5  8  1  0
  7  2  1  0
  1  9  1  0
  3 10  1  0
  7 11  1  0
  7 12  1  0
  8 13  1  0
  8 14  1  0
  8 15  1  0
M  ISO  5   9  14  10  14  13   8  14   8  15   8
M  END
>  <minimizedAffinity>  (1) 
-3.35070491

>  <minimizedRMSD>  (1) 
0.0854121596

$$$$
