
     RDKit          3D

 13 13  0  0  0  0  0  0  0  0999 V2000
   44.5520   35.5580   45.0770 C   0  0  0  0  0  0  0  0  0  0  0  0
   45.0890   35.7280   43.7840 C   0  0  0  0  0  0  0  0  0  0  0  0
   46.0780   34.8370   43.3320 C   0  0  0  0  0  0  0  0  0  0  0  0
   46.4540   33.8480   44.1990 N   0  0  0  0  0  0  0  0  0  0  0  0
   45.9290   33.7090   45.4200 C   0  0  0  0  0  0  0  0  0  0  0  0
   44.9870   34.5490   45.8660 N   0  0  0  0  0  0  0  0  0  0  0  0
   44.6220   36.7770   42.9930 N   0  0  0  0  0  0  0  0  0  0  0  0
   46.5000   32.3750   46.4670 S   0  0  0  0  0  0  0  0  0  0  0  0
   43.7777   36.2474   45.4447 H   0  0  0  0  0  0  0  0  0  0  0  0
   46.5267   34.9304   42.3320 H   0  0  0  0  0  0  0  0  0  0  0  0
   45.0024   36.9168   42.0461 H   0  0  0  0  0  0  0  0  0  0  0  0
   43.8967   37.4121   43.3556 H   0  0  0  0  0  0  0  0  0  0  0  0
   46.3483   32.7294   47.7817 H   0  0  0  0  0  0  0  0  0  0  0  0
  1  6  2  0
  2  1  1  0
  3  2  2  0
  3  4  1  0
  4  5  2  0
  5  6  1  0
  5  8  1  0
  7  2  1  0
  1  9  1  0
  3 10  1  0
  7 11  1  0
  7 12  1  0
  8 13  1  0
M  ISO  3   9  14  10  14  13  11
M  END
>  <minimizedAffinity>  (1) 
-3.34371114

>  <minimizedRMSD>  (1) 
0.0494304597

$$$$
