
     RDKit          3D

 47 50  0  0  1  0  0  0  0  0999 V2000
   48.5580   33.3330   41.6420 C   0  0  2  0  0  0  0  0  0  0  0  0
   47.7670   34.4080   41.1480 C   0  0  2  0  0  0  0  0  0  0  0  0
   48.4600   35.6620   41.7510 C   0  0  0  0  0  0  0  0  0  0  0  0
   49.8090   35.2880   42.2550 C   0  0  0  0  0  0  0  0  0  0  0  0
   49.5410   33.9250   42.7220 C   0  0  0  0  0  0  0  0  0  0  0  0
   49.4560   32.6120   40.7510 C   0  0  0  0  0  0  0  0  0  0  0  0
   49.0380   32.4370   39.4520 C   0  0  0  0  0  0  0  0  0  0  0  0
   49.7760   31.7570   38.4960 C   0  0  0  0  0  0  0  0  0  0  0  0
   50.9930   31.2710   38.9710 N   0  0  0  0  0  0  0  0  0  0  0  0
   51.4020   31.4430   40.2220 C   0  0  0  0  0  0  0  0  0  0  0  0
   50.6300   32.1040   41.0760 N   0  0  0  0  0  0  0  0  0  0  0  0
   46.3300   34.4200   41.5220 C   0  0  0  0  0  0  0  0  0  0  0  0
   45.4790   34.1130   40.7150 O   0  0  0  0  0  0  0  0  0  0  0  0
   45.7380   34.7660   42.7790 C   0  0  0  0  0  0  0  0  0  0  0  0
   45.2640   36.0550   43.0370 C   0  0  0  0  0  0  0  0  0  0  0  0
   44.7210   36.4680   44.2580 C   0  0  0  0  0  0  0  0  0  0  0  0
   44.6480   35.5410   45.2930 C   0  0  0  0  0  0  0  0  0  0  0  0
   45.1140   34.2350   45.0720 C   0  0  0  0  0  0  0  0  0  0  0  0
   45.6310   33.9070   43.8260 C   0  0  0  0  0  0  0  0  0  0  0  0
   45.7100   32.5020   43.9440 N   0  0  0  0  0  0  0  0  0  0  0  0
   45.5950   31.3430   43.0970 C   0  0  0  0  0  0  0  0  0  0  0  0
   47.0640   30.8590   43.1910 C   0  0  0  0  0  0  0  0  0  0  0  0
   47.5360   31.2610   44.5980 C   0  0  0  0  0  0  0  0  0  0  0  0
   46.1830   31.7650   45.1360 C   0  0  0  0  0  0  0  0  0  0  0  0
   47.7845   32.6146   41.9512 H   0  0  0  0  0  0  0  0  0  0  0  0
   47.7293   34.3419   40.0506 H   0  0  0  0  0  0  0  0  0  0  0  0
   48.5598   36.4349   40.9747 H   0  0  0  0  0  0  0  0  0  0  0  0
   47.8534   36.0529   42.5812 H   0  0  0  0  0  0  0  0  0  0  0  0
   50.5624   35.3036   41.4536 H   0  0  0  0  0  0  0  0  0  0  0  0
   50.2213   35.9650   43.0177 H   0  0  0  0  0  0  0  0  0  0  0  0
   49.0675   33.9387   43.7148 H   0  0  0  0  0  0  0  0  0  0  0  0
   50.4587   33.3280   42.8289 H   0  0  0  0  0  0  0  0  0  0  0  0
   48.0663   32.8593   39.1564 H   0  0  0  0  0  0  0  0  0  0  0  0
   49.4337   31.6143   37.4604 H   0  0  0  0  0  0  0  0  0  0  0  0
   52.3726   31.0412   40.5484 H   0  0  0  0  0  0  0  0  0  0  0  0
   45.3218   36.7948   42.2250 H   0  0  0  0  0  0  0  0  0  0  0  0
   44.3612   37.4983   44.3963 H   0  0  0  0  0  0  0  0  0  0  0  0
   44.2314   35.8270   46.2700 H   0  0  0  0  0  0  0  0  0  0  0  0
   45.0701   33.4833   45.8739 H   0  0  0  0  0  0  0  0  0  0  0  0
   45.3082   31.6059   42.0681 H   0  0  0  0  0  0  0  0  0  0  0  0
   44.8265   30.6102   43.3841 H   0  0  0  0  0  0  0  0  0  0  0  0
   47.1188   29.7678   43.0637 H   0  0  0  0  0  0  0  0  0  0  0  0
   47.6927   31.3037   42.4055 H   0  0  0  0  0  0  0  0  0  0  0  0
   47.9198   30.4037   45.1705 H   0  0  0  0  0  0  0  0  0  0  0  0
   48.3720   31.9745   44.6435 H   0  0  0  0  0  0  0  0  0  0  0  0
   46.3073   32.4268   46.0058 H   0  0  0  0  0  0  0  0  0  0  0  0
   45.5033   30.9827   45.5048 H   0  0  0  0  0  0  0  0  0  0  0  0
  1  5  1  0
  2 12  1  0
  2  1  1  0
  2  3  1  0
  3  4  1  0
  4  5  1  0
  6 11  1  0
  6  1  1  0
  7  6  2  0
  8  9  2  0
  8  7  1  0
  9 10  1  0
 10 11  2  0
 12 14  1  0
 13 12  2  0
 14 15  2  0
 14 19  1  0
 15 16  1  0
 16 17  2  0
 18 17  1  0
 19 20  1  0
 19 18  2  0
 20 24  1  0
 21 22  1  0
 21 20  1  0
 22 23  1  0
 23 24  1  0
  1 25  1  1
  2 26  1  6
  3 27  1  0
  3 28  1  0
  4 29  1  0
  4 30  1  0
  5 31  1  0
  5 32  1  0
  7 33  1  0
  8 34  1  0
 10 35  1  0
 15 36  1  0
 16 37  1  0
 17 38  1  0
 18 39  1  0
 21 40  1  0
 21 41  1  0
 22 42  1  0
 22 43  1  0
 23 44  1  0
 23 45  1  0
 24 46  1  0
 24 47  1  0
M  ISO  8  25  13  26  13  27  13  28  13  29  13  30  13  31  13  32  13
M  ISO  8  33  14  34  14  35  14  36  14  37  14  38  14  39  14  40  13
M  ISO  7  41  13  42  13  43  13  44  13  45  13  46  13  47  13
M  END
>  <minimizedAffinity>  (1) 
-5.9762826

>  <minimizedRMSD>  (1) 
2.7069211

$$$$
