
     RDKit          3D

 39 42  0  0  0  0  0  0  0  0999 V2000
   47.6730   31.5620   44.1770 C   0  0  0  0  0  0  0  0  0  0  0  0
   48.1070   30.3290   44.6930 C   0  0  0  0  0  0  0  0  0  0  0  0
   47.5920   30.1360   45.9050 N   0  0  0  0  0  0  0  0  0  0  0  0
   46.8160   31.1940   46.2460 C   0  0  0  0  0  0  0  0  0  0  0  0
   46.0720   31.5080   47.3680 C   0  0  0  0  0  0  0  0  0  0  0  0
   45.3740   32.7080   47.4300 C   0  0  0  0  0  0  0  0  0  0  0  0
   45.4130   33.6000   46.3770 C   0  0  0  0  0  0  0  0  0  0  0  0
   46.1780   33.2220   45.2820 C   0  0  0  0  0  0  0  0  0  0  0  0
   46.8760   32.0550   45.1830 C   0  0  0  0  0  0  0  0  0  0  0  0
   47.5170   32.2980   40.6100 C   0  0  0  0  0  0  0  0  0  0  0  0
   48.5550   33.2750   40.4810 C   0  0  0  0  0  0  0  0  0  0  0  0
   49.2850   33.6760   41.6150 C   0  0  0  0  0  0  0  0  0  0  0  0
   48.9550   33.0990   42.7920 N   0  0  0  0  0  0  0  0  0  0  0  0
   47.9650   32.1700   42.8970 C   0  0  0  0  0  0  0  0  0  0  0  0
   47.2830   31.7930   41.8500 N   0  0  0  0  0  0  0  0  0  0  0  0
   48.8250   33.8070   39.2350 N   0  0  0  0  0  0  0  0  0  0  0  0
   45.9450   34.3290   44.4350 N   0  0  0  0  0  0  0  0  0  0  0  0
   46.3680   34.7970   43.0900 C   0  0  0  0  0  0  0  0  0  0  0  0
   45.1540   34.5440   42.2140 C   0  0  0  0  0  0  0  0  0  0  0  0
   43.9850   35.0180   42.7800 O   0  0  0  0  0  0  0  0  0  0  0  0
   44.1530   35.8810   43.8460 C   0  0  0  0  0  0  0  0  0  0  0  0
   44.9530   35.2820   44.9890 C   0  0  0  0  0  0  0  0  0  0  0  0
   48.7742   29.6267   44.1719 H   0  0  0  0  0  0  0  0  0  0  0  0
   47.7579   29.3080   46.4947 H   0  0  0  0  0  0  0  0  0  0  0  0
   46.0324   30.8061   48.2140 H   0  0  0  0  0  0  0  0  0  0  0  0
   44.7846   32.9495   48.3268 H   0  0  0  0  0  0  0  0  0  0  0  0
   44.8690   34.5557   46.4041 H   0  0  0  0  0  0  0  0  0  0  0  0
   46.9312   31.9685   39.7392 H   0  0  0  0  0  0  0  0  0  0  0  0
   50.0877   34.4250   41.5469 H   0  0  0  0  0  0  0  0  0  0  0  0
   49.5689   34.5110   39.1258 H   0  0  0  0  0  0  0  0  0  0  0  0
   48.2824   33.4996   38.4152 H   0  0  0  0  0  0  0  0  0  0  0  0
   46.6195   35.8677   43.1098 H   0  0  0  0  0  0  0  0  0  0  0  0
   47.2679   34.2799   42.7257 H   0  0  0  0  0  0  0  0  0  0  0  0
   45.0543   33.4603   42.0537 H   0  0  0  0  0  0  0  0  0  0  0  0
   45.3080   35.0804   41.2661 H   0  0  0  0  0  0  0  0  0  0  0  0
   44.6768   36.7795   43.4876 H   0  0  0  0  0  0  0  0  0  0  0  0
   43.1511   36.1109   44.2375 H   0  0  0  0  0  0  0  0  0  0  0  0
   44.2760   34.7525   45.6755 H   0  0  0  0  0  0  0  0  0  0  0  0
   45.4715   36.0810   45.5392 H   0  0  0  0  0  0  0  0  0  0  0  0
  1  2  2  0
  1  9  1  0
  2  3  1  0
  3  4  1  0
  4  5  2  0
  5  6  1  0
  7  6  2  0
  8  7  1  0
  9  8  2  0
  9  4  1  0
 10 15  2  0
 11 10  1  0
 11 12  2  0
 12 13  1  0
 13 14  2  0
 14  1  1  0
 15 14  1  0
 16 11  1  0
 17 22  1  0
 17  8  1  0
 18 17  1  0
 19 20  1  0
 19 18  1  0
 20 21  1  0
 21 22  1  0
  2 23  1  0
  3 24  1  0
  5 25  1  0
  6 26  1  0
  7 27  1  0
 10 28  1  0
 12 29  1  0
 16 30  1  0
 16 31  1  0
 18 32  1  0
 18 33  1  0
 19 34  1  0
 19 35  1  0
 21 36  1  0
 21 37  1  0
 22 38  1  0
 22 39  1  0
M  ISO  8  23  14  24   9  25  14  26  14  27  14  28  14  29  14  32  13
M  ISO  7  33  13  34  13  35  13  36  13  37  13  38  13  39  13
M  END
>  <minimizedAffinity>  (1) 
-5.12155628

>  <minimizedRMSD>  (1) 
3.84337735

$$$$
