
     RDKit          3D

 29 31  0  0  0  0  0  0  0  0999 V2000
   46.5600   32.3330   45.3090 C   0  0  0  0  0  0  0  0  0  0  0  0
   47.3390   31.3060   44.7470 C   0  0  0  0  0  0  0  0  0  0  0  0
   47.3930   30.2650   45.5960 N   0  0  0  0  0  0  0  0  0  0  0  0
   46.6880   30.5420   46.7040 C   0  0  0  0  0  0  0  0  0  0  0  0
   46.3890   29.8510   47.8650 C   0  0  0  0  0  0  0  0  0  0  0  0
   45.6060   30.4090   48.8420 C   0  0  0  0  0  0  0  0  0  0  0  0
   45.0950   31.6730   48.7000 C   0  0  0  0  0  0  0  0  0  0  0  0
   45.3990   32.3580   47.5370 C   0  0  0  0  0  0  0  0  0  0  0  0
   46.1710   31.8260   46.5390 C   0  0  0  0  0  0  0  0  0  0  0  0
   44.6410   35.3850   44.7760 C   0  0  0  0  0  0  0  0  0  0  0  0
   45.2590   35.8890   43.5760 C   0  0  0  0  0  0  0  0  0  0  0  0
   46.3310   35.1840   42.9770 C   0  0  0  0  0  0  0  0  0  0  0  0
   46.7530   34.0240   43.5730 N   0  0  0  0  0  0  0  0  0  0  0  0
   46.1380   33.5800   44.7170 C   0  0  0  0  0  0  0  0  0  0  0  0
   45.1330   34.2270   45.2860 N   0  0  0  0  0  0  0  0  0  0  0  0
   44.7830   37.0720   43.0470 N   0  0  0  0  0  0  0  0  0  0  0  0
   44.8510   33.7360   47.6540 C   0  0  0  0  0  0  0  0  0  0  0  0
   47.8292   31.3480   43.7632 H   0  0  0  0  0  0  0  0  0  0  0  0
   47.9001   29.3855   45.4220 H   0  0  0  0  0  0  0  0  0  0  0  0
   46.7869   28.8353   48.0065 H   0  0  0  0  0  0  0  0  0  0  0  0
   45.3845   29.8341   49.7533 H   0  0  0  0  0  0  0  0  0  0  0  0
   44.4668   32.1257   49.4813 H   0  0  0  0  0  0  0  0  0  0  0  0
   43.8066   35.9155   45.2581 H   0  0  0  0  0  0  0  0  0  0  0  0
   46.8112   35.5564   42.0601 H   0  0  0  0  0  0  0  0  0  0  0  0
   45.2034   37.4589   42.1900 H   0  0  0  0  0  0  0  0  0  0  0  0
   44.0075   37.5677   43.5093 H   0  0  0  0  0  0  0  0  0  0  0  0
   44.7461   33.9999   48.7167 H   0  0  0  0  0  0  0  0  0  0  0  0
   45.5354   34.4454   47.1659 H   0  0  0  0  0  0  0  0  0  0  0  0
   43.8663   33.7817   47.1659 H   0  0  0  0  0  0  0  0  0  0  0  0
  1  9  1  0
  2  1  2  0
  2  3  1  0
  3  4  1  0
  4  5  2  0
  5  6  1  0
  7  6  2  0
  8 17  1  0
  8  7  1  0
  9  4  1  0
  9  8  2  0
 10 15  2  0
 11 10  1  0
 12 13  1  0
 12 11  2  0
 13 14  2  0
 14 15  1  0
 14  1  1  0
 16 11  1  0
  2 18  1  0
  3 19  1  0
  5 20  1  0
  6 21  1  0
  7 22  1  0
 10 23  1  0
 12 24  1  0
 16 25  1  0
 16 26  1  0
 17 27  1  0
 17 28  1  0
 17 29  1  0
M  ISO  8  18  14  19   9  20  14  21  14  22  14  23  14  24  14  27   8
M  ISO  2  28   8  29   8
M  END
>  <minimizedAffinity>  (1) 
-5.04930544

>  <minimizedRMSD>  (1) 
0.346979916

$$$$
