
     RDKit          3D

 33 36  0  0  0  0  0  0  0  0999 V2000
   46.3940   33.5770   44.5150 C   0  0  0  0  0  0  0  0  0  0  0  0
   45.6350   34.3660   45.4010 C   0  0  0  0  0  0  0  0  0  0  0  0
   45.3270   33.6460   46.4930 N   0  0  0  0  0  0  0  0  0  0  0  0
   45.8430   32.4020   46.3870 C   0  0  0  0  0  0  0  0  0  0  0  0
   45.8180   31.3040   47.2200 C   0  0  0  0  0  0  0  0  0  0  0  0
   46.4590   30.1320   46.8280 C   0  0  0  0  0  0  0  0  0  0  0  0
   47.1240   30.0580   45.6030 C   0  0  0  0  0  0  0  0  0  0  0  0
   47.1100   31.2010   44.8110 C   0  0  0  0  0  0  0  0  0  0  0  0
   46.4950   32.3680   45.1680 C   0  0  0  0  0  0  0  0  0  0  0  0
   48.9070   34.6670   42.1080 C   0  0  0  0  0  0  0  0  0  0  0  0
   48.1220   34.7360   40.9100 C   0  0  0  0  0  0  0  0  0  0  0  0
   46.7490   34.4010   40.9330 C   0  0  0  0  0  0  0  0  0  0  0  0
   46.2150   34.0140   42.1280 N   0  0  0  0  0  0  0  0  0  0  0  0
   46.9870   33.9580   43.2530 C   0  0  0  0  0  0  0  0  0  0  0  0
   48.2680   34.2730   43.2320 N   0  0  0  0  0  0  0  0  0  0  0  0
   48.7260   35.1380   39.7180 N   0  0  0  0  0  0  0  0  0  0  0  0
   47.7790   30.7860   43.6400 N   0  0  0  0  0  0  0  0  0  0  0  0
   49.1360   30.5630   43.7290 C   0  0  0  0  0  0  0  0  0  0  0  0
   49.5920   30.2260   42.4540 C   0  0  0  0  0  0  0  0  0  0  0  0
   48.5450   30.2470   41.6240 N   0  0  0  0  0  0  0  0  0  0  0  0
   47.4540   30.5790   42.3160 C   0  0  0  0  0  0  0  0  0  0  0  0
   45.3397   35.4111   45.2260 H   0  0  0  0  0  0  0  0  0  0  0  0
   44.7782   33.9917   47.2931 H   0  0  0  0  0  0  0  0  0  0  0  0
   45.2957   31.3534   48.1868 H   0  0  0  0  0  0  0  0  0  0  0  0
   46.4412   29.2545   47.4911 H   0  0  0  0  0  0  0  0  0  0  0  0
   47.6349   29.1392   45.2794 H   0  0  0  0  0  0  0  0  0  0  0  0
   49.9770   34.9223   42.1121 H   0  0  0  0  0  0  0  0  0  0  0  0
   46.1341   34.4503   40.0223 H   0  0  0  0  0  0  0  0  0  0  0  0
   49.7267   35.3815   39.7043 H   0  0  0  0  0  0  0  0  0  0  0  0
   48.1711   35.1912   38.8519 H   0  0  0  0  0  0  0  0  0  0  0  0
   49.7485   30.6372   44.6397 H   0  0  0  0  0  0  0  0  0  0  0  0
   50.6300   29.9855   42.1805 H   0  0  0  0  0  0  0  0  0  0  0  0
   46.4432   30.6738   41.8925 H   0  0  0  0  0  0  0  0  0  0  0  0
  1  9  1  0
  1  2  2  0
  2  3  1  0
  4  3  1  0
  4  5  2  0
  6  5  1  0
  7  6  2  0
  8  9  2  0
  8  7  1  0
  9  4  1  0
 10 15  2  0
 11 12  2  0
 11 10  1  0
 12 13  1  0
 13 14  2  0
 14  1  1  0
 15 14  1  0
 16 11  1  0
 17 18  1  0
 17  8  1  0
 19 18  2  0
 20 21  2  0
 20 19  1  0
 21 17  1  0
  2 22  1  0
  3 23  1  0
  5 24  1  0
  6 25  1  0
  7 26  1  0
 10 27  1  0
 12 28  1  0
 16 29  1  0
 16 30  1  0
 18 31  1  0
 19 32  1  0
 21 33  1  0
M  ISO  8  22  14  23   9  24  14  25  14  26  14  27  14  28  14  31  14
M  ISO  2  32  14  33  14
M  END
>  <minimizedAffinity>  (1) 
-4.91848707

>  <minimizedRMSD>  (1) 
4.93637228

$$$$
