
     RDKit          3D

 45 48  0  0  1  0  0  0  0  0999 V2000
   49.1480   33.3100   42.5500 C   0  0  2  0  0  0  0  0  0  0  0  0
   47.7560   33.5090   42.3480 C   0  0  2  0  0  0  0  0  0  0  0  0
   47.6470   35.0310   42.0500 C   0  0  0  0  0  0  0  0  0  0  0  0
   49.0060   35.5750   41.7590 C   0  0  0  0  0  0  0  0  0  0  0  0
   49.8230   34.7310   42.6370 C   0  0  0  0  0  0  0  0  0  0  0  0
   49.9460   32.6380   41.5280 C   0  0  0  0  0  0  0  0  0  0  0  0
   49.2820   32.2430   40.3810 C   0  0  0  0  0  0  0  0  0  0  0  0
   49.9300   31.5820   39.3460 C   0  0  0  0  0  0  0  0  0  0  0  0
   51.2860   31.3630   39.5650 N   0  0  0  0  0  0  0  0  0  0  0  0
   51.9210   31.7460   40.6640 C   0  0  0  0  0  0  0  0  0  0  0  0
   51.2370   32.3700   41.6140 N   0  0  0  0  0  0  0  0  0  0  0  0
   46.8560   33.1740   43.4830 C   0  0  0  0  0  0  0  0  0  0  0  0
   46.7080   33.9410   44.4050 O   0  0  0  0  0  0  0  0  0  0  0  0
   46.0720   31.9790   43.6660 C   0  0  0  0  0  0  0  0  0  0  0  0
   45.3290   31.4360   42.6170 C   0  0  0  0  0  0  0  0  0  0  0  0
   44.5380   30.2890   42.7490 C   0  0  0  0  0  0  0  0  0  0  0  0
   44.4740   29.6450   43.9750 C   0  0  0  0  0  0  0  0  0  0  0  0
   45.2080   30.1710   45.0370 C   0  0  0  0  0  0  0  0  0  0  0  0
   45.9820   31.3120   44.8490 C   0  0  0  0  0  0  0  0  0  0  0  0
   46.6210   31.4000   46.1110 N   0  0  0  0  0  0  0  0  0  0  0  0
   46.1650   32.0980   47.1760 C   0  0  0  0  0  0  0  0  0  0  0  0
   46.8360   31.9970   48.4050 C   0  0  0  0  0  0  0  0  0  0  0  0
   47.9550   31.1690   48.4550 C   0  0  0  0  0  0  0  0  0  0  0  0
   48.5600   31.0730   49.5540 O   0  0  0  0  0  0  0  0  0  0  0  0
   48.4030   30.4790   47.3920 N   0  0  0  0  0  0  0  0  0  0  0  0
   47.7300   30.6050   46.2320 C   0  0  0  0  0  0  0  0  0  0  0  0
   48.2250   29.9210   45.2900 O   0  0  0  0  0  0  0  0  0  0  0  0
   49.1537   32.6559   43.4344 H   0  0  0  0  0  0  0  0  0  0  0  0
   47.4175   32.8268   41.5542 H   0  0  0  0  0  0  0  0  0  0  0  0
   46.9937   35.1891   41.1793 H   0  0  0  0  0  0  0  0  0  0  0  0
   47.2222   35.5480   42.9231 H   0  0  0  0  0  0  0  0  0  0  0  0
   49.2782   35.4444   40.7012 H   0  0  0  0  0  0  0  0  0  0  0  0
   49.1143   36.6561   41.9305 H   0  0  0  0  0  0  0  0  0  0  0  0
   49.8032   35.1092   43.6698 H   0  0  0  0  0  0  0  0  0  0  0  0
   50.8810   34.7126   42.3366 H   0  0  0  0  0  0  0  0  0  0  0  0
   48.2076   32.4591   40.2857 H   0  0  0  0  0  0  0  0  0  0  0  0
   49.4142   31.2587   38.4298 H   0  0  0  0  0  0  0  0  0  0  0  0
   52.9965   31.5497   40.7860 H   0  0  0  0  0  0  0  0  0  0  0  0
   45.3669   31.9345   41.6372 H   0  0  0  0  0  0  0  0  0  0  0  0
   43.9726   29.9022   41.8883 H   0  0  0  0  0  0  0  0  0  0  0  0
   43.8597   28.7420   44.1064 H   0  0  0  0  0  0  0  0  0  0  0  0
   45.1754   29.6844   46.0230 H   0  0  0  0  0  0  0  0  0  0  0  0
   45.2763   32.7391   47.0800 H   0  0  0  0  0  0  0  0  0  0  0  0
   46.4922   32.5491   49.2921 H   0  0  0  0  0  0  0  0  0  0  0  0
   49.2335   29.8739   47.4621 H   0  0  0  0  0  0  0  0  0  0  0  0
  1  5  1  0
  2  1  1  0
  2 12  1  0
  3  2  1  0
  4  3  1  0
  4  5  1  0
  6 11  1  0
  6  1  1  0
  7  6  2  0
  8  9  2  0
  8  7  1  0
  9 10  1  0
 10 11  2  0
 12 14  1  0
 12 13  2  0
 14 19  2  0
 15 16  2  0
 15 14  1  0
 16 17  1  0
 17 18  2  0
 19 18  1  0
 19 20  1  0
 20 26  1  0
 20 21  1  0
 21 22  2  0
 22 23  1  0
 23 24  2  0
 25 23  1  0
 26 25  1  0
 27 26  2  0
  1 28  1  1
  2 29  1  6
  3 30  1  0
  3 31  1  0
  4 32  1  0
  4 33  1  0
  5 34  1  0
  5 35  1  0
  7 36  1  0
  8 37  1  0
 10 38  1  0
 15 39  1  0
 16 40  1  0
 17 41  1  0
 18 42  1  0
 21 43  1  0
 22 44  1  0
 25 45  1  0
M  ISO  8  28  13  29  13  30  13  31  13  32  13  33  13  34  13  35  13
M  ISO  8  36  14  37  14  38  14  39  14  40  14  41  14  42  14  43  14
M  ISO  2  44  14  45   9
M  END
>  <minimizedAffinity>  (1) 
-5.61566544

>  <minimizedRMSD>  (1) 
3.79477477

$$$$
