
     RDKit          3D

 43 47  0  0  0  0  0  0  0  0999 V2000
   45.5360   34.8890   43.7540 C   0  0  0  0  0  0  0  0  0  0  0  0
   44.8330   36.0330   44.2000 C   0  0  0  0  0  0  0  0  0  0  0  0
   44.4720   35.8490   45.4820 N   0  0  0  0  0  0  0  0  0  0  0  0
   44.8980   34.6470   45.9110 C   0  0  0  0  0  0  0  0  0  0  0  0
   44.8040   34.0040   47.1270 C   0  0  0  0  0  0  0  0  0  0  0  0
   45.3790   32.7340   47.2890 C   0  0  0  0  0  0  0  0  0  0  0  0
   46.0400   32.1310   46.2140 C   0  0  0  0  0  0  0  0  0  0  0  0
   46.1010   32.8150   45.0200 C   0  0  0  0  0  0  0  0  0  0  0  0
   45.5520   34.0520   44.8500 C   0  0  0  0  0  0  0  0  0  0  0  0
   46.7700   31.9370   44.1460 N   0  0  0  0  0  0  0  0  0  0  0  0
   48.0760   32.1950   43.8710 C   0  0  0  0  0  0  0  0  0  0  0  0
   48.4940   31.1890   42.9770 C   0  0  0  0  0  0  0  0  0  0  0  0
   47.4660   30.3740   42.7430 N   0  0  0  0  0  0  0  0  0  0  0  0
   46.4030   30.8030   43.4390 C   0  0  0  0  0  0  0  0  0  0  0  0
   45.1540   30.1720   43.4280 N   0  0  0  0  0  0  0  0  0  0  0  0
   45.1480   28.8380   43.7420 C   0  0  0  0  0  0  0  0  0  0  0  0
   44.0440   28.0380   43.7940 C   0  0  0  0  0  0  0  0  0  0  0  0
   42.8120   28.5770   43.5140 C   0  0  0  0  0  0  0  0  0  0  0  0
   41.7310   27.9470   43.5280 O   0  0  0  0  0  0  0  0  0  0  0  0
   42.8020   29.8840   43.2050 N   0  0  0  0  0  0  0  0  0  0  0  0
   43.9300   30.6050   43.1750 C   0  0  0  0  0  0  0  0  0  0  0  0
   43.8140   31.8150   42.8760 O   0  0  0  0  0  0  0  0  0  0  0  0
   45.8370   33.7790   40.2940 C   0  0  0  0  0  0  0  0  0  0  0  0
   47.1560   34.2020   39.9820 C   0  0  0  0  0  0  0  0  0  0  0  0
   47.9350   34.8640   40.9370 C   0  0  0  0  0  0  0  0  0  0  0  0
   47.3900   35.0930   42.1780 N   0  0  0  0  0  0  0  0  0  0  0  0
   46.1340   34.6820   42.4500 C   0  0  0  0  0  0  0  0  0  0  0  0
   45.3960   34.0510   41.5380 N   0  0  0  0  0  0  0  0  0  0  0  0
   47.6910   33.9600   38.7150 N   0  0  0  0  0  0  0  0  0  0  0  0
   44.6171   36.9269   43.5965 H   0  0  0  0  0  0  0  0  0  0  0  0
   43.9469   36.5279   46.0515 H   0  0  0  0  0  0  0  0  0  0  0  0
   44.2805   34.4844   47.9667 H   0  0  0  0  0  0  0  0  0  0  0  0
   45.3101   32.2154   48.2567 H   0  0  0  0  0  0  0  0  0  0  0  0
   46.4990   31.1369   46.3193 H   0  0  0  0  0  0  0  0  0  0  0  0
   48.6839   33.0221   44.2665 H   0  0  0  0  0  0  0  0  0  0  0  0
   49.5008   31.0926   42.5445 H   0  0  0  0  0  0  0  0  0  0  0  0
   46.1174   28.3718   43.9721 H   0  0  0  0  0  0  0  0  0  0  0  0
   44.1394   26.9742   44.0570 H   0  0  0  0  0  0  0  0  0  0  0  0
   41.9060   30.3424   42.9860 H   0  0  0  0  0  0  0  0  0  0  0  0
   45.2078   33.2564   39.5585 H   0  0  0  0  0  0  0  0  0  0  0  0
   48.9577   35.1929   40.7008 H   0  0  0  0  0  0  0  0  0  0  0  0
   48.6482   34.2685   38.4927 H   0  0  0  0  0  0  0  0  0  0  0  0
   47.1284   33.4730   38.0028 H   0  0  0  0  0  0  0  0  0  0  0  0
  1  2  2  0
  1  9  1  0
  2  3  1  0
  3  4  1  0
  4  5  2  0
  5  6  1  0
  7  6  2  0
  8  7  1  0
  9  8  2  0
  9  4  1  0
 10  8  1  0
 11 10  1  0
 12 11  2  0
 13 12  1  0
 13 14  2  0
 14 10  1  0
 15 14  1  0
 15 16  1  0
 16 17  2  0
 18 19  2  0
 18 17  1  0
 20 18  1  0
 21 20  1  0
 21 15  1  0
 22 21  2  0
 23 28  2  0
 24 23  1  0
 24 25  2  0
 25 26  1  0
 26 27  2  0
 27  1  1  0
 28 27  1  0
 29 24  1  0
  2 30  1  0
  3 31  1  0
  5 32  1  0
  6 33  1  0
  7 34  1  0
 11 35  1  0
 12 36  1  0
 16 37  1  0
 17 38  1  0
 20 39  1  0
 23 40  1  0
 25 41  1  0
 29 42  1  0
 29 43  1  0
M  ISO  8  30  14  31   9  32  14  33  14  34  14  35  14  36  14  37  14
M  ISO  4  38  14  39   9  40  14  41  14
M  END
>  <minimizedAffinity>  (1) 
-5.95554447

>  <minimizedRMSD>  (1) 
2.47181749

$$$$
