
     RDKit          3D

 43 48  0  0  1  0  0  0  0  0999 V2000
   45.3450   34.6020   44.2610 C   0  0  0  0  0  0  0  0  0  0  0  0
   44.7180   35.7260   44.8360 C   0  0  0  0  0  0  0  0  0  0  0  0
   44.4830   35.4990   46.1350 N   0  0  0  0  0  0  0  0  0  0  0  0
   44.9240   34.2690   46.4700 C   0  0  0  0  0  0  0  0  0  0  0  0
   44.9350   33.5730   47.6570 C   0  0  0  0  0  0  0  0  0  0  0  0
   45.4910   32.2870   47.7000 C   0  0  0  0  0  0  0  0  0  0  0  0
   46.0230   31.7210   46.5480 C   0  0  0  0  0  0  0  0  0  0  0  0
   45.9890   32.4540   45.3710 C   0  0  0  0  0  0  0  0  0  0  0  0
   45.4470   33.7260   45.3190 C   0  0  0  0  0  0  0  0  0  0  0  0
   47.6080   34.6920   41.4120 C   0  0  0  0  0  0  0  0  0  0  0  0
   46.7710   34.2090   40.3650 C   0  0  0  0  0  0  0  0  0  0  0  0
   45.4400   33.8450   40.6420 C   0  0  0  0  0  0  0  0  0  0  0  0
   44.9860   33.9730   41.9330 N   0  0  0  0  0  0  0  0  0  0  0  0
   45.8020   34.4340   42.9030 C   0  0  0  0  0  0  0  0  0  0  0  0
   47.0630   34.7780   42.6430 N   0  0  0  0  0  0  0  0  0  0  0  0
   47.2610   34.0910   39.0650 N   0  0  0  0  0  0  0  0  0  0  0  0
   46.5540   31.6050   44.4150 N   0  0  0  0  0  0  0  0  0  0  0  0
   47.8380   31.8080   44.0410 C   0  0  0  0  0  0  0  0  0  0  0  0
   48.1790   30.8930   43.0680 C   0  0  0  0  0  0  0  0  0  0  0  0
   47.0840   30.1300   42.8580 N   0  0  0  0  0  0  0  0  0  0  0  0
   46.0920   30.5560   43.6750 C   0  0  0  0  0  0  0  0  0  0  0  0
   45.0470   29.7880   43.3830 C   0  0  0  0  0  0  0  0  0  0  0  0
   44.1480   30.8370   42.8460 C   0  0  0  0  0  0  0  0  0  0  0  0
   42.8320   30.9050   42.3040 C   0  0  0  0  0  0  0  0  0  0  0  0
   42.1660   29.7210   42.2330 N   0  0  0  0  0  0  0  0  0  0  0  0
   42.9090   28.6750   42.7070 C   0  0  0  0  0  0  0  0  0  0  0  0
   44.0130   29.0260   43.0930 N   0  0  0  0  0  0  0  0  0  0  0  0
   44.4604   36.6506   44.2986 H   0  0  0  0  0  0  0  0  0  0  0  0
   44.0333   36.1635   46.7808 H   0  0  0  0  0  0  0  0  0  0  0  0
   44.5101   34.0230   48.5664 H   0  0  0  0  0  0  0  0  0  0  0  0
   45.5061   31.7258   48.6460 H   0  0  0  0  0  0  0  0  0  0  0  0
   46.4620   30.7126   46.5690 H   0  0  0  0  0  0  0  0  0  0  0  0
   48.6525   34.9820   41.2248 H   0  0  0  0  0  0  0  0  0  0  0  0
   44.7805   33.4681   39.8464 H   0  0  0  0  0  0  0  0  0  0  0  0
   48.2341   34.3556   38.8554 H   0  0  0  0  0  0  0  0  0  0  0  0
   46.6499   33.7392   38.3142 H   0  0  0  0  0  0  0  0  0  0  0  0
   48.5051   32.5816   44.4491 H   0  0  0  0  0  0  0  0  0  0  0  0
   49.1515   30.8020   42.5620 H   0  0  0  0  0  0  0  0  0  0  0  0
   44.6413   29.9566   44.3915 H   0  0  0  0  0  0  0  0  0  0  0  0
   43.7414   31.0048   43.8542 H   0  0  0  0  0  0  0  0  0  0  0  0
   42.2418   31.5887   42.9319 H   0  0  0  0  0  0  0  0  0  0  0  0
   42.9505   31.2476   41.2655 H   0  0  0  0  0  0  0  0  0  0  0  0
   42.5522   27.6349   42.7371 H   0  0  0  0  0  0  0  0  0  0  0  0
  1  2  2  0
  1  9  1  0
  2  3  1  0
  3  4  1  0
  4  5  2  0
  5  6  1  0
  7  6  2  0
  8  7  1  0
  9  8  2  0
  9  4  1  0
 10 15  2  0
 11 12  2  0
 11 10  1  0
 12 13  1  0
 13 14  2  0
 14  1  1  0
 15 14  1  0
 16 11  1  0
 17  8  1  0
 18 17  1  0
 19 18  2  0
 20 19  1  0
 20 21  2  0
 21 17  1  0
 22 21  1  0
 23 24  1  0
 23 27  1  0
 23 22  1  0
 25 24  1  0
 25 26  2  0
 26 27  1  0
 27 22  1  0
  2 28  1  0
  3 29  1  0
  5 30  1  0
  6 31  1  0
  7 32  1  0
 10 33  1  0
 12 34  1  0
 16 35  1  0
 16 36  1  0
 18 37  1  0
 19 38  1  0
 22 39  1  0
 23 40  1  0
 24 41  1  0
 24 42  1  0
 26 43  1  0
M  ISO  8  28  14  29   9  30  14  31  14  32  14  33  14  34  14  37  14
M  ISO  6  38  14  39  13  40  13  41  13  42  13  43  13
M  END
>  <minimizedAffinity>  (1) 
-5.60263777

>  <minimizedRMSD>  (1) 
2.24879575

$$$$
