
     RDKit          3D

 47 51  0  0  0  0  0  0  0  0999 V2000
   45.6290   33.7880   44.7350 C   0  0  0  0  0  0  0  0  0  0  0  0
   44.9820   34.7760   45.5090 C   0  0  0  0  0  0  0  0  0  0  0  0
   44.8360   34.3200   46.7650 N   0  0  0  0  0  0  0  0  0  0  0  0
   45.3510   33.0810   46.8650 C   0  0  0  0  0  0  0  0  0  0  0  0
   45.4610   32.2030   47.9200 C   0  0  0  0  0  0  0  0  0  0  0  0
   46.0670   30.9650   47.7340 C   0  0  0  0  0  0  0  0  0  0  0  0
   46.5650   30.6140   46.4610 C   0  0  0  0  0  0  0  0  0  0  0  0
   46.4300   31.5300   45.4340 C   0  0  0  0  0  0  0  0  0  0  0  0
   45.8370   32.7510   45.6180 C   0  0  0  0  0  0  0  0  0  0  0  0
   46.9800   30.8930   44.3180 N   0  0  0  0  0  0  0  0  0  0  0  0
   48.2450   31.2220   43.9370 C   0  0  0  0  0  0  0  0  0  0  0  0
   48.5540   30.4660   42.8000 C   0  0  0  0  0  0  0  0  0  0  0  0
   47.4820   29.6980   42.5180 N   0  0  0  0  0  0  0  0  0  0  0  0
   46.5540   29.9520   43.4210 C   0  0  0  0  0  0  0  0  0  0  0  0
   45.3430   29.2340   43.4130 N   0  0  0  0  0  0  0  0  0  0  0  0
   44.7390   29.1450   42.0920 C   0  0  0  0  0  0  0  0  0  0  0  0
   43.6550   30.2370   42.1070 C   0  0  0  0  0  0  0  0  0  0  0  0
   42.9710   30.2200   43.3560 N   0  0  0  0  0  0  0  0  0  0  0  0
   43.0380   28.9800   44.0620 C   0  0  0  0  0  0  0  0  0  0  0  0
   44.4740   28.5670   44.3640 C   0  0  0  0  0  0  0  0  0  0  0  0
   47.5680   34.7390   41.7960 C   0  0  0  0  0  0  0  0  0  0  0  0
   46.8140   34.1370   40.7520 C   0  0  0  0  0  0  0  0  0  0  0  0
   45.6560   33.4090   41.0550 C   0  0  0  0  0  0  0  0  0  0  0  0
   45.3000   33.3100   42.3650 N   0  0  0  0  0  0  0  0  0  0  0  0
   46.0170   33.8800   43.3480 C   0  0  0  0  0  0  0  0  0  0  0  0
   47.1140   34.5710   43.0570 N   0  0  0  0  0  0  0  0  0  0  0  0
   47.2330   34.2760   39.4280 N   0  0  0  0  0  0  0  0  0  0  0  0
   44.6511   35.7593   45.1434 H   0  0  0  0  0  0  0  0  0  0  0  0
   44.3954   34.8415   47.5362 H   0  0  0  0  0  0  0  0  0  0  0  0
   45.0696   32.4807   48.9098 H   0  0  0  0  0  0  0  0  0  0  0  0
   46.1577   30.2624   48.5755 H   0  0  0  0  0  0  0  0  0  0  0  0
   47.0467   29.6398   46.2907 H   0  0  0  0  0  0  0  0  0  0  0  0
   48.9045   31.9497   44.4326 H   0  0  0  0  0  0  0  0  0  0  0  0
   49.4995   30.4934   42.2386 H   0  0  0  0  0  0  0  0  0  0  0  0
   44.2926   28.1525   41.9317 H   0  0  0  0  0  0  0  0  0  0  0  0
   45.4694   29.2831   41.2812 H   0  0  0  0  0  0  0  0  0  0  0  0
   44.1254   31.2206   41.9615 H   0  0  0  0  0  0  0  0  0  0  0  0
   42.9362   30.0466   41.2964 H   0  0  0  0  0  0  0  0  0  0  0  0
   43.3801   30.9515   43.9547 H   0  0  0  0  0  0  0  0  0  0  0  0
   42.4917   29.0827   45.0112 H   0  0  0  0  0  0  0  0  0  0  0  0
   42.5899   28.2035   43.4246 H   0  0  0  0  0  0  0  0  0  0  0  0
   44.5777   27.4766   44.2630 H   0  0  0  0  0  0  0  0  0  0  0  0
   44.7444   28.8503   45.3919 H   0  0  0  0  0  0  0  0  0  0  0  0
   48.4807   35.3160   41.5862 H   0  0  0  0  0  0  0  0  0  0  0  0
   45.0568   32.9350   40.2636 H   0  0  0  0  0  0  0  0  0  0  0  0
   48.0852   34.8124   39.2111 H   0  0  0  0  0  0  0  0  0  0  0  0
   46.6901   33.8422   38.6678 H   0  0  0  0  0  0  0  0  0  0  0  0
  1  2  2  0
  1  9  1  0
  2  3  1  0
  3  4  1  0
  4  5  2  0
  6  5  1  0
  7  6  2  0
  8  9  2  0
  8  7  1  0
  9  4  1  0
 10  8  1  0
 11 10  1  0
 12 11  2  0
 13 12  1  0
 13 14  2  0
 14 10  1  0
 15 14  1  0
 15 20  1  0
 16 17  1  0
 16 15  1  0
 17 18  1  0
 18 19  1  0
 19 20  1  0
 21 26  2  0
 22 23  2  0
 22 21  1  0
 23 24  1  0
 24 25  2  0
 25  1  1  0
 26 25  1  0
 27 22  1  0
  2 28  1  0
  3 29  1  0
  5 30  1  0
  6 31  1  0
  7 32  1  0
 11 33  1  0
 12 34  1  0
 16 35  1  0
 16 36  1  0
 17 37  1  0
 17 38  1  0
 18 39  1  0
 19 40  1  0
 19 41  1  0
 20 42  1  0
 20 43  1  0
 21 44  1  0
 23 45  1  0
 27 46  1  0
 27 47  1  0
M  ISO  8  28  14  29   9  30  14  31  14  32  14  33  14  34  14  35  13
M  ISO  8  36  13  37  13  38  13  39   5  40  13  41  13  42  13  43  13
M  ISO  2  44  14  45  14
M  END
>  <minimizedAffinity>  (1) 
-5.47591734

>  <minimizedRMSD>  (1) 
1.79716074

$$$$
