
     RDKit          3D

 49 53  0  0  1  0  0  0  0  0999 V2000
   46.7570   33.9040   43.6270 C   0  0  0  0  0  0  0  0  0  0  0  0
   45.9150   34.7440   43.8430 O   0  0  0  0  0  0  0  0  0  0  0  0
   49.0350   33.7450   42.6630 C   0  0  2  0  0  0  0  0  0  0  0  0
   47.6580   34.0140   42.4520 C   0  0  2  0  0  0  0  0  0  0  0  0
   47.6420   35.4770   41.9340 C   0  0  0  0  0  0  0  0  0  0  0  0
   49.0290   35.8800   41.5580 C   0  0  0  0  0  0  0  0  0  0  0  0
   49.8040   35.1120   42.5370 C   0  0  0  0  0  0  0  0  0  0  0  0
   49.7630   32.8810   41.7370 C   0  0  0  0  0  0  0  0  0  0  0  0
   49.0590   32.3870   40.6570 C   0  0  0  0  0  0  0  0  0  0  0  0
   49.6320   31.5430   39.7180 C   0  0  0  0  0  0  0  0  0  0  0  0
   50.9730   31.2440   39.9580 N   0  0  0  0  0  0  0  0  0  0  0  0
   51.6460   31.7240   40.9960 C   0  0  0  0  0  0  0  0  0  0  0  0
   51.0320   32.5260   41.8570 N   0  0  0  0  0  0  0  0  0  0  0  0
   46.7320   32.8700   44.6300 C   0  0  0  0  0  0  0  0  0  0  0  0
   46.8380   33.1770   45.9890 C   0  0  0  0  0  0  0  0  0  0  0  0
   46.8340   32.2080   46.9960 C   0  0  0  0  0  0  0  0  0  0  0  0
   46.7200   30.8720   46.6380 C   0  0  0  0  0  0  0  0  0  0  0  0
   46.6110   30.5380   45.2940 C   0  0  0  0  0  0  0  0  0  0  0  0
   46.6190   31.5450   44.3340 C   0  0  0  0  0  0  0  0  0  0  0  0
   46.3590   30.7820   43.1240 C   0  0  0  0  0  0  0  0  0  0  0  0
   47.3910   29.9840   42.7080 N   0  0  0  0  0  0  0  0  0  0  0  0
   47.2720   29.3220   41.5260 C   0  0  0  0  0  0  0  0  0  0  0  0
   46.1650   29.4370   40.7680 N   0  0  0  0  0  0  0  0  0  0  0  0
   45.1120   30.2110   41.1320 C   0  0  0  0  0  0  0  0  0  0  0  0
   43.9880   30.3100   40.3590 C   0  0  0  0  0  0  0  0  0  0  0  0
   42.9560   31.1080   40.8060 C   0  0  0  0  0  0  0  0  0  0  0  0
   43.0720   31.7830   42.0080 C   0  0  0  0  0  0  0  0  0  0  0  0
   44.1940   31.6980   42.8040 C   0  0  0  0  0  0  0  0  0  0  0  0
   45.2150   30.9010   42.3470 C   0  0  0  0  0  0  0  0  0  0  0  0
   49.0165   33.2215   43.6303 H   0  0  0  0  0  0  0  0  0  0  0  0
   47.2599   33.2492   41.7689 H   0  0  0  0  0  0  0  0  0  0  0  0
   46.9867   35.5483   41.0534 H   0  0  0  0  0  0  0  0  0  0  0  0
   47.2645   36.1441   42.7229 H   0  0  0  0  0  0  0  0  0  0  0  0
   49.2720   35.5856   40.5264 H   0  0  0  0  0  0  0  0  0  0  0  0
   49.2126   36.9644   41.5765 H   0  0  0  0  0  0  0  0  0  0  0  0
   50.8310   34.9488   42.1782 H   0  0  0  0  0  0  0  0  0  0  0  0
   49.8925   35.6327   43.5019 H   0  0  0  0  0  0  0  0  0  0  0  0
   48.0038   32.6738   40.5370 H   0  0  0  0  0  0  0  0  0  0  0  0
   49.0763   31.1432   38.8570 H   0  0  0  0  0  0  0  0  0  0  0  0
   52.7037   31.4595   41.1416 H   0  0  0  0  0  0  0  0  0  0  0  0
   46.9291   34.2337   46.2807 H   0  0  0  0  0  0  0  0  0  0  0  0
   46.9197   32.4990   48.0534 H   0  0  0  0  0  0  0  0  0  0  0  0
   46.7160   30.0873   47.4089 H   0  0  0  0  0  0  0  0  0  0  0  0
   46.5190   29.4846   44.9908 H   0  0  0  0  0  0  0  0  0  0  0  0
   48.0964   28.6799   41.1824 H   0  0  0  0  0  0  0  0  0  0  0  0
   43.9093   29.7672   39.4055 H   0  0  0  0  0  0  0  0  0  0  0  0
   42.0394   31.2080   40.2061 H   0  0  0  0  0  0  0  0  0  0  0  0
   42.2346   32.4132   42.3421 H   0  0  0  0  0  0  0  0  0  0  0  0
   44.2681   32.2413   43.7576 H   0  0  0  0  0  0  0  0  0  0  0  0
  1  2  2  0
  1 14  1  0
  4  3  1  0
  4  1  1  0
  5  4  1  0
  6  5  1  0
  6  7  1  0
  7  3  1  0
  8 13  1  0
  8  3  1  0
  9  8  2  0
 10 11  2  0
 10  9  1  0
 11 12  1  0
 12 13  2  0
 14 15  2  0
 15 16  1  0
 17 16  2  0
 18 17  1  0
 19 14  1  0
 19 18  2  0
 20 19  1  0
 21 20  2  0
 22 21  1  0
 23 24  1  0
 23 22  2  0
 24 29  2  0
 25 26  2  0
 25 24  1  0
 26 27  1  0
 27 28  2  0
 29 28  1  0
 29 20  1  0
  3 30  1  1
  4 31  1  6
  5 32  1  0
  5 33  1  0
  6 34  1  0
  6 35  1  0
  7 36  1  0
  7 37  1  0
  9 38  1  0
 10 39  1  0
 12 40  1  0
 15 41  1  0
 16 42  1  0
 17 43  1  0
 18 44  1  0
 22 45  1  0
 25 46  1  0
 26 47  1  0
 27 48  1  0
 28 49  1  0
M  ISO  8  30  13  31  13  32  13  33  13  34  13  35  13  36  13  37  13
M  ISO  8  38  14  39  14  40  14  41  14  42  14  43  14  44  14  45  14
M  ISO  4  46  14  47  14  48  14  49  14
M  END
>  <minimizedAffinity>  (1) 
-5.60063171

>  <minimizedRMSD>  (1) 
1.02122462

$$$$
