
     RDKit          3D

 49 53  0  0  0  0  0  0  0  0999 V2000
   45.4360   33.7200   45.3650 C   0  0  0  0  0  0  0  0  0  0  0  0
   44.8080   34.6760   46.1980 C   0  0  0  0  0  0  0  0  0  0  0  0
   44.6380   34.1510   47.4230 N   0  0  0  0  0  0  0  0  0  0  0  0
   45.1180   32.8910   47.4550 C   0  0  0  0  0  0  0  0  0  0  0  0
   45.1920   31.9560   48.4530 C   0  0  0  0  0  0  0  0  0  0  0  0
   45.7730   30.7120   48.1810 C   0  0  0  0  0  0  0  0  0  0  0  0
   46.2670   30.4250   46.9150 C   0  0  0  0  0  0  0  0  0  0  0  0
   46.1630   31.4090   45.9530 C   0  0  0  0  0  0  0  0  0  0  0  0
   45.6080   32.6240   46.1900 C   0  0  0  0  0  0  0  0  0  0  0  0
   47.6440   34.2140   42.5150 C   0  0  0  0  0  0  0  0  0  0  0  0
   46.7200   34.2310   41.4350 C   0  0  0  0  0  0  0  0  0  0  0  0
   45.3520   34.0670   41.6850 C   0  0  0  0  0  0  0  0  0  0  0  0
   44.9360   33.8930   42.9840 N   0  0  0  0  0  0  0  0  0  0  0  0
   45.8330   33.8790   43.9910 C   0  0  0  0  0  0  0  0  0  0  0  0
   47.1340   34.0360   43.7500 N   0  0  0  0  0  0  0  0  0  0  0  0
   47.1840   34.4120   40.1350 N   0  0  0  0  0  0  0  0  0  0  0  0
   46.7240   30.8210   44.7900 N   0  0  0  0  0  0  0  0  0  0  0  0
   48.0820   30.6600   44.7460 C   0  0  0  0  0  0  0  0  0  0  0  0
   48.3370   30.0630   43.4930 C   0  0  0  0  0  0  0  0  0  0  0  0
   47.1730   29.8820   42.8350 N   0  0  0  0  0  0  0  0  0  0  0  0
   46.1940   30.3320   43.6000 C   0  0  0  0  0  0  0  0  0  0  0  0
   44.7150   30.3550   43.3570 C   0  0  0  0  0  0  0  0  0  0  0  0
   44.3850   30.3810   41.9080 C   0  0  0  0  0  0  0  0  0  0  0  0
   43.9660   29.0380   41.3610 C   0  0  0  0  0  0  0  0  0  0  0  0
   42.7570   28.4810   42.0780 C   0  0  0  0  0  0  0  0  0  0  0  0
   42.6980   28.9250   43.5190 C   0  0  0  0  0  0  0  0  0  0  0  0
   44.0950   29.0870   44.0040 C   0  0  0  0  0  0  0  0  0  0  0  0
   44.5067   35.6885   45.8913 H   0  0  0  0  0  0  0  0  0  0  0  0
   44.2050   34.6388   48.2201 H   0  0  0  0  0  0  0  0  0  0  0  0
   44.7997   32.1799   49.4560 H   0  0  0  0  0  0  0  0  0  0  0  0
   45.8389   29.9552   48.9766 H   0  0  0  0  0  0  0  0  0  0  0  0
   46.7238   29.4504   46.6878 H   0  0  0  0  0  0  0  0  0  0  0  0
   48.7243   34.3402   42.3507 H   0  0  0  0  0  0  0  0  0  0  0  0
   44.6252   34.0772   40.8593 H   0  0  0  0  0  0  0  0  0  0  0  0
   48.1919   34.5319   39.9599 H   0  0  0  0  0  0  0  0  0  0  0  0
   46.5194   34.4260   39.3482 H   0  0  0  0  0  0  0  0  0  0  0  0
   48.8149   30.9357   45.5186 H   0  0  0  0  0  0  0  0  0  0  0  0
   49.3313   29.7877   43.1116 H   0  0  0  0  0  0  0  0  0  0  0  0
   44.3035   31.2724   43.8031 H   0  0  0  0  0  0  0  0  0  0  0  0
   43.5612   31.0930   41.7514 H   0  0  0  0  0  0  0  0  0  0  0  0
   45.2998   30.6766   41.3734 H   0  0  0  0  0  0  0  0  0  0  0  0
   43.7244   29.1500   40.2937 H   0  0  0  0  0  0  0  0  0  0  0  0
   44.8003   28.3370   41.5114 H   0  0  0  0  0  0  0  0  0  0  0  0
   41.8486   28.8264   41.5628 H   0  0  0  0  0  0  0  0  0  0  0  0
   42.8304   27.3835   42.0641 H   0  0  0  0  0  0  0  0  0  0  0  0
   42.1628   29.8832   43.5934 H   0  0  0  0  0  0  0  0  0  0  0  0
   42.1643   28.1807   44.1282 H   0  0  0  0  0  0  0  0  0  0  0  0
   44.6870   28.2035   43.7231 H   0  0  0  0  0  0  0  0  0  0  0  0
   44.0968   29.1917   45.0990 H   0  0  0  0  0  0  0  0  0  0  0  0
  1  9  1  0
  1  2  2  0
  2  3  1  0
  3  4  1  0
  4  5  2  0
  6  5  1  0
  7  6  2  0
  8  9  2  0
  8  7  1  0
  9  4  1  0
 10 15  2  0
 11 12  2  0
 11 10  1  0
 12 13  1  0
 13 14  2  0
 14  1  1  0
 15 14  1  0
 16 11  1  0
 17  8  1  0
 18 17  1  0
 19 18  2  0
 20 19  1  0
 20 21  2  0
 21 17  1  0
 22 21  1  0
 22 27  1  0
 23 22  1  0
 24 23  1  0
 24 25  1  0
 25 26  1  0
 26 27  1  0
  2 28  1  0
  3 29  1  0
  5 30  1  0
  6 31  1  0
  7 32  1  0
 10 33  1  0
 12 34  1  0
 16 35  1  0
 16 36  1  0
 18 37  1  0
 19 38  1  0
 22 39  1  0
 23 40  1  0
 23 41  1  0
 24 42  1  0
 24 43  1  0
 25 44  1  0
 25 45  1  0
 26 46  1  0
 26 47  1  0
 27 48  1  0
 27 49  1  0
M  ISO  8  28  14  29   9  30  14  31  14  32  14  33  14  34  14  37  14
M  ISO  8  38  14  39  13  40  13  41  13  42  13  43  13  44  13  45  13
M  ISO  4  46  13  47  13  48  13  49  13
M  END
>  <minimizedAffinity>  (1) 
-5.24093103

>  <minimizedRMSD>  (1) 
2.21111155

$$$$
