
     RDKit          3D

 39 43  0  0  0  0  0  0  0  0999 V2000
   46.3900   33.5640   44.5360 C   0  0  0  0  0  0  0  0  0  0  0  0
   45.6640   34.3830   45.4260 C   0  0  0  0  0  0  0  0  0  0  0  0
   45.3410   33.6530   46.5180 N   0  0  0  0  0  0  0  0  0  0  0  0
   45.8190   32.4060   46.3840 C   0  0  0  0  0  0  0  0  0  0  0  0
   45.7670   31.2960   47.2120 C   0  0  0  0  0  0  0  0  0  0  0  0
   46.3800   30.1020   46.7940 C   0  0  0  0  0  0  0  0  0  0  0  0
   47.0280   30.0370   45.5650 C   0  0  0  0  0  0  0  0  0  0  0  0
   47.0410   31.1790   44.7900 C   0  0  0  0  0  0  0  0  0  0  0  0
   46.4630   32.3520   45.1620 C   0  0  0  0  0  0  0  0  0  0  0  0
   47.7320   30.7910   43.6120 N   0  0  0  0  0  0  0  0  0  0  0  0
   49.0880   30.6110   43.6910 C   0  0  0  0  0  0  0  0  0  0  0  0
   49.4790   30.2310   42.3910 C   0  0  0  0  0  0  0  0  0  0  0  0
   48.3990   30.1900   41.5850 N   0  0  0  0  0  0  0  0  0  0  0  0
   47.3350   30.5230   42.3020 C   0  0  0  0  0  0  0  0  0  0  0  0
   45.9550   30.6380   41.9540 N   0  0  0  0  0  0  0  0  0  0  0  0
   45.4210   30.6620   40.7140 C   0  0  0  0  0  0  0  0  0  0  0  0
   44.0800   30.7800   40.7460 N   0  0  0  0  0  0  0  0  0  0  0  0
   43.7730   30.8280   42.0570 C   0  0  0  0  0  0  0  0  0  0  0  0
   44.9110   30.7420   42.7610 N   0  0  0  0  0  0  0  0  0  0  0  0
   48.8970   34.6440   42.1200 C   0  0  0  0  0  0  0  0  0  0  0  0
   48.1180   34.7400   40.9300 C   0  0  0  0  0  0  0  0  0  0  0  0
   46.7300   34.4280   40.9540 C   0  0  0  0  0  0  0  0  0  0  0  0
   46.1910   34.0400   42.1500 N   0  0  0  0  0  0  0  0  0  0  0  0
   46.9530   33.9580   43.2600 C   0  0  0  0  0  0  0  0  0  0  0  0
   48.2530   34.2510   43.2370 N   0  0  0  0  0  0  0  0  0  0  0  0
   48.7240   35.1440   39.7380 N   0  0  0  0  0  0  0  0  0  0  0  0
   45.4040   35.4388   45.2598 H   0  0  0  0  0  0  0  0  0  0  0  0
   44.8094   34.0010   47.3287 H   0  0  0  0  0  0  0  0  0  0  0  0
   45.2530   31.3485   48.1831 H   0  0  0  0  0  0  0  0  0  0  0  0
   46.3470   29.2141   47.4425 H   0  0  0  0  0  0  0  0  0  0  0  0
   47.5120   29.1101   45.2235 H   0  0  0  0  0  0  0  0  0  0  0  0
   49.7306   30.7357   44.5750 H   0  0  0  0  0  0  0  0  0  0  0  0
   50.5094   30.0025   42.0811 H   0  0  0  0  0  0  0  0  0  0  0  0
   46.0110   30.5933   39.7882 H   0  0  0  0  0  0  0  0  0  0  0  0
   42.7611   30.9218   42.4781 H   0  0  0  0  0  0  0  0  0  0  0  0
   49.9715   34.8792   42.1264 H   0  0  0  0  0  0  0  0  0  0  0  0
   46.1137   34.4962   40.0454 H   0  0  0  0  0  0  0  0  0  0  0  0
   49.7289   35.3696   39.7218 H   0  0  0  0  0  0  0  0  0  0  0  0
   48.1660   35.2163   38.8753 H   0  0  0  0  0  0  0  0  0  0  0  0
  1  9  1  0
  1  2  2  0
  2  3  1  0
  4  3  1  0
  4  5  2  0
  6  5  1  0
  7  6  2  0
  8  9  2  0
  8  7  1  0
  9  4  1  0
 10 11  1  0
 10  8  1  0
 12 11  2  0
 13 14  2  0
 13 12  1  0
 14 10  1  0
 15 14  1  0
 15 19  1  0
 16 17  2  0
 16 15  1  0
 17 18  1  0
 18 19  2  0
 20 25  2  0
 21 22  2  0
 21 20  1  0
 22 23  1  0
 23 24  2  0
 24  1  1  0
 25 24  1  0
 26 21  1  0
  2 27  1  0
  3 28  1  0
  5 29  1  0
  6 30  1  0
  7 31  1  0
 11 32  1  0
 12 33  1  0
 16 34  1  0
 18 35  1  0
 20 36  1  0
 22 37  1  0
 26 38  1  0
 26 39  1  0
M  ISO  8  27  14  28   9  29  14  30  14  31  14  32  14  33  14  34  14
M  ISO  3  35  14  36  14  37  14
M  END
>  <minimizedAffinity>  (1) 
-5.16073751

>  <minimizedRMSD>  (1) 
0.112961814

$$$$
