
     RDKit          3D

 34 37  0  0  0  0  0  0  0  0999 V2000
   46.3930   33.5660   44.5110 C   0  0  0  0  0  0  0  0  0  0  0  0
   45.6410   34.3710   45.3920 C   0  0  0  0  0  0  0  0  0  0  0  0
   45.3290   33.6500   46.4890 N   0  0  0  0  0  0  0  0  0  0  0  0
   45.8390   32.4120   46.3710 C   0  0  0  0  0  0  0  0  0  0  0  0
   45.8120   31.3090   47.2080 C   0  0  0  0  0  0  0  0  0  0  0  0
   46.4520   30.1330   46.8100 C   0  0  0  0  0  0  0  0  0  0  0  0
   47.1110   30.0620   45.5870 C   0  0  0  0  0  0  0  0  0  0  0  0
   47.1010   31.1960   44.7990 C   0  0  0  0  0  0  0  0  0  0  0  0
   46.4910   32.3560   45.1580 C   0  0  0  0  0  0  0  0  0  0  0  0
   48.8820   34.7020   42.1060 C   0  0  0  0  0  0  0  0  0  0  0  0
   48.1090   34.7410   40.8990 C   0  0  0  0  0  0  0  0  0  0  0  0
   46.7360   34.3700   40.9140 C   0  0  0  0  0  0  0  0  0  0  0  0
   46.2020   33.9840   42.1130 N   0  0  0  0  0  0  0  0  0  0  0  0
   46.9520   33.9570   43.2370 C   0  0  0  0  0  0  0  0  0  0  0  0
   48.2390   34.3030   43.2240 N   0  0  0  0  0  0  0  0  0  0  0  0
   48.7230   35.1430   39.7150 N   0  0  0  0  0  0  0  0  0  0  0  0
   47.8080   30.8110   43.6290 N   0  0  0  0  0  0  0  0  0  0  0  0
   49.1410   30.5410   43.7450 C   0  0  0  0  0  0  0  0  0  0  0  0
   49.5630   30.1910   42.4480 C   0  0  0  0  0  0  0  0  0  0  0  0
   48.5150   30.2500   41.6020 N   0  0  0  0  0  0  0  0  0  0  0  0
   47.4530   30.6230   42.2980 C   0  0  0  0  0  0  0  0  0  0  0  0
   46.1400   30.8320   41.9130 O   0  0  0  0  0  0  0  0  0  0  0  0
   45.3550   35.4180   45.2134 H   0  0  0  0  0  0  0  0  0  0  0  0
   44.7844   33.9949   47.2924 H   0  0  0  0  0  0  0  0  0  0  0  0
   45.2920   31.3585   48.1761 H   0  0  0  0  0  0  0  0  0  0  0  0
   46.4347   29.2537   47.4707 H   0  0  0  0  0  0  0  0  0  0  0  0
   47.6184   29.1419   45.2615 H   0  0  0  0  0  0  0  0  0  0  0  0
   49.9454   34.9830   42.1203 H   0  0  0  0  0  0  0  0  0  0  0  0
   46.1276   34.3925   39.9979 H   0  0  0  0  0  0  0  0  0  0  0  0
   49.7179   35.4095   39.7155 H   0  0  0  0  0  0  0  0  0  0  0  0
   48.1821   35.1737   38.8390 H   0  0  0  0  0  0  0  0  0  0  0  0
   49.7545   30.5870   44.6569 H   0  0  0  0  0  0  0  0  0  0  0  0
   50.5897   29.9124   42.1682 H   0  0  0  0  0  0  0  0  0  0  0  0
   45.4670   31.1145   42.5819 H   0  0  0  0  0  0  0  0  0  0  0  0
  1  9  1  0
  1  2  2  0
  2  3  1  0
  4  3  1  0
  4  5  2  0
  6  5  1  0
  7  6  2  0
  8  9  2  0
  8  7  1  0
  9  4  1  0
 10 15  2  0
 11 12  2  0
 11 10  1  0
 12 13  1  0
 13 14  2  0
 14  1  1  0
 15 14  1  0
 16 11  1  0
 17 18  1  0
 17  8  1  0
 19 18  2  0
 20 21  2  0
 20 19  1  0
 21 17  1  0
 22 21  1  0
  2 23  1  0
  3 24  1  0
  5 25  1  0
  6 26  1  0
  7 27  1  0
 10 28  1  0
 12 29  1  0
 16 30  1  0
 16 31  1  0
 18 32  1  0
 19 33  1  0
 22 34  1  0
M  ISO  8  23  14  24   9  25  14  26  14  27  14  28  14  29  14  32  14
M  ISO  2  33  14  34   3
M  END
>  <minimizedAffinity>  (1) 
-4.96951771

>  <minimizedRMSD>  (1) 
0.0298635587

$$$$
