
     RDKit          3D

 40 44  0  0  0  0  0  0  0  0999 V2000
   46.0620   33.5380   44.9190 C   0  0  0  0  0  0  0  0  0  0  0  0
   45.4010   34.4060   45.8100 C   0  0  0  0  0  0  0  0  0  0  0  0
   45.0700   33.7200   46.9270 N   0  0  0  0  0  0  0  0  0  0  0  0
   45.4820   32.4420   46.8150 C   0  0  0  0  0  0  0  0  0  0  0  0
   45.4020   31.3580   47.6640 C   0  0  0  0  0  0  0  0  0  0  0  0
   45.9410   30.1350   47.2650 C   0  0  0  0  0  0  0  0  0  0  0  0
   46.5530   30.0030   46.0230 C   0  0  0  0  0  0  0  0  0  0  0  0
   46.6020   31.1230   45.2200 C   0  0  0  0  0  0  0  0  0  0  0  0
   46.0900   32.3260   45.5820 C   0  0  0  0  0  0  0  0  0  0  0  0
   48.5820   34.2360   42.3820 C   0  0  0  0  0  0  0  0  0  0  0  0
   47.7680   34.5150   41.2460 C   0  0  0  0  0  0  0  0  0  0  0  0
   46.3510   34.4570   41.3510 C   0  0  0  0  0  0  0  0  0  0  0  0
   45.8160   34.1290   42.5670 N   0  0  0  0  0  0  0  0  0  0  0  0
   46.6120   33.8700   43.6250 C   0  0  0  0  0  0  0  0  0  0  0  0
   47.9410   33.9230   43.5280 N   0  0  0  0  0  0  0  0  0  0  0  0
   48.3620   34.8480   40.0270 N   0  0  0  0  0  0  0  0  0  0  0  0
   47.2410   30.6720   44.0340 N   0  0  0  0  0  0  0  0  0  0  0  0
   48.5790   30.4370   44.0810 C   0  0  0  0  0  0  0  0  0  0  0  0
   48.9300   30.0050   42.7860 C   0  0  0  0  0  0  0  0  0  0  0  0
   47.8280   29.9880   42.0100 N   0  0  0  0  0  0  0  0  0  0  0  0
   46.7960   30.3860   42.7440 C   0  0  0  0  0  0  0  0  0  0  0  0
   45.3810   30.5480   42.4210 C   0  0  0  0  0  0  0  0  0  0  0  0
   44.2570   30.1450   43.0980 C   0  0  0  0  0  0  0  0  0  0  0  0
   43.2070   30.5830   42.2990 C   0  0  0  0  0  0  0  0  0  0  0  0
   43.7400   31.2180   41.2000 C   0  0  0  0  0  0  0  0  0  0  0  0
   45.0540   31.1830   41.2960 O   0  0  0  0  0  0  0  0  0  0  0  0
   45.1886   35.4696   45.6267 H   0  0  0  0  0  0  0  0  0  0  0  0
   44.5772   34.1147   47.7408 H   0  0  0  0  0  0  0  0  0  0  0  0
   44.9176   31.4570   48.6466 H   0  0  0  0  0  0  0  0  0  0  0  0
   45.8815   29.2673   47.9385 H   0  0  0  0  0  0  0  0  0  0  0  0
   46.9806   29.0442   45.6946 H   0  0  0  0  0  0  0  0  0  0  0  0
   49.6800   34.2739   42.3276 H   0  0  0  0  0  0  0  0  0  0  0  0
   45.7072   34.6685   40.4846 H   0  0  0  0  0  0  0  0  0  0  0  0
   49.3881   34.8906   39.9487 H   0  0  0  0  0  0  0  0  0  0  0  0
   47.7740   35.0511   39.2061 H   0  0  0  0  0  0  0  0  0  0  0  0
   49.2467   30.5583   44.9467 H   0  0  0  0  0  0  0  0  0  0  0  0
   49.9429   29.7259   42.4602 H   0  0  0  0  0  0  0  0  0  0  0  0
   44.2002   29.6011   44.0524 H   0  0  0  0  0  0  0  0  0  0  0  0
   42.1359   30.4459   42.5086 H   0  0  0  0  0  0  0  0  0  0  0  0
   43.1666   31.6767   40.3809 H   0  0  0  0  0  0  0  0  0  0  0  0
  1  9  1  0
  1  2  2  0
  2  3  1  0
  4  3  1  0
  4  5  2  0
  6  5  1  0
  7  6  2  0
  8  9  2  0
  8  7  1  0
  9  4  1  0
 10 15  2  0
 11 12  2  0
 11 10  1  0
 12 13  1  0
 13 14  2  0
 14  1  1  0
 15 14  1  0
 16 11  1  0
 17 18  1  0
 17  8  1  0
 19 18  2  0
 20 21  2  0
 20 19  1  0
 21 17  1  0
 22 21  1  0
 22 23  2  0
 24 23  1  0
 25 26  1  0
 25 24  2  0
 26 22  1  0
  2 27  1  0
  3 28  1  0
  5 29  1  0
  6 30  1  0
  7 31  1  0
 10 32  1  0
 12 33  1  0
 16 34  1  0
 16 35  1  0
 18 36  1  0
 19 37  1  0
 23 38  1  0
 24 39  1  0
 25 40  1  0
M  ISO  8  27  14  28   9  29  14  30  14  31  14  32  14  33  14  36  14
M  ISO  4  37  14  38  14  39  14  40  14
M  END
>  <minimizedAffinity>  (1) 
-4.89718008

>  <minimizedRMSD>  (1) 
0.784118354

$$$$
