
     RDKit          3D

 40 44  0  0  0  0  0  0  0  0999 V2000
   45.9830   34.4050   43.8080 C   0  0  0  0  0  0  0  0  0  0  0  0
   45.2220   35.4290   44.4160 C   0  0  0  0  0  0  0  0  0  0  0  0
   44.9210   35.0710   45.6730 N   0  0  0  0  0  0  0  0  0  0  0  0
   45.4400   33.8590   45.9380 C   0  0  0  0  0  0  0  0  0  0  0  0
   45.4270   33.0590   47.0640 C   0  0  0  0  0  0  0  0  0  0  0  0
   46.0800   31.8190   47.0480 C   0  0  0  0  0  0  0  0  0  0  0  0
   46.7420   31.3970   45.8890 C   0  0  0  0  0  0  0  0  0  0  0  0
   46.7230   32.2360   44.7880 C   0  0  0  0  0  0  0  0  0  0  0  0
   46.0910   33.4490   44.7960 C   0  0  0  0  0  0  0  0  0  0  0  0
   48.3040   35.1010   41.0900 C   0  0  0  0  0  0  0  0  0  0  0  0
   47.6550   34.4690   39.9910 C   0  0  0  0  0  0  0  0  0  0  0  0
   46.4180   33.7960   40.1850 C   0  0  0  0  0  0  0  0  0  0  0  0
   45.8930   33.7830   41.4470 N   0  0  0  0  0  0  0  0  0  0  0  0
   46.5330   34.3930   42.4730 C   0  0  0  0  0  0  0  0  0  0  0  0
   47.6910   35.0230   42.2900 N   0  0  0  0  0  0  0  0  0  0  0  0
   48.2330   34.5100   38.7230 N   0  0  0  0  0  0  0  0  0  0  0  0
   47.4250   31.5210   43.8010 N   0  0  0  0  0  0  0  0  0  0  0  0
   48.7080   31.8740   43.5370 C   0  0  0  0  0  0  0  0  0  0  0  0
   49.1470   31.0090   42.5150 C   0  0  0  0  0  0  0  0  0  0  0  0
   48.1610   30.1840   42.1950 N   0  0  0  0  0  0  0  0  0  0  0  0
   47.0910   30.4640   42.9600 C   0  0  0  0  0  0  0  0  0  0  0  0
   45.8160   29.7670   42.9370 C   0  0  0  0  0  0  0  0  0  0  0  0
   44.7810   30.5390   42.0670 C   0  0  0  0  0  0  0  0  0  0  0  0
   45.1460   29.1050   41.8480 C   0  0  0  0  0  0  0  0  0  0  0  0
   44.9234   36.3716   43.9340 H   0  0  0  0  0  0  0  0  0  0  0  0
   44.3744   35.6391   46.3359 H   0  0  0  0  0  0  0  0  0  0  0  0
   44.9048   33.3947   47.9721 H   0  0  0  0  0  0  0  0  0  0  0  0
   46.0723   31.1796   47.9431 H   0  0  0  0  0  0  0  0  0  0  0  0
   47.2616   30.4281   45.8542 H   0  0  0  0  0  0  0  0  0  0  0  0
   49.2612   35.6287   40.9665 H   0  0  0  0  0  0  0  0  0  0  0  0
   45.9012   33.3028   39.3485 H   0  0  0  0  0  0  0  0  0  0  0  0
   49.1293   34.9973   38.5811 H   0  0  0  0  0  0  0  0  0  0  0  0
   47.7638   34.0530   37.9281 H   0  0  0  0  0  0  0  0  0  0  0  0
   49.2877   32.6731   44.0222 H   0  0  0  0  0  0  0  0  0  0  0  0
   50.1470   31.0174   42.0568 H   0  0  0  0  0  0  0  0  0  0  0  0
   46.0117   29.3677   43.9431 H   0  0  0  0  0  0  0  0  0  0  0  0
   43.7967   30.8102   42.4763 H   0  0  0  0  0  0  0  0  0  0  0  0
   44.7704   31.4615   41.4679 H   0  0  0  0  0  0  0  0  0  0  0  0
   44.4060   28.3214   42.0677 H   0  0  0  0  0  0  0  0  0  0  0  0
   45.5046   28.5442   40.9723 H   0  0  0  0  0  0  0  0  0  0  0  0
  1  2  2  0
  1  9  1  0
  2  3  1  0
  3  4  1  0
  4  5  2  0
  6  5  1  0
  7  6  2  0
  8  9  2  0
  8  7  1  0
  9  4  1  0
 10 15  2  0
 11 12  2  0
 11 10  1  0
 12 13  1  0
 13 14  2  0
 14  1  1  0
 15 14  1  0
 16 11  1  0
 17  8  1  0
 18 17  1  0
 19 18  2  0
 20 19  1  0
 20 21  2  0
 21 17  1  0
 22 21  1  0
 23 22  1  0
 24 23  1  0
 24 22  1  0
  2 25  1  0
  3 26  1  0
  5 27  1  0
  6 28  1  0
  7 29  1  0
 10 30  1  0
 12 31  1  0
 16 32  1  0
 16 33  1  0
 18 34  1  0
 19 35  1  0
 22 36  1  0
 23 37  1  0
 23 38  1  0
 24 39  1  0
 24 40  1  0
M  ISO  8  25  14  26   9  27  14  28  14  29  14  30  14  31  14  34  14
M  ISO  6  35  14  36  13  37  13  38  13  39  13  40  13
M  END
>  <minimizedAffinity>  (1) 
-4.81752205

>  <minimizedRMSD>  (1) 
1.36404264

$$$$
