
     RDKit          3D

 45 48  0  0  0  0  0  0  0  0999 V2000
   46.3900   33.5850   44.5430 C   0  0  0  0  0  0  0  0  0  0  0  0
   45.6620   34.3860   45.4460 C   0  0  0  0  0  0  0  0  0  0  0  0
   45.3360   33.6480   46.5200 N   0  0  0  0  0  0  0  0  0  0  0  0
   45.8110   32.3940   46.3780 C   0  0  0  0  0  0  0  0  0  0  0  0
   45.7620   31.2870   47.1900 C   0  0  0  0  0  0  0  0  0  0  0  0
   46.3760   30.1010   46.7790 C   0  0  0  0  0  0  0  0  0  0  0  0
   47.0350   30.0470   45.5430 C   0  0  0  0  0  0  0  0  0  0  0  0
   47.0490   31.1890   44.7720 C   0  0  0  0  0  0  0  0  0  0  0  0
   46.4600   32.3590   45.1550 C   0  0  0  0  0  0  0  0  0  0  0  0
   48.9110   34.6330   42.1200 C   0  0  0  0  0  0  0  0  0  0  0  0
   48.1250   34.7760   40.9460 C   0  0  0  0  0  0  0  0  0  0  0  0
   46.7520   34.5150   40.9820 C   0  0  0  0  0  0  0  0  0  0  0  0
   46.2250   34.1250   42.1700 N   0  0  0  0  0  0  0  0  0  0  0  0
   46.9640   33.9870   43.2830 C   0  0  0  0  0  0  0  0  0  0  0  0
   48.2590   34.2380   43.2330 N   0  0  0  0  0  0  0  0  0  0  0  0
   48.7360   35.1760   39.7520 N   0  0  0  0  0  0  0  0  0  0  0  0
   47.7270   30.8000   43.5960 N   0  0  0  0  0  0  0  0  0  0  0  0
   49.0920   30.7630   43.6370 C   0  0  0  0  0  0  0  0  0  0  0  0
   49.4870   30.3630   42.3400 C   0  0  0  0  0  0  0  0  0  0  0  0
   48.3830   30.1770   41.5780 N   0  0  0  0  0  0  0  0  0  0  0  0
   47.3120   30.4320   42.3240 C   0  0  0  0  0  0  0  0  0  0  0  0
   45.9420   30.2040   41.9140 C   0  0  0  0  0  0  0  0  0  0  0  0
   45.7480   28.7730   41.5160 C   0  0  0  0  0  0  0  0  0  0  0  0
   45.0680   30.3170   43.2330 C   0  0  0  0  0  0  0  0  0  0  0  0
   45.2710   31.1020   40.9840 C   0  0  0  0  0  0  0  0  0  0  0  0
   45.4028   35.4444   45.2955 H   0  0  0  0  0  0  0  0  0  0  0  0
   44.8021   33.9895   47.3320 H   0  0  0  0  0  0  0  0  0  0  0  0
   45.2423   31.3340   48.1584 H   0  0  0  0  0  0  0  0  0  0  0  0
   46.3423   29.2110   47.4245 H   0  0  0  0  0  0  0  0  0  0  0  0
   47.5247   29.1237   45.1999 H   0  0  0  0  0  0  0  0  0  0  0  0
   49.9926   34.8334   42.1218 H   0  0  0  0  0  0  0  0  0  0  0  0
   46.1250   34.6214   40.0845 H   0  0  0  0  0  0  0  0  0  0  0  0
   49.7479   35.3672   39.7302 H   0  0  0  0  0  0  0  0  0  0  0  0
   48.1738   35.2791   38.8952 H   0  0  0  0  0  0  0  0  0  0  0  0
   49.7425   30.9943   44.4934 H   0  0  0  0  0  0  0  0  0  0  0  0
   50.5251   30.2249   42.0035 H   0  0  0  0  0  0  0  0  0  0  0  0
   45.6635   28.1497   42.4184 H   0  0  0  0  0  0  0  0  0  0  0  0
   44.8290   28.6799   40.9187 H   0  0  0  0  0  0  0  0  0  0  0  0
   46.6090   28.4386   40.9187 H   0  0  0  0  0  0  0  0  0  0  0  0
   45.7212   30.2325   44.1140 H   0  0  0  0  0  0  0  0  0  0  0  0
   44.5535   31.2891   43.2498 H   0  0  0  0  0  0  0  0  0  0  0  0
   44.3232   29.5077   43.2498 H   0  0  0  0  0  0  0  0  0  0  0  0
   44.7057   31.8585   41.5481 H   0  0  0  0  0  0  0  0  0  0  0  0
   46.0197   31.6004   40.3508 H   0  0  0  0  0  0  0  0  0  0  0  0
   44.5808   30.5252   40.3508 H   0  0  0  0  0  0  0  0  0  0  0  0
  1  9  1  0
  1  2  2  0
  2  3  1  0
  4  3  1  0
  4  5  2  0
  6  5  1  0
  7  6  2  0
  8  9  2  0
  8  7  1  0
  9  4  1  0
 10 15  2  0
 11 12  2  0
 11 10  1  0
 12 13  1  0
 13 14  2  0
 14  1  1  0
 15 14  1  0
 16 11  1  0
 17 18  1  0
 17  8  1  0
 19 18  2  0
 20 21  2  0
 20 19  1  0
 21 17  1  0
 22 21  1  0
 22 24  1  0
 23 22  1  0
 25 22  1  0
  2 26  1  0
  3 27  1  0
  5 28  1  0
  6 29  1  0
  7 30  1  0
 10 31  1  0
 12 32  1  0
 16 33  1  0
 16 34  1  0
 18 35  1  0
 19 36  1  0
 23 37  1  0
 23 38  1  0
 23 39  1  0
 24 40  1  0
 24 41  1  0
 24 42  1  0
 25 43  1  0
 25 44  1  0
 25 45  1  0
M  ISO  8  26  14  27   9  28  14  29  14  30  14  31  14  32  14  35  14
M  ISO  8  36  14  37   8  38   8  39   8  40   8  41   8  42   8  43   8
M  ISO  2  44   8  45   8
M  END
>  <minimizedAffinity>  (1) 
-4.76832151

>  <minimizedRMSD>  (1) 
0.194400504

$$$$
