
     RDKit          3D

 51 54  0  0  1  0  0  0  0  0999 V2000
   50.2180   32.0440   42.4820 C   0  0  2  0  0  0  0  0  0  0  0  0
   48.9040   32.4950   42.1970 C   0  0  2  0  0  0  0  0  0  0  0  0
   48.9380   32.5950   40.6350 C   0  0  0  0  0  0  0  0  0  0  0  0
   50.0420   31.7760   40.1040 C   0  0  0  0  0  0  0  0  0  0  0  0
   51.0470   32.0760   41.1420 C   0  0  0  0  0  0  0  0  0  0  0  0
   50.4400   30.6920   42.9640 C   0  0  0  0  0  0  0  0  0  0  0  0
   49.3640   30.0580   43.5460 C   0  0  0  0  0  0  0  0  0  0  0  0
   49.4330   28.7780   44.0630 C   0  0  0  0  0  0  0  0  0  0  0  0
   50.6870   28.1870   43.9380 N   0  0  0  0  0  0  0  0  0  0  0  0
   51.7270   28.7910   43.3760 C   0  0  0  0  0  0  0  0  0  0  0  0
   51.5790   30.0230   42.9050 N   0  0  0  0  0  0  0  0  0  0  0  0
   48.5100   33.8180   42.7340 C   0  0  0  0  0  0  0  0  0  0  0  0
   49.3220   34.7060   42.8160 O   0  0  0  0  0  0  0  0  0  0  0  0
   47.2260   34.2570   43.2150 C   0  0  0  0  0  0  0  0  0  0  0  0
   46.5260   35.2870   42.5660 C   0  0  0  0  0  0  0  0  0  0  0  0
   45.2990   35.7880   43.0290 C   0  0  0  0  0  0  0  0  0  0  0  0
   44.7610   35.2310   44.1870 C   0  0  0  0  0  0  0  0  0  0  0  0
   45.4340   34.2080   44.8430 C   0  0  0  0  0  0  0  0  0  0  0  0
   46.6260   33.7600   44.3380 C   0  0  0  0  0  0  0  0  0  0  0  0
   46.9150   32.6110   45.2790 C   0  0  0  0  0  0  0  0  0  0  0  0
   46.5520   32.9790   46.6760 C   0  0  0  0  0  0  0  0  0  0  0  0
   46.5420   31.8290   47.6240 C   0  0  0  0  0  0  0  0  0  0  0  0
   45.7010   30.6760   47.1130 C   0  0  0  0  0  0  0  0  0  0  0  0
   46.3690   30.2800   45.7860 C   0  0  0  0  0  0  0  0  0  0  0  0
   46.0190   31.4150   44.8540 C   0  0  0  0  0  0  0  0  0  0  0  0
   50.5005   32.7199   43.3026 H   0  0  0  0  0  0  0  0  0  0  0  0
   48.1759   31.8130   42.6604 H   0  0  0  0  0  0  0  0  0  0  0  0
   47.9842   32.2311   40.2254 H   0  0  0  0  0  0  0  0  0  0  0  0
   49.0922   33.6441   40.3425 H   0  0  0  0  0  0  0  0  0  0  0  0
   49.7867   30.7066   40.0695 H   0  0  0  0  0  0  0  0  0  0  0  0
   50.3433   31.9899   39.0679 H   0  0  0  0  0  0  0  0  0  0  0  0
   51.8400   31.3137   41.1526 H   0  0  0  0  0  0  0  0  0  0  0  0
   51.5567   33.0369   40.9780 H   0  0  0  0  0  0  0  0  0  0  0  0
   48.4058   30.5953   43.6018 H   0  0  0  0  0  0  0  0  0  0  0  0
   48.5752   28.2725   44.5306 H   0  0  0  0  0  0  0  0  0  0  0  0
   52.6972   28.2780   43.3018 H   0  0  0  0  0  0  0  0  0  0  0  0
   46.9590   35.7212   41.6528 H   0  0  0  0  0  0  0  0  0  0  0  0
   44.7783   36.5957   42.4937 H   0  0  0  0  0  0  0  0  0  0  0  0
   43.8034   35.6012   44.5819 H   0  0  0  0  0  0  0  0  0  0  0  0
   45.0146   33.7629   45.7573 H   0  0  0  0  0  0  0  0  0  0  0  0
   47.9852   32.3606   45.2342 H   0  0  0  0  0  0  0  0  0  0  0  0
   47.2800   33.7196   47.0386 H   0  0  0  0  0  0  0  0  0  0  0  0
   45.5256   33.3734   46.6442 H   0  0  0  0  0  0  0  0  0  0  0  0
   47.5748   31.4785   47.7673 H   0  0  0  0  0  0  0  0  0  0  0  0
   46.1028   32.1748   48.5714 H   0  0  0  0  0  0  0  0  0  0  0  0
   45.7173   29.8365   47.8236 H   0  0  0  0  0  0  0  0  0  0  0  0
   44.6432   30.9501   46.9866 H   0  0  0  0  0  0  0  0  0  0  0  0
   47.4590   30.1937   45.9064 H   0  0  0  0  0  0  0  0  0  0  0  0
   46.0283   29.3028   45.4131 H   0  0  0  0  0  0  0  0  0  0  0  0
   44.9560   31.6789   44.9557 H   0  0  0  0  0  0  0  0  0  0  0  0
   46.1878   31.1392   43.8026 H   0  0  0  0  0  0  0  0  0  0  0  0
  1  6  1  0
  2  1  1  0
  2 12  1  0
  3  2  1  0
  4  3  1  0
  4  5  1  0
  5  1  1  0
  6  7  2  0
  7  8  1  0
  9  8  2  0
 10  9  1  0
 11  6  1  0
 11 10  2  0
 12 13  2  0
 12 14  1  0
 14 19  2  0
 15 16  2  0
 15 14  1  0
 16 17  1  0
 17 18  2  0
 19 18  1  0
 19 20  1  0
 20 21  1  0
 21 22  1  0
 23 22  1  0
 24 23  1  0
 25 20  1  0
 25 24  1  0
  1 26  1  1
  2 27  1  6
  3 28  1  0
  3 29  1  0
  4 30  1  0
  4 31  1  0
  5 32  1  0
  5 33  1  0
  7 34  1  0
  8 35  1  0
 10 36  1  0
 15 37  1  0
 16 38  1  0
 17 39  1  0
 18 40  1  0
 20 41  1  0
 21 42  1  0
 21 43  1  0
 22 44  1  0
 22 45  1  0
 23 46  1  0
 23 47  1  0
 24 48  1  0
 24 49  1  0
 25 50  1  0
 25 51  1  0
M  ISO  8  26  13  27  13  28  13  29  13  30  13  31  13  32  13  33  13
M  ISO  8  34  14  35  14  36  14  37  14  38  14  39  14  40  14  41  13
M  ISO  8  42  13  43  13  44  13  45  13  46  13  47  13  48  13  49  13
M  ISO  2  50  13  51  13
M  END
>  <minimizedAffinity>  (1) 
-5.46788979

>  <minimizedRMSD>  (1) 
4.0325017

$$$$
