
     RDKit          3D

 19 20  0  0  0  0  0  0  0  0999 V2000
   44.8880   34.8110   45.2810 C   0  0  0  0  0  0  0  0  0  0  0  0
   45.5210   34.8160   44.0170 C   0  0  0  0  0  0  0  0  0  0  0  0
   46.5910   33.9310   43.8050 C   0  0  0  0  0  0  0  0  0  0  0  0
   46.9740   33.1100   44.8220 N   0  0  0  0  0  0  0  0  0  0  0  0
   46.3390   33.1420   46.0090 C   0  0  0  0  0  0  0  0  0  0  0  0
   45.3060   33.9770   46.2530 N   0  0  0  0  0  0  0  0  0  0  0  0
   45.0450   35.7240   43.0020 C   0  0  0  0  0  0  0  0  0  0  0  0
   45.2420   36.9440   43.2190 O   0  0  0  0  0  0  0  0  0  0  0  0
   44.0810   34.3100   39.8510 N   0  0  0  0  0  0  0  0  0  0  0  0
   44.9430   34.5430   40.8300 N   0  0  0  0  0  0  0  0  0  0  0  0
   44.3720   35.2890   41.7880 C   0  0  0  0  0  0  0  0  0  0  0  0
   43.0880   35.5400   41.3980 C   0  0  0  0  0  0  0  0  0  0  0  0
   42.9040   34.9200   40.1710 C   0  0  0  0  0  0  0  0  0  0  0  0
   44.0471   35.4938   45.4725 H   0  0  0  0  0  0  0  0  0  0  0  0
   47.1100   33.9016   42.8356 H   0  0  0  0  0  0  0  0  0  0  0  0
   46.6735   32.4641   46.8081 H   0  0  0  0  0  0  0  0  0  0  0  0
   44.2673   33.7639   38.9978 H   0  0  0  0  0  0  0  0  0  0  0  0
   42.3395   36.1245   41.9530 H   0  0  0  0  0  0  0  0  0  0  0  0
   41.9829   34.9203   39.5697 H   0  0  0  0  0  0  0  0  0  0  0  0
  1  6  2  0
  2  1  1  0
  3  2  2  0
  3  4  1  0
  4  5  2  0
  5  6  1  0
  7  8  2  0
  7  2  1  0
  9 13  1  0
  9 10  1  0
 10 11  2  0
 11  7  1  0
 12 11  1  0
 13 12  2  0
  1 14  1  0
  3 15  1  0
  5 16  1  0
  9 17  1  0
 12 18  1  0
 13 19  1  0
M  ISO  6  14  14  15  14  16  14  17   9  18  14  19  14
M  END
>  <minimizedAffinity>  (1) 
-4.20517015

>  <minimizedRMSD>  (1) 
0.438298106

$$$$
