
     RDKit          3D

 19 20  0  0  0  0  0  0  0  0999 V2000
   44.8590   34.8100   45.3210 C   0  0  0  0  0  0  0  0  0  0  0  0
   45.4080   34.8850   44.0230 C   0  0  0  0  0  0  0  0  0  0  0  0
   46.4880   34.0610   43.7090 C   0  0  0  0  0  0  0  0  0  0  0  0
   46.9500   33.2280   44.6820 N   0  0  0  0  0  0  0  0  0  0  0  0
   46.4110   33.1740   45.9110 C   0  0  0  0  0  0  0  0  0  0  0  0
   45.3590   33.9680   46.2340 N   0  0  0  0  0  0  0  0  0  0  0  0
   44.8170   35.8140   43.0940 C   0  0  0  0  0  0  0  0  0  0  0  0
   45.1800   37.0030   43.1570 O   0  0  0  0  0  0  0  0  0  0  0  0
   43.8240   35.4170   42.1020 C   0  0  0  0  0  0  0  0  0  0  0  0
   44.2180   34.8450   40.8880 C   0  0  0  0  0  0  0  0  0  0  0  0
   43.0400   34.5840   40.1780 C   0  0  0  0  0  0  0  0  0  0  0  0
   42.0030   35.0170   41.0110 C   0  0  0  0  0  0  0  0  0  0  0  0
   42.5360   35.4790   42.0920 O   0  0  0  0  0  0  0  0  0  0  0  0
   44.0072   35.4533   45.5867 H   0  0  0  0  0  0  0  0  0  0  0  0
   46.9502   34.0831   42.7111 H   0  0  0  0  0  0  0  0  0  0  0  0
   46.8245   32.4824   46.6598 H   0  0  0  0  0  0  0  0  0  0  0  0
   45.2471   34.6411   40.5574 H   0  0  0  0  0  0  0  0  0  0  0  0
   42.9492   34.1343   39.1782 H   0  0  0  0  0  0  0  0  0  0  0  0
   40.9273   34.9719   40.7855 H   0  0  0  0  0  0  0  0  0  0  0  0
  1  6  2  0
  2  1  1  0
  3  2  2  0
  3  4  1  0
  4  5  2  0
  5  6  1  0
  7  8  2  0
  7  2  1  0
  9  7  1  0
 10  9  2  0
 11 10  1  0
 11 12  2  0
 12 13  1  0
 13  9  1  0
  1 14  1  0
  3 15  1  0
  5 16  1  0
 10 17  1  0
 11 18  1  0
 12 19  1  0
M  ISO  6  14  14  15  14  16  14  17  14  18  14  19  14
M  END
>  <minimizedAffinity>  (1) 
-4.03563738

>  <minimizedRMSD>  (1) 
0.581418037

$$$$
