
     RDKit          3D

 13 13  0  0  0  0  0  0  0  0999 V2000
   44.8640   34.9640   45.2210 C   0  0  0  0  0  0  0  0  0  0  0  0
   45.4460   35.0720   43.9590 C   0  0  0  0  0  0  0  0  0  0  0  0
   46.4810   34.2110   43.6400 C   0  0  0  0  0  0  0  0  0  0  0  0
   46.8800   33.3030   44.5700 N   0  0  0  0  0  0  0  0  0  0  0  0
   46.3100   33.2090   45.7800 C   0  0  0  0  0  0  0  0  0  0  0  0
   45.2910   34.0450   46.1170 N   0  0  0  0  0  0  0  0  0  0  0  0
   44.9390   36.0720   43.0610 C   0  0  0  0  0  0  0  0  0  0  0  0
   45.1980   37.2670   43.2950 O   0  0  0  0  0  0  0  0  0  0  0  0
   44.1720   35.6840   41.9500 O   0  0  0  0  0  0  0  0  0  0  0  0
   44.0404   35.6401   45.4939 H   0  0  0  0  0  0  0  0  0  0  0  0
   46.9701   34.2600   42.6559 H   0  0  0  0  0  0  0  0  0  0  0  0
   46.6659   32.4568   46.4994 H   0  0  0  0  0  0  0  0  0  0  0  0
   43.9824   34.7256   41.7898 H   0  0  0  0  0  0  0  0  0  0  0  0
  1  6  2  0
  2  1  1  0
  3  2  2  0
  3  4  1  0
  4  5  2  0
  5  6  1  0
  7  8  2  0
  7  2  1  0
  9  7  1  0
  1 10  1  0
  3 11  1  0
  5 12  1  0
  9 13  1  0
M  ISO  4  10  14  11  14  12  14  13   3
M  END
>  <minimizedAffinity>  (1) 
-3.11624122

>  <minimizedRMSD>  (1) 
0.112644874

$$$$
