
     RDKit          3D

 42 45  0  0  1  0  0  0  0  0999 V2000
   45.1330   35.1960   43.0930 C   0  0  0  0  0  0  0  0  0  0  0  0
   45.3630   36.4320   43.1320 O   0  0  0  0  0  0  0  0  0  0  0  0
   44.3940   34.8310   41.9200 N   0  0  0  0  0  0  0  0  0  0  0  0
   43.3080   35.6950   41.5710 C   0  0  0  0  0  0  0  0  0  0  0  0
   42.1460   34.7180   41.2930 C   0  0  0  0  0  0  0  0  0  0  0  0
   42.5480   34.0850   40.0430 N   0  0  0  0  0  0  0  0  0  0  0  0
   43.5990   33.1420   40.3240 C   0  0  0  0  0  0  0  0  0  0  0  0
   44.7170   33.6600   41.1410 C   0  0  1  0  0  0  0  0  0  0  0  0
   45.9810   33.8830   40.4070 C   0  0  0  0  0  0  0  0  0  0  0  0
   47.0390   34.5820   40.9690 C   0  0  0  0  0  0  0  0  0  0  0  0
   48.2430   34.8130   40.3430 C   0  0  0  0  0  0  0  0  0  0  0  0
   48.4460   34.3300   39.0740 C   0  0  0  0  0  0  0  0  0  0  0  0
   47.4290   33.6260   38.4640 C   0  0  0  0  0  0  0  0  0  0  0  0
   47.6560   33.1610   37.2010 C   0  0  0  0  0  0  0  0  0  0  0  0
   46.6680   32.4570   36.5510 C   0  0  0  0  0  0  0  0  0  0  0  0
   45.4630   32.2340   37.1930 C   0  0  0  0  0  0  0  0  0  0  0  0
   45.2940   32.7290   38.4670 C   0  0  0  0  0  0  0  0  0  0  0  0
   46.2480   33.4300   39.1420 C   0  0  0  0  0  0  0  0  0  0  0  0
   45.0030   34.5040   45.4370 C   0  0  0  0  0  0  0  0  0  0  0  0
   45.6210   34.4020   44.1710 C   0  0  0  0  0  0  0  0  0  0  0  0
   46.6760   33.5210   44.0440 C   0  0  0  0  0  0  0  0  0  0  0  0
   47.0800   32.7900   45.1220 N   0  0  0  0  0  0  0  0  0  0  0  0
   46.4680   32.9070   46.3260 C   0  0  0  0  0  0  0  0  0  0  0  0
   45.4240   33.7680   46.4840 N   0  0  0  0  0  0  0  0  0  0  0  0
   43.0619   36.3726   42.4019 H   0  0  0  0  0  0  0  0  0  0  0  0
   43.5360   36.3450   40.7134 H   0  0  0  0  0  0  0  0  0  0  0  0
   42.0503   33.9764   42.0998 H   0  0  0  0  0  0  0  0  0  0  0  0
   41.1654   35.2131   41.2347 H   0  0  0  0  0  0  0  0  0  0  0  0
   42.8901   34.8005   39.3858 H   0  0  0  0  0  0  0  0  0  0  0  0
   43.1552   32.2892   40.8587 H   0  0  0  0  0  0  0  0  0  0  0  0
   44.0348   32.8762   39.3496 H   0  0  0  0  0  0  0  0  0  0  0  0
   44.8878   32.8247   41.8361 H   0  0  0  0  0  0  0  0  0  0  0  0
   46.9067   34.9796   41.9861 H   0  0  0  0  0  0  0  0  0  0  0  0
   49.0351   35.3793   40.8547 H   0  0  0  0  0  0  0  0  0  0  0  0
   49.4003   34.5010   38.5544 H   0  0  0  0  0  0  0  0  0  0  0  0
   48.6208   33.3474   36.7066 H   0  0  0  0  0  0  0  0  0  0  0  0
   46.8346   32.0760   35.5326 H   0  0  0  0  0  0  0  0  0  0  0  0
   44.6572   31.6734   36.6966 H   0  0  0  0  0  0  0  0  0  0  0  0
   44.3323   32.5479   38.9693 H   0  0  0  0  0  0  0  0  0  0  0  0
   44.1607   35.1986   45.5708 H   0  0  0  0  0  0  0  0  0  0  0  0
   47.1887   33.4090   43.0773 H   0  0  0  0  0  0  0  0  0  0  0  0
   46.8155   32.3047   47.1783 H   0  0  0  0  0  0  0  0  0  0  0  0
  1  2  2  0
  1 20  1  0
  3  1  1  0
  4  3  1  0
  5  4  1  0
  6  7  1  0
  6  5  1  0
  7  8  1  0
  8  3  1  0
  9 10  2  0
  9  8  1  0
 11 10  1  0
 12 11  2  0
 13 12  1  0
 13 18  2  0
 14 13  1  0
 15 16  1  0
 15 14  2  0
 16 17  2  0
 17 18  1  0
 18  9  1  0
 19 24  2  0
 20 19  1  0
 21 20  2  0
 21 22  1  0
 22 23  2  0
 23 24  1  0
  4 25  1  0
  4 26  1  0
  5 27  1  0
  5 28  1  0
  6 29  1  0
  7 30  1  0
  7 31  1  0
  8 32  1  1
 10 33  1  0
 11 34  1  0
 12 35  1  0
 14 36  1  0
 15 37  1  0
 16 38  1  0
 17 39  1  0
 19 40  1  0
 21 41  1  0
 23 42  1  0
M  ISO  8  25  13  26  13  27  13  28  13  29   5  30  13  31  13  32  13
M  ISO  8  33  14  34  14  35  14  36  14  37  14  38  14  39  14  40  14
M  ISO  2  41  14  42  14
M  END
>  <minimizedAffinity>  (1) 
-6.18765831

>  <minimizedRMSD>  (1) 
1.32393348

$$$$
