
     RDKit          3D

 40 43  0  0  1  0  0  0  0  0999 V2000
   45.2920   35.1570   42.9000 C   0  0  0  0  0  0  0  0  0  0  0  0
   45.4580   36.3990   43.0110 O   0  0  0  0  0  0  0  0  0  0  0  0
   44.6160   34.8100   41.6850 N   0  0  0  0  0  0  0  0  0  0  0  0
   43.4970   35.6550   41.3350 C   0  0  0  0  0  0  0  0  0  0  0  0
   42.3990   34.6350   40.9640 C   0  0  0  0  0  0  0  0  0  0  0  0
   42.8700   34.0910   39.7020 N   0  0  0  0  0  0  0  0  0  0  0  0
   43.9320   33.1690   39.9930 C   0  0  0  0  0  0  0  0  0  0  0  0
   45.0070   33.7050   40.8640 C   0  0  1  0  0  0  0  0  0  0  0  0
   46.2930   33.9100   40.1470 C   0  0  0  0  0  0  0  0  0  0  0  0
   47.3500   34.5350   40.7860 C   0  0  0  0  0  0  0  0  0  0  0  0
   48.4100   34.6130   39.9540 N   0  0  0  0  0  0  0  0  0  0  0  0
   48.0790   34.0500   38.7680 C   0  0  0  0  0  0  0  0  0  0  0  0
   48.7250   33.8410   37.5720 C   0  0  0  0  0  0  0  0  0  0  0  0
   48.0450   33.2140   36.5510 C   0  0  0  0  0  0  0  0  0  0  0  0
   46.7390   32.7840   36.6800 C   0  0  0  0  0  0  0  0  0  0  0  0
   46.0680   32.9860   37.8820 C   0  0  0  0  0  0  0  0  0  0  0  0
   46.7740   33.6170   38.8860 C   0  0  0  0  0  0  0  0  0  0  0  0
   45.1620   34.3960   45.2230 C   0  0  0  0  0  0  0  0  0  0  0  0
   45.7820   34.3320   43.9560 C   0  0  0  0  0  0  0  0  0  0  0  0
   46.8390   33.4580   43.8000 C   0  0  0  0  0  0  0  0  0  0  0  0
   47.2420   32.6970   44.8610 N   0  0  0  0  0  0  0  0  0  0  0  0
   46.6220   32.7840   46.0660 C   0  0  0  0  0  0  0  0  0  0  0  0
   45.5760   33.6370   46.2510 N   0  0  0  0  0  0  0  0  0  0  0  0
   43.1880   36.2765   42.1884 H   0  0  0  0  0  0  0  0  0  0  0  0
   43.7239   36.3637   40.5249 H   0  0  0  0  0  0  0  0  0  0  0  0
   42.3168   33.8476   41.7277 H   0  0  0  0  0  0  0  0  0  0  0  0
   41.3968   35.0832   40.8953 H   0  0  0  0  0  0  0  0  0  0  0  0
   43.2200   34.8509   39.1013 H   0  0  0  0  0  0  0  0  0  0  0  0
   43.4948   32.2913   40.4915 H   0  0  0  0  0  0  0  0  0  0  0  0
   44.4066   32.9327   39.0292 H   0  0  0  0  0  0  0  0  0  0  0  0
   45.2012   32.9015   41.5897 H   0  0  0  0  0  0  0  0  0  0  0  0
   47.3292   34.9123   41.8191 H   0  0  0  0  0  0  0  0  0  0  0  0
   49.3222   35.0325   40.1839 H   0  0  0  0  0  0  0  0  0  0  0  0
   49.7659   34.1686   37.4331 H   0  0  0  0  0  0  0  0  0  0  0  0
   48.5631   33.0493   35.5947 H   0  0  0  0  0  0  0  0  0  0  0  0
   46.2335   32.2860   35.8395 H   0  0  0  0  0  0  0  0  0  0  0  0
   45.0274   32.6593   38.0248 H   0  0  0  0  0  0  0  0  0  0  0  0
   44.3179   35.0854   45.3721 H   0  0  0  0  0  0  0  0  0  0  0  0
   47.3521   33.3749   42.8306 H   0  0  0  0  0  0  0  0  0  0  0  0
   46.9682   32.1587   46.9021 H   0  0  0  0  0  0  0  0  0  0  0  0
  1  2  2  0
  1 19  1  0
  3  1  1  0
  4  3  1  0
  5  4  1  0
  6  7  1  0
  6  5  1  0
  7  8  1  0
  8  3  1  0
  9 10  2  0
  9  8  1  0
 11 10  1  0
 12 17  2  0
 12 11  1  0
 13 12  1  0
 14 15  1  0
 14 13  2  0
 15 16  2  0
 16 17  1  0
 17  9  1  0
 18 23  2  0
 19 18  1  0
 20 19  2  0
 20 21  1  0
 21 22  2  0
 22 23  1  0
  4 24  1  0
  4 25  1  0
  5 26  1  0
  5 27  1  0
  6 28  1  0
  7 29  1  0
  7 30  1  0
  8 31  1  1
 10 32  1  0
 11 33  1  0
 13 34  1  0
 14 35  1  0
 15 36  1  0
 16 37  1  0
 18 38  1  0
 20 39  1  0
 22 40  1  0
M  ISO  8  24  13  25  13  26  13  27  13  28   5  29  13  30  13  31  13
M  ISO  8  32  14  33   9  34  14  35  14  36  14  37  14  38  14  39  14
M  ISO  1  40  14
M  END
>  <minimizedAffinity>  (1) 
-6.11238813

>  <minimizedRMSD>  (1) 
0.912166834

$$$$
