
     RDKit          3D

 40 43  0  0  1  0  0  0  0  0999 V2000
   46.5830   30.9020   45.8860 C   0  0  0  0  0  0  0  0  0  0  0  0
   45.4420   30.3790   46.0860 O   0  0  0  0  0  0  0  0  0  0  0  0
   46.6990   31.3700   44.5460 N   0  0  0  0  0  0  0  0  0  0  0  0
   46.2050   30.5100   43.5170 C   0  0  0  0  0  0  0  0  0  0  0  0
   47.3600   30.4850   42.4900 C   0  0  0  0  0  0  0  0  0  0  0  0
   47.3330   31.8280   41.9200 N   0  0  0  0  0  0  0  0  0  0  0  0
   47.9120   32.7170   42.8800 C   0  0  0  0  0  0  0  0  0  0  0  0
   47.2890   32.6490   44.2330 C   0  0  1  0  0  0  0  0  0  0  0  0
   46.2180   33.6310   44.3080 C   0  0  0  0  0  0  0  0  0  0  0  0
   45.8180   34.0950   45.5240 N   0  0  0  0  0  0  0  0  0  0  0  0
   44.8330   35.0040   45.6750 C   0  0  0  0  0  0  0  0  0  0  0  0
   44.1910   35.5020   44.6030 N   0  0  0  0  0  0  0  0  0  0  0  0
   44.5140   35.1070   43.3700 C   0  0  0  0  0  0  0  0  0  0  0  0
   43.8750   35.5990   42.2520 C   0  0  0  0  0  0  0  0  0  0  0  0
   44.2240   35.1770   40.9760 C   0  0  0  0  0  0  0  0  0  0  0  0
   45.2450   34.2360   40.8550 C   0  0  0  0  0  0  0  0  0  0  0  0
   45.8740   33.7560   41.9860 C   0  0  0  0  0  0  0  0  0  0  0  0
   45.5160   34.1840   43.2470 C   0  0  0  0  0  0  0  0  0  0  0  0
   47.4870   32.0160   47.8740 C   0  0  0  0  0  0  0  0  0  0  0  0
   47.4840   30.9160   46.9880 C   0  0  0  0  0  0  0  0  0  0  0  0
   48.3670   29.8860   47.2460 C   0  0  0  0  0  0  0  0  0  0  0  0
   49.1980   29.9630   48.3270 N   0  0  0  0  0  0  0  0  0  0  0  0
   49.1700   31.0370   49.1560 C   0  0  0  0  0  0  0  0  0  0  0  0
   48.3130   32.0700   48.9320 N   0  0  0  0  0  0  0  0  0  0  0  0
   46.0040   29.5019   43.9086 H   0  0  0  0  0  0  0  0  0  0  0  0
   45.2536   30.8559   43.0867 H   0  0  0  0  0  0  0  0  0  0  0  0
   48.3224   30.2862   42.9843 H   0  0  0  0  0  0  0  0  0  0  0  0
   47.2458   29.6945   41.7337 H   0  0  0  0  0  0  0  0  0  0  0  0
   47.8789   31.8500   41.0469 H   0  0  0  0  0  0  0  0  0  0  0  0
   48.9791   32.4693   42.9792 H   0  0  0  0  0  0  0  0  0  0  0  0
   47.7431   33.7377   42.5063 H   0  0  0  0  0  0  0  0  0  0  0  0
   48.1035   32.8348   44.9486 H   0  0  0  0  0  0  0  0  0  0  0  0
   44.5522   35.3411   46.6837 H   0  0  0  0  0  0  0  0  0  0  0  0
   43.0722   36.3411   42.3732 H   0  0  0  0  0  0  0  0  0  0  0  0
   43.7103   35.5733   40.0877 H   0  0  0  0  0  0  0  0  0  0  0  0
   45.5488   33.8768   39.8607 H   0  0  0  0  0  0  0  0  0  0  0  0
   46.6797   33.0148   41.8789 H   0  0  0  0  0  0  0  0  0  0  0  0
   46.7942   32.8510   47.6928 H   0  0  0  0  0  0  0  0  0  0  0  0
   48.4008   29.0080   46.5842 H   0  0  0  0  0  0  0  0  0  0  0  0
   49.8491   31.0730   50.0206 H   0  0  0  0  0  0  0  0  0  0  0  0
  1  2  2  0
  1 20  1  0
  3  1  1  0
  4  3  1  0
  5  4  1  0
  6  5  1  0
  6  7  1  0
  7  8  1  0
  8  9  1  0
  8  3  1  0
  9 10  2  0
 10 11  1  0
 12 11  2  0
 13 12  1  0
 14 13  2  0
 15 14  1  0
 16 15  2  0
 16 17  1  0
 17 18  2  0
 18 13  1  0
 18  9  1  0
 19 24  2  0
 20 21  2  0
 20 19  1  0
 21 22  1  0
 22 23  2  0
 24 23  1  0
  4 25  1  0
  4 26  1  0
  5 27  1  0
  5 28  1  0
  6 29  1  0
  7 30  1  0
  7 31  1  0
  8 32  1  1
 11 33  1  0
 14 34  1  0
 15 35  1  0
 16 36  1  0
 17 37  1  0
 19 38  1  0
 21 39  1  0
 23 40  1  0
M  ISO  8  25  13  26  13  27  13  28  13  29   5  30  13  31  13  32  13
M  ISO  8  33  14  34  14  35  14  36  14  37  14  38  14  39  14  40  14
M  END
>  <minimizedAffinity>  (1) 
-5.35787201

>  <minimizedRMSD>  (1) 
5.42051268

$$$$
