
     RDKit          3D

 33 34  0  0  1  0  0  0  0  0999 V2000
   45.5030   34.0930   44.5250 C   0  0  0  0  0  0  0  0  0  0  0  0
   45.0640   35.0350   45.2340 O   0  0  0  0  0  0  0  0  0  0  0  0
   45.4350   34.4080   43.1300 N   0  0  0  0  0  0  0  0  0  0  0  0
   44.2200   35.0420   42.6870 C   0  0  0  0  0  0  0  0  0  0  0  0
   43.8430   34.2330   41.4260 C   0  0  0  0  0  0  0  0  0  0  0  0
   44.8580   34.6270   40.4540 N   0  0  0  0  0  0  0  0  0  0  0  0
   46.0780   33.9680   40.7960 C   0  0  0  0  0  0  0  0  0  0  0  0
   46.5010   34.1150   42.2100 C   0  0  1  0  0  0  0  0  0  0  0  0
   46.6140   33.0650   46.4490 C   0  0  0  0  0  0  0  0  0  0  0  0
   45.9710   32.9280   45.2000 C   0  0  0  0  0  0  0  0  0  0  0  0
   45.8140   31.6530   44.6860 C   0  0  0  0  0  0  0  0  0  0  0  0
   46.2820   30.5830   45.3980 N   0  0  0  0  0  0  0  0  0  0  0  0
   46.8960   30.7500   46.5960 C   0  0  0  0  0  0  0  0  0  0  0  0
   47.0640   31.9930   47.1270 N   0  0  0  0  0  0  0  0  0  0  0  0
   47.6540   34.9780   42.3650 N   0  0  0  0  0  0  0  0  0  0  0  0
   48.8760   34.3400   42.7090 C   0  0  0  0  0  0  0  0  0  0  0  0
   49.1040   33.0910   42.7880 N   0  0  0  0  0  0  0  0  0  0  0  0
   49.9930   35.1830   43.0050 N   0  0  0  0  0  0  0  0  0  0  0  0
   49.9760   32.6170   43.0330 H   0  0  0  0  0  0  0  0  0  0  0  0
   43.4341   34.9684   43.4531 H   0  0  0  0  0  0  0  0  0  0  0  0
   44.3400   36.1177   42.4910 H   0  0  0  0  0  0  0  0  0  0  0  0
   43.8869   33.1519   41.6244 H   0  0  0  0  0  0  0  0  0  0  0  0
   42.8178   34.4310   41.0799 H   0  0  0  0  0  0  0  0  0  0  0  0
   44.9922   35.6478   40.4835 H   0  0  0  0  0  0  0  0  0  0  0  0
   45.9550   32.8950   40.5875 H   0  0  0  0  0  0  0  0  0  0  0  0
   46.8628   34.4463   40.1916 H   0  0  0  0  0  0  0  0  0  0  0  0
   46.8319   33.1089   42.5069 H   0  0  0  0  0  0  0  0  0  0  0  0
   46.7502   34.0690   46.8772 H   0  0  0  0  0  0  0  0  0  0  0  0
   45.3184   31.5016   43.7157 H   0  0  0  0  0  0  0  0  0  0  0  0
   47.2628   29.8705   47.1455 H   0  0  0  0  0  0  0  0  0  0  0  0
   47.5915   35.9976   42.2331 H   0  0  0  0  0  0  0  0  0  0  0  0
   50.8998   34.7660   43.2595 H   0  0  0  0  0  0  0  0  0  0  0  0
   49.8906   36.2071   42.9636 H   0  0  0  0  0  0  0  0  0  0  0  0
  1 10  1  0
  1  2  2  0
  3  1  1  0
  4  3  1  0
  5  4  1  0
  6  7  1  0
  6  5  1  0
  7  8  1  0
  8 15  1  0
  8  3  1  0
  9 14  2  0
 10  9  1  0
 11 10  2  0
 11 12  1  0
 12 13  2  0
 13 14  1  0
 15 16  1  0
 16 17  2  0
 16 18  1  0
 17 19  1  0
  4 20  1  0
  4 21  1  0
  5 22  1  0
  5 23  1  0
  6 24  1  0
  7 25  1  0
  7 26  1  0
  8 27  1  1
  9 28  1  0
 11 29  1  0
 13 30  1  0
 15 31  1  0
 18 32  1  0
 18 33  1  0
M  ISO  8  20  13  21  13  22  13  23  13  24   5  25  13  26  13  27  13
M  ISO  3  28  14  29  14  30  14
M  END
>  <minimizedAffinity>  (1) 
-5.31442165

>  <minimizedRMSD>  (1) 
2.46986032

$$$$
