
     RDKit          3D

 37 39  0  0  1  0  0  0  0  0999 V2000
   43.8660   34.5370   41.0570 C   0  0  0  0  0  0  0  0  0  0  0  0
   43.4820   35.6570   40.6360 O   0  0  0  0  0  0  0  0  0  0  0  0
   43.7230   33.5210   40.0570 N   0  0  0  0  0  0  0  0  0  0  0  0
   42.5000   33.5440   39.3040 C   0  0  0  0  0  0  0  0  0  0  0  0
   42.0370   32.0690   39.3350 C   0  0  0  0  0  0  0  0  0  0  0  0
   42.9960   31.3930   38.4830 N   0  0  0  0  0  0  0  0  0  0  0  0
   44.2340   31.2720   39.1950 C   0  0  0  0  0  0  0  0  0  0  0  0
   44.7330   32.5280   39.8120 C   0  0  1  0  0  0  0  0  0  0  0  0
   45.9240   33.0760   39.1910 N   0  0  0  0  0  0  0  0  0  0  0  0
   46.9800   33.4800   39.9360 C   0  0  0  0  0  0  0  0  0  0  0  0
   48.1390   34.0090   39.4040 C   0  0  0  0  0  0  0  0  0  0  0  0
   48.2030   34.1240   38.0290 C   0  0  0  0  0  0  0  0  0  0  0  0
   49.3570   34.6580   37.3810 N   0  0  0  0  0  0  0  0  0  0  0  0
   47.1750   33.7320   37.2810 N   0  0  0  0  0  0  0  0  0  0  0  0
   46.0730   33.2240   37.8640 C   0  0  0  0  0  0  0  0  0  0  0  0
   45.1080   32.8580   37.1410 O   0  0  0  0  0  0  0  0  0  0  0  0
   44.3670   35.6420   43.1860 C   0  0  0  0  0  0  0  0  0  0  0  0
   44.3540   34.4700   42.3970 C   0  0  0  0  0  0  0  0  0  0  0  0
   44.8110   33.2960   42.9650 C   0  0  0  0  0  0  0  0  0  0  0  0
   45.2550   33.3180   44.2660 N   0  0  0  0  0  0  0  0  0  0  0  0
   45.2520   34.4540   44.9880 C   0  0  0  0  0  0  0  0  0  0  0  0
   44.8090   35.6270   44.4560 N   0  0  0  0  0  0  0  0  0  0  0  0
   42.6788   33.8795   38.2718 H   0  0  0  0  0  0  0  0  0  0  0  0
   41.7533   34.2389   39.7159 H   0  0  0  0  0  0  0  0  0  0  0  0
   42.0703   31.6683   40.3589 H   0  0  0  0  0  0  0  0  0  0  0  0
   40.9985   31.9397   38.9963 H   0  0  0  0  0  0  0  0  0  0  0  0
   43.1424   31.9403   37.6228 H   0  0  0  0  0  0  0  0  0  0  0  0
   44.0951   30.5309   39.9960 H   0  0  0  0  0  0  0  0  0  0  0  0
   44.9876   30.9769   38.4500 H   0  0  0  0  0  0  0  0  0  0  0  0
   45.0556   32.1970   40.8102 H   0  0  0  0  0  0  0  0  0  0  0  0
   46.9104   33.3809   41.0293 H   0  0  0  0  0  0  0  0  0  0  0  0
   48.9742   34.3248   40.0465 H   0  0  0  0  0  0  0  0  0  0  0  0
   49.3820   34.7342   36.3541 H   0  0  0  0  0  0  0  0  0  0  0  0
   50.1648   34.9672   37.9402 H   0  0  0  0  0  0  0  0  0  0  0  0
   44.0079   36.5869   42.7522 H   0  0  0  0  0  0  0  0  0  0  0  0
   44.8194   32.3605   42.3864 H   0  0  0  0  0  0  0  0  0  0  0  0
   45.6139   34.4347   46.0266 H   0  0  0  0  0  0  0  0  0  0  0  0
  1 18  1  0
  2  1  2  0
  3  1  1  0
  4  5  1  0
  4  3  1  0
  6  7  1  0
  6  5  1  0
  7  8  1  0
  8  3  1  0
  9  8  1  0
  9 10  1  0
 11 10  2  0
 12 11  1  0
 13 12  1  0
 14 15  1  0
 14 12  2  0
 15  9  1  0
 16 15  2  0
 17 22  2  0
 18 19  2  0
 18 17  1  0
 19 20  1  0
 20 21  2  0
 22 21  1  0
  4 23  1  0
  4 24  1  0
  5 25  1  0
  5 26  1  0
  6 27  1  0
  7 28  1  0
  7 29  1  0
  8 30  1  1
 10 31  1  0
 11 32  1  0
 13 33  1  0
 13 34  1  0
 17 35  1  0
 19 36  1  0
 21 37  1  0
M  ISO  8  23  13  24  13  25  13  26  13  27   5  28  13  29  13  30  13
M  ISO  5  31  14  32  14  35  14  36  14  37  14
M  END
>  <minimizedAffinity>  (1) 
-5.27638674

>  <minimizedRMSD>  (1) 
2.4671185

$$$$
