
     RDKit          3D

 40 42  0  0  1  0  0  0  0  0999 V2000
   45.2680   35.3310   42.9920 C   0  0  0  0  0  0  0  0  0  0  0  0
   45.3790   36.5880   43.0780 O   0  0  0  0  0  0  0  0  0  0  0  0
   44.7990   34.9260   41.7000 N   0  0  0  0  0  0  0  0  0  0  0  0
   43.7120   35.7050   41.1670 C   0  0  0  0  0  0  0  0  0  0  0  0
   42.7260   34.6350   40.6580 C   0  0  0  0  0  0  0  0  0  0  0  0
   43.4170   34.0900   39.4960 N   0  0  0  0  0  0  0  0  0  0  0  0
   44.4400   33.2050   39.9880 C   0  0  0  0  0  0  0  0  0  0  0  0
   45.3590   33.8220   40.9810 C   0  0  1  0  0  0  0  0  0  0  0  0
   44.8810   34.7400   45.3340 C   0  0  0  0  0  0  0  0  0  0  0  0
   45.6130   34.5630   44.1390 C   0  0  0  0  0  0  0  0  0  0  0  0
   46.6360   33.6370   44.1410 C   0  0  0  0  0  0  0  0  0  0  0  0
   46.9050   32.9300   45.2820 N   0  0  0  0  0  0  0  0  0  0  0  0
   46.1830   33.1240   46.4130 C   0  0  0  0  0  0  0  0  0  0  0  0
   45.1690   34.0300   46.4400 N   0  0  0  0  0  0  0  0  0  0  0  0
   46.6850   34.0760   40.5150 N   0  0  0  0  0  0  0  0  0  0  0  0
   46.8760   33.8980   39.1100 C   0  0  0  0  0  0  0  0  0  0  0  0
   48.3380   34.1880   38.8180 C   0  0  0  0  0  0  0  0  0  0  0  0
   49.0770   33.0630   39.3310 N   0  0  0  0  0  0  0  0  0  0  0  0
   48.7060   32.6640   40.6550 C   0  0  0  0  0  0  0  0  0  0  0  0
   47.7240   33.5530   41.3360 C   0  0  0  0  0  0  0  0  0  0  0  0
   43.2509   36.3255   41.9496 H   0  0  0  0  0  0  0  0  0  0  0  0
   44.0295   36.4066   40.3815 H   0  0  0  0  0  0  0  0  0  0  0  0
   42.5556   33.8587   41.4185 H   0  0  0  0  0  0  0  0  0  0  0  0
   41.7286   35.0360   40.4246 H   0  0  0  0  0  0  0  0  0  0  0  0
   43.8423   34.8518   38.9485 H   0  0  0  0  0  0  0  0  0  0  0  0
   43.9497   32.3421   40.4624 H   0  0  0  0  0  0  0  0  0  0  0  0
   45.0563   32.9242   39.1212 H   0  0  0  0  0  0  0  0  0  0  0  0
   45.4806   33.0178   41.7215 H   0  0  0  0  0  0  0  0  0  0  0  0
   44.0603   35.4719   45.3609 H   0  0  0  0  0  0  0  0  0  0  0  0
   47.2315   33.4680   43.2317 H   0  0  0  0  0  0  0  0  0  0  0  0
   46.4194   32.5434   47.3169 H   0  0  0  0  0  0  0  0  0  0  0  0
   46.6319   32.8643   38.8240 H   0  0  0  0  0  0  0  0  0  0  0  0
   46.2212   34.5713   38.5374 H   0  0  0  0  0  0  0  0  0  0  0  0
   48.4985   34.2885   37.7344 H   0  0  0  0  0  0  0  0  0  0  0  0
   48.6627   35.1296   39.2849 H   0  0  0  0  0  0  0  0  0  0  0  0
   48.9256   32.2635   38.6996 H   0  0  0  0  0  0  0  0  0  0  0  0
   48.2686   31.6564   40.5963 H   0  0  0  0  0  0  0  0  0  0  0  0
   49.6262   32.7106   41.2558 H   0  0  0  0  0  0  0  0  0  0  0  0
   48.2775   34.4030   41.7616 H   0  0  0  0  0  0  0  0  0  0  0  0
   47.2225   32.9234   42.0858 H   0  0  0  0  0  0  0  0  0  0  0  0
  1  2  2  0
  1 10  1  0
  3  1  1  0
  4  3  1  0
  5  4  1  0
  6  7  1  0
  6  5  1  0
  7  8  1  0
  8  3  1  0
  9 14  2  0
 10 11  2  0
 10  9  1  0
 11 12  1  0
 12 13  2  0
 13 14  1  0
 15  8  1  0
 15 20  1  0
 16 15  1  0
 17 16  1  0
 17 18  1  0
 18 19  1  0
 19 20  1  0
  4 21  1  0
  4 22  1  0
  5 23  1  0
  5 24  1  0
  6 25  1  0
  7 26  1  0
  7 27  1  0
  8 28  1  1
  9 29  1  0
 11 30  1  0
 13 31  1  0
 16 32  1  0
 16 33  1  0
 17 34  1  0
 17 35  1  0
 18 36  1  0
 19 37  1  0
 19 38  1  0
 20 39  1  0
 20 40  1  0
M  ISO  8  21  13  22  13  23  13  24  13  25   5  26  13  27  13  28  13
M  ISO  8  29  14  30  14  31  14  32  13  33  13  34  13  35  13  36   5
M  ISO  4  37  13  38  13  39  13  40  13
M  END
>  <minimizedAffinity>  (1) 
-4.95318699

>  <minimizedRMSD>  (1) 
0.528653383

$$$$
