
     RDKit          3D

 29 30  0  0  1  0  0  0  0  0999 V2000
   45.5050   35.0290   43.2050 C   0  0  0  0  0  0  0  0  0  0  0  0
   45.2100   36.2320   43.4160 O   0  0  0  0  0  0  0  0  0  0  0  0
   45.4350   34.7120   41.8180 N   0  0  0  0  0  0  0  0  0  0  0  0
   44.2890   35.2270   41.1030 C   0  0  0  0  0  0  0  0  0  0  0  0
   43.7770   34.0000   40.3140 C   0  0  0  0  0  0  0  0  0  0  0  0
   44.8040   33.8070   39.2940 N   0  0  0  0  0  0  0  0  0  0  0  0
   45.9470   33.2210   39.9210 C   0  0  0  0  0  0  0  0  0  0  0  0
   46.4270   33.9270   41.1370 C   0  0  1  0  0  0  0  0  0  0  0  0
   45.1180   34.3810   45.5350 C   0  0  0  0  0  0  0  0  0  0  0  0
   45.8440   34.2250   44.3340 C   0  0  0  0  0  0  0  0  0  0  0  0
   46.8530   33.2820   44.3070 C   0  0  0  0  0  0  0  0  0  0  0  0
   47.1090   32.5410   45.4280 N   0  0  0  0  0  0  0  0  0  0  0  0
   46.3910   32.7180   46.5650 C   0  0  0  0  0  0  0  0  0  0  0  0
   45.3900   33.6410   46.6230 N   0  0  0  0  0  0  0  0  0  0  0  0
   47.6280   34.7730   40.9340 C   0  0  0  0  0  0  0  0  0  0  0  0
   48.1030   35.4670   41.8630 O   0  0  0  0  0  0  0  0  0  0  0  0
   48.5100   35.0840   39.9160 O   0  0  0  0  0  0  0  0  0  0  0  0
   43.5221   35.5940   41.8010 H   0  0  0  0  0  0  0  0  0  0  0  0
   44.5356   36.0813   40.4554 H   0  0  0  0  0  0  0  0  0  0  0  0
   43.6973   33.1173   40.9655 H   0  0  0  0  0  0  0  0  0  0  0  0
   42.7720   34.1473   39.8918 H   0  0  0  0  0  0  0  0  0  0  0  0
   45.0598   34.7147   38.8798 H   0  0  0  0  0  0  0  0  0  0  0  0
   45.6896   32.1898   40.2044 H   0  0  0  0  0  0  0  0  0  0  0  0
   46.7646   33.2812   39.1876 H   0  0  0  0  0  0  0  0  0  0  0  0
   46.6978   33.0741   41.7767 H   0  0  0  0  0  0  0  0  0  0  0  0
   44.3103   35.1263   45.5810 H   0  0  0  0  0  0  0  0  0  0  0  0
   47.4450   33.1284   43.3927 H   0  0  0  0  0  0  0  0  0  0  0  0
   46.6196   32.1087   47.4518 H   0  0  0  0  0  0  0  0  0  0  0  0
   49.2557   35.7136   40.0822 H   0  0  0  0  0  0  0  0  0  0  0  0
  1  2  2  0
  1 10  1  0
  3  1  1  0
  4  3  1  0
  5  4  1  0
  6  7  1  0
  6  5  1  0
  7  8  1  0
  8  3  1  0
  9 14  2  0
 10  9  1  0
 11 10  2  0
 11 12  1  0
 12 13  2  0
 13 14  1  0
 15  8  1  0
 15 16  2  0
 17 15  1  0
  4 18  1  0
  4 19  1  0
  5 20  1  0
  5 21  1  0
  6 22  1  0
  7 23  1  0
  7 24  1  0
  8 25  1  1
  9 26  1  0
 11 27  1  0
 13 28  1  0
 17 29  1  0
M  ISO  8  18  13  19  13  20  13  21  13  22   5  23  13  24  13  25  13
M  ISO  4  26  14  27  14  28  14  29   3
M  END
>  <minimizedAffinity>  (1) 
-4.93758726

>  <minimizedRMSD>  (1) 
0.948500931

$$$$
