
     RDKit          3D

 29 30  0  0  1  0  0  0  0  0999 V2000
   45.1970   35.1830   43.7980 C   0  0  0  0  0  0  0  0  0  0  0  0
   45.0330   36.4300   43.9890 O   0  0  0  0  0  0  0  0  0  0  0  0
   45.2400   34.8560   42.4050 N   0  0  0  0  0  0  0  0  0  0  0  0
   44.2240   35.5110   41.5980 C   0  0  0  0  0  0  0  0  0  0  0  0
   43.6220   34.3570   40.7670 C   0  0  0  0  0  0  0  0  0  0  0  0
   44.7180   34.0240   39.8470 N   0  0  0  0  0  0  0  0  0  0  0  0
   45.6910   33.2800   40.5820 C   0  0  0  0  0  0  0  0  0  0  0  0
   46.1770   33.9710   41.8290 C   0  0  1  0  0  0  0  0  0  0  0  0
   44.6550   34.7410   46.1510 C   0  0  0  0  0  0  0  0  0  0  0  0
   45.3050   34.3660   44.9570 C   0  0  0  0  0  0  0  0  0  0  0  0
   46.0260   33.1910   44.9750 C   0  0  0  0  0  0  0  0  0  0  0  0
   46.0950   32.4340   46.1100 N   0  0  0  0  0  0  0  0  0  0  0  0
   45.4550   32.8320   47.2350 C   0  0  0  0  0  0  0  0  0  0  0  0
   44.7310   33.9880   47.2620 N   0  0  0  0  0  0  0  0  0  0  0  0
   47.4800   34.7180   41.5710 C   0  0  0  0  0  0  0  0  0  0  0  0
   47.4750   35.9890   42.1190 F   0  0  0  0  0  0  0  0  0  0  0  0
   47.6910   34.8590   40.2180 F   0  0  0  0  0  0  0  0  0  0  0  0
   48.5220   33.9780   42.1500 F   0  0  0  0  0  0  0  0  0  0  0  0
   43.4579   35.9783   42.2342 H   0  0  0  0  0  0  0  0  0  0  0  0
   44.6298   36.3210   40.9741 H   0  0  0  0  0  0  0  0  0  0  0  0
   43.3643   33.4993   41.4057 H   0  0  0  0  0  0  0  0  0  0  0  0
   42.6860   34.6260   40.2556 H   0  0  0  0  0  0  0  0  0  0  0  0
   45.1415   34.8877   39.4787 H   0  0  0  0  0  0  0  0  0  0  0  0
   45.2440   32.3176   40.8718 H   0  0  0  0  0  0  0  0  0  0  0  0
   46.5641   33.1605   39.9236 H   0  0  0  0  0  0  0  0  0  0  0  0
   46.3388   33.1603   42.5546 H   0  0  0  0  0  0  0  0  0  0  0  0
   44.0712   35.6730   46.1738 H   0  0  0  0  0  0  0  0  0  0  0  0
   46.5507   32.8599   44.0667 H   0  0  0  0  0  0  0  0  0  0  0  0
   45.5199   32.2131   48.1420 H   0  0  0  0  0  0  0  0  0  0  0  0
  1  2  2  0
  1 10  1  0
  3  1  1  0
  4  3  1  0
  5  4  1  0
  6  7  1  0
  6  5  1  0
  7  8  1  0
  8  3  1  0
  9 14  2  0
 10 11  2  0
 10  9  1  0
 11 12  1  0
 12 13  2  0
 13 14  1  0
 15  8  1  0
 15 16  1  0
 15 18  1  0
 17 15  1  0
  4 19  1  0
  4 20  1  0
  5 21  1  0
  5 22  1  0
  6 23  1  0
  7 24  1  0
  7 25  1  0
  8 26  1  1
  9 27  1  0
 11 28  1  0
 13 29  1  0
M  ISO  8  19  13  20  13  21  13  22  13  23   5  24  13  25  13  26  13
M  ISO  3  27  14  28  14  29  14
M  END
>  <minimizedAffinity>  (1) 
-4.92301702

>  <minimizedRMSD>  (1) 
1.37222683

$$$$
