
     RDKit          3D

 36 38  0  0  1  0  0  0  0  0999 V2000
   45.9160   34.4990   43.0600 C   0  0  0  0  0  0  0  0  0  0  0  0
   46.2100   35.7160   42.9530 O   0  0  0  0  0  0  0  0  0  0  0  0
   45.5120   33.9090   41.8180 N   0  0  0  0  0  0  0  0  0  0  0  0
   44.6270   34.7070   41.0170 C   0  0  0  0  0  0  0  0  0  0  0  0
   43.5220   33.7020   40.6110 C   0  0  0  0  0  0  0  0  0  0  0  0
   44.2030   32.8450   39.6610 N   0  0  0  0  0  0  0  0  0  0  0  0
   45.0860   31.9620   40.3850 C   0  0  0  0  0  0  0  0  0  0  0  0
   45.9450   32.6100   41.4070 C   0  0  1  0  0  0  0  0  0  0  0  0
   45.1470   34.3350   45.3820 C   0  0  0  0  0  0  0  0  0  0  0  0
   46.0280   33.9180   44.3600 C   0  0  0  0  0  0  0  0  0  0  0  0
   46.9560   32.9500   44.6880 C   0  0  0  0  0  0  0  0  0  0  0  0
   46.9930   32.4440   45.9540 N   0  0  0  0  0  0  0  0  0  0  0  0
   46.1310   32.8690   46.9100 C   0  0  0  0  0  0  0  0  0  0  0  0
   45.2000   33.8230   46.6240 N   0  0  0  0  0  0  0  0  0  0  0  0
   47.3200   32.4560   41.0800 N   0  0  0  0  0  0  0  0  0  0  0  0
   48.0450   31.5420   41.7940 C   0  0  0  0  0  0  0  0  0  0  0  0
   49.3780   31.3270   41.5470 C   0  0  0  0  0  0  0  0  0  0  0  0
   50.0410   32.0360   40.5570 C   0  0  0  0  0  0  0  0  0  0  0  0
   51.2640   31.8230   40.3480 O   0  0  0  0  0  0  0  0  0  0  0  0
   49.3140   32.9230   39.8720 N   0  0  0  0  0  0  0  0  0  0  0  0
   48.0240   33.1070   40.1370 C   0  0  0  0  0  0  0  0  0  0  0  0
   47.3830   33.9540   39.4650 O   0  0  0  0  0  0  0  0  0  0  0  0
   44.2085   35.5400   41.6009 H   0  0  0  0  0  0  0  0  0  0  0  0
   45.1257   35.1741   40.1549 H   0  0  0  0  0  0  0  0  0  0  0  0
   43.1690   33.1282   41.4805 H   0  0  0  0  0  0  0  0  0  0  0  0
   42.6241   34.1845   40.1975 H   0  0  0  0  0  0  0  0  0  0  0  0
   44.7499   33.4206   39.0049 H   0  0  0  0  0  0  0  0  0  0  0  0
   44.4678   31.2067   40.8922 H   0  0  0  0  0  0  0  0  0  0  0  0
   45.7739   31.5437   39.6354 H   0  0  0  0  0  0  0  0  0  0  0  0
   45.8169   32.0646   42.3536 H   0  0  0  0  0  0  0  0  0  0  0  0
   44.3933   35.1033   45.1546 H   0  0  0  0  0  0  0  0  0  0  0  0
   47.6648   32.5872   43.9291 H   0  0  0  0  0  0  0  0  0  0  0  0
   46.1830   32.4417   47.9223 H   0  0  0  0  0  0  0  0  0  0  0  0
   47.5470   30.9643   42.5866 H   0  0  0  0  0  0  0  0  0  0  0  0
   49.9273   30.5826   42.1421 H   0  0  0  0  0  0  0  0  0  0  0  0
   49.7606   33.4742   39.1253 H   0  0  0  0  0  0  0  0  0  0  0  0
  1 10  1  0
  2  1  2  0
  3  1  1  0
  4  3  1  0
  5  4  1  0
  6  7  1  0
  6  5  1  0
  7  8  1  0
  8  3  1  0
  9 14  2  0
 10 11  2  0
 10  9  1  0
 11 12  1  0
 12 13  2  0
 14 13  1  0
 15  8  1  0
 15 16  1  0
 17 16  2  0
 18 17  1  0
 19 18  2  0
 20 21  1  0
 20 18  1  0
 21 15  1  0
 22 21  2  0
  4 23  1  0
  4 24  1  0
  5 25  1  0
  5 26  1  0
  6 27  1  0
  7 28  1  0
  7 29  1  0
  8 30  1  1
  9 31  1  0
 11 32  1  0
 13 33  1  0
 16 34  1  0
 17 35  1  0
 20 36  1  0
M  ISO  8  23  13  24  13  25  13  26  13  27   5  28  13  29  13  30  13
M  ISO  6  31  14  32  14  33  14  34  14  35  14  36   9
M  END
>  <minimizedAffinity>  (1) 
-4.71177483

>  <minimizedRMSD>  (1) 
2.25659633

$$$$
