
     RDKit          3D

 28 29  0  0  1  0  0  0  0  0999 V2000
   45.5400   35.0310   43.1670 C   0  0  0  0  0  0  0  0  0  0  0  0
   45.3220   36.2650   43.3490 O   0  0  0  0  0  0  0  0  0  0  0  0
   45.4410   34.6680   41.7890 N   0  0  0  0  0  0  0  0  0  0  0  0
   44.2970   35.2370   41.0890 C   0  0  0  0  0  0  0  0  0  0  0  0
   43.7000   34.0210   40.3440 C   0  0  0  0  0  0  0  0  0  0  0  0
   44.7070   33.7590   39.3180 N   0  0  0  0  0  0  0  0  0  0  0  0
   45.7980   33.0810   39.9540 C   0  0  0  0  0  0  0  0  0  0  0  0
   46.3620   33.8200   41.1290 C   0  0  1  0  0  0  0  0  0  0  0  0
   45.0890   34.4320   45.5010 C   0  0  0  0  0  0  0  0  0  0  0  0
   45.8360   34.2520   44.3190 C   0  0  0  0  0  0  0  0  0  0  0  0
   46.8290   33.2970   44.3480 C   0  0  0  0  0  0  0  0  0  0  0  0
   47.0590   32.5750   45.4800 N   0  0  0  0  0  0  0  0  0  0  0  0
   46.3180   32.7780   46.5960 C   0  0  0  0  0  0  0  0  0  0  0  0
   45.3270   33.7130   46.6100 N   0  0  0  0  0  0  0  0  0  0  0  0
   47.5890   34.5780   40.7600 C   0  0  0  0  0  0  0  0  0  0  0  0
   47.9950   34.6300   39.6020 O   0  0  0  0  0  0  0  0  0  0  0  0
   43.5709   35.6606   41.7985 H   0  0  0  0  0  0  0  0  0  0  0  0
   44.5695   36.0641   40.4169 H   0  0  0  0  0  0  0  0  0  0  0  0
   43.5838   33.1590   41.0174 H   0  0  0  0  0  0  0  0  0  0  0  0
   42.6944   34.2039   39.9375 H   0  0  0  0  0  0  0  0  0  0  0  0
   45.0335   34.6466   38.9100 H   0  0  0  0  0  0  0  0  0  0  0  0
   45.4429   32.0987   40.2991 H   0  0  0  0  0  0  0  0  0  0  0  0
   46.6033   32.9976   39.2093 H   0  0  0  0  0  0  0  0  0  0  0  0
   46.6216   33.0332   41.8526 H   0  0  0  0  0  0  0  0  0  0  0  0
   44.2867   35.1844   45.5153 H   0  0  0  0  0  0  0  0  0  0  0  0
   47.4399   33.1165   43.4512 H   0  0  0  0  0  0  0  0  0  0  0  0
   46.5183   32.1826   47.4990 H   0  0  0  0  0  0  0  0  0  0  0  0
   48.1477   35.1064   41.5466 H   0  0  0  0  0  0  0  0  0  0  0  0
  1  2  2  0
  1 10  1  0
  3  1  1  0
  4  3  1  0
  5  4  1  0
  6  7  1  0
  6  5  1  0
  7  8  1  0
  8  3  1  0
  9 14  2  0
 10 11  2  0
 10  9  1  0
 11 12  1  0
 12 13  2  0
 13 14  1  0
 15  8  1  0
 16 15  2  0
  4 17  1  0
  4 18  1  0
  5 19  1  0
  5 20  1  0
  6 21  1  0
  7 22  1  0
  7 23  1  0
  8 24  1  1
  9 25  1  0
 11 26  1  0
 13 27  1  0
 15 28  1  0
M  ISO  8  17  13  18  13  19  13  20  13  21   5  22  13  23  13  24  13
M  ISO  4  25  14  26  14  27  14  28   6
M  END
>  <minimizedAffinity>  (1) 
-4.34699774

>  <minimizedRMSD>  (1) 
0.849875629

$$$$
