
     RDKit          3D

 39 41  0  0  1  0  0  0  0  0999 V2000
   47.5030   33.5440   43.0480 C   0  0  0  0  0  0  0  0  0  0  0  0
   48.1280   34.6450   43.1740 O   0  0  0  0  0  0  0  0  0  0  0  0
   47.3820   33.1680   41.6820 N   0  0  0  0  0  0  0  0  0  0  0  0
   46.9300   34.2240   40.7870 C   0  0  0  0  0  0  0  0  0  0  0  0
   45.8200   33.5770   39.9640 C   0  0  0  0  0  0  0  0  0  0  0  0
   46.4790   32.5660   39.1460 N   0  0  0  0  0  0  0  0  0  0  0  0
   46.8340   31.4760   39.9950 C   0  0  0  0  0  0  0  0  0  0  0  0
   47.6710   31.8720   41.2010 C   0  0  1  0  0  0  0  0  0  0  0  0
   46.2180   33.6180   45.1300 C   0  0  0  0  0  0  0  0  0  0  0  0
   47.0600   32.9280   44.2480 C   0  0  0  0  0  0  0  0  0  0  0  0
   47.4090   31.6460   44.6090 C   0  0  0  0  0  0  0  0  0  0  0  0
   46.9520   31.0930   45.7620 N   0  0  0  0  0  0  0  0  0  0  0  0
   46.1380   31.8050   46.5800 C   0  0  0  0  0  0  0  0  0  0  0  0
   45.7640   33.0770   46.2720 N   0  0  0  0  0  0  0  0  0  0  0  0
   49.0400   31.7770   40.7730 N   0  0  0  0  0  0  0  0  0  0  0  0
   49.2510   31.0140   39.5810 C   0  0  0  0  0  0  0  0  0  0  0  0
   50.6380   31.3930   39.0430 C   0  0  0  0  0  0  0  0  0  0  0  0
   51.5750   31.1130   40.0280 O   0  0  0  0  0  0  0  0  0  0  0  0
   51.3600   31.9880   41.1010 C   0  0  0  0  0  0  0  0  0  0  0  0
   50.0300   31.5770   41.7670 C   0  0  0  0  0  0  0  0  0  0  0  0
   46.5417   35.0793   41.3594 H   0  0  0  0  0  0  0  0  0  0  0  0
   47.7429   34.6163   40.1583 H   0  0  0  0  0  0  0  0  0  0  0  0
   45.0741   33.1106   40.6243 H   0  0  0  0  0  0  0  0  0  0  0  0
   45.2861   34.3154   39.3478 H   0  0  0  0  0  0  0  0  0  0  0  0
   45.8378   32.2404   38.4086 H   0  0  0  0  0  0  0  0  0  0  0  0
   45.9082   31.0052   40.3573 H   0  0  0  0  0  0  0  0  0  0  0  0
   47.4514   30.7939   39.3921 H   0  0  0  0  0  0  0  0  0  0  0  0
   47.4486   31.2053   42.0472 H   0  0  0  0  0  0  0  0  0  0  0  0
   45.9165   34.6451   44.8765 H   0  0  0  0  0  0  0  0  0  0  0  0
   48.0690   31.0600   43.9525 H   0  0  0  0  0  0  0  0  0  0  0  0
   45.7729   31.3458   47.5105 H   0  0  0  0  0  0  0  0  0  0  0  0
   49.2159   29.9387   39.8100 H   0  0  0  0  0  0  0  0  0  0  0  0
   48.4701   31.2270   38.8361 H   0  0  0  0  0  0  0  0  0  0  0  0
   50.8604   30.8062   38.1395 H   0  0  0  0  0  0  0  0  0  0  0  0
   50.6666   32.4615   38.7832 H   0  0  0  0  0  0  0  0  0  0  0  0
   52.1845   31.9065   41.8245 H   0  0  0  0  0  0  0  0  0  0  0  0
   51.3155   33.0301   40.7516 H   0  0  0  0  0  0  0  0  0  0  0  0
   49.8275   32.2072   42.6455 H   0  0  0  0  0  0  0  0  0  0  0  0
   50.0521   30.5361   42.1220 H   0  0  0  0  0  0  0  0  0  0  0  0
  1  2  2  0
  1 10  1  0
  3  1  1  0
  4  3  1  0
  5  4  1  0
  6  5  1  0
  6  7  1  0
  7  8  1  0
  8  3  1  0
  9 14  2  0
 10 11  2  0
 10  9  1  0
 11 12  1  0
 12 13  2  0
 14 13  1  0
 15  8  1  0
 15 20  1  0
 16 15  1  0
 17 16  1  0
 17 18  1  0
 18 19  1  0
 19 20  1  0
  4 21  1  0
  4 22  1  0
  5 23  1  0
  5 24  1  0
  6 25  1  0
  7 26  1  0
  7 27  1  0
  8 28  1  1
  9 29  1  0
 11 30  1  0
 13 31  1  0
 16 32  1  0
 16 33  1  0
 17 34  1  0
 17 35  1  0
 19 36  1  0
 19 37  1  0
 20 38  1  0
 20 39  1  0
M  ISO  8  21  13  22  13  23  13  24  13  25   5  26  13  27  13  28  13
M  ISO  8  29  14  30  14  31  14  32  13  33  13  34  13  35  13  36  13
M  ISO  3  37  13  38  13  39  13
M  END
>  <minimizedAffinity>  (1) 
-3.7814393

>  <minimizedRMSD>  (1) 
3.66853738

$$$$
