
     RDKit          3D

 26 27  0  0  0  0  0  0  0  0999 V2000
   45.7810   34.1550   41.7650 N   0  0  0  0  0  0  0  0  0  0  0  0
   45.2010   33.4320   40.7890 C   0  0  0  0  0  0  0  0  0  0  0  0
   45.9880   33.3840   39.7100 N   0  0  0  0  0  0  0  0  0  0  0  0
   47.0850   34.0990   40.0330 C   0  0  0  0  0  0  0  0  0  0  0  0
   46.9610   34.5790   41.3070 N   0  0  0  0  0  0  0  0  0  0  0  0
   44.4580   35.9740   44.7610 C   0  0  0  0  0  0  0  0  0  0  0  0
   44.7700   35.7060   43.4230 C   0  0  0  0  0  0  0  0  0  0  0  0
   45.4180   34.5280   43.0840 C   0  0  0  0  0  0  0  0  0  0  0  0
   45.7170   33.6830   44.1050 N   0  0  0  0  0  0  0  0  0  0  0  0
   45.4080   33.9550   45.4020 C   0  0  0  0  0  0  0  0  0  0  0  0
   44.7850   35.0960   45.7070 N   0  0  0  0  0  0  0  0  0  0  0  0
   48.2960   34.3780   39.1980 C   0  0  0  0  0  0  0  0  0  0  0  0
   47.9030   34.3790   37.8020 N   0  0  0  0  0  0  0  0  0  0  0  0
   48.6440   33.6740   36.8280 C   0  0  0  0  0  0  0  0  0  0  0  0
   49.8820   33.4200   37.1190 N   0  0  0  0  0  0  0  0  0  0  0  0
   48.0650   33.2620   35.5880 N   0  0  0  0  0  0  0  0  0  0  0  0
   50.4550   32.9000   36.4180 H   0  0  0  0  0  0  0  0  0  0  0  0
   44.2164   32.9481   40.8685 H   0  0  0  0  0  0  0  0  0  0  0  0
   43.9436   36.9083   45.0304 H   0  0  0  0  0  0  0  0  0  0  0  0
   44.5010   36.4303   42.6401 H   0  0  0  0  0  0  0  0  0  0  0  0
   45.6700   33.2389   46.1948 H   0  0  0  0  0  0  0  0  0  0  0  0
   48.7136   35.3596   39.4665 H   0  0  0  0  0  0  0  0  0  0  0  0
   49.0603   33.6066   39.3735 H   0  0  0  0  0  0  0  0  0  0  0  0
   47.0655   34.9052   37.5147 H   0  0  0  0  0  0  0  0  0  0  0  0
   47.0788   33.4774   35.3834 H   0  0  0  0  0  0  0  0  0  0  0  0
   48.6339   32.7497   34.8990 H   0  0  0  0  0  0  0  0  0  0  0  0
  1  8  1  0
  2  1  1  0
  3  4  1  0
  3  2  2  0
  4  5  2  0
  5  1  1  0
  6 11  2  0
  7  6  1  0
  8  7  2  0
  8  9  1  0
  9 10  2  0
 10 11  1  0
 12  4  1  0
 13 12  1  0
 14 15  2  0
 14 13  1  0
 16 14  1  0
 17 15  1  0
  2 18  1  0
  6 19  1  0
  7 20  1  0
 10 21  1  0
 12 22  1  0
 12 23  1  0
 13 24  1  0
 16 25  1  0
 16 26  1  0
M  ISO  6  18  14  19  14  20  14  21  14  22   8  23   8
M  END
>  <minimizedAffinity>  (1) 
-5.01280642

>  <minimizedRMSD>  (1) 
1.25918949

$$$$
