
     RDKit          3D

 43 46  0  0  1  0  0  0  0  0999 V2000
   49.0550   33.6540   42.5930 C   0  0  2  0  0  0  0  0  0  0  0  0
   47.6740   33.8910   42.3550 C   0  0  2  0  0  0  0  0  0  0  0  0
   47.6400   35.3880   41.9170 C   0  0  0  0  0  0  0  0  0  0  0  0
   49.0180   35.8380   41.5940 C   0  0  0  0  0  0  0  0  0  0  0  0
   49.7880   35.0480   42.5620 C   0  0  0  0  0  0  0  0  0  0  0  0
   49.8370   32.8590   41.6530 C   0  0  0  0  0  0  0  0  0  0  0  0
   49.2040   32.4480   40.5040 C   0  0  0  0  0  0  0  0  0  0  0  0
   49.8180   31.6740   39.5330 C   0  0  0  0  0  0  0  0  0  0  0  0
   51.1410   31.3530   39.8230 N   0  0  0  0  0  0  0  0  0  0  0  0
   51.7570   31.7530   40.9290 C   0  0  0  0  0  0  0  0  0  0  0  0
   51.0930   32.4900   41.8100 N   0  0  0  0  0  0  0  0  0  0  0  0
   46.7450   33.7000   43.4940 C   0  0  0  0  0  0  0  0  0  0  0  0
   45.7090   34.3160   43.5720 O   0  0  0  0  0  0  0  0  0  0  0  0
   46.8990   32.8190   44.6160 C   0  0  0  0  0  0  0  0  0  0  0  0
   46.7400   33.2740   45.9300 C   0  0  0  0  0  0  0  0  0  0  0  0
   46.9180   32.4850   47.0720 C   0  0  0  0  0  0  0  0  0  0  0  0
   47.2830   31.1550   46.9090 C   0  0  0  0  0  0  0  0  0  0  0  0
   47.4510   30.6650   45.6080 C   0  0  0  0  0  0  0  0  0  0  0  0
   47.2490   31.5120   44.5150 C   0  0  0  0  0  0  0  0  0  0  0  0
   47.3710   30.6050   43.4030 C   0  0  0  0  0  0  0  0  0  0  0  0
   48.5800   29.9030   43.2680 C   0  0  0  0  0  0  0  0  0  0  0  0
   48.9510   29.1080   42.2000 C   0  0  0  0  0  0  0  0  0  0  0  0
   48.0940   28.9790   41.1860 N   0  0  0  0  0  0  0  0  0  0  0  0
   46.9180   29.6480   41.2950 C   0  0  0  0  0  0  0  0  0  0  0  0
   46.5630   30.4310   42.3570 N   0  0  0  0  0  0  0  0  0  0  0  0
   49.0213   33.0820   43.5320 H   0  0  0  0  0  0  0  0  0  0  0  0
   47.3140   33.1512   41.6249 H   0  0  0  0  0  0  0  0  0  0  0  0
   47.0007   35.4961   41.0284 H   0  0  0  0  0  0  0  0  0  0  0  0
   47.2351   36.0015   42.7353 H   0  0  0  0  0  0  0  0  0  0  0  0
   49.2936   35.5923   40.5578 H   0  0  0  0  0  0  0  0  0  0  0  0
   49.1739   36.9249   41.6603 H   0  0  0  0  0  0  0  0  0  0  0  0
   50.8306   34.9333   42.2306 H   0  0  0  0  0  0  0  0  0  0  0  0
   49.8324   35.5229   43.5532 H   0  0  0  0  0  0  0  0  0  0  0  0
   48.1575   32.7488   40.3478 H   0  0  0  0  0  0  0  0  0  0  0  0
   49.3069   31.3434   38.6168 H   0  0  0  0  0  0  0  0  0  0  0  0
   52.8057   31.4766   41.1128 H   0  0  0  0  0  0  0  0  0  0  0  0
   46.4549   34.3264   46.0754 H   0  0  0  0  0  0  0  0  0  0  0  0
   46.7720   32.9089   48.0765 H   0  0  0  0  0  0  0  0  0  0  0  0
   47.4364   30.5021   47.7809 H   0  0  0  0  0  0  0  0  0  0  0  0
   47.7412   29.6163   45.4468 H   0  0  0  0  0  0  0  0  0  0  0  0
   49.3021   29.9949   44.0927 H   0  0  0  0  0  0  0  0  0  0  0  0
   49.9247   28.5965   42.1866 H   0  0  0  0  0  0  0  0  0  0  0  0
   46.1985   29.5529   40.4684 H   0  0  0  0  0  0  0  0  0  0  0  0
  2  1  1  0
  2 12  1  0
  3  2  1  0
  4  3  1  0
  4  5  1  0
  5  1  1  0
  6 11  1  0
  6  1  1  0
  7  6  2  0
  8  9  2  0
  8  7  1  0
  9 10  1  0
 10 11  2  0
 12 13  2  0
 12 14  1  0
 14 15  2  0
 15 16  1  0
 17 16  2  0
 18 17  1  0
 19 14  1  0
 19 18  2  0
 20 19  1  0
 21 20  2  0
 22 21  1  0
 23 24  1  0
 23 22  2  0
 24 25  2  0
 25 20  1  0
  1 26  1  1
  2 27  1  6
  3 28  1  0
  3 29  1  0
  4 30  1  0
  4 31  1  0
  5 32  1  0
  5 33  1  0
  7 34  1  0
  8 35  1  0
 10 36  1  0
 15 37  1  0
 16 38  1  0
 17 39  1  0
 18 40  1  0
 21 41  1  0
 22 42  1  0
 24 43  1  0
M  ISO  8  26  13  27  13  28  13  29  13  30  13  31  13  32  13  33  13
M  ISO  8  34  14  35  14  36  14  37  14  38  14  39  14  40  14  41  14
M  ISO  2  42  14  43  14
M  END
>  <minimizedAffinity>  (1) 
-5.33899593

>  <minimizedRMSD>  (1) 
0.300760806

$$$$
