
     RDKit          3D

 30 33  0  0  0  0  0  0  0  0999 V2000
   45.7120   34.0930   41.7140 N   0  0  0  0  0  0  0  0  0  0  0  0
   45.1290   33.3820   40.7540 C   0  0  0  0  0  0  0  0  0  0  0  0
   45.8920   33.2900   39.6660 N   0  0  0  0  0  0  0  0  0  0  0  0
   47.0180   33.9910   39.9780 C   0  0  0  0  0  0  0  0  0  0  0  0
   46.8980   34.4800   41.2370 N   0  0  0  0  0  0  0  0  0  0  0  0
   44.4670   35.9660   44.6950 C   0  0  0  0  0  0  0  0  0  0  0  0
   44.7390   35.6950   43.3630 C   0  0  0  0  0  0  0  0  0  0  0  0
   45.3730   34.4970   43.0320 C   0  0  0  0  0  0  0  0  0  0  0  0
   45.6950   33.6510   44.0570 N   0  0  0  0  0  0  0  0  0  0  0  0
   45.4120   33.9530   45.3560 C   0  0  0  0  0  0  0  0  0  0  0  0
   44.8020   35.1070   45.6540 N   0  0  0  0  0  0  0  0  0  0  0  0
   48.2110   34.2200   39.1100 C   0  0  0  0  0  0  0  0  0  0  0  0
   48.7910   33.0020   38.6320 N   0  0  0  0  0  0  0  0  0  0  0  0
   49.3610   32.0160   39.3340 C   0  0  0  0  0  0  0  0  0  0  0  0
   49.7860   31.0370   38.5030 N   0  0  0  0  0  0  0  0  0  0  0  0
   49.4780   31.4130   37.2510 C   0  0  0  0  0  0  0  0  0  0  0  0
   49.6180   30.9090   35.9760 C   0  0  0  0  0  0  0  0  0  0  0  0
   49.1900   31.5510   34.9030 N   0  0  0  0  0  0  0  0  0  0  0  0
   48.5890   32.7360   34.9770 C   0  0  0  0  0  0  0  0  0  0  0  0
   48.4140   33.3000   36.2090 N   0  0  0  0  0  0  0  0  0  0  0  0
   48.8490   32.6540   37.3200 C   0  0  0  0  0  0  0  0  0  0  0  0
   44.1335   32.9235   40.8471 H   0  0  0  0  0  0  0  0  0  0  0  0
   43.9656   36.9075   44.9636 H   0  0  0  0  0  0  0  0  0  0  0  0
   44.4592   36.4137   42.5787 H   0  0  0  0  0  0  0  0  0  0  0  0
   45.6842   33.2503   46.1573 H   0  0  0  0  0  0  0  0  0  0  0  0
   47.9050   34.8268   38.2450 H   0  0  0  0  0  0  0  0  0  0  0  0
   48.9705   34.7318   39.7192 H   0  0  0  0  0  0  0  0  0  0  0  0
   49.4685   32.0033   40.4287 H   0  0  0  0  0  0  0  0  0  0  0  0
   50.1062   29.9319   35.8460 H   0  0  0  0  0  0  0  0  0  0  0  0
   48.2415   33.2490   34.0681 H   0  0  0  0  0  0  0  0  0  0  0  0
  1  8  1  0
  2  1  1  0
  3  4  1  0
  3  2  2  0
  4  5  2  0
  5  1  1  0
  6 11  2  0
  7  6  1  0
  8  7  2  0
  8  9  1  0
  9 10  2  0
 10 11  1  0
 12  4  1  0
 13 12  1  0
 13 14  1  0
 15 14  2  0
 16 21  2  0
 16 15  1  0
 17 16  1  0
 18 19  1  0
 18 17  2  0
 19 20  2  0
 20 21  1  0
 21 13  1  0
  2 22  1  0
  6 23  1  0
  7 24  1  0
 10 25  1  0
 12 26  1  0
 12 27  1  0
 14 28  1  0
 17 29  1  0
 19 30  1  0
M  ISO  8  22  14  23  14  24  14  25  14  26   8  27   8  28  14  29  14
M  ISO  1  30  14
M  END
>  <minimizedAffinity>  (1) 
-4.78616571

>  <minimizedRMSD>  (1) 
1.47622979

$$$$
