
     RDKit          3D

 30 32  0  0  0  0  0  0  0  0999 V2000
   45.8760   34.1850   41.8130 N   0  0  0  0  0  0  0  0  0  0  0  0
   45.3530   33.4510   40.8230 C   0  0  0  0  0  0  0  0  0  0  0  0
   46.1640   33.4320   39.7570 N   0  0  0  0  0  0  0  0  0  0  0  0
   47.2300   34.1870   40.1110 C   0  0  0  0  0  0  0  0  0  0  0  0
   47.0540   34.6530   41.3780 N   0  0  0  0  0  0  0  0  0  0  0  0
   44.4580   35.9470   44.7970 C   0  0  0  0  0  0  0  0  0  0  0  0
   44.7910   35.7270   43.4520 C   0  0  0  0  0  0  0  0  0  0  0  0
   45.4740   34.5430   43.1270 C   0  0  0  0  0  0  0  0  0  0  0  0
   45.7630   33.6980   44.1420 N   0  0  0  0  0  0  0  0  0  0  0  0
   45.4280   33.9360   45.4340 C   0  0  0  0  0  0  0  0  0  0  0  0
   44.7780   35.0650   45.7370 N   0  0  0  0  0  0  0  0  0  0  0  0
   48.4290   34.4940   39.2860 C   0  0  0  0  0  0  0  0  0  0  0  0
   48.6540   33.5340   38.2380 N   0  0  0  0  0  0  0  0  0  0  0  0
   48.2370   33.8350   36.9790 C   0  0  0  0  0  0  0  0  0  0  0  0
   48.3890   33.0140   35.8980 C   0  0  0  0  0  0  0  0  0  0  0  0
   49.0060   31.8010   36.0980 C   0  0  0  0  0  0  0  0  0  0  0  0
   49.1880   30.9100   35.0030 N   0  0  0  0  0  0  0  0  0  0  0  0
   49.4210   31.4940   37.3340 N   0  0  0  0  0  0  0  0  0  0  0  0
   49.2530   32.3340   38.3830 C   0  0  0  0  0  0  0  0  0  0  0  0
   49.6390   32.0550   39.5490 O   0  0  0  0  0  0  0  0  0  0  0  0
   44.3848   32.9319   40.8777 H   0  0  0  0  0  0  0  0  0  0  0  0
   43.9226   36.8659   45.0779 H   0  0  0  0  0  0  0  0  0  0  0  0
   44.5254   36.4593   42.6754 H   0  0  0  0  0  0  0  0  0  0  0  0
   45.6867   33.2120   46.2207 H   0  0  0  0  0  0  0  0  0  0  0  0
   48.2952   35.4858   38.8294 H   0  0  0  0  0  0  0  0  0  0  0  0
   49.3030   34.4622   39.9531 H   0  0  0  0  0  0  0  0  0  0  0  0
   47.7439   34.8054   36.8205 H   0  0  0  0  0  0  0  0  0  0  0  0
   48.0304   33.3126   34.9019 H   0  0  0  0  0  0  0  0  0  0  0  0
   49.6497   30.0011   35.1499 H   0  0  0  0  0  0  0  0  0  0  0  0
   48.8580   31.1742   34.0637 H   0  0  0  0  0  0  0  0  0  0  0  0
  1  8  1  0
  2  1  1  0
  3  4  1  0
  3  2  2  0
  4  5  2  0
  5  1  1  0
  6 11  2  0
  7  6  1  0
  8  7  2  0
  8  9  1  0
  9 10  2  0
 10 11  1  0
 12  4  1  0
 13 19  1  0
 13 12  1  0
 14 13  1  0
 15 16  1  0
 15 14  2  0
 16 18  2  0
 17 16  1  0
 18 19  1  0
 19 20  2  0
  2 21  1  0
  6 22  1  0
  7 23  1  0
 10 24  1  0
 12 25  1  0
 12 26  1  0
 14 27  1  0
 15 28  1  0
 17 29  1  0
 17 30  1  0
M  ISO  8  21  14  22  14  23  14  24  14  25   8  26   8  27  14  28  14
M  END
>  <minimizedAffinity>  (1) 
-4.67673969

>  <minimizedRMSD>  (1) 
2.13056064

$$$$
