
     RDKit          3D

 27 29  0  0  0  0  0  0  0  0999 V2000
   45.8630   34.2080   41.8770 N   0  0  0  0  0  0  0  0  0  0  0  0
   45.3520   33.4790   40.8850 C   0  0  0  0  0  0  0  0  0  0  0  0
   46.1540   33.4740   39.8230 N   0  0  0  0  0  0  0  0  0  0  0  0
   47.2230   34.2360   40.1670 C   0  0  0  0  0  0  0  0  0  0  0  0
   47.0330   34.6860   41.4440 N   0  0  0  0  0  0  0  0  0  0  0  0
   44.4430   35.9400   44.8730 C   0  0  0  0  0  0  0  0  0  0  0  0
   44.7820   35.7140   43.5360 C   0  0  0  0  0  0  0  0  0  0  0  0
   45.4630   34.5530   43.1900 C   0  0  0  0  0  0  0  0  0  0  0  0
   45.7600   33.6980   44.2060 N   0  0  0  0  0  0  0  0  0  0  0  0
   45.4250   33.9270   45.5060 C   0  0  0  0  0  0  0  0  0  0  0  0
   44.7680   35.0550   45.8060 N   0  0  0  0  0  0  0  0  0  0  0  0
   48.4260   34.5690   39.3580 C   0  0  0  0  0  0  0  0  0  0  0  0
   48.6020   33.6530   38.2180 C   0  0  0  0  0  0  0  0  0  0  0  0
   48.2320   33.9310   36.9190 C   0  0  0  0  0  0  0  0  0  0  0  0
   48.4630   32.9630   35.9540 C   0  0  0  0  0  0  0  0  0  0  0  0
   49.0370   31.7750   36.2720 N   0  0  0  0  0  0  0  0  0  0  0  0
   49.3870   31.5250   37.5320 C   0  0  0  0  0  0  0  0  0  0  0  0
   49.1770   32.4490   38.5110 N   0  0  0  0  0  0  0  0  0  0  0  0
   44.3896   32.9488   40.9375 H   0  0  0  0  0  0  0  0  0  0  0  0
   43.9037   36.8569   45.1530 H   0  0  0  0  0  0  0  0  0  0  0  0
   44.5119   36.4493   42.7637 H   0  0  0  0  0  0  0  0  0  0  0  0
   45.6878   33.2027   46.2911 H   0  0  0  0  0  0  0  0  0  0  0  0
   48.3223   35.5950   38.9751 H   0  0  0  0  0  0  0  0  0  0  0  0
   49.3076   34.4712   40.0085 H   0  0  0  0  0  0  0  0  0  0  0  0
   47.7672   34.8927   36.6562 H   0  0  0  0  0  0  0  0  0  0  0  0
   48.1757   33.1615   34.9109 H   0  0  0  0  0  0  0  0  0  0  0  0
   49.8514   30.5607   37.7857 H   0  0  0  0  0  0  0  0  0  0  0  0
  1  8  1  0
  2  1  1  0
  3  4  1  0
  3  2  2  0
  4  5  2  0
  5  1  1  0
  6 11  2  0
  7  6  1  0
  8  7  2  0
  8  9  1  0
  9 10  2  0
 10 11  1  0
 12  4  1  0
 13 18  1  0
 13 12  1  0
 14 13  2  0
 15 16  2  0
 15 14  1  0
 16 17  1  0
 17 18  2  0
  2 19  1  0
  6 20  1  0
  7 21  1  0
 10 22  1  0
 12 23  1  0
 12 24  1  0
 14 25  1  0
 15 26  1  0
 17 27  1  0
M  ISO  8  19  14  20  14  21  14  22  14  23   8  24   8  25  14  26  14
M  ISO  1  27  14
M  END
>  <minimizedAffinity>  (1) 
-4.51365614

>  <minimizedRMSD>  (1) 
1.93335807

$$$$
