
     RDKit          3D

 29 31  0  0  0  0  0  0  0  0999 V2000
   46.0110   33.2740   42.4040 N   0  0  0  0  0  0  0  0  0  0  0  0
   45.4900   32.3870   41.5550 C   0  0  0  0  0  0  0  0  0  0  0  0
   46.4220   31.9360   40.7150 N   0  0  0  0  0  0  0  0  0  0  0  0
   47.5600   32.5640   41.0560 C   0  0  0  0  0  0  0  0  0  0  0  0
   47.3180   33.4070   42.1160 N   0  0  0  0  0  0  0  0  0  0  0  0
   44.4760   35.9990   44.4670 C   0  0  0  0  0  0  0  0  0  0  0  0
   44.9290   35.3250   43.3290 C   0  0  0  0  0  0  0  0  0  0  0  0
   45.5120   34.0580   43.4830 C   0  0  0  0  0  0  0  0  0  0  0  0
   45.5960   33.5750   44.7370 N   0  0  0  0  0  0  0  0  0  0  0  0
   45.1490   34.2430   45.8360 C   0  0  0  0  0  0  0  0  0  0  0  0
   44.5910   35.4610   45.6650 N   0  0  0  0  0  0  0  0  0  0  0  0
   48.9250   32.4410   40.4510 C   0  0  0  0  0  0  0  0  0  0  0  0
   48.7580   32.8390   39.0170 C   0  0  0  0  0  0  0  0  0  0  0  0
   48.2800   34.0820   38.5990 C   0  0  0  0  0  0  0  0  0  0  0  0
   48.1510   34.3830   37.2710 C   0  0  0  0  0  0  0  0  0  0  0  0
   48.4960   33.4470   36.2950 C   0  0  0  0  0  0  0  0  0  0  0  0
   48.9780   32.1950   36.6510 C   0  0  0  0  0  0  0  0  0  0  0  0
   49.0850   31.9500   38.0050 C   0  0  0  0  0  0  0  0  0  0  0  0
   44.4364   32.0710   41.5487 H   0  0  0  0  0  0  0  0  0  0  0  0
   44.0168   36.9930   44.3612 H   0  0  0  0  0  0  0  0  0  0  0  0
   44.8303   35.7792   42.3320 H   0  0  0  0  0  0  0  0  0  0  0  0
   45.2402   33.8012   46.8392 H   0  0  0  0  0  0  0  0  0  0  0  0
   49.6332   33.1132   40.9576 H   0  0  0  0  0  0  0  0  0  0  0  0
   49.3276   31.4221   40.5500 H   0  0  0  0  0  0  0  0  0  0  0  0
   48.0017   34.8340   39.3521 H   0  0  0  0  0  0  0  0  0  0  0  0
   47.7723   35.3708   36.9698 H   0  0  0  0  0  0  0  0  0  0  0  0
   48.3847   33.7044   35.2314 H   0  0  0  0  0  0  0  0  0  0  0  0
   49.2580   31.4429   35.8988 H   0  0  0  0  0  0  0  0  0  0  0  0
   49.4630   30.9623   38.3077 H   0  0  0  0  0  0  0  0  0  0  0  0
  1  8  1  0
  2  1  1  0
  3  4  1  0
  3  2  2  0
  4  5  2  0
  5  1  1  0
  6 11  2  0
  7  8  2  0
  7  6  1  0
  8  9  1  0
  9 10  2  0
 11 10  1  0
 12  4  1  0
 13 12  1  0
 14 13  2  0
 15 14  1  0
 16 17  1  0
 16 15  2  0
 17 18  2  0
 18 13  1  0
  2 19  1  0
  6 20  1  0
  7 21  1  0
 10 22  1  0
 12 23  1  0
 12 24  1  0
 14 25  1  0
 15 26  1  0
 16 27  1  0
 17 28  1  0
 18 29  1  0
M  ISO  8  19  14  20  14  21  14  22  14  23   8  24   8  25  14  26  14
M  ISO  3  27  14  28  14  29  14
M  END
>  <minimizedAffinity>  (1) 
-4.28323317

>  <minimizedRMSD>  (1) 
2.27624512

$$$$
