
     RDKit          3D

 33 35  0  0  0  0  0  0  0  0999 V2000
   45.5950   34.0690   41.7020 N   0  0  0  0  0  0  0  0  0  0  0  0
   44.9470   33.4000   40.7500 C   0  0  0  0  0  0  0  0  0  0  0  0
   45.7080   33.2780   39.6560 N   0  0  0  0  0  0  0  0  0  0  0  0
   46.8660   33.8940   39.9500 C   0  0  0  0  0  0  0  0  0  0  0  0
   46.8000   34.3860   41.2160 N   0  0  0  0  0  0  0  0  0  0  0  0
   44.4530   35.9650   44.7220 C   0  0  0  0  0  0  0  0  0  0  0  0
   44.6830   35.6850   43.3640 C   0  0  0  0  0  0  0  0  0  0  0  0
   45.2990   34.4870   43.0290 C   0  0  0  0  0  0  0  0  0  0  0  0
   45.6280   33.6830   44.0590 N   0  0  0  0  0  0  0  0  0  0  0  0
   45.4110   33.9450   45.3660 C   0  0  0  0  0  0  0  0  0  0  0  0
   44.8130   35.1130   45.6610 N   0  0  0  0  0  0  0  0  0  0  0  0
   48.0730   34.0530   39.0780 C   0  0  0  0  0  0  0  0  0  0  0  0
   48.6530   32.7900   38.7390 N   0  0  0  0  0  0  0  0  0  0  0  0
   49.1050   31.9980   39.8310 C   0  0  0  0  0  0  0  0  0  0  0  0
   50.5860   31.9490   39.9890 C   0  0  0  0  0  0  0  0  0  0  0  0
   51.2770   31.5630   38.7860 N   0  0  0  0  0  0  0  0  0  0  0  0
   50.5500   31.7490   37.5700 C   0  0  0  0  0  0  0  0  0  0  0  0
   49.4970   32.8170   37.5980 C   0  0  0  0  0  0  0  0  0  0  0  0
   43.9262   33.0023   40.8493 H   0  0  0  0  0  0  0  0  0  0  0  0
   43.9652   36.9093   45.0054 H   0  0  0  0  0  0  0  0  0  0  0  0
   44.3815   36.3995   42.5838 H   0  0  0  0  0  0  0  0  0  0  0  0
   45.7094   33.2362   46.1525 H   0  0  0  0  0  0  0  0  0  0  0  0
   47.7783   34.5694   38.1526 H   0  0  0  0  0  0  0  0  0  0  0  0
   48.8224   34.6354   39.6340 H   0  0  0  0  0  0  0  0  0  0  0  0
   48.6745   32.4103   40.7555 H   0  0  0  0  0  0  0  0  0  0  0  0
   48.7785   30.9678   39.6259 H   0  0  0  0  0  0  0  0  0  0  0  0
   50.9380   32.9473   40.2882 H   0  0  0  0  0  0  0  0  0  0  0  0
   50.8064   31.1853   40.7494 H   0  0  0  0  0  0  0  0  0  0  0  0
   52.1426   32.1179   38.7258 H   0  0  0  0  0  0  0  0  0  0  0  0
   50.0589   30.7968   37.3209 H   0  0  0  0  0  0  0  0  0  0  0  0
   51.2902   32.0775   36.8256 H   0  0  0  0  0  0  0  0  0  0  0  0
   50.0001   33.7947   37.5674 H   0  0  0  0  0  0  0  0  0  0  0  0
   48.8484   32.6357   36.7283 H   0  0  0  0  0  0  0  0  0  0  0  0
  1  8  1  0
  2  1  1  0
  3  4  1  0
  3  2  2  0
  4  5  2  0
  5  1  1  0
  6 11  2  0
  7  6  1  0
  8  7  2  0
  8  9  1  0
  9 10  2  0
 10 11  1  0
 12  4  1  0
 13 12  1  0
 13 14  1  0
 14 15  1  0
 16 15  1  0
 17 18  1  0
 17 16  1  0
 18 13  1  0
  2 19  1  0
  6 20  1  0
  7 21  1  0
 10 22  1  0
 12 23  1  0
 12 24  1  0
 14 25  1  0
 14 26  1  0
 15 27  1  0
 15 28  1  0
 16 29  1  0
 17 30  1  0
 17 31  1  0
 18 32  1  0
 18 33  1  0
M  ISO  8  19  14  20  14  21  14  22  14  23   8  24   8  25  13  26  13
M  ISO  7  27  13  28  13  29   5  30  13  31  13  32  13  33  13
M  END
>  <minimizedAffinity>  (1) 
-4.27342558

>  <minimizedRMSD>  (1) 
1.09255886

$$$$
