
     RDKit          3D

 32 34  0  0  0  0  0  0  0  0999 V2000
   45.6840   34.0830   41.7410 N   0  0  0  0  0  0  0  0  0  0  0  0
   45.0890   33.3850   40.7780 C   0  0  0  0  0  0  0  0  0  0  0  0
   45.8620   33.3130   39.6880 N   0  0  0  0  0  0  0  0  0  0  0  0
   46.9920   34.0050   39.9950 C   0  0  0  0  0  0  0  0  0  0  0  0
   46.8810   34.4780   41.2590 N   0  0  0  0  0  0  0  0  0  0  0  0
   44.4590   35.9670   44.7320 C   0  0  0  0  0  0  0  0  0  0  0  0
   44.7260   35.6890   43.3800 C   0  0  0  0  0  0  0  0  0  0  0  0
   45.3620   34.4770   43.0640 C   0  0  0  0  0  0  0  0  0  0  0  0
   45.6730   33.6620   44.0940 N   0  0  0  0  0  0  0  0  0  0  0  0
   45.4100   33.9430   45.3860 C   0  0  0  0  0  0  0  0  0  0  0  0
   44.8040   35.0990   45.6860 N   0  0  0  0  0  0  0  0  0  0  0  0
   48.1630   34.2180   39.1170 C   0  0  0  0  0  0  0  0  0  0  0  0
   48.7000   32.9430   38.7880 N   0  0  0  0  0  0  0  0  0  0  0  0
   49.2070   32.8010   37.4740 C   0  0  0  0  0  0  0  0  0  0  0  0
   49.9050   31.5040   37.2290 C   0  0  0  0  0  0  0  0  0  0  0  0
   50.8980   31.3910   38.2220 O   0  0  0  0  0  0  0  0  0  0  0  0
   50.2730   31.1660   39.4210 C   0  0  0  0  0  0  0  0  0  0  0  0
   49.3560   32.2610   39.8380 C   0  0  0  0  0  0  0  0  0  0  0  0
   44.0927   32.9271   40.8659 H   0  0  0  0  0  0  0  0  0  0  0  0
   43.9611   36.9087   45.0065 H   0  0  0  0  0  0  0  0  0  0  0  0
   44.4444   36.4015   42.5907 H   0  0  0  0  0  0  0  0  0  0  0  0
   45.6884   33.2348   46.1803 H   0  0  0  0  0  0  0  0  0  0  0  0
   47.8527   34.7407   38.2003 H   0  0  0  0  0  0  0  0  0  0  0  0
   48.9190   34.8319   39.6285 H   0  0  0  0  0  0  0  0  0  0  0  0
   48.3667   32.8802   36.7686 H   0  0  0  0  0  0  0  0  0  0  0  0
   49.9543   33.5959   37.3337 H   0  0  0  0  0  0  0  0  0  0  0  0
   49.1933   30.6688   37.3063 H   0  0  0  0  0  0  0  0  0  0  0  0
   50.3446   31.4727   36.2211 H   0  0  0  0  0  0  0  0  0  0  0  0
   49.6887   30.2377   39.3381 H   0  0  0  0  0  0  0  0  0  0  0  0
   51.0618   31.1019   40.1850 H   0  0  0  0  0  0  0  0  0  0  0  0
   49.9447   32.9979   40.4041 H   0  0  0  0  0  0  0  0  0  0  0  0
   48.5610   31.7793   40.4261 H   0  0  0  0  0  0  0  0  0  0  0  0
  1  8  1  0
  2  1  1  0
  3  4  1  0
  3  2  2  0
  4  5  2  0
  5  1  1  0
  6 11  2  0
  7  6  1  0
  8  7  2  0
  8  9  1  0
  9 10  2  0
 10 11  1  0
 12  4  1  0
 13 12  1  0
 13 18  1  0
 14 13  1  0
 15 14  1  0
 15 16  1  0
 16 17  1  0
 17 18  1  0
  2 19  1  0
  6 20  1  0
  7 21  1  0
 10 22  1  0
 12 23  1  0
 12 24  1  0
 14 25  1  0
 14 26  1  0
 15 27  1  0
 15 28  1  0
 17 29  1  0
 17 30  1  0
 18 31  1  0
 18 32  1  0
M  ISO  8  19  14  20  14  21  14  22  14  23   8  24   8  25  13  26  13
M  ISO  6  27  13  28  13  29  13  30  13  31  13  32  13
M  END
>  <minimizedAffinity>  (1) 
-4.25963497

>  <minimizedRMSD>  (1) 
0.915397286

$$$$
