
     RDKit          3D

 44 46  0  0  1  0  0  0  0  0999 V2000
   49.1230   33.4590   42.5980 C   0  0  2  0  0  0  0  0  0  0  0  0
   47.7200   33.6390   42.4140 C   0  0  2  0  0  0  0  0  0  0  0  0
   47.6130   35.1530   42.0420 C   0  0  0  0  0  0  0  0  0  0  0  0
   48.9570   35.6740   41.6860 C   0  0  0  0  0  0  0  0  0  0  0  0
   49.7970   34.8800   42.5910 C   0  0  0  0  0  0  0  0  0  0  0  0
   49.8990   32.7390   41.5990 C   0  0  0  0  0  0  0  0  0  0  0  0
   49.2200   32.2770   40.4900 C   0  0  0  0  0  0  0  0  0  0  0  0
   49.8180   31.5530   39.4820 C   0  0  0  0  0  0  0  0  0  0  0  0
   51.1820   31.3350   39.6830 N   0  0  0  0  0  0  0  0  0  0  0  0
   51.8460   31.7800   40.7430 C   0  0  0  0  0  0  0  0  0  0  0  0
   51.1910   32.4660   41.6700 N   0  0  0  0  0  0  0  0  0  0  0  0
   46.8520   33.3730   43.5890 C   0  0  0  0  0  0  0  0  0  0  0  0
   46.2860   34.2720   44.1600 O   0  0  0  0  0  0  0  0  0  0  0  0
   46.5630   32.1100   44.2020 C   0  0  0  0  0  0  0  0  0  0  0  0
   46.4700   30.9460   43.4270 C   0  0  0  0  0  0  0  0  0  0  0  0
   46.1170   29.6740   43.9230 C   0  0  0  0  0  0  0  0  0  0  0  0
   45.8430   29.5930   45.2870 C   0  0  0  0  0  0  0  0  0  0  0  0
   45.9320   30.7370   46.0820 C   0  0  0  0  0  0  0  0  0  0  0  0
   46.2870   31.9310   45.5270 C   0  0  0  0  0  0  0  0  0  0  0  0
   46.4960   32.8860   46.6450 C   0  0  0  0  0  0  0  0  0  0  0  0
   45.2110   33.1130   47.5020 C   0  0  0  0  0  0  0  0  0  0  0  0
   47.4400   32.3500   47.6960 C   0  0  0  0  0  0  0  0  0  0  0  0
   49.1476   32.8579   43.5189 H   0  0  0  0  0  0  0  0  0  0  0  0
   47.3591   32.9146   41.6691 H   0  0  0  0  0  0  0  0  0  0  0  0
   46.9350   35.2723   41.1841 H   0  0  0  0  0  0  0  0  0  0  0  0
   47.2196   35.7140   42.9026 H   0  0  0  0  0  0  0  0  0  0  0  0
   49.2013   35.4815   40.6309 H   0  0  0  0  0  0  0  0  0  0  0  0
   49.0702   36.7631   41.7911 H   0  0  0  0  0  0  0  0  0  0  0  0
   50.8285   34.8204   42.2137 H   0  0  0  0  0  0  0  0  0  0  0  0
   49.8634   35.3192   43.5973 H   0  0  0  0  0  0  0  0  0  0  0  0
   48.1457   32.4983   40.4066 H   0  0  0  0  0  0  0  0  0  0  0  0
   49.2722   31.1818   38.6020 H   0  0  0  0  0  0  0  0  0  0  0  0
   52.9228   31.5828   40.8508 H   0  0  0  0  0  0  0  0  0  0  0  0
   46.6885   31.0309   42.3523 H   0  0  0  0  0  0  0  0  0  0  0  0
   46.0609   28.7922   43.2678 H   0  0  0  0  0  0  0  0  0  0  0  0
   45.5574   28.6303   45.7359 H   0  0  0  0  0  0  0  0  0  0  0  0
   45.7153   30.6752   47.1587 H   0  0  0  0  0  0  0  0  0  0  0  0
   46.8544   33.7868   46.1253 H   0  0  0  0  0  0  0  0  0  0  0  0
   45.4698   33.0673   48.5701 H   0  0  0  0  0  0  0  0  0  0  0  0
   44.7851   34.1003   47.2699 H   0  0  0  0  0  0  0  0  0  0  0  0
   44.4726   32.3314   47.2699 H   0  0  0  0  0  0  0  0  0  0  0  0
   47.0418   32.5761   48.6961 H   0  0  0  0  0  0  0  0  0  0  0  0
   47.5393   31.2608   47.5785 H   0  0  0  0  0  0  0  0  0  0  0  0
   48.4262   32.8229   47.5785 H   0  0  0  0  0  0  0  0  0  0  0  0
  2  1  1  0
  2 12  1  0
  3  2  1  0
  4  3  1  0
  4  5  1  0
  5  1  1  0
  6 11  1  0
  6  1  1  0
  7  6  2  0
  8  9  2  0
  8  7  1  0
  9 10  1  0
 10 11  2  0
 12 13  2  0
 12 14  1  0
 14 19  2  0
 15 16  2  0
 15 14  1  0
 16 17  1  0
 17 18  2  0
 19 18  1  0
 19 20  1  0
 20 21  1  0
 20 22  1  0
  1 23  1  1
  2 24  1  6
  3 25  1  0
  3 26  1  0
  4 27  1  0
  4 28  1  0
  5 29  1  0
  5 30  1  0
  7 31  1  0
  8 32  1  0
 10 33  1  0
 15 34  1  0
 16 35  1  0
 17 36  1  0
 18 37  1  0
 20 38  1  0
 21 39  1  0
 21 40  1  0
 21 41  1  0
 22 42  1  0
 22 43  1  0
 22 44  1  0
M  ISO  8  23  13  24  13  25  13  26  13  27  13  28  13  29  13  30  13
M  ISO  8  31  14  32  14  33  14  34  14  35  14  36  14  37  14  38   8
M  ISO  6  39   8  40   8  41   8  42   8  43   8  44   8
M  END
>  <minimizedAffinity>  (1) 
-5.33849335

>  <minimizedRMSD>  (1) 
2.39327955

$$$$
