
     RDKit          3D

 26 28  0  0  0  0  0  0  0  0999 V2000
   46.2410   34.2230   42.1150 N   0  0  0  0  0  0  0  0  0  0  0  0
   45.8370   34.2740   40.8320 C   0  0  0  0  0  0  0  0  0  0  0  0
   46.7920   33.7720   40.0280 N   0  0  0  0  0  0  0  0  0  0  0  0
   47.8010   33.4070   40.8390 C   0  0  0  0  0  0  0  0  0  0  0  0
   47.4740   33.6790   42.1320 N   0  0  0  0  0  0  0  0  0  0  0  0
   44.4390   36.0050   44.8640 C   0  0  0  0  0  0  0  0  0  0  0  0
   44.9420   35.7520   43.5930 C   0  0  0  0  0  0  0  0  0  0  0  0
   45.6750   34.5960   43.3670 C   0  0  0  0  0  0  0  0  0  0  0  0
   45.8630   33.7620   44.4240 N   0  0  0  0  0  0  0  0  0  0  0  0
   45.3640   34.0250   45.6640 C   0  0  0  0  0  0  0  0  0  0  0  0
   44.6590   35.1460   45.8640 N   0  0  0  0  0  0  0  0  0  0  0  0
   49.0900   32.7970   40.4320 C   0  0  0  0  0  0  0  0  0  0  0  0
   49.8320   32.3750   41.6700 C   0  0  0  0  0  0  0  0  0  0  0  0
   50.8930   33.2300   42.2540 C   0  0  0  0  0  0  0  0  0  0  0  0
   51.3020   32.0250   41.4560 C   0  0  0  0  0  0  0  0  0  0  0  0
   44.8684   34.6682   40.4909 H   0  0  0  0  0  0  0  0  0  0  0  0
   43.8555   36.9191   45.0481 H   0  0  0  0  0  0  0  0  0  0  0  0
   44.7603   36.4626   42.7732 H   0  0  0  0  0  0  0  0  0  0  0  0
   45.5384   33.3234   46.4930 H   0  0  0  0  0  0  0  0  0  0  0  0
   48.9006   31.9196   39.7961 H   0  0  0  0  0  0  0  0  0  0  0  0
   49.6883   33.5251   39.8647 H   0  0  0  0  0  0  0  0  0  0  0  0
   48.9373   31.9010   42.0999 H   0  0  0  0  0  0  0  0  0  0  0  0
   51.0667   34.2377   41.8486 H   0  0  0  0  0  0  0  0  0  0  0  0
   51.1168   33.5928   43.2681 H   0  0  0  0  0  0  0  0  0  0  0  0
   51.7421   31.1512   41.9587 H   0  0  0  0  0  0  0  0  0  0  0  0
   51.9473   31.8418   40.5842 H   0  0  0  0  0  0  0  0  0  0  0  0
  1  5  1  0
  1  8  1  0
  2  1  1  0
  3  2  2  0
  3  4  1  0
  4  5  2  0
  6 11  2  0
  7  6  1  0
  8  7  2  0
  8  9  1  0
  9 10  2  0
 10 11  1  0
 12  4  1  0
 12 13  1  0
 13 14  1  0
 15 13  1  0
 15 14  1  0
  2 16  1  0
  6 17  1  0
  7 18  1  0
 10 19  1  0
 12 20  1  0
 12 21  1  0
 13 22  1  0
 14 23  1  0
 14 24  1  0
 15 25  1  0
 15 26  1  0
M  ISO  8  16  14  17  14  18  14  19  14  20   8  21   8  22  13  23  13
M  ISO  3  24  13  25  13  26  13
M  END
>  <minimizedAffinity>  (1) 
-4.14545536

>  <minimizedRMSD>  (1) 
2.7243681

$$$$
