
     RDKit          3D

 26 28  0  0  0  0  0  0  0  0999 V2000
   45.6900   34.0800   41.7340 N   0  0  0  0  0  0  0  0  0  0  0  0
   45.1230   33.3310   40.7930 C   0  0  0  0  0  0  0  0  0  0  0  0
   45.8960   33.2710   39.6940 N   0  0  0  0  0  0  0  0  0  0  0  0
   46.9950   34.0230   39.9790 C   0  0  0  0  0  0  0  0  0  0  0  0
   46.8680   34.5250   41.2450 N   0  0  0  0  0  0  0  0  0  0  0  0
   44.4590   35.9650   44.7180 C   0  0  0  0  0  0  0  0  0  0  0  0
   44.7330   35.6690   43.3860 C   0  0  0  0  0  0  0  0  0  0  0  0
   45.3610   34.4840   43.0410 C   0  0  0  0  0  0  0  0  0  0  0  0
   45.6780   33.6610   44.0830 N   0  0  0  0  0  0  0  0  0  0  0  0
   45.4060   33.9570   45.3810 C   0  0  0  0  0  0  0  0  0  0  0  0
   44.7970   35.1160   45.6670 N   0  0  0  0  0  0  0  0  0  0  0  0
   48.1630   34.2760   39.1070 C   0  0  0  0  0  0  0  0  0  0  0  0
   48.9090   32.9710   39.0440 C   0  0  0  0  0  0  0  0  0  0  0  0
   49.2350   32.3580   37.8510 C   0  0  0  0  0  0  0  0  0  0  0  0
   49.9010   31.2080   38.2740 C   0  0  0  0  0  0  0  0  0  0  0  0
   49.9460   31.1810   39.6530 C   0  0  0  0  0  0  0  0  0  0  0  0
   49.3320   32.2660   40.0620 O   0  0  0  0  0  0  0  0  0  0  0  0
   44.1509   32.8273   40.8992 H   0  0  0  0  0  0  0  0  0  0  0  0
   43.9593   36.9096   44.9789 H   0  0  0  0  0  0  0  0  0  0  0  0
   44.4479   36.3833   42.5996 H   0  0  0  0  0  0  0  0  0  0  0  0
   45.6811   33.2569   46.1836 H   0  0  0  0  0  0  0  0  0  0  0  0
   47.8338   34.5793   38.1022 H   0  0  0  0  0  0  0  0  0  0  0  0
   48.7944   35.0881   39.4966 H   0  0  0  0  0  0  0  0  0  0  0  0
   49.0229   32.6924   36.8248 H   0  0  0  0  0  0  0  0  0  0  0  0
   50.3253   30.4403   37.6103 H   0  0  0  0  0  0  0  0  0  0  0  0
   50.4049   30.4050   40.2833 H   0  0  0  0  0  0  0  0  0  0  0  0
  1  8  1  0
  2  1  1  0
  3  4  1  0
  3  2  2  0
  4  5  2  0
  5  1  1  0
  6 11  2  0
  7  6  1  0
  8  7  2  0
  8  9  1  0
  9 10  2  0
 10 11  1  0
 12  4  1  0
 13 12  1  0
 13 17  1  0
 14 15  1  0
 14 13  2  0
 15 16  2  0
 16 17  1  0
  2 18  1  0
  6 19  1  0
  7 20  1  0
 10 21  1  0
 12 22  1  0
 12 23  1  0
 14 24  1  0
 15 25  1  0
 16 26  1  0
M  ISO  8  18  14  19  14  20  14  21  14  22   8  23   8  24  14  25  14
M  ISO  1  26  14
M  END
>  <minimizedAffinity>  (1) 
-4.07884979

>  <minimizedRMSD>  (1) 
0.632100403

$$$$
