
     RDKit          3D

 25 27  0  0  0  0  0  0  0  0999 V2000
   45.6710   34.0990   41.7500 N   0  0  0  0  0  0  0  0  0  0  0  0
   45.0540   33.3700   40.7980 C   0  0  0  0  0  0  0  0  0  0  0  0
   45.8260   33.2760   39.7080 N   0  0  0  0  0  0  0  0  0  0  0  0
   46.9480   33.9670   39.9990 C   0  0  0  0  0  0  0  0  0  0  0  0
   46.8660   34.4870   41.2700 N   0  0  0  0  0  0  0  0  0  0  0  0
   44.4520   35.9850   44.7420 C   0  0  0  0  0  0  0  0  0  0  0  0
   44.7180   35.7030   43.3910 C   0  0  0  0  0  0  0  0  0  0  0  0
   45.3420   34.5120   43.0610 C   0  0  0  0  0  0  0  0  0  0  0  0
   45.6610   33.6770   44.0980 N   0  0  0  0  0  0  0  0  0  0  0  0
   45.4020   33.9510   45.3970 C   0  0  0  0  0  0  0  0  0  0  0  0
   44.7940   35.1180   45.6920 N   0  0  0  0  0  0  0  0  0  0  0  0
   48.1250   34.1670   39.1240 C   0  0  0  0  0  0  0  0  0  0  0  0
   48.9590   32.9220   39.2960 C   0  0  0  0  0  0  0  0  0  0  0  0
   49.2350   32.1300   38.1440 C   0  0  0  0  0  0  0  0  0  0  0  0
   50.2400   30.7700   38.8000 S   0  0  0  0  0  0  0  0  0  0  0  0
   50.1260   31.4990   40.5550 C   0  0  0  0  0  0  0  0  0  0  0  0
   49.5020   32.4230   40.4000 N   0  0  0  0  0  0  0  0  0  0  0  0
   44.0572   32.9166   40.9022 H   0  0  0  0  0  0  0  0  0  0  0  0
   43.9578   36.9288   45.0160 H   0  0  0  0  0  0  0  0  0  0  0  0
   44.4341   36.4193   42.6060 H   0  0  0  0  0  0  0  0  0  0  0  0
   45.6796   33.2417   46.1906 H   0  0  0  0  0  0  0  0  0  0  0  0
   48.6911   35.0571   39.4358 H   0  0  0  0  0  0  0  0  0  0  0  0
   47.8359   34.3276   38.0749 H   0  0  0  0  0  0  0  0  0  0  0  0
   48.9152   32.3021   37.1057 H   0  0  0  0  0  0  0  0  0  0  0  0
   50.5616   31.1132   41.4885 H   0  0  0  0  0  0  0  0  0  0  0  0
  1  8  1  0
  2  1  1  0
  3  4  1  0
  3  2  2  0
  4  5  2  0
  5  1  1  0
  6 11  2  0
  7  6  1  0
  8  7  2  0
  8  9  1  0
  9 10  2  0
 10 11  1  0
 12 13  1  0
 12  4  1  0
 13 17  1  0
 14 15  1  0
 14 13  2  0
 15 16  1  0
 17 16  2  0
  2 18  1  0
  6 19  1  0
  7 20  1  0
 10 21  1  0
 12 22  1  0
 12 23  1  0
 14 24  1  0
 16 25  1  0
M  ISO  8  18  14  19  14  20  14  21  14  22   8  23   8  24  14  25  14
M  END
>  <minimizedAffinity>  (1) 
-4.06679487

>  <minimizedRMSD>  (1) 
0.360842675

$$$$
