
     RDKit          3D

 25 27  0  0  0  0  0  0  0  0999 V2000
   45.6830   34.0950   41.7430 N   0  0  0  0  0  0  0  0  0  0  0  0
   45.0960   33.3610   40.7990 C   0  0  0  0  0  0  0  0  0  0  0  0
   45.8490   33.2770   39.7090 N   0  0  0  0  0  0  0  0  0  0  0  0
   46.9660   33.9960   39.9860 C   0  0  0  0  0  0  0  0  0  0  0  0
   46.8720   34.5110   41.2550 N   0  0  0  0  0  0  0  0  0  0  0  0
   44.4540   35.9720   44.7400 C   0  0  0  0  0  0  0  0  0  0  0  0
   44.7260   35.6890   43.3990 C   0  0  0  0  0  0  0  0  0  0  0  0
   45.3530   34.5020   43.0560 C   0  0  0  0  0  0  0  0  0  0  0  0
   45.6720   33.6670   44.0910 N   0  0  0  0  0  0  0  0  0  0  0  0
   45.3990   33.9610   45.3950 C   0  0  0  0  0  0  0  0  0  0  0  0
   44.7930   35.1160   45.6840 N   0  0  0  0  0  0  0  0  0  0  0  0
   48.1460   34.2320   39.1260 C   0  0  0  0  0  0  0  0  0  0  0  0
   48.8900   32.9710   39.1200 N   0  0  0  0  0  0  0  0  0  0  0  0
   49.3590   32.2070   40.1260 C   0  0  0  0  0  0  0  0  0  0  0  0
   49.9870   31.1270   39.6200 N   0  0  0  0  0  0  0  0  0  0  0  0
   49.9140   31.2090   38.2770 C   0  0  0  0  0  0  0  0  0  0  0  0
   49.2400   32.3410   37.9990 N   0  0  0  0  0  0  0  0  0  0  0  0
   44.1108   32.8843   40.9089 H   0  0  0  0  0  0  0  0  0  0  0  0
   43.9543   36.9141   45.0097 H   0  0  0  0  0  0  0  0  0  0  0  0
   44.4426   36.4080   42.6162 H   0  0  0  0  0  0  0  0  0  0  0  0
   45.6735   33.2583   46.1956 H   0  0  0  0  0  0  0  0  0  0  0  0
   47.8305   34.4961   38.1058 H   0  0  0  0  0  0  0  0  0  0  0  0
   48.7606   35.0644   39.4992 H   0  0  0  0  0  0  0  0  0  0  0  0
   49.2465   32.4306   41.1971 H   0  0  0  0  0  0  0  0  0  0  0  0
   50.3244   30.4921   37.5506 H   0  0  0  0  0  0  0  0  0  0  0  0
  1  8  1  0
  2  1  1  0
  3  4  1  0
  3  2  2  0
  4  5  2  0
  5  1  1  0
  6 11  2  0
  7  6  1  0
  8  7  2  0
  8  9  1  0
  9 10  2  0
 10 11  1  0
 12  4  1  0
 13 12  1  0
 13 14  1  0
 15 14  2  0
 16 15  1  0
 17 16  2  0
 17 13  1  0
  2 18  1  0
  6 19  1  0
  7 20  1  0
 10 21  1  0
 12 22  1  0
 12 23  1  0
 14 24  1  0
 16 25  1  0
M  ISO  8  18  14  19  14  20  14  21  14  22   8  23   8  24  14  25  14
M  END
>  <minimizedAffinity>  (1) 
-4.00688982

>  <minimizedRMSD>  (1) 
0.733117402

$$$$
