
     RDKit          3D

 21 22  0  0  0  0  0  0  0  0999 V2000
   45.6420   34.1470   41.6880 N   0  0  0  0  0  0  0  0  0  0  0  0
   44.9410   33.7260   40.6320 C   0  0  0  0  0  0  0  0  0  0  0  0
   45.7560   33.4980   39.5890 N   0  0  0  0  0  0  0  0  0  0  0  0
   47.0090   33.7920   40.0280 C   0  0  0  0  0  0  0  0  0  0  0  0
   46.9450   34.1960   41.3280 N   0  0  0  0  0  0  0  0  0  0  0  0
   44.4550   35.9960   44.7180 C   0  0  0  0  0  0  0  0  0  0  0  0
   44.7170   35.7110   43.3860 C   0  0  0  0  0  0  0  0  0  0  0  0
   45.3340   34.5280   43.0160 C   0  0  0  0  0  0  0  0  0  0  0  0
   45.6600   33.6810   44.0370 N   0  0  0  0  0  0  0  0  0  0  0  0
   45.4090   33.9520   45.3430 C   0  0  0  0  0  0  0  0  0  0  0  0
   44.8040   35.1190   45.6580 N   0  0  0  0  0  0  0  0  0  0  0  0
   48.2720   33.7000   39.2690 C   0  0  0  0  0  0  0  0  0  0  0  0
   48.4230   34.7210   38.2590 N   0  0  0  0  0  0  0  0  0  0  0  0
   43.8501   33.5858   40.6184 H   0  0  0  0  0  0  0  0  0  0  0  0
   43.9625   36.9395   44.9961 H   0  0  0  0  0  0  0  0  0  0  0  0
   44.4299   36.4368   42.6109 H   0  0  0  0  0  0  0  0  0  0  0  0
   45.6921   33.2365   46.1291 H   0  0  0  0  0  0  0  0  0  0  0  0
   49.1090   33.7870   39.9774 H   0  0  0  0  0  0  0  0  0  0  0  0
   48.2606   32.7324   38.7459 H   0  0  0  0  0  0  0  0  0  0  0  0
   48.5583   35.6356   38.7129 H   0  0  0  0  0  0  0  0  0  0  0  0
   49.2412   34.5048   37.6718 H   0  0  0  0  0  0  0  0  0  0  0  0
  1  8  1  0
  2  1  1  0
  3  4  1  0
  3  2  2  0
  4  5  2  0
  5  1  1  0
  6 11  2  0
  7  6  1  0
  8  7  2  0
  8  9  1  0
  9 10  2  0
 10 11  1  0
 12  4  1  0
 13 12  1  0
  2 14  1  0
  6 15  1  0
  7 16  1  0
 10 17  1  0
 12 18  1  0
 12 19  1  0
 13 20  1  0
 13 21  1  0
M  ISO  8  14  14  15  14  16  14  17  14  18   8  19   8  20   5  21   5
M  END
>  <minimizedAffinity>  (1) 
-3.86679745

>  <minimizedRMSD>  (1) 
0.372140616

$$$$
