
     RDKit          3D

 42 45  0  0  1  0  0  0  0  0999 V2000
   49.1000   33.6940   42.6170 C   0  0  2  0  0  0  0  0  0  0  0  0
   47.7110   33.9280   42.4200 C   0  0  2  0  0  0  0  0  0  0  0  0
   47.6390   35.3940   41.9260 C   0  0  0  0  0  0  0  0  0  0  0  0
   49.0110   35.8550   41.5650 C   0  0  0  0  0  0  0  0  0  0  0  0
   49.8200   35.0900   42.5200 C   0  0  0  0  0  0  0  0  0  0  0  0
   49.8440   32.8770   41.6640 C   0  0  0  0  0  0  0  0  0  0  0  0
   49.1870   32.4970   40.5140 C   0  0  0  0  0  0  0  0  0  0  0  0
   49.7880   31.7070   39.5430 C   0  0  0  0  0  0  0  0  0  0  0  0
   51.0980   31.3430   39.8310 N   0  0  0  0  0  0  0  0  0  0  0  0
   51.7300   31.7120   40.9370 C   0  0  0  0  0  0  0  0  0  0  0  0
   51.0900   32.4660   41.8200 N   0  0  0  0  0  0  0  0  0  0  0  0
   46.8260   33.7660   43.6010 C   0  0  0  0  0  0  0  0  0  0  0  0
   45.8620   34.4750   43.7630 O   0  0  0  0  0  0  0  0  0  0  0  0
   46.9560   32.8120   44.6690 C   0  0  0  0  0  0  0  0  0  0  0  0
   46.7830   33.1950   46.0030 C   0  0  0  0  0  0  0  0  0  0  0  0
   46.9150   32.3290   47.0920 C   0  0  0  0  0  0  0  0  0  0  0  0
   47.2430   31.0030   46.8390 C   0  0  0  0  0  0  0  0  0  0  0  0
   47.4210   30.5900   45.5160 C   0  0  0  0  0  0  0  0  0  0  0  0
   47.2680   31.5080   44.4790 C   0  0  0  0  0  0  0  0  0  0  0  0
   47.3900   30.6450   43.3630 N   0  0  0  0  0  0  0  0  0  0  0  0
   46.6720   30.4150   42.2830 N   0  0  0  0  0  0  0  0  0  0  0  0
   47.3320   29.5360   41.4630 C   0  0  0  0  0  0  0  0  0  0  0  0
   48.5170   29.1930   42.0450 C   0  0  0  0  0  0  0  0  0  0  0  0
   48.5230   29.8900   43.2110 C   0  0  0  0  0  0  0  0  0  0  0  0
   49.1103   33.1448   43.5700 H   0  0  0  0  0  0  0  0  0  0  0  0
   47.3326   33.1655   41.7232 H   0  0  0  0  0  0  0  0  0  0  0  0
   46.9861   35.4535   41.0428 H   0  0  0  0  0  0  0  0  0  0  0  0
   47.2304   36.0338   42.7220 H   0  0  0  0  0  0  0  0  0  0  0  0
   49.2632   35.5994   40.5253 H   0  0  0  0  0  0  0  0  0  0  0  0
   49.1535   36.9444   41.6185 H   0  0  0  0  0  0  0  0  0  0  0  0
   50.8493   34.9717   42.1505 H   0  0  0  0  0  0  0  0  0  0  0  0
   49.8974   35.5895   43.4970 H   0  0  0  0  0  0  0  0  0  0  0  0
   48.1504   32.8311   40.3598 H   0  0  0  0  0  0  0  0  0  0  0  0
   49.2709   31.3956   38.6234 H   0  0  0  0  0  0  0  0  0  0  0  0
   52.7683   31.3976   41.1188 H   0  0  0  0  0  0  0  0  0  0  0  0
   46.5267   34.2449   46.2082 H   0  0  0  0  0  0  0  0  0  0  0  0
   46.7634   32.6874   48.1209 H   0  0  0  0  0  0  0  0  0  0  0  0
   47.3608   30.2891   47.6675 H   0  0  0  0  0  0  0  0  0  0  0  0
   47.6809   29.5444   45.2941 H   0  0  0  0  0  0  0  0  0  0  0  0
   46.9654   29.1675   40.4936 H   0  0  0  0  0  0  0  0  0  0  0  0
   49.2887   28.5104   41.6596 H   0  0  0  0  0  0  0  0  0  0  0  0
   49.3406   29.8526   43.9459 H   0  0  0  0  0  0  0  0  0  0  0  0
  2  1  1  0
  2 12  1  0
  3  2  1  0
  4  3  1  0
  4  5  1  0
  5  1  1  0
  6 11  1  0
  6  1  1  0
  7  6  2  0
  8  9  2  0
  8  7  1  0
  9 10  1  0
 10 11  2  0
 12 13  2  0
 12 14  1  0
 14 15  2  0
 15 16  1  0
 17 16  2  0
 18 17  1  0
 19 14  1  0
 19 18  2  0
 20 19  1  0
 21 20  1  0
 22 23  1  0
 22 21  2  0
 23 24  2  0
 24 20  1  0
  1 25  1  1
  2 26  1  6
  3 27  1  0
  3 28  1  0
  4 29  1  0
  4 30  1  0
  5 31  1  0
  5 32  1  0
  7 33  1  0
  8 34  1  0
 10 35  1  0
 15 36  1  0
 16 37  1  0
 17 38  1  0
 18 39  1  0
 22 40  1  0
 23 41  1  0
 24 42  1  0
M  ISO  8  25  13  26  13  27  13  28  13  29  13  30  13  31  13  32  13
M  ISO  8  33  14  34  14  35  14  36  14  37  14  38  14  39  14  40  14
M  ISO  2  41  14  42  14
M  END
>  <minimizedAffinity>  (1) 
-5.33603239

>  <minimizedRMSD>  (1) 
0.428976923

$$$$
