
     RDKit          3D

 45 49  0  0  1  0  0  0  0  0999 V2000
   42.1280   34.4870   41.1700 N   0  0  0  0  0  0  0  0  0  0  0  0
   41.0810   35.3530   41.6800 C   0  0  0  0  0  0  0  0  0  0  0  0
   40.5030   36.1650   40.5820 C   0  0  0  0  0  0  0  0  0  0  0  0
   40.0890   35.3670   39.3940 C   0  0  0  0  0  0  0  0  0  0  0  0
   40.9670   34.2200   39.0400 C   0  0  0  0  0  0  0  0  0  0  0  0
   41.6490   33.5640   40.1940 C   0  0  2  0  0  0  0  0  0  0  0  0
   40.8200   32.5940   40.8950 N   0  0  0  0  0  0  0  0  0  0  0  0
   39.5100   32.4100   40.9430 C   0  0  0  0  0  0  0  0  0  0  0  0
   39.2080   31.3540   41.7490 N   0  0  0  0  0  0  0  0  0  0  0  0
   40.3910   30.8910   42.1990 C   0  0  0  0  0  0  0  0  0  0  0  0
   40.5800   29.8070   43.0640 C   0  0  0  0  0  0  0  0  0  0  0  0
   41.8640   29.5400   43.3670 N   0  0  0  0  0  0  0  0  0  0  0  0
   42.8850   30.2610   42.8770 C   0  0  0  0  0  0  0  0  0  0  0  0
   42.6320   31.2910   42.0500 N   0  0  0  0  0  0  0  0  0  0  0  0
   41.4120   31.6670   41.6650 C   0  0  0  0  0  0  0  0  0  0  0  0
   43.2380   35.2540   40.7530 C   0  0  0  0  0  0  0  0  0  0  0  0
   46.3590   34.8010   42.5150 N   0  0  0  0  0  0  0  0  0  0  0  0
   45.6330   35.4190   43.4390 C   0  0  0  0  0  0  0  0  0  0  0  0
   44.4030   35.6970   43.0050 N   0  0  0  0  0  0  0  0  0  0  0  0
   44.3730   35.2180   41.7280 C   0  0  0  0  0  0  0  0  0  0  0  0
   45.5800   34.6610   41.4200 N   0  0  0  0  0  0  0  0  0  0  0  0
   50.0640   34.4370   42.3560 C   0  0  0  0  0  0  0  0  0  0  0  0
   48.8420   35.0720   42.4620 C   0  0  0  0  0  0  0  0  0  0  0  0
   47.6730   34.2870   42.4200 C   0  0  0  0  0  0  0  0  0  0  0  0
   47.8520   32.9610   42.2800 N   0  0  0  0  0  0  0  0  0  0  0  0
   49.0470   32.3490   42.1800 C   0  0  0  0  0  0  0  0  0  0  0  0
   50.1660   33.1180   42.2200 N   0  0  0  0  0  0  0  0  0  0  0  0
   40.2890   34.7374   42.1315 H   0  0  0  0  0  0  0  0  0  0  0  0
   41.5112   36.0275   42.4350 H   0  0  0  0  0  0  0  0  0  0  0  0
   39.6192   36.6926   40.9698 H   0  0  0  0  0  0  0  0  0  0  0  0
   41.2919   36.8534   40.2448 H   0  0  0  0  0  0  0  0  0  0  0  0
   39.0812   34.9716   39.5889 H   0  0  0  0  0  0  0  0  0  0  0  0
   40.1446   36.0574   38.5394 H   0  0  0  0  0  0  0  0  0  0  0  0
   40.3505   33.4628   38.5334 H   0  0  0  0  0  0  0  0  0  0  0  0
   41.7662   34.6309   38.4056 H   0  0  0  0  0  0  0  0  0  0  0  0
   42.4942   33.0494   39.7135 H   0  0  0  0  0  0  0  0  0  0  0  0
   38.7699   33.0230   40.4078 H   0  0  0  0  0  0  0  0  0  0  0  0
   39.7425   29.2178   43.4658 H   0  0  0  0  0  0  0  0  0  0  0  0
   43.9209   30.0112   43.1499 H   0  0  0  0  0  0  0  0  0  0  0  0
   43.5922   34.8622   39.7881 H   0  0  0  0  0  0  0  0  0  0  0  0
   42.9048   36.2994   40.6743 H   0  0  0  0  0  0  0  0  0  0  0  0
   46.0024   35.6718   44.4438 H   0  0  0  0  0  0  0  0  0  0  0  0
   50.9824   35.0417   42.3850 H   0  0  0  0  0  0  0  0  0  0  0  0
   48.7830   36.1644   42.5765 H   0  0  0  0  0  0  0  0  0  0  0  0
   49.1153   31.2567   42.0690 H   0  0  0  0  0  0  0  0  0  0  0  0
  1  2  1  0
  3  2  1  0
  4  3  1  0
  5  4  1  0
  5  6  1  0
  6  7  1  0
  6  1  1  0
  7  8  1  0
  7 15  1  0
  8  9  2  0
  9 10  1  0
 10 11  2  0
 11 12  1  0
 13 12  2  0
 14 13  1  0
 15 14  2  0
 15 10  1  0
 16  1  1  0
 16 20  1  0
 17 18  1  0
 19 18  2  0
 20 19  1  0
 21 20  2  0
 21 17  1  0
 22 23  2  0
 24 23  1  0
 24 17  1  0
 25 24  2  0
 26 27  2  0
 26 25  1  0
 27 22  1  0
  2 28  1  0
  2 29  1  0
  3 30  1  0
  3 31  1  0
  4 32  1  0
  4 33  1  0
  5 34  1  0
  5 35  1  0
  6 36  1  6
  8 37  1  0
 11 38  1  0
 13 39  1  0
 16 40  1  0
 16 41  1  0
 18 42  1  0
 22 43  1  0
 23 44  1  0
 26 45  1  0
M  ISO  8  28  13  29  13  30  13  31  13  32  13  33  13  34  13  35  13
M  ISO  8  36  13  37  14  38  14  39  14  40   8  41   8  42  14  43  14
M  ISO  2  44  14  45  14
M  END
>  <minimizedAffinity>  (1) 
-6.63648844

>  <minimizedRMSD>  (1) 
1.58608663

$$$$
