
     RDKit          3D

 47 50  0  0  1  0  0  0  0  0999 V2000
   42.1140   34.6280   41.2960 N   0  0  0  0  0  0  0  0  0  0  0  0
   41.0060   35.4150   41.7960 C   0  0  0  0  0  0  0  0  0  0  0  0
   40.4740   36.2870   40.7170 C   0  0  0  0  0  0  0  0  0  0  0  0
   40.1290   35.5340   39.4850 C   0  0  0  0  0  0  0  0  0  0  0  0
   41.1310   34.5080   39.0660 C   0  0  0  0  0  0  0  0  0  0  0  0
   41.7360   33.7660   40.2100 C   0  0  2  0  0  0  0  0  0  0  0  0
   39.8080   30.3520   41.8510 C   0  0  0  0  0  0  0  0  0  0  0  0
   41.0650   30.7610   42.2450 C   0  0  0  0  0  0  0  0  0  0  0  0
   41.6220   31.8800   41.6620 C   0  0  0  0  0  0  0  0  0  0  0  0
   40.9370   32.6050   40.6840 C   0  0  0  0  0  0  0  0  0  0  0  0
   39.6810   32.1880   40.2990 C   0  0  0  0  0  0  0  0  0  0  0  0
   39.1300   31.0670   40.8860 C   0  0  0  0  0  0  0  0  0  0  0  0
   38.9710   28.9520   42.5000 S   0  0  0  0  0  0  0  0  0  0  0  0
   39.4630   27.6920   41.8470 O   0  0  0  0  0  0  0  0  0  0  0  0
   37.4970   29.1130   42.4050 O   0  0  0  0  0  0  0  0  0  0  0  0
   43.2220   35.4530   41.0100 C   0  0  0  0  0  0  0  0  0  0  0  0
   46.3610   34.6800   42.6250 N   0  0  0  0  0  0  0  0  0  0  0  0
   45.6540   35.1260   43.6560 C   0  0  0  0  0  0  0  0  0  0  0  0
   44.4140   35.4840   43.2880 N   0  0  0  0  0  0  0  0  0  0  0  0
   44.3620   35.2420   41.9540 C   0  0  0  0  0  0  0  0  0  0  0  0
   45.5710   34.7400   41.5250 N   0  0  0  0  0  0  0  0  0  0  0  0
   50.0670   34.3120   42.3720 C   0  0  0  0  0  0  0  0  0  0  0  0
   48.8470   34.9240   42.5960 C   0  0  0  0  0  0  0  0  0  0  0  0
   47.6740   34.1880   42.4330 C   0  0  0  0  0  0  0  0  0  0  0  0
   47.8340   32.8930   42.0580 N   0  0  0  0  0  0  0  0  0  0  0  0
   49.0270   32.2990   41.8410 C   0  0  0  0  0  0  0  0  0  0  0  0
   50.1430   33.0350   42.0050 N   0  0  0  0  0  0  0  0  0  0  0  0
   40.2097   34.7417   42.1460 H   0  0  0  0  0  0  0  0  0  0  0  0
   41.3561   36.0433   42.6283 H   0  0  0  0  0  0  0  0  0  0  0  0
   39.5682   36.7900   41.0864 H   0  0  0  0  0  0  0  0  0  0  0  0
   41.2630   37.0071   40.4545 H   0  0  0  0  0  0  0  0  0  0  0  0
   39.1697   35.0234   39.6555 H   0  0  0  0  0  0  0  0  0  0  0  0
   40.0933   36.2756   38.6734 H   0  0  0  0  0  0  0  0  0  0  0  0
   40.6322   33.7834   38.4056 H   0  0  0  0  0  0  0  0  0  0  0  0
   41.9478   35.0416   38.5579 H   0  0  0  0  0  0  0  0  0  0  0  0
   42.6587   33.3366   39.7926 H   0  0  0  0  0  0  0  0  0  0  0  0
   41.6166   30.2015   43.0149 H   0  0  0  0  0  0  0  0  0  0  0  0
   42.6249   32.2078   41.9731 H   0  0  0  0  0  0  0  0  0  0  0  0
   39.1229   32.7435   39.5310 H   0  0  0  0  0  0  0  0  0  0  0  0
   38.1274   30.7363   40.5772 H   0  0  0  0  0  0  0  0  0  0  0  0
   39.2596   28.8490   43.8353 H   0  0  0  0  0  0  0  0  0  0  0  0
   43.5672   35.2358   39.9884 H   0  0  0  0  0  0  0  0  0  0  0  0
   42.8931   36.4972   41.1170 H   0  0  0  0  0  0  0  0  0  0  0  0
   46.0371   35.1938   44.6849 H   0  0  0  0  0  0  0  0  0  0  0  0
   50.9927   34.8922   42.4997 H   0  0  0  0  0  0  0  0  0  0  0  0
   48.8026   35.9803   42.8996 H   0  0  0  0  0  0  0  0  0  0  0  0
   49.0858   31.2430   41.5386 H   0  0  0  0  0  0  0  0  0  0  0  0
  1  2  1  0
  3  2  1  0
  4  3  1  0
  5  4  1  0
  5  6  1  0
  6 10  1  0
  6  1  1  0
  7  8  2  0
  7 13  1  0
  9  8  1  0
 10  9  2  0
 11 10  1  0
 11 12  2  0
 12  7  1  0
 14 13  2  0
 15 13  2  0
 16  1  1  0
 16 20  1  0
 17 18  1  0
 19 18  2  0
 20 19  1  0
 21 20  2  0
 21 17  1  0
 22 23  2  0
 24 23  1  0
 24 17  1  0
 25 24  2  0
 26 27  2  0
 26 25  1  0
 27 22  1  0
  2 28  1  0
  2 29  1  0
  3 30  1  0
  3 31  1  0
  4 32  1  0
  4 33  1  0
  5 34  1  0
  5 35  1  0
  6 36  1  6
  8 37  1  0
  9 38  1  0
 11 39  1  0
 12 40  1  0
 13 41  1  0
 16 42  1  0
 16 43  1  0
 18 44  1  0
 22 45  1  0
 23 46  1  0
 26 47  1  0
M  ISO  8  28  13  29  13  30  13  31  13  32  13  33  13  34  13  35  13
M  ISO  8  36  13  37  14  38  14  39  14  40  14  41  11  42   8  43   8
M  ISO  4  44  14  45  14  46  14  47  14
M  END
>  <minimizedAffinity>  (1) 
-6.40767097

>  <minimizedRMSD>  (1) 
2.20494509

$$$$
