
     RDKit          3D

 47 50  0  0  1  0  0  0  0  0999 V2000
   42.2870   33.9050   40.3870 N   0  0  0  0  0  0  0  0  0  0  0  0
   41.3340   34.3700   41.3640 C   0  0  0  0  0  0  0  0  0  0  0  0
   40.4770   35.4540   40.8040 C   0  0  0  0  0  0  0  0  0  0  0  0
   39.8560   35.0770   39.4990 C   0  0  0  0  0  0  0  0  0  0  0  0
   40.7300   34.3550   38.5470 C   0  0  0  0  0  0  0  0  0  0  0  0
   41.6600   33.3830   39.2260 C   0  0  1  0  0  0  0  0  0  0  0  0
   42.5940   32.8020   38.3170 N   0  0  0  0  0  0  0  0  0  0  0  0
   43.8270   33.3560   38.2340 C   0  0  0  0  0  0  0  0  0  0  0  0
   44.7230   32.7850   37.3510 C   0  0  0  0  0  0  0  0  0  0  0  0
   46.1010   33.3470   37.2100 C   0  0  0  0  0  0  0  0  0  0  0  0
   44.3750   31.6980   36.5890 C   0  0  0  0  0  0  0  0  0  0  0  0
   45.2180   31.2040   35.7950 O   0  0  0  0  0  0  0  0  0  0  0  0
   43.1240   31.2020   36.7290 N   0  0  0  0  0  0  0  0  0  0  0  0
   42.2150   31.7370   37.5860 C   0  0  0  0  0  0  0  0  0  0  0  0
   41.0590   31.2340   37.6790 O   0  0  0  0  0  0  0  0  0  0  0  0
   43.2270   34.9300   40.1180 C   0  0  0  0  0  0  0  0  0  0  0  0
   46.1980   34.8260   42.1740 N   0  0  0  0  0  0  0  0  0  0  0  0
   45.3810   35.5420   42.9460 C   0  0  0  0  0  0  0  0  0  0  0  0
   44.1910   35.7150   42.3800 N   0  0  0  0  0  0  0  0  0  0  0  0
   44.2710   35.0700   41.1860 C   0  0  0  0  0  0  0  0  0  0  0  0
   45.5170   34.5120   41.0450 N   0  0  0  0  0  0  0  0  0  0  0  0
   49.9180   34.5720   42.3800 C   0  0  0  0  0  0  0  0  0  0  0  0
   48.6640   35.1620   42.2980 C   0  0  0  0  0  0  0  0  0  0  0  0
   47.5230   34.3510   42.2550 C   0  0  0  0  0  0  0  0  0  0  0  0
   47.7460   33.0340   42.2980 N   0  0  0  0  0  0  0  0  0  0  0  0
   48.9530   32.4450   42.3780 C   0  0  0  0  0  0  0  0  0  0  0  0
   50.0390   33.2320   42.4170 N   0  0  0  0  0  0  0  0  0  0  0  0
   40.6948   33.5291   41.6710 H   0  0  0  0  0  0  0  0  0  0  0  0
   41.8857   34.7713   42.2269 H   0  0  0  0  0  0  0  0  0  0  0  0
   39.6761   35.6777   41.5240 H   0  0  0  0  0  0  0  0  0  0  0  0
   41.1191   36.3296   40.6275 H   0  0  0  0  0  0  0  0  0  0  0  0
   38.9887   34.4350   39.7124 H   0  0  0  0  0  0  0  0  0  0  0  0
   39.6034   36.0274   39.0062 H   0  0  0  0  0  0  0  0  0  0  0  0
   41.3333   35.0918   37.9964 H   0  0  0  0  0  0  0  0  0  0  0  0
   40.0792   33.7752   37.8760 H   0  0  0  0  0  0  0  0  0  0  0  0
   41.0156   32.5685   39.5883 H   0  0  0  0  0  0  0  0  0  0  0  0
   44.1043   34.2269   38.8460 H   0  0  0  0  0  0  0  0  0  0  0  0
   46.5296   33.5218   38.2079 H   0  0  0  0  0  0  0  0  0  0  0  0
   46.7329   32.6347   36.6592 H   0  0  0  0  0  0  0  0  0  0  0  0
   46.0545   34.2980   36.6592 H   0  0  0  0  0  0  0  0  0  0  0  0
   42.8496   30.3862   36.1633 H   0  0  0  0  0  0  0  0  0  0  0  0
   43.7291   34.7028   39.1660 H   0  0  0  0  0  0  0  0  0  0  0  0
   42.6726   35.8791   40.0767 H   0  0  0  0  0  0  0  0  0  0  0  0
   45.6582   35.9416   43.9327 H   0  0  0  0  0  0  0  0  0  0  0  0
   50.8181   35.2034   42.4149 H   0  0  0  0  0  0  0  0  0  0  0  0
   48.5674   36.2573   42.2671 H   0  0  0  0  0  0  0  0  0  0  0  0
   49.0468   31.3495   42.4105 H   0  0  0  0  0  0  0  0  0  0  0  0
  1  2  1  0
  3  2  1  0
  4  3  1  0
  5  6  1  0
  5  4  1  0
  6  1  1  0
  7  6  1  0
  8  7  1  0
  9  8  2  0
 10  9  1  0
 11 13  1  0
 11  9  1  0
 12 11  2  0
 13 14  1  0
 14 15  2  0
 14  7  1  0
 16  1  1  0
 16 20  1  0
 17 24  1  0
 17 18  1  0
 19 18  2  0
 20 19  1  0
 21 20  2  0
 21 17  1  0
 22 27  2  0
 23 22  1  0
 24 23  2  0
 24 25  1  0
 25 26  2  0
 26 27  1  0
  2 28  1  0
  2 29  1  0
  3 30  1  0
  3 31  1  0
  4 32  1  0
  4 33  1  0
  5 34  1  0
  5 35  1  0
  6 36  1  1
  8 37  1  0
 10 38  1  0
 10 39  1  0
 10 40  1  0
 13 41  1  0
 16 42  1  0
 16 43  1  0
 18 44  1  0
 22 45  1  0
 23 46  1  0
 26 47  1  0
M  ISO  8  28  13  29  13  30  13  31  13  32  13  33  13  34  13  35  13
M  ISO  8  36  13  37  14  38   8  39   8  40   8  41   9  42   8  43   8
M  ISO  4  44  14  45  14  46  14  47  14
M  END
>  <minimizedAffinity>  (1) 
-6.31194258

>  <minimizedRMSD>  (1) 
1.05247974

$$$$
