
     RDKit          3D

 41 44  0  0  1  0  0  0  0  0999 V2000
   42.0440   34.3580   41.1480 N   0  0  0  0  0  0  0  0  0  0  0  0
   40.9550   35.1480   41.6450 C   0  0  0  0  0  0  0  0  0  0  0  0
   40.2660   35.8490   40.5340 C   0  0  0  0  0  0  0  0  0  0  0  0
   39.8700   34.9340   39.4200 C   0  0  0  0  0  0  0  0  0  0  0  0
   40.8890   33.9080   39.0330 C   0  0  0  0  0  0  0  0  0  0  0  0
   41.6380   33.3430   40.2220 C   0  0  2  0  0  0  0  0  0  0  0  0
   40.8140   32.3600   40.9730 C   0  0  0  0  0  0  0  0  0  0  0  0
   39.6040   31.7870   40.5810 C   0  0  0  0  0  0  0  0  0  0  0  0
   39.2500   30.9620   41.5950 N   0  0  0  0  0  0  0  0  0  0  0  0
   40.2040   31.0280   42.5690 C   0  0  0  0  0  0  0  0  0  0  0  0
   41.1700   31.8920   42.1830 N   0  0  0  0  0  0  0  0  0  0  0  0
   43.0700   35.2000   40.6510 C   0  0  0  0  0  0  0  0  0  0  0  0
   46.2260   35.0500   42.3950 N   0  0  0  0  0  0  0  0  0  0  0  0
   45.5470   35.9090   43.1600 C   0  0  0  0  0  0  0  0  0  0  0  0
   44.3160   36.1230   42.6960 N   0  0  0  0  0  0  0  0  0  0  0  0
   44.2200   35.3630   41.5860 C   0  0  0  0  0  0  0  0  0  0  0  0
   45.4050   34.6880   41.3860 N   0  0  0  0  0  0  0  0  0  0  0  0
   49.9170   34.5150   42.2820 C   0  0  0  0  0  0  0  0  0  0  0  0
   48.7020   35.1990   42.2610 C   0  0  0  0  0  0  0  0  0  0  0  0
   47.5150   34.4770   42.3990 C   0  0  0  0  0  0  0  0  0  0  0  0
   47.6480   33.1500   42.5440 N   0  0  0  0  0  0  0  0  0  0  0  0
   48.8060   32.4790   42.5650 C   0  0  0  0  0  0  0  0  0  0  0  0
   49.9520   33.1920   42.4300 N   0  0  0  0  0  0  0  0  0  0  0  0
   40.2370   34.4912   42.1579 H   0  0  0  0  0  0  0  0  0  0  0  0
   41.3527   35.8984   42.3441 H   0  0  0  0  0  0  0  0  0  0  0  0
   39.3598   36.3294   40.9315 H   0  0  0  0  0  0  0  0  0  0  0  0
   40.9732   36.5830   40.1203 H   0  0  0  0  0  0  0  0  0  0  0  0
   38.9556   34.4044   39.7257 H   0  0  0  0  0  0  0  0  0  0  0  0
   39.7378   35.5754   38.5362 H   0  0  0  0  0  0  0  0  0  0  0  0
   40.3773   33.0827   38.5162 H   0  0  0  0  0  0  0  0  0  0  0  0
   41.6260   34.4034   38.3839 H   0  0  0  0  0  0  0  0  0  0  0  0
   42.5271   32.8550   39.7962 H   0  0  0  0  0  0  0  0  0  0  0  0
   39.0536   31.9672   39.6458 H   0  0  0  0  0  0  0  0  0  0  0  0
   40.1894   30.4683   43.5158 H   0  0  0  0  0  0  0  0  0  0  0  0
   42.0162   32.1436   42.7137 H   0  0  0  0  0  0  0  0  0  0  0  0
   43.4458   34.7708   39.7105 H   0  0  0  0  0  0  0  0  0  0  0  0
   42.6268   36.1970   40.5112 H   0  0  0  0  0  0  0  0  0  0  0  0
   45.9550   36.3831   44.0648 H   0  0  0  0  0  0  0  0  0  0  0  0
   50.8578   35.0749   42.1750 H   0  0  0  0  0  0  0  0  0  0  0  0
   48.6791   36.2918   42.1375 H   0  0  0  0  0  0  0  0  0  0  0  0
   48.8276   31.3861   42.6876 H   0  0  0  0  0  0  0  0  0  0  0  0
  1  2  1  0
  3  2  1  0
  4  3  1  0
  5  4  1  0
  5  6  1  0
  6  7  1  0
  6  1  1  0
  7 11  1  0
  8  7  2  0
  8  9  1  0
  9 10  2  0
 11 10  1  0
 12  1  1  0
 12 16  1  0
 13 20  1  0
 13 14  1  0
 15 14  2  0
 16 15  1  0
 17 16  2  0
 17 13  1  0
 18 23  2  0
 19 18  1  0
 19 20  2  0
 20 21  1  0
 21 22  2  0
 23 22  1  0
  2 24  1  0
  2 25  1  0
  3 26  1  0
  3 27  1  0
  4 28  1  0
  4 29  1  0
  5 30  1  0
  5 31  1  0
  6 32  1  6
  8 33  1  0
 10 34  1  0
 11 35  1  0
 12 36  1  0
 12 37  1  0
 14 38  1  0
 18 39  1  0
 19 40  1  0
 22 41  1  0
M  ISO  8  24  13  25  13  26  13  27  13  28  13  29  13  30  13  31  13
M  ISO  8  32  13  33  14  34  14  35   9  36   8  37   8  38  14  39  14
M  ISO  2  40  14  41  14
M  END
>  <minimizedAffinity>  (1) 
-6.18258238

>  <minimizedRMSD>  (1) 
1.52852523

$$$$
