
     RDKit          3D

 42 45  0  0  1  0  0  0  0  0999 V2000
   49.0620   33.6620   42.5910 C   0  0  2  0  0  0  0  0  0  0  0  0
   47.6820   33.8970   42.3580 C   0  0  2  0  0  0  0  0  0  0  0  0
   47.6430   35.3910   41.9120 C   0  0  0  0  0  0  0  0  0  0  0  0
   49.0200   35.8450   41.5910 C   0  0  0  0  0  0  0  0  0  0  0  0
   49.7960   35.0550   42.5530 C   0  0  0  0  0  0  0  0  0  0  0  0
   49.8430   32.8660   41.6500 C   0  0  0  0  0  0  0  0  0  0  0  0
   49.2100   32.4680   40.4950 C   0  0  0  0  0  0  0  0  0  0  0  0
   49.8210   31.6930   39.5210 C   0  0  0  0  0  0  0  0  0  0  0  0
   51.1390   31.3570   39.8160 N   0  0  0  0  0  0  0  0  0  0  0  0
   51.7540   31.7420   40.9260 C   0  0  0  0  0  0  0  0  0  0  0  0
   51.0950   32.4810   41.8100 N   0  0  0  0  0  0  0  0  0  0  0  0
   46.7560   33.7110   43.5000 C   0  0  0  0  0  0  0  0  0  0  0  0
   45.7330   34.3400   43.5930 O   0  0  0  0  0  0  0  0  0  0  0  0
   46.9060   32.8150   44.6130 C   0  0  0  0  0  0  0  0  0  0  0  0
   46.7480   33.2580   45.9350 C   0  0  0  0  0  0  0  0  0  0  0  0
   46.9250   32.4590   47.0650 C   0  0  0  0  0  0  0  0  0  0  0  0
   47.2860   31.1300   46.8940 C   0  0  0  0  0  0  0  0  0  0  0  0
   47.4520   30.6550   45.5860 C   0  0  0  0  0  0  0  0  0  0  0  0
   47.2520   31.5100   44.4990 C   0  0  0  0  0  0  0  0  0  0  0  0
   47.3700   30.6170   43.3750 C   0  0  0  0  0  0  0  0  0  0  0  0
   48.5340   29.8450   43.2320 C   0  0  0  0  0  0  0  0  0  0  0  0
   48.5770   29.1580   42.0130 C   0  0  0  0  0  0  0  0  0  0  0  0
   47.4380   29.5300   41.4500 N   0  0  0  0  0  0  0  0  0  0  0  0
   46.7600   30.3570   42.2280 N   0  0  0  0  0  0  0  0  0  0  0  0
   49.0294   33.0925   43.5315 H   0  0  0  0  0  0  0  0  0  0  0  0
   47.3217   33.1521   41.6332 H   0  0  0  0  0  0  0  0  0  0  0  0
   47.0061   35.4916   41.0208 H   0  0  0  0  0  0  0  0  0  0  0  0
   47.2328   36.0072   42.7256 H   0  0  0  0  0  0  0  0  0  0  0  0
   49.2948   35.6046   40.5534 H   0  0  0  0  0  0  0  0  0  0  0  0
   49.1718   36.9320   41.6639 H   0  0  0  0  0  0  0  0  0  0  0  0
   50.8358   34.9388   42.2136 H   0  0  0  0  0  0  0  0  0  0  0  0
   49.8484   35.5306   43.5435 H   0  0  0  0  0  0  0  0  0  0  0  0
   48.1672   32.7802   40.3364 H   0  0  0  0  0  0  0  0  0  0  0  0
   49.3111   31.3733   38.6002 H   0  0  0  0  0  0  0  0  0  0  0  0
   52.7987   31.4521   41.1121 H   0  0  0  0  0  0  0  0  0  0  0  0
   46.4646   34.3093   46.0915 H   0  0  0  0  0  0  0  0  0  0  0  0
   46.7810   32.8749   48.0731 H   0  0  0  0  0  0  0  0  0  0  0  0
   47.4374   30.4687   47.7599 H   0  0  0  0  0  0  0  0  0  0  0  0
   47.7402   29.6073   45.4147 H   0  0  0  0  0  0  0  0  0  0  0  0
   49.3251   29.7864   43.9940 H   0  0  0  0  0  0  0  0  0  0  0  0
   49.3548   28.4844   41.6241 H   0  0  0  0  0  0  0  0  0  0  0  0
   47.1198   29.2149   40.5224 H   0  0  0  0  0  0  0  0  0  0  0  0
  2  1  1  0
  2 12  1  0
  3  2  1  0
  4  3  1  0
  4  5  1  0
  5  1  1  0
  6 11  1  0
  6  1  1  0
  7  6  2  0
  8  9  2  0
  8  7  1  0
  9 10  1  0
 10 11  2  0
 12 13  2  0
 12 14  1  0
 14 15  2  0
 15 16  1  0
 17 16  2  0
 18 17  1  0
 19 14  1  0
 19 18  2  0
 20 19  1  0
 21 20  1  0
 22 21  2  0
 23 22  1  0
 23 24  1  0
 24 20  2  0
  1 25  1  1
  2 26  1  6
  3 27  1  0
  3 28  1  0
  4 29  1  0
  4 30  1  0
  5 31  1  0
  5 32  1  0
  7 33  1  0
  8 34  1  0
 10 35  1  0
 15 36  1  0
 16 37  1  0
 17 38  1  0
 18 39  1  0
 21 40  1  0
 22 41  1  0
 23 42  1  0
M  ISO  8  25  13  26  13  27  13  28  13  29  13  30  13  31  13  32  13
M  ISO  8  33  14  34  14  35  14  36  14  37  14  38  14  39  14  40  14
M  ISO  2  41  14  42   9
M  END
>  <minimizedAffinity>  (1) 
-5.32234192

>  <minimizedRMSD>  (1) 
0.406787217

$$$$
