
     RDKit          3D

 44 47  0  0  1  0  0  0  0  0999 V2000
   42.0390   33.8580   40.3950 N   0  0  0  0  0  0  0  0  0  0  0  0
   41.1510   34.3990   41.4070 C   0  0  0  0  0  0  0  0  0  0  0  0
   40.2920   35.4710   40.8190 C   0  0  0  0  0  0  0  0  0  0  0  0
   39.6010   35.0370   39.5700 C   0  0  0  0  0  0  0  0  0  0  0  0
   40.4190   34.2650   38.6080 C   0  0  0  0  0  0  0  0  0  0  0  0
   41.3320   33.2800   39.3100 C   0  0  1  0  0  0  0  0  0  0  0  0
   42.2100   32.5600   38.3970 C   0  0  0  0  0  0  0  0  0  0  0  0
   43.5430   32.8630   38.2640 C   0  0  0  0  0  0  0  0  0  0  0  0
   44.3840   32.1970   37.4100 C   0  0  0  0  0  0  0  0  0  0  0  0
   43.8310   31.1690   36.6540 C   0  0  0  0  0  0  0  0  0  0  0  0
   42.4850   30.8550   36.7800 C   0  0  0  0  0  0  0  0  0  0  0  0
   41.6510   31.5430   37.6510 C   0  0  0  0  0  0  0  0  0  0  0  0
   42.9920   34.8360   40.0390 C   0  0  0  0  0  0  0  0  0  0  0  0
   45.9820   34.9070   42.0580 N   0  0  0  0  0  0  0  0  0  0  0  0
   45.1630   35.6470   42.7970 C   0  0  0  0  0  0  0  0  0  0  0  0
   43.9580   35.7660   42.2340 N   0  0  0  0  0  0  0  0  0  0  0  0
   44.0420   35.0550   41.0790 C   0  0  0  0  0  0  0  0  0  0  0  0
   45.2970   34.5170   40.9590 N   0  0  0  0  0  0  0  0  0  0  0  0
   49.7030   34.7310   42.2400 C   0  0  0  0  0  0  0  0  0  0  0  0
   48.4480   35.3100   42.1370 C   0  0  0  0  0  0  0  0  0  0  0  0
   47.3230   34.4630   42.1550 C   0  0  0  0  0  0  0  0  0  0  0  0
   47.5730   33.1400   42.2740 N   0  0  0  0  0  0  0  0  0  0  0  0
   48.7990   32.5890   42.3730 C   0  0  0  0  0  0  0  0  0  0  0  0
   49.8600   33.4130   42.3540 N   0  0  0  0  0  0  0  0  0  0  0  0
   40.5112   33.5938   41.7973 H   0  0  0  0  0  0  0  0  0  0  0  0
   41.7534   34.8277   42.2215 H   0  0  0  0  0  0  0  0  0  0  0  0
   39.5314   35.7581   41.5600 H   0  0  0  0  0  0  0  0  0  0  0  0
   40.9471   36.3155   40.5591 H   0  0  0  0  0  0  0  0  0  0  0  0
   38.7438   34.4116   39.8601 H   0  0  0  0  0  0  0  0  0  0  0  0
   39.3264   35.9647   39.0466 H   0  0  0  0  0  0  0  0  0  0  0  0
   41.0331   34.9640   38.0212 H   0  0  0  0  0  0  0  0  0  0  0  0
   39.7374   33.6966   37.9581 H   0  0  0  0  0  0  0  0  0  0  0  0
   40.6626   32.5238   39.7459 H   0  0  0  0  0  0  0  0  0  0  0  0
   43.9565   33.6806   38.8728 H   0  0  0  0  0  0  0  0  0  0  0  0
   45.4479   32.4637   37.3266 H   0  0  0  0  0  0  0  0  0  0  0  0
   44.4626   30.6028   35.9537 H   0  0  0  0  0  0  0  0  0  0  0  0
   42.0674   30.0383   36.1729 H   0  0  0  0  0  0  0  0  0  0  0  0
   40.5852   31.2870   37.7428 H   0  0  0  0  0  0  0  0  0  0  0  0
   43.4852   34.5184   39.1085 H   0  0  0  0  0  0  0  0  0  0  0  0
   42.4505   35.7864   39.9224 H   0  0  0  0  0  0  0  0  0  0  0  0
   45.4434   36.1061   43.7565 H   0  0  0  0  0  0  0  0  0  0  0  0
   50.5932   35.3770   42.2273 H   0  0  0  0  0  0  0  0  0  0  0  0
   48.3339   36.4001   42.0438 H   0  0  0  0  0  0  0  0  0  0  0  0
   48.9267   31.5004   42.4663 H   0  0  0  0  0  0  0  0  0  0  0  0
  1  2  1  0
  3  2  1  0
  4  3  1  0
  5  6  1  0
  5  4  1  0
  6  1  1  0
  7  6  1  0
  8  7  2  0
  9  8  1  0
 10 11  1  0
 10  9  2  0
 11 12  2  0
 12  7  1  0
 13  1  1  0
 13 17  1  0
 14 21  1  0
 14 15  1  0
 16 15  2  0
 17 16  1  0
 18 17  2  0
 18 14  1  0
 19 24  2  0
 20 21  2  0
 20 19  1  0
 21 22  1  0
 22 23  2  0
 24 23  1  0
  2 25  1  0
  2 26  1  0
  3 27  1  0
  3 28  1  0
  4 29  1  0
  4 30  1  0
  5 31  1  0
  5 32  1  0
  6 33  1  1
  8 34  1  0
  9 35  1  0
 10 36  1  0
 11 37  1  0
 12 38  1  0
 13 39  1  0
 13 40  1  0
 15 41  1  0
 19 42  1  0
 20 43  1  0
 23 44  1  0
M  ISO  8  25  13  26  13  27  13  28  13  29  13  30  13  31  13  32  13
M  ISO  8  33  13  34  14  35  14  36  14  37  14  38  14  39   8  40   8
M  ISO  4  41  14  42  14  43  14  44  14
M  END
>  <minimizedAffinity>  (1) 
-5.99931574

>  <minimizedRMSD>  (1) 
1.11343634

$$$$
