
     RDKit          3D

 41 44  0  0  1  0  0  0  0  0999 V2000
   42.6100   34.5180   40.5230 N   0  0  0  0  0  0  0  0  0  0  0  0
   41.6000   33.9490   41.3630 C   0  0  0  0  0  0  0  0  0  0  0  0
   40.4450   34.8640   41.5010 C   0  0  0  0  0  0  0  0  0  0  0  0
   39.9170   35.3370   40.1860 C   0  0  0  0  0  0  0  0  0  0  0  0
   40.9420   35.6840   39.1630 C   0  0  0  0  0  0  0  0  0  0  0  0
   42.1590   34.7960   39.1870 C   0  0  2  0  0  0  0  0  0  0  0  0
   41.8710   33.4800   38.5560 C   0  0  0  0  0  0  0  0  0  0  0  0
   42.8480   32.5350   38.2680 C   0  0  0  0  0  0  0  0  0  0  0  0
   42.1330   31.4940   37.7020 C   0  0  0  0  0  0  0  0  0  0  0  0
   40.7930   31.8650   37.6830 C   0  0  0  0  0  0  0  0  0  0  0  0
   40.6970   33.0520   38.2020 O   0  0  0  0  0  0  0  0  0  0  0  0
   43.2010   35.6440   41.1450 C   0  0  0  0  0  0  0  0  0  0  0  0
   46.3340   34.6240   42.6240 N   0  0  0  0  0  0  0  0  0  0  0  0
   45.6280   34.9410   43.7180 C   0  0  0  0  0  0  0  0  0  0  0  0
   44.3990   35.3570   43.3950 N   0  0  0  0  0  0  0  0  0  0  0  0
   44.3410   35.2940   42.0410 C   0  0  0  0  0  0  0  0  0  0  0  0
   45.5410   34.8410   41.5640 N   0  0  0  0  0  0  0  0  0  0  0  0
   50.0430   34.2700   42.3480 C   0  0  0  0  0  0  0  0  0  0  0  0
   48.8150   34.8360   42.6480 C   0  0  0  0  0  0  0  0  0  0  0  0
   47.6330   34.1480   42.3640 C   0  0  0  0  0  0  0  0  0  0  0  0
   47.7920   32.9340   41.7940 N   0  0  0  0  0  0  0  0  0  0  0  0
   48.9720   32.3730   41.4990 C   0  0  0  0  0  0  0  0  0  0  0  0
   50.1060   33.0670   41.7880 N   0  0  0  0  0  0  0  0  0  0  0  0
   41.2572   33.0016   40.9215 H   0  0  0  0  0  0  0  0  0  0  0  0
   42.0308   33.7769   42.3604 H   0  0  0  0  0  0  0  0  0  0  0  0
   39.6401   34.3353   42.0326 H   0  0  0  0  0  0  0  0  0  0  0  0
   40.7898   35.7491   42.0557 H   0  0  0  0  0  0  0  0  0  0  0  0
   39.2821   34.5403   39.7709 H   0  0  0  0  0  0  0  0  0  0  0  0
   39.3790   36.2725   40.3991 H   0  0  0  0  0  0  0  0  0  0  0  0
   41.2669   36.7204   39.3370 H   0  0  0  0  0  0  0  0  0  0  0  0
   40.4683   35.5472   38.1797 H   0  0  0  0  0  0  0  0  0  0  0  0
   42.9345   35.3472   38.6349 H   0  0  0  0  0  0  0  0  0  0  0  0
   43.9314   32.5990   38.4471 H   0  0  0  0  0  0  0  0  0  0  0  0
   42.5494   30.5448   37.3338 H   0  0  0  0  0  0  0  0  0  0  0  0
   39.9601   31.2594   37.2962 H   0  0  0  0  0  0  0  0  0  0  0  0
   43.5688   36.3225   40.3612 H   0  0  0  0  0  0  0  0  0  0  0  0
   42.4276   36.1131   41.7709 H   0  0  0  0  0  0  0  0  0  0  0  0
   46.0096   34.8685   44.7471 H   0  0  0  0  0  0  0  0  0  0  0  0
   50.9693   34.8185   42.5742 H   0  0  0  0  0  0  0  0  0  0  0  0
   48.7703   35.8323   43.1122 H   0  0  0  0  0  0  0  0  0  0  0  0
   49.0229   31.3769   41.0351 H   0  0  0  0  0  0  0  0  0  0  0  0
  1 12  1  0
  1  2  1  0
  2  3  1  0
  4  3  1  0
  5  6  1  0
  5  4  1  0
  6  1  1  0
  7  6  1  0
  8  7  2  0
  9  8  1  0
 10  9  2  0
 10 11  1  0
 11  7  1  0
 12 16  1  0
 13 14  1  0
 15 14  2  0
 16 15  1  0
 17 16  2  0
 17 13  1  0
 18 19  2  0
 20 13  1  0
 20 19  1  0
 21 20  2  0
 22 23  2  0
 22 21  1  0
 23 18  1  0
  2 24  1  0
  2 25  1  0
  3 26  1  0
  3 27  1  0
  4 28  1  0
  4 29  1  0
  5 30  1  0
  5 31  1  0
  6 32  1  6
  8 33  1  0
  9 34  1  0
 10 35  1  0
 12 36  1  0
 12 37  1  0
 14 38  1  0
 18 39  1  0
 19 40  1  0
 22 41  1  0
M  ISO  8  24  13  25  13  26  13  27  13  28  13  29  13  30  13  31  13
M  ISO  8  32  13  33  14  34  14  35  14  36   8  37   8  38  14  39  14
M  ISO  2  40  14  41  14
M  END
>  <minimizedAffinity>  (1) 
-5.83029556

>  <minimizedRMSD>  (1) 
0.937862635

$$$$
