
     RDKit          3D

 41 44  0  0  1  0  0  0  0  0999 V2000
   49.0430   33.6470   42.5920 C   0  0  2  0  0  0  0  0  0  0  0  0
   47.6650   33.8880   42.3460 C   0  0  2  0  0  0  0  0  0  0  0  0
   47.6350   35.3880   41.9110 C   0  0  0  0  0  0  0  0  0  0  0  0
   49.0140   35.8370   41.6020 C   0  0  0  0  0  0  0  0  0  0  0  0
   49.7790   35.0390   42.5650 C   0  0  0  0  0  0  0  0  0  0  0  0
   49.8270   32.8530   41.6510 C   0  0  0  0  0  0  0  0  0  0  0  0
   49.1980   32.4540   40.4930 C   0  0  0  0  0  0  0  0  0  0  0  0
   49.8210   31.6830   39.5260 C   0  0  0  0  0  0  0  0  0  0  0  0
   51.1390   31.3540   39.8260 N   0  0  0  0  0  0  0  0  0  0  0  0
   51.7480   31.7410   40.9380 C   0  0  0  0  0  0  0  0  0  0  0  0
   51.0800   32.4760   41.8170 N   0  0  0  0  0  0  0  0  0  0  0  0
   46.7250   33.6990   43.4760 C   0  0  0  0  0  0  0  0  0  0  0  0
   45.6890   34.3070   43.5480 O   0  0  0  0  0  0  0  0  0  0  0  0
   46.8790   32.8180   44.5990 C   0  0  0  0  0  0  0  0  0  0  0  0
   46.7190   33.2760   45.9080 C   0  0  0  0  0  0  0  0  0  0  0  0
   46.9060   32.5180   47.0680 C   0  0  0  0  0  0  0  0  0  0  0  0
   47.2890   31.1920   46.9200 C   0  0  0  0  0  0  0  0  0  0  0  0
   47.4570   30.6970   45.6200 C   0  0  0  0  0  0  0  0  0  0  0  0
   47.2420   31.5190   44.5270 C   0  0  0  0  0  0  0  0  0  0  0  0
   47.3720   30.6000   43.4290 C   0  0  0  0  0  0  0  0  0  0  0  0
   48.7910   29.9040   43.5740 C   0  0  0  0  0  0  0  0  0  0  0  0
   48.9970   28.8930   42.0050 S   0  0  0  0  0  0  0  0  0  0  0  0
   47.2880   29.5140   41.4530 C   0  0  0  0  0  0  0  0  0  0  0  0
   46.9440   30.1790   42.2830 N   0  0  0  0  0  0  0  0  0  0  0  0
   49.0044   33.0743   43.5304 H   0  0  0  0  0  0  0  0  0  0  0  0
   47.3117   33.1482   41.6127 H   0  0  0  0  0  0  0  0  0  0  0  0
   47.0037   35.4987   41.0170 H   0  0  0  0  0  0  0  0  0  0  0  0
   47.2227   35.9998   42.7269 H   0  0  0  0  0  0  0  0  0  0  0  0
   49.2950   35.6005   40.5651 H   0  0  0  0  0  0  0  0  0  0  0  0
   49.1702   36.9230   41.6811 H   0  0  0  0  0  0  0  0  0  0  0  0
   50.8211   34.9220   42.2329 H   0  0  0  0  0  0  0  0  0  0  0  0
   49.8231   35.5095   43.5583 H   0  0  0  0  0  0  0  0  0  0  0  0
   48.1546   32.7612   40.3288 H   0  0  0  0  0  0  0  0  0  0  0  0
   49.3183   31.3594   38.6026 H   0  0  0  0  0  0  0  0  0  0  0  0
   52.7932   31.4564   41.1292 H   0  0  0  0  0  0  0  0  0  0  0  0
   46.4192   34.3263   46.0384 H   0  0  0  0  0  0  0  0  0  0  0  0
   46.7546   32.9579   48.0648 H   0  0  0  0  0  0  0  0  0  0  0  0
   47.4556   30.5492   47.7969 H   0  0  0  0  0  0  0  0  0  0  0  0
   47.7610   29.6509   45.4672 H   0  0  0  0  0  0  0  0  0  0  0  0
   49.4992   29.9942   44.4109 H   0  0  0  0  0  0  0  0  0  0  0  0
   46.7547   29.2723   40.5218 H   0  0  0  0  0  0  0  0  0  0  0  0
  2  1  1  0
  2 12  1  0
  3  2  1  0
  4  3  1  0
  4  5  1  0
  5  1  1  0
  6 11  1  0
  6  1  1  0
  7  6  2  0
  8  9  2  0
  8  7  1  0
  9 10  1  0
 10 11  2  0
 12 13  2  0
 12 14  1  0
 14 15  2  0
 15 16  1  0
 17 16  2  0
 18 17  1  0
 19 14  1  0
 19 18  2  0
 20 21  2  0
 20 19  1  0
 22 21  1  0
 23 22  1  0
 23 24  2  0
 24 20  1  0
  1 25  1  1
  2 26  1  6
  3 27  1  0
  3 28  1  0
  4 29  1  0
  4 30  1  0
  5 31  1  0
  5 32  1  0
  7 33  1  0
  8 34  1  0
 10 35  1  0
 15 36  1  0
 16 37  1  0
 17 38  1  0
 18 39  1  0
 21 40  1  0
 23 41  1  0
M  ISO  8  25  13  26  13  27  13  28  13  29  13  30  13  31  13  32  13
M  ISO  8  33  14  34  14  35  14  36  14  37  14  38  14  39  14  40  14
M  ISO  1  41  14
M  END
>  <minimizedAffinity>  (1) 
-5.30202007

>  <minimizedRMSD>  (1) 
0.553372562

$$$$
