
     RDKit          3D

 42 45  0  0  1  0  0  0  0  0999 V2000
   41.9650   34.3580   41.1060 N   0  0  0  0  0  0  0  0  0  0  0  0
   41.0360   35.2610   41.7310 C   0  0  0  0  0  0  0  0  0  0  0  0
   40.3610   36.1060   40.7030 C   0  0  0  0  0  0  0  0  0  0  0  0
   39.7660   35.3110   39.5840 C   0  0  0  0  0  0  0  0  0  0  0  0
   40.5790   34.1510   39.0990 C   0  0  0  0  0  0  0  0  0  0  0  0
   41.3390   33.4650   40.1890 C   0  0  1  0  0  0  0  0  0  0  0  0
   42.3740   32.6000   39.5620 C   0  0  0  0  0  0  0  0  0  0  0  0
   42.4910   32.5000   38.1730 C   0  0  0  0  0  0  0  0  0  0  0  0
   43.4560   31.6940   37.5970 C   0  0  0  0  0  0  0  0  0  0  0  0
   44.3100   30.9820   38.3610 N   0  0  0  0  0  0  0  0  0  0  0  0
   44.1910   31.0830   39.6870 C   0  0  0  0  0  0  0  0  0  0  0  0
   43.2600   31.8620   40.2570 N   0  0  0  0  0  0  0  0  0  0  0  0
   43.0450   35.0850   40.5580 C   0  0  0  0  0  0  0  0  0  0  0  0
   46.1790   34.9880   42.3340 N   0  0  0  0  0  0  0  0  0  0  0  0
   45.4810   35.8280   43.1120 C   0  0  0  0  0  0  0  0  0  0  0  0
   44.2480   36.0190   42.6320 N   0  0  0  0  0  0  0  0  0  0  0  0
   44.1880   35.2570   41.5030 C   0  0  0  0  0  0  0  0  0  0  0  0
   45.3860   34.6160   41.3160 N   0  0  0  0  0  0  0  0  0  0  0  0
   49.8760   34.5300   42.2630 C   0  0  0  0  0  0  0  0  0  0  0  0
   48.6640   35.1870   42.2200 C   0  0  0  0  0  0  0  0  0  0  0  0
   47.4850   34.4480   42.3580 C   0  0  0  0  0  0  0  0  0  0  0  0
   47.6400   33.1280   42.5270 N   0  0  0  0  0  0  0  0  0  0  0  0
   48.8210   32.4760   42.5710 C   0  0  0  0  0  0  0  0  0  0  0  0
   49.9530   33.2050   42.4350 N   0  0  0  0  0  0  0  0  0  0  0  0
   40.2782   34.6805   42.2776 H   0  0  0  0  0  0  0  0  0  0  0  0
   41.5851   35.9140   42.4254 H   0  0  0  0  0  0  0  0  0  0  0  0
   39.5577   36.6765   41.1921 H   0  0  0  0  0  0  0  0  0  0  0  0
   41.1273   36.7628   40.2656 H   0  0  0  0  0  0  0  0  0  0  0  0
   38.7955   34.9223   39.9261 H   0  0  0  0  0  0  0  0  0  0  0  0
   39.6982   36.0030   38.7316 H   0  0  0  0  0  0  0  0  0  0  0  0
   39.9016   33.4206   38.6325 H   0  0  0  0  0  0  0  0  0  0  0  0
   41.3173   34.5459   38.3856 H   0  0  0  0  0  0  0  0  0  0  0  0
   40.6136   32.8819   40.7754 H   0  0  0  0  0  0  0  0  0  0  0  0
   41.8058   33.0705   37.5287 H   0  0  0  0  0  0  0  0  0  0  0  0
   43.5282   31.6326   36.5011 H   0  0  0  0  0  0  0  0  0  0  0  0
   44.8760   30.5110   40.3301 H   0  0  0  0  0  0  0  0  0  0  0  0
   43.4073   34.5515   39.6669 H   0  0  0  0  0  0  0  0  0  0  0  0
   42.6694   36.0907   40.3183 H   0  0  0  0  0  0  0  0  0  0  0  0
   45.8720   36.2986   44.0261 H   0  0  0  0  0  0  0  0  0  0  0  0
   50.8039   35.1105   42.1530 H   0  0  0  0  0  0  0  0  0  0  0  0
   48.6254   36.2773   42.0791 H   0  0  0  0  0  0  0  0  0  0  0  0
   48.8621   31.3860   42.7130 H   0  0  0  0  0  0  0  0  0  0  0  0
  1  2  1  0
  3  2  1  0
  4  3  1  0
  5  4  1  0
  5  6  1  0
  6  1  1  0
  7  6  1  0
  7 12  1  0
  8  7  2  0
  9  8  1  0
  9 10  2  0
 10 11  1  0
 11 12  2  0
 13  1  1  0
 13 17  1  0
 14 21  1  0
 14 15  1  0
 16 15  2  0
 17 16  1  0
 18 17  2  0
 18 14  1  0
 19 24  2  0
 20 19  1  0
 20 21  2  0
 21 22  1  0
 22 23  2  0
 24 23  1  0
  2 25  1  0
  2 26  1  0
  3 27  1  0
  3 28  1  0
  4 29  1  0
  4 30  1  0
  5 31  1  0
  5 32  1  0
  6 33  1  1
  8 34  1  0
  9 35  1  0
 11 36  1  0
 13 37  1  0
 13 38  1  0
 15 39  1  0
 19 40  1  0
 20 41  1  0
 23 42  1  0
M  ISO  8  25  13  26  13  27  13  28  13  29  13  30  13  31  13  32  13
M  ISO  8  33  13  34  14  35  14  36  14  37   8  38   8  39  14  40  14
M  ISO  2  41  14  42  14
M  END
>  <minimizedAffinity>  (1) 
-5.75911713

>  <minimizedRMSD>  (1) 
1.83047295

$$$$
