
     RDKit          3D

 42 45  0  0  1  0  0  0  0  0999 V2000
   42.1110   34.4640   41.1710 N   0  0  0  0  0  0  0  0  0  0  0  0
   40.9740   35.1930   41.6870 C   0  0  0  0  0  0  0  0  0  0  0  0
   40.3900   36.0770   40.6440 C   0  0  0  0  0  0  0  0  0  0  0  0
   40.0930   35.3530   39.3690 C   0  0  0  0  0  0  0  0  0  0  0  0
   41.1300   34.3740   38.9200 C   0  0  0  0  0  0  0  0  0  0  0  0
   41.7770   33.6400   40.0510 C   0  0  1  0  0  0  0  0  0  0  0  0
   43.0230   33.0160   39.5350 C   0  0  0  0  0  0  0  0  0  0  0  0
   43.5190   33.4440   38.3110 C   0  0  0  0  0  0  0  0  0  0  0  0
   44.6900   32.8520   37.8360 C   0  0  0  0  0  0  0  0  0  0  0  0
   45.3300   31.8880   38.5430 N   0  0  0  0  0  0  0  0  0  0  0  0
   44.8300   31.4890   39.7300 C   0  0  0  0  0  0  0  0  0  0  0  0
   43.7160   32.0550   40.1790 N   0  0  0  0  0  0  0  0  0  0  0  0
   43.1630   35.3720   40.9100 C   0  0  0  0  0  0  0  0  0  0  0  0
   46.3130   34.7900   42.5800 N   0  0  0  0  0  0  0  0  0  0  0  0
   45.5720   35.2610   43.5780 C   0  0  0  0  0  0  0  0  0  0  0  0
   44.3340   35.5520   43.1780 N   0  0  0  0  0  0  0  0  0  0  0  0
   44.3050   35.2460   41.8670 C   0  0  0  0  0  0  0  0  0  0  0  0
   45.5350   34.7670   41.4750 N   0  0  0  0  0  0  0  0  0  0  0  0
   50.0290   34.5790   42.3980 C   0  0  0  0  0  0  0  0  0  0  0  0
   48.7750   35.1440   42.5830 C   0  0  0  0  0  0  0  0  0  0  0  0
   47.6430   34.3350   42.4200 C   0  0  0  0  0  0  0  0  0  0  0  0
   47.8680   33.0410   42.0880 N   0  0  0  0  0  0  0  0  0  0  0  0
   49.0840   32.5060   41.9110 C   0  0  0  0  0  0  0  0  0  0  0  0
   50.1750   33.2870   42.0680 N   0  0  0  0  0  0  0  0  0  0  0  0
   40.2089   34.4767   42.0211 H   0  0  0  0  0  0  0  0  0  0  0  0
   41.3103   35.8176   42.5277 H   0  0  0  0  0  0  0  0  0  0  0  0
   39.4537   36.5057   41.0308 H   0  0  0  0  0  0  0  0  0  0  0  0
   41.1327   36.8559   40.4168 H   0  0  0  0  0  0  0  0  0  0  0  0
   39.1482   34.8059   39.5037 H   0  0  0  0  0  0  0  0  0  0  0  0
   40.0545   36.1267   38.5880 H   0  0  0  0  0  0  0  0  0  0  0  0
   40.6525   33.6397   38.2545 H   0  0  0  0  0  0  0  0  0  0  0  0
   41.9183   34.9451   38.4078 H   0  0  0  0  0  0  0  0  0  0  0  0
   41.0477   32.9020   40.4163 H   0  0  0  0  0  0  0  0  0  0  0  0
   43.0046   34.2260   37.7332 H   0  0  0  0  0  0  0  0  0  0  0  0
   45.1023   33.1739   36.8683 H   0  0  0  0  0  0  0  0  0  0  0  0
   45.3363   30.7080   40.3163 H   0  0  0  0  0  0  0  0  0  0  0  0
   43.5384   35.1881   39.8925 H   0  0  0  0  0  0  0  0  0  0  0  0
   42.7532   36.3864   41.0240 H   0  0  0  0  0  0  0  0  0  0  0  0
   45.9356   35.3943   44.6076 H   0  0  0  0  0  0  0  0  0  0  0  0
   50.9243   35.2054   42.5250 H   0  0  0  0  0  0  0  0  0  0  0  0
   48.6720   36.2056   42.8522 H   0  0  0  0  0  0  0  0  0  0  0  0
   49.1922   31.4450   41.6415 H   0  0  0  0  0  0  0  0  0  0  0  0
  1  2  1  0
  3  2  1  0
  4  3  1  0
  5  4  1  0
  5  6  1  0
  6  1  1  0
  7  6  1  0
  7 12  1  0
  8  7  2  0
  9  8  1  0
  9 10  2  0
 10 11  1  0
 11 12  2  0
 13  1  1  0
 13 17  1  0
 14 15  1  0
 16 15  2  0
 17 16  1  0
 18 17  2  0
 18 14  1  0
 19 20  2  0
 21 14  1  0
 21 20  1  0
 22 21  2  0
 23 24  2  0
 23 22  1  0
 24 19  1  0
  2 25  1  0
  2 26  1  0
  3 27  1  0
  3 28  1  0
  4 29  1  0
  4 30  1  0
  5 31  1  0
  5 32  1  0
  6 33  1  1
  8 34  1  0
  9 35  1  0
 11 36  1  0
 13 37  1  0
 13 38  1  0
 15 39  1  0
 19 40  1  0
 20 41  1  0
 23 42  1  0
M  ISO  8  25  13  26  13  27  13  28  13  29  13  30  13  31  13  32  13
M  ISO  8  33  13  34  14  35  14  36  14  37   8  38   8  39  14  40  14
M  ISO  2  41  14  42  14
M  END
>  <minimizedAffinity>  (1) 
-5.74283171

>  <minimizedRMSD>  (1) 
1.52859521

$$$$
