
     RDKit          3D

 49 52  0  0  1  0  0  0  0  0999 V2000
   41.9720   34.2530   40.9800 N   0  0  0  0  0  0  0  0  0  0  0  0
   40.9900   35.0930   41.6150 C   0  0  0  0  0  0  0  0  0  0  0  0
   40.2990   35.9550   40.5970 C   0  0  0  0  0  0  0  0  0  0  0  0
   39.7450   35.1610   39.4710 C   0  0  0  0  0  0  0  0  0  0  0  0
   40.6250   34.0790   38.9470 C   0  0  0  0  0  0  0  0  0  0  0  0
   41.4050   33.3620   40.0330 C   0  0  1  0  0  0  0  0  0  0  0  0
   42.3680   32.4760   39.4720 N   0  0  0  0  0  0  0  0  0  0  0  0
   43.2020   33.2540   38.5600 C   0  0  0  0  0  0  0  0  0  0  0  0
   43.9060   32.2440   37.6900 C   0  0  0  0  0  0  0  0  0  0  0  0
   44.8960   31.5300   38.5960 C   0  0  0  0  0  0  0  0  0  0  0  0
   44.2740   31.0170   39.8550 C   0  0  0  0  0  0  0  0  0  0  0  0
   43.2700   31.9290   40.4690 C   0  0  0  0  0  0  0  0  0  0  0  0
   43.0380   35.0510   40.4610 C   0  0  0  0  0  0  0  0  0  0  0  0
   46.1300   35.0200   42.3180 N   0  0  0  0  0  0  0  0  0  0  0  0
   45.3900   35.8080   43.0770 C   0  0  0  0  0  0  0  0  0  0  0  0
   44.1610   35.9780   42.5800 N   0  0  0  0  0  0  0  0  0  0  0  0
   44.1550   35.2360   41.4340 C   0  0  0  0  0  0  0  0  0  0  0  0
   45.3740   34.6360   41.2600 N   0  0  0  0  0  0  0  0  0  0  0  0
   49.8530   34.6910   42.3080 C   0  0  0  0  0  0  0  0  0  0  0  0
   48.6090   35.2960   42.2620 C   0  0  0  0  0  0  0  0  0  0  0  0
   47.4530   34.5150   42.3530 C   0  0  0  0  0  0  0  0  0  0  0  0
   47.6550   33.1990   42.4830 N   0  0  0  0  0  0  0  0  0  0  0  0
   48.8520   32.5840   42.5320 C   0  0  0  0  0  0  0  0  0  0  0  0
   49.9590   33.3680   42.4400 N   0  0  0  0  0  0  0  0  0  0  0  0
   40.2448   34.4608   42.1200 H   0  0  0  0  0  0  0  0  0  0  0  0
   41.4951   35.7410   42.3465 H   0  0  0  0  0  0  0  0  0  0  0  0
   39.4757   36.4934   41.0893 H   0  0  0  0  0  0  0  0  0  0  0  0
   41.0434   36.6516   40.1841 H   0  0  0  0  0  0  0  0  0  0  0  0
   38.8078   34.6979   39.8133 H   0  0  0  0  0  0  0  0  0  0  0  0
   39.6157   35.8701   38.6401 H   0  0  0  0  0  0  0  0  0  0  0  0
   39.9985   33.3424   38.4227 H   0  0  0  0  0  0  0  0  0  0  0  0
   41.3582   34.5510   38.2765 H   0  0  0  0  0  0  0  0  0  0  0  0
   40.6865   32.7504   40.5984 H   0  0  0  0  0  0  0  0  0  0  0  0
   42.5796   33.9216   37.9461 H   0  0  0  0  0  0  0  0  0  0  0  0
   43.9162   33.8892   39.1045 H   0  0  0  0  0  0  0  0  0  0  0  0
   43.1826   31.5273   37.2740 H   0  0  0  0  0  0  0  0  0  0  0  0
   44.4118   32.7262   36.8405 H   0  0  0  0  0  0  0  0  0  0  0  0
   45.3242   30.6795   38.0453 H   0  0  0  0  0  0  0  0  0  0  0  0
   45.6642   32.2626   38.8844 H   0  0  0  0  0  0  0  0  0  0  0  0
   43.7762   30.0629   39.6273 H   0  0  0  0  0  0  0  0  0  0  0  0
   45.0898   30.9157   40.5859 H   0  0  0  0  0  0  0  0  0  0  0  0
   43.7963   32.7565   40.9671 H   0  0  0  0  0  0  0  0  0  0  0  0
   42.6756   31.3511   41.1920 H   0  0  0  0  0  0  0  0  0  0  0  0
   43.4356   34.5615   39.5597 H   0  0  0  0  0  0  0  0  0  0  0  0
   42.6261   36.0466   40.2396 H   0  0  0  0  0  0  0  0  0  0  0  0
   45.7442   36.2707   44.0100 H   0  0  0  0  0  0  0  0  0  0  0  0
   50.7618   35.3064   42.2351 H   0  0  0  0  0  0  0  0  0  0  0  0
   48.5301   36.3879   42.1542 H   0  0  0  0  0  0  0  0  0  0  0  0
   48.9309   31.4924   42.6419 H   0  0  0  0  0  0  0  0  0  0  0  0
  1  2  1  0
  3  2  1  0
  4  3  1  0
  5  4  1  0
  5  6  1  0
  6  1  1  0
  7  6  1  0
  7 12  1  0
  8  7  1  0
  9  8  1  0
  9 10  1  0
 10 11  1  0
 11 12  1  0
 13  1  1  0
 13 17  1  0
 14 21  1  0
 14 15  1  0
 16 15  2  0
 17 16  1  0
 18 17  2  0
 18 14  1  0
 19 24  2  0
 20 19  1  0
 20 21  2  0
 21 22  1  0
 22 23  2  0
 24 23  1  0
  2 25  1  0
  2 26  1  0
  3 27  1  0
  3 28  1  0
  4 29  1  0
  4 30  1  0
  5 31  1  0
  5 32  1  0
  6 33  1  1
  8 34  1  0
  8 35  1  0
  9 36  1  0
  9 37  1  0
 10 38  1  0
 10 39  1  0
 11 40  1  0
 11 41  1  0
 12 42  1  0
 12 43  1  0
 13 44  1  0
 13 45  1  0
 15 46  1  0
 19 47  1  0
 20 48  1  0
 23 49  1  0
M  ISO  8  25  13  26  13  27  13  28  13  29  13  30  13  31  13  32  13
M  ISO  8  33  13  34  13  35  13  36  13  37  13  38  13  39  13  40  13
M  ISO  8  41  13  42  13  43  13  44   8  45   8  46  14  47  14  48  14
M  ISO  1  49  14
M  END
>  <minimizedAffinity>  (1) 
-5.74152899

>  <minimizedRMSD>  (1) 
1.51707292

$$$$
