
     RDKit          3D

 40 43  0  0  1  0  0  0  0  0999 V2000
   42.1540   33.8360   40.3670 N   0  0  0  0  0  0  0  0  0  0  0  0
   41.1940   34.3380   41.2940 C   0  0  0  0  0  0  0  0  0  0  0  0
   40.3310   35.3740   40.6290 C   0  0  0  0  0  0  0  0  0  0  0  0
   39.7290   34.8740   39.3560 C   0  0  0  0  0  0  0  0  0  0  0  0
   40.6640   34.1220   38.4540 C   0  0  0  0  0  0  0  0  0  0  0  0
   41.5640   33.2000   39.2470 C   0  0  1  0  0  0  0  0  0  0  0  0
   42.5610   32.5800   38.3370 C   0  0  0  0  0  0  0  0  0  0  0  0
   43.9510   33.0950   38.1470 C   0  0  0  0  0  0  0  0  0  0  0  0
   44.5490   31.8530   36.9170 S   0  0  0  0  0  0  0  0  0  0  0  0
   42.9390   30.9280   36.8780 C   0  0  0  0  0  0  0  0  0  0  0  0
   42.1270   31.4990   37.6730 N   0  0  0  0  0  0  0  0  0  0  0  0
   43.1040   34.8410   40.0520 C   0  0  0  0  0  0  0  0  0  0  0  0
   46.0670   34.8850   42.0980 N   0  0  0  0  0  0  0  0  0  0  0  0
   45.2340   35.6210   42.8390 C   0  0  0  0  0  0  0  0  0  0  0  0
   44.0450   35.7450   42.2660 N   0  0  0  0  0  0  0  0  0  0  0  0
   44.1370   35.0480   41.1030 C   0  0  0  0  0  0  0  0  0  0  0  0
   45.3900   34.5130   40.9940 N   0  0  0  0  0  0  0  0  0  0  0  0
   49.7870   34.7190   42.3190 C   0  0  0  0  0  0  0  0  0  0  0  0
   48.5310   35.2800   42.2110 C   0  0  0  0  0  0  0  0  0  0  0  0
   47.4080   34.4380   42.2050 C   0  0  0  0  0  0  0  0  0  0  0  0
   47.6540   33.1180   42.3100 N   0  0  0  0  0  0  0  0  0  0  0  0
   48.8780   32.5740   42.4150 C   0  0  0  0  0  0  0  0  0  0  0  0
   49.9490   33.3940   42.4200 N   0  0  0  0  0  0  0  0  0  0  0  0
   40.5621   33.5103   41.6484 H   0  0  0  0  0  0  0  0  0  0  0  0
   41.7188   34.7969   42.1449 H   0  0  0  0  0  0  0  0  0  0  0  0
   39.5207   35.6552   41.3177 H   0  0  0  0  0  0  0  0  0  0  0  0
   40.9670   36.2378   40.3855 H   0  0  0  0  0  0  0  0  0  0  0  0
   38.8953   34.2047   39.6147 H   0  0  0  0  0  0  0  0  0  0  0  0
   39.4199   35.7682   38.7949 H   0  0  0  0  0  0  0  0  0  0  0  0
   41.2853   34.8416   37.9006 H   0  0  0  0  0  0  0  0  0  0  0  0
   40.0653   33.5134   37.7603 H   0  0  0  0  0  0  0  0  0  0  0  0
   40.9477   32.3983   39.6800 H   0  0  0  0  0  0  0  0  0  0  0  0
   44.4638   33.9550   38.6025 H   0  0  0  0  0  0  0  0  0  0  0  0
   42.7241   30.0368   36.2700 H   0  0  0  0  0  0  0  0  0  0  0  0
   43.6121   34.5564   39.1188 H   0  0  0  0  0  0  0  0  0  0  0  0
   42.5489   35.7863   39.9607 H   0  0  0  0  0  0  0  0  0  0  0  0
   45.5021   36.0696   43.8069 H   0  0  0  0  0  0  0  0  0  0  0  0
   50.6717   35.3727   42.3222 H   0  0  0  0  0  0  0  0  0  0  0  0
   48.4116   36.3706   42.1308 H   0  0  0  0  0  0  0  0  0  0  0  0
   49.0039   31.4842   42.4951 H   0  0  0  0  0  0  0  0  0  0  0  0
  1  2  1  0
  3  2  1  0
  4  3  1  0
  5  6  1  0
  5  4  1  0
  6  1  1  0
  7  6  1  0
  8  7  2  0
  9  8  1  0
 10  9  1  0
 10 11  2  0
 11  7  1  0
 12  1  1  0
 12 16  1  0
 13 20  1  0
 13 14  1  0
 15 14  2  0
 16 15  1  0
 17 16  2  0
 17 13  1  0
 18 23  2  0
 19 18  1  0
 20 19  2  0
 20 21  1  0
 21 22  2  0
 22 23  1  0
  2 24  1  0
  2 25  1  0
  3 26  1  0
  3 27  1  0
  4 28  1  0
  4 29  1  0
  5 30  1  0
  5 31  1  0
  6 32  1  1
  8 33  1  0
 10 34  1  0
 12 35  1  0
 12 36  1  0
 14 37  1  0
 18 38  1  0
 19 39  1  0
 22 40  1  0
M  ISO  8  24  13  25  13  26  13  27  13  28  13  29  13  30  13  31  13
M  ISO  8  32  13  33  14  34  14  35   8  36   8  37  14  38  14  39  14
M  ISO  1  40  14
M  END
>  <minimizedAffinity>  (1) 
-5.69334221

>  <minimizedRMSD>  (1) 
0.954517126

$$$$
