
     RDKit          3D

 46 49  0  0  1  0  0  0  0  0999 V2000
   41.9740   34.3380   41.0390 N   0  0  0  0  0  0  0  0  0  0  0  0
   41.0100   35.1870   41.6810 C   0  0  0  0  0  0  0  0  0  0  0  0
   40.3390   36.0770   40.6960 C   0  0  0  0  0  0  0  0  0  0  0  0
   39.7850   35.3200   39.5290 C   0  0  0  0  0  0  0  0  0  0  0  0
   40.6290   34.2240   38.9980 C   0  0  0  0  0  0  0  0  0  0  0  0
   41.3990   33.4750   40.0590 C   0  0  1  0  0  0  0  0  0  0  0  0
   42.4250   32.6540   39.4990 N   0  0  0  0  0  0  0  0  0  0  0  0
   42.5790   31.4720   40.3070 C   0  0  0  0  0  0  0  0  0  0  0  0
   42.4400   30.2760   39.4010 C   0  0  0  0  0  0  0  0  0  0  0  0
   41.6970   30.8590   38.2150 C   0  0  0  0  0  0  0  0  0  0  0  0
   42.2500   32.2470   38.1480 C   0  0  0  0  0  0  0  0  0  0  0  0
   43.0520   35.1210   40.5500 C   0  0  0  0  0  0  0  0  0  0  0  0
   46.1750   34.9360   42.3340 N   0  0  0  0  0  0  0  0  0  0  0  0
   45.4770   35.7440   43.1290 C   0  0  0  0  0  0  0  0  0  0  0  0
   44.2490   35.9630   42.6550 N   0  0  0  0  0  0  0  0  0  0  0  0
   44.1850   35.2510   41.5050 C   0  0  0  0  0  0  0  0  0  0  0  0
   45.3860   34.6070   41.3000 N   0  0  0  0  0  0  0  0  0  0  0  0
   49.8810   34.4720   42.2730 C   0  0  0  0  0  0  0  0  0  0  0  0
   48.6580   35.1460   42.2540 C   0  0  0  0  0  0  0  0  0  0  0  0
   47.4790   34.3830   42.3420 C   0  0  0  0  0  0  0  0  0  0  0  0
   47.6330   33.0540   42.4370 N   0  0  0  0  0  0  0  0  0  0  0  0
   48.8050   32.3970   42.4550 C   0  0  0  0  0  0  0  0  0  0  0  0
   49.9350   33.1480   42.3700 N   0  0  0  0  0  0  0  0  0  0  0  0
   40.2518   34.5608   42.1740 H   0  0  0  0  0  0  0  0  0  0  0  0
   41.5331   35.8139   42.4182 H   0  0  0  0  0  0  0  0  0  0  0  0
   39.5147   36.6033   41.1994 H   0  0  0  0  0  0  0  0  0  0  0  0
   41.0918   36.7815   40.3126 H   0  0  0  0  0  0  0  0  0  0  0  0
   38.8239   34.8834   39.8383 H   0  0  0  0  0  0  0  0  0  0  0  0
   39.7084   36.0535   38.7128 H   0  0  0  0  0  0  0  0  0  0  0  0
   39.9783   33.5092   38.4730 H   0  0  0  0  0  0  0  0  0  0  0  0
   41.3718   34.6874   38.3321 H   0  0  0  0  0  0  0  0  0  0  0  0
   40.6550   32.8347   40.5555 H   0  0  0  0  0  0  0  0  0  0  0  0
   43.5715   31.4692   40.7814 H   0  0  0  0  0  0  0  0  0  0  0  0
   41.8168   31.4453   41.0997 H   0  0  0  0  0  0  0  0  0  0  0  0
   43.4239   29.8850   39.1025 H   0  0  0  0  0  0  0  0  0  0  0  0
   41.9257   29.4239   39.8695 H   0  0  0  0  0  0  0  0  0  0  0  0
   41.9136   30.2983   37.2937 H   0  0  0  0  0  0  0  0  0  0  0  0
   40.6025   30.8240   38.3186 H   0  0  0  0  0  0  0  0  0  0  0  0
   43.2137   32.2513   37.6177 H   0  0  0  0  0  0  0  0  0  0  0  0
   41.5795   32.9266   37.6016 H   0  0  0  0  0  0  0  0  0  0  0  0
   43.4284   34.6544   39.6277 H   0  0  0  0  0  0  0  0  0  0  0  0
   42.6593   36.1345   40.3810 H   0  0  0  0  0  0  0  0  0  0  0  0
   45.8650   36.1780   44.0623 H   0  0  0  0  0  0  0  0  0  0  0  0
   50.8161   35.0474   42.2065 H   0  0  0  0  0  0  0  0  0  0  0  0
   48.6175   36.2422   42.1726 H   0  0  0  0  0  0  0  0  0  0  0  0
   48.8482   31.3008   42.5349 H   0  0  0  0  0  0  0  0  0  0  0  0
  1  2  1  0
  3  2  1  0
  4  3  1  0
  5  4  1  0
  5  6  1  0
  6  1  1  0
  7  6  1  0
  7  8  1  0
  9  8  1  0
 10  9  1  0
 11 10  1  0
 11  7  1  0
 12  1  1  0
 12 16  1  0
 13 20  1  0
 13 14  1  0
 15 14  2  0
 16 15  1  0
 17 16  2  0
 17 13  1  0
 18 23  2  0
 19 18  1  0
 19 20  2  0
 20 21  1  0
 21 22  2  0
 23 22  1  0
  2 24  1  0
  2 25  1  0
  3 26  1  0
  3 27  1  0
  4 28  1  0
  4 29  1  0
  5 30  1  0
  5 31  1  0
  6 32  1  1
  8 33  1  0
  8 34  1  0
  9 35  1  0
  9 36  1  0
 10 37  1  0
 10 38  1  0
 11 39  1  0
 11 40  1  0
 12 41  1  0
 12 42  1  0
 14 43  1  0
 18 44  1  0
 19 45  1  0
 22 46  1  0
M  ISO  8  24  13  25  13  26  13  27  13  28  13  29  13  30  13  31  13
M  ISO  8  32  13  33  13  34  13  35  13  36  13  37  13  38  13  39  13
M  ISO  7  40  13  41   8  42   8  43  14  44  14  45  14  46  14
M  END
>  <minimizedAffinity>  (1) 
-5.61781406

>  <minimizedRMSD>  (1) 
1.34961808

$$$$
