
     RDKit          3D

 47 50  0  0  1  0  0  0  0  0999 V2000
   42.1710   34.0550   40.6660 N   0  0  0  0  0  0  0  0  0  0  0  0
   41.1680   34.6800   41.4630 C   0  0  0  0  0  0  0  0  0  0  0  0
   40.4000   35.6820   40.6480 C   0  0  0  0  0  0  0  0  0  0  0  0
   39.8610   35.0860   39.3900 C   0  0  0  0  0  0  0  0  0  0  0  0
   40.7640   34.1450   38.6710 C   0  0  0  0  0  0  0  0  0  0  0  0
   41.6100   33.2970   39.6020 C   0  0  1  0  0  0  0  0  0  0  0  0
   42.5890   32.5560   38.7710 C   0  0  0  0  0  0  0  0  0  0  0  0
   43.6720   33.4260   38.1740 C   0  0  0  0  0  0  0  0  0  0  0  0
   44.7370   32.3680   37.9050 C   0  0  0  0  0  0  0  0  0  0  0  0
   44.8220   31.7190   39.2700 C   0  0  0  0  0  0  0  0  0  0  0  0
   43.3870   31.6630   39.7310 C   0  0  0  0  0  0  0  0  0  0  0  0
   43.1650   34.9800   40.2860 C   0  0  0  0  0  0  0  0  0  0  0  0
   46.2010   34.9070   42.2510 N   0  0  0  0  0  0  0  0  0  0  0  0
   45.4180   35.6360   43.0260 C   0  0  0  0  0  0  0  0  0  0  0  0
   44.2060   35.8010   42.4870 N   0  0  0  0  0  0  0  0  0  0  0  0
   44.2500   35.1330   41.3110 C   0  0  0  0  0  0  0  0  0  0  0  0
   45.4850   34.5720   41.1530 N   0  0  0  0  0  0  0  0  0  0  0  0
   49.9300   34.6570   42.3530 C   0  0  0  0  0  0  0  0  0  0  0  0
   48.6690   35.2380   42.2990 C   0  0  0  0  0  0  0  0  0  0  0  0
   47.5330   34.4250   42.3030 C   0  0  0  0  0  0  0  0  0  0  0  0
   47.7630   33.1050   42.3590 N   0  0  0  0  0  0  0  0  0  0  0  0
   48.9760   32.5260   42.4130 C   0  0  0  0  0  0  0  0  0  0  0  0
   50.0580   33.3300   42.4080 N   0  0  0  0  0  0  0  0  0  0  0  0
   40.4757   33.9134   41.8411 H   0  0  0  0  0  0  0  0  0  0  0  0
   41.6522   35.1995   42.3030 H   0  0  0  0  0  0  0  0  0  0  0  0
   39.5604   36.0602   41.2497 H   0  0  0  0  0  0  0  0  0  0  0  0
   41.0890   36.4935   40.3709 H   0  0  0  0  0  0  0  0  0  0  0  0
   38.9405   34.5401   39.6443 H   0  0  0  0  0  0  0  0  0  0  0  0
   39.7094   35.9322   38.7037 H   0  0  0  0  0  0  0  0  0  0  0  0
   40.1492   33.4759   38.0511 H   0  0  0  0  0  0  0  0  0  0  0  0
   41.4535   34.7525   38.0663 H   0  0  0  0  0  0  0  0  0  0  0  0
   40.9904   32.5590   40.1325 H   0  0  0  0  0  0  0  0  0  0  0  0
   42.0110   32.0607   37.9769 H   0  0  0  0  0  0  0  0  0  0  0  0
   43.3387   33.9157   37.2471 H   0  0  0  0  0  0  0  0  0  0  0  0
   43.9982   34.2634   38.8083 H   0  0  0  0  0  0  0  0  0  0  0  0
   44.4151   31.6531   37.1335 H   0  0  0  0  0  0  0  0  0  0  0  0
   45.6901   32.7605   37.5209 H   0  0  0  0  0  0  0  0  0  0  0  0
   45.2502   30.7083   39.1975 H   0  0  0  0  0  0  0  0  0  0  0  0
   45.4710   32.2723   39.9647 H   0  0  0  0  0  0  0  0  0  0  0  0
   43.3031   32.0408   40.7607 H   0  0  0  0  0  0  0  0  0  0  0  0
   43.0061   30.6311   39.7257 H   0  0  0  0  0  0  0  0  0  0  0  0
   43.6190   34.6386   39.3440 H   0  0  0  0  0  0  0  0  0  0  0  0
   42.6767   35.9596   40.1769 H   0  0  0  0  0  0  0  0  0  0  0  0
   45.7255   36.0555   43.9953 H   0  0  0  0  0  0  0  0  0  0  0  0
   50.8268   35.2939   42.3504 H   0  0  0  0  0  0  0  0  0  0  0  0
   48.5658   36.3322   42.2533 H   0  0  0  0  0  0  0  0  0  0  0  0
   49.0815   31.4321   42.4597 H   0  0  0  0  0  0  0  0  0  0  0  0
  1  2  1  0
  3  2  1  0
  4  3  1  0
  5  4  1  0
  5  6  1  0
  6  1  1  0
  7  6  1  0
  7 11  1  0
  8  7  1  0
  9  8  1  0
  9 10  1  0
 10 11  1  0
 12  1  1  0
 12 16  1  0
 13 20  1  0
 13 14  1  0
 15 14  2  0
 16 15  1  0
 17 16  2  0
 17 13  1  0
 18 23  2  0
 19 20  2  0
 19 18  1  0
 20 21  1  0
 21 22  2  0
 23 22  1  0
  2 24  1  0
  2 25  1  0
  3 26  1  0
  3 27  1  0
  4 28  1  0
  4 29  1  0
  5 30  1  0
  5 31  1  0
  6 32  1  1
  7 33  1  0
  8 34  1  0
  8 35  1  0
  9 36  1  0
  9 37  1  0
 10 38  1  0
 10 39  1  0
 11 40  1  0
 11 41  1  0
 12 42  1  0
 12 43  1  0
 14 44  1  0
 18 45  1  0
 19 46  1  0
 22 47  1  0
M  ISO  8  24  13  25  13  26  13  27  13  28  13  29  13  30  13  31  13
M  ISO  8  32  13  33  13  34  13  35  13  36  13  37  13  38  13  39  13
M  ISO  8  40  13  41  13  42   8  43   8  44  14  45  14  46  14  47  14
M  END
>  <minimizedAffinity>  (1) 
-5.589077

>  <minimizedRMSD>  (1) 
1.12047529

$$$$
