
     RDKit          3D

 41 44  0  0  1  0  0  0  0  0999 V2000
   49.0760   33.6750   42.5990 C   0  0  2  0  0  0  0  0  0  0  0  0
   47.6920   33.9090   42.3760 C   0  0  2  0  0  0  0  0  0  0  0  0
   47.6420   35.3900   41.9170 C   0  0  0  0  0  0  0  0  0  0  0  0
   49.0250   35.8480   41.5770 C   0  0  0  0  0  0  0  0  0  0  0  0
   49.8130   35.0660   42.5360 C   0  0  0  0  0  0  0  0  0  0  0  0
   49.8400   32.8700   41.6460 C   0  0  0  0  0  0  0  0  0  0  0  0
   49.1800   32.4610   40.5070 C   0  0  0  0  0  0  0  0  0  0  0  0
   49.7760   31.6720   39.5350 C   0  0  0  0  0  0  0  0  0  0  0  0
   51.0990   31.3370   39.8140 N   0  0  0  0  0  0  0  0  0  0  0  0
   51.7370   31.7340   40.9080 C   0  0  0  0  0  0  0  0  0  0  0  0
   51.0960   32.4850   41.7930 N   0  0  0  0  0  0  0  0  0  0  0  0
   46.7760   33.7270   43.5330 C   0  0  0  0  0  0  0  0  0  0  0  0
   45.7690   34.3900   43.6370 O   0  0  0  0  0  0  0  0  0  0  0  0
   46.9210   32.8130   44.6330 C   0  0  0  0  0  0  0  0  0  0  0  0
   46.7320   33.2430   45.9510 C   0  0  0  0  0  0  0  0  0  0  0  0
   46.8860   32.4130   47.0660 C   0  0  0  0  0  0  0  0  0  0  0  0
   47.2500   31.0900   46.8750 C   0  0  0  0  0  0  0  0  0  0  0  0
   47.4430   30.6380   45.5710 C   0  0  0  0  0  0  0  0  0  0  0  0
   47.2690   31.5080   44.5010 C   0  0  0  0  0  0  0  0  0  0  0  0
   47.4090   30.6290   43.4080 N   0  0  0  0  0  0  0  0  0  0  0  0
   46.6630   30.3270   42.3360 C   0  0  0  0  0  0  0  0  0  0  0  0
   47.3110   29.4730   41.5000 N   0  0  0  0  0  0  0  0  0  0  0  0
   48.4950   29.2530   42.0950 C   0  0  0  0  0  0  0  0  0  0  0  0
   48.5620   29.9540   43.2640 N   0  0  0  0  0  0  0  0  0  0  0  0
   49.0578   33.1188   43.5479 H   0  0  0  0  0  0  0  0  0  0  0  0
   47.3266   33.1595   41.6585 H   0  0  0  0  0  0  0  0  0  0  0  0
   46.9970   35.4785   41.0304 H   0  0  0  0  0  0  0  0  0  0  0  0
   47.2354   36.0137   42.7267 H   0  0  0  0  0  0  0  0  0  0  0  0
   49.2898   35.6016   40.5382 H   0  0  0  0  0  0  0  0  0  0  0  0
   49.1750   36.9358   41.6419 H   0  0  0  0  0  0  0  0  0  0  0  0
   50.8476   34.9437   42.1829 H   0  0  0  0  0  0  0  0  0  0  0  0
   49.8809   35.5517   43.5206 H   0  0  0  0  0  0  0  0  0  0  0  0
   48.1354   32.7741   40.3630 H   0  0  0  0  0  0  0  0  0  0  0  0
   49.2519   31.3408   38.6264 H   0  0  0  0  0  0  0  0  0  0  0  0
   52.7842   31.4437   41.0783 H   0  0  0  0  0  0  0  0  0  0  0  0
   46.4465   34.2919   46.1195 H   0  0  0  0  0  0  0  0  0  0  0  0
   46.7205   32.8051   48.0803 H   0  0  0  0  0  0  0  0  0  0  0  0
   47.3834   30.4130   47.7316 H   0  0  0  0  0  0  0  0  0  0  0  0
   47.7330   29.5927   45.3885 H   0  0  0  0  0  0  0  0  0  0  0  0
   45.6521   30.7212   42.1552 H   0  0  0  0  0  0  0  0  0  0  0  0
   49.2911   28.6051   41.6994 H   0  0  0  0  0  0  0  0  0  0  0  0
  2  1  1  0
  2 12  1  0
  3  2  1  0
  4  3  1  0
  4  5  1  0
  5  1  1  0
  6 11  1  0
  6  1  1  0
  7  6  2  0
  8  9  2  0
  8  7  1  0
  9 10  1  0
 10 11  2  0
 12 13  2  0
 12 14  1  0
 14 15  2  0
 15 16  1  0
 17 16  2  0
 18 17  1  0
 19 14  1  0
 19 18  2  0
 20 19  1  0
 21 20  1  0
 22 23  1  0
 22 21  2  0
 23 24  2  0
 24 20  1  0
  1 25  1  1
  2 26  1  6
  3 27  1  0
  3 28  1  0
  4 29  1  0
  4 30  1  0
  5 31  1  0
  5 32  1  0
  7 33  1  0
  8 34  1  0
 10 35  1  0
 15 36  1  0
 16 37  1  0
 17 38  1  0
 18 39  1  0
 21 40  1  0
 23 41  1  0
M  ISO  8  25  13  26  13  27  13  28  13  29  13  30  13  31  13  32  13
M  ISO  8  33  14  34  14  35  14  36  14  37  14  38  14  39  14  40  14
M  ISO  1  41  14
M  END
>  <minimizedAffinity>  (1) 
-5.29436207

>  <minimizedRMSD>  (1) 
0.271300316

$$$$
