
     RDKit          3D

 43 45  0  0  1  0  0  0  0  0999 V2000
   43.0080   35.0430   40.6120 C   0  0  0  0  0  0  0  0  0  0  0  0
   46.1750   34.9920   42.3590 N   0  0  0  0  0  0  0  0  0  0  0  0
   45.4770   35.8470   43.1170 C   0  0  0  0  0  0  0  0  0  0  0  0
   44.2410   36.0230   42.6470 N   0  0  0  0  0  0  0  0  0  0  0  0
   44.1650   35.2400   41.5420 C   0  0  0  0  0  0  0  0  0  0  0  0
   45.3650   34.5950   41.3560 N   0  0  0  0  0  0  0  0  0  0  0  0
   49.8800   34.5510   42.2550 C   0  0  0  0  0  0  0  0  0  0  0  0
   48.6540   35.1960   42.2130 C   0  0  0  0  0  0  0  0  0  0  0  0
   47.4800   34.4560   42.3800 C   0  0  0  0  0  0  0  0  0  0  0  0
   47.6450   33.1420   42.5720 N   0  0  0  0  0  0  0  0  0  0  0  0
   48.8280   32.5030   42.6140 C   0  0  0  0  0  0  0  0  0  0  0  0
   49.9490   33.2380   42.4510 N   0  0  0  0  0  0  0  0  0  0  0  0
   41.9120   34.3900   41.2120 N   0  0  0  0  0  0  0  0  0  0  0  0
   40.9960   35.3810   41.7320 C   0  0  0  0  0  0  0  0  0  0  0  0
   40.3450   36.1330   40.6140 C   0  0  0  0  0  0  0  0  0  0  0  0
   39.7530   35.2420   39.5720 C   0  0  0  0  0  0  0  0  0  0  0  0
   40.5480   34.0210   39.2200 C   0  0  0  0  0  0  0  0  0  0  0  0
   41.2520   33.4340   40.4100 C   0  0  1  0  0  0  0  0  0  0  0  0
   42.1080   32.3020   39.9690 C   0  0  0  0  0  0  0  0  0  0  0  0
   41.8610   32.1400   38.4620 C   0  0  0  0  0  0  0  0  0  0  0  0
   41.7930   31.0090   40.6850 C   0  0  0  0  0  0  0  0  0  0  0  0
   43.3471   34.4405   39.7564 H   0  0  0  0  0  0  0  0  0  0  0  0
   42.6632   36.0419   40.3066 H   0  0  0  0  0  0  0  0  0  0  0  0
   45.8734   36.3426   44.0155 H   0  0  0  0  0  0  0  0  0  0  0  0
   50.8053   35.1314   42.1248 H   0  0  0  0  0  0  0  0  0  0  0  0
   48.6052   36.2827   42.0494 H   0  0  0  0  0  0  0  0  0  0  0  0
   48.8805   31.4163   42.7760 H   0  0  0  0  0  0  0  0  0  0  0  0
   40.2210   34.8789   42.3297 H   0  0  0  0  0  0  0  0  0  0  0  0
   41.5579   36.0904   42.3573 H   0  0  0  0  0  0  0  0  0  0  0  0
   39.5445   36.7598   41.0338 H   0  0  0  0  0  0  0  0  0  0  0  0
   41.1265   36.7333   40.1252 H   0  0  0  0  0  0  0  0  0  0  0  0
   38.7688   34.9096   39.9336 H   0  0  0  0  0  0  0  0  0  0  0  0
   39.7158   35.8457   38.6532 H   0  0  0  0  0  0  0  0  0  0  0  0
   39.8672   33.2641   38.8033 H   0  0  0  0  0  0  0  0  0  0  0  0
   41.3148   34.3188   38.4896 H   0  0  0  0  0  0  0  0  0  0  0  0
   40.4938   33.0300   41.0970 H   0  0  0  0  0  0  0  0  0  0  0  0
   43.1596   32.5238   40.2035 H   0  0  0  0  0  0  0  0  0  0  0  0
   40.9510   31.5432   38.3017 H   0  0  0  0  0  0  0  0  0  0  0  0
   41.7350   33.1314   38.0024 H   0  0  0  0  0  0  0  0  0  0  0  0
   42.7201   31.6294   38.0024 H   0  0  0  0  0  0  0  0  0  0  0  0
   41.8329   31.1727   41.7720 H   0  0  0  0  0  0  0  0  0  0  0  0
   40.7858   30.6692   40.4021 H   0  0  0  0  0  0  0  0  0  0  0  0
   42.5310   30.2440   40.4021 H   0  0  0  0  0  0  0  0  0  0  0  0
  1 13  1  0
  1  5  1  0
  2  9  1  0
  2  3  1  0
  4  3  2  0
  5  4  1  0
  6  5  2  0
  6  2  1  0
  7 12  2  0
  8  7  1  0
  8  9  2  0
  9 10  1  0
 10 11  2  0
 12 11  1  0
 13 14  1  0
 15 14  1  0
 16 15  1  0
 17 16  1  0
 17 18  1  0
 18 13  1  0
 19 18  1  0
 19 21  1  0
 20 19  1  0
  1 22  1  0
  1 23  1  0
  3 24  1  0
  7 25  1  0
  8 26  1  0
 11 27  1  0
 14 28  1  0
 14 29  1  0
 15 30  1  0
 15 31  1  0
 16 32  1  0
 16 33  1  0
 17 34  1  0
 17 35  1  0
 18 36  1  1
 19 37  1  0
 20 38  1  0
 20 39  1  0
 20 40  1  0
 21 41  1  0
 21 42  1  0
 21 43  1  0
M  ISO  8  22   8  23   8  24  14  25  14  26  14  27  14  28  13  29  13
M  ISO  8  30  13  31  13  32  13  33  13  34  13  35  13  36  13  37   8
M  ISO  6  38   8  39   8  40   8  41   8  42   8  43   8
M  END
>  <minimizedAffinity>  (1) 
-5.51177168

>  <minimizedRMSD>  (1) 
1.37367272

$$$$
