
     RDKit          3D

 35 37  0  0  1  0  0  0  0  0999 V2000
   42.9850   35.2260   40.2900 C   0  0  0  0  0  0  0  0  0  0  0  0
   46.0080   34.7110   42.1980 N   0  0  0  0  0  0  0  0  0  0  0  0
   45.2380   35.3130   43.0950 C   0  0  0  0  0  0  0  0  0  0  0  0
   44.0350   35.6090   42.6030 N   0  0  0  0  0  0  0  0  0  0  0  0
   44.0610   35.1590   41.3130 C   0  0  0  0  0  0  0  0  0  0  0  0
   45.2870   34.6010   41.0620 N   0  0  0  0  0  0  0  0  0  0  0  0
   49.7240   34.3480   42.2120 C   0  0  0  0  0  0  0  0  0  0  0  0
   48.4860   34.9780   42.2760 C   0  0  0  0  0  0  0  0  0  0  0  0
   47.3220   34.1870   42.1500 C   0  0  0  0  0  0  0  0  0  0  0  0
   47.5080   32.8650   41.9750 N   0  0  0  0  0  0  0  0  0  0  0  0
   48.7090   32.2640   41.9140 C   0  0  0  0  0  0  0  0  0  0  0  0
   49.8160   33.0290   42.0360 N   0  0  0  0  0  0  0  0  0  0  0  0
   42.2970   34.0060   40.1170 N   0  0  0  0  0  0  0  0  0  0  0  0
   41.2390   33.8960   41.1010 C   0  0  0  0  0  0  0  0  0  0  0  0
   40.1820   34.9160   40.8170 C   0  0  0  0  0  0  0  0  0  0  0  0
   39.6770   34.8190   39.4180 C   0  0  0  0  0  0  0  0  0  0  0  0
   40.7280   34.6820   38.3670 C   0  0  0  0  0  0  0  0  0  0  0  0
   41.8450   33.7740   38.7900 C   0  0  1  0  0  0  0  0  0  0  0  0
   42.9360   33.8900   37.9400 O   0  0  0  0  0  0  0  0  0  0  0  0
   42.2600   35.9943   40.5968 H   0  0  0  0  0  0  0  0  0  0  0  0
   43.4653   35.4660   39.3299 H   0  0  0  0  0  0  0  0  0  0  0  0
   45.5549   35.5410   44.1234 H   0  0  0  0  0  0  0  0  0  0  0  0
   50.6418   34.9467   42.3080 H   0  0  0  0  0  0  0  0  0  0  0  0
   48.4146   36.0660   42.4212 H   0  0  0  0  0  0  0  0  0  0  0  0
   48.7885   31.1766   41.7684 H   0  0  0  0  0  0  0  0  0  0  0  0
   40.7984   32.8892   41.0539 H   0  0  0  0  0  0  0  0  0  0  0  0
   41.6540   34.0695   42.1048 H   0  0  0  0  0  0  0  0  0  0  0  0
   39.3420   34.7599   41.5098 H   0  0  0  0  0  0  0  0  0  0  0  0
   40.6263   35.9134   40.9505 H   0  0  0  0  0  0  0  0  0  0  0  0
   39.0175   33.9409   39.3552 H   0  0  0  0  0  0  0  0  0  0  0  0
   39.1654   35.7710   39.2133 H   0  0  0  0  0  0  0  0  0  0  0  0
   41.1441   35.6772   38.1517 H   0  0  0  0  0  0  0  0  0  0  0  0
   40.2563   34.2410   37.4765 H   0  0  0  0  0  0  0  0  0  0  0  0
   41.4176   32.7615   38.7430 H   0  0  0  0  0  0  0  0  0  0  0  0
   43.7638   33.9780   38.4758 H   0  0  0  0  0  0  0  0  0  0  0  0
  1  5  1  0
  2  3  1  0
  4  3  2  0
  5  4  1  0
  6  5  2  0
  6  2  1  0
  7  8  2  0
  9  2  1  0
  9  8  1  0
 10  9  2  0
 11 10  1  0
 11 12  2  0
 12  7  1  0
 13  1  1  0
 13 14  1  0
 15 14  1  0
 16 15  1  0
 17 18  1  0
 17 16  1  0
 18 13  1  0
 19 18  1  0
  1 20  1  0
  1 21  1  0
  3 22  1  0
  7 23  1  0
  8 24  1  0
 11 25  1  0
 14 26  1  0
 14 27  1  0
 15 28  1  0
 15 29  1  0
 16 30  1  0
 16 31  1  0
 17 32  1  0
 17 33  1  0
 18 34  1  1
 19 35  1  0
M  ISO  8  20   8  21   8  22  14  23  14  24  14  25  14  26  13  27  13
M  ISO  8  28  13  29  13  30  13  31  13  32  13  33  13  34  13  35   3
M  END
>  <minimizedAffinity>  (1) 
-5.47829342

>  <minimizedRMSD>  (1) 
0.257380217

$$$$
