
     RDKit          3D

 40 42  0  0  1  0  0  0  0  0999 V2000
   43.0730   35.0470   40.6250 C   0  0  0  0  0  0  0  0  0  0  0  0
   46.2210   34.9870   42.3900 N   0  0  0  0  0  0  0  0  0  0  0  0
   45.5190   35.8100   43.1490 C   0  0  0  0  0  0  0  0  0  0  0  0
   44.2820   35.9900   42.6760 N   0  0  0  0  0  0  0  0  0  0  0  0
   44.2210   35.2280   41.5590 C   0  0  0  0  0  0  0  0  0  0  0  0
   45.4240   34.5970   41.3680 N   0  0  0  0  0  0  0  0  0  0  0  0
   49.9240   34.5510   42.2900 C   0  0  0  0  0  0  0  0  0  0  0  0
   48.7060   35.2070   42.2640 C   0  0  0  0  0  0  0  0  0  0  0  0
   47.5310   34.4500   42.3990 C   0  0  0  0  0  0  0  0  0  0  0  0
   47.7090   33.1290   42.5410 N   0  0  0  0  0  0  0  0  0  0  0  0
   48.8880   32.4820   42.5670 C   0  0  0  0  0  0  0  0  0  0  0  0
   50.0020   33.2230   42.4370 N   0  0  0  0  0  0  0  0  0  0  0  0
   41.9640   34.3730   41.2170 N   0  0  0  0  0  0  0  0  0  0  0  0
   40.9960   35.3630   41.6490 C   0  0  0  0  0  0  0  0  0  0  0  0
   40.3930   36.0590   40.4730 C   0  0  0  0  0  0  0  0  0  0  0  0
   39.8460   35.1140   39.4640 C   0  0  0  0  0  0  0  0  0  0  0  0
   40.6840   33.9110   39.1620 C   0  0  0  0  0  0  0  0  0  0  0  0
   41.4180   33.3880   40.3580 C   0  0  2  0  0  0  0  0  0  0  0  0
   40.6120   32.3080   41.0820 C   0  0  0  0  0  0  0  0  0  0  0  0
   39.8770   31.4500   40.0430 C   0  0  0  0  0  0  0  0  0  0  0  0
   43.4161   34.4609   39.7597 H   0  0  0  0  0  0  0  0  0  0  0  0
   42.7274   36.0504   40.3357 H   0  0  0  0  0  0  0  0  0  0  0  0
   45.9061   36.2892   44.0603 H   0  0  0  0  0  0  0  0  0  0  0  0
   50.8505   35.1350   42.1874 H   0  0  0  0  0  0  0  0  0  0  0  0
   48.6591   36.2990   42.1401 H   0  0  0  0  0  0  0  0  0  0  0  0
   48.9385   31.3900   42.6898 H   0  0  0  0  0  0  0  0  0  0  0  0
   40.1997   34.8641   42.2208 H   0  0  0  0  0  0  0  0  0  0  0  0
   41.5073   36.1074   42.2770 H   0  0  0  0  0  0  0  0  0  0  0  0
   39.5771   36.7060   40.8276 H   0  0  0  0  0  0  0  0  0  0  0  0
   41.1907   36.6391   39.9860 H   0  0  0  0  0  0  0  0  0  0  0  0
   38.8707   34.7603   39.8296 H   0  0  0  0  0  0  0  0  0  0  0  0
   39.7982   35.6828   38.5237 H   0  0  0  0  0  0  0  0  0  0  0  0
   40.0282   33.1154   38.7788 H   0  0  0  0  0  0  0  0  0  0  0  0
   41.4392   34.2159   38.4226 H   0  0  0  0  0  0  0  0  0  0  0  0
   42.3205   32.9040   39.9563 H   0  0  0  0  0  0  0  0  0  0  0  0
   41.2912   31.6733   41.6700 H   0  0  0  0  0  0  0  0  0  0  0  0
   39.8824   32.7794   41.7569 H   0  0  0  0  0  0  0  0  0  0  0  0
   39.2447   30.7119   40.5582 H   0  0  0  0  0  0  0  0  0  0  0  0
   39.2477   32.0959   39.4131 H   0  0  0  0  0  0  0  0  0  0  0  0
   40.6119   30.9273   39.4131 H   0  0  0  0  0  0  0  0  0  0  0  0
  1 13  1  0
  1  5  1  0
  2  9  1  0
  2  3  1  0
  4  3  2  0
  5  4  1  0
  6  5  2  0
  6  2  1  0
  7 12  2  0
  8  7  1  0
  8  9  2  0
  9 10  1  0
 10 11  2  0
 12 11  1  0
 13 14  1  0
 15 14  1  0
 16 15  1  0
 17 16  1  0
 17 18  1  0
 18 19  1  0
 18 13  1  0
 20 19  1  0
  1 21  1  0
  1 22  1  0
  3 23  1  0
  7 24  1  0
  8 25  1  0
 11 26  1  0
 14 27  1  0
 14 28  1  0
 15 29  1  0
 15 30  1  0
 16 31  1  0
 16 32  1  0
 17 33  1  0
 17 34  1  0
 18 35  1  6
 19 36  1  0
 19 37  1  0
 20 38  1  0
 20 39  1  0
 20 40  1  0
M  ISO  8  21   8  22   8  23  14  24  14  25  14  26  14  27  13  28  13
M  ISO  8  29  13  30  13  31  13  32  13  33  13  34  13  35  13  36   8
M  ISO  4  37   8  38   8  39   8  40   8
M  END
>  <minimizedAffinity>  (1) 
-5.43343353

>  <minimizedRMSD>  (1) 
1.04145503

$$$$
