
     RDKit          3D

 49 53  0  0  1  0  0  0  0  0999 V2000
   41.7880   34.4620   41.3220 N   0  0  0  0  0  0  0  0  0  0  0  0
   40.9470   35.5440   41.7250 C   0  0  0  0  0  0  0  0  0  0  0  0
   40.3060   36.1760   40.5320 C   0  0  0  0  0  0  0  0  0  0  0  0
   39.5980   35.1680   39.6800 C   0  0  0  0  0  0  0  0  0  0  0  0
   40.3220   33.8700   39.4590 C   0  0  0  0  0  0  0  0  0  0  0  0
   41.0680   33.4090   40.6720 C   0  0  1  0  0  0  0  0  0  0  0  0
   42.9010   34.9290   40.5820 C   0  0  0  0  0  0  0  0  0  0  0  0
   46.2030   34.7730   42.0440 N   0  0  0  0  0  0  0  0  0  0  0  0
   45.5850   35.5990   42.8690 C   0  0  0  0  0  0  0  0  0  0  0  0
   44.3270   35.8120   42.5230 N   0  0  0  0  0  0  0  0  0  0  0  0
   44.1380   35.0710   41.4060 C   0  0  0  0  0  0  0  0  0  0  0  0
   45.3000   34.4290   41.1100 N   0  0  0  0  0  0  0  0  0  0  0  0
   49.8460   34.0500   42.3660 C   0  0  0  0  0  0  0  0  0  0  0  0
   48.6420   34.6990   42.5780 C   0  0  0  0  0  0  0  0  0  0  0  0
   47.5030   34.2010   41.9160 C   0  0  0  0  0  0  0  0  0  0  0  0
   47.6830   33.1240   41.1220 N   0  0  0  0  0  0  0  0  0  0  0  0
   48.8540   32.5140   40.9320 C   0  0  0  0  0  0  0  0  0  0  0  0
   49.9410   32.9970   41.5710 N   0  0  0  0  0  0  0  0  0  0  0  0
   42.2190   32.0900   40.2700 S   0  0  0  0  0  0  0  0  0  0  0  0
   42.6680   31.1440   41.7110 C   0  0  0  0  0  0  0  0  0  0  0  0
   43.8780   31.0800   42.3640 C   0  0  0  0  0  0  0  0  0  0  0  0
   43.7400   30.2330   43.4000 N   0  0  0  0  0  0  0  0  0  0  0  0
   42.4990   29.7540   43.4370 C   0  0  0  0  0  0  0  0  0  0  0  0
   41.8830   28.8670   44.3000 C   0  0  0  0  0  0  0  0  0  0  0  0
   40.5510   28.5090   44.1370 C   0  0  0  0  0  0  0  0  0  0  0  0
   39.8280   29.0580   43.0830 C   0  0  0  0  0  0  0  0  0  0  0  0
   40.4940   29.9360   42.2550 C   0  0  0  0  0  0  0  0  0  0  0  0
   41.8080   30.3080   42.3920 C   0  0  0  0  0  0  0  0  0  0  0  0
   40.1646   35.1639   42.3984 H   0  0  0  0  0  0  0  0  0  0  0  0
   41.5579   36.2975   42.2437 H   0  0  0  0  0  0  0  0  0  0  0  0
   39.5782   36.9262   40.8747 H   0  0  0  0  0  0  0  0  0  0  0  0
   41.0973   36.6403   39.9252 H   0  0  0  0  0  0  0  0  0  0  0  0
   38.6347   34.9391   40.1592 H   0  0  0  0  0  0  0  0  0  0  0  0
   39.5067   35.6305   38.6861 H   0  0  0  0  0  0  0  0  0  0  0  0
   39.5865   33.0994   39.1846 H   0  0  0  0  0  0  0  0  0  0  0  0
   41.0589   34.0335   38.6588 H   0  0  0  0  0  0  0  0  0  0  0  0
   40.2974   33.0399   41.3648 H   0  0  0  0  0  0  0  0  0  0  0  0
   43.1030   34.2173   39.7680 H   0  0  0  0  0  0  0  0  0  0  0  0
   42.6446   35.9291   40.2025 H   0  0  0  0  0  0  0  0  0  0  0  0
   46.0638   36.0585   43.7463 H   0  0  0  0  0  0  0  0  0  0  0  0
   50.7493   34.4203   42.8729 H   0  0  0  0  0  0  0  0  0  0  0  0
   48.5769   35.5742   43.2412 H   0  0  0  0  0  0  0  0  0  0  0  0
   48.9322   31.6385   40.2706 H   0  0  0  0  0  0  0  0  0  0  0  0
   44.7935   31.6238   42.0882 H   0  0  0  0  0  0  0  0  0  0  0  0
   44.4862   29.9906   44.0673 H   0  0  0  0  0  0  0  0  0  0  0  0
   42.4591   28.4363   45.1322 H   0  0  0  0  0  0  0  0  0  0  0  0
   40.0745   27.8014   44.8315 H   0  0  0  0  0  0  0  0  0  0  0  0
   38.7709   28.8026   42.9175 H   0  0  0  0  0  0  0  0  0  0  0  0
   39.9280   30.3727   41.4190 H   0  0  0  0  0  0  0  0  0  0  0  0
  1  2  1  0
  3  2  1  0
  4  3  1  0
  5  4  1  0
  5  6  1  0
  6  1  1  0
  7  1  1  0
  7 11  1  0
  8  9  1  0
 10  9  2  0
 11 10  1  0
 12 11  2  0
 12  8  1  0
 13 14  2  0
 15  8  1  0
 15 14  1  0
 16 15  2  0
 17 16  1  0
 17 18  2  0
 18 13  1  0
 19  6  1  0
 19 20  1  0
 20 21  2  0
 20 28  1  0
 21 22  1  0
 22 23  1  0
 23 24  2  0
 25 24  1  0
 26 25  2  0
 27 28  2  0
 27 26  1  0
 28 23  1  0
  2 29  1  0
  2 30  1  0
  3 31  1  0
  3 32  1  0
  4 33  1  0
  4 34  1  0
  5 35  1  0
  5 36  1  0
  6 37  1  1
  7 38  1  0
  7 39  1  0
  9 40  1  0
 13 41  1  0
 14 42  1  0
 17 43  1  0
 21 44  1  0
 22 45  1  0
 24 46  1  0
 25 47  1  0
 26 48  1  0
 27 49  1  0
M  ISO  8  29  13  30  13  31  13  32  13  33  13  34  13  35  13  36  13
M  ISO  8  37  13  38   8  39   8  40  14  41  14  42  14  43  14  44  14
M  ISO  5  45   9  46  14  47  14  48  14  49  14
M  END
>  <minimizedAffinity>  (1) 
-5.99961329

>  <minimizedRMSD>  (1) 
1.9064244

$$$$
