
     RDKit          3D

 45 48  0  0  1  0  0  0  0  0999 V2000
   43.1840   33.8550   41.3390 N   0  0  0  0  0  0  0  0  0  0  0  0
   41.8890   34.4790   41.2980 C   0  0  0  0  0  0  0  0  0  0  0  0
   41.7850   35.4430   40.1720 C   0  0  0  0  0  0  0  0  0  0  0  0
   42.1880   34.8300   38.8600 C   0  0  0  0  0  0  0  0  0  0  0  0
   43.4220   33.9960   38.8940 C   0  0  0  0  0  0  0  0  0  0  0  0
   43.5250   33.1640   40.1320 C   0  0  1  0  0  0  0  0  0  0  0  0
   44.1560   34.8510   41.6810 C   0  0  0  0  0  0  0  0  0  0  0  0
   45.1980   34.2230   45.0820 N   0  0  0  0  0  0  0  0  0  0  0  0
   44.7330   35.4630   45.1650 C   0  0  0  0  0  0  0  0  0  0  0  0
   44.2860   35.9130   44.0020 N   0  0  0  0  0  0  0  0  0  0  0  0
   44.4820   34.8870   43.1310 C   0  0  0  0  0  0  0  0  0  0  0  0
   45.0500   33.8340   43.7990 N   0  0  0  0  0  0  0  0  0  0  0  0
   47.3020   31.5270   46.5640 C   0  0  0  0  0  0  0  0  0  0  0  0
   46.8290   32.4090   45.6060 C   0  0  0  0  0  0  0  0  0  0  0  0
   45.7740   33.2740   45.9600 C   0  0  0  0  0  0  0  0  0  0  0  0
   45.3120   33.1640   47.2150 N   0  0  0  0  0  0  0  0  0  0  0  0
   45.7690   32.3120   48.1360 C   0  0  0  0  0  0  0  0  0  0  0  0
   46.7860   31.4840   47.7850 N   0  0  0  0  0  0  0  0  0  0  0  0
   45.1590   32.4530   40.3360 S   0  0  0  0  0  0  0  0  0  0  0  0
   46.3660   33.1810   39.2490 C   0  0  0  0  0  0  0  0  0  0  0  0
   47.2810   33.9910   39.9240 C   0  0  0  0  0  0  0  0  0  0  0  0
   48.2930   34.6400   39.2410 C   0  0  0  0  0  0  0  0  0  0  0  0
   48.4020   34.4860   37.8680 C   0  0  0  0  0  0  0  0  0  0  0  0
   47.4770   33.6710   37.2120 C   0  0  0  0  0  0  0  0  0  0  0  0
   46.4710   33.0250   37.8890 C   0  0  0  0  0  0  0  0  0  0  0  0
   41.1210   33.7011   41.1748 H   0  0  0  0  0  0  0  0  0  0  0  0
   41.7410   35.0295   42.2387 H   0  0  0  0  0  0  0  0  0  0  0  0
   40.7433   35.7883   40.0965 H   0  0  0  0  0  0  0  0  0  0  0  0
   42.4700   36.2785   40.3787 H   0  0  0  0  0  0  0  0  0  0  0  0
   42.3501   35.6459   38.1403 H   0  0  0  0  0  0  0  0  0  0  0  0
   41.3706   34.1487   38.5812 H   0  0  0  0  0  0  0  0  0  0  0  0
   43.4185   33.3274   38.0205 H   0  0  0  0  0  0  0  0  0  0  0  0
   44.2840   34.6792   38.8815 H   0  0  0  0  0  0  0  0  0  0  0  0
   42.7795   32.3709   39.9733 H   0  0  0  0  0  0  0  0  0  0  0  0
   45.0798   34.6428   41.1213 H   0  0  0  0  0  0  0  0  0  0  0  0
   43.7231   35.8285   41.4219 H   0  0  0  0  0  0  0  0  0  0  0  0
   44.7201   36.0509   46.0946 H   0  0  0  0  0  0  0  0  0  0  0  0
   48.1259   30.8455   46.3055 H   0  0  0  0  0  0  0  0  0  0  0  0
   47.2650   32.4335   44.5964 H   0  0  0  0  0  0  0  0  0  0  0  0
   45.3354   32.2820   49.1465 H   0  0  0  0  0  0  0  0  0  0  0  0
   47.1957   34.1146   41.0137 H   0  0  0  0  0  0  0  0  0  0  0  0
   49.0079   35.2752   39.7846 H   0  0  0  0  0  0  0  0  0  0  0  0
   49.1999   34.9947   37.3071 H   0  0  0  0  0  0  0  0  0  0  0  0
   47.5561   33.5426   36.1224 H   0  0  0  0  0  0  0  0  0  0  0  0
   45.7563   32.3887   37.3464 H   0  0  0  0  0  0  0  0  0  0  0  0
  1  7  1  0
  2  1  1  0
  3  2  1  0
  4  5  1  0
  4  3  1  0
  5  6  1  0
  6 19  1  0
  6  1  1  0
  7 11  1  0
  8  9  1  0
  8 15  1  0
 10  9  2  0
 11 12  2  0
 11 10  1  0
 12  8  1  0
 13 18  2  0
 14 15  2  0
 14 13  1  0
 15 16  1  0
 16 17  2  0
 18 17  1  0
 20 21  2  0
 20 19  1  0
 22 21  1  0
 23 22  2  0
 24 23  1  0
 24 25  2  0
 25 20  1  0
  2 26  1  0
  2 27  1  0
  3 28  1  0
  3 29  1  0
  4 30  1  0
  4 31  1  0
  5 32  1  0
  5 33  1  0
  6 34  1  6
  7 35  1  0
  7 36  1  0
  9 37  1  0
 13 38  1  0
 14 39  1  0
 17 40  1  0
 21 41  1  0
 22 42  1  0
 23 43  1  0
 24 44  1  0
 25 45  1  0
M  ISO  8  26  13  27  13  28  13  29  13  30  13  31  13  32  13  33  13
M  ISO  8  34  13  35   8  36   8  37  14  38  14  39  14  40  14  41  14
M  ISO  4  42  14  43  14  44  14  45  14
M  END
>  <minimizedAffinity>  (1) 
-5.81455898

>  <minimizedRMSD>  (1) 
4.39719439

$$$$
