
     RDKit          3D

 48 51  0  0  1  0  0  0  0  0999 V2000
   42.0610   34.3170   40.8960 N   0  0  0  0  0  0  0  0  0  0  0  0
   41.1860   35.1200   41.7000 C   0  0  0  0  0  0  0  0  0  0  0  0
   40.5050   36.1450   40.8470 C   0  0  0  0  0  0  0  0  0  0  0  0
   39.8300   35.5330   39.6490 C   0  0  0  0  0  0  0  0  0  0  0  0
   40.5840   34.4420   38.9500 C   0  0  0  0  0  0  0  0  0  0  0  0
   41.3610   33.5630   39.9080 C   0  0  1  0  0  0  0  0  0  0  0  0
   43.1500   35.0750   40.4090 C   0  0  0  0  0  0  0  0  0  0  0  0
   46.2130   34.9280   42.3320 N   0  0  0  0  0  0  0  0  0  0  0  0
   45.4620   35.7080   43.0990 C   0  0  0  0  0  0  0  0  0  0  0  0
   44.2570   35.9100   42.5820 N   0  0  0  0  0  0  0  0  0  0  0  0
   44.2550   35.2110   41.4170 C   0  0  0  0  0  0  0  0  0  0  0  0
   45.4690   34.5980   41.2570 N   0  0  0  0  0  0  0  0  0  0  0  0
   49.9160   34.5310   42.2900 C   0  0  0  0  0  0  0  0  0  0  0  0
   48.6880   35.1720   42.2380 C   0  0  0  0  0  0  0  0  0  0  0  0
   47.5300   34.3900   42.3680 C   0  0  0  0  0  0  0  0  0  0  0  0
   47.7140   33.0780   42.5320 N   0  0  0  0  0  0  0  0  0  0  0  0
   48.8990   32.4630   42.5810 C   0  0  0  0  0  0  0  0  0  0  0  0
   50.0150   33.2220   42.4550 N   0  0  0  0  0  0  0  0  0  0  0  0
   42.5610   32.5790   38.9870 S   0  0  0  0  0  0  0  0  0  0  0  0
   40.9370   29.5760   35.9630 C   0  0  0  0  0  0  0  0  0  0  0  0
   42.2390   30.0390   35.9450 C   0  0  0  0  0  0  0  0  0  0  0  0
   42.6550   30.9570   36.9070 C   0  0  0  0  0  0  0  0  0  0  0  0
   41.7710   31.4130   37.8860 C   0  0  0  0  0  0  0  0  0  0  0  0
   40.4790   30.9430   37.8920 C   0  0  0  0  0  0  0  0  0  0  0  0
   40.0900   30.0430   36.9410 C   0  0  0  0  0  0  0  0  0  0  0  0
   40.3990   28.4280   34.7680 S   0  0  0  0  0  0  0  0  0  0  0  0
   41.5560   28.0350   33.8950 O   0  0  0  0  0  0  0  0  0  0  0  0
   39.3750   29.0740   33.8920 O   0  0  0  0  0  0  0  0  0  0  0  0
   40.4286   34.4753   42.1697 H   0  0  0  0  0  0  0  0  0  0  0  0
   41.7750   35.6297   42.4767 H   0  0  0  0  0  0  0  0  0  0  0  0
   39.7477   36.6635   41.4534 H   0  0  0  0  0  0  0  0  0  0  0  0
   41.2727   36.8427   40.4812 H   0  0  0  0  0  0  0  0  0  0  0  0
   38.8682   35.1159   39.9823 H   0  0  0  0  0  0  0  0  0  0  0  0
   39.7404   36.3465   38.9140 H   0  0  0  0  0  0  0  0  0  0  0  0
   39.8668   33.8151   38.3999 H   0  0  0  0  0  0  0  0  0  0  0  0
   41.3089   34.9191   38.2740 H   0  0  0  0  0  0  0  0  0  0  0  0
   40.6293   32.9213   40.4206 H   0  0  0  0  0  0  0  0  0  0  0  0
   43.5504   34.5804   39.5118 H   0  0  0  0  0  0  0  0  0  0  0  0
   42.7784   36.0854   40.1832 H   0  0  0  0  0  0  0  0  0  0  0  0
   45.7997   36.1377   44.0536 H   0  0  0  0  0  0  0  0  0  0  0  0
   50.8347   35.1279   42.1912 H   0  0  0  0  0  0  0  0  0  0  0  0
   48.6232   36.2612   42.0990 H   0  0  0  0  0  0  0  0  0  0  0  0
   48.9670   31.3739   42.7194 H   0  0  0  0  0  0  0  0  0  0  0  0
   42.9420   29.6852   35.1765 H   0  0  0  0  0  0  0  0  0  0  0  0
   43.6911   31.3263   36.8948 H   0  0  0  0  0  0  0  0  0  0  0  0
   39.7658   31.2883   38.6549 H   0  0  0  0  0  0  0  0  0  0  0  0
   39.0534   29.6754   36.9580 H   0  0  0  0  0  0  0  0  0  0  0  0
   39.8784   27.3321   35.4043 H   0  0  0  0  0  0  0  0  0  0  0  0
  1  2  1  0
  3  2  1  0
  4  3  1  0
  5  4  1  0
  5  6  1  0
  6  1  1  0
  7  1  1  0
  7 11  1  0
  8 15  1  0
  8  9  1  0
 10  9  2  0
 11 10  1  0
 12 11  2  0
 12  8  1  0
 13 18  2  0
 14 13  1  0
 14 15  2  0
 15 16  1  0
 16 17  2  0
 18 17  1  0
 19  6  1  0
 20 25  2  0
 21 20  1  0
 21 22  2  0
 22 23  1  0
 23 24  2  0
 23 19  1  0
 25 24  1  0
 26 20  1  0
 27 26  2  0
 28 26  2  0
  2 29  1  0
  2 30  1  0
  3 31  1  0
  3 32  1  0
  4 33  1  0
  4 34  1  0
  5 35  1  0
  5 36  1  0
  6 37  1  1
  7 38  1  0
  7 39  1  0
  9 40  1  0
 13 41  1  0
 14 42  1  0
 17 43  1  0
 21 44  1  0
 22 45  1  0
 24 46  1  0
 25 47  1  0
 26 48  1  0
M  ISO  8  29  13  30  13  31  13  32  13  33  13  34  13  35  13  36  13
M  ISO  8  37  13  38   8  39   8  40  14  41  14  42  14  43  14  44  14
M  ISO  4  45  14  46  14  47  14  48  11
M  END
>  <minimizedAffinity>  (1) 
-5.6557436

>  <minimizedRMSD>  (1) 
1.43817401

$$$$
