
     RDKit          3D

 40 43  0  0  1  0  0  0  0  0999 V2000
   49.0830   33.7030   42.6610 C   0  0  2  0  0  0  0  0  0  0  0  0
   47.6910   33.9290   42.4790 C   0  0  2  0  0  0  0  0  0  0  0  0
   47.6280   35.3910   41.9500 C   0  0  0  0  0  0  0  0  0  0  0  0
   48.9890   35.8280   41.5430 C   0  0  0  0  0  0  0  0  0  0  0  0
   49.8110   35.0900   42.5110 C   0  0  0  0  0  0  0  0  0  0  0  0
   49.8190   32.8540   41.7290 C   0  0  0  0  0  0  0  0  0  0  0  0
   49.1040   32.2910   40.7000 C   0  0  0  0  0  0  0  0  0  0  0  0
   49.6670   31.4490   39.7520 C   0  0  0  0  0  0  0  0  0  0  0  0
   51.0300   31.2320   39.9350 N   0  0  0  0  0  0  0  0  0  0  0  0
   51.7230   31.7790   40.9230 C   0  0  0  0  0  0  0  0  0  0  0  0
   51.1050   32.5710   41.7910 N   0  0  0  0  0  0  0  0  0  0  0  0
   46.8210   33.8060   43.6730 C   0  0  0  0  0  0  0  0  0  0  0  0
   45.9290   34.5880   43.8840 O   0  0  0  0  0  0  0  0  0  0  0  0
   46.8850   32.8090   44.7040 C   0  0  0  0  0  0  0  0  0  0  0  0
   46.7940   33.1600   46.0580 C   0  0  0  0  0  0  0  0  0  0  0  0
   46.9030   32.2630   47.1310 C   0  0  0  0  0  0  0  0  0  0  0  0
   47.1230   30.9220   46.8400 C   0  0  0  0  0  0  0  0  0  0  0  0
   47.2180   30.5360   45.4940 C   0  0  0  0  0  0  0  0  0  0  0  0
   47.0900   31.4900   44.4840 C   0  0  0  0  0  0  0  0  0  0  0  0
   47.0590   30.6790   43.2900 C   0  0  0  0  0  0  0  0  0  0  0  0
   47.8230   29.7490   42.7420 N   0  0  0  0  0  0  0  0  0  0  0  0
   47.2670   29.1460   41.7330 O   0  0  0  0  0  0  0  0  0  0  0  0
   46.0810   29.6560   41.5570 C   0  0  0  0  0  0  0  0  0  0  0  0
   45.9720   30.5820   42.5060 N   0  0  0  0  0  0  0  0  0  0  0  0
   49.0967   33.1861   43.6319 H   0  0  0  0  0  0  0  0  0  0  0  0
   47.2968   33.1468   41.8136 H   0  0  0  0  0  0  0  0  0  0  0  0
   46.9527   35.4388   41.0830 H   0  0  0  0  0  0  0  0  0  0  0  0
   47.2517   36.0530   42.7438 H   0  0  0  0  0  0  0  0  0  0  0  0
   49.2174   35.5325   40.5083 H   0  0  0  0  0  0  0  0  0  0  0  0
   49.1408   36.9174   41.5509 H   0  0  0  0  0  0  0  0  0  0  0  0
   50.8339   34.9541   42.1301 H   0  0  0  0  0  0  0  0  0  0  0  0
   49.9083   35.6197   43.4702 H   0  0  0  0  0  0  0  0  0  0  0  0
   48.0307   32.5194   40.6238 H   0  0  0  0  0  0  0  0  0  0  0  0
   49.0904   30.9953   38.9324 H   0  0  0  0  0  0  0  0  0  0  0  0
   52.8000   31.5788   41.0231 H   0  0  0  0  0  0  0  0  0  0  0  0
   46.6241   34.2201   46.2975 H   0  0  0  0  0  0  0  0  0  0  0  0
   46.8170   32.6105   48.1711 H   0  0  0  0  0  0  0  0  0  0  0  0
   47.2205   30.1800   47.6462 H   0  0  0  0  0  0  0  0  0  0  0  0
   47.3934   29.4813   45.2353 H   0  0  0  0  0  0  0  0  0  0  0  0
   45.3367   29.3823   40.7947 H   0  0  0  0  0  0  0  0  0  0  0  0
  2  1  1  0
  2 12  1  0
  3  2  1  0
  4  3  1  0
  4  5  1  0
  5  1  1  0
  6 11  1  0
  6  1  1  0
  7  6  2  0
  8  9  2  0
  8  7  1  0
  9 10  1  0
 10 11  2  0
 12 13  2  0
 12 14  1  0
 14 15  2  0
 15 16  1  0
 17 16  2  0
 18 17  1  0
 19 14  1  0
 19 18  2  0
 20 19  1  0
 21 20  2  0
 22 21  1  0
 23 22  1  0
 23 24  2  0
 24 20  1  0
  1 25  1  1
  2 26  1  6
  3 27  1  0
  3 28  1  0
  4 29  1  0
  4 30  1  0
  5 31  1  0
  5 32  1  0
  7 33  1  0
  8 34  1  0
 10 35  1  0
 15 36  1  0
 16 37  1  0
 17 38  1  0
 18 39  1  0
 23 40  1  0
M  ISO  8  25  13  26  13  27  13  28  13  29  13  30  13  31  13  32  13
M  ISO  8  33  14  34  14  35  14  36  14  37  14  38  14  39  14  40  14
M  END
>  <minimizedAffinity>  (1) 
-5.28192425

>  <minimizedRMSD>  (1) 
0.30324173

$$$$
