
     RDKit          3D

 45 48  0  0  1  0  0  0  0  0999 V2000
   41.8310   33.9590   40.4550 N   0  0  0  0  0  0  0  0  0  0  0  0
   40.7450   34.5040   41.2170 C   0  0  0  0  0  0  0  0  0  0  0  0
   39.9820   35.4890   40.3970 C   0  0  0  0  0  0  0  0  0  0  0  0
   39.5420   34.8950   39.0800 C   0  0  0  0  0  0  0  0  0  0  0  0
   40.5610   34.0760   38.3690 C   0  0  0  0  0  0  0  0  0  0  0  0
   41.3930   33.2250   39.3020 C   0  0  1  0  0  0  0  0  0  0  0  0
   42.8020   34.9510   40.1840 C   0  0  0  0  0  0  0  0  0  0  0  0
   45.7700   34.9060   42.2460 N   0  0  0  0  0  0  0  0  0  0  0  0
   44.8780   35.4390   43.0790 C   0  0  0  0  0  0  0  0  0  0  0  0
   43.6800   35.5550   42.5220 N   0  0  0  0  0  0  0  0  0  0  0  0
   43.8350   35.0640   41.2610 C   0  0  0  0  0  0  0  0  0  0  0  0
   45.1280   34.6640   41.0940 N   0  0  0  0  0  0  0  0  0  0  0  0
   49.4850   34.9710   42.0140 C   0  0  0  0  0  0  0  0  0  0  0  0
   48.1860   35.4250   41.9260 C   0  0  0  0  0  0  0  0  0  0  0  0
   47.1480   34.5600   42.2930 C   0  0  0  0  0  0  0  0  0  0  0  0
   47.5090   33.3270   42.7120 N   0  0  0  0  0  0  0  0  0  0  0  0
   48.7630   32.8930   42.7950 C   0  0  0  0  0  0  0  0  0  0  0  0
   49.7650   33.7450   42.4350 N   0  0  0  0  0  0  0  0  0  0  0  0
   42.8520   32.6100   38.4400 S   0  0  0  0  0  0  0  0  0  0  0  0
   42.4080   31.3200   37.2900 C   0  0  0  0  0  0  0  0  0  0  0  0
   43.1000   30.8670   36.2000 C   0  0  0  0  0  0  0  0  0  0  0  0
   42.5990   29.8500   35.4140 C   0  0  0  0  0  0  0  0  0  0  0  0
   41.3750   29.2580   35.7090 C   0  0  0  0  0  0  0  0  0  0  0  0
   40.6750   29.7140   36.8100 C   0  0  0  0  0  0  0  0  0  0  0  0
   41.1740   30.7410   37.6080 C   0  0  0  0  0  0  0  0  0  0  0  0
   40.0727   33.6896   41.5248 H   0  0  0  0  0  0  0  0  0  0  0  0
   41.1497   35.0133   42.1041 H   0  0  0  0  0  0  0  0  0  0  0  0
   39.0922   35.8083   40.9594 H   0  0  0  0  0  0  0  0  0  0  0  0
   40.6412   36.3438   40.1853 H   0  0  0  0  0  0  0  0  0  0  0  0
   38.6685   34.2548   39.2730 H   0  0  0  0  0  0  0  0  0  0  0  0
   39.3314   35.7501   38.4208 H   0  0  0  0  0  0  0  0  0  0  0  0
   40.0446   33.4142   37.6581 H   0  0  0  0  0  0  0  0  0  0  0  0
   41.2452   34.7716   37.8610 H   0  0  0  0  0  0  0  0  0  0  0  0
   40.7530   32.3938   39.6329 H   0  0  0  0  0  0  0  0  0  0  0  0
   43.3061   34.7000   39.2391 H   0  0  0  0  0  0  0  0  0  0  0  0
   42.2795   35.9172   40.1249 H   0  0  0  0  0  0  0  0  0  0  0  0
   45.1082   35.7473   44.1095 H   0  0  0  0  0  0  0  0  0  0  0  0
   50.3087   35.6417   41.7282 H   0  0  0  0  0  0  0  0  0  0  0  0
   47.9699   36.4448   41.5750 H   0  0  0  0  0  0  0  0  0  0  0  0
   48.9862   31.8742   43.1446 H   0  0  0  0  0  0  0  0  0  0  0  0
   44.0698   31.3203   35.9468 H   0  0  0  0  0  0  0  0  0  0  0  0
   43.1744   29.5028   34.5432 H   0  0  0  0  0  0  0  0  0  0  0  0
   40.9746   28.4477   35.0820 H   0  0  0  0  0  0  0  0  0  0  0  0
   39.7061   29.2576   37.0607 H   0  0  0  0  0  0  0  0  0  0  0  0
   40.6036   31.0936   38.4799 H   0  0  0  0  0  0  0  0  0  0  0  0
  1  2  1  0
  3  2  1  0
  4  3  1  0
  5  4  1  0
  5  6  1  0
  6  1  1  0
  7  1  1  0
  7 11  1  0
  8 15  1  0
  8  9  1  0
 10  9  2  0
 11 10  1  0
 12 11  2  0
 12  8  1  0
 13 18  2  0
 14 13  1  0
 14 15  2  0
 15 16  1  0
 16 17  2  0
 18 17  1  0
 19  6  1  0
 20 25  1  0
 20 19  1  0
 21 20  2  0
 22 23  2  0
 22 21  1  0
 23 24  1  0
 24 25  2  0
  2 26  1  0
  2 27  1  0
  3 28  1  0
  3 29  1  0
  4 30  1  0
  4 31  1  0
  5 32  1  0
  5 33  1  0
  6 34  1  1
  7 35  1  0
  7 36  1  0
  9 37  1  0
 13 38  1  0
 14 39  1  0
 17 40  1  0
 21 41  1  0
 22 42  1  0
 23 43  1  0
 24 44  1  0
 25 45  1  0
M  ISO  8  26  13  27  13  28  13  29  13  30  13  31  13  32  13  33  13
M  ISO  8  34  13  35   8  36   8  37  14  38  14  39  14  40  14  41  14
M  ISO  4  42  14  43  14  44  14  45  14
M  END
>  <minimizedAffinity>  (1) 
-5.55468321

>  <minimizedRMSD>  (1) 
2.60950708

$$$$
