
     RDKit          3D

 43 46  0  0  1  0  0  0  0  0999 V2000
   41.9380   34.3010   40.9800 N   0  0  0  0  0  0  0  0  0  0  0  0
   40.8110   34.9720   41.5570 C   0  0  0  0  0  0  0  0  0  0  0  0
   40.1570   35.8860   40.5800 C   0  0  0  0  0  0  0  0  0  0  0  0
   39.8150   35.1540   39.3040 C   0  0  0  0  0  0  0  0  0  0  0  0
   40.8850   34.2670   38.7560 C   0  0  0  0  0  0  0  0  0  0  0  0
   41.5820   33.4900   39.8420 C   0  0  1  0  0  0  0  0  0  0  0  0
   42.9710   35.2420   40.6780 C   0  0  0  0  0  0  0  0  0  0  0  0
   46.0370   34.9700   42.5790 N   0  0  0  0  0  0  0  0  0  0  0  0
   45.2040   35.4620   43.4730 C   0  0  0  0  0  0  0  0  0  0  0  0
   43.9830   35.6530   42.9920 N   0  0  0  0  0  0  0  0  0  0  0  0
   44.0580   35.2510   41.7070 C   0  0  0  0  0  0  0  0  0  0  0  0
   45.3340   34.8240   41.4400 N   0  0  0  0  0  0  0  0  0  0  0  0
   49.7480   34.9250   42.1740 C   0  0  0  0  0  0  0  0  0  0  0  0
   48.4520   35.4250   42.1840 C   0  0  0  0  0  0  0  0  0  0  0  0
   47.4030   34.5830   42.5300 C   0  0  0  0  0  0  0  0  0  0  0  0
   47.7530   33.3130   42.8330 N   0  0  0  0  0  0  0  0  0  0  0  0
   48.9950   32.8210   42.8270 C   0  0  0  0  0  0  0  0  0  0  0  0
   50.0010   33.6590   42.4870 N   0  0  0  0  0  0  0  0  0  0  0  0
   43.0660   32.6900   39.2550 S   0  0  0  0  0  0  0  0  0  0  0  0
   42.8050   31.6470   37.8340 C   0  0  0  0  0  0  0  0  0  0  0  0
   41.6120   30.9430   37.7220 C   0  0  0  0  0  0  0  0  0  0  0  0
   41.4340   30.1400   36.6090 C   0  0  0  0  0  0  0  0  0  0  0  0
   42.3660   30.0170   35.6370 N   0  0  0  0  0  0  0  0  0  0  0  0
   43.5200   30.7220   35.7820 C   0  0  0  0  0  0  0  0  0  0  0  0
   43.7500   31.5270   36.8580 N   0  0  0  0  0  0  0  0  0  0  0  0
   40.0791   34.2204   41.8877 H   0  0  0  0  0  0  0  0  0  0  0  0
   41.1671   35.5742   42.4059 H   0  0  0  0  0  0  0  0  0  0  0  0
   39.2338   36.2870   41.0239 H   0  0  0  0  0  0  0  0  0  0  0  0
   40.8541   36.7027   40.3411 H   0  0  0  0  0  0  0  0  0  0  0  0
   38.9285   34.5326   39.4987 H   0  0  0  0  0  0  0  0  0  0  0  0
   39.6566   35.9346   38.5453 H   0  0  0  0  0  0  0  0  0  0  0  0
   40.4312   33.5586   38.0473 H   0  0  0  0  0  0  0  0  0  0  0  0
   41.6324   34.9023   38.2583 H   0  0  0  0  0  0  0  0  0  0  0  0
   40.8450   32.7354   40.1541 H   0  0  0  0  0  0  0  0  0  0  0  0
   43.4102   34.9828   39.7034 H   0  0  0  0  0  0  0  0  0  0  0  0
   42.5165   36.2436   40.6637 H   0  0  0  0  0  0  0  0  0  0  0  0
   45.4911   35.6905   44.5100 H   0  0  0  0  0  0  0  0  0  0  0  0
   50.5807   35.5901   41.9017 H   0  0  0  0  0  0  0  0  0  0  0  0
   48.2588   36.4755   41.9210 H   0  0  0  0  0  0  0  0  0  0  0  0
   49.1927   31.7712   43.0894 H   0  0  0  0  0  0  0  0  0  0  0  0
   40.8329   31.0216   38.4945 H   0  0  0  0  0  0  0  0  0  0  0  0
   40.4938   29.5775   36.5108 H   0  0  0  0  0  0  0  0  0  0  0  0
   44.2940   30.6399   35.0047 H   0  0  0  0  0  0  0  0  0  0  0  0
  1  2  1  0
  3  2  1  0
  4  3  1  0
  5  4  1  0
  5  6  1  0
  6  1  1  0
  7  1  1  0
  7 11  1  0
  8  9  1  0
 10  9  2  0
 11 10  1  0
 12 11  2  0
 12  8  1  0
 13 14  2  0
 13 18  1  0
 14 15  1  0
 15  8  1  0
 15 16  2  0
 17 16  1  0
 18 17  2  0
 19  6  1  0
 20 19  1  0
 21 20  2  0
 22 21  1  0
 23 24  1  0
 23 22  2  0
 24 25  2  0
 25 20  1  0
  2 26  1  0
  2 27  1  0
  3 28  1  0
  3 29  1  0
  4 30  1  0
  4 31  1  0
  5 32  1  0
  5 33  1  0
  6 34  1  1
  7 35  1  0
  7 36  1  0
  9 37  1  0
 13 38  1  0
 14 39  1  0
 17 40  1  0
 21 41  1  0
 22 42  1  0
 24 43  1  0
M  ISO  8  26  13  27  13  28  13  29  13  30  13  31  13  32  13  33  13
M  ISO  8  34  13  35   8  36   8  37  14  38  14  39  14  40  14  41  14
M  ISO  2  42  14  43  14
M  END
>  <minimizedAffinity>  (1) 
-5.46772289

>  <minimizedRMSD>  (1) 
0.677434802

$$$$
