
     RDKit          3D

 42 45  0  0  1  0  0  0  0  0999 V2000
   41.9130   34.2870   41.0220 N   0  0  0  0  0  0  0  0  0  0  0  0
   40.7780   34.9760   41.5470 C   0  0  0  0  0  0  0  0  0  0  0  0
   40.1390   35.8370   40.5070 C   0  0  0  0  0  0  0  0  0  0  0  0
   39.8310   35.0610   39.2580 C   0  0  0  0  0  0  0  0  0  0  0  0
   40.9150   34.1610   38.7800 C   0  0  0  0  0  0  0  0  0  0  0  0
   41.6070   33.4470   39.8940 C   0  0  1  0  0  0  0  0  0  0  0  0
   42.9410   35.2360   40.7180 C   0  0  0  0  0  0  0  0  0  0  0  0
   46.0230   34.9870   42.5950 N   0  0  0  0  0  0  0  0  0  0  0  0
   45.1960   35.4990   43.4910 C   0  0  0  0  0  0  0  0  0  0  0  0
   43.9810   35.6800   43.0140 N   0  0  0  0  0  0  0  0  0  0  0  0
   44.0380   35.2560   41.7300 C   0  0  0  0  0  0  0  0  0  0  0  0
   45.3050   34.8260   41.4680 N   0  0  0  0  0  0  0  0  0  0  0  0
   49.7190   34.9310   42.1410 C   0  0  0  0  0  0  0  0  0  0  0  0
   48.4320   35.4410   42.1620 C   0  0  0  0  0  0  0  0  0  0  0  0
   47.3850   34.5930   42.5320 C   0  0  0  0  0  0  0  0  0  0  0  0
   47.7290   33.3340   42.8400 N   0  0  0  0  0  0  0  0  0  0  0  0
   48.9730   32.8380   42.8210 C   0  0  0  0  0  0  0  0  0  0  0  0
   49.9730   33.6670   42.4620 N   0  0  0  0  0  0  0  0  0  0  0  0
   43.1110   32.6500   39.3670 S   0  0  0  0  0  0  0  0  0  0  0  0
   42.9130   31.6860   37.8750 C   0  0  0  0  0  0  0  0  0  0  0  0
   43.9810   31.5460   37.0110 C   0  0  0  0  0  0  0  0  0  0  0  0
   43.5100   30.7510   35.9620 C   0  0  0  0  0  0  0  0  0  0  0  0
   42.2050   30.4410   36.2160 N   0  0  0  0  0  0  0  0  0  0  0  0
   41.8640   31.0100   37.3660 N   0  0  0  0  0  0  0  0  0  0  0  0
   40.0436   34.2384   41.9027 H   0  0  0  0  0  0  0  0  0  0  0  0
   41.1134   35.6197   42.3736 H   0  0  0  0  0  0  0  0  0  0  0  0
   39.2025   36.2490   40.9111 H   0  0  0  0  0  0  0  0  0  0  0  0
   40.8428   36.6414   40.2470 H   0  0  0  0  0  0  0  0  0  0  0  0
   38.9403   34.4454   39.4524 H   0  0  0  0  0  0  0  0  0  0  0  0
   39.6879   35.8095   38.4647 H   0  0  0  0  0  0  0  0  0  0  0  0
   40.4778   33.4137   38.1014 H   0  0  0  0  0  0  0  0  0  0  0  0
   41.6639   34.7855   38.2709 H   0  0  0  0  0  0  0  0  0  0  0  0
   40.8756   32.6895   40.2122 H   0  0  0  0  0  0  0  0  0  0  0  0
   43.3729   34.9824   39.7386 H   0  0  0  0  0  0  0  0  0  0  0  0
   42.4768   36.2333   40.7180 H   0  0  0  0  0  0  0  0  0  0  0  0
   45.4901   35.7467   44.5216 H   0  0  0  0  0  0  0  0  0  0  0  0
   50.5519   35.5886   41.8514 H   0  0  0  0  0  0  0  0  0  0  0  0
   48.2382   36.4900   41.8935 H   0  0  0  0  0  0  0  0  0  0  0  0
   49.1716   31.7899   43.0892 H   0  0  0  0  0  0  0  0  0  0  0  0
   44.9895   31.9704   37.1242 H   0  0  0  0  0  0  0  0  0  0  0  0
   44.0903   30.4308   35.0841 H   0  0  0  0  0  0  0  0  0  0  0  0
   41.5923   29.8664   35.6199 H   0  0  0  0  0  0  0  0  0  0  0  0
  1  2  1  0
  3  2  1  0
  4  3  1  0
  5  4  1  0
  5  6  1  0
  6  1  1  0
  7  1  1  0
  7 11  1  0
  8  9  1  0
 10  9  2  0
 11 10  1  0
 12 11  2  0
 12  8  1  0
 13 14  2  0
 13 18  1  0
 14 15  1  0
 15  8  1  0
 15 16  2  0
 17 16  1  0
 18 17  2  0
 19  6  1  0
 20 19  1  0
 21 20  1  0
 22 23  1  0
 22 21  2  0
 23 24  1  0
 24 20  2  0
  2 25  1  0
  2 26  1  0
  3 27  1  0
  3 28  1  0
  4 29  1  0
  4 30  1  0
  5 31  1  0
  5 32  1  0
  6 33  1  1
  7 34  1  0
  7 35  1  0
  9 36  1  0
 13 37  1  0
 14 38  1  0
 17 39  1  0
 21 40  1  0
 22 41  1  0
 23 42  1  0
M  ISO  8  25  13  26  13  27  13  28  13  29  13  30  13  31  13  32  13
M  ISO  8  33  13  34   8  35   8  36  14  37  14  38  14  39  14  40  14
M  ISO  2  41  14  42   9
M  END
>  <minimizedAffinity>  (1) 
-5.38876867

>  <minimizedRMSD>  (1) 
0.642114937

$$$$
