
     RDKit          3D

 47 49  0  0  1  0  0  0  0  0999 V2000
   42.0350   33.9810   40.4820 N   0  0  0  0  0  0  0  0  0  0  0  0
   40.8330   34.3170   41.1820 C   0  0  0  0  0  0  0  0  0  0  0  0
   39.9960   35.2740   40.4070 C   0  0  0  0  0  0  0  0  0  0  0  0
   39.7530   34.8200   39.0060 C   0  0  0  0  0  0  0  0  0  0  0  0
   40.9100   34.1900   38.3010 C   0  0  0  0  0  0  0  0  0  0  0  0
   41.7980   33.3810   39.1900 C   0  0  1  0  0  0  0  0  0  0  0  0
   42.8690   35.1390   40.3920 C   0  0  0  0  0  0  0  0  0  0  0  0
   45.8640   34.9920   42.4010 N   0  0  0  0  0  0  0  0  0  0  0  0
   44.9860   35.4770   43.2700 C   0  0  0  0  0  0  0  0  0  0  0  0
   43.7830   35.6180   42.7370 N   0  0  0  0  0  0  0  0  0  0  0  0
   43.9170   35.1950   41.4510 C   0  0  0  0  0  0  0  0  0  0  0  0
   45.2050   34.8080   41.2460 N   0  0  0  0  0  0  0  0  0  0  0  0
   49.5780   35.0190   42.0530 C   0  0  0  0  0  0  0  0  0  0  0  0
   48.2740   35.4960   41.9910 C   0  0  0  0  0  0  0  0  0  0  0  0
   47.2490   34.6450   42.4070 C   0  0  0  0  0  0  0  0  0  0  0  0
   47.6150   33.4220   42.8370 N   0  0  0  0  0  0  0  0  0  0  0  0
   48.8630   32.9710   42.8950 C   0  0  0  0  0  0  0  0  0  0  0  0
   49.8660   33.8080   42.4860 N   0  0  0  0  0  0  0  0  0  0  0  0
   43.3720   33.0020   38.4630 S   0  0  0  0  0  0  0  0  0  0  0  0
   43.5180   31.4590   37.6070 C   0  0  0  0  0  0  0  0  0  0  0  0
   44.5400   31.4910   36.5130 C   0  0  0  0  0  0  0  0  0  0  0  0
   43.9780   30.4070   38.6270 C   0  0  0  0  0  0  0  0  0  0  0  0
   42.2310   30.9340   37.0140 C   0  0  0  0  0  0  0  0  0  0  0  0
   40.2542   33.3984   41.3585 H   0  0  0  0  0  0  0  0  0  0  0  0
   41.1111   34.7952   42.1328 H   0  0  0  0  0  0  0  0  0  0  0  0
   39.0264   35.3851   40.9145 H   0  0  0  0  0  0  0  0  0  0  0  0
   40.5402   36.2287   40.3582 H   0  0  0  0  0  0  0  0  0  0  0  0
   38.9351   34.0848   39.0297 H   0  0  0  0  0  0  0  0  0  0  0  0
   39.5277   35.7345   38.4377 H   0  0  0  0  0  0  0  0  0  0  0  0
   40.5172   33.5310   37.5127 H   0  0  0  0  0  0  0  0  0  0  0  0
   41.5235   35.0108   37.9012 H   0  0  0  0  0  0  0  0  0  0  0  0
   41.2265   32.4512   39.3274 H   0  0  0  0  0  0  0  0  0  0  0  0
   43.3647   35.1367   39.4100 H   0  0  0  0  0  0  0  0  0  0  0  0
   42.2216   36.0179   40.5276 H   0  0  0  0  0  0  0  0  0  0  0  0
   45.2298   35.7321   44.3119 H   0  0  0  0  0  0  0  0  0  0  0  0
   50.3989   35.6757   41.7291 H   0  0  0  0  0  0  0  0  0  0  0  0
   48.0570   36.5108   41.6261 H   0  0  0  0  0  0  0  0  0  0  0  0
   49.0836   31.9571   43.2601 H   0  0  0  0  0  0  0  0  0  0  0  0
   45.5475   31.5225   36.9533 H   0  0  0  0  0  0  0  0  0  0  0  0
   44.4397   30.5893   35.8910 H   0  0  0  0  0  0  0  0  0  0  0  0
   44.3835   32.3847   35.8910 H   0  0  0  0  0  0  0  0  0  0  0  0
   43.8119   30.7869   39.6459 H   0  0  0  0  0  0  0  0  0  0  0  0
   43.4029   29.4805   38.4829 H   0  0  0  0  0  0  0  0  0  0  0  0
   45.0487   30.2001   38.4829 H   0  0  0  0  0  0  0  0  0  0  0  0
   41.5419   30.6529   37.8240 H   0  0  0  0  0  0  0  0  0  0  0  0
   41.7679   31.7151   36.3932 H   0  0  0  0  0  0  0  0  0  0  0  0
   42.4464   30.0519   36.3932 H   0  0  0  0  0  0  0  0  0  0  0  0
  1  2  1  0
  3  2  1  0
  4  3  1  0
  5  4  1  0
  5  6  1  0
  6  1  1  0
  7  1  1  0
  7 11  1  0
  8 15  1  0
  8  9  1  0
 10  9  2  0
 11 10  1  0
 12 11  2  0
 12  8  1  0
 13 18  2  0
 14 13  1  0
 14 15  2  0
 15 16  1  0
 16 17  2  0
 18 17  1  0
 19  6  1  0
 20 19  1  0
 20 22  1  0
 21 20  1  0
 23 20  1  0
  2 24  1  0
  2 25  1  0
  3 26  1  0
  3 27  1  0
  4 28  1  0
  4 29  1  0
  5 30  1  0
  5 31  1  0
  6 32  1  1
  7 33  1  0
  7 34  1  0
  9 35  1  0
 13 36  1  0
 14 37  1  0
 17 38  1  0
 21 39  1  0
 21 40  1  0
 21 41  1  0
 22 42  1  0
 22 43  1  0
 22 44  1  0
 23 45  1  0
 23 46  1  0
 23 47  1  0
M  ISO  8  24  13  25  13  26  13  27  13  28  13  29  13  30  13  31  13
M  ISO  8  32  13  33   8  34   8  35  14  36  14  37  14  38  14  39   8
M  ISO  8  40   8  41   8  42   8  43   8  44   8  45   8  46   8  47   8
M  END
>  <minimizedAffinity>  (1) 
-5.17407179

>  <minimizedRMSD>  (1) 
0.663588464

$$$$
