
     RDKit          3D

 42 45  0  0  1  0  0  0  0  0999 V2000
   42.2040   34.0530   40.5500 N   0  0  0  0  0  0  0  0  0  0  0  0
   41.0040   34.2140   41.3120 C   0  0  0  0  0  0  0  0  0  0  0  0
   40.0800   35.1890   40.6580 C   0  0  0  0  0  0  0  0  0  0  0  0
   39.8390   34.8710   39.2080 C   0  0  0  0  0  0  0  0  0  0  0  0
   41.0430   34.4530   38.4170 C   0  0  0  0  0  0  0  0  0  0  0  0
   41.9700   33.5910   39.2140 C   0  0  1  0  0  0  0  0  0  0  0  0
   42.9660   35.2660   40.5730 C   0  0  0  0  0  0  0  0  0  0  0  0
   45.9900   34.9830   42.5300 N   0  0  0  0  0  0  0  0  0  0  0  0
   45.1340   35.4450   43.4220 C   0  0  0  0  0  0  0  0  0  0  0  0
   43.9200   35.6340   42.9230 N   0  0  0  0  0  0  0  0  0  0  0  0
   44.0280   35.2630   41.6260 C   0  0  0  0  0  0  0  0  0  0  0  0
   45.3120   34.8560   41.3690 N   0  0  0  0  0  0  0  0  0  0  0  0
   49.7140   34.9990   42.1830 C   0  0  0  0  0  0  0  0  0  0  0  0
   48.4120   35.4820   42.1760 C   0  0  0  0  0  0  0  0  0  0  0  0
   47.3650   34.6120   42.5000 C   0  0  0  0  0  0  0  0  0  0  0  0
   47.7080   33.3450   42.8010 N   0  0  0  0  0  0  0  0  0  0  0  0
   48.9570   32.8770   42.8080 C   0  0  0  0  0  0  0  0  0  0  0  0
   49.9710   33.7210   42.4940 N   0  0  0  0  0  0  0  0  0  0  0  0
   43.5560   33.3850   38.4060 S   0  0  0  0  0  0  0  0  0  0  0  0
   45.8420   30.9760   40.5710 N   0  0  0  0  0  0  0  0  0  0  0  0
   44.6390   31.4530   40.3440 N   0  0  0  0  0  0  0  0  0  0  0  0
   44.6600   32.3330   39.3250 C   0  0  0  0  0  0  0  0  0  0  0  0
   45.9940   32.3870   38.9100 C   0  0  0  0  0  0  0  0  0  0  0  0
   46.7310   31.5160   39.7140 C   0  0  0  0  0  0  0  0  0  0  0  0
   40.4985   33.2407   41.3965 H   0  0  0  0  0  0  0  0  0  0  0  0
   41.2705   34.5982   42.3077 H   0  0  0  0  0  0  0  0  0  0  0  0
   39.1162   35.1714   41.1878 H   0  0  0  0  0  0  0  0  0  0  0  0
   40.5515   36.1816   40.7085 H   0  0  0  0  0  0  0  0  0  0  0  0
   39.1047   34.0533   39.1604 H   0  0  0  0  0  0  0  0  0  0  0  0
   39.4963   35.8113   38.7514 H   0  0  0  0  0  0  0  0  0  0  0  0
   40.7084   33.8907   37.5327 H   0  0  0  0  0  0  0  0  0  0  0  0
   41.5907   35.3624   38.1288 H   0  0  0  0  0  0  0  0  0  0  0  0
   41.4430   32.6275   39.2771 H   0  0  0  0  0  0  0  0  0  0  0  0
   43.4445   35.3992   39.5915 H   0  0  0  0  0  0  0  0  0  0  0  0
   42.2729   36.0884   40.8038 H   0  0  0  0  0  0  0  0  0  0  0  0
   45.3996   35.6516   44.4693 H   0  0  0  0  0  0  0  0  0  0  0  0
   50.5449   35.6740   41.9301 H   0  0  0  0  0  0  0  0  0  0  0  0
   48.2070   36.5319   41.9198 H   0  0  0  0  0  0  0  0  0  0  0  0
   49.1607   31.8267   43.0635 H   0  0  0  0  0  0  0  0  0  0  0  0
   46.0730   30.2868   41.3008 H   0  0  0  0  0  0  0  0  0  0  0  0
   46.3927   33.0069   38.0934 H   0  0  0  0  0  0  0  0  0  0  0  0
   47.8107   31.3129   39.6596 H   0  0  0  0  0  0  0  0  0  0  0  0
  1  7  1  0
  1  2  1  0
  3  2  1  0
  4  3  1  0
  5  4  1  0
  5  6  1  0
  6  1  1  0
  7 11  1  0
  8  9  1  0
 10  9  2  0
 11 10  1  0
 12 11  2  0
 12  8  1  0
 13 18  2  0
 14 13  1  0
 14 15  2  0
 15  8  1  0
 15 16  1  0
 16 17  2  0
 18 17  1  0
 19  6  1  0
 19 22  1  0
 21 20  1  0
 22 21  2  0
 23 22  1  0
 23 24  2  0
 24 20  1  0
  2 25  1  0
  2 26  1  0
  3 27  1  0
  3 28  1  0
  4 29  1  0
  4 30  1  0
  5 31  1  0
  5 32  1  0
  6 33  1  1
  7 34  1  0
  7 35  1  0
  9 36  1  0
 13 37  1  0
 14 38  1  0
 17 39  1  0
 20 40  1  0
 23 41  1  0
 24 42  1  0
M  ISO  8  25  13  26  13  27  13  28  13  29  13  30  13  31  13  32  13
M  ISO  8  33  13  34   8  35   8  36  14  37  14  38  14  39  14  40   9
M  ISO  2  41  14  42  14
M  END
>  <minimizedAffinity>  (1) 
-5.03926945

>  <minimizedRMSD>  (1) 
0.640608788

$$$$
