
     RDKit          3D

 42 45  0  0  1  0  0  0  0  0999 V2000
   49.3430   33.2640   42.6020 C   0  0  2  0  0  0  0  0  0  0  0  0
   47.9240   33.3760   42.5700 C   0  0  2  0  0  0  0  0  0  0  0  0
   47.6960   34.8850   42.2660 C   0  0  0  0  0  0  0  0  0  0  0  0
   48.9730   35.4960   41.7990 C   0  0  0  0  0  0  0  0  0  0  0  0
   49.9410   34.7190   42.5760 C   0  0  0  0  0  0  0  0  0  0  0  0
   50.0420   32.6160   41.4940 C   0  0  0  0  0  0  0  0  0  0  0  0
   49.2900   32.2670   40.3920 C   0  0  0  0  0  0  0  0  0  0  0  0
   49.8110   31.6280   39.2840 C   0  0  0  0  0  0  0  0  0  0  0  0
   51.1790   31.3740   39.3880 N   0  0  0  0  0  0  0  0  0  0  0  0
   51.9150   31.7080   40.4410 C   0  0  0  0  0  0  0  0  0  0  0  0
   51.3340   32.3200   41.4720 N   0  0  0  0  0  0  0  0  0  0  0  0
   47.1900   33.0160   43.8130 C   0  0  0  0  0  0  0  0  0  0  0  0
   46.5450   33.8390   44.4110 O   0  0  0  0  0  0  0  0  0  0  0  0
   47.1300   31.7360   44.4620 C   0  0  0  0  0  0  0  0  0  0  0  0
   47.2370   30.5480   43.7280 C   0  0  0  0  0  0  0  0  0  0  0  0
   47.1550   29.2730   44.3100 C   0  0  0  0  0  0  0  0  0  0  0  0
   46.9580   29.1850   45.6820 C   0  0  0  0  0  0  0  0  0  0  0  0
   46.8500   30.3400   46.4350 C   0  0  0  0  0  0  0  0  0  0  0  0
   46.9420   31.5600   45.8050 C   0  0  0  0  0  0  0  0  0  0  0  0
   46.8900   32.6380   46.8430 C   0  0  0  0  0  0  0  0  0  0  0  0
   46.6700   32.3470   48.2450 C   0  0  0  0  0  0  0  0  0  0  0  0
   45.4820   32.7900   47.5480 C   0  0  0  0  0  0  0  0  0  0  0  0
   49.4976   32.6378   43.4931 H   0  0  0  0  0  0  0  0  0  0  0  0
   47.5291   32.6576   41.8366 H   0  0  0  0  0  0  0  0  0  0  0  0
   46.9312   34.9897   41.4823 H   0  0  0  0  0  0  0  0  0  0  0  0
   47.3573   35.3961   43.1793 H   0  0  0  0  0  0  0  0  0  0  0  0
   49.1170   35.3587   40.7171 H   0  0  0  0  0  0  0  0  0  0  0  0
   49.0392   36.5847   41.9417 H   0  0  0  0  0  0  0  0  0  0  0  0
   50.9270   34.7261   42.0885 H   0  0  0  0  0  0  0  0  0  0  0  0
   50.0936   35.1280   43.5857 H   0  0  0  0  0  0  0  0  0  0  0  0
   48.2173   32.5107   40.3957 H   0  0  0  0  0  0  0  0  0  0  0  0
   49.2081   31.3475   38.4077 H   0  0  0  0  0  0  0  0  0  0  0  0
   52.9914   31.4823   40.4621 H   0  0  0  0  0  0  0  0  0  0  0  0
   47.3931   30.6174   42.6413 H   0  0  0  0  0  0  0  0  0  0  0  0
   47.2446   28.3658   43.6944 H   0  0  0  0  0  0  0  0  0  0  0  0
   46.8882   28.2006   46.1678 H   0  0  0  0  0  0  0  0  0  0  0  0
   46.6928   30.2842   47.5223 H   0  0  0  0  0  0  0  0  0  0  0  0
   47.6347   33.2478   46.3105 H   0  0  0  0  0  0  0  0  0  0  0  0
   46.7279   31.3031   48.5871 H   0  0  0  0  0  0  0  0  0  0  0  0
   47.1658   32.7023   49.1604 H   0  0  0  0  0  0  0  0  0  0  0  0
   45.0597   33.7869   47.7425 H   0  0  0  0  0  0  0  0  0  0  0  0
   44.4650   32.4038   47.3849 H   0  0  0  0  0  0  0  0  0  0  0  0
  2  1  1  0
  2 12  1  0
  3  2  1  0
  4  3  1  0
  4  5  1  0
  5  1  1  0
  6  1  1  0
  7  6  2  0
  8  9  2  0
  8  7  1  0
  9 10  1  0
 10 11  2  0
 11  6  1  0
 12 13  2  0
 12 14  1  0
 14 19  2  0
 15 16  2  0
 15 14  1  0
 16 17  1  0
 17 18  2  0
 19 18  1  0
 19 20  1  0
 20 22  1  0
 20 21  1  0
 22 21  1  0
  1 23  1  1
  2 24  1  6
  3 25  1  0
  3 26  1  0
  4 27  1  0
  4 28  1  0
  5 29  1  0
  5 30  1  0
  7 31  1  0
  8 32  1  0
 10 33  1  0
 15 34  1  0
 16 35  1  0
 17 36  1  0
 18 37  1  0
 20 38  1  0
 21 39  1  0
 21 40  1  0
 22 41  1  0
 22 42  1  0
M  ISO  8  23  13  24  13  25  13  26  13  27  13  28  13  29  13  30  13
M  ISO  8  31  14  32  14  33  14  34  14  35  14  36  14  37  14  38  13
M  ISO  4  39  13  40  13  41  13  42  13
M  END
>  <minimizedAffinity>  (1) 
-5.25163412

>  <minimizedRMSD>  (1) 
2.48615742

$$$$
