
     RDKit          3D

 26 28  0  0  0  0  0  0  0  0999 V2000
   44.1770   33.8020   41.3230 C   0  0  0  0  0  0  0  0  0  0  0  0
   44.1800   35.4640   43.1630 C   0  0  0  0  0  0  0  0  0  0  0  0
   44.4910   34.1870   42.7030 C   0  0  0  0  0  0  0  0  0  0  0  0
   45.1070   33.2770   43.5790 C   0  0  0  0  0  0  0  0  0  0  0  0
   45.3670   33.7100   44.8480 N   0  0  0  0  0  0  0  0  0  0  0  0
   45.0460   34.9640   45.2490 C   0  0  0  0  0  0  0  0  0  0  0  0
   44.4480   35.8700   44.4250 N   0  0  0  0  0  0  0  0  0  0  0  0
   42.7790   33.3920   41.2710 N   0  0  0  0  0  0  0  0  0  0  0  0
   42.3820   32.1360   41.6320 C   0  0  0  0  0  0  0  0  0  0  0  0
   41.0330   32.0890   41.4670 N   0  0  0  0  0  0  0  0  0  0  0  0
   40.5950   33.2580   41.0210 C   0  0  0  0  0  0  0  0  0  0  0  0
   39.3950   33.8410   40.6680 C   0  0  0  0  0  0  0  0  0  0  0  0
   39.2790   35.1200   40.2310 N   0  0  0  0  0  0  0  0  0  0  0  0
   40.4040   35.8850   40.1290 C   0  0  0  0  0  0  0  0  0  0  0  0
   41.5920   35.3680   40.4590 N   0  0  0  0  0  0  0  0  0  0  0  0
   41.7000   34.1040   40.8910 C   0  0  0  0  0  0  0  0  0  0  0  0
   38.2150   33.0520   40.7710 N   0  0  0  0  0  0  0  0  0  0  0  0
   44.3391   34.6581   40.6516 H   0  0  0  0  0  0  0  0  0  0  0  0
   44.8275   32.9751   41.0020 H   0  0  0  0  0  0  0  0  0  0  0  0
   43.6970   36.1709   42.4723 H   0  0  0  0  0  0  0  0  0  0  0  0
   45.3688   32.2586   43.2562 H   0  0  0  0  0  0  0  0  0  0  0  0
   45.2776   35.2629   46.2820 H   0  0  0  0  0  0  0  0  0  0  0  0
   43.0285   31.3201   41.9875 H   0  0  0  0  0  0  0  0  0  0  0  0
   40.3338   36.9245   39.7762 H   0  0  0  0  0  0  0  0  0  0  0  0
   37.3021   33.4550   40.5158 H   0  0  0  0  0  0  0  0  0  0  0  0
   38.2739   32.0780   41.1007 H   0  0  0  0  0  0  0  0  0  0  0  0
  1  3  1  0
  2  7  2  0
  3  2  1  0
  3  4  2  0
  4  5  1  0
  5  6  2  0
  7  6  1  0
  8  1  1  0
  8  9  1  0
 10  9  2  0
 11 10  1  0
 12 17  1  0
 12 11  2  0
 13 12  1  0
 14 13  2  0
 14 15  1  0
 15 16  2  0
 16 11  1  0
 16  8  1  0
  1 18  1  0
  1 19  1  0
  2 20  1  0
  4 21  1  0
  6 22  1  0
  9 23  1  0
 14 24  1  0
 17 25  1  0
 17 26  1  0
M  ISO  7  18   8  19   8  20  14  21  14  22  14  23  14  24  14
M  END
>  <minimizedAffinity>  (1) 
-5.15532637

>  <minimizedRMSD>  (1) 
1.63458753

$$$$
