
     RDKit          3D

 27 29  0  0  0  0  0  0  0  0999 V2000
   44.3550   35.2820   41.6450 C   0  0  0  0  0  0  0  0  0  0  0  0
   43.4680   34.2750   40.9800 C   0  0  0  0  0  0  0  0  0  0  0  0
   43.9360   33.0430   40.6310 N   0  0  0  0  0  0  0  0  0  0  0  0
   43.1200   32.1410   40.0290 C   0  0  0  0  0  0  0  0  0  0  0  0
   41.8220   32.4550   39.7660 N   0  0  0  0  0  0  0  0  0  0  0  0
   41.3210   33.6750   40.0990 C   0  0  0  0  0  0  0  0  0  0  0  0
   39.9960   33.9660   39.8170 C   0  0  0  0  0  0  0  0  0  0  0  0
   39.5250   35.2330   40.1800 C   0  0  0  0  0  0  0  0  0  0  0  0
   40.3720   36.1260   40.7880 C   0  0  0  0  0  0  0  0  0  0  0  0
   41.7030   35.8350   41.0710 C   0  0  0  0  0  0  0  0  0  0  0  0
   42.1580   34.5900   40.7130 C   0  0  0  0  0  0  0  0  0  0  0  0
   44.3150   35.8120   44.0850 C   0  0  0  0  0  0  0  0  0  0  0  0
   44.6500   34.9370   43.0280 C   0  0  0  0  0  0  0  0  0  0  0  0
   45.2830   33.7090   43.3520 C   0  0  0  0  0  0  0  0  0  0  0  0
   45.5300   33.4510   44.6780 N   0  0  0  0  0  0  0  0  0  0  0  0
   45.1870   34.3260   45.6440 C   0  0  0  0  0  0  0  0  0  0  0  0
   44.5830   35.5040   45.3690 N   0  0  0  0  0  0  0  0  0  0  0  0
   43.8543   36.2612   41.6247 H   0  0  0  0  0  0  0  0  0  0  0  0
   45.3075   35.3036   41.0952 H   0  0  0  0  0  0  0  0  0  0  0  0
   43.5099   31.1504   39.7520 H   0  0  0  0  0  0  0  0  0  0  0  0
   39.3405   33.2307   39.3274 H   0  0  0  0  0  0  0  0  0  0  0  0
   38.4802   35.5121   39.9789 H   0  0  0  0  0  0  0  0  0  0  0  0
   39.9808   37.1164   41.0640 H   0  0  0  0  0  0  0  0  0  0  0  0
   42.3608   36.5691   41.5594 H   0  0  0  0  0  0  0  0  0  0  0  0
   43.8232   36.7685   43.8542 H   0  0  0  0  0  0  0  0  0  0  0  0
   45.5656   32.9897   42.5692 H   0  0  0  0  0  0  0  0  0  0  0  0
   45.4059   34.0731   46.6919 H   0  0  0  0  0  0  0  0  0  0  0  0
  1 13  1  0
  2  1  1  0
  3  2  2  0
  4  3  1  0
  5  4  2  0
  5  6  1  0
  6 11  2  0
  7  6  1  0
  7  8  2  0
  8  9  1  0
  9 10  2  0
 11  2  1  0
 11 10  1  0
 12 17  2  0
 13 14  2  0
 13 12  1  0
 14 15  1  0
 15 16  2  0
 17 16  1  0
  1 18  1  0
  1 19  1  0
  4 20  1  0
  7 21  1  0
  8 22  1  0
  9 23  1  0
 10 24  1  0
 12 25  1  0
 14 26  1  0
 16 27  1  0
M  ISO  8  18   8  19   8  20  14  21  14  22  14  23  14  24  14  25  14
M  ISO  2  26  14  27  14
M  END
>  <minimizedAffinity>  (1) 
-5.10722828

>  <minimizedRMSD>  (1) 
1.88190997

$$$$
