
     RDKit          3D

 38 40  0  0  1  0  0  0  0  0999 V2000
   49.0700   33.7060   42.6430 C   0  0  2  0  0  0  0  0  0  0  0  0
   47.6780   33.9240   42.4330 C   0  0  2  0  0  0  0  0  0  0  0  0
   47.6360   35.4170   41.9730 C   0  0  0  0  0  0  0  0  0  0  0  0
   48.9880   35.8460   41.5520 C   0  0  0  0  0  0  0  0  0  0  0  0
   49.7940   35.1000   42.5270 C   0  0  0  0  0  0  0  0  0  0  0  0
   49.8280   32.8830   41.7100 C   0  0  0  0  0  0  0  0  0  0  0  0
   49.1420   32.3870   40.6210 C   0  0  0  0  0  0  0  0  0  0  0  0
   49.7290   31.5650   39.6750 C   0  0  0  0  0  0  0  0  0  0  0  0
   51.0750   31.2960   39.9230 N   0  0  0  0  0  0  0  0  0  0  0  0
   51.7410   31.7750   40.9640 C   0  0  0  0  0  0  0  0  0  0  0  0
   51.1050   32.5550   41.8330 N   0  0  0  0  0  0  0  0  0  0  0  0
   46.7870   33.7730   43.6200 C   0  0  0  0  0  0  0  0  0  0  0  0
   45.8770   34.5240   43.8050 O   0  0  0  0  0  0  0  0  0  0  0  0
   46.8690   32.7820   44.6610 C   0  0  0  0  0  0  0  0  0  0  0  0
   46.8220   33.1670   46.0130 C   0  0  0  0  0  0  0  0  0  0  0  0
   46.9580   32.2670   47.0910 C   0  0  0  0  0  0  0  0  0  0  0  0
   47.1500   30.9280   46.7570 C   0  0  0  0  0  0  0  0  0  0  0  0
   47.1950   30.5290   45.4420 C   0  0  0  0  0  0  0  0  0  0  0  0
   47.0530   31.4450   44.4410 C   0  0  0  0  0  0  0  0  0  0  0  0
   47.1330   30.6760   43.1660 C   0  0  0  0  0  0  0  0  0  0  0  0
   46.1820   30.9430   42.2360 F   0  0  0  0  0  0  0  0  0  0  0  0
   48.3260   30.1530   42.8680 F   0  0  0  0  0  0  0  0  0  0  0  0
   46.5020   29.3400   43.4570 F   0  0  0  0  0  0  0  0  0  0  0  0
   49.0669   33.1765   43.6072 H   0  0  0  0  0  0  0  0  0  0  0  0
   47.2966   33.1667   41.7322 H   0  0  0  0  0  0  0  0  0  0  0  0
   46.9397   35.5200   41.1277 H   0  0  0  0  0  0  0  0  0  0  0  0
   47.2971   36.0469   42.8087 H   0  0  0  0  0  0  0  0  0  0  0  0
   49.2111   35.5435   40.5182 H   0  0  0  0  0  0  0  0  0  0  0  0
   49.1524   36.9336   41.5433 H   0  0  0  0  0  0  0  0  0  0  0  0
   50.8254   34.9748   42.1658 H   0  0  0  0  0  0  0  0  0  0  0  0
   49.8686   35.6173   43.4949 H   0  0  0  0  0  0  0  0  0  0  0  0
   48.0825   32.6565   40.4992 H   0  0  0  0  0  0  0  0  0  0  0  0
   49.1849   31.1614   38.8084 H   0  0  0  0  0  0  0  0  0  0  0  0
   52.8040   31.5309   41.1069 H   0  0  0  0  0  0  0  0  0  0  0  0
   46.6704   34.2319   46.2433 H   0  0  0  0  0  0  0  0  0  0  0  0
   46.9148   32.6038   48.1373 H   0  0  0  0  0  0  0  0  0  0  0  0
   47.2671   30.1806   47.5555 H   0  0  0  0  0  0  0  0  0  0  0  0
   47.3460   29.4675   45.1962 H   0  0  0  0  0  0  0  0  0  0  0  0
  2  1  1  0
  2 12  1  0
  3  2  1  0
  4  3  1  0
  4  5  1  0
  5  1  1  0
  6 11  1  0
  6  1  1  0
  7  6  2  0
  8  9  2  0
  8  7  1  0
  9 10  1  0
 10 11  2  0
 12 13  2  0
 12 14  1  0
 14 15  2  0
 15 16  1  0
 17 16  2  0
 18 17  1  0
 19 14  1  0
 19 18  2  0
 20 23  1  0
 20 19  1  0
 21 20  1  0
 22 20  1  0
  1 24  1  1
  2 25  1  6
  3 26  1  0
  3 27  1  0
  4 28  1  0
  4 29  1  0
  5 30  1  0
  5 31  1  0
  7 32  1  0
  8 33  1  0
 10 34  1  0
 15 35  1  0
 16 36  1  0
 17 37  1  0
 18 38  1  0
M  ISO  8  24  13  25  13  26  13  27  13  28  13  29  13  30  13  31  13
M  ISO  7  32  14  33  14  34  14  35  14  36  14  37  14  38  14
M  END
>  <minimizedAffinity>  (1) 
-5.24145317

>  <minimizedRMSD>  (1) 
0.357776433

$$$$
