
     RDKit          3D

 20 21  0  0  0  0  0  0  0  0999 V2000
   44.2480   35.8180   44.1310 C   0  0  0  0  0  0  0  0  0  0  0  0
   44.4600   34.9910   43.0240 C   0  0  0  0  0  0  0  0  0  0  0  0
   45.1180   33.7460   43.2090 C   0  0  0  0  0  0  0  0  0  0  0  0
   45.5060   33.4420   44.4950 N   0  0  0  0  0  0  0  0  0  0  0  0
   45.2820   34.2630   45.5260 C   0  0  0  0  0  0  0  0  0  0  0  0
   44.6530   35.4640   45.3790 N   0  0  0  0  0  0  0  0  0  0  0  0
   44.0140   35.3980   41.6930 C   0  0  0  0  0  0  0  0  0  0  0  0
   42.6030   34.9520   41.5310 C   0  0  0  0  0  0  0  0  0  0  0  0
   41.4260   35.6660   41.6020 C   0  0  0  0  0  0  0  0  0  0  0  0
   40.4230   34.7260   41.3670 C   0  0  0  0  0  0  0  0  0  0  0  0
   41.0370   33.4940   41.1660 C   0  0  0  0  0  0  0  0  0  0  0  0
   42.3170   33.6890   41.2740 O   0  0  0  0  0  0  0  0  0  0  0  0
   43.7390   36.7826   43.9878 H   0  0  0  0  0  0  0  0  0  0  0  0
   45.3077   33.0608   42.3696 H   0  0  0  0  0  0  0  0  0  0  0  0
   45.6170   33.9589   46.5287 H   0  0  0  0  0  0  0  0  0  0  0  0
   44.0743   36.4921   41.5962 H   0  0  0  0  0  0  0  0  0  0  0  0
   44.6516   34.9462   40.9188 H   0  0  0  0  0  0  0  0  0  0  0  0
   41.3046   36.7411   41.8004 H   0  0  0  0  0  0  0  0  0  0  0  0
   39.3411   34.9232   41.3446 H   0  0  0  0  0  0  0  0  0  0  0  0
   40.5351   32.5380   40.9559 H   0  0  0  0  0  0  0  0  0  0  0  0
  1  6  2  0
  2  3  2  0
  2  1  1  0
  3  4  1  0
  4  5  2  0
  6  5  1  0
  7  2  1  0
  8  9  2  0
  8  7  1  0
 10  9  1  0
 11 12  1  0
 11 10  2  0
 12  8  1  0
  1 13  1  0
  3 14  1  0
  5 15  1  0
  7 16  1  0
  7 17  1  0
  9 18  1  0
 10 19  1  0
 11 20  1  0
M  ISO  8  13  14  14  14  15  14  16   8  17   8  18  14  19  14  20  14
M  END
>  <minimizedAffinity>  (1) 
-3.87324905

>  <minimizedRMSD>  (1) 
0.505128086

$$$$
