
     RDKit          3D

 25 26  0  0  0  0  0  0  0  0999 V2000
   44.1830   35.8590   43.4110 C   0  0  0  0  0  0  0  0  0  0  0  0
   43.9670   34.9140   42.3950 C   0  0  0  0  0  0  0  0  0  0  0  0
   44.4970   33.6080   42.5810 C   0  0  0  0  0  0  0  0  0  0  0  0
   45.1870   33.3500   43.7410 N   0  0  0  0  0  0  0  0  0  0  0  0
   45.3600   34.3090   44.6810 C   0  0  0  0  0  0  0  0  0  0  0  0
   44.8710   35.5510   44.5340 N   0  0  0  0  0  0  0  0  0  0  0  0
   43.2220   35.2710   41.1950 C   0  0  0  0  0  0  0  0  0  0  0  0
   42.0190   34.5310   40.9860 N   0  0  0  0  0  0  0  0  0  0  0  0
   40.9180   35.2620   41.5720 C   0  0  0  0  0  0  0  0  0  0  0  0
   40.1970   35.9850   40.4670 C   0  0  0  0  0  0  0  0  0  0  0  0
   41.0860   35.7210   39.2580 C   0  0  0  0  0  0  0  0  0  0  0  0
   41.6530   34.3730   39.6130 C   0  0  0  0  0  0  0  0  0  0  0  0
   43.7822   36.8763   43.2904 H   0  0  0  0  0  0  0  0  0  0  0  0
   44.3588   32.8270   41.8188 H   0  0  0  0  0  0  0  0  0  0  0  0
   45.9196   34.0626   45.5954 H   0  0  0  0  0  0  0  0  0  0  0  0
   42.9590   36.3370   41.2618 H   0  0  0  0  0  0  0  0  0  0  0  0
   43.8788   35.0340   40.3450 H   0  0  0  0  0  0  0  0  0  0  0  0
   40.2304   34.5636   42.0715 H   0  0  0  0  0  0  0  0  0  0  0  0
   41.2907   35.9797   42.3177 H   0  0  0  0  0  0  0  0  0  0  0  0
   39.1885   35.5728   40.3153 H   0  0  0  0  0  0  0  0  0  0  0  0
   40.0453   37.0551   40.6719 H   0  0  0  0  0  0  0  0  0  0  0  0
   41.8763   36.4803   39.1633 H   0  0  0  0  0  0  0  0  0  0  0  0
   40.5616   35.7541   38.2916 H   0  0  0  0  0  0  0  0  0  0  0  0
   40.8978   33.5822   39.4934 H   0  0  0  0  0  0  0  0  0  0  0  0
   42.4946   34.0734   38.9712 H   0  0  0  0  0  0  0  0  0  0  0  0
  1  6  2  0
  2  3  2  0
  2  1  1  0
  3  4  1  0
  4  5  2  0
  6  5  1  0
  7  2  1  0
  8  7  1  0
  8  9  1  0
 10  9  1  0
 11 12  1  0
 11 10  1  0
 12  8  1  0
  1 13  1  0
  3 14  1  0
  5 15  1  0
  7 16  1  0
  7 17  1  0
  9 18  1  0
  9 19  1  0
 10 20  1  0
 10 21  1  0
 11 22  1  0
 11 23  1  0
 12 24  1  0
 12 25  1  0
M  ISO  8  13  14  14  14  15  14  16   8  17   8  18  13  19  13  20  13
M  ISO  5  21  13  22  13  23  13  24  13  25  13
M  END
>  <minimizedAffinity>  (1) 
-3.79821801

>  <minimizedRMSD>  (1) 
1.5409373

$$$$
