
     RDKit          3D

 19 20  0  0  0  0  0  0  0  0999 V2000
   44.4030   35.8310   44.5200 C   0  0  0  0  0  0  0  0  0  0  0  0
   44.7730   35.1920   43.3210 C   0  0  0  0  0  0  0  0  0  0  0  0
   45.4240   33.9500   43.3780 C   0  0  0  0  0  0  0  0  0  0  0  0
   45.6610   33.4340   44.6250 N   0  0  0  0  0  0  0  0  0  0  0  0
   45.2970   34.0660   45.7450 C   0  0  0  0  0  0  0  0  0  0  0  0
   44.6670   35.2670   45.7280 N   0  0  0  0  0  0  0  0  0  0  0  0
   44.4630   35.8500   42.0470 C   0  0  0  0  0  0  0  0  0  0  0  0
   43.2680   35.2020   41.4220 C   0  0  0  0  0  0  0  0  0  0  0  0
   43.4120   34.3460   40.3300 C   0  0  0  0  0  0  0  0  0  0  0  0
   41.6510   33.8520   39.9850 S   0  0  0  0  0  0  0  0  0  0  0  0
   41.0510   34.9290   41.4210 C   0  0  0  0  0  0  0  0  0  0  0  0
   42.0160   35.3900   41.8470 N   0  0  0  0  0  0  0  0  0  0  0  0
   43.8913   36.8038   44.4782 H   0  0  0  0  0  0  0  0  0  0  0  0
   45.7292   33.4166   42.4657 H   0  0  0  0  0  0  0  0  0  0  0  0
   45.5161   33.5955   46.7149 H   0  0  0  0  0  0  0  0  0  0  0  0
   44.2494   36.9139   42.2275 H   0  0  0  0  0  0  0  0  0  0  0  0
   45.3244   35.7557   41.3694 H   0  0  0  0  0  0  0  0  0  0  0  0
   44.3305   34.0412   39.8071 H   0  0  0  0  0  0  0  0  0  0  0  0
   40.0183   35.0797   41.7685 H   0  0  0  0  0  0  0  0  0  0  0  0
  1  6  2  0
  2  3  2  0
  2  1  1  0
  3  4  1  0
  4  5  2  0
  6  5  1  0
  7  2  1  0
  8 12  1  0
  8  7  1  0
  9  8  2  0
 10  9  1  0
 10 11  1  0
 11 12  2  0
  1 13  1  0
  3 14  1  0
  5 15  1  0
  7 16  1  0
  7 17  1  0
  9 18  1  0
 11 19  1  0
M  ISO  7  13  14  14  14  15  14  16   8  17   8  18  14  19  14
M  END
>  <minimizedAffinity>  (1) 
-3.73616719

>  <minimizedRMSD>  (1) 
0.534644961

$$$$
