
     RDKit          3D

 19 20  0  0  0  0  0  0  0  0999 V2000
   44.2410   35.7960   44.1640 C   0  0  0  0  0  0  0  0  0  0  0  0
   44.4080   34.9700   43.0390 C   0  0  0  0  0  0  0  0  0  0  0  0
   45.0620   33.7250   43.2050 C   0  0  0  0  0  0  0  0  0  0  0  0
   45.4950   33.4090   44.4750 N   0  0  0  0  0  0  0  0  0  0  0  0
   45.3120   34.2310   45.5130 C   0  0  0  0  0  0  0  0  0  0  0  0
   44.6870   35.4310   45.3830 N   0  0  0  0  0  0  0  0  0  0  0  0
   43.9120   35.3950   41.7300 C   0  0  0  0  0  0  0  0  0  0  0  0
   42.5130   35.0230   41.4930 N   0  0  0  0  0  0  0  0  0  0  0  0
   41.3300   35.6560   41.6310 C   0  0  0  0  0  0  0  0  0  0  0  0
   40.3540   34.8120   41.2580 N   0  0  0  0  0  0  0  0  0  0  0  0
   40.9090   33.6500   40.8860 C   0  0  0  0  0  0  0  0  0  0  0  0
   42.2570   33.7880   41.0340 N   0  0  0  0  0  0  0  0  0  0  0  0
   43.7335   36.7649   44.0469 H   0  0  0  0  0  0  0  0  0  0  0  0
   45.2176   33.0405   42.3581 H   0  0  0  0  0  0  0  0  0  0  0  0
   45.6790   33.9266   46.5043 H   0  0  0  0  0  0  0  0  0  0  0  0
   43.9990   36.4894   41.6617 H   0  0  0  0  0  0  0  0  0  0  0  0
   44.5195   34.8837   40.9687 H   0  0  0  0  0  0  0  0  0  0  0  0
   41.1887   36.6869   41.9879 H   0  0  0  0  0  0  0  0  0  0  0  0
   40.3778   32.7553   40.5292 H   0  0  0  0  0  0  0  0  0  0  0  0
  1  6  2  0
  2  3  2  0
  2  1  1  0
  3  4  1  0
  4  5  2  0
  6  5  1  0
  7  2  1  0
  8  9  1  0
  8  7  1  0
 10  9  2  0
 11 12  2  0
 11 10  1  0
 12  8  1  0
  1 13  1  0
  3 14  1  0
  5 15  1  0
  7 16  1  0
  7 17  1  0
  9 18  1  0
 11 19  1  0
M  ISO  7  13  14  14  14  15  14  16   8  17   8  18  14  19  14
M  END
>  <minimizedAffinity>  (1) 
-3.65310454

>  <minimizedRMSD>  (1) 
0.606351793

$$$$
