
     RDKit          3D

 36 38  0  0  1  0  0  0  0  0999 V2000
   49.0310   33.6910   42.6950 C   0  0  2  0  0  0  0  0  0  0  0  0
   47.6500   33.9480   42.4880 C   0  0  2  0  0  0  0  0  0  0  0  0
   47.6130   35.3990   41.9400 C   0  0  0  0  0  0  0  0  0  0  0  0
   48.9940   35.8100   41.5650 C   0  0  0  0  0  0  0  0  0  0  0  0
   49.7820   35.0660   42.5520 C   0  0  0  0  0  0  0  0  0  0  0  0
   49.7660   32.8210   41.7720 C   0  0  0  0  0  0  0  0  0  0  0  0
   49.0170   32.1690   40.8070 C   0  0  0  0  0  0  0  0  0  0  0  0
   49.5980   31.3040   39.8860 C   0  0  0  0  0  0  0  0  0  0  0  0
   50.9760   31.1660   40.0270 N   0  0  0  0  0  0  0  0  0  0  0  0
   51.6870   31.7990   40.9550 C   0  0  0  0  0  0  0  0  0  0  0  0
   51.0770   32.6190   41.8170 N   0  0  0  0  0  0  0  0  0  0  0  0
   46.7550   33.8580   43.6700 C   0  0  0  0  0  0  0  0  0  0  0  0
   45.9020   34.6820   43.8750 O   0  0  0  0  0  0  0  0  0  0  0  0
   46.7590   32.8390   44.6910 C   0  0  0  0  0  0  0  0  0  0  0  0
   46.8050   33.1580   46.0330 C   0  0  0  0  0  0  0  0  0  0  0  0
   46.8070   32.2070   47.0550 C   0  0  0  0  0  0  0  0  0  0  0  0
   46.7610   30.8610   46.7370 C   0  0  0  0  0  0  0  0  0  0  0  0
   46.7140   30.4950   45.4020 C   0  0  0  0  0  0  0  0  0  0  0  0
   46.7150   31.4970   44.4420 C   0  0  0  0  0  0  0  0  0  0  0  0
   46.6620   30.9640   43.1730 O   0  0  0  0  0  0  0  0  0  0  0  0
   49.0241   33.1738   43.6658 H   0  0  0  0  0  0  0  0  0  0  0  0
   47.2587   33.1640   41.8230 H   0  0  0  0  0  0  0  0  0  0  0  0
   46.9618   35.4425   41.0545 H   0  0  0  0  0  0  0  0  0  0  0  0
   47.2192   36.0778   42.7108 H   0  0  0  0  0  0  0  0  0  0  0  0
   49.2415   35.5057   40.5373 H   0  0  0  0  0  0  0  0  0  0  0  0
   49.1631   36.8969   41.5743 H   0  0  0  0  0  0  0  0  0  0  0  0
   50.8105   34.9125   42.1934 H   0  0  0  0  0  0  0  0  0  0  0  0
   49.8663   35.5997   43.5102 H   0  0  0  0  0  0  0  0  0  0  0  0
   47.9311   32.3402   40.7677 H   0  0  0  0  0  0  0  0  0  0  0  0
   49.0196   30.7754   39.1140 H   0  0  0  0  0  0  0  0  0  0  0  0
   52.7751   31.6484   41.0135 H   0  0  0  0  0  0  0  0  0  0  0  0
   46.8422   34.2211   46.3130 H   0  0  0  0  0  0  0  0  0  0  0  0
   46.8449   32.5258   48.1071 H   0  0  0  0  0  0  0  0  0  0  0  0
   46.7617   30.0971   47.5285 H   0  0  0  0  0  0  0  0  0  0  0  0
   46.6768   29.4352   45.1097 H   0  0  0  0  0  0  0  0  0  0  0  0
   46.6316   29.9822   43.0493 H   0  0  0  0  0  0  0  0  0  0  0  0
  2  1  1  0
  2 12  1  0
  3  2  1  0
  4  3  1  0
  4  5  1  0
  5  1  1  0
  6 11  1  0
  6  1  1  0
  7  6  2  0
  8  9  2  0
  8  7  1  0
  9 10  1  0
 10 11  2  0
 12 13  2  0
 12 14  1  0
 14 15  2  0
 15 16  1  0
 17 16  2  0
 18 17  1  0
 19 14  1  0
 19 18  2  0
 20 19  1  0
  1 21  1  1
  2 22  1  6
  3 23  1  0
  3 24  1  0
  4 25  1  0
  4 26  1  0
  5 27  1  0
  5 28  1  0
  7 29  1  0
  8 30  1  0
 10 31  1  0
 15 32  1  0
 16 33  1  0
 17 34  1  0
 18 35  1  0
 20 36  1  0
M  ISO  8  21  13  22  13  23  13  24  13  25  13  26  13  27  13  28  13
M  ISO  8  29  14  30  14  31  14  32  14  33  14  34  14  35  14  36   3
M  END
>  <minimizedAffinity>  (1) 
-5.23007202

>  <minimizedRMSD>  (1) 
0.295374155

$$$$
