
     RDKit          3D

 14 14  0  0  0  0  0  0  0  0999 V2000
   44.3770   35.7940   44.4720 C   0  0  0  0  0  0  0  0  0  0  0  0
   44.6570   35.0910   43.2790 C   0  0  0  0  0  0  0  0  0  0  0  0
   45.2880   33.8430   43.3690 C   0  0  0  0  0  0  0  0  0  0  0  0
   45.5970   33.3730   44.6190 N   0  0  0  0  0  0  0  0  0  0  0  0
   45.3140   34.0710   45.7230 C   0  0  0  0  0  0  0  0  0  0  0  0
   44.7050   35.2860   45.6910 N   0  0  0  0  0  0  0  0  0  0  0  0
   44.2820   35.6890   41.9990 C   0  0  0  0  0  0  0  0  0  0  0  0
   42.6240   35.1860   41.4880 S   0  0  0  0  0  0  0  0  0  0  0  0
   43.8824   36.7748   44.4141 H   0  0  0  0  0  0  0  0  0  0  0  0
   45.5272   33.2603   42.4672 H   0  0  0  0  0  0  0  0  0  0  0  0
   45.5856   33.6440   46.6997 H   0  0  0  0  0  0  0  0  0  0  0  0
   44.3084   36.7844   42.0957 H   0  0  0  0  0  0  0  0  0  0  0  0
   44.9958   35.3437   41.2365 H   0  0  0  0  0  0  0  0  0  0  0  0
   41.8552   34.9528   42.5977 H   0  0  0  0  0  0  0  0  0  0  0  0
  1  6  2  0
  2  3  2  0
  2  1  1  0
  3  4  1  0
  4  5  2  0
  6  5  1  0
  7  2  1  0
  8  7  1  0
  1  9  1  0
  3 10  1  0
  5 11  1  0
  7 12  1  0
  7 13  1  0
  8 14  1  0
M  ISO  6   9  14  10  14  11  14  12   8  13   8  14  11
M  END
>  <minimizedAffinity>  (1) 
-2.80045485

>  <minimizedRMSD>  (1) 
0.0238779299

$$$$
