
     RDKit          3D

 48 51  0  0  1  0  0  0  0  0999 V2000
   49.0600   33.6370   42.5660 C   0  0  2  0  0  0  0  0  0  0  0  0
   47.6870   33.9270   42.3360 C   0  0  2  0  0  0  0  0  0  0  0  0
   47.7050   35.4250   41.9140 C   0  0  0  0  0  0  0  0  0  0  0  0
   49.1040   35.8310   41.5960 C   0  0  0  0  0  0  0  0  0  0  0  0
   49.8500   34.9980   42.5430 C   0  0  0  0  0  0  0  0  0  0  0  0
   49.7950   32.8210   41.6050 C   0  0  0  0  0  0  0  0  0  0  0  0
   49.0650   32.2740   40.5700 C   0  0  0  0  0  0  0  0  0  0  0  0
   49.6420   31.4560   39.6120 C   0  0  0  0  0  0  0  0  0  0  0  0
   51.0080   31.2390   39.7780 N   0  0  0  0  0  0  0  0  0  0  0  0
   51.7070   31.7730   40.7740 C   0  0  0  0  0  0  0  0  0  0  0  0
   51.0950   32.5480   41.6640 N   0  0  0  0  0  0  0  0  0  0  0  0
   46.7540   33.7540   43.4790 C   0  0  0  0  0  0  0  0  0  0  0  0
   46.2080   34.7120   43.9740 O   0  0  0  0  0  0  0  0  0  0  0  0
   46.3710   32.5410   44.1380 C   0  0  0  0  0  0  0  0  0  0  0  0
   46.8050   32.2510   45.4380 C   0  0  0  0  0  0  0  0  0  0  0  0
   46.4730   31.0730   46.1120 C   0  0  0  0  0  0  0  0  0  0  0  0
   45.6790   30.1300   45.4820 C   0  0  0  0  0  0  0  0  0  0  0  0
   45.2350   30.3920   44.1950 C   0  0  0  0  0  0  0  0  0  0  0  0
   45.5900   31.5870   43.5630 C   0  0  0  0  0  0  0  0  0  0  0  0
   43.6480   31.4450   39.7900 C   0  0  0  0  0  0  0  0  0  0  0  0
   42.9270   31.8730   40.9020 C   0  0  0  0  0  0  0  0  0  0  0  0
   43.4960   31.9050   42.1670 C   0  0  0  0  0  0  0  0  0  0  0  0
   44.8120   31.5050   42.3390 C   0  0  0  0  0  0  0  0  0  0  0  0
   45.4860   31.0830   41.1850 C   0  0  0  0  0  0  0  0  0  0  0  0
   44.9590   31.0360   39.9090 C   0  0  0  0  0  0  0  0  0  0  0  0
   42.9200   31.4120   38.2010 S   0  0  0  0  0  0  0  0  0  0  0  0
   41.8400   32.4140   38.0170 O   0  0  0  0  0  0  0  0  0  0  0  0
   44.0090   31.7270   37.2060 O   0  0  0  0  0  0  0  0  0  0  0  0
   49.0150   33.0644   43.5042 H   0  0  0  0  0  0  0  0  0  0  0  0
   47.2971   33.2098   41.5987 H   0  0  0  0  0  0  0  0  0  0  0  0
   47.0712   35.5641   41.0258 H   0  0  0  0  0  0  0  0  0  0  0  0
   47.3199   36.0443   42.7375 H   0  0  0  0  0  0  0  0  0  0  0  0
   49.3675   35.5958   40.5542 H   0  0  0  0  0  0  0  0  0  0  0  0
   49.2980   36.9100   41.6855 H   0  0  0  0  0  0  0  0  0  0  0  0
   50.8828   34.8437   42.1973 H   0  0  0  0  0  0  0  0  0  0  0  0
   49.9260   35.4578   43.5394 H   0  0  0  0  0  0  0  0  0  0  0  0
   47.9894   32.4945   40.5031 H   0  0  0  0  0  0  0  0  0  0  0  0
   49.0669   31.0129   38.7856 H   0  0  0  0  0  0  0  0  0  0  0  0
   52.7855   31.5750   40.8615 H   0  0  0  0  0  0  0  0  0  0  0  0
   47.4387   32.9874   45.9539 H   0  0  0  0  0  0  0  0  0  0  0  0
   46.8392   30.8964   47.1341 H   0  0  0  0  0  0  0  0  0  0  0  0
   45.4065   29.1938   45.9912 H   0  0  0  0  0  0  0  0  0  0  0  0
   44.6033   29.6594   43.6713 H   0  0  0  0  0  0  0  0  0  0  0  0
   41.8823   32.1931   40.7744 H   0  0  0  0  0  0  0  0  0  0  0  0
   42.9053   32.2464   43.0298 H   0  0  0  0  0  0  0  0  0  0  0  0
   46.5303   30.7596   41.3065 H   0  0  0  0  0  0  0  0  0  0  0  0
   45.5471   30.6945   39.0444 H   0  0  0  0  0  0  0  0  0  0  0  0
   42.3568   30.1750   38.0292 H   0  0  0  0  0  0  0  0  0  0  0  0
  2  1  1  0
  2 12  1  0
  3  2  1  0
  4  3  1  0
  4  5  1  0
  5  1  1  0
  6 11  1  0
  6  1  1  0
  7  6  2  0
  8  9  2  0
  8  7  1  0
  9 10  1  0
 10 11  2  0
 12 13  2  0
 12 14  1  0
 14 15  2  0
 15 16  1  0
 17 16  2  0
 18 17  1  0
 19 14  1  0
 19 18  2  0
 20 25  2  0
 20 21  1  0
 21 22  2  0
 22 23  1  0
 23 19  1  0
 24 23  2  0
 25 24  1  0
 26 20  1  0
 27 26  2  0
 28 26  2  0
  1 29  1  1
  2 30  1  6
  3 31  1  0
  3 32  1  0
  4 33  1  0
  4 34  1  0
  5 35  1  0
  5 36  1  0
  7 37  1  0
  8 38  1  0
 10 39  1  0
 15 40  1  0
 16 41  1  0
 17 42  1  0
 18 43  1  0
 21 44  1  0
 22 45  1  0
 24 46  1  0
 25 47  1  0
 26 48  1  0
M  ISO  8  29  13  30  13  31  13  32  13  33  13  34  13  35  13  36  13
M  ISO  8  37  14  38  14  39  14  40  14  41  14  42  14  43  14  44  14
M  ISO  4  45  14  46  14  47  14  48  11
M  END
>  <minimizedAffinity>  (1) 
-5.21839046

>  <minimizedRMSD>  (1) 
3.268435

$$$$
