
     RDKit          3D

 26 27  0  0  0  0  0  0  0  0999 V2000
   42.0010   33.7210   40.6300 C   0  0  0  0  0  0  0  0  0  0  0  0
   42.2440   32.4950   41.2460 C   0  0  0  0  0  0  0  0  0  0  0  0
   41.2920   31.7370   41.8870 C   0  0  0  0  0  0  0  0  0  0  0  0
   40.0090   32.2330   41.9200 C   0  0  0  0  0  0  0  0  0  0  0  0
   39.7090   33.4350   41.3300 C   0  0  0  0  0  0  0  0  0  0  0  0
   40.6980   34.1770   40.6860 C   0  0  0  0  0  0  0  0  0  0  0  0
   40.1960   35.4250   40.0590 C   0  0  0  0  0  0  0  0  0  0  0  0
   38.7920   35.3590   39.9250 F   0  0  0  0  0  0  0  0  0  0  0  0
   40.8350   35.8800   38.9740 F   0  0  0  0  0  0  0  0  0  0  0  0
   40.3060   36.5010   40.9900 F   0  0  0  0  0  0  0  0  0  0  0  0
   43.0630   34.4970   39.9680 C   0  0  0  0  0  0  0  0  0  0  0  0
   43.8490   35.6090   41.9880 C   0  0  0  0  0  0  0  0  0  0  0  0
   44.1150   34.7650   40.9300 C   0  0  0  0  0  0  0  0  0  0  0  0
   45.4080   34.2130   40.8580 C   0  0  0  0  0  0  0  0  0  0  0  0
   46.2910   34.5670   41.8540 N   0  0  0  0  0  0  0  0  0  0  0  0
   45.9750   35.3850   42.8490 C   0  0  0  0  0  0  0  0  0  0  0  0
   44.7230   35.9500   42.9600 N   0  0  0  0  0  0  0  0  0  0  0  0
   43.2721   32.1050   41.2176 H   0  0  0  0  0  0  0  0  0  0  0  0
   41.5459   30.7740   42.3540 H   0  0  0  0  0  0  0  0  0  0  0  0
   39.2164   31.6606   42.4241 H   0  0  0  0  0  0  0  0  0  0  0  0
   38.6780   33.8168   41.3655 H   0  0  0  0  0  0  0  0  0  0  0  0
   43.4712   33.9205   39.1248 H   0  0  0  0  0  0  0  0  0  0  0  0
   42.6526   35.4447   39.5892 H   0  0  0  0  0  0  0  0  0  0  0  0
   42.8391   36.0413   42.0452 H   0  0  0  0  0  0  0  0  0  0  0  0
   45.6992   33.5315   40.0451 H   0  0  0  0  0  0  0  0  0  0  0  0
   46.7353   35.6195   43.6086 H   0  0  0  0  0  0  0  0  0  0  0  0
  1  6  1  0
  1  2  2  0
  2  3  1  0
  3  4  2  0
  5  4  1  0
  6  5  2  0
  7  6  1  0
  7 10  1  0
  8  7  1  0
  9  7  1  0
 11  1  1  0
 11 13  1  0
 12 17  2  0
 13 12  1  0
 14 13  2  0
 14 15  1  0
 15 16  2  0
 16 17  1  0
  2 18  1  0
  3 19  1  0
  4 20  1  0
  5 21  1  0
 11 22  1  0
 11 23  1  0
 12 24  1  0
 14 25  1  0
 16 26  1  0
M  ISO  8  18  14  19  14  20  14  21  14  22   8  23   8  24  14  25  14
M  ISO  1  26  14
M  END
>  <minimizedAffinity>  (1) 
-5.18097019

>  <minimizedRMSD>  (1) 
2.26622295

$$$$
