
     RDKit          3D

 26 27  0  0  0  0  0  0  0  0999 V2000
   42.0080   33.5130   40.8470 C   0  0  0  0  0  0  0  0  0  0  0  0
   42.4030   32.2950   41.3410 C   0  0  0  0  0  0  0  0  0  0  0  0
   41.5560   31.4280   42.0100 C   0  0  0  0  0  0  0  0  0  0  0  0
   40.2350   31.8010   42.1990 C   0  0  0  0  0  0  0  0  0  0  0  0
   39.7670   33.0100   41.7300 C   0  0  0  0  0  0  0  0  0  0  0  0
   40.6900   33.7900   41.0810 C   0  0  0  0  0  0  0  0  0  0  0  0
   42.9350   34.3940   40.1500 C   0  0  0  0  0  0  0  0  0  0  0  0
   43.7870   35.5340   42.1810 C   0  0  0  0  0  0  0  0  0  0  0  0
   44.0300   34.7380   41.0720 C   0  0  0  0  0  0  0  0  0  0  0  0
   45.3650   34.2680   40.8580 C   0  0  0  0  0  0  0  0  0  0  0  0
   46.2950   34.6480   41.7750 N   0  0  0  0  0  0  0  0  0  0  0  0
   45.9970   35.4130   42.8200 C   0  0  0  0  0  0  0  0  0  0  0  0
   44.7380   35.8870   43.0660 N   0  0  0  0  0  0  0  0  0  0  0  0
   40.1020   35.0400   40.6120 C   0  0  0  0  0  0  0  0  0  0  0  0
   39.1900   35.1950   39.7620 O   0  0  0  0  0  0  0  0  0  0  0  0
   40.2450   36.3720   40.8380 O   0  0  0  0  0  0  0  0  0  0  0  0
   43.4503   31.9909   41.1975 H   0  0  0  0  0  0  0  0  0  0  0  0
   41.9247   30.4616   42.3843 H   0  0  0  0  0  0  0  0  0  0  0  0
   39.5505   31.1234   42.7304 H   0  0  0  0  0  0  0  0  0  0  0  0
   38.7229   33.3280   41.8671 H   0  0  0  0  0  0  0  0  0  0  0  0
   43.3411   33.8814   39.2655 H   0  0  0  0  0  0  0  0  0  0  0  0
   42.4156   35.3066   39.8222 H   0  0  0  0  0  0  0  0  0  0  0  0
   42.7618   35.8966   42.3466 H   0  0  0  0  0  0  0  0  0  0  0  0
   45.6249   33.6334   39.9979 H   0  0  0  0  0  0  0  0  0  0  0  0
   46.8021   35.6778   43.5212 H   0  0  0  0  0  0  0  0  0  0  0  0
   39.6792   37.0206   40.3488 H   0  0  0  0  0  0  0  0  0  0  0  0
  1  6  1  0
  1  2  2  0
  2  3  1  0
  3  4  2  0
  5  4  1  0
  6  5  2  0
  7  1  1  0
  7  9  1  0
  8 13  2  0
  9  8  1  0
 10  9  2  0
 10 11  1  0
 11 12  2  0
 12 13  1  0
 14 16  1  0
 14  6  1  0
 15 14  2  0
  2 17  1  0
  3 18  1  0
  4 19  1  0
  5 20  1  0
  7 21  1  0
  7 22  1  0
  8 23  1  0
 10 24  1  0
 12 25  1  0
 16 26  1  0
M  ISO  8  17  14  18  14  19  14  20  14  21   8  22   8  23  14  24  14
M  ISO  2  25  14  26   3
M  END
>  <minimizedAffinity>  (1) 
-4.52097988

>  <minimizedRMSD>  (1) 
2.45706272

$$$$
