
     RDKit          3D

 30 32  0  0  0  0  0  0  0  0999 V2000
   42.2840   32.9560   41.2780 C   0  0  0  0  0  0  0  0  0  0  0  0
   42.1130   31.7320   41.9150 C   0  0  0  0  0  0  0  0  0  0  0  0
   40.8800   31.1740   42.1630 C   0  0  0  0  0  0  0  0  0  0  0  0
   39.7510   31.8680   41.7590 C   0  0  0  0  0  0  0  0  0  0  0  0
   39.8550   33.0860   41.1230 C   0  0  0  0  0  0  0  0  0  0  0  0
   41.1310   33.5920   40.9030 C   0  0  0  0  0  0  0  0  0  0  0  0
   43.6240   33.5200   41.0270 C   0  0  0  0  0  0  0  0  0  0  0  0
   43.9610   35.3160   42.6710 C   0  0  0  0  0  0  0  0  0  0  0  0
   44.1650   34.0010   42.2890 C   0  0  0  0  0  0  0  0  0  0  0  0
   44.9070   33.1560   43.1670 C   0  0  0  0  0  0  0  0  0  0  0  0
   45.3620   33.7250   44.3330 N   0  0  0  0  0  0  0  0  0  0  0  0
   45.1260   35.0030   44.6340 C   0  0  0  0  0  0  0  0  0  0  0  0
   44.4170   35.8470   43.8130 N   0  0  0  0  0  0  0  0  0  0  0  0
   41.1840   34.9250   40.2020 C   0  0  0  0  0  0  0  0  0  0  0  0
   39.9570   35.6790   39.9030 C   0  0  0  0  0  0  0  0  0  0  0  0
   40.7370   36.1170   41.0740 C   0  0  0  0  0  0  0  0  0  0  0  0
   43.0093   31.1816   42.2372 H   0  0  0  0  0  0  0  0  0  0  0  0
   40.7928   30.2013   42.6693 H   0  0  0  0  0  0  0  0  0  0  0  0
   38.7557   31.4399   41.9490 H   0  0  0  0  0  0  0  0  0  0  0  0
   38.9600   33.6384   40.8008 H   0  0  0  0  0  0  0  0  0  0  0  0
   44.2826   32.7422   40.6131 H   0  0  0  0  0  0  0  0  0  0  0  0
   43.5560   34.3477   40.3056 H   0  0  0  0  0  0  0  0  0  0  0  0
   43.3879   35.9661   41.9935 H   0  0  0  0  0  0  0  0  0  0  0  0
   45.1052   32.1018   42.9232 H   0  0  0  0  0  0  0  0  0  0  0  0
   45.5167   35.3995   45.5827 H   0  0  0  0  0  0  0  0  0  0  0  0
   42.0460   34.6271   39.5870 H   0  0  0  0  0  0  0  0  0  0  0  0
   39.9193   36.3180   39.0084 H   0  0  0  0  0  0  0  0  0  0  0  0
   38.9058   35.3899   39.7569 H   0  0  0  0  0  0  0  0  0  0  0  0
   40.3535   35.9472   42.0909 H   0  0  0  0  0  0  0  0  0  0  0  0
   41.1908   37.0611   41.4098 H   0  0  0  0  0  0  0  0  0  0  0  0
  1  2  2  0
  2  3  1  0
  4  3  2  0
  5  4  1  0
  6  5  2  0
  6  1  1  0
  7  1  1  0
  7  9  1  0
  8 13  2  0
  9  8  1  0
  9 10  2  0
 10 11  1  0
 11 12  2  0
 13 12  1  0
 14  6  1  0
 14 16  1  0
 15 14  1  0
 15 16  1  0
  2 17  1  0
  3 18  1  0
  4 19  1  0
  5 20  1  0
  7 21  1  0
  7 22  1  0
  8 23  1  0
 10 24  1  0
 12 25  1  0
 14 26  1  0
 15 27  1  0
 15 28  1  0
 16 29  1  0
 16 30  1  0
M  ISO  8  17  14  18  14  19  14  20  14  21   8  22   8  23  14  24  14
M  ISO  6  25  14  26  13  27  13  28  13  29  13  30  13
M  END
>  <minimizedAffinity>  (1) 
-4.36693478

>  <minimizedRMSD>  (1) 
2.02946448

$$$$
