
     RDKit          3D

 39 41  0  0  1  0  0  0  0  0999 V2000
   46.8280   31.1210   48.4280 C   0  0  2  0  0  0  0  0  0  0  0  0
   44.5530   27.8190   47.0000 C   0  0  0  0  0  0  0  0  0  0  0  0
   44.2880   27.2380   45.7580 C   0  0  0  0  0  0  0  0  0  0  0  0
   44.5870   27.9670   44.5850 C   0  0  0  0  0  0  0  0  0  0  0  0
   45.1160   29.1970   44.7470 N   0  0  0  0  0  0  0  0  0  0  0  0
   45.3680   29.7500   45.9700 C   0  0  0  0  0  0  0  0  0  0  0  0
   45.0820   29.0530   47.0560 N   0  0  0  0  0  0  0  0  0  0  0  0
   45.9240   31.0440   46.1120 N   0  0  0  0  0  0  0  0  0  0  0  0
   45.8350   31.8610   45.0260 C   0  0  0  0  0  0  0  0  0  0  0  0
   46.4390   33.0530   45.4240 C   0  0  0  0  0  0  0  0  0  0  0  0
   46.8650   32.9250   46.7100 N   0  0  0  0  0  0  0  0  0  0  0  0
   46.5470   31.6990   47.1170 C   0  0  0  0  0  0  0  0  0  0  0  0
   45.9220   31.8460   49.4400 C   0  0  0  0  0  0  0  0  0  0  0  0
   48.2520   31.4180   48.8310 C   0  0  0  0  0  0  0  0  0  0  0  0
   48.9810   30.2780   49.2950 N   0  0  0  0  0  0  0  0  0  0  0  0
   49.6130   30.3820   50.4860 C   0  0  0  0  0  0  0  0  0  0  0  0
   50.3310   29.3290   50.9950 C   0  0  0  0  0  0  0  0  0  0  0  0
   51.0270   29.4420   52.3030 C   0  0  0  0  0  0  0  0  0  0  0  0
   50.4110   28.1400   50.2780 C   0  0  0  0  0  0  0  0  0  0  0  0
   51.0780   27.1880   50.7700 O   0  0  0  0  0  0  0  0  0  0  0  0
   49.7730   28.0360   49.0760 N   0  0  0  0  0  0  0  0  0  0  0  0
   49.0910   29.1120   48.6480 C   0  0  0  0  0  0  0  0  0  0  0  0
   48.5110   28.9960   47.5410 O   0  0  0  0  0  0  0  0  0  0  0  0
   46.6619   30.0339   48.4011 H   0  0  0  0  0  0  0  0  0  0  0  0
   44.3301   27.2699   47.9267 H   0  0  0  0  0  0  0  0  0  0  0  0
   43.8536   26.2294   45.6939 H   0  0  0  0  0  0  0  0  0  0  0  0
   44.3969   27.5501   43.5850 H   0  0  0  0  0  0  0  0  0  0  0  0
   45.3852   31.6309   44.0489 H   0  0  0  0  0  0  0  0  0  0  0  0
   46.5527   33.9514   44.7995 H   0  0  0  0  0  0  0  0  0  0  0  0
   46.2385   31.5928   50.4626 H   0  0  0  0  0  0  0  0  0  0  0  0
   46.0013   32.9329   49.2902 H   0  0  0  0  0  0  0  0  0  0  0  0
   44.8790   31.5303   49.2902 H   0  0  0  0  0  0  0  0  0  0  0  0
   48.7782   31.8318   47.9581 H   0  0  0  0  0  0  0  0  0  0  0  0
   48.2011   32.1242   49.6729 H   0  0  0  0  0  0  0  0  0  0  0  0
   49.5508   31.3221   51.0538 H   0  0  0  0  0  0  0  0  0  0  0  0
   50.2976   29.3236   53.1179 H   0  0  0  0  0  0  0  0  0  0  0  0
   51.7932   28.6565   52.3797 H   0  0  0  0  0  0  0  0  0  0  0  0
   51.5054   30.4296   52.3797 H   0  0  0  0  0  0  0  0  0  0  0  0
   49.8125   27.1696   48.5204 H   0  0  0  0  0  0  0  0  0  0  0  0
  1 14  1  0
  1 13  1  0
  2  7  2  0
  3  2  1  0
  4  5  1  0
  4  3  2  0
  5  6  2  0
  6  8  1  0
  6  7  1  0
  8 12  1  0
  9 10  2  0
  9  8  1  0
 10 11  1  0
 11 12  2  0
 12  1  1  0
 14 15  1  0
 15 16  1  0
 16 17  2  0
 17 18  1  0
 19 20  2  0
 19 17  1  0
 21 19  1  0
 22 21  1  0
 22 15  1  0
 23 22  2  0
  1 24  1  6
  2 25  1  0
  3 26  1  0
  4 27  1  0
  9 28  1  0
 10 29  1  0
 13 30  1  0
 13 31  1  0
 13 32  1  0
 14 33  1  0
 14 34  1  0
 16 35  1  0
 18 36  1  0
 18 37  1  0
 18 38  1  0
 21 39  1  0
M  ISO  8  24   8  25  14  26  14  27  14  28  14  29  14  30   8  31   8
M  ISO  8  32   8  33   8  34   8  35  14  36   8  37   8  38   8  39   9
M  END
>  <minimizedAffinity>  (1) 
-4.80448914

>  <minimizedRMSD>  (1) 
5.93226194

$$$$
