
     RDKit          3D

 25 26  0  0  0  0  0  0  0  0999 V2000
   41.9790   33.7960   40.5800 C   0  0  0  0  0  0  0  0  0  0  0  0
   42.1840   32.5480   41.1560 C   0  0  0  0  0  0  0  0  0  0  0  0
   41.1840   31.8200   41.8040 C   0  0  0  0  0  0  0  0  0  0  0  0
   39.9020   32.3980   41.8680 C   0  0  0  0  0  0  0  0  0  0  0  0
   39.6370   33.6350   41.3150 C   0  0  0  0  0  0  0  0  0  0  0  0
   40.6890   34.2620   40.7040 C   0  0  0  0  0  0  0  0  0  0  0  0
   43.0910   34.4730   39.9260 C   0  0  0  0  0  0  0  0  0  0  0  0
   43.8340   35.6420   41.9980 C   0  0  0  0  0  0  0  0  0  0  0  0
   44.1060   34.7850   40.9400 C   0  0  0  0  0  0  0  0  0  0  0  0
   45.4010   34.1990   40.8420 C   0  0  0  0  0  0  0  0  0  0  0  0
   46.3040   34.5290   41.8170 N   0  0  0  0  0  0  0  0  0  0  0  0
   45.9750   35.3640   42.8110 C   0  0  0  0  0  0  0  0  0  0  0  0
   44.7560   35.9380   42.9360 N   0  0  0  0  0  0  0  0  0  0  0  0
   40.3890   35.5680   40.1270 C   0  0  0  0  0  0  0  0  0  0  0  0
   40.1590   36.6030   40.7620 O   0  0  0  0  0  0  0  0  0  0  0  0
   43.1909   32.1088   41.0982 H   0  0  0  0  0  0  0  0  0  0  0  0
   41.3898   30.8343   42.2467 H   0  0  0  0  0  0  0  0  0  0  0  0
   39.0913   31.8505   42.3711 H   0  0  0  0  0  0  0  0  0  0  0  0
   38.6370   34.0908   41.3628 H   0  0  0  0  0  0  0  0  0  0  0  0
   43.5242   33.8171   39.1565 H   0  0  0  0  0  0  0  0  0  0  0  0
   42.7399   35.3984   39.4461 H   0  0  0  0  0  0  0  0  0  0  0  0
   42.8340   36.0940   42.0733 H   0  0  0  0  0  0  0  0  0  0  0  0
   45.6629   33.5141   40.0221 H   0  0  0  0  0  0  0  0  0  0  0  0
   46.7384   35.5962   43.5682 H   0  0  0  0  0  0  0  0  0  0  0  0
   40.3654   35.6376   39.0295 H   0  0  0  0  0  0  0  0  0  0  0  0
  1  6  1  0
  1  2  2  0
  2  3  1  0
  3  4  2  0
  5  4  1  0
  6  5  2  0
  7  1  1  0
  7  9  1  0
  8 13  2  0
  9  8  1  0
 10  9  2  0
 10 11  1  0
 11 12  2  0
 12 13  1  0
 14  6  1  0
 14 15  2  0
  2 16  1  0
  3 17  1  0
  4 18  1  0
  5 19  1  0
  7 20  1  0
  7 21  1  0
  8 22  1  0
 10 23  1  0
 12 24  1  0
 14 25  1  0
M  ISO  8  16  14  17  14  18  14  19  14  20   8  21   8  22  14  23  14
M  ISO  2  24  14  25   6
M  END
>  <minimizedAffinity>  (1) 
-4.28021908

>  <minimizedRMSD>  (1) 
2.10630059

$$$$
