
     RDKit          3D

 24 25  0  0  0  0  0  0  0  0999 V2000
   43.2750   34.2430   40.9160 C   0  0  0  0  0  0  0  0  0  0  0  0
   42.0030   33.5640   41.1320 C   0  0  0  0  0  0  0  0  0  0  0  0
   41.9280   32.2010   41.3650 C   0  0  0  0  0  0  0  0  0  0  0  0
   40.7530   31.5150   41.5730 C   0  0  0  0  0  0  0  0  0  0  0  0
   39.5540   32.2420   41.5480 C   0  0  0  0  0  0  0  0  0  0  0  0
   39.5460   33.6020   41.3230 C   0  0  0  0  0  0  0  0  0  0  0  0
   40.7860   34.1910   41.1250 C   0  0  0  0  0  0  0  0  0  0  0  0
   40.7210   35.9740   40.8330 S   0  0  0  0  0  0  0  0  0  0  0  0
   43.8890   35.5600   42.9130 C   0  0  0  0  0  0  0  0  0  0  0  0
   43.9630   34.3620   42.2140 C   0  0  0  0  0  0  0  0  0  0  0  0
   44.6960   33.2910   42.7650 C   0  0  0  0  0  0  0  0  0  0  0  0
   45.2980   33.5040   43.9740 N   0  0  0  0  0  0  0  0  0  0  0  0
   45.1910   34.6890   44.6070 C   0  0  0  0  0  0  0  0  0  0  0  0
   44.4930   35.7320   44.0990 N   0  0  0  0  0  0  0  0  0  0  0  0
   43.8944   33.6594   40.2190 H   0  0  0  0  0  0  0  0  0  0  0  0
   43.1035   35.2406   40.4854 H   0  0  0  0  0  0  0  0  0  0  0  0
   42.8679   31.6298   41.3851 H   0  0  0  0  0  0  0  0  0  0  0  0
   40.7544   30.4299   41.7533 H   0  0  0  0  0  0  0  0  0  0  0  0
   38.6014   31.7168   41.7111 H   0  0  0  0  0  0  0  0  0  0  0  0
   38.6132   34.1845   41.3018 H   0  0  0  0  0  0  0  0  0  0  0  0
   40.6970   36.6328   42.0339 H   0  0  0  0  0  0  0  0  0  0  0  0
   43.3171   36.3943   42.4807 H   0  0  0  0  0  0  0  0  0  0  0  0
   44.7799   32.3255   42.2446 H   0  0  0  0  0  0  0  0  0  0  0  0
   45.6923   34.8142   45.5781 H   0  0  0  0  0  0  0  0  0  0  0  0
  1  2  1  0
  1 10  1  0
  2  3  2  0
  3  4  1  0
  5  4  2  0
  6  5  1  0
  7  2  1  0
  7  6  2  0
  8  7  1  0
  9 14  2  0
 10 11  2  0
 10  9  1  0
 11 12  1  0
 12 13  2  0
 14 13  1  0
  1 15  1  0
  1 16  1  0
  3 17  1  0
  4 18  1  0
  5 19  1  0
  6 20  1  0
  8 21  1  0
  9 22  1  0
 11 23  1  0
 13 24  1  0
M  ISO  8  15   8  16   8  17  14  18  14  19  14  20  14  21  11  22  14
M  ISO  2  23  14  24  14
M  END
>  <minimizedAffinity>  (1) 
-3.8204937

>  <minimizedRMSD>  (1) 
1.40024781

$$$$
