
     RDKit          3D

 47 49  0  0  1  0  0  0  0  0999 V2000
   49.0020   33.5580   42.5220 C   0  0  2  0  0  0  0  0  0  0  0  0
   47.6320   33.8130   42.2070 C   0  0  2  0  0  0  0  0  0  0  0  0
   47.6640   35.3570   41.9250 C   0  0  0  0  0  0  0  0  0  0  0  0
   49.0300   35.7790   41.6010 C   0  0  0  0  0  0  0  0  0  0  0  0
   49.7460   34.9430   42.5840 C   0  0  0  0  0  0  0  0  0  0  0  0
   49.8250   32.8050   41.5940 C   0  0  0  0  0  0  0  0  0  0  0  0
   49.1880   32.2980   40.4800 C   0  0  0  0  0  0  0  0  0  0  0  0
   49.8510   31.5200   39.5430 C   0  0  0  0  0  0  0  0  0  0  0  0
   51.2010   31.3090   39.8190 N   0  0  0  0  0  0  0  0  0  0  0  0
   51.8130   31.8050   40.8870 C   0  0  0  0  0  0  0  0  0  0  0  0
   51.1100   32.5350   41.7440 N   0  0  0  0  0  0  0  0  0  0  0  0
   46.6460   33.5600   43.2870 C   0  0  0  0  0  0  0  0  0  0  0  0
   45.5820   34.1080   43.2530 O   0  0  0  0  0  0  0  0  0  0  0  0
   46.7540   32.7310   44.4460 C   0  0  0  0  0  0  0  0  0  0  0  0
   46.6620   33.3150   45.7470 C   0  0  0  0  0  0  0  0  0  0  0  0
   46.8810   32.5900   46.9390 C   0  0  0  0  0  0  0  0  0  0  0  0
   47.2020   31.2400   46.7710 C   0  0  0  0  0  0  0  0  0  0  0  0
   47.2810   30.6690   45.5240 C   0  0  0  0  0  0  0  0  0  0  0  0
   47.0560   31.3970   44.4240 C   0  0  0  0  0  0  0  0  0  0  0  0
   47.2210   30.4120   43.3010 C   0  0  0  0  0  0  0  0  0  0  0  0
   46.2430   30.4060   42.2380 C   0  0  0  0  0  0  0  0  0  0  0  0
   48.5940   29.9050   43.3120 C   0  0  0  0  0  0  0  0  0  0  0  0
   46.5600   28.9950   43.9070 C   0  0  0  0  0  0  0  0  0  0  0  0
   48.9115   32.9555   43.4379 H   0  0  0  0  0  0  0  0  0  0  0  0
   47.3006   33.1452   41.3982 H   0  0  0  0  0  0  0  0  0  0  0  0
   47.0012   35.5864   41.0776 H   0  0  0  0  0  0  0  0  0  0  0  0
   47.3228   35.8951   42.8217 H   0  0  0  0  0  0  0  0  0  0  0  0
   49.3069   35.5327   40.5653 H   0  0  0  0  0  0  0  0  0  0  0  0
   49.2254   36.8601   41.6556 H   0  0  0  0  0  0  0  0  0  0  0  0
   49.6769   35.3789   43.5916 H   0  0  0  0  0  0  0  0  0  0  0  0
   50.8200   34.8562   42.3626 H   0  0  0  0  0  0  0  0  0  0  0  0
   48.1206   32.5179   40.3305 H   0  0  0  0  0  0  0  0  0  0  0  0
   49.3527   31.1037   38.6551 H   0  0  0  0  0  0  0  0  0  0  0  0
   52.8827   31.6147   41.0587 H   0  0  0  0  0  0  0  0  0  0  0  0
   46.4079   34.3825   45.8238 H   0  0  0  0  0  0  0  0  0  0  0  0
   46.8042   33.0561   47.9324 H   0  0  0  0  0  0  0  0  0  0  0  0
   47.3960   30.6199   47.6586 H   0  0  0  0  0  0  0  0  0  0  0  0
   47.5318   29.6022   45.4288 H   0  0  0  0  0  0  0  0  0  0  0  0
   45.2316   30.3998   42.6704 H   0  0  0  0  0  0  0  0  0  0  0  0
   46.3708   31.3049   41.6171 H   0  0  0  0  0  0  0  0  0  0  0  0
   46.3818   29.5087   41.6171 H   0  0  0  0  0  0  0  0  0  0  0  0
   48.9306   29.7807   44.3518 H   0  0  0  0  0  0  0  0  0  0  0  0
   48.6305   28.9341   42.7962 H   0  0  0  0  0  0  0  0  0  0  0  0
   49.2527   30.6192   42.7962 H   0  0  0  0  0  0  0  0  0  0  0  0
   46.5739   29.0248   45.0065 H   0  0  0  0  0  0  0  0  0  0  0  0
   45.5223   28.8950   43.5560 H   0  0  0  0  0  0  0  0  0  0  0  0
   47.1502   28.1357   43.5560 H   0  0  0  0  0  0  0  0  0  0  0  0
  1  5  1  0
  2  1  1  0
  2 12  1  0
  3  2  1  0
  4  3  1  0
  4  5  1  0
  6 11  1  0
  6  1  1  0
  7  6  2  0
  8  9  2  0
  8  7  1  0
  9 10  1  0
 10 11  2  0
 12 14  1  0
 13 12  2  0
 14 15  2  0
 15 16  1  0
 17 16  2  0
 18 17  1  0
 19 14  1  0
 19 18  2  0
 20 22  1  0
 20 23  1  0
 20 19  1  0
 21 20  1  0
  1 24  1  1
  2 25  1  6
  3 26  1  0
  3 27  1  0
  4 28  1  0
  4 29  1  0
  5 30  1  0
  5 31  1  0
  7 32  1  0
  8 33  1  0
 10 34  1  0
 15 35  1  0
 16 36  1  0
 17 37  1  0
 18 38  1  0
 21 39  1  0
 21 40  1  0
 21 41  1  0
 22 42  1  0
 22 43  1  0
 22 44  1  0
 23 45  1  0
 23 46  1  0
 23 47  1  0
M  ISO  8  24  13  25  13  26  13  27  13  28  13  29  13  30  13  31  13
M  ISO  8  32  14  33  14  34  14  35  14  36  14  37  14  38  14  39   8
M  ISO  8  40   8  41   8  42   8  43   8  44   8  45   8  46   8  47   8
M  END
>  <minimizedAffinity>  (1) 
-5.15230942

>  <minimizedRMSD>  (1) 
0.362859368

$$$$
