
     RDKit          3D

 40 42  0  0  0  0  0  0  0  0999 V2000
   42.0890   33.3640   40.9960 C   0  0  0  0  0  0  0  0  0  0  0  0
   42.4870   32.1150   41.4260 C   0  0  0  0  0  0  0  0  0  0  0  0
   41.7250   31.2310   42.1470 C   0  0  0  0  0  0  0  0  0  0  0  0
   40.4340   31.6440   42.4700 C   0  0  0  0  0  0  0  0  0  0  0  0
   39.9600   32.8680   42.0830 C   0  0  0  0  0  0  0  0  0  0  0  0
   40.8070   33.7120   41.3450 C   0  0  0  0  0  0  0  0  0  0  0  0
   42.9760   34.2260   40.2320 C   0  0  0  0  0  0  0  0  0  0  0  0
   43.9020   35.4340   42.1610 C   0  0  0  0  0  0  0  0  0  0  0  0
   44.1090   34.6090   41.0820 C   0  0  0  0  0  0  0  0  0  0  0  0
   45.4290   34.1420   40.8310 C   0  0  0  0  0  0  0  0  0  0  0  0
   46.4040   34.5580   41.6990 N   0  0  0  0  0  0  0  0  0  0  0  0
   46.1250   35.3630   42.7280 C   0  0  0  0  0  0  0  0  0  0  0  0
   44.8880   35.8190   42.9880 N   0  0  0  0  0  0  0  0  0  0  0  0
   40.1990   34.9920   40.9830 C   0  0  0  0  0  0  0  0  0  0  0  0
   38.9970   34.8440   40.0440 C   0  0  0  0  0  0  0  0  0  0  0  0
   39.1560   33.7670   39.0940 N   0  0  0  0  0  0  0  0  0  0  0  0
   38.3670   32.7060   39.4440 C   0  0  0  0  0  0  0  0  0  0  0  0
   38.3210   31.5470   38.7020 C   0  0  0  0  0  0  0  0  0  0  0  0
   39.0920   31.4370   37.5620 C   0  0  0  0  0  0  0  0  0  0  0  0
   39.1470   30.2990   36.6940 N   0  0  0  0  0  0  0  0  0  0  0  0
   39.8530   32.5020   37.2520 N   0  0  0  0  0  0  0  0  0  0  0  0
   39.8920   33.6280   37.9810 C   0  0  0  0  0  0  0  0  0  0  0  0
   40.5830   34.6460   37.7370 O   0  0  0  0  0  0  0  0  0  0  0  0
   43.5084   31.7992   41.1671 H   0  0  0  0  0  0  0  0  0  0  0  0
   42.1126   30.2483   42.4538 H   0  0  0  0  0  0  0  0  0  0  0  0
   39.7824   30.9722   43.0480 H   0  0  0  0  0  0  0  0  0  0  0  0
   38.9391   33.1840   42.3437 H   0  0  0  0  0  0  0  0  0  0  0  0
   43.3436   33.6868   39.3465 H   0  0  0  0  0  0  0  0  0  0  0  0
   42.4334   35.1250   39.9042 H   0  0  0  0  0  0  0  0  0  0  0  0
   42.8818   35.7959   42.3566 H   0  0  0  0  0  0  0  0  0  0  0  0
   45.6556   33.4799   39.9823 H   0  0  0  0  0  0  0  0  0  0  0  0
   46.9464   35.6668   43.3936 H   0  0  0  0  0  0  0  0  0  0  0  0
   39.8644   35.4930   41.9033 H   0  0  0  0  0  0  0  0  0  0  0  0
   40.9618   35.5773   40.4486 H   0  0  0  0  0  0  0  0  0  0  0  0
   38.1001   34.6482   40.6499 H   0  0  0  0  0  0  0  0  0  0  0  0
   38.9077   35.7791   39.4716 H   0  0  0  0  0  0  0  0  0  0  0  0
   37.7476   32.7812   40.3499 H   0  0  0  0  0  0  0  0  0  0  0  0
   37.6742   30.7143   39.0154 H   0  0  0  0  0  0  0  0  0  0  0  0
   39.7563   30.3136   35.8637 H   0  0  0  0  0  0  0  0  0  0  0  0
   38.5772   29.4661   36.9001 H   0  0  0  0  0  0  0  0  0  0  0  0
  1  6  1  0
  1  2  2  0
  2  3  1  0
  3  4  2  0
  5  4  1  0
  6  5  2  0
  7  1  1  0
  7  9  1  0
  8 13  2  0
  9  8  1  0
 10  9  2  0
 10 11  1  0
 11 12  2  0
 12 13  1  0
 14  6  1  0
 15 14  1  0
 16 17  1  0
 16 15  1  0
 18 17  2  0
 19 18  1  0
 20 19  1  0
 21 19  2  0
 21 22  1  0
 22 16  1  0
 23 22  2  0
  2 24  1  0
  3 25  1  0
  4 26  1  0
  5 27  1  0
  7 28  1  0
  7 29  1  0
  8 30  1  0
 10 31  1  0
 12 32  1  0
 14 33  1  0
 14 34  1  0
 15 35  1  0
 15 36  1  0
 17 37  1  0
 18 38  1  0
 20 39  1  0
 20 40  1  0
M  ISO  8  24  14  25  14  26  14  27  14  28   8  29   8  30  14  31  14
M  ISO  7  32  14  33   8  34   8  35   8  36   8  37  14  38  14
M  END
>  <minimizedAffinity>  (1) 
-4.81969261

>  <minimizedRMSD>  (1) 
1.19465685

$$$$
