
     RDKit          3D

 32 34  0  0  1  0  0  0  0  0999 V2000
   46.4760   34.4940   42.0140 N   0  0  0  0  0  0  0  0  0  0  0  0
   47.6660   35.1700   41.9260 C   0  0  0  0  0  0  0  0  0  0  0  0
   48.4270   35.1430   40.7810 C   0  0  0  0  0  0  0  0  0  0  0  0
   47.9470   34.4020   39.7030 C   0  0  0  0  0  0  0  0  0  0  0  0
   48.6140   34.3510   38.6370 O   0  0  0  0  0  0  0  0  0  0  0  0
   46.7870   33.7670   39.8460 N   0  0  0  0  0  0  0  0  0  0  0  0
   46.0450   33.7960   40.9680 C   0  0  0  0  0  0  0  0  0  0  0  0
   44.9650   33.2300   41.1610 O   0  0  0  0  0  0  0  0  0  0  0  0
   44.4960   35.9500   44.7680 C   0  0  0  0  0  0  0  0  0  0  0  0
   45.0770   35.7920   43.4800 C   0  0  0  0  0  0  0  0  0  0  0  0
   45.8780   34.6780   43.3010 C   0  0  0  0  0  0  0  0  0  0  0  0
   46.0800   33.7940   44.3290 N   0  0  0  0  0  0  0  0  0  0  0  0
   45.4990   33.9970   45.5360 C   0  0  0  0  0  0  0  0  0  0  0  0
   44.7130   35.0660   45.7550 N   0  0  0  0  0  0  0  0  0  0  0  0
   46.1630   33.6790   37.5180 N   0  0  0  0  0  0  0  0  0  0  0  0
   46.7680   32.8500   36.5110 C   0  0  0  0  0  0  0  0  0  0  0  0
   46.6770   31.4320   37.0800 C   0  0  0  0  0  0  0  0  0  0  0  0
   47.0440   31.7210   38.5210 C   0  0  0  0  0  0  0  0  0  0  0  0
   46.2230   32.9730   38.7630 C   0  0  1  0  0  0  0  0  0  0  0  0
   48.0203   35.7478   42.7924 H   0  0  0  0  0  0  0  0  0  0  0  0
   49.3809   35.6871   40.7183 H   0  0  0  0  0  0  0  0  0  0  0  0
   43.8512   36.8201   44.9611 H   0  0  0  0  0  0  0  0  0  0  0  0
   44.8995   36.5154   42.6705 H   0  0  0  0  0  0  0  0  0  0  0  0
   45.6728   33.2767   46.3490 H   0  0  0  0  0  0  0  0  0  0  0  0
   45.1815   33.8701   37.2709 H   0  0  0  0  0  0  0  0  0  0  0  0
   47.8172   33.1377   36.3488 H   0  0  0  0  0  0  0  0  0  0  0  0
   46.2683   32.9432   35.5355 H   0  0  0  0  0  0  0  0  0  0  0  0
   45.6622   31.0172   36.9896 H   0  0  0  0  0  0  0  0  0  0  0  0
   47.3055   30.6827   36.5765 H   0  0  0  0  0  0  0  0  0  0  0  0
   46.7432   30.9013   39.1900 H   0  0  0  0  0  0  0  0  0  0  0  0
   48.1221   31.8337   38.7082 H   0  0  0  0  0  0  0  0  0  0  0  0
   45.2020   32.7284   39.0913 H   0  0  0  0  0  0  0  0  0  0  0  0
  1 11  1  0
  2  1  1  0
  3  2  2  0
  4  6  1  0
  4  3  1  0
  5  4  2  0
  6  7  1  0
  7  8  2  0
  7  1  1  0
  9 14  2  0
 10  9  1  0
 11 10  2  0
 11 12  1  0
 12 13  2  0
 13 14  1  0
 15 19  1  0
 16 17  1  0
 16 15  1  0
 17 18  1  0
 19 18  1  0
 19  6  1  0
  2 20  1  0
  3 21  1  0
  9 22  1  0
 10 23  1  0
 13 24  1  0
 15 25  1  0
 16 26  1  0
 16 27  1  0
 17 28  1  0
 17 29  1  0
 18 30  1  0
 18 31  1  0
 19 32  1  1
M  ISO  8  20  14  21  14  22  14  23  14  24  14  25   5  26  13  27  13
M  ISO  5  28  13  29  13  30  13  31  13  32  13
M  END
>  <minimizedAffinity>  (1) 
-5.44847012

>  <minimizedRMSD>  (1) 
0.70509094

$$$$
