
     RDKit          3D

 33 35  0  0  0  0  0  0  0  0999 V2000
   47.0890   33.8960   42.5000 N   0  0  0  0  0  0  0  0  0  0  0  0
   48.3640   33.7840   42.9850 C   0  0  0  0  0  0  0  0  0  0  0  0
   49.3870   33.2710   42.2230 C   0  0  0  0  0  0  0  0  0  0  0  0
   49.0820   32.8640   40.9240 C   0  0  0  0  0  0  0  0  0  0  0  0
   49.9920   32.3890   40.1960 O   0  0  0  0  0  0  0  0  0  0  0  0
   47.8240   32.9980   40.5100 N   0  0  0  0  0  0  0  0  0  0  0  0
   46.8320   33.5000   41.2640 C   0  0  0  0  0  0  0  0  0  0  0  0
   45.6520   33.6420   40.9200 O   0  0  0  0  0  0  0  0  0  0  0  0
   44.7330   36.2220   44.1400 C   0  0  0  0  0  0  0  0  0  0  0  0
   45.6000   35.6590   43.1780 C   0  0  0  0  0  0  0  0  0  0  0  0
   46.2120   34.4550   43.4820 C   0  0  0  0  0  0  0  0  0  0  0  0
   45.9670   33.8600   44.6710 N   0  0  0  0  0  0  0  0  0  0  0  0
   45.1280   34.4220   45.5820 C   0  0  0  0  0  0  0  0  0  0  0  0
   44.5170   35.5900   45.3190 N   0  0  0  0  0  0  0  0  0  0  0  0
   46.9700   32.1610   36.4650 C   0  0  0  0  0  0  0  0  0  0  0  0
   47.3900   33.4030   36.9270 C   0  0  0  0  0  0  0  0  0  0  0  0
   47.6620   33.6380   38.2790 C   0  0  0  0  0  0  0  0  0  0  0  0
   47.5050   32.5840   39.1860 C   0  0  0  0  0  0  0  0  0  0  0  0
   47.0900   31.3470   38.7460 C   0  0  0  0  0  0  0  0  0  0  0  0
   46.8330   31.1590   37.4050 C   0  0  0  0  0  0  0  0  0  0  0  0
   46.6360   31.8960   34.7690 S   0  0  0  0  0  0  0  0  0  0  0  0
   45.3260   32.4610   34.3370 O   0  0  0  0  0  0  0  0  0  0  0  0
   47.7920   32.4190   33.9630 O   0  0  0  0  0  0  0  0  0  0  0  0
   48.5761   34.1135   44.0128 H   0  0  0  0  0  0  0  0  0  0  0  0
   50.4081   33.1847   42.6228 H   0  0  0  0  0  0  0  0  0  0  0  0
   44.2306   37.1781   43.9313 H   0  0  0  0  0  0  0  0  0  0  0  0
   45.7834   36.1615   42.2168 H   0  0  0  0  0  0  0  0  0  0  0  0
   44.9479   33.9164   46.5422 H   0  0  0  0  0  0  0  0  0  0  0  0
   47.5122   34.2261   36.2076 H   0  0  0  0  0  0  0  0  0  0  0  0
   47.9921   34.6298   38.6217 H   0  0  0  0  0  0  0  0  0  0  0  0
   46.9649   30.5174   39.4574 H   0  0  0  0  0  0  0  0  0  0  0  0
   46.5036   30.1650   37.0682 H   0  0  0  0  0  0  0  0  0  0  0  0
   46.5115   30.5496   34.5486 H   0  0  0  0  0  0  0  0  0  0  0  0
  1  2  1  0
  1 11  1  0
  3  2  2  0
  4  3  1  0
  5  4  2  0
  6  4  1  0
  6  7  1  0
  7  1  1  0
  8  7  2  0
  9 14  2  0
 10 11  2  0
 10  9  1  0
 11 12  1  0
 12 13  2  0
 14 13  1  0
 15 16  2  0
 15 20  1  0
 16 17  1  0
 17 18  2  0
 18  6  1  0
 19 18  1  0
 20 19  2  0
 21 15  1  0
 22 21  2  0
 23 21  2  0
  2 24  1  0
  3 25  1  0
  9 26  1  0
 10 27  1  0
 13 28  1  0
 16 29  1  0
 17 30  1  0
 19 31  1  0
 20 32  1  0
 21 33  1  0
M  ISO  8  24  14  25  14  26  14  27  14  28  14  29  14  30  14  31  14
M  ISO  2  32  14  33  11
M  END
>  <minimizedAffinity>  (1) 
-5.24726629

>  <minimizedRMSD>  (1) 
1.9826647

$$$$
