
     RDKit          3D

 30 32  0  0  0  0  0  0  0  0999 V2000
   46.5150   34.4180   41.9840 N   0  0  0  0  0  0  0  0  0  0  0  0
   47.6560   35.1660   41.8810 C   0  0  0  0  0  0  0  0  0  0  0  0
   48.4070   35.1630   40.7120 C   0  0  0  0  0  0  0  0  0  0  0  0
   47.9550   34.3690   39.6520 C   0  0  0  0  0  0  0  0  0  0  0  0
   48.6030   34.3410   38.5820 O   0  0  0  0  0  0  0  0  0  0  0  0
   46.8340   33.6690   39.8310 N   0  0  0  0  0  0  0  0  0  0  0  0
   46.1170   33.6800   40.9630 C   0  0  0  0  0  0  0  0  0  0  0  0
   45.0750   33.0500   41.1790 O   0  0  0  0  0  0  0  0  0  0  0  0
   44.5190   35.8920   44.7190 C   0  0  0  0  0  0  0  0  0  0  0  0
   45.1010   35.7170   43.4400 C   0  0  0  0  0  0  0  0  0  0  0  0
   45.9280   34.5930   43.2760 C   0  0  0  0  0  0  0  0  0  0  0  0
   46.1360   33.7460   44.3090 N   0  0  0  0  0  0  0  0  0  0  0  0
   45.5560   33.9560   45.5190 C   0  0  0  0  0  0  0  0  0  0  0  0
   44.7560   35.0140   45.7290 N   0  0  0  0  0  0  0  0  0  0  0  0
   46.3570   32.8530   38.7570 C   0  0  0  0  0  0  0  0  0  0  0  0
   45.4440   33.2760   37.8060 C   0  0  0  0  0  0  0  0  0  0  0  0
   45.0520   32.4000   36.8070 C   0  0  0  0  0  0  0  0  0  0  0  0
   45.5690   31.1110   36.7610 C   0  0  0  0  0  0  0  0  0  0  0  0
   46.4840   30.6900   37.7170 C   0  0  0  0  0  0  0  0  0  0  0  0
   46.8810   31.5740   38.7250 C   0  0  0  0  0  0  0  0  0  0  0  0
   47.9830   35.7777   42.7348 H   0  0  0  0  0  0  0  0  0  0  0  0
   49.3243   35.7635   40.6229 H   0  0  0  0  0  0  0  0  0  0  0  0
   43.8620   36.7558   44.8987 H   0  0  0  0  0  0  0  0  0  0  0  0
   44.9154   36.4240   42.6180 H   0  0  0  0  0  0  0  0  0  0  0  0
   45.7445   33.2484   46.3398 H   0  0  0  0  0  0  0  0  0  0  0  0
   45.0345   34.2962   37.8433 H   0  0  0  0  0  0  0  0  0  0  0  0
   44.3277   32.7265   36.0462 H   0  0  0  0  0  0  0  0  0  0  0  0
   45.2523   30.4216   35.9645 H   0  0  0  0  0  0  0  0  0  0  0  0
   46.8931   29.6695   37.6816 H   0  0  0  0  0  0  0  0  0  0  0  0
   47.6058   31.2538   39.4879 H   0  0  0  0  0  0  0  0  0  0  0  0
  1 11  1  0
  2  1  1  0
  3  2  2  0
  4  6  1  0
  4  3  1  0
  5  4  2  0
  6  7  1  0
  7  8  2  0
  7  1  1  0
  9 14  2  0
 10  9  1  0
 11 10  2  0
 11 12  1  0
 12 13  2  0
 13 14  1  0
 15  6  1  0
 16 15  2  0
 17 16  1  0
 18 17  2  0
 18 19  1  0
 19 20  2  0
 20 15  1  0
  2 21  1  0
  3 22  1  0
  9 23  1  0
 10 24  1  0
 13 25  1  0
 16 26  1  0
 17 27  1  0
 18 28  1  0
 19 29  1  0
 20 30  1  0
M  ISO  8  21  14  22  14  23  14  24  14  25  14  26  14  27  14  28  14
M  ISO  2  29  14  30  14
M  END
>  <minimizedAffinity>  (1) 
-5.12476349

>  <minimizedRMSD>  (1) 
0.841387868

$$$$
