
     RDKit          3D

 32 33  0  0  0  0  0  0  0  0999 V2000
   46.4830   34.4810   42.0010 N   0  0  0  0  0  0  0  0  0  0  0  0
   47.6660   35.1590   41.9300 C   0  0  0  0  0  0  0  0  0  0  0  0
   48.4340   35.1440   40.7740 C   0  0  0  0  0  0  0  0  0  0  0  0
   47.9520   34.4120   39.6900 C   0  0  0  0  0  0  0  0  0  0  0  0
   48.6330   34.3880   38.6340 O   0  0  0  0  0  0  0  0  0  0  0  0
   46.7920   33.7720   39.8210 N   0  0  0  0  0  0  0  0  0  0  0  0
   46.0570   33.7970   40.9530 C   0  0  0  0  0  0  0  0  0  0  0  0
   44.9770   33.2260   41.1340 O   0  0  0  0  0  0  0  0  0  0  0  0
   44.5040   35.9320   44.7620 C   0  0  0  0  0  0  0  0  0  0  0  0
   45.0870   35.7600   43.4860 C   0  0  0  0  0  0  0  0  0  0  0  0
   45.8920   34.6530   43.2900 C   0  0  0  0  0  0  0  0  0  0  0  0
   46.1080   33.7620   44.3110 N   0  0  0  0  0  0  0  0  0  0  0  0
   45.5180   33.9810   45.5210 C   0  0  0  0  0  0  0  0  0  0  0  0
   44.7250   35.0520   45.7490 N   0  0  0  0  0  0  0  0  0  0  0  0
   46.2450   32.9980   38.7270 C   0  0  0  0  0  0  0  0  0  0  0  0
   46.7210   33.3930   37.3810 C   0  0  0  0  0  0  0  0  0  0  0  0
   44.7290   33.0470   38.7040 C   0  0  0  0  0  0  0  0  0  0  0  0
   46.5960   31.5220   38.9230 C   0  0  0  0  0  0  0  0  0  0  0  0
   48.0166   35.7271   42.8043 H   0  0  0  0  0  0  0  0  0  0  0  0
   49.3875   35.6894   40.7154 H   0  0  0  0  0  0  0  0  0  0  0  0
   43.8580   36.8026   44.9484 H   0  0  0  0  0  0  0  0  0  0  0  0
   44.9064   36.4823   42.6763 H   0  0  0  0  0  0  0  0  0  0  0  0
   45.6928   33.2640   46.3367 H   0  0  0  0  0  0  0  0  0  0  0  0
   47.5640   34.0926   37.4809 H   0  0  0  0  0  0  0  0  0  0  0  0
   47.0498   32.4987   36.8313 H   0  0  0  0  0  0  0  0  0  0  0  0
   45.9027   33.8810   36.8313 H   0  0  0  0  0  0  0  0  0  0  0  0
   44.3469   33.0594   39.7354 H   0  0  0  0  0  0  0  0  0  0  0  0
   44.3994   33.9563   38.1800 H   0  0  0  0  0  0  0  0  0  0  0  0
   44.3414   32.1609   38.1800 H   0  0  0  0  0  0  0  0  0  0  0  0
   46.6494   31.2975   39.9985 H   0  0  0  0  0  0  0  0  0  0  0  0
   45.8217   30.8958   38.4557 H   0  0  0  0  0  0  0  0  0  0  0  0
   47.5693   31.3114   38.4557 H   0  0  0  0  0  0  0  0  0  0  0  0
  1 11  1  0
  2  1  1  0
  3  2  2  0
  4  6  1  0
  4  3  1  0
  5  4  2  0
  6  7  1  0
  7  8  2  0
  7  1  1  0
  9 14  2  0
 10  9  1  0
 11 10  2  0
 11 12  1  0
 12 13  2  0
 13 14  1  0
 15 18  1  0
 15  6  1  0
 16 15  1  0
 17 15  1  0
  2 19  1  0
  3 20  1  0
  9 21  1  0
 10 22  1  0
 13 23  1  0
 16 24  1  0
 16 25  1  0
 16 26  1  0
 17 27  1  0
 17 28  1  0
 17 29  1  0
 18 30  1  0
 18 31  1  0
 18 32  1  0
M  ISO  8  19  14  20  14  21  14  22  14  23  14  24   8  25   8  26   8
M  ISO  6  27   8  28   8  29   8  30   8  31   8  32   8
M  END
>  <minimizedAffinity>  (1) 
-5.10398245

>  <minimizedRMSD>  (1) 
0.349538922

$$$$
