
     RDKit          3D

 26 28  0  0  0  0  0  0  0  0999 V2000
   46.4090   34.4100   41.9820 N   0  0  0  0  0  0  0  0  0  0  0  0
   47.5960   35.0630   41.8500 C   0  0  0  0  0  0  0  0  0  0  0  0
   48.3320   35.0060   40.6860 C   0  0  0  0  0  0  0  0  0  0  0  0
   47.8270   34.2560   39.6360 C   0  0  0  0  0  0  0  0  0  0  0  0
   48.4730   34.1810   38.5580 O   0  0  0  0  0  0  0  0  0  0  0  0
   46.6630   33.6360   39.8140 N   0  0  0  0  0  0  0  0  0  0  0  0
   45.9460   33.6950   40.9560 C   0  0  0  0  0  0  0  0  0  0  0  0
   44.8590   33.1410   41.1740 O   0  0  0  0  0  0  0  0  0  0  0  0
   44.4980   35.9540   44.7260 C   0  0  0  0  0  0  0  0  0  0  0  0
   45.0610   35.7490   43.4480 C   0  0  0  0  0  0  0  0  0  0  0  0
   45.8410   34.6200   43.2690 C   0  0  0  0  0  0  0  0  0  0  0  0
   46.0310   33.7730   44.3020 N   0  0  0  0  0  0  0  0  0  0  0  0
   45.4800   33.9920   45.5190 C   0  0  0  0  0  0  0  0  0  0  0  0
   44.7190   35.0730   45.7350 N   0  0  0  0  0  0  0  0  0  0  0  0
   46.0900   32.8370   38.7500 C   0  0  0  0  0  0  0  0  0  0  0  0
   45.2080   33.2750   37.7620 C   0  0  0  0  0  0  0  0  0  0  0  0
   44.9050   31.7860   36.7870 S   0  0  0  0  0  0  0  0  0  0  0  0
   46.0600   30.7710   37.9080 C   0  0  0  0  0  0  0  0  0  0  0  0
   46.5580   31.5940   38.8800 N   0  0  0  0  0  0  0  0  0  0  0  0
   47.9786   35.6528   42.6960 H   0  0  0  0  0  0  0  0  0  0  0  0
   49.2898   35.5390   40.5935 H   0  0  0  0  0  0  0  0  0  0  0  0
   43.8715   36.8399   44.9069 H   0  0  0  0  0  0  0  0  0  0  0  0
   44.8865   36.4591   42.6262 H   0  0  0  0  0  0  0  0  0  0  0  0
   45.6584   33.2774   46.3360 H   0  0  0  0  0  0  0  0  0  0  0  0
   44.7964   34.2841   37.6129 H   0  0  0  0  0  0  0  0  0  0  0  0
   46.2888   29.7012   37.7933 H   0  0  0  0  0  0  0  0  0  0  0  0
  1 11  1  0
  2  1  1  0
  3  2  2  0
  4  6  1  0
  4  3  1  0
  5  4  2  0
  6  7  1  0
  7  8  2  0
  7  1  1  0
  9 14  2  0
 10  9  1  0
 11 10  2  0
 11 12  1  0
 12 13  2  0
 13 14  1  0
 15 19  1  0
 15  6  1  0
 16 15  2  0
 17 16  1  0
 17 18  1  0
 18 19  2  0
  2 20  1  0
  3 21  1  0
  9 22  1  0
 10 23  1  0
 13 24  1  0
 16 25  1  0
 18 26  1  0
M  ISO  7  20  14  21  14  22  14  23  14  24  14  25  14  26  14
M  END
>  <minimizedAffinity>  (1) 
-5.01809692

>  <minimizedRMSD>  (1) 
0.880292118

$$$$
