
     RDKit          3D

 27 29  0  0  0  0  0  0  0  0999 V2000
   46.4940   34.5220   42.0250 N   0  0  0  0  0  0  0  0  0  0  0  0
   47.6800   35.1660   41.9490 C   0  0  0  0  0  0  0  0  0  0  0  0
   48.4450   35.1480   40.7980 C   0  0  0  0  0  0  0  0  0  0  0  0
   47.9510   34.4350   39.7010 C   0  0  0  0  0  0  0  0  0  0  0  0
   48.6240   34.4010   38.6430 O   0  0  0  0  0  0  0  0  0  0  0  0
   46.7780   33.8200   39.8330 N   0  0  0  0  0  0  0  0  0  0  0  0
   46.0500   33.8510   40.9640 C   0  0  0  0  0  0  0  0  0  0  0  0
   44.9490   33.2930   41.1350 O   0  0  0  0  0  0  0  0  0  0  0  0
   44.5020   35.9250   44.7920 C   0  0  0  0  0  0  0  0  0  0  0  0
   45.0860   35.7820   43.5070 C   0  0  0  0  0  0  0  0  0  0  0  0
   45.8970   34.6830   43.3100 C   0  0  0  0  0  0  0  0  0  0  0  0
   46.1110   33.7860   44.3260 N   0  0  0  0  0  0  0  0  0  0  0  0
   45.5330   33.9580   45.5410 C   0  0  0  0  0  0  0  0  0  0  0  0
   44.7310   35.0230   45.7760 N   0  0  0  0  0  0  0  0  0  0  0  0
   46.2070   33.0620   38.7350 C   0  0  0  0  0  0  0  0  0  0  0  0
   46.9730   31.7370   38.4670 C   0  0  0  0  0  0  0  0  0  0  0  0
   45.5700   31.7580   38.9250 C   0  0  0  0  0  0  0  0  0  0  0  0
   48.0461   35.7191   42.8265 H   0  0  0  0  0  0  0  0  0  0  0  0
   49.4086   35.6760   40.7466 H   0  0  0  0  0  0  0  0  0  0  0  0
   43.8491   36.7871   44.9935 H   0  0  0  0  0  0  0  0  0  0  0  0
   44.9011   36.5125   42.7057 H   0  0  0  0  0  0  0  0  0  0  0  0
   45.7174   33.2265   46.3415 H   0  0  0  0  0  0  0  0  0  0  0  0
   45.8727   33.9668   38.2062 H   0  0  0  0  0  0  0  0  0  0  0  0
   47.2178   31.4343   37.4382 H   0  0  0  0  0  0  0  0  0  0  0  0
   47.9120   31.2818   38.8150 H   0  0  0  0  0  0  0  0  0  0  0  0
   45.3302   31.4184   39.9434 H   0  0  0  0  0  0  0  0  0  0  0  0
   44.6435   31.3074   38.5396 H   0  0  0  0  0  0  0  0  0  0  0  0
  1 11  1  0
  2  1  1  0
  3  2  2  0
  4  6  1  0
  4  3  1  0
  5  4  2  0
  6  7  1  0
  7  8  2  0
  7  1  1  0
  9 14  2  0
 10  9  1  0
 11 10  2  0
 11 12  1  0
 12 13  2  0
 13 14  1  0
 15 17  1  0
 15  6  1  0
 16 15  1  0
 16 17  1  0
  2 18  1  0
  3 19  1  0
  9 20  1  0
 10 21  1  0
 13 22  1  0
 15 23  1  0
 16 24  1  0
 16 25  1  0
 17 26  1  0
 17 27  1  0
M  ISO  8  18  14  19  14  20  14  21  14  22  14  23  13  24  13  25  13
M  ISO  2  26  13  27  13
M  END
>  <minimizedAffinity>  (1) 
-4.8330555

>  <minimizedRMSD>  (1) 
0.638987839

$$$$
