
     RDKit          3D

 20 21  0  0  0  0  0  0  0  0999 V2000
   44.4730   35.9830   44.8030 C   0  0  0  0  0  0  0  0  0  0  0  0
   45.1000   35.9430   43.5460 C   0  0  0  0  0  0  0  0  0  0  0  0
   45.9660   34.8850   43.2850 C   0  0  0  0  0  0  0  0  0  0  0  0
   46.1710   33.9450   44.2410 N   0  0  0  0  0  0  0  0  0  0  0  0
   45.5400   34.0230   45.4480 C   0  0  0  0  0  0  0  0  0  0  0  0
   44.7010   35.0340   45.7190 N   0  0  0  0  0  0  0  0  0  0  0  0
   46.6820   34.7180   42.0280 C   0  0  0  0  0  0  0  0  0  0  0  0
   47.8950   35.3430   41.8880 C   0  0  0  0  0  0  0  0  0  0  0  0
   48.6470   35.2340   40.7130 C   0  0  0  0  0  0  0  0  0  0  0  0
   48.1600   34.4720   39.6460 C   0  0  0  0  0  0  0  0  0  0  0  0
   46.9390   33.8460   39.7950 C   0  0  0  0  0  0  0  0  0  0  0  0
   46.2170   33.9700   40.9670 C   0  0  0  0  0  0  0  0  0  0  0  0
   43.7837   36.8075   45.0379 H   0  0  0  0  0  0  0  0  0  0  0  0
   44.9125   36.7225   42.7928 H   0  0  0  0  0  0  0  0  0  0  0  0
   45.7212   33.2482   46.2075 H   0  0  0  0  0  0  0  0  0  0  0  0
   48.2867   35.9454   42.7209 H   0  0  0  0  0  0  0  0  0  0  0  0
   49.6172   35.7455   40.6288 H   0  0  0  0  0  0  0  0  0  0  0  0
   48.7347   34.3743   38.7132 H   0  0  0  0  0  0  0  0  0  0  0  0
   46.5352   33.2405   38.9702 H   0  0  0  0  0  0  0  0  0  0  0  0
   45.2469   33.4591   41.0556 H   0  0  0  0  0  0  0  0  0  0  0  0
  1  6  2  0
  2  1  1  0
  3  2  2  0
  3  4  1  0
  4  5  2  0
  5  6  1  0
  7  3  1  0
  8  7  2  0
  9  8  1  0
 10 11  1  0
 10  9  2  0
 11 12  2  0
 12  7  1  0
  1 13  1  0
  2 14  1  0
  5 15  1  0
  8 16  1  0
  9 17  1  0
 10 18  1  0
 11 19  1  0
 12 20  1  0
M  ISO  8  13  14  14  14  15  14  16  14  17  14  18  14  19  14  20  14
M  END
>  <minimizedAffinity>  (1) 
-4.9655304

>  <minimizedRMSD>  (1) 
0.978862107

$$$$
