
     RDKit          3D

 37 40  0  0  0  0  0  0  0  0999 V2000
   44.9320   33.7720   41.7300 N   0  0  0  0  0  0  0  0  0  0  0  0
   46.1630   34.0190   41.1700 C   0  0  0  0  0  0  0  0  0  0  0  0
   46.4240   33.6980   39.8530 C   0  0  0  0  0  0  0  0  0  0  0  0
   45.3850   33.1080   39.1100 C   0  0  0  0  0  0  0  0  0  0  0  0
   45.5990   32.8080   37.9170 O   0  0  0  0  0  0  0  0  0  0  0  0
   44.2250   32.9030   39.7270 N   0  0  0  0  0  0  0  0  0  0  0  0
   43.9850   33.2200   41.0040 C   0  0  0  0  0  0  0  0  0  0  0  0
   42.9380   33.0520   41.6160 O   0  0  0  0  0  0  0  0  0  0  0  0
   44.4450   35.9360   44.6930 C   0  0  0  0  0  0  0  0  0  0  0  0
   44.4630   35.4890   43.3630 C   0  0  0  0  0  0  0  0  0  0  0  0
   44.9260   34.1990   43.1020 C   0  0  0  0  0  0  0  0  0  0  0  0
   45.3440   33.4140   44.1200 N   0  0  0  0  0  0  0  0  0  0  0  0
   45.3140   33.8830   45.4000 C   0  0  0  0  0  0  0  0  0  0  0  0
   44.8740   35.1170   45.6870 N   0  0  0  0  0  0  0  0  0  0  0  0
   43.1270   32.3130   38.9810 C   0  0  0  0  0  0  0  0  0  0  0  0
   42.2420   33.4390   38.5520 C   0  0  0  0  0  0  0  0  0  0  0  0
   42.6780   34.6980   38.3840 N   0  0  0  0  0  0  0  0  0  0  0  0
   41.9280   35.7280   38.0040 C   0  0  0  0  0  0  0  0  0  0  0  0
   40.6190   35.5350   37.7560 N   0  0  0  0  0  0  0  0  0  0  0  0
   40.1180   34.3040   37.9030 C   0  0  0  0  0  0  0  0  0  0  0  0
   38.7680   34.1530   37.6370 C   0  0  0  0  0  0  0  0  0  0  0  0
   38.1990   32.9030   37.7720 C   0  0  0  0  0  0  0  0  0  0  0  0
   38.9910   31.8410   38.1680 C   0  0  0  0  0  0  0  0  0  0  0  0
   40.3350   32.0010   38.4310 C   0  0  0  0  0  0  0  0  0  0  0  0
   40.9110   33.2420   38.2990 C   0  0  0  0  0  0  0  0  0  0  0  0
   46.9528   34.4799   41.7813 H   0  0  0  0  0  0  0  0  0  0  0  0
   47.4073   33.8960   39.4014 H   0  0  0  0  0  0  0  0  0  0  0  0
   44.0841   36.9478   44.9296 H   0  0  0  0  0  0  0  0  0  0  0  0
   44.1202   36.1403   42.5455 H   0  0  0  0  0  0  0  0  0  0  0  0
   45.6593   33.2331   46.2175 H   0  0  0  0  0  0  0  0  0  0  0  0
   43.5119   31.7773   38.1007 H   0  0  0  0  0  0  0  0  0  0  0  0
   42.5741   31.5896   39.5983 H   0  0  0  0  0  0  0  0  0  0  0  0
   42.3727   36.7280   37.8934 H   0  0  0  0  0  0  0  0  0  0  0  0
   38.1595   35.0141   37.3236 H   0  0  0  0  0  0  0  0  0  0  0  0
   37.1287   32.7534   37.5671 H   0  0  0  0  0  0  0  0  0  0  0  0
   38.5379   30.8445   38.2758 H   0  0  0  0  0  0  0  0  0  0  0  0
   40.9432   31.1398   38.7449 H   0  0  0  0  0  0  0  0  0  0  0  0
  1 11  1  0
  2  1  1  0
  3  2  2  0
  4  6  1  0
  4  3  1  0
  5  4  2  0
  6  7  1  0
  7  8  2  0
  7  1  1  0
  9 14  2  0
 10  9  1  0
 11 10  2  0
 11 12  1  0
 12 13  2  0
 13 14  1  0
 15  6  1  0
 16 15  1  0
 17 16  2  0
 18 17  1  0
 19 20  1  0
 19 18  2  0
 20 25  2  0
 21 22  2  0
 21 20  1  0
 22 23  1  0
 23 24  2  0
 25 24  1  0
 25 16  1  0
  2 26  1  0
  3 27  1  0
  9 28  1  0
 10 29  1  0
 13 30  1  0
 15 31  1  0
 15 32  1  0
 18 33  1  0
 21 34  1  0
 22 35  1  0
 23 36  1  0
 24 37  1  0
M  ISO  8  26  14  27  14  28  14  29  14  30  14  31   8  32   8  33  14
M  ISO  4  34  14  35  14  36  14  37  14
M  END
>  <minimizedAffinity>  (1) 
-6.34300995

>  <minimizedRMSD>  (1) 
2.51346231

$$$$
