
     RDKit          3D

 36 38  0  0  0  0  0  0  0  0999 V2000
   46.5090   34.5130   42.0160 N   0  0  0  0  0  0  0  0  0  0  0  0
   47.6970   35.1780   41.9700 C   0  0  0  0  0  0  0  0  0  0  0  0
   48.4610   35.1860   40.8110 C   0  0  0  0  0  0  0  0  0  0  0  0
   47.9620   34.4890   39.7030 C   0  0  0  0  0  0  0  0  0  0  0  0
   48.6420   34.4930   38.6550 O   0  0  0  0  0  0  0  0  0  0  0  0
   46.7790   33.8540   39.8200 N   0  0  0  0  0  0  0  0  0  0  0  0
   46.0670   33.8700   40.9630 C   0  0  0  0  0  0  0  0  0  0  0  0
   44.9890   33.3150   41.1280 O   0  0  0  0  0  0  0  0  0  0  0  0
   44.5170   35.8690   44.8230 C   0  0  0  0  0  0  0  0  0  0  0  0
   45.0950   35.7390   43.5440 C   0  0  0  0  0  0  0  0  0  0  0  0
   45.9160   34.6550   43.3150 C   0  0  0  0  0  0  0  0  0  0  0  0
   46.1310   33.7640   44.3210 N   0  0  0  0  0  0  0  0  0  0  0  0
   45.5670   33.9080   45.5400 C   0  0  0  0  0  0  0  0  0  0  0  0
   44.7590   34.9600   45.7940 N   0  0  0  0  0  0  0  0  0  0  0  0
   46.2420   33.1350   38.6880 C   0  0  0  0  0  0  0  0  0  0  0  0
   46.9750   32.0040   38.2310 N   0  0  0  0  0  0  0  0  0  0  0  0
   47.4440   31.9990   36.9470 C   0  0  0  0  0  0  0  0  0  0  0  0
   48.1710   30.9630   36.3730 C   0  0  0  0  0  0  0  0  0  0  0  0
   48.6820   30.9530   34.9770 C   0  0  0  0  0  0  0  0  0  0  0  0
   48.4660   29.8240   37.1300 C   0  0  0  0  0  0  0  0  0  0  0  0
   49.1080   28.8650   36.6780 O   0  0  0  0  0  0  0  0  0  0  0  0
   48.0020   29.8380   38.3850 N   0  0  0  0  0  0  0  0  0  0  0  0
   47.3060   30.8750   38.8760 C   0  0  0  0  0  0  0  0  0  0  0  0
   46.9590   30.7250   40.0520 O   0  0  0  0  0  0  0  0  0  0  0  0
   48.0549   35.7146   42.8611 H   0  0  0  0  0  0  0  0  0  0  0  0
   49.4219   35.7195   40.7644 H   0  0  0  0  0  0  0  0  0  0  0  0
   43.8582   36.7241   45.0345 H   0  0  0  0  0  0  0  0  0  0  0  0
   44.8975   36.4785   42.7540 H   0  0  0  0  0  0  0  0  0  0  0  0
   45.7663   33.1666   46.3278 H   0  0  0  0  0  0  0  0  0  0  0  0
   45.2351   32.7881   38.9632 H   0  0  0  0  0  0  0  0  0  0  0  0
   46.2754   33.8515   37.8541 H   0  0  0  0  0  0  0  0  0  0  0  0
   47.2304   32.8791   36.3226 H   0  0  0  0  0  0  0  0  0  0  0  0
   49.7817   30.9315   34.9892 H   0  0  0  0  0  0  0  0  0  0  0  0
   48.3036   30.0621   34.4544 H   0  0  0  0  0  0  0  0  0  0  0  0
   48.3388   31.8580   34.4544 H   0  0  0  0  0  0  0  0  0  0  0  0
   48.1848   29.0272   38.9934 H   0  0  0  0  0  0  0  0  0  0  0  0
  1 11  1  0
  2  1  1  0
  3  2  2  0
  4  6  1  0
  4  3  1  0
  5  4  2  0
  6  7  1  0
  7  8  2  0
  7  1  1  0
  9 14  2  0
 10  9  1  0
 11 10  2  0
 11 12  1  0
 12 13  2  0
 13 14  1  0
 15  6  1  0
 16 15  1  0
 16 23  1  0
 17 16  1  0
 18 17  2  0
 18 20  1  0
 19 18  1  0
 20 22  1  0
 21 20  2  0
 22 23  1  0
 23 24  2  0
  2 25  1  0
  3 26  1  0
  9 27  1  0
 10 28  1  0
 13 29  1  0
 15 30  1  0
 15 31  1  0
 17 32  1  0
 19 33  1  0
 19 34  1  0
 19 35  1  0
 22 36  1  0
M  ISO  8  25  14  26  14  27  14  28  14  29  14  30   8  31   8  32  14
M  ISO  4  33   8  34   8  35   8  36   9
M  END
>  <minimizedAffinity>  (1) 
-5.09990311

>  <minimizedRMSD>  (1) 
1.15214491

$$$$
