
     RDKit          3D

 38 40  0  0  0  0  0  0  0  0999 V2000
   46.3910   34.4880   41.9800 N   0  0  0  0  0  0  0  0  0  0  0  0
   47.6410   35.0360   41.9320 C   0  0  0  0  0  0  0  0  0  0  0  0
   48.3960   34.9890   40.7720 C   0  0  0  0  0  0  0  0  0  0  0  0
   47.8260   34.3590   39.6610 C   0  0  0  0  0  0  0  0  0  0  0  0
   48.4930   34.3030   38.5930 O   0  0  0  0  0  0  0  0  0  0  0  0
   46.5900   33.8420   39.7840 N   0  0  0  0  0  0  0  0  0  0  0  0
   45.8920   33.9070   40.9160 C   0  0  0  0  0  0  0  0  0  0  0  0
   44.7560   33.4550   41.0850 O   0  0  0  0  0  0  0  0  0  0  0  0
   44.4960   35.9770   44.7840 C   0  0  0  0  0  0  0  0  0  0  0  0
   45.0490   35.8120   43.4950 C   0  0  0  0  0  0  0  0  0  0  0  0
   45.8230   34.6670   43.2880 C   0  0  0  0  0  0  0  0  0  0  0  0
   46.0280   33.7590   44.3010 N   0  0  0  0  0  0  0  0  0  0  0  0
   45.4580   33.9950   45.5170 C   0  0  0  0  0  0  0  0  0  0  0  0
   44.7010   35.0850   45.7650 N   0  0  0  0  0  0  0  0  0  0  0  0
   45.9980   33.2010   38.6320 C   0  0  0  0  0  0  0  0  0  0  0  0
   46.0980   31.7790   38.6110 N   0  0  0  0  0  0  0  0  0  0  0  0
   44.8910   31.0330   38.6130 C   0  0  0  0  0  0  0  0  0  0  0  0
   44.2740   31.0900   37.2210 C   0  0  0  0  0  0  0  0  0  0  0  0
   45.1430   30.2210   36.3370 C   0  0  0  0  0  0  0  0  0  0  0  0
   46.5570   30.1780   36.8090 C   0  0  0  0  0  0  0  0  0  0  0  0
   47.0040   31.4110   37.5570 C   0  0  0  0  0  0  0  0  0  0  0  0
   48.0543   35.5220   42.8281 H   0  0  0  0  0  0  0  0  0  0  0  0
   49.4030   35.4292   40.7263 H   0  0  0  0  0  0  0  0  0  0  0  0
   43.8785   36.8637   44.9899 H   0  0  0  0  0  0  0  0  0  0  0  0
   44.8791   36.5473   42.6947 H   0  0  0  0  0  0  0  0  0  0  0  0
   45.6213   33.2692   46.3273 H   0  0  0  0  0  0  0  0  0  0  0  0
   44.9312   33.4677   38.6048 H   0  0  0  0  0  0  0  0  0  0  0  0
   46.5627   33.5599   37.7589 H   0  0  0  0  0  0  0  0  0  0  0  0
   45.1035   29.9873   38.8803 H   0  0  0  0  0  0  0  0  0  0  0  0
   44.1917   31.4571   39.3486 H   0  0  0  0  0  0  0  0  0  0  0  0
   43.2451   30.7017   37.2439 H   0  0  0  0  0  0  0  0  0  0  0  0
   44.2273   32.1229   36.8456 H   0  0  0  0  0  0  0  0  0  0  0  0
   45.1227   30.6238   35.3136 H   0  0  0  0  0  0  0  0  0  0  0  0
   44.7433   29.1968   36.3706 H   0  0  0  0  0  0  0  0  0  0  0  0
   46.6704   29.3110   37.4764 H   0  0  0  0  0  0  0  0  0  0  0  0
   47.1859   30.1123   35.9089 H   0  0  0  0  0  0  0  0  0  0  0  0
   47.9940   31.2171   37.9955 H   0  0  0  0  0  0  0  0  0  0  0  0
   47.0336   32.2433   36.8384 H   0  0  0  0  0  0  0  0  0  0  0  0
  1 11  1  0
  2  1  1  0
  3  2  2  0
  4  6  1  0
  4  3  1  0
  5  4  2  0
  6  7  1  0
  7  8  2  0
  7  1  1  0
  9 14  2  0
 10  9  1  0
 11 10  2  0
 11 12  1  0
 12 13  2  0
 13 14  1  0
 15  6  1  0
 16 17  1  0
 16 15  1  0
 18 17  1  0
 19 20  1  0
 19 18  1  0
 20 21  1  0
 21 16  1  0
  2 22  1  0
  3 23  1  0
  9 24  1  0
 10 25  1  0
 13 26  1  0
 15 27  1  0
 15 28  1  0
 17 29  1  0
 17 30  1  0
 18 31  1  0
 18 32  1  0
 19 33  1  0
 19 34  1  0
 20 35  1  0
 20 36  1  0
 21 37  1  0
 21 38  1  0
M  ISO  8  22  14  23  14  24  14  25  14  26  14  27   8  28   8  29  13
M  ISO  8  30  13  31  13  32  13  33  13  34  13  35  13  36  13  37  13
M  ISO  1  38  13
M  END
>  <minimizedAffinity>  (1) 
-4.9342227

>  <minimizedRMSD>  (1) 
1.92753148

$$$$
