
     RDKit          3D

 32 34  0  0  0  0  0  0  0  0999 V2000
   46.4770   34.4840   42.0080 N   0  0  0  0  0  0  0  0  0  0  0  0
   47.6880   35.1390   41.9500 C   0  0  0  0  0  0  0  0  0  0  0  0
   48.4440   35.1370   40.8030 C   0  0  0  0  0  0  0  0  0  0  0  0
   47.9410   34.4460   39.6960 C   0  0  0  0  0  0  0  0  0  0  0  0
   48.6110   34.4280   38.6320 O   0  0  0  0  0  0  0  0  0  0  0  0
   46.7600   33.8340   39.8240 N   0  0  0  0  0  0  0  0  0  0  0  0
   46.0380   33.8470   40.9500 C   0  0  0  0  0  0  0  0  0  0  0  0
   44.9480   33.3040   41.1290 O   0  0  0  0  0  0  0  0  0  0  0  0
   44.5110   35.9170   44.7930 C   0  0  0  0  0  0  0  0  0  0  0  0
   45.0830   35.7630   43.5130 C   0  0  0  0  0  0  0  0  0  0  0  0
   45.8920   34.6410   43.3140 C   0  0  0  0  0  0  0  0  0  0  0  0
   46.0980   33.7590   44.3220 N   0  0  0  0  0  0  0  0  0  0  0  0
   45.5250   33.9530   45.5380 C   0  0  0  0  0  0  0  0  0  0  0  0
   44.7350   35.0250   45.7750 N   0  0  0  0  0  0  0  0  0  0  0  0
   46.2160   33.1090   38.6840 C   0  0  0  0  0  0  0  0  0  0  0  0
   46.8100   31.7780   38.4920 C   0  0  0  0  0  0  0  0  0  0  0  0
   46.8300   30.7680   39.4390 C   0  0  0  0  0  0  0  0  0  0  0  0
   47.3970   29.5280   39.2250 C   0  0  0  0  0  0  0  0  0  0  0  0
   47.9880   29.2490   38.0020 C   0  0  0  0  0  0  0  0  0  0  0  0
   47.9560   30.2730   37.0750 C   0  0  0  0  0  0  0  0  0  0  0  0
   47.3940   31.4710   37.3170 N   0  0  0  0  0  0  0  0  0  0  0  0
   48.0560   35.6732   42.8384 H   0  0  0  0  0  0  0  0  0  0  0  0
   49.4105   35.6602   40.7569 H   0  0  0  0  0  0  0  0  0  0  0  0
   43.8671   36.7862   44.9930 H   0  0  0  0  0  0  0  0  0  0  0  0
   44.9009   36.4916   42.7093 H   0  0  0  0  0  0  0  0  0  0  0  0
   45.7064   33.2262   46.3435 H   0  0  0  0  0  0  0  0  0  0  0  0
   45.1331   32.9876   38.8343 H   0  0  0  0  0  0  0  0  0  0  0  0
   46.4516   33.6988   37.7858 H   0  0  0  0  0  0  0  0  0  0  0  0
   46.3677   30.9651   40.4175 H   0  0  0  0  0  0  0  0  0  0  0  0
   47.3802   28.7666   40.0188 H   0  0  0  0  0  0  0  0  0  0  0  0
   48.4521   28.2758   37.7841 H   0  0  0  0  0  0  0  0  0  0  0  0
   48.4131   30.0999   36.0895 H   0  0  0  0  0  0  0  0  0  0  0  0
  1 11  1  0
  2  1  1  0
  3  2  2  0
  4  6  1  0
  4  3  1  0
  5  4  2  0
  6  7  1  0
  7  8  2  0
  7  1  1  0
  9 14  2  0
 10  9  1  0
 11 10  2  0
 11 12  1  0
 12 13  2  0
 13 14  1  0
 15  6  1  0
 16 15  1  0
 16 17  2  0
 18 17  1  0
 19 18  2  0
 20 21  2  0
 20 19  1  0
 21 16  1  0
  2 22  1  0
  3 23  1  0
  9 24  1  0
 10 25  1  0
 13 26  1  0
 15 27  1  0
 15 28  1  0
 17 29  1  0
 18 30  1  0
 19 31  1  0
 20 32  1  0
M  ISO  8  22  14  23  14  24  14  25  14  26  14  27   8  28   8  29  14
M  ISO  3  30  14  31  14  32  14
M  END
>  <minimizedAffinity>  (1) 
-4.78468657

>  <minimizedRMSD>  (1) 
3.11568213

$$$$
