
     RDKit          3D

 33 35  0  0  0  0  0  0  0  0999 V2000
   46.4650   34.5100   42.0030 N   0  0  0  0  0  0  0  0  0  0  0  0
   47.6810   35.1490   41.9590 C   0  0  0  0  0  0  0  0  0  0  0  0
   48.4470   35.1330   40.8050 C   0  0  0  0  0  0  0  0  0  0  0  0
   47.9410   34.4540   39.7000 C   0  0  0  0  0  0  0  0  0  0  0  0
   48.6150   34.4240   38.6390 O   0  0  0  0  0  0  0  0  0  0  0  0
   46.7440   33.8550   39.8220 N   0  0  0  0  0  0  0  0  0  0  0  0
   46.0170   33.8790   40.9420 C   0  0  0  0  0  0  0  0  0  0  0  0
   44.9250   33.3550   41.1100 O   0  0  0  0  0  0  0  0  0  0  0  0
   44.5150   35.9070   44.8100 C   0  0  0  0  0  0  0  0  0  0  0  0
   45.0780   35.7760   43.5220 C   0  0  0  0  0  0  0  0  0  0  0  0
   45.8750   34.6720   43.3080 C   0  0  0  0  0  0  0  0  0  0  0  0
   46.0910   33.7660   44.3170 N   0  0  0  0  0  0  0  0  0  0  0  0
   45.5210   33.9490   45.5340 C   0  0  0  0  0  0  0  0  0  0  0  0
   44.7380   35.0060   45.7910 N   0  0  0  0  0  0  0  0  0  0  0  0
   46.1970   33.1310   38.6820 C   0  0  0  0  0  0  0  0  0  0  0  0
   46.8200   31.8150   38.4650 C   0  0  0  0  0  0  0  0  0  0  0  0
   47.4260   31.4400   37.2740 C   0  0  0  0  0  0  0  0  0  0  0  0
   48.0190   30.2160   37.0380 C   0  0  0  0  0  0  0  0  0  0  0  0
   48.0160   29.2840   38.0530 C   0  0  0  0  0  0  0  0  0  0  0  0
   47.4290   29.5760   39.2810 C   0  0  0  0  0  0  0  0  0  0  0  0
   46.8600   30.8260   39.4280 C   0  0  0  0  0  0  0  0  0  0  0  0
   48.0499   35.6788   42.8497 H   0  0  0  0  0  0  0  0  0  0  0  0
   49.4224   35.6398   40.7631 H   0  0  0  0  0  0  0  0  0  0  0  0
   43.8718   36.7738   45.0221 H   0  0  0  0  0  0  0  0  0  0  0  0
   44.8904   36.5164   42.7304 H   0  0  0  0  0  0  0  0  0  0  0  0
   45.7058   33.2120   46.3294 H   0  0  0  0  0  0  0  0  0  0  0  0
   45.1199   32.9825   38.8488 H   0  0  0  0  0  0  0  0  0  0  0  0
   46.4025   33.7365   37.7869 H   0  0  0  0  0  0  0  0  0  0  0  0
   47.4344   32.1746   36.4553 H   0  0  0  0  0  0  0  0  0  0  0  0
   48.4815   29.9907   36.0657 H   0  0  0  0  0  0  0  0  0  0  0  0
   48.4816   28.3006   37.8914 H   0  0  0  0  0  0  0  0  0  0  0  0
   47.4187   28.8419   40.1001 H   0  0  0  0  0  0  0  0  0  0  0  0
   46.3971   31.0542   40.3994 H   0  0  0  0  0  0  0  0  0  0  0  0
  1 11  1  0
  2  1  1  0
  3  2  2  0
  4  6  1  0
  4  3  1  0
  5  4  2  0
  6  7  1  0
  7  8  2  0
  7  1  1  0
  9 14  2  0
 10  9  1  0
 11 10  2  0
 11 12  1  0
 12 13  2  0
 13 14  1  0
 15  6  1  0
 16 15  1  0
 16 21  1  0
 17 16  2  0
 18 17  1  0
 18 19  2  0
 19 20  1  0
 20 21  2  0
  2 22  1  0
  3 23  1  0
  9 24  1  0
 10 25  1  0
 13 26  1  0
 15 27  1  0
 15 28  1  0
 17 29  1  0
 18 30  1  0
 19 31  1  0
 20 32  1  0
 21 33  1  0
M  ISO  8  22  14  23  14  24  14  25  14  26  14  27   8  28   8  29  14
M  ISO  4  30  14  31  14  32  14  33  14
M  END
>  <minimizedAffinity>  (1) 
-4.78383636

>  <minimizedRMSD>  (1) 
0.54423219

$$$$
