
     RDKit          3D

 29 31  0  0  0  0  0  0  0  0999 V2000
   46.4350   34.4690   42.0410 N   0  0  0  0  0  0  0  0  0  0  0  0
   47.6540   35.1020   41.9870 C   0  0  0  0  0  0  0  0  0  0  0  0
   48.4050   35.0900   40.8240 C   0  0  0  0  0  0  0  0  0  0  0  0
   47.8750   34.4130   39.7130 C   0  0  0  0  0  0  0  0  0  0  0  0
   48.5360   34.3860   38.6450 O   0  0  0  0  0  0  0  0  0  0  0  0
   46.6810   33.8230   39.8500 N   0  0  0  0  0  0  0  0  0  0  0  0
   45.9730   33.8460   40.9840 C   0  0  0  0  0  0  0  0  0  0  0  0
   44.8800   33.3250   41.1630 O   0  0  0  0  0  0  0  0  0  0  0  0
   44.5020   35.9260   44.8350 C   0  0  0  0  0  0  0  0  0  0  0  0
   45.0660   35.7600   43.5550 C   0  0  0  0  0  0  0  0  0  0  0  0
   45.8620   34.6290   43.3530 C   0  0  0  0  0  0  0  0  0  0  0  0
   46.0640   33.7490   44.3620 N   0  0  0  0  0  0  0  0  0  0  0  0
   45.4990   33.9510   45.5810 C   0  0  0  0  0  0  0  0  0  0  0  0
   44.7230   35.0320   45.8150 N   0  0  0  0  0  0  0  0  0  0  0  0
   46.1240   33.1210   38.7110 C   0  0  0  0  0  0  0  0  0  0  0  0
   46.6940   31.8180   38.5050 N   0  0  0  0  0  0  0  0  0  0  0  0
   46.7960   30.7760   39.3490 C   0  0  0  0  0  0  0  0  0  0  0  0
   47.4120   29.7460   38.7180 N   0  0  0  0  0  0  0  0  0  0  0  0
   47.6890   30.1660   37.4680 C   0  0  0  0  0  0  0  0  0  0  0  0
   47.2470   31.4190   37.3650 N   0  0  0  0  0  0  0  0  0  0  0  0
   48.0366   35.6233   42.8768 H   0  0  0  0  0  0  0  0  0  0  0  0
   49.3820   35.5927   40.7717 H   0  0  0  0  0  0  0  0  0  0  0  0
   43.8692   36.8029   45.0367 H   0  0  0  0  0  0  0  0  0  0  0  0
   44.8879   36.4882   42.7500 H   0  0  0  0  0  0  0  0  0  0  0  0
   45.6757   33.2248   46.3881 H   0  0  0  0  0  0  0  0  0  0  0  0
   45.0414   33.0064   38.8683 H   0  0  0  0  0  0  0  0  0  0  0  0
   46.3551   33.7198   37.8177 H   0  0  0  0  0  0  0  0  0  0  0  0
   46.4361   30.7615   40.3884 H   0  0  0  0  0  0  0  0  0  0  0  0
   48.1872   29.5831   36.6793 H   0  0  0  0  0  0  0  0  0  0  0  0
  1 11  1  0
  2  1  1  0
  3  2  2  0
  4  6  1  0
  4  3  1  0
  5  4  2  0
  6  7  1  0
  7  8  2  0
  7  1  1  0
  9 14  2  0
 10  9  1  0
 11 10  2  0
 11 12  1  0
 12 13  2  0
 13 14  1  0
 15  6  1  0
 16 15  1  0
 16 17  1  0
 18 17  2  0
 19 18  1  0
 20 19  2  0
 20 16  1  0
  2 21  1  0
  3 22  1  0
  9 23  1  0
 10 24  1  0
 13 25  1  0
 15 26  1  0
 15 27  1  0
 17 28  1  0
 19 29  1  0
M  ISO  8  21  14  22  14  23  14  24  14  25  14  26   8  27   8  28  14
M  ISO  1  29  14
M  END
>  <minimizedAffinity>  (1) 
-4.75536919

>  <minimizedRMSD>  (1) 
0.339191228

$$$$
