
     RDKit          3D

 25 26  0  0  0  0  0  0  0  0999 V2000
   46.4120   34.4610   42.0390 N   0  0  0  0  0  0  0  0  0  0  0  0
   47.6310   35.1030   41.9790 C   0  0  0  0  0  0  0  0  0  0  0  0
   48.3870   35.0820   40.8200 C   0  0  0  0  0  0  0  0  0  0  0  0
   47.8710   34.3890   39.7200 C   0  0  0  0  0  0  0  0  0  0  0  0
   48.5320   34.3500   38.6530 O   0  0  0  0  0  0  0  0  0  0  0  0
   46.6790   33.7950   39.8650 N   0  0  0  0  0  0  0  0  0  0  0  0
   45.9600   33.8230   40.9870 C   0  0  0  0  0  0  0  0  0  0  0  0
   44.8700   33.2970   41.1680 O   0  0  0  0  0  0  0  0  0  0  0  0
   44.4910   35.9520   44.8230 C   0  0  0  0  0  0  0  0  0  0  0  0
   45.0560   35.7640   43.5470 C   0  0  0  0  0  0  0  0  0  0  0  0
   45.8390   34.6380   43.3460 C   0  0  0  0  0  0  0  0  0  0  0  0
   46.0380   33.7620   44.3610 N   0  0  0  0  0  0  0  0  0  0  0  0
   45.4700   33.9900   45.5780 C   0  0  0  0  0  0  0  0  0  0  0  0
   44.7050   35.0680   45.8090 N   0  0  0  0  0  0  0  0  0  0  0  0
   46.1150   33.0640   38.7280 C   0  0  0  0  0  0  0  0  0  0  0  0
   46.5410   31.6950   38.8590 N   0  0  0  0  0  0  0  0  0  0  0  0
   48.0071   35.6384   42.8633 H   0  0  0  0  0  0  0  0  0  0  0  0
   49.3598   35.5925   40.7657 H   0  0  0  0  0  0  0  0  0  0  0  0
   43.8653   36.8363   45.0140 H   0  0  0  0  0  0  0  0  0  0  0  0
   44.8817   36.4869   42.7364 H   0  0  0  0  0  0  0  0  0  0  0  0
   45.6430   33.2715   46.3928 H   0  0  0  0  0  0  0  0  0  0  0  0
   46.4874   33.4875   37.7836 H   0  0  0  0  0  0  0  0  0  0  0  0
   45.0174   33.1359   38.7186 H   0  0  0  0  0  0  0  0  0  0  0  0
   46.6163   31.4529   39.8573 H   0  0  0  0  0  0  0  0  0  0  0  0
   45.8527   31.0765   38.4067 H   0  0  0  0  0  0  0  0  0  0  0  0
  1 11  1  0
  2  1  1  0
  3  2  2  0
  4  6  1  0
  4  3  1  0
  5  4  2  0
  6  7  1  0
  7  8  2  0
  7  1  1  0
  9 14  2  0
 10  9  1  0
 11 10  2  0
 11 12  1  0
 12 13  2  0
 13 14  1  0
 15 16  1  0
 15  6  1  0
  2 17  1  0
  3 18  1  0
  9 19  1  0
 10 20  1  0
 13 21  1  0
 15 22  1  0
 15 23  1  0
 16 24  1  0
 16 25  1  0
M  ISO  8  17  14  18  14  19  14  20  14  21  14  22   8  23   8  24   5
M  ISO  1  25   5
M  END
>  <minimizedAffinity>  (1) 
-4.72552395

>  <minimizedRMSD>  (1) 
0.0631930083

$$$$
