
     RDKit          3D

 30 32  0  0  0  0  0  0  0  0999 V2000
   46.4250   34.3190   42.0790 N   0  0  0  0  0  0  0  0  0  0  0  0
   47.5420   35.1050   41.9030 C   0  0  0  0  0  0  0  0  0  0  0  0
   48.2770   35.0510   40.7460 C   0  0  0  0  0  0  0  0  0  0  0  0
   47.8570   34.1730   39.7500 C   0  0  0  0  0  0  0  0  0  0  0  0
   48.5050   34.0980   38.6820 O   0  0  0  0  0  0  0  0  0  0  0  0
   46.7630   33.4380   39.9850 N   0  0  0  0  0  0  0  0  0  0  0  0
   46.0520   33.4980   41.1190 C   0  0  0  0  0  0  0  0  0  0  0  0
   45.0480   32.8560   41.3960 O   0  0  0  0  0  0  0  0  0  0  0  0
   44.4760   35.9500   44.7640 C   0  0  0  0  0  0  0  0  0  0  0  0
   45.0460   35.7090   43.4980 C   0  0  0  0  0  0  0  0  0  0  0  0
   45.8390   34.5670   43.3720 C   0  0  0  0  0  0  0  0  0  0  0  0
   46.0350   33.7450   44.4330 N   0  0  0  0  0  0  0  0  0  0  0  0
   45.4640   34.0190   45.6320 C   0  0  0  0  0  0  0  0  0  0  0  0
   44.6960   35.1010   45.8030 N   0  0  0  0  0  0  0  0  0  0  0  0
   46.2940   32.5040   38.9590 C   0  0  0  0  0  0  0  0  0  0  0  0
   45.2360   33.0560   38.0770 C   0  0  0  0  0  0  0  0  0  0  0  0
   45.5550   32.9770   36.5690 C   0  0  0  0  0  0  0  0  0  0  0  0
   44.5000   32.1470   37.1910 C   0  0  0  0  0  0  0  0  0  0  0  0
   47.8511   35.7899   42.7064 H   0  0  0  0  0  0  0  0  0  0  0  0
   49.1687   35.6805   40.6095 H   0  0  0  0  0  0  0  0  0  0  0  0
   43.8440   36.8378   44.9138 H   0  0  0  0  0  0  0  0  0  0  0  0
   44.8744   36.3881   42.6498 H   0  0  0  0  0  0  0  0  0  0  0  0
   45.6354   33.3391   46.4796 H   0  0  0  0  0  0  0  0  0  0  0  0
   47.1522   32.2190   38.3327 H   0  0  0  0  0  0  0  0  0  0  0  0
   45.8516   31.6469   39.4879 H   0  0  0  0  0  0  0  0  0  0  0  0
   44.9284   33.8232   38.8028 H   0  0  0  0  0  0  0  0  0  0  0  0
   46.4921   32.5165   36.2229 H   0  0  0  0  0  0  0  0  0  0  0  0
   45.6073   33.6922   35.7349 H   0  0  0  0  0  0  0  0  0  0  0  0
   43.4441   32.3526   36.9612 H   0  0  0  0  0  0  0  0  0  0  0  0
   44.2985   31.0658   37.2111 H   0  0  0  0  0  0  0  0  0  0  0  0
  1 11  1  0
  2  1  1  0
  3  2  2  0
  4  6  1  0
  4  3  1  0
  5  4  2  0
  6  7  1  0
  7  8  2  0
  7  1  1  0
  9 14  2  0
 10  9  1  0
 11 10  2  0
 11 12  1  0
 12 13  2  0
 13 14  1  0
 15  6  1  0
 16 15  1  0
 17 18  1  0
 17 16  1  0
 18 16  1  0
  2 19  1  0
  3 20  1  0
  9 21  1  0
 10 22  1  0
 13 23  1  0
 15 24  1  0
 15 25  1  0
 16 26  1  0
 17 27  1  0
 17 28  1  0
 18 29  1  0
 18 30  1  0
M  ISO  8  19  14  20  14  21  14  22  14  23  14  24   8  25   8  26  13
M  ISO  4  27  13  28  13  29  13  30  13
M  END
>  <minimizedAffinity>  (1) 
-4.714077

>  <minimizedRMSD>  (1) 
0.420677274

$$$$
