
     RDKit          3D

 31 33  0  0  0  0  0  0  0  0999 V2000
   46.5120   34.5060   42.0170 N   0  0  0  0  0  0  0  0  0  0  0  0
   47.7100   35.1740   41.9640 C   0  0  0  0  0  0  0  0  0  0  0  0
   48.4690   35.1860   40.8170 C   0  0  0  0  0  0  0  0  0  0  0  0
   47.9780   34.4890   39.7010 C   0  0  0  0  0  0  0  0  0  0  0  0
   48.6430   34.4780   38.6440 O   0  0  0  0  0  0  0  0  0  0  0  0
   46.8020   33.8610   39.8310 N   0  0  0  0  0  0  0  0  0  0  0  0
   46.0810   33.8630   40.9580 C   0  0  0  0  0  0  0  0  0  0  0  0
   45.0020   33.3040   41.1200 O   0  0  0  0  0  0  0  0  0  0  0  0
   44.5090   35.9070   44.7920 C   0  0  0  0  0  0  0  0  0  0  0  0
   45.0950   35.7580   43.5180 C   0  0  0  0  0  0  0  0  0  0  0  0
   45.9180   34.6480   43.3200 C   0  0  0  0  0  0  0  0  0  0  0  0
   46.1340   33.7570   44.3270 N   0  0  0  0  0  0  0  0  0  0  0  0
   45.5450   33.9460   45.5360 C   0  0  0  0  0  0  0  0  0  0  0  0
   44.7450   34.9980   45.7760 N   0  0  0  0  0  0  0  0  0  0  0  0
   46.2750   33.1320   38.6840 C   0  0  0  0  0  0  0  0  0  0  0  0
   46.5290   31.6880   38.7590 C   0  0  0  0  0  0  0  0  0  0  0  0
   47.7900   31.1350   38.7810 C   0  0  0  0  0  0  0  0  0  0  0  0
   47.9620   29.7670   38.8520 C   0  0  0  0  0  0  0  0  0  0  0  0
   46.8710   28.9830   38.9000 N   0  0  0  0  0  0  0  0  0  0  0  0
   45.6140   29.5130   38.8790 C   0  0  0  0  0  0  0  0  0  0  0  0
   45.4820   30.8490   38.8100 N   0  0  0  0  0  0  0  0  0  0  0  0
   48.0696   35.7095   42.8551 H   0  0  0  0  0  0  0  0  0  0  0  0
   49.4280   35.7233   40.7752 H   0  0  0  0  0  0  0  0  0  0  0  0
   43.8539   36.7677   44.9922 H   0  0  0  0  0  0  0  0  0  0  0  0
   44.9113   36.4859   42.7140 H   0  0  0  0  0  0  0  0  0  0  0  0
   45.7279   33.2181   46.3402 H   0  0  0  0  0  0  0  0  0  0  0  0
   46.7474   33.5245   37.7714 H   0  0  0  0  0  0  0  0  0  0  0  0
   45.1844   33.2753   38.6745 H   0  0  0  0  0  0  0  0  0  0  0  0
   48.6716   31.7917   38.7415 H   0  0  0  0  0  0  0  0  0  0  0  0
   48.9704   29.3278   38.8689 H   0  0  0  0  0  0  0  0  0  0  0  0
   44.7284   28.8617   38.9177 H   0  0  0  0  0  0  0  0  0  0  0  0
  1 11  1  0
  2  1  1  0
  3  2  2  0
  4  6  1  0
  4  3  1  0
  5  4  2  0
  6  7  1  0
  7  8  2  0
  7  1  1  0
  9 14  2  0
 10  9  1  0
 11 10  2  0
 11 12  1  0
 12 13  2  0
 13 14  1  0
 15 16  1  0
 15  6  1  0
 16 17  2  0
 16 21  1  0
 17 18  1  0
 18 19  2  0
 20 19  1  0
 21 20  2  0
  2 22  1  0
  3 23  1  0
  9 24  1  0
 10 25  1  0
 13 26  1  0
 15 27  1  0
 15 28  1  0
 17 29  1  0
 18 30  1  0
 20 31  1  0
M  ISO  8  22  14  23  14  24  14  25  14  26  14  27   8  28   8  29  14
M  ISO  2  30  14  31  14
M  END
>  <minimizedAffinity>  (1) 
-4.69142818

>  <minimizedRMSD>  (1) 
3.0784719

$$$$
