
     RDKit          3D

 30 32  0  0  0  0  0  0  0  0999 V2000
   46.6380   34.1270   42.2650 N   0  0  0  0  0  0  0  0  0  0  0  0
   47.5770   35.0870   41.9710 C   0  0  0  0  0  0  0  0  0  0  0  0
   48.3590   35.0030   40.8460 C   0  0  0  0  0  0  0  0  0  0  0  0
   48.1630   33.8940   40.0070 C   0  0  0  0  0  0  0  0  0  0  0  0
   48.8630   33.7890   38.9710 O   0  0  0  0  0  0  0  0  0  0  0  0
   47.2390   33.0060   40.3550 N   0  0  0  0  0  0  0  0  0  0  0  0
   46.4810   33.1040   41.4600 C   0  0  0  0  0  0  0  0  0  0  0  0
   45.6190   32.3190   41.8270 O   0  0  0  0  0  0  0  0  0  0  0  0
   44.4770   35.9070   44.6830 C   0  0  0  0  0  0  0  0  0  0  0  0
   45.1380   35.5870   43.4800 C   0  0  0  0  0  0  0  0  0  0  0  0
   45.9600   34.4570   43.4930 C   0  0  0  0  0  0  0  0  0  0  0  0
   46.1020   33.7190   44.6220 N   0  0  0  0  0  0  0  0  0  0  0  0
   45.4370   34.0760   45.7570 C   0  0  0  0  0  0  0  0  0  0  0  0
   44.6360   35.1560   45.7870 N   0  0  0  0  0  0  0  0  0  0  0  0
   47.0170   31.8440   39.4980 C   0  0  0  0  0  0  0  0  0  0  0  0
   46.3760   32.2150   38.2510 N   0  0  0  0  0  0  0  0  0  0  0  0
   46.7980   31.9780   37.0170 N   0  0  0  0  0  0  0  0  0  0  0  0
   45.9160   32.4860   36.1360 C   0  0  0  0  0  0  0  0  0  0  0  0
   44.8720   33.0830   36.8490 C   0  0  0  0  0  0  0  0  0  0  0  0
   45.2110   32.8840   38.1600 C   0  0  0  0  0  0  0  0  0  0  0  0
   47.7045   35.9412   42.6522 H   0  0  0  0  0  0  0  0  0  0  0  0
   49.1087   35.7730   40.6112 H   0  0  0  0  0  0  0  0  0  0  0  0
   43.8188   36.7876   44.7194 H   0  0  0  0  0  0  0  0  0  0  0  0
   45.0128   36.1978   42.5738 H   0  0  0  0  0  0  0  0  0  0  0  0
   45.5578   33.4689   46.6663 H   0  0  0  0  0  0  0  0  0  0  0  0
   47.9864   31.3744   39.2752 H   0  0  0  0  0  0  0  0  0  0  0  0
   46.3551   31.1452   40.0305 H   0  0  0  0  0  0  0  0  0  0  0  0
   46.0021   32.4393   35.0404 H   0  0  0  0  0  0  0  0  0  0  0  0
   43.9839   33.5942   36.4490 H   0  0  0  0  0  0  0  0  0  0  0  0
   44.6147   33.2234   39.0198 H   0  0  0  0  0  0  0  0  0  0  0  0
  1 11  1  0
  2  1  1  0
  3  2  2  0
  4  6  1  0
  4  3  1  0
  5  4  2  0
  6  7  1  0
  7  8  2  0
  7  1  1  0
  9 14  2  0
 10 11  2  0
 10  9  1  0
 11 12  1  0
 12 13  2  0
 13 14  1  0
 15  6  1  0
 16 15  1  0
 17 16  1  0
 18 19  1  0
 18 17  2  0
 19 20  2  0
 20 16  1  0
  2 21  1  0
  3 22  1  0
  9 23  1  0
 10 24  1  0
 13 25  1  0
 15 26  1  0
 15 27  1  0
 18 28  1  0
 19 29  1  0
 20 30  1  0
M  ISO  8  21  14  22  14  23  14  24  14  25  14  26   8  27   8  28  14
M  ISO  2  29  14  30  14
M  END
>  <minimizedAffinity>  (1) 
-4.5653367

>  <minimizedRMSD>  (1) 
1.38407981

$$$$
