
     RDKit          3D

 37 40  0  0  0  0  0  0  0  0999 V2000
   47.5890   33.7470   42.5150 N   0  0  0  0  0  0  0  0  0  0  0  0
   48.8360   34.1120   42.9800 C   0  0  0  0  0  0  0  0  0  0  0  0
   49.9880   33.6210   42.4080 C   0  0  0  0  0  0  0  0  0  0  0  0
   49.8530   32.7280   41.3270 C   0  0  0  0  0  0  0  0  0  0  0  0
   50.8770   32.2590   40.7790 O   0  0  0  0  0  0  0  0  0  0  0  0
   48.6040   32.4210   40.9320 N   0  0  0  0  0  0  0  0  0  0  0  0
   47.5030   32.9210   41.5160 C   0  0  0  0  0  0  0  0  0  0  0  0
   46.3580   32.6660   41.1870 O   0  0  0  0  0  0  0  0  0  0  0  0
   44.9930   36.1820   43.4960 C   0  0  0  0  0  0  0  0  0  0  0  0
   46.0010   35.5420   42.7550 C   0  0  0  0  0  0  0  0  0  0  0  0
   46.5650   34.3870   43.2740 C   0  0  0  0  0  0  0  0  0  0  0  0
   46.1240   33.9180   44.4700 N   0  0  0  0  0  0  0  0  0  0  0  0
   45.1460   34.5580   45.1630 C   0  0  0  0  0  0  0  0  0  0  0  0
   44.5830   35.6830   44.6810 N   0  0  0  0  0  0  0  0  0  0  0  0
   48.4290   31.5010   39.8160 C   0  0  0  0  0  0  0  0  0  0  0  0
   48.4340   32.1220   38.5170 C   0  0  0  0  0  0  0  0  0  0  0  0
   48.4210   33.3910   38.0810 C   0  0  0  0  0  0  0  0  0  0  0  0
   48.4290   33.6980   36.7590 C   0  0  0  0  0  0  0  0  0  0  0  0
   48.4500   32.6190   35.8410 C   0  0  0  0  0  0  0  0  0  0  0  0
   48.4600   31.1660   37.0150 S   0  0  0  0  0  0  0  0  0  0  0  0
   48.4630   32.5860   34.4350 C   0  0  0  0  0  0  0  0  0  0  0  0
   49.4520   32.8700   33.5170 C   0  0  0  0  0  0  0  0  0  0  0  0
   48.9280   32.6740   32.2640 C   0  0  0  0  0  0  0  0  0  0  0  0
   47.6480   32.2790   32.4390 N   0  0  0  0  0  0  0  0  0  0  0  0
   47.3740   32.2280   33.7360 N   0  0  0  0  0  0  0  0  0  0  0  0
   48.9112   34.8106   43.8263 H   0  0  0  0  0  0  0  0  0  0  0  0
   50.9795   33.9158   42.7822 H   0  0  0  0  0  0  0  0  0  0  0  0
   44.5323   37.1013   43.1052 H   0  0  0  0  0  0  0  0  0  0  0  0
   46.3339   35.9471   41.7880 H   0  0  0  0  0  0  0  0  0  0  0  0
   44.8100   34.1528   46.1289 H   0  0  0  0  0  0  0  0  0  0  0  0
   49.2463   30.7654   39.8471 H   0  0  0  0  0  0  0  0  0  0  0  0
   47.4340   31.0485   39.9399 H   0  0  0  0  0  0  0  0  0  0  0  0
   48.4033   34.2076   38.8178 H   0  0  0  0  0  0  0  0  0  0  0  0
   48.4196   34.7425   36.4141 H   0  0  0  0  0  0  0  0  0  0  0  0
   50.4771   33.1953   33.7478 H   0  0  0  0  0  0  0  0  0  0  0  0
   49.4484   32.8116   31.3047 H   0  0  0  0  0  0  0  0  0  0  0  0
   46.9869   32.0524   31.6823 H   0  0  0  0  0  0  0  0  0  0  0  0
  1  2  1  0
  1 11  1  0
  3  2  2  0
  4  3  1  0
  5  4  2  0
  6  4  1  0
  6  7  1  0
  7  1  1  0
  8  7  2  0
  9 14  2  0
 10 11  2  0
 10  9  1  0
 11 12  1  0
 12 13  2  0
 14 13  1  0
 15  6  1  0
 16 15  1  0
 17 16  2  0
 18 17  1  0
 19 18  2  0
 19 20  1  0
 20 16  1  0
 21 19  1  0
 22 21  1  0
 23 24  1  0
 23 22  2  0
 24 25  1  0
 25 21  2  0
  2 26  1  0
  3 27  1  0
  9 28  1  0
 10 29  1  0
 13 30  1  0
 15 31  1  0
 15 32  1  0
 17 33  1  0
 18 34  1  0
 22 35  1  0
 23 36  1  0
 24 37  1  0
M  ISO  8  26  14  27  14  28  14  29  14  30  14  31   8  32   8  33  14
M  ISO  4  34  14  35  14  36  14  37   9
M  END
>  <minimizedAffinity>  (1) 
-5.90140438

>  <minimizedRMSD>  (1) 
2.87858152

$$$$
