
     RDKit          3D

 38 41  0  0  0  0  0  0  0  0999 V2000
   47.6090   33.7190   42.5650 N   0  0  0  0  0  0  0  0  0  0  0  0
   48.8510   34.1590   42.9790 C   0  0  0  0  0  0  0  0  0  0  0  0
   50.0100   33.6700   42.4050 C   0  0  0  0  0  0  0  0  0  0  0  0
   49.8880   32.7150   41.3930 C   0  0  0  0  0  0  0  0  0  0  0  0
   50.9200   32.2540   40.8540 O   0  0  0  0  0  0  0  0  0  0  0  0
   48.6450   32.3350   41.0410 N   0  0  0  0  0  0  0  0  0  0  0  0
   47.5540   32.8300   41.6180 C   0  0  0  0  0  0  0  0  0  0  0  0
   46.3930   32.5140   41.3330 O   0  0  0  0  0  0  0  0  0  0  0  0
   45.0010   36.1720   43.4590 C   0  0  0  0  0  0  0  0  0  0  0  0
   46.0160   35.5190   42.7480 C   0  0  0  0  0  0  0  0  0  0  0  0
   46.5810   34.3640   43.2980 C   0  0  0  0  0  0  0  0  0  0  0  0
   46.1250   33.9190   44.5010 N   0  0  0  0  0  0  0  0  0  0  0  0
   45.1350   34.5780   45.1660 C   0  0  0  0  0  0  0  0  0  0  0  0
   44.5780   35.7040   44.6390 N   0  0  0  0  0  0  0  0  0  0  0  0
   48.4820   31.3430   39.9880 C   0  0  0  0  0  0  0  0  0  0  0  0
   48.4840   31.8770   38.6630 C   0  0  0  0  0  0  0  0  0  0  0  0
   48.4820   33.1130   38.1370 C   0  0  0  0  0  0  0  0  0  0  0  0
   48.4720   33.3350   36.7740 C   0  0  0  0  0  0  0  0  0  0  0  0
   48.4670   32.1840   35.9660 C   0  0  0  0  0  0  0  0  0  0  0  0
   48.4750   30.8060   37.2120 S   0  0  0  0  0  0  0  0  0  0  0  0
   48.4560   32.0840   34.4960 C   0  0  0  0  0  0  0  0  0  0  0  0
   47.9780   30.9680   33.8950 C   0  0  0  0  0  0  0  0  0  0  0  0
   48.0230   30.9960   32.5180 C   0  0  0  0  0  0  0  0  0  0  0  0
   48.5050   32.0560   31.8480 N   0  0  0  0  0  0  0  0  0  0  0  0
   48.9720   33.1490   32.4790 C   0  0  0  0  0  0  0  0  0  0  0  0
   48.9380   33.1420   33.8430 N   0  0  0  0  0  0  0  0  0  0  0  0
   48.9193   34.9111   43.7788 H   0  0  0  0  0  0  0  0  0  0  0  0
   50.9983   34.0224   42.7353 H   0  0  0  0  0  0  0  0  0  0  0  0
   44.5454   37.0820   43.0415 H   0  0  0  0  0  0  0  0  0  0  0  0
   46.3612   35.9063   41.7780 H   0  0  0  0  0  0  0  0  0  0  0  0
   44.7827   34.1977   46.1362 H   0  0  0  0  0  0  0  0  0  0  0  0
   49.3066   30.6194   40.0676 H   0  0  0  0  0  0  0  0  0  0  0  0
   47.4923   30.8873   40.1392 H   0  0  0  0  0  0  0  0  0  0  0  0
   48.4886   33.9786   38.8157 H   0  0  0  0  0  0  0  0  0  0  0  0
   48.4682   34.3488   36.3470 H   0  0  0  0  0  0  0  0  0  0  0  0
   47.5859   30.1095   34.4601 H   0  0  0  0  0  0  0  0  0  0  0  0
   47.6545   30.1275   31.9524 H   0  0  0  0  0  0  0  0  0  0  0  0
   49.3642   34.0109   31.9193 H   0  0  0  0  0  0  0  0  0  0  0  0
  1  2  1  0
  1 11  1  0
  3  2  2  0
  4  3  1  0
  5  4  2  0
  6  4  1  0
  6  7  1  0
  7  1  1  0
  8  7  2  0
  9 14  2  0
 10 11  2  0
 10  9  1  0
 11 12  1  0
 12 13  2  0
 14 13  1  0
 15  6  1  0
 16 15  1  0
 17 16  2  0
 18 17  1  0
 19 18  2  0
 19 20  1  0
 20 16  1  0
 21 19  1  0
 22 21  2  0
 23 22  1  0
 24 25  1  0
 24 23  2  0
 25 26  2  0
 26 21  1  0
  2 27  1  0
  3 28  1  0
  9 29  1  0
 10 30  1  0
 13 31  1  0
 15 32  1  0
 15 33  1  0
 17 34  1  0
 18 35  1  0
 22 36  1  0
 23 37  1  0
 25 38  1  0
M  ISO  8  27  14  28  14  29  14  30  14  31  14  32   8  33   8  34  14
M  ISO  4  35  14  36  14  37  14  38  14
M  END
>  <minimizedAffinity>  (1) 
-5.75836229

>  <minimizedRMSD>  (1) 
2.96420789

$$$$
