
     RDKit          3D

 42 45  0  0  0  0  0  0  0  0999 V2000
   47.6110   33.7370   42.5580 N   0  0  0  0  0  0  0  0  0  0  0  0
   48.8530   34.1570   42.9900 C   0  0  0  0  0  0  0  0  0  0  0  0
   50.0120   33.6710   42.4170 C   0  0  0  0  0  0  0  0  0  0  0  0
   49.8900   32.7360   41.3810 C   0  0  0  0  0  0  0  0  0  0  0  0
   50.9250   32.2790   40.8450 O   0  0  0  0  0  0  0  0  0  0  0  0
   48.6430   32.3770   41.0170 N   0  0  0  0  0  0  0  0  0  0  0  0
   47.5530   32.8680   41.5930 C   0  0  0  0  0  0  0  0  0  0  0  0
   46.3950   32.5680   41.2930 O   0  0  0  0  0  0  0  0  0  0  0  0
   44.9980   36.1790   43.4700 C   0  0  0  0  0  0  0  0  0  0  0  0
   46.0140   35.5350   42.7520 C   0  0  0  0  0  0  0  0  0  0  0  0
   46.5810   34.3760   43.2980 C   0  0  0  0  0  0  0  0  0  0  0  0
   46.1290   33.9160   44.4990 N   0  0  0  0  0  0  0  0  0  0  0  0
   45.1360   34.5730   45.1670 C   0  0  0  0  0  0  0  0  0  0  0  0
   44.5750   35.6980   44.6540 N   0  0  0  0  0  0  0  0  0  0  0  0
   48.4840   31.4070   39.9400 C   0  0  0  0  0  0  0  0  0  0  0  0
   48.5200   31.9600   38.6200 C   0  0  0  0  0  0  0  0  0  0  0  0
   48.4110   33.1990   38.1200 C   0  0  0  0  0  0  0  0  0  0  0  0
   48.4760   33.4510   36.7640 C   0  0  0  0  0  0  0  0  0  0  0  0
   48.6650   32.3240   35.9310 C   0  0  0  0  0  0  0  0  0  0  0  0
   48.7410   30.9210   37.1680 S   0  0  0  0  0  0  0  0  0  0  0  0
   48.7660   32.2770   34.5510 N   0  0  0  0  0  0  0  0  0  0  0  0
   47.9350   32.7140   33.4340 C   0  0  0  0  0  0  0  0  0  0  0  0
   48.9200   33.1460   32.3660 C   0  0  0  0  0  0  0  0  0  0  0  0
   50.0320   32.1530   32.5410 C   0  0  0  0  0  0  0  0  0  0  0  0
   49.9500   31.6620   33.9690 C   0  0  0  0  0  0  0  0  0  0  0  0
   48.9209   34.8921   43.8055 H   0  0  0  0  0  0  0  0  0  0  0  0
   51.0002   34.0077   42.7634 H   0  0  0  0  0  0  0  0  0  0  0  0
   44.5392   37.0910   43.0603 H   0  0  0  0  0  0  0  0  0  0  0  0
   46.3578   35.9292   41.7843 H   0  0  0  0  0  0  0  0  0  0  0  0
   44.7853   34.1853   46.1349 H   0  0  0  0  0  0  0  0  0  0  0  0
   49.2948   30.6683   40.0231 H   0  0  0  0  0  0  0  0  0  0  0  0
   47.4821   30.9701   40.0640 H   0  0  0  0  0  0  0  0  0  0  0  0
   48.2652   34.0416   38.8119 H   0  0  0  0  0  0  0  0  0  0  0  0
   48.3861   34.4685   36.3557 H   0  0  0  0  0  0  0  0  0  0  0  0
   47.3074   31.8868   33.0708 H   0  0  0  0  0  0  0  0  0  0  0  0
   47.2485   33.5249   33.7189 H   0  0  0  0  0  0  0  0  0  0  0  0
   49.2718   34.1736   32.5399 H   0  0  0  0  0  0  0  0  0  0  0  0
   48.4946   33.1588   31.3517 H   0  0  0  0  0  0  0  0  0  0  0  0
   49.9043   31.3128   31.8426 H   0  0  0  0  0  0  0  0  0  0  0  0
   51.0103   32.6114   32.3340 H   0  0  0  0  0  0  0  0  0  0  0  0
   49.8577   30.5661   33.9892 H   0  0  0  0  0  0  0  0  0  0  0  0
   50.8552   31.9295   34.5339 H   0  0  0  0  0  0  0  0  0  0  0  0
  1  2  1  0
  1 11  1  0
  3  2  2  0
  4  3  1  0
  5  4  2  0
  6  4  1  0
  6  7  1  0
  7  1  1  0
  8  7  2  0
  9 14  2  0
 10 11  2  0
 10  9  1  0
 11 12  1  0
 12 13  2  0
 14 13  1  0
 15  6  1  0
 16 15  1  0
 17 16  2  0
 18 17  1  0
 19 18  2  0
 19 20  1  0
 20 16  1  0
 21 19  1  0
 22 21  1  0
 23 24  1  0
 23 22  1  0
 24 25  1  0
 25 21  1  0
  2 26  1  0
  3 27  1  0
  9 28  1  0
 10 29  1  0
 13 30  1  0
 15 31  1  0
 15 32  1  0
 17 33  1  0
 18 34  1  0
 22 35  1  0
 22 36  1  0
 23 37  1  0
 23 38  1  0
 24 39  1  0
 24 40  1  0
 25 41  1  0
 25 42  1  0
M  ISO  8  26  14  27  14  28  14  29  14  30  14  31   8  32   8  33  14
M  ISO  8  34  14  35  13  36  13  37  13  38  13  39  13  40  13  41  13
M  ISO  1  42  13
M  END
>  <minimizedAffinity>  (1) 
-5.61649275

>  <minimizedRMSD>  (1) 
3.06349897

$$$$
