
     RDKit          3D

 33 36  0  0  0  0  0  0  0  0999 V2000
   46.5440   34.6750   42.1050 C   0  0  0  0  0  0  0  0  0  0  0  0
   47.8050   35.2140   41.9450 C   0  0  0  0  0  0  0  0  0  0  0  0
   48.5360   35.0600   40.7610 C   0  0  0  0  0  0  0  0  0  0  0  0
   47.9880   34.3460   39.7030 C   0  0  0  0  0  0  0  0  0  0  0  0
   46.7210   33.8050   39.8650 C   0  0  0  0  0  0  0  0  0  0  0  0
   46.0310   33.9760   41.0440 C   0  0  0  0  0  0  0  0  0  0  0  0
   44.4480   36.0690   44.8950 C   0  0  0  0  0  0  0  0  0  0  0  0
   45.0450   35.9860   43.6150 C   0  0  0  0  0  0  0  0  0  0  0  0
   45.8690   34.8880   43.3660 C   0  0  0  0  0  0  0  0  0  0  0  0
   46.0540   33.9740   44.3360 N   0  0  0  0  0  0  0  0  0  0  0  0
   45.4710   34.0780   45.5540 C   0  0  0  0  0  0  0  0  0  0  0  0
   44.6680   35.1320   45.8210 N   0  0  0  0  0  0  0  0  0  0  0  0
   44.7310   33.4070   41.1770 N   0  0  0  0  0  0  0  0  0  0  0  0
   44.5570   32.1500   41.6480 C   0  0  0  0  0  0  0  0  0  0  0  0
   43.2490   31.8430   41.6790 N   0  0  0  0  0  0  0  0  0  0  0  0
   42.5650   32.9150   41.2220 C   0  0  0  0  0  0  0  0  0  0  0  0
   41.2070   33.1910   41.0260 C   0  0  0  0  0  0  0  0  0  0  0  0
   40.9080   34.4090   40.5380 N   0  0  0  0  0  0  0  0  0  0  0  0
   41.8310   35.3430   40.2400 C   0  0  0  0  0  0  0  0  0  0  0  0
   43.1630   35.1000   40.4210 N   0  0  0  0  0  0  0  0  0  0  0  0
   43.5060   33.8760   40.9150 C   0  0  0  0  0  0  0  0  0  0  0  0
   40.2310   32.2050   41.3410 N   0  0  0  0  0  0  0  0  0  0  0  0
   48.2497   35.7829   42.7748 H   0  0  0  0  0  0  0  0  0  0  0  0
   49.5390   35.5021   40.6690 H   0  0  0  0  0  0  0  0  0  0  0  0
   48.5433   34.2133   38.7628 H   0  0  0  0  0  0  0  0  0  0  0  0
   46.2633   33.2340   39.0437 H   0  0  0  0  0  0  0  0  0  0  0  0
   43.7917   36.9195   45.1315 H   0  0  0  0  0  0  0  0  0  0  0  0
   44.8670   36.7547   42.8485 H   0  0  0  0  0  0  0  0  0  0  0  0
   45.6498   33.3099   46.3208 H   0  0  0  0  0  0  0  0  0  0  0  0
   45.3690   31.4769   41.9603 H   0  0  0  0  0  0  0  0  0  0  0  0
   41.5073   36.3171   39.8446 H   0  0  0  0  0  0  0  0  0  0  0  0
   39.2310   32.4059   41.1976 H   0  0  0  0  0  0  0  0  0  0  0  0
   40.5244   31.2902   41.7125 H   0  0  0  0  0  0  0  0  0  0  0  0
  1  9  1  0
  2  1  2  0
  3  2  1  0
  4  5  1  0
  4  3  2  0
  5  6  2  0
  6 13  1  0
  6  1  1  0
  7 12  2  0
  8  7  1  0
  9  8  2  0
  9 10  1  0
 10 11  2  0
 11 12  1  0
 13 14  1  0
 14 15  2  0
 16 15  1  0
 17 16  2  0
 17 22  1  0
 18 17  1  0
 19 20  1  0
 19 18  2  0
 20 21  2  0
 21 13  1  0
 21 16  1  0
  2 23  1  0
  3 24  1  0
  4 25  1  0
  5 26  1  0
  7 27  1  0
  8 28  1  0
 11 29  1  0
 14 30  1  0
 19 31  1  0
 22 32  1  0
 22 33  1  0
M  ISO  8  23  14  24  14  25  14  26  14  27  14  28  14  29  14  30  14
M  ISO  1  31  14
M  END
>  <minimizedAffinity>  (1) 
-6.5399065

>  <minimizedRMSD>  (1) 
1.25846565

$$$$
