
     RDKit          3D

 37 40  0  0  0  0  0  0  0  0999 V2000
   47.5280   33.7140   42.4910 N   0  0  0  0  0  0  0  0  0  0  0  0
   48.7880   34.0860   42.9030 C   0  0  0  0  0  0  0  0  0  0  0  0
   49.9210   33.5790   42.3050 C   0  0  0  0  0  0  0  0  0  0  0  0
   49.7490   32.6620   41.2490 C   0  0  0  0  0  0  0  0  0  0  0  0
   50.7560   32.1810   40.6800 O   0  0  0  0  0  0  0  0  0  0  0  0
   48.4860   32.3450   40.8990 N   0  0  0  0  0  0  0  0  0  0  0  0
   47.4230   32.8650   41.5120 C   0  0  0  0  0  0  0  0  0  0  0  0
   46.2530   32.6040   41.2260 O   0  0  0  0  0  0  0  0  0  0  0  0
   44.9970   36.2050   43.5030 C   0  0  0  0  0  0  0  0  0  0  0  0
   45.9830   35.5450   42.7480 C   0  0  0  0  0  0  0  0  0  0  0  0
   46.5290   34.3720   43.2640 C   0  0  0  0  0  0  0  0  0  0  0  0
   46.0950   33.9120   44.4680 N   0  0  0  0  0  0  0  0  0  0  0  0
   45.1390   34.5770   45.1710 C   0  0  0  0  0  0  0  0  0  0  0  0
   44.5930   35.7140   44.6950 N   0  0  0  0  0  0  0  0  0  0  0  0
   48.2680   31.4010   39.8120 C   0  0  0  0  0  0  0  0  0  0  0  0
   48.3950   31.9670   38.4970 C   0  0  0  0  0  0  0  0  0  0  0  0
   48.2250   33.1900   37.9710 C   0  0  0  0  0  0  0  0  0  0  0  0
   48.4200   33.4460   36.6540 C   0  0  0  0  0  0  0  0  0  0  0  0
   48.8160   32.3640   35.8330 C   0  0  0  0  0  0  0  0  0  0  0  0
   48.8820   30.9780   37.0890 S   0  0  0  0  0  0  0  0  0  0  0  0
   49.0810   32.3530   34.4550 N   0  0  0  0  0  0  0  0  0  0  0  0
   48.5590   33.1030   33.4650 C   0  0  0  0  0  0  0  0  0  0  0  0
   49.1660   32.6860   32.3070 C   0  0  0  0  0  0  0  0  0  0  0  0
   50.0480   31.6960   32.5800 N   0  0  0  0  0  0  0  0  0  0  0  0
   49.9900   31.4980   33.9010 C   0  0  0  0  0  0  0  0  0  0  0  0
   48.8925   34.8049   43.7290 H   0  0  0  0  0  0  0  0  0  0  0  0
   50.9247   33.8795   42.6402 H   0  0  0  0  0  0  0  0  0  0  0  0
   44.5490   37.1329   43.1180 H   0  0  0  0  0  0  0  0  0  0  0  0
   46.3136   35.9437   41.7776 H   0  0  0  0  0  0  0  0  0  0  0  0
   44.8066   34.1813   46.1420 H   0  0  0  0  0  0  0  0  0  0  0  0
   49.0038   30.5891   39.9092 H   0  0  0  0  0  0  0  0  0  0  0  0
   47.2287   31.0526   39.9037 H   0  0  0  0  0  0  0  0  0  0  0  0
   47.9166   34.0136   38.6317 H   0  0  0  0  0  0  0  0  0  0  0  0
   48.2760   34.4550   36.2402 H   0  0  0  0  0  0  0  0  0  0  0  0
   47.7986   33.8916   33.5649 H   0  0  0  0  0  0  0  0  0  0  0  0
   48.9656   33.0953   31.3058 H   0  0  0  0  0  0  0  0  0  0  0  0
   50.5845   30.7583   34.4572 H   0  0  0  0  0  0  0  0  0  0  0  0
  1  2  1  0
  1 11  1  0
  3  2  2  0
  4  3  1  0
  5  4  2  0
  6  4  1  0
  6  7  1  0
  7  1  1  0
  8  7  2  0
  9 14  2  0
 10 11  2  0
 10  9  1  0
 11 12  1  0
 12 13  2  0
 14 13  1  0
 15  6  1  0
 16 15  1  0
 17 16  2  0
 18 17  1  0
 19 18  2  0
 19 20  1  0
 20 16  1  0
 21 19  1  0
 22 21  1  0
 23 24  1  0
 23 22  2  0
 24 25  2  0
 25 21  1  0
  2 26  1  0
  3 27  1  0
  9 28  1  0
 10 29  1  0
 13 30  1  0
 15 31  1  0
 15 32  1  0
 17 33  1  0
 18 34  1  0
 22 35  1  0
 23 36  1  0
 25 37  1  0
M  ISO  8  26  14  27  14  28  14  29  14  30  14  31   8  32   8  33  14
M  ISO  4  34  14  35  14  36  14  37  14
M  END
>  <minimizedAffinity>  (1) 
-5.43872452

>  <minimizedRMSD>  (1) 
3.19707108

$$$$
