
     RDKit          3D

 36 39  0  0  0  0  0  0  0  0999 V2000
   47.2280   33.1210   43.4320 N   0  0  0  0  0  0  0  0  0  0  0  0
   48.2630   34.0230   43.4780 C   0  0  0  0  0  0  0  0  0  0  0  0
   48.6610   34.7080   42.3350 C   0  0  0  0  0  0  0  0  0  0  0  0
   47.9770   34.4510   41.1410 C   0  0  0  0  0  0  0  0  0  0  0  0
   48.3170   35.0550   40.0980 O   0  0  0  0  0  0  0  0  0  0  0  0
   46.9750   33.5530   41.1830 N   0  0  0  0  0  0  0  0  0  0  0  0
   46.6240   32.9190   42.3000 C   0  0  0  0  0  0  0  0  0  0  0  0
   45.7120   32.0900   42.3770 O   0  0  0  0  0  0  0  0  0  0  0  0
   46.0330   32.7380   46.9010 C   0  0  0  0  0  0  0  0  0  0  0  0
   46.2600   33.2810   45.6260 C   0  0  0  0  0  0  0  0  0  0  0  0
   47.0080   32.5500   44.7190 C   0  0  0  0  0  0  0  0  0  0  0  0
   47.4950   31.3360   45.0870 N   0  0  0  0  0  0  0  0  0  0  0  0
   47.2580   30.8370   46.3280 C   0  0  0  0  0  0  0  0  0  0  0  0
   46.5330   31.5280   47.2320 N   0  0  0  0  0  0  0  0  0  0  0  0
   46.2470   33.2720   39.9460 C   0  0  0  0  0  0  0  0  0  0  0  0
   44.9050   33.7710   39.9140 C   0  0  0  0  0  0  0  0  0  0  0  0
   44.2390   34.7440   40.5520 C   0  0  0  0  0  0  0  0  0  0  0  0
   42.9260   35.0000   40.3220 C   0  0  0  0  0  0  0  0  0  0  0  0
   42.2700   34.1830   39.3600 C   0  0  0  0  0  0  0  0  0  0  0  0
   43.6770   33.0540   38.8410 S   0  0  0  0  0  0  0  0  0  0  0  0
   40.9690   34.1770   38.9010 N   0  0  0  0  0  0  0  0  0  0  0  0
   40.4470   34.7980   37.8140 C   0  0  0  0  0  0  0  0  0  0  0  0
   39.1220   34.5280   37.7330 N   0  0  0  0  0  0  0  0  0  0  0  0
   38.8300   33.7280   38.7870 C   0  0  0  0  0  0  0  0  0  0  0  0
   39.9660   33.5440   39.4620 N   0  0  0  0  0  0  0  0  0  0  0  0
   48.7830   34.2056   44.4300 H   0  0  0  0  0  0  0  0  0  0  0  0
   49.4894   35.4309   42.3682 H   0  0  0  0  0  0  0  0  0  0  0  0
   45.4425   33.3035   47.6369 H   0  0  0  0  0  0  0  0  0  0  0  0
   45.8523   34.2658   45.3539 H   0  0  0  0  0  0  0  0  0  0  0  0
   47.6645   29.8519   46.6008 H   0  0  0  0  0  0  0  0  0  0  0  0
   46.8013   33.7264   39.1116 H   0  0  0  0  0  0  0  0  0  0  0  0
   46.1728   32.1770   39.8715 H   0  0  0  0  0  0  0  0  0  0  0  0
   44.7768   35.3579   41.2895 H   0  0  0  0  0  0  0  0  0  0  0  0
   42.3940   35.8020   40.8548 H   0  0  0  0  0  0  0  0  0  0  0  0
   41.0121   35.4239   37.1076 H   0  0  0  0  0  0  0  0  0  0  0  0
   37.8441   33.3099   39.0382 H   0  0  0  0  0  0  0  0  0  0  0  0
  1  2  1  0
  1 11  1  0
  3  2  2  0
  4  6  1  0
  4  3  1  0
  5  4  2  0
  6  7  1  0
  7  8  2  0
  7  1  1  0
  9 14  2  0
 10  9  1  0
 11 12  1  0
 11 10  2  0
 12 13  2  0
 13 14  1  0
 15  6  1  0
 16 15  1  0
 16 17  2  0
 18 17  1  0
 19 18  2  0
 20 19  1  0
 20 16  1  0
 21 19  1  0
 21 25  1  0
 22 21  1  0
 23 22  2  0
 23 24  1  0
 24 25  2  0
  2 26  1  0
  3 27  1  0
  9 28  1  0
 10 29  1  0
 13 30  1  0
 15 31  1  0
 15 32  1  0
 17 33  1  0
 18 34  1  0
 22 35  1  0
 24 36  1  0
M  ISO  8  26  14  27  14  28  14  29  14  30  14  31   8  32   8  33  14
M  ISO  3  34  14  35  14  36  14
M  END
>  <minimizedAffinity>  (1) 
-5.22446775

>  <minimizedRMSD>  (1) 
4.07863474

$$$$
