
     RDKit          3D

 33 35  0  0  0  0  0  0  0  0999 V2000
   46.6330   34.0380   42.2590 N   0  0  0  0  0  0  0  0  0  0  0  0
   47.4970   35.0320   41.8630 C   0  0  0  0  0  0  0  0  0  0  0  0
   48.2670   34.8980   40.7140 C   0  0  0  0  0  0  0  0  0  0  0  0
   48.1310   33.7150   39.9720 C   0  0  0  0  0  0  0  0  0  0  0  0
   48.8130   33.5680   38.9330 O   0  0  0  0  0  0  0  0  0  0  0  0
   47.2670   32.7960   40.4240 N   0  0  0  0  0  0  0  0  0  0  0  0
   46.5500   32.9650   41.5300 C   0  0  0  0  0  0  0  0  0  0  0  0
   45.7460   32.1420   41.9770 O   0  0  0  0  0  0  0  0  0  0  0  0
   44.4880   35.9080   44.6000 C   0  0  0  0  0  0  0  0  0  0  0  0
   45.1540   35.5290   43.4250 C   0  0  0  0  0  0  0  0  0  0  0  0
   45.9660   34.4050   43.4530 C   0  0  0  0  0  0  0  0  0  0  0  0
   46.0910   33.7050   44.6240 N   0  0  0  0  0  0  0  0  0  0  0  0
   45.4280   34.1050   45.7450 C   0  0  0  0  0  0  0  0  0  0  0  0
   44.6350   35.1920   45.7390 N   0  0  0  0  0  0  0  0  0  0  0  0
   47.1090   31.5600   39.6710 C   0  0  0  0  0  0  0  0  0  0  0  0
   46.2580   31.6610   38.5170 C   0  0  0  0  0  0  0  0  0  0  0  0
   44.9960   32.0550   38.2990 C   0  0  0  0  0  0  0  0  0  0  0  0
   44.4340   32.0370   37.0630 C   0  0  0  0  0  0  0  0  0  0  0  0
   45.2440   31.5800   36.0000 C   0  0  0  0  0  0  0  0  0  0  0  0
   46.8330   31.1860   36.8800 S   0  0  0  0  0  0  0  0  0  0  0  0
   44.9240   31.4470   34.5780 C   0  0  0  0  0  0  0  0  0  0  0  0
   45.7500   30.5790   33.8970 F   0  0  0  0  0  0  0  0  0  0  0  0
   45.0870   32.7300   34.0360 F   0  0  0  0  0  0  0  0  0  0  0  0
   43.6000   31.1360   34.4470 F   0  0  0  0  0  0  0  0  0  0  0  0
   47.5799   35.9484   42.4658 H   0  0  0  0  0  0  0  0  0  0  0  0
   48.9592   35.6920   40.3971 H   0  0  0  0  0  0  0  0  0  0  0  0
   43.8395   36.7965   44.5956 H   0  0  0  0  0  0  0  0  0  0  0  0
   45.0346   36.1118   42.4997 H   0  0  0  0  0  0  0  0  0  0  0  0
   45.5434   33.5275   46.6740 H   0  0  0  0  0  0  0  0  0  0  0  0
   48.1045   31.2348   39.3345 H   0  0  0  0  0  0  0  0  0  0  0  0
   46.6247   30.8434   40.3507 H   0  0  0  0  0  0  0  0  0  0  0  0
   44.3944   32.4051   39.1508 H   0  0  0  0  0  0  0  0  0  0  0  0
   43.3966   32.3630   36.8974 H   0  0  0  0  0  0  0  0  0  0  0  0
  1 11  1  0
  2  1  1  0
  3  2  2  0
  4  6  1  0
  4  3  1  0
  5  4  2  0
  6  7  1  0
  7  8  2  0
  7  1  1  0
  9 14  2  0
 10 11  2  0
 10  9  1  0
 11 12  1  0
 12 13  2  0
 14 13  1  0
 15  6  1  0
 16 15  1  0
 17 16  2  0
 18 17  1  0
 19 20  1  0
 19 18  2  0
 20 16  1  0
 21 19  1  0
 22 21  1  0
 23 21  1  0
 24 21  1  0
  2 25  1  0
  3 26  1  0
  9 27  1  0
 10 28  1  0
 13 29  1  0
 15 30  1  0
 15 31  1  0
 17 32  1  0
 18 33  1  0
M  ISO  8  25  14  26  14  27  14  28  14  29  14  30   8  31   8  32  14
M  ISO  1  33  14
M  END
>  <minimizedAffinity>  (1) 
-5.12126493

>  <minimizedRMSD>  (1) 
0.49301973

$$$$
