
     RDKit          3D

 32 34  0  0  0  0  0  0  0  0999 V2000
   46.6210   34.0470   42.2160 N   0  0  0  0  0  0  0  0  0  0  0  0
   47.5070   35.0330   41.8430 C   0  0  0  0  0  0  0  0  0  0  0  0
   48.2660   34.9210   40.6920 C   0  0  0  0  0  0  0  0  0  0  0  0
   48.0990   33.7580   39.9120 C   0  0  0  0  0  0  0  0  0  0  0  0
   48.7730   33.6260   38.8630 O   0  0  0  0  0  0  0  0  0  0  0  0
   47.2190   32.8490   40.3450 N   0  0  0  0  0  0  0  0  0  0  0  0
   46.5070   32.9960   41.4610 C   0  0  0  0  0  0  0  0  0  0  0  0
   45.6930   32.1850   41.8880 O   0  0  0  0  0  0  0  0  0  0  0  0
   44.4870   35.8820   44.6060 C   0  0  0  0  0  0  0  0  0  0  0  0
   45.1410   35.5240   43.4140 C   0  0  0  0  0  0  0  0  0  0  0  0
   45.9690   34.3940   43.4220 C   0  0  0  0  0  0  0  0  0  0  0  0
   46.0970   33.7070   44.5800 N   0  0  0  0  0  0  0  0  0  0  0  0
   45.4530   34.0770   45.7150 C   0  0  0  0  0  0  0  0  0  0  0  0
   44.6540   35.1570   45.7310 N   0  0  0  0  0  0  0  0  0  0  0  0
   47.0320   31.6380   39.5560 C   0  0  0  0  0  0  0  0  0  0  0  0
   46.1000   31.7550   38.4700 C   0  0  0  0  0  0  0  0  0  0  0  0
   44.7710   31.9100   38.3820 C   0  0  0  0  0  0  0  0  0  0  0  0
   44.1250   31.9870   37.1920 C   0  0  0  0  0  0  0  0  0  0  0  0
   44.9240   31.8950   36.0290 C   0  0  0  0  0  0  0  0  0  0  0  0
   46.6430   31.6940   36.7740 S   0  0  0  0  0  0  0  0  0  0  0  0
   44.4890   31.9470   34.6700 N   0  0  0  0  0  0  0  0  0  0  0  0
   47.6134   35.9282   42.4734 H   0  0  0  0  0  0  0  0  0  0  0  0
   48.9734   35.7097   40.3961 H   0  0  0  0  0  0  0  0  0  0  0  0
   43.8307   36.7647   44.6213 H   0  0  0  0  0  0  0  0  0  0  0  0
   45.0058   36.1168   42.4973 H   0  0  0  0  0  0  0  0  0  0  0  0
   45.5865   33.4859   46.6330 H   0  0  0  0  0  0  0  0  0  0  0  0
   48.0078   31.3500   39.1378 H   0  0  0  0  0  0  0  0  0  0  0  0
   46.6100   30.8885   40.2417 H   0  0  0  0  0  0  0  0  0  0  0  0
   44.1830   31.9772   39.3092 H   0  0  0  0  0  0  0  0  0  0  0  0
   43.0339   32.1146   37.1344 H   0  0  0  0  0  0  0  0  0  0  0  0
   43.4888   32.0637   34.4535 H   0  0  0  0  0  0  0  0  0  0  0  0
   45.1754   31.8678   33.9062 H   0  0  0  0  0  0  0  0  0  0  0  0
  1 11  1  0
  2  1  1  0
  3  2  2  0
  4  6  1  0
  4  3  1  0
  5  4  2  0
  6  7  1  0
  7  8  2  0
  7  1  1  0
  9 14  2  0
 10 11  2  0
 10  9  1  0
 11 12  1  0
 12 13  2  0
 13 14  1  0
 15  6  1  0
 16 15  1  0
 17 16  2  0
 18 17  1  0
 19 20  1  0
 19 18  2  0
 20 16  1  0
 21 19  1  0
  2 22  1  0
  3 23  1  0
  9 24  1  0
 10 25  1  0
 13 26  1  0
 15 27  1  0
 15 28  1  0
 17 29  1  0
 18 30  1  0
 21 31  1  0
 21 32  1  0
M  ISO  8  22  14  23  14  24  14  25  14  26  14  27   8  28   8  29  14
M  ISO  1  30  14
M  END
>  <minimizedAffinity>  (1) 
-5.00755501

>  <minimizedRMSD>  (1) 
0.1716737

$$$$
