
     RDKit          3D

 34 37  0  0  0  0  0  0  0  0999 V2000
   46.5840   34.6760   42.1090 C   0  0  0  0  0  0  0  0  0  0  0  0
   47.7910   35.2850   41.9230 C   0  0  0  0  0  0  0  0  0  0  0  0
   48.5220   35.1600   40.7430 C   0  0  0  0  0  0  0  0  0  0  0  0
   48.0050   34.3810   39.7000 C   0  0  0  0  0  0  0  0  0  0  0  0
   46.7830   33.7630   39.8830 C   0  0  0  0  0  0  0  0  0  0  0  0
   46.1000   33.9170   41.0670 C   0  0  0  0  0  0  0  0  0  0  0  0
   44.8080   33.2650   41.2630 C   0  0  0  0  0  0  0  0  0  0  0  0
   44.6030   31.9850   41.7870 C   0  0  0  0  0  0  0  0  0  0  0  0
   43.2560   31.8500   41.7610 N   0  0  0  0  0  0  0  0  0  0  0  0
   42.6370   32.9190   41.2760 C   0  0  0  0  0  0  0  0  0  0  0  0
   41.3220   33.2690   41.0500 C   0  0  0  0  0  0  0  0  0  0  0  0
   41.0030   34.5070   40.5120 C   0  0  0  0  0  0  0  0  0  0  0  0
   41.9830   35.4230   40.1870 C   0  0  0  0  0  0  0  0  0  0  0  0
   43.3070   35.0960   40.4040 C   0  0  0  0  0  0  0  0  0  0  0  0
   43.5990   33.8500   40.9450 C   0  0  0  0  0  0  0  0  0  0  0  0
   44.4450   35.9920   44.9080 C   0  0  0  0  0  0  0  0  0  0  0  0
   45.0480   35.9220   43.6410 C   0  0  0  0  0  0  0  0  0  0  0  0
   45.9010   34.8660   43.3700 C   0  0  0  0  0  0  0  0  0  0  0  0
   46.1210   33.9350   44.3460 N   0  0  0  0  0  0  0  0  0  0  0  0
   45.5170   34.0370   45.5640 C   0  0  0  0  0  0  0  0  0  0  0  0
   44.6900   35.0580   45.8320 N   0  0  0  0  0  0  0  0  0  0  0  0
   48.2035   35.8992   42.7370 H   0  0  0  0  0  0  0  0  0  0  0  0
   49.4922   35.6664   40.6322 H   0  0  0  0  0  0  0  0  0  0  0  0
   48.5591   34.2640   38.7570 H   0  0  0  0  0  0  0  0  0  0  0  0
   46.3549   33.1459   39.0793 H   0  0  0  0  0  0  0  0  0  0  0  0
   45.3548   31.2619   42.1362 H   0  0  0  0  0  0  0  0  0  0  0  0
   42.7630   31.0054   42.0841 H   0  0  0  0  0  0  0  0  0  0  0  0
   40.5189   32.5597   41.2988 H   0  0  0  0  0  0  0  0  0  0  0  0
   39.9473   34.7641   40.3408 H   0  0  0  0  0  0  0  0  0  0  0  0
   41.7130   36.4005   39.7608 H   0  0  0  0  0  0  0  0  0  0  0  0
   44.1106   35.8045   40.1547 H   0  0  0  0  0  0  0  0  0  0  0  0
   43.7644   36.8239   45.1419 H   0  0  0  0  0  0  0  0  0  0  0  0
   44.8465   36.6904   42.8801 H   0  0  0  0  0  0  0  0  0  0  0  0
   45.7098   33.2751   46.3336 H   0  0  0  0  0  0  0  0  0  0  0  0
  1 18  1  0
  2  1  2  0
  3  2  1  0
  4  5  1  0
  4  3  2  0
  5  6  2  0
  6  7  1  0
  6  1  1  0
  7  8  2  0
  9  8  1  0
 10  9  1  0
 11 10  2  0
 12 11  1  0
 13 14  1  0
 13 12  2  0
 14 15  2  0
 15  7  1  0
 15 10  1  0
 16 21  2  0
 17 16  1  0
 18 17  2  0
 18 19  1  0
 19 20  2  0
 20 21  1  0
  2 22  1  0
  3 23  1  0
  4 24  1  0
  5 25  1  0
  8 26  1  0
  9 27  1  0
 11 28  1  0
 12 29  1  0
 13 30  1  0
 14 31  1  0
 16 32  1  0
 17 33  1  0
 20 34  1  0
M  ISO  8  22  14  23  14  24  14  25  14  26  14  27   9  28  14  29  14
M  ISO  5  30  14  31  14  32  14  33  14  34  14
M  END
>  <minimizedAffinity>  (1) 
-6.53969765

>  <minimizedRMSD>  (1) 
0.833559573

$$$$
