
     RDKit          3D

 37 40  0  0  0  0  0  0  0  0999 V2000
   46.6590   34.1350   42.2970 N   0  0  0  0  0  0  0  0  0  0  0  0
   47.5840   35.1080   41.9850 C   0  0  0  0  0  0  0  0  0  0  0  0
   48.3700   35.0130   40.8510 C   0  0  0  0  0  0  0  0  0  0  0  0
   48.1930   33.8920   40.0260 C   0  0  0  0  0  0  0  0  0  0  0  0
   48.8910   33.7810   38.9920 O   0  0  0  0  0  0  0  0  0  0  0  0
   47.2710   32.9880   40.3950 N   0  0  0  0  0  0  0  0  0  0  0  0
   46.5390   33.1200   41.4950 C   0  0  0  0  0  0  0  0  0  0  0  0
   45.6810   32.3150   41.8740 O   0  0  0  0  0  0  0  0  0  0  0  0
   44.4780   35.9020   44.6960 C   0  0  0  0  0  0  0  0  0  0  0  0
   45.1510   35.5740   43.5070 C   0  0  0  0  0  0  0  0  0  0  0  0
   45.9830   34.4570   43.5000 C   0  0  0  0  0  0  0  0  0  0  0  0
   46.1050   33.7310   44.6450 N   0  0  0  0  0  0  0  0  0  0  0  0
   45.4350   34.0820   45.7800 C   0  0  0  0  0  0  0  0  0  0  0  0
   44.6250   35.1650   45.8010 N   0  0  0  0  0  0  0  0  0  0  0  0
   47.0630   31.8160   39.5600 C   0  0  0  0  0  0  0  0  0  0  0  0
   46.3480   32.0700   38.3400 C   0  0  0  0  0  0  0  0  0  0  0  0
   45.2530   32.7710   38.0080 C   0  0  0  0  0  0  0  0  0  0  0  0
   44.7790   32.8370   36.7210 C   0  0  0  0  0  0  0  0  0  0  0  0
   45.5140   32.1180   35.7570 C   0  0  0  0  0  0  0  0  0  0  0  0
   46.8810   31.3670   36.7650 S   0  0  0  0  0  0  0  0  0  0  0  0
   45.4140   31.8910   34.3320 C   0  0  0  0  0  0  0  0  0  0  0  0
   46.1800   30.7660   33.7690 C   0  0  0  0  0  0  0  0  0  0  0  0
   44.7150   30.6310   33.8120 C   0  0  0  0  0  0  0  0  0  0  0  0
   47.6992   35.9763   42.6504 H   0  0  0  0  0  0  0  0  0  0  0  0
   49.1087   35.7898   40.6043 H   0  0  0  0  0  0  0  0  0  0  0  0
   43.8179   36.7817   44.7177 H   0  0  0  0  0  0  0  0  0  0  0  0
   45.0236   36.1858   42.6018 H   0  0  0  0  0  0  0  0  0  0  0  0
   45.5550   33.4763   46.6903 H   0  0  0  0  0  0  0  0  0  0  0  0
   48.0479   31.4006   39.3003 H   0  0  0  0  0  0  0  0  0  0  0  0
   46.4428   31.1218   40.1460 H   0  0  0  0  0  0  0  0  0  0  0  0
   44.7138   33.3142   38.7981 H   0  0  0  0  0  0  0  0  0  0  0  0
   43.8809   33.4154   36.4585 H   0  0  0  0  0  0  0  0  0  0  0  0
   45.3138   32.9683   34.1334 H   0  0  0  0  0  0  0  0  0  0  0  0
   46.8015   30.1469   34.4327 H   0  0  0  0  0  0  0  0  0  0  0  0
   46.9296   30.6798   32.9686 H   0  0  0  0  0  0  0  0  0  0  0  0
   44.1282   30.6672   32.8823 H   0  0  0  0  0  0  0  0  0  0  0  0
   44.0055   29.8991   34.2254 H   0  0  0  0  0  0  0  0  0  0  0  0
  1 11  1  0
  2  1  1  0
  3  2  2  0
  4  6  1  0
  4  3  1  0
  5  4  2  0
  6  7  1  0
  7  8  2  0
  7  1  1  0
  9 14  2  0
 10  9  1  0
 11 10  2  0
 11 12  1  0
 12 13  2  0
 13 14  1  0
 15  6  1  0
 16 15  1  0
 17 16  2  0
 18 17  1  0
 19 18  2  0
 19 20  1  0
 20 16  1  0
 21 19  1  0
 22 23  1  0
 22 21  1  0
 23 21  1  0
  2 24  1  0
  3 25  1  0
  9 26  1  0
 10 27  1  0
 13 28  1  0
 15 29  1  0
 15 30  1  0
 17 31  1  0
 18 32  1  0
 21 33  1  0
 22 34  1  0
 22 35  1  0
 23 36  1  0
 23 37  1  0
M  ISO  8  24  14  25  14  26  14  27  14  28  14  29   8  30   8  31  14
M  ISO  6  32  14  33  13  34  13  35  13  36  13  37  13
M  END
>  <minimizedAffinity>  (1) 
-4.91302109

>  <minimizedRMSD>  (1) 
0.89978236

$$$$
