
     RDKit          3D

 36 38  0  0  0  0  0  0  0  0999 V2000
   46.6780   34.1070   42.2660 N   0  0  0  0  0  0  0  0  0  0  0  0
   47.5670   35.1060   41.9210 C   0  0  0  0  0  0  0  0  0  0  0  0
   48.3440   35.0170   40.7850 C   0  0  0  0  0  0  0  0  0  0  0  0
   48.1960   33.8700   39.9910 C   0  0  0  0  0  0  0  0  0  0  0  0
   48.8930   33.7660   38.9530 O   0  0  0  0  0  0  0  0  0  0  0  0
   47.3050   32.9330   40.3940 N   0  0  0  0  0  0  0  0  0  0  0  0
   46.5790   33.0610   41.4930 C   0  0  0  0  0  0  0  0  0  0  0  0
   45.7640   32.2430   41.8960 O   0  0  0  0  0  0  0  0  0  0  0  0
   44.4820   35.8780   44.6410 C   0  0  0  0  0  0  0  0  0  0  0  0
   45.1580   35.5440   43.4620 C   0  0  0  0  0  0  0  0  0  0  0  0
   46.0010   34.4280   43.4700 C   0  0  0  0  0  0  0  0  0  0  0  0
   46.1280   33.7180   44.6200 N   0  0  0  0  0  0  0  0  0  0  0  0
   45.4500   34.0790   45.7470 C   0  0  0  0  0  0  0  0  0  0  0  0
   44.6330   35.1520   45.7520 N   0  0  0  0  0  0  0  0  0  0  0  0
   47.1410   31.7380   39.5790 C   0  0  0  0  0  0  0  0  0  0  0  0
   46.3420   31.9220   38.3980 C   0  0  0  0  0  0  0  0  0  0  0  0
   45.0600   32.2310   38.1600 C   0  0  0  0  0  0  0  0  0  0  0  0
   44.5520   32.3400   36.8920 C   0  0  0  0  0  0  0  0  0  0  0  0
   45.4670   32.1070   35.8460 C   0  0  0  0  0  0  0  0  0  0  0  0
   47.0460   31.7340   36.7490 S   0  0  0  0  0  0  0  0  0  0  0  0
   45.2960   32.1290   34.4210 C   0  0  0  0  0  0  0  0  0  0  0  0
   44.7230   30.8060   33.9620 C   0  0  0  0  0  0  0  0  0  0  0  0
   47.6573   35.9921   42.5664 H   0  0  0  0  0  0  0  0  0  0  0  0
   49.0517   35.8138   40.5124 H   0  0  0  0  0  0  0  0  0  0  0  0
   43.8153   36.7529   44.6530 H   0  0  0  0  0  0  0  0  0  0  0  0
   45.0293   36.1454   42.5500 H   0  0  0  0  0  0  0  0  0  0  0  0
   45.5714   33.4861   46.6656 H   0  0  0  0  0  0  0  0  0  0  0  0
   48.1390   31.3958   39.2678 H   0  0  0  0  0  0  0  0  0  0  0  0
   46.6083   31.0061   40.2039 H   0  0  0  0  0  0  0  0  0  0  0  0
   44.3899   32.4037   39.0151 H   0  0  0  0  0  0  0  0  0  0  0  0
   43.4983   32.5930   36.7029 H   0  0  0  0  0  0  0  0  0  0  0  0
   44.6075   32.9418   34.1467 H   0  0  0  0  0  0  0  0  0  0  0  0
   46.2698   32.2948   33.9371 H   0  0  0  0  0  0  0  0  0  0  0  0
   44.4591   30.1967   34.8390 H   0  0  0  0  0  0  0  0  0  0  0  0
   43.8225   30.9867   33.3567 H   0  0  0  0  0  0  0  0  0  0  0  0
   45.4708   30.2728   33.3567 H   0  0  0  0  0  0  0  0  0  0  0  0
  1 11  1  0
  2  1  1  0
  3  2  2  0
  4  6  1  0
  4  3  1  0
  5  4  2  0
  6  7  1  0
  7  8  2  0
  7  1  1  0
  9 14  2  0
 10 11  2  0
 10  9  1  0
 11 12  1  0
 12 13  2  0
 13 14  1  0
 15  6  1  0
 16 15  1  0
 17 16  2  0
 18 17  1  0
 19 20  1  0
 19 18  2  0
 20 16  1  0
 21 19  1  0
 22 21  1  0
  2 23  1  0
  3 24  1  0
  9 25  1  0
 10 26  1  0
 13 27  1  0
 15 28  1  0
 15 29  1  0
 17 30  1  0
 18 31  1  0
 21 32  1  0
 21 33  1  0
 22 34  1  0
 22 35  1  0
 22 36  1  0
M  ISO  8  23  14  24  14  25  14  26  14  27  14  28   8  29   8  30  14
M  ISO  6  31  14  32   8  33   8  34   8  35   8  36   8
M  END
>  <minimizedAffinity>  (1) 
-4.7828331

>  <minimizedRMSD>  (1) 
0.481079936

$$$$
