
     RDKit          3D

 33 35  0  0  0  0  0  0  0  0999 V2000
   46.6650   34.1000   42.2710 N   0  0  0  0  0  0  0  0  0  0  0  0
   47.5550   35.0960   41.9240 C   0  0  0  0  0  0  0  0  0  0  0  0
   48.3350   35.0000   40.7850 C   0  0  0  0  0  0  0  0  0  0  0  0
   48.1870   33.8490   39.9910 C   0  0  0  0  0  0  0  0  0  0  0  0
   48.8780   33.7310   38.9520 O   0  0  0  0  0  0  0  0  0  0  0  0
   47.2990   32.9240   40.3990 N   0  0  0  0  0  0  0  0  0  0  0  0
   46.5660   33.0510   41.5010 C   0  0  0  0  0  0  0  0  0  0  0  0
   45.7500   32.2390   41.9090 O   0  0  0  0  0  0  0  0  0  0  0  0
   44.4790   35.8930   44.6480 C   0  0  0  0  0  0  0  0  0  0  0  0
   45.1540   35.5500   43.4640 C   0  0  0  0  0  0  0  0  0  0  0  0
   45.9900   34.4300   43.4730 C   0  0  0  0  0  0  0  0  0  0  0  0
   46.1210   33.7100   44.6300 N   0  0  0  0  0  0  0  0  0  0  0  0
   45.4470   34.0760   45.7590 C   0  0  0  0  0  0  0  0  0  0  0  0
   44.6320   35.1650   45.7590 N   0  0  0  0  0  0  0  0  0  0  0  0
   47.1310   31.7250   39.5900 C   0  0  0  0  0  0  0  0  0  0  0  0
   46.3550   31.9100   38.4000 C   0  0  0  0  0  0  0  0  0  0  0  0
   45.1070   32.3190   38.1250 C   0  0  0  0  0  0  0  0  0  0  0  0
   44.6100   32.3930   36.8490 C   0  0  0  0  0  0  0  0  0  0  0  0
   45.4960   32.0120   35.8250 C   0  0  0  0  0  0  0  0  0  0  0  0
   47.0410   31.5520   36.7730 S   0  0  0  0  0  0  0  0  0  0  0  0
   45.2200   31.9970   34.3670 C   0  0  0  0  0  0  0  0  0  0  0  0
   47.6463   35.9845   42.5660 H   0  0  0  0  0  0  0  0  0  0  0  0
   49.0445   35.7947   40.5109 H   0  0  0  0  0  0  0  0  0  0  0  0
   43.8167   36.7712   44.6608 H   0  0  0  0  0  0  0  0  0  0  0  0
   45.0272   36.1496   42.5506 H   0  0  0  0  0  0  0  0  0  0  0  0
   45.5641   33.4840   46.6787 H   0  0  0  0  0  0  0  0  0  0  0  0
   48.1288   31.3672   39.2963 H   0  0  0  0  0  0  0  0  0  0  0  0
   46.5791   31.0051   40.2122 H   0  0  0  0  0  0  0  0  0  0  0  0
   44.4530   32.6080   38.9609 H   0  0  0  0  0  0  0  0  0  0  0  0
   43.5837   32.7290   36.6396 H   0  0  0  0  0  0  0  0  0  0  0  0
   44.1344   31.9380   34.1999 H   0  0  0  0  0  0  0  0  0  0  0  0
   45.6118   32.9178   33.9102 H   0  0  0  0  0  0  0  0  0  0  0  0
   45.7093   31.1241   33.9102 H   0  0  0  0  0  0  0  0  0  0  0  0
  1 11  1  0
  2  1  1  0
  3  2  2  0
  4  6  1  0
  4  3  1  0
  5  4  2  0
  6  7  1  0
  7  8  2  0
  7  1  1  0
  9 14  2  0
 10 11  2  0
 10  9  1  0
 11 12  1  0
 12 13  2  0
 14 13  1  0
 15  6  1  0
 16 15  1  0
 17 16  2  0
 18 17  1  0
 19 20  1  0
 19 18  2  0
 20 16  1  0
 21 19  1  0
  2 22  1  0
  3 23  1  0
  9 24  1  0
 10 25  1  0
 13 26  1  0
 15 27  1  0
 15 28  1  0
 17 29  1  0
 18 30  1  0
 21 31  1  0
 21 32  1  0
 21 33  1  0
M  ISO  8  22  14  23  14  24  14  25  14  26  14  27   8  28   8  29  14
M  ISO  4  30  14  31   8  32   8  33   8
M  END
>  <minimizedAffinity>  (1) 
-4.77366734

>  <minimizedRMSD>  (1) 
0.446160793

$$$$
