
     RDKit          3D

 36 39  0  0  0  0  0  0  0  0999 V2000
   46.5230   34.5830   42.1640 C   0  0  0  0  0  0  0  0  0  0  0  0
   47.7030   35.2580   41.9340 C   0  0  0  0  0  0  0  0  0  0  0  0
   48.4100   35.1120   40.7360 C   0  0  0  0  0  0  0  0  0  0  0  0
   47.9160   34.2620   39.7330 C   0  0  0  0  0  0  0  0  0  0  0  0
   46.7250   33.5890   39.9790 C   0  0  0  0  0  0  0  0  0  0  0  0
   46.0590   33.7590   41.1740 C   0  0  0  0  0  0  0  0  0  0  0  0
   44.8130   33.0320   41.3860 C   0  0  0  0  0  0  0  0  0  0  0  0
   44.7450   31.7760   41.9530 C   0  0  0  0  0  0  0  0  0  0  0  0
   43.5640   31.0830   42.1540 C   0  0  0  0  0  0  0  0  0  0  0  0
   42.3640   31.6870   41.7600 C   0  0  0  0  0  0  0  0  0  0  0  0
   42.4300   32.9350   41.1970 C   0  0  0  0  0  0  0  0  0  0  0  0
   41.2210   33.4800   40.8300 C   0  0  0  0  0  0  0  0  0  0  0  0
   41.1900   34.7460   40.2490 C   0  0  0  0  0  0  0  0  0  0  0  0
   42.3750   35.4240   40.0550 C   0  0  0  0  0  0  0  0  0  0  0  0
   43.6000   34.8760   40.4250 C   0  0  0  0  0  0  0  0  0  0  0  0
   43.6060   33.6260   40.9970 C   0  0  0  0  0  0  0  0  0  0  0  0
   44.4370   35.9640   44.9740 C   0  0  0  0  0  0  0  0  0  0  0  0
   45.0150   35.8580   43.7060 C   0  0  0  0  0  0  0  0  0  0  0  0
   45.8640   34.8000   43.4340 C   0  0  0  0  0  0  0  0  0  0  0  0
   46.1020   33.8980   44.4240 N   0  0  0  0  0  0  0  0  0  0  0  0
   45.5250   34.0220   45.6540 C   0  0  0  0  0  0  0  0  0  0  0  0
   44.6980   35.0580   45.9150 N   0  0  0  0  0  0  0  0  0  0  0  0
   48.0982   35.9279   42.7119 H   0  0  0  0  0  0  0  0  0  0  0  0
   49.3502   35.6613   40.5799 H   0  0  0  0  0  0  0  0  0  0  0  0
   48.4547   34.1329   38.7827 H   0  0  0  0  0  0  0  0  0  0  0  0
   46.3107   32.9156   39.2143 H   0  0  0  0  0  0  0  0  0  0  0  0
   45.6852   31.2970   42.2637 H   0  0  0  0  0  0  0  0  0  0  0  0
   43.5681   30.0828   42.6118 H   0  0  0  0  0  0  0  0  0  0  0  0
   41.3994   31.1766   41.8978 H   0  0  0  0  0  0  0  0  0  0  0  0
   40.2877   32.9214   40.9938 H   0  0  0  0  0  0  0  0  0  0  0  0
   40.2333   35.1985   39.9491 H   0  0  0  0  0  0  0  0  0  0  0  0
   42.3517   36.4234   39.5961 H   0  0  0  0  0  0  0  0  0  0  0  0
   44.5377   35.4282   40.2640 H   0  0  0  0  0  0  0  0  0  0  0  0
   43.7609   36.8026   45.1968 H   0  0  0  0  0  0  0  0  0  0  0  0
   44.7971   36.6084   42.9318 H   0  0  0  0  0  0  0  0  0  0  0  0
   45.7337   33.2764   46.4354 H   0  0  0  0  0  0  0  0  0  0  0  0
  1 19  1  0
  2  1  2  0
  3  2  1  0
  4  5  1  0
  4  3  2  0
  5  6  2  0
  6  7  1  0
  6  1  1  0
  7  8  2  0
  8  9  1  0
 10  9  2  0
 11 10  1  0
 12 11  2  0
 13 12  1  0
 14 13  2  0
 14 15  1  0
 15 16  2  0
 16 11  1  0
 16  7  1  0
 17 22  2  0
 18 17  1  0
 19 18  2  0
 19 20  1  0
 20 21  2  0
 21 22  1  0
  2 23  1  0
  3 24  1  0
  4 25  1  0
  5 26  1  0
  8 27  1  0
  9 28  1  0
 10 29  1  0
 12 30  1  0
 13 31  1  0
 14 32  1  0
 15 33  1  0
 17 34  1  0
 18 35  1  0
 21 36  1  0
M  ISO  8  23  14  24  14  25  14  26  14  27  14  28  14  29  14  30  14
M  ISO  6  31  14  32  14  33  14  34  14  35  14  36  14
M  END
>  <minimizedAffinity>  (1) 
-6.50827074

>  <minimizedRMSD>  (1) 
0.521879852

$$$$
