
     RDKit          3D

 44 48  0  0  0  0  0  0  0  0999 V2000
   48.4110   31.3380   39.7310 C   0  0  0  0  0  0  0  0  0  0  0  0
   47.6290   33.6570   42.3910 N   0  0  0  0  0  0  0  0  0  0  0  0
   48.8850   34.0300   42.8300 C   0  0  0  0  0  0  0  0  0  0  0  0
   50.0280   33.5130   42.2440 C   0  0  0  0  0  0  0  0  0  0  0  0
   49.8710   32.6000   41.1930 C   0  0  0  0  0  0  0  0  0  0  0  0
   50.8860   32.1150   40.6440 O   0  0  0  0  0  0  0  0  0  0  0  0
   48.6060   32.2840   40.8210 N   0  0  0  0  0  0  0  0  0  0  0  0
   47.5340   32.8020   41.4090 C   0  0  0  0  0  0  0  0  0  0  0  0
   46.3850   32.5560   41.1180 O   0  0  0  0  0  0  0  0  0  0  0  0
   45.0760   36.1600   43.3310 C   0  0  0  0  0  0  0  0  0  0  0  0
   46.0720   35.4920   42.6050 C   0  0  0  0  0  0  0  0  0  0  0  0
   46.6190   34.3180   43.1430 C   0  0  0  0  0  0  0  0  0  0  0  0
   46.1660   33.8590   44.3540 N   0  0  0  0  0  0  0  0  0  0  0  0
   45.1930   34.5380   45.0310 C   0  0  0  0  0  0  0  0  0  0  0  0
   44.6550   35.6820   44.5140 N   0  0  0  0  0  0  0  0  0  0  0  0
   48.4480   31.9430   38.4200 C   0  0  0  0  0  0  0  0  0  0  0  0
   48.4870   33.1900   37.9490 C   0  0  0  0  0  0  0  0  0  0  0  0
   48.5150   33.4410   36.6060 C   0  0  0  0  0  0  0  0  0  0  0  0
   48.5010   32.3340   35.7460 C   0  0  0  0  0  0  0  0  0  0  0  0
   48.4470   30.9190   36.9410 S   0  0  0  0  0  0  0  0  0  0  0  0
   48.5200   32.1800   34.3360 C   0  0  0  0  0  0  0  0  0  0  0  0
   48.9950   33.1530   33.5150 C   0  0  0  0  0  0  0  0  0  0  0  0
   48.8570   32.6560   32.2080 C   0  0  0  0  0  0  0  0  0  0  0  0
   48.2910   31.3830   32.3520 C   0  0  0  0  0  0  0  0  0  0  0  0
   48.1050   31.1360   33.6400 O   0  0  0  0  0  0  0  0  0  0  0  0
   47.9660   30.4890   31.2470 C   0  0  0  0  0  0  0  0  0  0  0  0
   47.2770   29.2960   31.3290 C   0  0  0  0  0  0  0  0  0  0  0  0
   47.2110   28.8060   30.0400 C   0  0  0  0  0  0  0  0  0  0  0  0
   47.8340   29.6680   29.2170 N   0  0  0  0  0  0  0  0  0  0  0  0
   48.2880   30.6870   29.9640 N   0  0  0  0  0  0  0  0  0  0  0  0
   49.2048   30.5785   39.7849 H   0  0  0  0  0  0  0  0  0  0  0  0
   47.4067   30.9073   39.8567 H   0  0  0  0  0  0  0  0  0  0  0  0
   48.9782   34.7486   43.6576 H   0  0  0  0  0  0  0  0  0  0  0  0
   51.0281   33.8098   42.5928 H   0  0  0  0  0  0  0  0  0  0  0  0
   44.6351   37.0839   42.9285 H   0  0  0  0  0  0  0  0  0  0  0  0
   46.4167   35.8800   41.6351 H   0  0  0  0  0  0  0  0  0  0  0  0
   44.8395   34.1599   46.0016 H   0  0  0  0  0  0  0  0  0  0  0  0
   48.4968   34.0331   38.6554 H   0  0  0  0  0  0  0  0  0  0  0  0
   48.5472   34.4690   36.2159 H   0  0  0  0  0  0  0  0  0  0  0  0
   49.4039   34.1298   33.8127 H   0  0  0  0  0  0  0  0  0  0  0  0
   49.1346   33.1599   31.2704 H   0  0  0  0  0  0  0  0  0  0  0  0
   46.8646   28.8305   32.2363 H   0  0  0  0  0  0  0  0  0  0  0  0
   46.7283   27.8654   29.7362 H   0  0  0  0  0  0  0  0  0  0  0  0
   47.9431   29.5651   28.1980 H   0  0  0  0  0  0  0  0  0  0  0  0
  1  7  1  0
  2  3  1  0
  2 12  1  0
  4  3  2  0
  5  4  1  0
  6  5  2  0
  7  5  1  0
  7  8  1  0
  8  2  1  0
  9  8  2  0
 10 15  2  0
 11 12  2  0
 11 10  1  0
 12 13  1  0
 13 14  2  0
 15 14  1  0
 16  1  1  0
 17 16  2  0
 18 17  1  0
 19 18  2  0
 19 20  1  0
 20 16  1  0
 21 19  1  0
 22 21  2  0
 23 24  2  0
 23 22  1  0
 24 25  1  0
 25 21  1  0
 26 27  1  0
 26 24  1  0
 28 27  2  0
 29 30  1  0
 29 28  1  0
 30 26  2  0
  1 31  1  0
  1 32  1  0
  3 33  1  0
  4 34  1  0
 10 35  1  0
 11 36  1  0
 14 37  1  0
 17 38  1  0
 18 39  1  0
 22 40  1  0
 23 41  1  0
 27 42  1  0
 28 43  1  0
 29 44  1  0
M  ISO  8  31   8  32   8  33  14  34  14  35  14  36  14  37  14  38  14
M  ISO  6  39  14  40  14  41  14  42  14  43  14  44   9
M  END
>  <minimizedAffinity>  (1) 
-6.62335777

>  <minimizedRMSD>  (1) 
0.324228704

$$$$
