
     RDKit          3D

 50 54  0  0  0  0  0  0  0  0999 V2000
   48.5100   31.3920   39.7610 C   0  0  0  0  0  0  0  0  0  0  0  0
   47.6520   33.6880   42.4180 N   0  0  0  0  0  0  0  0  0  0  0  0
   48.9040   34.0550   42.8790 C   0  0  0  0  0  0  0  0  0  0  0  0
   50.0530   33.5470   42.3170 C   0  0  0  0  0  0  0  0  0  0  0  0
   49.9200   32.6410   41.2550 C   0  0  0  0  0  0  0  0  0  0  0  0
   50.9470   32.1660   40.7280 O   0  0  0  0  0  0  0  0  0  0  0  0
   48.6670   32.3300   40.8590 N   0  0  0  0  0  0  0  0  0  0  0  0
   47.5780   32.8400   41.4260 C   0  0  0  0  0  0  0  0  0  0  0  0
   46.4350   32.5950   41.1090 O   0  0  0  0  0  0  0  0  0  0  0  0
   45.0690   36.1640   43.3210 C   0  0  0  0  0  0  0  0  0  0  0  0
   46.0790   35.5020   42.6100 C   0  0  0  0  0  0  0  0  0  0  0  0
   46.6300   34.3430   43.1550 C   0  0  0  0  0  0  0  0  0  0  0  0
   46.1710   33.8850   44.3630 N   0  0  0  0  0  0  0  0  0  0  0  0
   45.1860   34.5520   45.0320 C   0  0  0  0  0  0  0  0  0  0  0  0
   44.6420   35.6900   44.5020 N   0  0  0  0  0  0  0  0  0  0  0  0
   48.5490   31.9940   38.4480 C   0  0  0  0  0  0  0  0  0  0  0  0
   48.4800   33.2440   37.9880 C   0  0  0  0  0  0  0  0  0  0  0  0
   48.5460   33.5140   36.6500 C   0  0  0  0  0  0  0  0  0  0  0  0
   48.6880   32.4180   35.7870 C   0  0  0  0  0  0  0  0  0  0  0  0
   48.7230   30.9850   36.9790 S   0  0  0  0  0  0  0  0  0  0  0  0
   48.7920   32.2640   34.3800 C   0  0  0  0  0  0  0  0  0  0  0  0
   48.7220   33.3490   33.5460 C   0  0  0  0  0  0  0  0  0  0  0  0
   48.8570   32.8530   32.2410 C   0  0  0  0  0  0  0  0  0  0  0  0
   49.0000   31.4790   32.4000 C   0  0  0  0  0  0  0  0  0  0  0  0
   48.9550   31.1680   33.6970 O   0  0  0  0  0  0  0  0  0  0  0  0
   49.1730   30.5640   31.2320 C   0  0  0  0  0  0  0  0  0  0  0  0
   47.9710   29.6990   31.0400 C   0  0  0  0  0  0  0  0  0  0  0  0
   47.5850   29.7290   29.5860 C   0  0  0  0  0  0  0  0  0  0  0  0
   48.3100   30.8830   28.9750 C   0  0  0  0  0  0  0  0  0  0  0  0
   49.3500   31.3410   29.9480 C   0  0  0  0  0  0  0  0  0  0  0  0
   49.3208   30.6512   39.8235 H   0  0  0  0  0  0  0  0  0  0  0  0
   47.5104   30.9462   39.8710 H   0  0  0  0  0  0  0  0  0  0  0  0
   48.9826   34.7682   43.7127 H   0  0  0  0  0  0  0  0  0  0  0  0
   51.0450   33.8425   42.6894 H   0  0  0  0  0  0  0  0  0  0  0  0
   44.6222   37.0802   42.9076 H   0  0  0  0  0  0  0  0  0  0  0  0
   46.4298   35.8888   41.6419 H   0  0  0  0  0  0  0  0  0  0  0  0
   44.8282   34.1733   46.0008 H   0  0  0  0  0  0  0  0  0  0  0  0
   48.3677   34.0747   38.7003 H   0  0  0  0  0  0  0  0  0  0  0  0
   48.4903   34.5439   36.2676 H   0  0  0  0  0  0  0  0  0  0  0  0
   48.5868   34.4000   33.8413 H   0  0  0  0  0  0  0  0  0  0  0  0
   48.8511   33.4240   31.3008 H   0  0  0  0  0  0  0  0  0  0  0  0
   50.0641   29.9570   31.4497 H   0  0  0  0  0  0  0  0  0  0  0  0
   48.2054   28.6670   31.3399 H   0  0  0  0  0  0  0  0  0  0  0  0
   47.1392   30.0693   31.6572 H   0  0  0  0  0  0  0  0  0  0  0  0
   47.8828   28.7908   29.0949 H   0  0  0  0  0  0  0  0  0  0  0  0
   46.4968   29.8366   29.4669 H   0  0  0  0  0  0  0  0  0  0  0  0
   48.7894   30.5683   28.0363 H   0  0  0  0  0  0  0  0  0  0  0  0
   47.6088   31.7004   28.7511 H   0  0  0  0  0  0  0  0  0  0  0  0
   50.3527   31.1549   29.5358 H   0  0  0  0  0  0  0  0  0  0  0  0
   49.2419   32.4189   30.1391 H   0  0  0  0  0  0  0  0  0  0  0  0
  1  7  1  0
  2  3  1  0
  2 12  1  0
  4  3  2  0
  5  4  1  0
  6  5  2  0
  7  5  1  0
  7  8  1  0
  8  2  1  0
  9  8  2  0
 10 15  2  0
 11 12  2  0
 11 10  1  0
 12 13  1  0
 13 14  2  0
 15 14  1  0
 16  1  1  0
 17 16  2  0
 18 17  1  0
 19 18  2  0
 19 20  1  0
 20 16  1  0
 21 19  1  0
 22 21  2  0
 23 24  2  0
 23 22  1  0
 24 25  1  0
 25 21  1  0
 26 24  1  0
 27 26  1  0
 28 27  1  0
 29 28  1  0
 29 30  1  0
 30 26  1  0
  1 31  1  0
  1 32  1  0
  3 33  1  0
  4 34  1  0
 10 35  1  0
 11 36  1  0
 14 37  1  0
 17 38  1  0
 18 39  1  0
 22 40  1  0
 23 41  1  0
 26 42  1  0
 27 43  1  0
 27 44  1  0
 28 45  1  0
 28 46  1  0
 29 47  1  0
 29 48  1  0
 30 49  1  0
 30 50  1  0
M  ISO  8  31   8  32   8  33  14  34  14  35  14  36  14  37  14  38  14
M  ISO  8  39  14  40  14  41  14  42  13  43  13  44  13  45  13  46  13
M  ISO  4  47  13  48  13  49  13  50  13
M  END
>  <minimizedAffinity>  (1) 
-6.56909609

>  <minimizedRMSD>  (1) 
1.05591023

$$$$
