
     RDKit          3D

 45 49  0  0  0  0  0  0  0  0999 V2000
   48.6140   31.4110   40.0580 C   0  0  0  0  0  0  0  0  0  0  0  0
   47.6390   33.7650   42.6240 N   0  0  0  0  0  0  0  0  0  0  0  0
   48.8690   34.2220   43.0580 C   0  0  0  0  0  0  0  0  0  0  0  0
   50.0510   33.7610   42.5100 C   0  0  0  0  0  0  0  0  0  0  0  0
   49.9550   32.8040   41.4890 C   0  0  0  0  0  0  0  0  0  0  0  0
   51.0080   32.3660   40.9720 O   0  0  0  0  0  0  0  0  0  0  0  0
   48.7270   32.4080   41.1210 N   0  0  0  0  0  0  0  0  0  0  0  0
   47.6130   32.8760   41.6730 C   0  0  0  0  0  0  0  0  0  0  0  0
   46.4800   32.5460   41.3710 O   0  0  0  0  0  0  0  0  0  0  0  0
   44.9840   36.1770   43.4650 C   0  0  0  0  0  0  0  0  0  0  0  0
   46.0180   35.5430   42.7700 C   0  0  0  0  0  0  0  0  0  0  0  0
   46.5930   34.3910   43.3420 C   0  0  0  0  0  0  0  0  0  0  0  0
   46.1270   33.9330   44.5480 N   0  0  0  0  0  0  0  0  0  0  0  0
   45.1150   34.5860   45.1900 C   0  0  0  0  0  0  0  0  0  0  0  0
   44.5500   35.7040   44.6440 N   0  0  0  0  0  0  0  0  0  0  0  0
   48.5680   31.9580   38.7260 C   0  0  0  0  0  0  0  0  0  0  0  0
   48.5250   33.1910   38.2200 C   0  0  0  0  0  0  0  0  0  0  0  0
   48.4820   33.4180   36.8700 C   0  0  0  0  0  0  0  0  0  0  0  0
   48.4880   32.2770   36.0450 C   0  0  0  0  0  0  0  0  0  0  0  0
   48.5580   30.8910   37.2890 S   0  0  0  0  0  0  0  0  0  0  0  0
   48.4570   32.0630   34.6430 C   0  0  0  0  0  0  0  0  0  0  0  0
   49.0170   32.9700   33.7800 C   0  0  0  0  0  0  0  0  0  0  0  0
   48.8130   32.4590   32.4860 C   0  0  0  0  0  0  0  0  0  0  0  0
   48.1340   31.2610   32.6850 C   0  0  0  0  0  0  0  0  0  0  0  0
   47.9410   31.0630   33.9880 O   0  0  0  0  0  0  0  0  0  0  0  0
   47.6790   30.3310   31.6610 C   0  0  0  0  0  0  0  0  0  0  0  0
   48.1900   30.4620   30.3860 C   0  0  0  0  0  0  0  0  0  0  0  0
   47.7250   29.5510   29.4490 C   0  0  0  0  0  0  0  0  0  0  0  0
   46.8250   28.5970   29.7820 N   0  0  0  0  0  0  0  0  0  0  0  0
   46.3430   28.4900   31.0310 C   0  0  0  0  0  0  0  0  0  0  0  0
   46.7840   29.3740   31.9700 N   0  0  0  0  0  0  0  0  0  0  0  0
   49.4828   30.7395   40.1235 H   0  0  0  0  0  0  0  0  0  0  0  0
   47.6563   30.8935   40.2161 H   0  0  0  0  0  0  0  0  0  0  0  0
   48.9082   34.9727   43.8611 H   0  0  0  0  0  0  0  0  0  0  0  0
   51.0266   34.1293   42.8600 H   0  0  0  0  0  0  0  0  0  0  0  0
   44.5185   37.0780   43.0389 H   0  0  0  0  0  0  0  0  0  0  0  0
   46.3725   35.9324   41.8042 H   0  0  0  0  0  0  0  0  0  0  0  0
   44.7505   34.2085   46.1568 H   0  0  0  0  0  0  0  0  0  0  0  0
   48.5240   34.0505   38.9065 H   0  0  0  0  0  0  0  0  0  0  0  0
   48.4448   34.4354   36.4534 H   0  0  0  0  0  0  0  0  0  0  0  0
   49.5241   33.9090   34.0467 H   0  0  0  0  0  0  0  0  0  0  0  0
   49.1214   32.9066   31.5297 H   0  0  0  0  0  0  0  0  0  0  0  0
   48.9219   31.2417   30.1282 H   0  0  0  0  0  0  0  0  0  0  0  0
   48.0953   29.6052   28.4146 H   0  0  0  0  0  0  0  0  0  0  0  0
   45.6119   27.7098   31.2892 H   0  0  0  0  0  0  0  0  0  0  0  0
  1  7  1  0
  2  3  1  0
  2 12  1  0
  4  3  2  0
  5  4  1  0
  6  5  2  0
  7  5  1  0
  7  8  1  0
  8  2  1  0
  9  8  2  0
 10 15  2  0
 11 12  2  0
 11 10  1  0
 12 13  1  0
 13 14  2  0
 15 14  1  0
 16  1  1  0
 17 16  2  0
 18 17  1  0
 19 18  2  0
 19 20  1  0
 20 16  1  0
 21 19  1  0
 22 21  2  0
 23 24  2  0
 23 22  1  0
 24 25  1  0
 25 21  1  0
 26 31  1  0
 26 24  1  0
 27 26  2  0
 28 29  2  0
 28 27  1  0
 29 30  1  0
 30 31  2  0
  1 32  1  0
  1 33  1  0
  3 34  1  0
  4 35  1  0
 10 36  1  0
 11 37  1  0
 14 38  1  0
 17 39  1  0
 18 40  1  0
 22 41  1  0
 23 42  1  0
 27 43  1  0
 28 44  1  0
 30 45  1  0
M  ISO  8  32   8  33   8  34  14  35  14  36  14  37  14  38  14  39  14
M  ISO  6  40  14  41  14  42  14  43  14  44  14  45  14
M  END
>  <minimizedAffinity>  (1) 
-6.52693272

>  <minimizedRMSD>  (1) 
0.524632633

$$$$
