
     RDKit          3D

 44 48  0  0  0  0  0  0  0  0999 V2000
   48.3070   31.4300   39.7730 C   0  0  0  0  0  0  0  0  0  0  0  0
   47.5640   33.7020   42.4780 N   0  0  0  0  0  0  0  0  0  0  0  0
   48.8190   34.0660   42.9120 C   0  0  0  0  0  0  0  0  0  0  0  0
   49.9550   33.5560   42.3070 C   0  0  0  0  0  0  0  0  0  0  0  0
   49.7870   32.6600   41.2400 C   0  0  0  0  0  0  0  0  0  0  0  0
   50.7990   32.1880   40.6770 O   0  0  0  0  0  0  0  0  0  0  0  0
   48.5250   32.3550   40.8750 N   0  0  0  0  0  0  0  0  0  0  0  0
   47.4540   32.8640   41.4800 C   0  0  0  0  0  0  0  0  0  0  0  0
   46.3020   32.6250   41.1950 O   0  0  0  0  0  0  0  0  0  0  0  0
   45.0090   36.1820   43.4720 C   0  0  0  0  0  0  0  0  0  0  0  0
   45.9990   35.5280   42.7300 C   0  0  0  0  0  0  0  0  0  0  0  0
   46.5630   34.3470   43.2460 C   0  0  0  0  0  0  0  0  0  0  0  0
   46.1160   33.8880   44.4550 N   0  0  0  0  0  0  0  0  0  0  0  0
   45.1530   34.5430   45.1530 C   0  0  0  0  0  0  0  0  0  0  0  0
   44.6040   35.6880   44.6560 N   0  0  0  0  0  0  0  0  0  0  0  0
   48.3690   32.0460   38.4670 C   0  0  0  0  0  0  0  0  0  0  0  0
   48.3930   33.2980   38.0080 C   0  0  0  0  0  0  0  0  0  0  0  0
   48.4570   33.5710   36.6740 C   0  0  0  0  0  0  0  0  0  0  0  0
   48.4960   32.4710   35.8030 C   0  0  0  0  0  0  0  0  0  0  0  0
   48.4390   31.0480   36.9780 S   0  0  0  0  0  0  0  0  0  0  0  0
   48.5630   32.3450   34.3900 C   0  0  0  0  0  0  0  0  0  0  0  0
   49.0870   33.3160   33.6050 C   0  0  0  0  0  0  0  0  0  0  0  0
   48.9890   32.8580   32.2850 C   0  0  0  0  0  0  0  0  0  0  0  0
   48.3860   31.5910   32.3850 C   0  0  0  0  0  0  0  0  0  0  0  0
   48.1460   31.3210   33.6660 O   0  0  0  0  0  0  0  0  0  0  0  0
   48.1090   30.7850   31.2450 N   0  0  0  0  0  0  0  0  0  0  0  0
   47.5290   29.5780   31.1350 C   0  0  0  0  0  0  0  0  0  0  0  0
   47.4620   29.1680   29.8230 C   0  0  0  0  0  0  0  0  0  0  0  0
   48.0250   30.1690   29.1110 N   0  0  0  0  0  0  0  0  0  0  0  0
   48.4140   31.1430   29.9630 C   0  0  0  0  0  0  0  0  0  0  0  0
   49.0767   30.6457   39.8224 H   0  0  0  0  0  0  0  0  0  0  0  0
   47.2882   31.0317   39.8888 H   0  0  0  0  0  0  0  0  0  0  0  0
   48.9203   34.7711   43.7502 H   0  0  0  0  0  0  0  0  0  0  0  0
   50.9589   33.8443   42.6522 H   0  0  0  0  0  0  0  0  0  0  0  0
   44.5583   37.1074   43.0840 H   0  0  0  0  0  0  0  0  0  0  0  0
   46.3301   35.9300   41.7611 H   0  0  0  0  0  0  0  0  0  0  0  0
   44.8146   34.1487   46.1225 H   0  0  0  0  0  0  0  0  0  0  0  0
   48.3603   34.1320   38.7245 H   0  0  0  0  0  0  0  0  0  0  0  0
   48.4771   34.6045   36.2979 H   0  0  0  0  0  0  0  0  0  0  0  0
   49.5073   34.2763   33.9386 H   0  0  0  0  0  0  0  0  0  0  0  0
   49.3128   33.3758   31.3701 H   0  0  0  0  0  0  0  0  0  0  0  0
   47.1547   28.9912   31.9868 H   0  0  0  0  0  0  0  0  0  0  0  0
   47.0409   28.2279   29.4371 H   0  0  0  0  0  0  0  0  0  0  0  0
   48.9030   32.0832   29.6681 H   0  0  0  0  0  0  0  0  0  0  0  0
  1  7  1  0
  2  3  1  0
  2 12  1  0
  4  3  2  0
  5  4  1  0
  6  5  2  0
  7  5  1  0
  7  8  1  0
  8  2  1  0
  9  8  2  0
 10 15  2  0
 11 12  2  0
 11 10  1  0
 12 13  1  0
 13 14  2  0
 15 14  1  0
 16  1  1  0
 17 16  2  0
 18 17  1  0
 19 18  2  0
 19 20  1  0
 20 16  1  0
 21 19  1  0
 22 21  2  0
 23 24  2  0
 23 22  1  0
 24 25  1  0
 25 21  1  0
 26 24  1  0
 27 26  1  0
 28 27  2  0
 29 28  1  0
 29 30  2  0
 30 26  1  0
  1 31  1  0
  1 32  1  0
  3 33  1  0
  4 34  1  0
 10 35  1  0
 11 36  1  0
 14 37  1  0
 17 38  1  0
 18 39  1  0
 22 40  1  0
 23 41  1  0
 27 42  1  0
 28 43  1  0
 30 44  1  0
M  ISO  8  31   8  32   8  33  14  34  14  35  14  36  14  37  14  38  14
M  ISO  6  39  14  40  14  41  14  42  14  43  14  44  14
M  END
>  <minimizedAffinity>  (1) 
-6.51111984

>  <minimizedRMSD>  (1) 
0.496305436

$$$$
