
     RDKit          3D

 53 57  0  0  0  0  0  0  0  0999 V2000
   48.6530   31.3990   40.1600 C   0  0  0  0  0  0  0  0  0  0  0  0
   47.6580   33.8090   42.6650 N   0  0  0  0  0  0  0  0  0  0  0  0
   48.8730   34.2980   43.0910 C   0  0  0  0  0  0  0  0  0  0  0  0
   50.0600   33.8370   42.5540 C   0  0  0  0  0  0  0  0  0  0  0  0
   49.9880   32.8510   41.5580 C   0  0  0  0  0  0  0  0  0  0  0  0
   51.0460   32.4170   41.0560 O   0  0  0  0  0  0  0  0  0  0  0  0
   48.7520   32.4240   41.1960 N   0  0  0  0  0  0  0  0  0  0  0  0
   47.6380   32.8910   41.7350 C   0  0  0  0  0  0  0  0  0  0  0  0
   46.5160   32.5410   41.4440 O   0  0  0  0  0  0  0  0  0  0  0  0
   44.9530   36.1940   43.4580 C   0  0  0  0  0  0  0  0  0  0  0  0
   46.0070   35.5700   42.7750 C   0  0  0  0  0  0  0  0  0  0  0  0
   46.5890   34.4350   43.3620 C   0  0  0  0  0  0  0  0  0  0  0  0
   46.1160   33.9760   44.5690 N   0  0  0  0  0  0  0  0  0  0  0  0
   45.0860   34.6220   45.1910 C   0  0  0  0  0  0  0  0  0  0  0  0
   44.5120   35.7310   44.6260 N   0  0  0  0  0  0  0  0  0  0  0  0
   48.6020   31.9270   38.8160 C   0  0  0  0  0  0  0  0  0  0  0  0
   48.5310   33.1430   38.2750 C   0  0  0  0  0  0  0  0  0  0  0  0
   48.4990   33.3200   36.9220 C   0  0  0  0  0  0  0  0  0  0  0  0
   48.5470   32.1660   36.1270 C   0  0  0  0  0  0  0  0  0  0  0  0
   48.6370   30.8140   37.4050 S   0  0  0  0  0  0  0  0  0  0  0  0
   48.5350   31.9320   34.7230 C   0  0  0  0  0  0  0  0  0  0  0  0
   48.8190   32.9140   33.8400 C   0  0  0  0  0  0  0  0  0  0  0  0
   48.7100   32.3250   32.5620 C   0  0  0  0  0  0  0  0  0  0  0  0
   48.3590   31.0010   32.8020 C   0  0  0  0  0  0  0  0  0  0  0  0
   48.2600   30.7950   34.1120 O   0  0  0  0  0  0  0  0  0  0  0  0
   48.1200   29.9410   31.7850 C   0  0  0  0  0  0  0  0  0  0  0  0
   46.8020   29.2910   32.1170 C   0  0  0  0  0  0  0  0  0  0  0  0
   46.1560   28.6340   30.9280 C   0  0  0  0  0  0  0  0  0  0  0  0
   47.1460   28.3500   29.8220 C   0  0  0  0  0  0  0  0  0  0  0  0
   47.6490   29.6780   29.3160 C   0  0  0  0  0  0  0  0  0  0  0  0
   48.1400   30.5560   30.4100 C   0  0  0  0  0  0  0  0  0  0  0  0
   49.5301   30.7400   40.2400 H   0  0  0  0  0  0  0  0  0  0  0  0
   47.7063   30.8650   40.3291 H   0  0  0  0  0  0  0  0  0  0  0  0
   48.8991   35.0704   43.8738 H   0  0  0  0  0  0  0  0  0  0  0  0
   51.0289   34.2298   42.8959 H   0  0  0  0  0  0  0  0  0  0  0  0
   44.4804   37.0852   43.0194 H   0  0  0  0  0  0  0  0  0  0  0  0
   46.3663   35.9574   41.8102 H   0  0  0  0  0  0  0  0  0  0  0  0
   44.7130   34.2482   46.1560 H   0  0  0  0  0  0  0  0  0  0  0  0
   48.4974   34.0235   38.9335 H   0  0  0  0  0  0  0  0  0  0  0  0
   48.4383   34.3233   36.4752 H   0  0  0  0  0  0  0  0  0  0  0  0
   49.0811   33.9574   34.0696 H   0  0  0  0  0  0  0  0  0  0  0  0
   48.8685   32.8087   31.5869 H   0  0  0  0  0  0  0  0  0  0  0  0
   48.9044   29.1699   31.7952 H   0  0  0  0  0  0  0  0  0  0  0  0
   46.9724   28.5273   32.8901 H   0  0  0  0  0  0  0  0  0  0  0  0
   46.1226   30.0828   32.4655 H   0  0  0  0  0  0  0  0  0  0  0  0
   45.7039   27.6845   31.2506 H   0  0  0  0  0  0  0  0  0  0  0  0
   45.3978   29.3255   30.5319 H   0  0  0  0  0  0  0  0  0  0  0  0
   47.9844   27.7540   30.2116 H   0  0  0  0  0  0  0  0  0  0  0  0
   46.6694   27.7802   29.0107 H   0  0  0  0  0  0  0  0  0  0  0  0
   48.4744   29.4973   28.6116 H   0  0  0  0  0  0  0  0  0  0  0  0
   46.8062   30.1907   28.8293 H   0  0  0  0  0  0  0  0  0  0  0  0
   49.1775   30.8392   30.1791 H   0  0  0  0  0  0  0  0  0  0  0  0
   47.4488   31.4109   30.4483 H   0  0  0  0  0  0  0  0  0  0  0  0
  1  7  1  0
  2  3  1  0
  2 12  1  0
  4  3  2  0
  5  4  1  0
  6  5  2  0
  7  5  1  0
  7  8  1  0
  8  2  1  0
  9  8  2  0
 10 15  2  0
 11 12  2  0
 11 10  1  0
 12 13  1  0
 13 14  2  0
 15 14  1  0
 16  1  1  0
 17 16  2  0
 18 17  1  0
 19 18  2  0
 19 20  1  0
 20 16  1  0
 21 19  1  0
 22 21  2  0
 23 24  2  0
 23 22  1  0
 24 25  1  0
 25 21  1  0
 26 27  1  0
 26 24  1  0
 28 27  1  0
 29 28  1  0
 30 29  1  0
 30 31  1  0
 31 26  1  0
  1 32  1  0
  1 33  1  0
  3 34  1  0
  4 35  1  0
 10 36  1  0
 11 37  1  0
 14 38  1  0
 17 39  1  0
 18 40  1  0
 22 41  1  0
 23 42  1  0
 26 43  1  0
 27 44  1  0
 27 45  1  0
 28 46  1  0
 28 47  1  0
 29 48  1  0
 29 49  1  0
 30 50  1  0
 30 51  1  0
 31 52  1  0
 31 53  1  0
M  ISO  8  32   8  33   8  34  14  35  14  36  14  37  14  38  14  39  14
M  ISO  8  40  14  41  14  42  14  43  13  44  13  45  13  46  13  47  13
M  ISO  6  48  13  49  13  50  13  51  13  52  13  53  13
M  END
>  <minimizedAffinity>  (1) 
-6.39587593

>  <minimizedRMSD>  (1) 
0.584944427

$$$$
