
     RDKit          3D

 43 47  0  0  0  0  0  0  0  0999 V2000
   48.3260   31.4570   39.7720 C   0  0  0  0  0  0  0  0  0  0  0  0
   47.5540   33.7130   42.4890 N   0  0  0  0  0  0  0  0  0  0  0  0
   48.8140   34.0650   42.9310 C   0  0  0  0  0  0  0  0  0  0  0  0
   49.9480   33.5600   42.3370 C   0  0  0  0  0  0  0  0  0  0  0  0
   49.7910   32.6720   41.2600 C   0  0  0  0  0  0  0  0  0  0  0  0
   50.8050   32.1990   40.7030 O   0  0  0  0  0  0  0  0  0  0  0  0
   48.5180   32.3790   40.8880 N   0  0  0  0  0  0  0  0  0  0  0  0
   47.4550   32.8860   41.4870 C   0  0  0  0  0  0  0  0  0  0  0  0
   46.3040   32.6480   41.1830 O   0  0  0  0  0  0  0  0  0  0  0  0
   45.0030   36.1840   43.4870 C   0  0  0  0  0  0  0  0  0  0  0  0
   45.9930   35.5370   42.7370 C   0  0  0  0  0  0  0  0  0  0  0  0
   46.5520   34.3610   43.2550 C   0  0  0  0  0  0  0  0  0  0  0  0
   46.1110   33.8940   44.4650 N   0  0  0  0  0  0  0  0  0  0  0  0
   45.1490   34.5490   45.1650 C   0  0  0  0  0  0  0  0  0  0  0  0
   44.6010   35.6920   44.6690 N   0  0  0  0  0  0  0  0  0  0  0  0
   48.3780   32.0950   38.4760 C   0  0  0  0  0  0  0  0  0  0  0  0
   48.3610   33.3510   38.0270 C   0  0  0  0  0  0  0  0  0  0  0  0
   48.4270   33.6450   36.6970 C   0  0  0  0  0  0  0  0  0  0  0  0
   48.5140   32.5550   35.8160 C   0  0  0  0  0  0  0  0  0  0  0  0
   48.4970   31.1050   36.9760 S   0  0  0  0  0  0  0  0  0  0  0  0
   48.5950   32.4290   34.3980 C   0  0  0  0  0  0  0  0  0  0  0  0
   49.1420   33.3980   33.6340 C   0  0  0  0  0  0  0  0  0  0  0  0
   49.0540   32.9450   32.3120 C   0  0  0  0  0  0  0  0  0  0  0  0
   48.4460   31.7040   32.3910 C   0  0  0  0  0  0  0  0  0  0  0  0
   48.1900   31.4390   33.6610 O   0  0  0  0  0  0  0  0  0  0  0  0
   48.0920   30.7580   31.3500 C   0  0  0  0  0  0  0  0  0  0  0  0
   47.4310   29.5110   31.7830 C   0  0  0  0  0  0  0  0  0  0  0  0
   47.1450   28.5780   30.1680 S   0  0  0  0  0  0  0  0  0  0  0  0
   47.9550   30.0170   29.2420 C   0  0  0  0  0  0  0  0  0  0  0  0
   48.2310   30.7520   30.0450 N   0  0  0  0  0  0  0  0  0  0  0  0
   49.1148   30.6915   39.8142 H   0  0  0  0  0  0  0  0  0  0  0  0
   47.3188   31.0279   39.8790 H   0  0  0  0  0  0  0  0  0  0  0  0
   48.9133   34.7633   43.7751 H   0  0  0  0  0  0  0  0  0  0  0  0
   50.9486   33.8436   42.6953 H   0  0  0  0  0  0  0  0  0  0  0  0
   44.5484   37.1086   43.1017 H   0  0  0  0  0  0  0  0  0  0  0  0
   46.3226   35.9407   41.7683 H   0  0  0  0  0  0  0  0  0  0  0  0
   44.8119   34.1549   46.1351 H   0  0  0  0  0  0  0  0  0  0  0  0
   48.2916   34.1752   38.7521 H   0  0  0  0  0  0  0  0  0  0  0  0
   48.4128   34.6829   36.3329 H   0  0  0  0  0  0  0  0  0  0  0  0
   49.5701   34.3504   33.9798 H   0  0  0  0  0  0  0  0  0  0  0  0
   49.3952   33.4645   31.4044 H   0  0  0  0  0  0  0  0  0  0  0  0
   47.1677   29.1996   32.8046 H   0  0  0  0  0  0  0  0  0  0  0  0
   48.1188   30.1120   28.1584 H   0  0  0  0  0  0  0  0  0  0  0  0
  1  7  1  0
  2  3  1  0
  2 12  1  0
  4  3  2  0
  5  4  1  0
  6  5  2  0
  7  5  1  0
  7  8  1  0
  8  2  1  0
  9  8  2  0
 10 15  2  0
 11 12  2  0
 11 10  1  0
 12 13  1  0
 13 14  2  0
 15 14  1  0
 16  1  1  0
 17 16  2  0
 18 17  1  0
 19 18  2  0
 19 20  1  0
 20 16  1  0
 21 19  1  0
 22 21  2  0
 23 24  2  0
 23 22  1  0
 24 25  1  0
 25 21  1  0
 26 27  2  0
 26 24  1  0
 28 27  1  0
 29 30  2  0
 29 28  1  0
 30 26  1  0
  1 31  1  0
  1 32  1  0
  3 33  1  0
  4 34  1  0
 10 35  1  0
 11 36  1  0
 14 37  1  0
 17 38  1  0
 18 39  1  0
 22 40  1  0
 23 41  1  0
 27 42  1  0
 29 43  1  0
M  ISO  8  31   8  32   8  33  14  34  14  35  14  36  14  37  14  38  14
M  ISO  5  39  14  40  14  41  14  42  14  43  14
M  END
>  <minimizedAffinity>  (1) 
-6.34444332

>  <minimizedRMSD>  (1) 
0.414096445

$$$$
