
     RDKit          3D

 40 43  0  0  0  0  0  0  0  0999 V2000
   48.3990   31.3640   39.7420 C   0  0  0  0  0  0  0  0  0  0  0  0
   47.6050   33.6730   42.4020 N   0  0  0  0  0  0  0  0  0  0  0  0
   48.8620   34.0440   42.8410 C   0  0  0  0  0  0  0  0  0  0  0  0
   50.0030   33.5240   42.2520 C   0  0  0  0  0  0  0  0  0  0  0  0
   49.8410   32.6120   41.1960 C   0  0  0  0  0  0  0  0  0  0  0  0
   50.8570   32.1380   40.6580 O   0  0  0  0  0  0  0  0  0  0  0  0
   48.5730   32.3050   40.8300 N   0  0  0  0  0  0  0  0  0  0  0  0
   47.5060   32.8200   41.4170 C   0  0  0  0  0  0  0  0  0  0  0  0
   46.3540   32.5800   41.1290 O   0  0  0  0  0  0  0  0  0  0  0  0
   45.0540   36.1740   43.3520 C   0  0  0  0  0  0  0  0  0  0  0  0
   46.0480   35.5090   42.6210 C   0  0  0  0  0  0  0  0  0  0  0  0
   46.5980   34.3350   43.1590 C   0  0  0  0  0  0  0  0  0  0  0  0
   46.1500   33.8770   44.3730 N   0  0  0  0  0  0  0  0  0  0  0  0
   45.1810   34.5550   45.0530 C   0  0  0  0  0  0  0  0  0  0  0  0
   44.6440   35.6940   44.5370 N   0  0  0  0  0  0  0  0  0  0  0  0
   48.4350   31.9610   38.4270 C   0  0  0  0  0  0  0  0  0  0  0  0
   48.4520   33.2050   37.9490 C   0  0  0  0  0  0  0  0  0  0  0  0
   48.4880   33.4550   36.6110 C   0  0  0  0  0  0  0  0  0  0  0  0
   48.5060   32.3420   35.7590 C   0  0  0  0  0  0  0  0  0  0  0  0
   48.4700   30.9310   36.9580 S   0  0  0  0  0  0  0  0  0  0  0  0
   48.5420   32.1880   34.3490 C   0  0  0  0  0  0  0  0  0  0  0  0
   48.9330   33.1900   33.5260 C   0  0  0  0  0  0  0  0  0  0  0  0
   48.8510   32.7060   32.2160 C   0  0  0  0  0  0  0  0  0  0  0  0
   48.3980   31.3880   32.3610 C   0  0  0  0  0  0  0  0  0  0  0  0
   48.2260   31.1200   33.6540 O   0  0  0  0  0  0  0  0  0  0  0  0
   48.1620   30.4720   31.2020 C   0  0  0  0  0  0  0  0  0  0  0  0
   49.2200   29.6120   31.0940 F   0  0  0  0  0  0  0  0  0  0  0  0
   48.0190   31.1850   30.0190 F   0  0  0  0  0  0  0  0  0  0  0  0
   46.9930   29.7670   31.4200 F   0  0  0  0  0  0  0  0  0  0  0  0
   49.2027   30.6154   39.8024 H   0  0  0  0  0  0  0  0  0  0  0  0
   47.3968   30.9266   39.8616 H   0  0  0  0  0  0  0  0  0  0  0  0
   48.9577   34.7617   43.6691 H   0  0  0  0  0  0  0  0  0  0  0  0
   51.0046   33.8162   42.6004 H   0  0  0  0  0  0  0  0  0  0  0  0
   44.6066   37.0958   42.9519 H   0  0  0  0  0  0  0  0  0  0  0  0
   46.3886   35.8975   41.6499 H   0  0  0  0  0  0  0  0  0  0  0  0
   44.8312   34.1783   46.0255 H   0  0  0  0  0  0  0  0  0  0  0  0
   48.4366   34.0504   38.6526 H   0  0  0  0  0  0  0  0  0  0  0  0
   48.5023   34.4820   36.2172 H   0  0  0  0  0  0  0  0  0  0  0  0
   49.2550   34.1967   33.8308 H   0  0  0  0  0  0  0  0  0  0  0  0
   49.0883   33.2392   31.2836 H   0  0  0  0  0  0  0  0  0  0  0  0
  1  7  1  0
  2  3  1  0
  2 12  1  0
  4  3  2  0
  5  4  1  0
  6  5  2  0
  7  5  1  0
  7  8  1  0
  8  2  1  0
  9  8  2  0
 10 15  2  0
 11 12  2  0
 11 10  1  0
 12 13  1  0
 13 14  2  0
 15 14  1  0
 16  1  1  0
 17 16  2  0
 18 17  1  0
 19 18  2  0
 19 20  1  0
 20 16  1  0
 21 19  1  0
 22 21  2  0
 23 24  2  0
 23 22  1  0
 24 25  1  0
 25 21  1  0
 26 29  1  0
 26 24  1  0
 27 26  1  0
 28 26  1  0
  1 30  1  0
  1 31  1  0
  3 32  1  0
  4 33  1  0
 10 34  1  0
 11 35  1  0
 14 36  1  0
 17 37  1  0
 18 38  1  0
 22 39  1  0
 23 40  1  0
M  ISO  8  30   8  31   8  32  14  33  14  34  14  35  14  36  14  37  14
M  ISO  3  38  14  39  14  40  14
M  END
>  <minimizedAffinity>  (1) 
-6.1182375

>  <minimizedRMSD>  (1) 
0.298208594

$$$$
