
     RDKit          3D

 49 52  0  0  0  0  0  0  0  0999 V2000
   48.3390   31.3710   39.7950 C   0  0  0  0  0  0  0  0  0  0  0  0
   47.5730   33.6890   42.4580 N   0  0  0  0  0  0  0  0  0  0  0  0
   48.8280   34.0790   42.8760 C   0  0  0  0  0  0  0  0  0  0  0  0
   49.9680   33.5710   42.2740 C   0  0  0  0  0  0  0  0  0  0  0  0
   49.8070   32.6510   41.2270 C   0  0  0  0  0  0  0  0  0  0  0  0
   50.8190   32.1820   40.6700 O   0  0  0  0  0  0  0  0  0  0  0  0
   48.5380   32.3250   40.8800 N   0  0  0  0  0  0  0  0  0  0  0  0
   47.4710   32.8320   41.4810 C   0  0  0  0  0  0  0  0  0  0  0  0
   46.3180   32.5710   41.2060 O   0  0  0  0  0  0  0  0  0  0  0  0
   45.0260   36.1770   43.4380 C   0  0  0  0  0  0  0  0  0  0  0  0
   46.0150   35.5190   42.6980 C   0  0  0  0  0  0  0  0  0  0  0  0
   46.5710   34.3410   43.2220 C   0  0  0  0  0  0  0  0  0  0  0  0
   46.1230   33.8860   44.4330 N   0  0  0  0  0  0  0  0  0  0  0  0
   45.1550   34.5570   45.1240 C   0  0  0  0  0  0  0  0  0  0  0  0
   44.6140   35.7000   44.6190 N   0  0  0  0  0  0  0  0  0  0  0  0
   48.3960   31.9640   38.4770 C   0  0  0  0  0  0  0  0  0  0  0  0
   48.4220   33.2050   37.9900 C   0  0  0  0  0  0  0  0  0  0  0  0
   48.4800   33.4500   36.6510 C   0  0  0  0  0  0  0  0  0  0  0  0
   48.5100   32.3320   35.8060 C   0  0  0  0  0  0  0  0  0  0  0  0
   48.4530   30.9240   37.0130 S   0  0  0  0  0  0  0  0  0  0  0  0
   48.5690   32.1360   34.3980 C   0  0  0  0  0  0  0  0  0  0  0  0
   48.8720   33.1860   33.5670 C   0  0  0  0  0  0  0  0  0  0  0  0
   48.8500   32.6710   32.2640 C   0  0  0  0  0  0  0  0  0  0  0  0
   48.5290   31.3260   32.4210 C   0  0  0  0  0  0  0  0  0  0  0  0
   48.3680   31.0420   33.7220 O   0  0  0  0  0  0  0  0  0  0  0  0
   48.3690   30.2880   31.3700 C   0  0  0  0  0  0  0  0  0  0  0  0
   48.3110   30.8880   29.9720 C   0  0  0  0  0  0  0  0  0  0  0  0
   47.0990   29.4860   31.5690 C   0  0  0  0  0  0  0  0  0  0  0  0
   49.5210   29.3000   31.3850 C   0  0  0  0  0  0  0  0  0  0  0  0
   49.1216   30.6009   39.8627 H   0  0  0  0  0  0  0  0  0  0  0  0
   47.3275   30.9560   39.9155 H   0  0  0  0  0  0  0  0  0  0  0  0
   48.9254   34.8031   43.6983 H   0  0  0  0  0  0  0  0  0  0  0  0
   50.9698   33.8799   42.6072 H   0  0  0  0  0  0  0  0  0  0  0  0
   44.5798   37.1014   43.0426 H   0  0  0  0  0  0  0  0  0  0  0  0
   46.3491   35.9157   41.7279 H   0  0  0  0  0  0  0  0  0  0  0  0
   44.8101   34.1717   46.0948 H   0  0  0  0  0  0  0  0  0  0  0  0
   48.3959   34.0543   38.6885 H   0  0  0  0  0  0  0  0  0  0  0  0
   48.5022   34.4750   36.2525 H   0  0  0  0  0  0  0  0  0  0  0  0
   49.0884   34.2227   33.8642 H   0  0  0  0  0  0  0  0  0  0  0  0
   49.0436   33.2104   31.3250 H   0  0  0  0  0  0  0  0  0  0  0  0
   48.2054   31.9804   30.0459 H   0  0  0  0  0  0  0  0  0  0  0  0
   49.2368   30.6450   29.4300 H   0  0  0  0  0  0  0  0  0  0  0  0
   47.4489   30.4721   29.4300 H   0  0  0  0  0  0  0  0  0  0  0  0
   46.9068   29.3646   32.6453 H   0  0  0  0  0  0  0  0  0  0  0  0
   46.2545   30.0150   31.1031 H   0  0  0  0  0  0  0  0  0  0  0  0
   47.2136   28.4962   31.1031 H   0  0  0  0  0  0  0  0  0  0  0  0
   49.7915   29.0680   32.4257 H   0  0  0  0  0  0  0  0  0  0  0  0
   49.2185   28.3762   30.8701 H   0  0  0  0  0  0  0  0  0  0  0  0
   50.3879   29.7397   30.8701 H   0  0  0  0  0  0  0  0  0  0  0  0
  1  7  1  0
  2  3  1  0
  2 12  1  0
  4  3  2  0
  5  4  1  0
  6  5  2  0
  7  5  1  0
  7  8  1  0
  8  2  1  0
  9  8  2  0
 10 15  2  0
 11 12  2  0
 11 10  1  0
 12 13  1  0
 13 14  2  0
 15 14  1  0
 16  1  1  0
 17 16  2  0
 18 17  1  0
 19 18  2  0
 19 20  1  0
 20 16  1  0
 21 19  1  0
 22 21  2  0
 23 24  2  0
 23 22  1  0
 24 25  1  0
 25 21  1  0
 26 29  1  0
 26 28  1  0
 26 24  1  0
 27 26  1  0
  1 30  1  0
  1 31  1  0
  3 32  1  0
  4 33  1  0
 10 34  1  0
 11 35  1  0
 14 36  1  0
 17 37  1  0
 18 38  1  0
 22 39  1  0
 23 40  1  0
 27 41  1  0
 27 42  1  0
 27 43  1  0
 28 44  1  0
 28 45  1  0
 28 46  1  0
 29 47  1  0
 29 48  1  0
 29 49  1  0
M  ISO  8  30   8  31   8  32  14  33  14  34  14  35  14  36  14  37  14
M  ISO  8  38  14  39  14  40  14  41   8  42   8  43   8  44   8  45   8
M  ISO  4  46   8  47   8  48   8  49   8
M  END
>  <minimizedAffinity>  (1) 
-6.04037142

>  <minimizedRMSD>  (1) 
0.348322242

$$$$
