
     RDKit          3D

 40 43  0  0  0  0  0  0  0  0999 V2000
   48.3580   31.3880   39.8030 C   0  0  0  0  0  0  0  0  0  0  0  0
   47.5590   33.6930   42.4740 N   0  0  0  0  0  0  0  0  0  0  0  0
   48.8210   34.0740   42.8950 C   0  0  0  0  0  0  0  0  0  0  0  0
   49.9590   33.5710   42.2980 C   0  0  0  0  0  0  0  0  0  0  0  0
   49.8040   32.6580   41.2460 C   0  0  0  0  0  0  0  0  0  0  0  0
   50.8160   32.1920   40.6920 O   0  0  0  0  0  0  0  0  0  0  0  0
   48.5500   32.3380   40.8960 N   0  0  0  0  0  0  0  0  0  0  0  0
   47.4640   32.8370   41.4890 C   0  0  0  0  0  0  0  0  0  0  0  0
   46.3150   32.5780   41.2080 O   0  0  0  0  0  0  0  0  0  0  0  0
   45.0190   36.1740   43.4500 C   0  0  0  0  0  0  0  0  0  0  0  0
   46.0060   35.5190   42.7080 C   0  0  0  0  0  0  0  0  0  0  0  0
   46.5610   34.3420   43.2370 C   0  0  0  0  0  0  0  0  0  0  0  0
   46.1240   33.8740   44.4530 N   0  0  0  0  0  0  0  0  0  0  0  0
   45.1540   34.5540   45.1370 C   0  0  0  0  0  0  0  0  0  0  0  0
   44.6100   35.6970   44.6330 N   0  0  0  0  0  0  0  0  0  0  0  0
   48.3970   31.9810   38.4850 C   0  0  0  0  0  0  0  0  0  0  0  0
   48.4240   33.2300   38.0160 C   0  0  0  0  0  0  0  0  0  0  0  0
   48.4560   33.4930   36.6740 C   0  0  0  0  0  0  0  0  0  0  0  0
   48.4590   32.3820   35.8150 C   0  0  0  0  0  0  0  0  0  0  0  0
   48.4150   30.9600   37.0090 S   0  0  0  0  0  0  0  0  0  0  0  0
   48.4860   32.2090   34.4070 C   0  0  0  0  0  0  0  0  0  0  0  0
   48.9560   33.2050   33.5880 C   0  0  0  0  0  0  0  0  0  0  0  0
   48.8510   32.7300   32.2790 C   0  0  0  0  0  0  0  0  0  0  0  0
   48.3150   31.4550   32.4150 C   0  0  0  0  0  0  0  0  0  0  0  0
   48.1080   31.1750   33.7140 O   0  0  0  0  0  0  0  0  0  0  0  0
   47.9790   30.4680   31.3920 C   0  0  0  0  0  0  0  0  0  0  0  0
   47.7150   29.2510   31.5750 O   0  0  0  0  0  0  0  0  0  0  0  0
   47.9390   30.8870   30.0680 O   0  0  0  0  0  0  0  0  0  0  0  0
   49.1520   30.6291   39.8628 H   0  0  0  0  0  0  0  0  0  0  0  0
   47.3507   30.9640   39.9277 H   0  0  0  0  0  0  0  0  0  0  0  0
   48.9190   34.7923   43.7223 H   0  0  0  0  0  0  0  0  0  0  0  0
   50.9591   33.8778   42.6381 H   0  0  0  0  0  0  0  0  0  0  0  0
   44.5702   37.0975   43.0555 H   0  0  0  0  0  0  0  0  0  0  0  0
   46.3388   35.9142   41.7369 H   0  0  0  0  0  0  0  0  0  0  0  0
   44.8079   34.1722   46.1088 H   0  0  0  0  0  0  0  0  0  0  0  0
   48.4204   34.0696   38.7267 H   0  0  0  0  0  0  0  0  0  0  0  0
   48.4783   34.5225   36.2873 H   0  0  0  0  0  0  0  0  0  0  0  0
   49.3406   34.1866   33.9017 H   0  0  0  0  0  0  0  0  0  0  0  0
   49.1297   33.2483   31.3496 H   0  0  0  0  0  0  0  0  0  0  0  0
   48.1349   31.8306   29.8413 H   0  0  0  0  0  0  0  0  0  0  0  0
  1  7  1  0
  2  3  1  0
  2 12  1  0
  4  3  2  0
  5  4  1  0
  6  5  2  0
  7  5  1  0
  7  8  1  0
  8  2  1  0
  9  8  2  0
 10 15  2  0
 11 12  2  0
 11 10  1  0
 12 13  1  0
 13 14  2  0
 15 14  1  0
 16  1  1  0
 17 16  2  0
 18 17  1  0
 19 18  2  0
 19 20  1  0
 20 16  1  0
 21 19  1  0
 22 21  2  0
 23 24  2  0
 23 22  1  0
 24 25  1  0
 25 21  1  0
 26 27  2  0
 26 24  1  0
 28 26  1  0
  1 29  1  0
  1 30  1  0
  3 31  1  0
  4 32  1  0
 10 33  1  0
 11 34  1  0
 14 35  1  0
 17 36  1  0
 18 37  1  0
 22 38  1  0
 23 39  1  0
 28 40  1  0
M  ISO  8  29   8  30   8  31  14  32  14  33  14  34  14  35  14  36  14
M  ISO  4  37  14  38  14  39  14  40   3
M  END
>  <minimizedAffinity>  (1) 
-5.92925978

>  <minimizedRMSD>  (1) 
0.251507252

$$$$
