
     RDKit          3D

 46 49  0  0  0  0  0  0  0  0999 V2000
   48.3390   31.3670   39.7840 C   0  0  0  0  0  0  0  0  0  0  0  0
   47.5720   33.6900   42.4490 N   0  0  0  0  0  0  0  0  0  0  0  0
   48.8330   34.0770   42.8680 C   0  0  0  0  0  0  0  0  0  0  0  0
   49.9690   33.5670   42.2650 C   0  0  0  0  0  0  0  0  0  0  0  0
   49.8090   32.6500   41.2220 C   0  0  0  0  0  0  0  0  0  0  0  0
   50.8180   32.1760   40.6640 O   0  0  0  0  0  0  0  0  0  0  0  0
   48.5380   32.3220   40.8710 N   0  0  0  0  0  0  0  0  0  0  0  0
   47.4700   32.8330   41.4730 C   0  0  0  0  0  0  0  0  0  0  0  0
   46.3180   32.5740   41.1980 O   0  0  0  0  0  0  0  0  0  0  0  0
   45.0250   36.1770   43.4300 C   0  0  0  0  0  0  0  0  0  0  0  0
   46.0160   35.5150   42.6910 C   0  0  0  0  0  0  0  0  0  0  0  0
   46.5680   34.3440   43.2130 C   0  0  0  0  0  0  0  0  0  0  0  0
   46.1260   33.8810   44.4260 N   0  0  0  0  0  0  0  0  0  0  0  0
   45.1620   34.5530   45.1140 C   0  0  0  0  0  0  0  0  0  0  0  0
   44.6190   35.6890   44.6170 N   0  0  0  0  0  0  0  0  0  0  0  0
   48.3880   31.9660   38.4700 C   0  0  0  0  0  0  0  0  0  0  0  0
   48.4380   33.2080   37.9860 C   0  0  0  0  0  0  0  0  0  0  0  0
   48.4770   33.4480   36.6450 C   0  0  0  0  0  0  0  0  0  0  0  0
   48.4650   32.3330   35.7960 C   0  0  0  0  0  0  0  0  0  0  0  0
   48.3930   30.9270   37.0010 S   0  0  0  0  0  0  0  0  0  0  0  0
   48.4950   32.1680   34.3820 C   0  0  0  0  0  0  0  0  0  0  0  0
   48.9230   33.1570   33.5660 C   0  0  0  0  0  0  0  0  0  0  0  0
   48.8260   32.6720   32.2590 C   0  0  0  0  0  0  0  0  0  0  0  0
   48.3230   31.3740   32.4040 C   0  0  0  0  0  0  0  0  0  0  0  0
   48.1310   31.0940   33.7030 O   0  0  0  0  0  0  0  0  0  0  0  0
   47.9990   30.3440   31.3750 C   0  0  0  0  0  0  0  0  0  0  0  0
   48.8440   29.1190   31.6170 C   0  0  0  0  0  0  0  0  0  0  0  0
   48.3620   30.8960   30.0020 C   0  0  0  0  0  0  0  0  0  0  0  0
   49.1258   30.6008   39.8462 H   0  0  0  0  0  0  0  0  0  0  0  0
   47.3312   30.9438   39.9076 H   0  0  0  0  0  0  0  0  0  0  0  0
   48.9334   34.7996   43.6913 H   0  0  0  0  0  0  0  0  0  0  0  0
   50.9714   33.8749   42.5974 H   0  0  0  0  0  0  0  0  0  0  0  0
   44.5764   37.1013   43.0370 H   0  0  0  0  0  0  0  0  0  0  0  0
   46.3512   35.9101   41.7207 H   0  0  0  0  0  0  0  0  0  0  0  0
   44.8202   34.1678   46.0860 H   0  0  0  0  0  0  0  0  0  0  0  0
   48.4480   34.0574   38.6848 H   0  0  0  0  0  0  0  0  0  0  0  0
   48.5162   34.4724   36.2463 H   0  0  0  0  0  0  0  0  0  0  0  0
   49.2790   34.1518   33.8718 H   0  0  0  0  0  0  0  0  0  0  0  0
   49.0864   33.1932   31.3260 H   0  0  0  0  0  0  0  0  0  0  0  0
   46.9298   30.0910   31.4284 H   0  0  0  0  0  0  0  0  0  0  0  0
   48.9550   28.9581   32.6995 H   0  0  0  0  0  0  0  0  0  0  0  0
   48.3574   28.2426   31.1640 H   0  0  0  0  0  0  0  0  0  0  0  0
   49.8361   29.2626   31.1640 H   0  0  0  0  0  0  0  0  0  0  0  0
   48.9628   31.8097   30.1213 H   0  0  0  0  0  0  0  0  0  0  0  0
   48.9430   30.1449   29.4468 H   0  0  0  0  0  0  0  0  0  0  0  0
   47.4422   31.1319   29.4468 H   0  0  0  0  0  0  0  0  0  0  0  0
  1  7  1  0
  2  3  1  0
  2 12  1  0
  4  3  2  0
  5  4  1  0
  6  5  2  0
  7  5  1  0
  7  8  1  0
  8  2  1  0
  9  8  2  0
 10 15  2  0
 11 12  2  0
 11 10  1  0
 12 13  1  0
 13 14  2  0
 15 14  1  0
 16  1  1  0
 17 16  2  0
 18 17  1  0
 19 18  2  0
 19 20  1  0
 20 16  1  0
 21 19  1  0
 22 21  2  0
 23 24  2  0
 23 22  1  0
 24 25  1  0
 25 21  1  0
 26 27  1  0
 26 24  1  0
 28 26  1  0
  1 29  1  0
  1 30  1  0
  3 31  1  0
  4 32  1  0
 10 33  1  0
 11 34  1  0
 14 35  1  0
 17 36  1  0
 18 37  1  0
 22 38  1  0
 23 39  1  0
 26 40  1  0
 27 41  1  0
 27 42  1  0
 27 43  1  0
 28 44  1  0
 28 45  1  0
 28 46  1  0
M  ISO  8  29   8  30   8  31  14  32  14  33  14  34  14  35  14  36  14
M  ISO  8  37  14  38  14  39  14  40   8  41   8  42   8  43   8  44   8
M  ISO  2  45   8  46   8
M  END
>  <minimizedAffinity>  (1) 
-5.9039464

>  <minimizedRMSD>  (1) 
0.271657646

$$$$
