
     RDKit          3D

 43 46  0  0  0  0  0  0  0  0999 V2000
   48.3540   31.3740   39.7810 C   0  0  0  0  0  0  0  0  0  0  0  0
   47.5640   33.6840   42.4460 N   0  0  0  0  0  0  0  0  0  0  0  0
   48.8230   34.0630   42.8640 C   0  0  0  0  0  0  0  0  0  0  0  0
   49.9600   33.5550   42.2640 C   0  0  0  0  0  0  0  0  0  0  0  0
   49.7950   32.6440   41.2190 C   0  0  0  0  0  0  0  0  0  0  0  0
   50.8130   32.1740   40.6630 O   0  0  0  0  0  0  0  0  0  0  0  0
   48.5370   32.3270   40.8720 N   0  0  0  0  0  0  0  0  0  0  0  0
   47.4590   32.8270   41.4630 C   0  0  0  0  0  0  0  0  0  0  0  0
   46.3100   32.5700   41.1830 O   0  0  0  0  0  0  0  0  0  0  0  0
   45.0300   36.1740   43.4220 C   0  0  0  0  0  0  0  0  0  0  0  0
   46.0150   35.5160   42.6790 C   0  0  0  0  0  0  0  0  0  0  0  0
   46.5650   34.3380   43.2100 C   0  0  0  0  0  0  0  0  0  0  0  0
   46.1220   33.8850   44.4200 N   0  0  0  0  0  0  0  0  0  0  0  0
   45.1610   34.5520   45.1140 C   0  0  0  0  0  0  0  0  0  0  0  0
   44.6200   35.6970   44.6080 N   0  0  0  0  0  0  0  0  0  0  0  0
   48.3980   31.9540   38.4620 C   0  0  0  0  0  0  0  0  0  0  0  0
   48.4320   33.2000   37.9870 C   0  0  0  0  0  0  0  0  0  0  0  0
   48.4640   33.4650   36.6440 C   0  0  0  0  0  0  0  0  0  0  0  0
   48.4600   32.3410   35.7900 C   0  0  0  0  0  0  0  0  0  0  0  0
   48.4080   30.9250   36.9980 S   0  0  0  0  0  0  0  0  0  0  0  0
   48.4870   32.1560   34.3840 C   0  0  0  0  0  0  0  0  0  0  0  0
   48.9290   33.1560   33.5560 C   0  0  0  0  0  0  0  0  0  0  0  0
   48.8370   32.6760   32.2530 C   0  0  0  0  0  0  0  0  0  0  0  0
   48.3310   31.3890   32.3970 C   0  0  0  0  0  0  0  0  0  0  0  0
   48.1320   31.1090   33.6970 O   0  0  0  0  0  0  0  0  0  0  0  0
   48.0250   30.3950   31.3090 C   0  0  0  0  0  0  0  0  0  0  0  0
   48.4180   30.9780   29.9590 C   0  0  0  0  0  0  0  0  0  0  0  0
   49.1496   30.6175   39.8496 H   0  0  0  0  0  0  0  0  0  0  0  0
   47.3452   30.9525   39.9020 H   0  0  0  0  0  0  0  0  0  0  0  0
   48.9239   34.7826   43.6898 H   0  0  0  0  0  0  0  0  0  0  0  0
   50.9627   33.8588   42.5992 H   0  0  0  0  0  0  0  0  0  0  0  0
   44.5833   37.0987   43.0278 H   0  0  0  0  0  0  0  0  0  0  0  0
   46.3491   35.9093   41.7076 H   0  0  0  0  0  0  0  0  0  0  0  0
   44.8193   34.1668   46.0860 H   0  0  0  0  0  0  0  0  0  0  0  0
   48.4344   34.0408   38.6963 H   0  0  0  0  0  0  0  0  0  0  0  0
   48.4912   34.4930   36.2536 H   0  0  0  0  0  0  0  0  0  0  0  0
   49.2881   34.1492   33.8635 H   0  0  0  0  0  0  0  0  0  0  0  0
   49.1038   33.1963   31.3213 H   0  0  0  0  0  0  0  0  0  0  0  0
   48.5932   29.4702   31.4877 H   0  0  0  0  0  0  0  0  0  0  0  0
   46.9479   30.1717   31.3107 H   0  0  0  0  0  0  0  0  0  0  0  0
   49.0268   31.8811   30.1128 H   0  0  0  0  0  0  0  0  0  0  0  0
   49.0003   30.2351   29.3943 H   0  0  0  0  0  0  0  0  0  0  0  0
   47.5109   31.2391   29.3943 H   0  0  0  0  0  0  0  0  0  0  0  0
  1  7  1  0
  2  3  1  0
  2 12  1  0
  4  3  2  0
  5  4  1  0
  6  5  2  0
  7  5  1  0
  7  8  1  0
  8  2  1  0
  9  8  2  0
 10 15  2  0
 11 12  2  0
 11 10  1  0
 12 13  1  0
 13 14  2  0
 15 14  1  0
 16  1  1  0
 17 16  2  0
 18 17  1  0
 19 18  2  0
 19 20  1  0
 20 16  1  0
 21 19  1  0
 22 21  2  0
 23 24  2  0
 23 22  1  0
 24 25  1  0
 25 21  1  0
 26 24  1  0
 27 26  1  0
  1 28  1  0
  1 29  1  0
  3 30  1  0
  4 31  1  0
 10 32  1  0
 11 33  1  0
 14 34  1  0
 17 35  1  0
 18 36  1  0
 22 37  1  0
 23 38  1  0
 26 39  1  0
 26 40  1  0
 27 41  1  0
 27 42  1  0
 27 43  1  0
M  ISO  8  28   8  29   8  30  14  31  14  32  14  33  14  34  14  35  14
M  ISO  8  36  14  37  14  38  14  39   8  40   8  41   8  42   8  43   8
M  END
>  <minimizedAffinity>  (1) 
-5.77186155

>  <minimizedRMSD>  (1) 
0.332149357

$$$$
