
     RDKit          3D

 38 41  0  0  0  0  0  0  0  0999 V2000
   47.6010   33.6990   42.5240 N   0  0  0  0  0  0  0  0  0  0  0  0
   48.8500   34.1170   42.9410 C   0  0  0  0  0  0  0  0  0  0  0  0
   50.0000   33.6320   42.3610 C   0  0  0  0  0  0  0  0  0  0  0  0
   49.8650   32.6920   41.3280 C   0  0  0  0  0  0  0  0  0  0  0  0
   50.8920   32.2340   40.7840 O   0  0  0  0  0  0  0  0  0  0  0  0
   48.6220   32.3350   40.9790 N   0  0  0  0  0  0  0  0  0  0  0  0
   47.5260   32.8250   41.5610 C   0  0  0  0  0  0  0  0  0  0  0  0
   46.3810   32.5330   41.2800 O   0  0  0  0  0  0  0  0  0  0  0  0
   45.0140   36.1660   43.4460 C   0  0  0  0  0  0  0  0  0  0  0  0
   46.0190   35.5110   42.7230 C   0  0  0  0  0  0  0  0  0  0  0  0
   46.5830   34.3440   43.2720 C   0  0  0  0  0  0  0  0  0  0  0  0
   46.1340   33.8900   44.4830 N   0  0  0  0  0  0  0  0  0  0  0  0
   45.1510   34.5580   45.1540 C   0  0  0  0  0  0  0  0  0  0  0  0
   44.5960   35.6940   44.6290 N   0  0  0  0  0  0  0  0  0  0  0  0
   48.4530   31.3590   39.9070 C   0  0  0  0  0  0  0  0  0  0  0  0
   48.4640   31.9230   38.5770 C   0  0  0  0  0  0  0  0  0  0  0  0
   48.4730   33.1630   38.0840 C   0  0  0  0  0  0  0  0  0  0  0  0
   48.4800   33.3980   36.7350 C   0  0  0  0  0  0  0  0  0  0  0  0
   48.4790   32.2690   35.8990 C   0  0  0  0  0  0  0  0  0  0  0  0
   48.4680   30.8700   37.1250 S   0  0  0  0  0  0  0  0  0  0  0  0
   48.4870   32.0720   34.4950 C   0  0  0  0  0  0  0  0  0  0  0  0
   48.9060   33.0720   33.6520 C   0  0  0  0  0  0  0  0  0  0  0  0
   48.7890   32.5540   32.3490 C   0  0  0  0  0  0  0  0  0  0  0  0
   48.2980   31.2610   32.5170 C   0  0  0  0  0  0  0  0  0  0  0  0
   48.1330   31.0160   33.8220 O   0  0  0  0  0  0  0  0  0  0  0  0
   47.9160   30.0400   31.2690 S   0  0  0  0  0  0  0  0  0  0  0  0
   48.9270   34.8536   43.7544 H   0  0  0  0  0  0  0  0  0  0  0  0
   50.9918   33.9699   42.6960 H   0  0  0  0  0  0  0  0  0  0  0  0
   44.5610   37.0812   43.0370 H   0  0  0  0  0  0  0  0  0  0  0  0
   46.3588   35.8986   41.7512 H   0  0  0  0  0  0  0  0  0  0  0  0
   44.8013   34.1800   46.1260 H   0  0  0  0  0  0  0  0  0  0  0  0
   49.2710   30.6269   39.9766 H   0  0  0  0  0  0  0  0  0  0  0  0
   47.4596   30.9081   40.0477 H   0  0  0  0  0  0  0  0  0  0  0  0
   48.4748   34.0166   38.7778 H   0  0  0  0  0  0  0  0  0  0  0  0
   48.4861   34.4193   36.3265 H   0  0  0  0  0  0  0  0  0  0  0  0
   49.2607   34.0734   33.9372 H   0  0  0  0  0  0  0  0  0  0  0  0
   49.0323   33.0600   31.4031 H   0  0  0  0  0  0  0  0  0  0  0  0
   47.5491   28.8672   31.8747 H   0  0  0  0  0  0  0  0  0  0  0  0
  1  2  1  0
  1 11  1  0
  3  2  2  0
  4  3  1  0
  5  4  2  0
  6  4  1  0
  6  7  1  0
  7  1  1  0
  8  7  2  0
  9 14  2  0
 10 11  2  0
 10  9  1  0
 11 12  1  0
 12 13  2  0
 14 13  1  0
 15  6  1  0
 16 15  1  0
 17 16  2  0
 18 17  1  0
 19 18  2  0
 19 20  1  0
 20 16  1  0
 21 19  1  0
 22 21  2  0
 23 24  2  0
 23 22  1  0
 24 25  1  0
 25 21  1  0
 26 24  1  0
  2 27  1  0
  3 28  1  0
  9 29  1  0
 10 30  1  0
 13 31  1  0
 15 32  1  0
 15 33  1  0
 17 34  1  0
 18 35  1  0
 22 36  1  0
 23 37  1  0
 26 38  1  0
M  ISO  8  27  14  28  14  29  14  30  14  31  14  32   8  33   8  34  14
M  ISO  4  35  14  36  14  37  14  38  11
M  END
>  <minimizedAffinity>  (1) 
-5.73623753

>  <minimizedRMSD>  (1) 
0.103531666

$$$$
