
     RDKit          3D

 29 31  0  0  0  0  0  0  0  0999 V2000
   45.8480   33.6150   45.8370 C   0  0  0  0  0  0  0  0  0  0  0  0
   44.9370   34.6610   45.8840 C   0  0  0  0  0  0  0  0  0  0  0  0
   44.6840   35.4890   44.8200 C   0  0  0  0  0  0  0  0  0  0  0  0
   45.3470   35.2930   43.6600 N   0  0  0  0  0  0  0  0  0  0  0  0
   46.2300   34.2770   43.6170 C   0  0  0  0  0  0  0  0  0  0  0  0
   46.4800   33.4590   44.6710 N   0  0  0  0  0  0  0  0  0  0  0  0
   46.9910   33.9660   42.4550 N   0  0  0  0  0  0  0  0  0  0  0  0
   47.3720   34.9140   41.5650 C   0  0  0  0  0  0  0  0  0  0  0  0
   48.1070   34.6490   40.4320 C   0  0  0  0  0  0  0  0  0  0  0  0
   48.4790   33.3580   40.1830 C   0  0  0  0  0  0  0  0  0  0  0  0
   49.2430   33.1630   38.9830 N   0  0  0  0  0  0  0  0  0  0  0  0
   48.1140   32.4180   41.0460 N   0  0  0  0  0  0  0  0  0  0  0  0
   47.3960   32.7140   42.1430 C   0  0  0  0  0  0  0  0  0  0  0  0
   47.0840   31.7740   42.9180 O   0  0  0  0  0  0  0  0  0  0  0  0
   47.5030   31.4870   48.3180 C   0  0  0  0  0  0  0  0  0  0  0  0
   46.4550   31.1850   49.1870 C   0  0  0  0  0  0  0  0  0  0  0  0
   45.1850   31.7070   48.9240 C   0  0  0  0  0  0  0  0  0  0  0  0
   45.0250   32.4940   47.8250 N   0  0  0  0  0  0  0  0  0  0  0  0
   46.0780   32.7640   47.0040 C   0  0  0  0  0  0  0  0  0  0  0  0
   47.3030   32.2700   47.2420 N   0  0  0  0  0  0  0  0  0  0  0  0
   44.3899   34.8349   46.8223 H   0  0  0  0  0  0  0  0  0  0  0  0
   43.9497   36.3030   44.9106 H   0  0  0  0  0  0  0  0  0  0  0  0
   47.0768   35.9557   41.7593 H   0  0  0  0  0  0  0  0  0  0  0  0
   48.3887   35.4584   39.7424 H   0  0  0  0  0  0  0  0  0  0  0  0
   49.5622   32.2187   38.7235 H   0  0  0  0  0  0  0  0  0  0  0  0
   49.4718   33.9674   38.3817 H   0  0  0  0  0  0  0  0  0  0  0  0
   48.5059   31.0800   48.5146 H   0  0  0  0  0  0  0  0  0  0  0  0
   46.6250   30.5458   50.0660 H   0  0  0  0  0  0  0  0  0  0  0  0
   44.3364   31.4872   49.5885 H   0  0  0  0  0  0  0  0  0  0  0  0
  1  2  2  0
  1 19  1  0
  3  2  1  0
  4  3  2  0
  5  4  1  0
  5  6  2  0
  6  1  1  0
  7  5  1  0
  8  7  1  0
  9  8  2  0
 10  9  1  0
 10 12  2  0
 11 10  1  0
 12 13  1  0
 13  7  1  0
 13 14  2  0
 15 16  2  0
 17 16  1  0
 18 17  2  0
 19 20  2  0
 19 18  1  0
 20 15  1  0
  2 21  1  0
  3 22  1  0
  8 23  1  0
  9 24  1  0
 11 25  1  0
 11 26  1  0
 15 27  1  0
 16 28  1  0
 17 29  1  0
M  ISO  7  21  14  22  14  23  14  24  14  27  14  28  14  29  14
M  END
>  <minimizedAffinity>  (1) 
-6.15921164

>  <minimizedRMSD>  (1) 
8.09058189

$$$$
