
     RDKit          3D

 25 27  0  0  0  0  0  0  0  0999 V2000
   45.7430   33.9880   45.3780 C   0  0  0  0  0  0  0  0  0  0  0  0
   44.7970   34.9810   45.5710 C   0  0  0  0  0  0  0  0  0  0  0  0
   44.4790   35.9280   44.6320 C   0  0  0  0  0  0  0  0  0  0  0  0
   45.1080   35.9120   43.4530 N   0  0  0  0  0  0  0  0  0  0  0  0
   46.0370   34.9370   43.2610 C   0  0  0  0  0  0  0  0  0  0  0  0
   46.3610   33.9940   44.1820 N   0  0  0  0  0  0  0  0  0  0  0  0
   47.3300   31.2710   47.2570 C   0  0  0  0  0  0  0  0  0  0  0  0
   46.5320   31.1980   48.3950 C   0  0  0  0  0  0  0  0  0  0  0  0
   45.4450   32.0820   48.5190 C   0  0  0  0  0  0  0  0  0  0  0  0
   45.2280   32.9700   47.5160 N   0  0  0  0  0  0  0  0  0  0  0  0
   46.0360   33.0090   46.4170 C   0  0  0  0  0  0  0  0  0  0  0  0
   47.0700   32.1710   46.2920 N   0  0  0  0  0  0  0  0  0  0  0  0
   46.8090   34.7950   42.0090 C   0  0  0  0  0  0  0  0  0  0  0  0
   48.1100   35.0820   41.6020 C   0  0  0  0  0  0  0  0  0  0  0  0
   48.1720   34.6910   40.2760 C   0  0  0  0  0  0  0  0  0  0  0  0
   46.9690   34.1960   39.9090 N   0  0  0  0  0  0  0  0  0  0  0  0
   46.1540   34.2640   40.9640 N   0  0  0  0  0  0  0  0  0  0  0  0
   44.2691   35.0117   46.5356 H   0  0  0  0  0  0  0  0  0  0  0  0
   43.7161   36.6910   44.8463 H   0  0  0  0  0  0  0  0  0  0  0  0
   48.1827   30.5851   47.1456 H   0  0  0  0  0  0  0  0  0  0  0  0
   46.7476   30.4620   49.1835 H   0  0  0  0  0  0  0  0  0  0  0  0
   44.7904   32.0544   49.4026 H   0  0  0  0  0  0  0  0  0  0  0  0
   48.9159   35.5248   42.2057 H   0  0  0  0  0  0  0  0  0  0  0  0
   49.0562   34.7701   39.6265 H   0  0  0  0  0  0  0  0  0  0  0  0
   46.7239   33.8302   38.9779 H   0  0  0  0  0  0  0  0  0  0  0  0
  1  2  2  0
  1 11  1  0
  3  2  1  0
  4  3  2  0
  5  4  1  0
  5  6  2  0
  6  1  1  0
  7  8  2  0
  8  9  1  0
 10  9  2  0
 11 10  1  0
 12 11  2  0
 12  7  1  0
 13  5  1  0
 14 13  1  0
 15 14  2  0
 16 15  1  0
 16 17  1  0
 17 13  2  0
  2 18  1  0
  3 19  1  0
  7 20  1  0
  8 21  1  0
  9 22  1  0
 14 23  1  0
 15 24  1  0
 16 25  1  0
M  ISO  8  18  14  19  14  20  14  21  14  22  14  23  14  24  14  25   9
M  END
>  <minimizedAffinity>  (1) 
-5.76076555

>  <minimizedRMSD>  (1) 
7.21763802

$$$$
