
     RDKit          3D

 31 34  0  0  0  0  0  0  0  0999 V2000
   43.9320   35.1110   41.3560 C   0  0  0  0  0  0  0  0  0  0  0  0
   44.0660   35.7590   42.5740 C   0  0  0  0  0  0  0  0  0  0  0  0
   45.2540   35.8070   43.2660 C   0  0  0  0  0  0  0  0  0  0  0  0
   46.3410   35.2000   42.7460 N   0  0  0  0  0  0  0  0  0  0  0  0
   46.2000   34.5700   41.5580 C   0  0  0  0  0  0  0  0  0  0  0  0
   45.0420   34.5180   40.8720 N   0  0  0  0  0  0  0  0  0  0  0  0
   47.2490   33.8810   40.8730 N   0  0  0  0  0  0  0  0  0  0  0  0
   47.6330   34.1360   39.5900 C   0  0  0  0  0  0  0  0  0  0  0  0
   48.6500   33.2920   39.2870 N   0  0  0  0  0  0  0  0  0  0  0  0
   48.9160   32.5040   40.3540 C   0  0  0  0  0  0  0  0  0  0  0  0
   49.8110   31.5020   40.6100 C   0  0  0  0  0  0  0  0  0  0  0  0
   49.8210   30.8950   41.8220 N   0  0  0  0  0  0  0  0  0  0  0  0
   48.9610   31.2570   42.7980 C   0  0  0  0  0  0  0  0  0  0  0  0
   48.0800   32.2530   42.5240 N   0  0  0  0  0  0  0  0  0  0  0  0
   48.0370   32.8780   41.3440 C   0  0  0  0  0  0  0  0  0  0  0  0
   41.3570   34.4530   38.8480 C   0  0  0  0  0  0  0  0  0  0  0  0
   40.2190   35.0730   39.4080 C   0  0  0  0  0  0  0  0  0  0  0  0
   40.3600   35.7070   40.6380 C   0  0  0  0  0  0  0  0  0  0  0  0
   41.5740   35.7020   41.2430 N   0  0  0  0  0  0  0  0  0  0  0  0
   42.6390   35.0960   40.6730 C   0  0  0  0  0  0  0  0  0  0  0  0
   42.5450   34.4720   39.4830 N   0  0  0  0  0  0  0  0  0  0  0  0
   50.7300   31.1160   39.5720 N   0  0  0  0  0  0  0  0  0  0  0  0
   43.1848   36.2561   43.0057 H   0  0  0  0  0  0  0  0  0  0  0  0
   45.3169   36.3330   44.2300 H   0  0  0  0  0  0  0  0  0  0  0  0
   47.1959   34.8914   38.9204 H   0  0  0  0  0  0  0  0  0  0  0  0
   48.9737   30.7624   43.7804 H   0  0  0  0  0  0  0  0  0  0  0  0
   41.2722   33.9453   37.8758 H   0  0  0  0  0  0  0  0  0  0  0  0
   39.2502   35.0552   38.8874 H   0  0  0  0  0  0  0  0  0  0  0  0
   39.5011   36.2043   41.1123 H   0  0  0  0  0  0  0  0  0  0  0  0
   51.4128   30.3639   39.7422 H   0  0  0  0  0  0  0  0  0  0  0  0
   50.7049   31.5918   38.6588 H   0  0  0  0  0  0  0  0  0  0  0  0
  1  2  2  0
  2  3  1  0
  4  3  2  0
  5  4  1  0
  6  1  1  0
  6  5  2  0
  7 15  1  0
  7  5  1  0
  8  7  1  0
  9  8  2  0
  9 10  1  0
 10 11  2  0
 10 15  1  0
 11 12  1  0
 12 13  2  0
 14 13  1  0
 15 14  2  0
 16 17  2  0
 16 21  1  0
 17 18  1  0
 18 19  2  0
 20 19  1  0
 20  1  1  0
 21 20  2  0
 22 11  1  0
  2 23  1  0
  3 24  1  0
  8 25  1  0
 13 26  1  0
 16 27  1  0
 17 28  1  0
 18 29  1  0
 22 30  1  0
 22 31  1  0
M  ISO  7  23  14  24  14  25  14  26  14  27  14  28  14  29  14
M  END
>  <minimizedAffinity>  (1) 
-5.68974543

>  <minimizedRMSD>  (1) 
9.63873577

$$$$
