
     RDKit          3D

 25 27  0  0  0  0  0  0  0  0999 V2000
   45.8600   33.6740   45.7880 C   0  0  0  0  0  0  0  0  0  0  0  0
   44.8630   34.6490   45.8700 C   0  0  0  0  0  0  0  0  0  0  0  0
   44.5830   35.5340   44.8590 C   0  0  0  0  0  0  0  0  0  0  0  0
   45.2930   35.4750   43.7270 N   0  0  0  0  0  0  0  0  0  0  0  0
   46.2680   34.5250   43.6420 C   0  0  0  0  0  0  0  0  0  0  0  0
   46.5520   33.6450   44.6360 N   0  0  0  0  0  0  0  0  0  0  0  0
   47.1320   34.3070   42.5110 N   0  0  0  0  0  0  0  0  0  0  0  0
   47.6470   35.3570   41.8930 N   0  0  0  0  0  0  0  0  0  0  0  0
   48.4240   34.9700   40.8670 C   0  0  0  0  0  0  0  0  0  0  0  0
   48.3730   33.5790   40.8690 C   0  0  0  0  0  0  0  0  0  0  0  0
   47.5500   33.1530   41.9150 C   0  0  0  0  0  0  0  0  0  0  0  0
   47.4900   31.2830   48.0190 C   0  0  0  0  0  0  0  0  0  0  0  0
   46.5130   31.0880   49.0140 C   0  0  0  0  0  0  0  0  0  0  0  0
   45.3020   31.7840   48.9070 C   0  0  0  0  0  0  0  0  0  0  0  0
   45.1250   32.6140   47.8470 N   0  0  0  0  0  0  0  0  0  0  0  0
   46.0940   32.7730   46.9090 C   0  0  0  0  0  0  0  0  0  0  0  0
   47.2690   32.1240   46.9770 N   0  0  0  0  0  0  0  0  0  0  0  0
   44.2704   34.7108   46.7947 H   0  0  0  0  0  0  0  0  0  0  0  0
   43.7852   36.2819   44.9781 H   0  0  0  0  0  0  0  0  0  0  0  0
   48.9820   35.6156   40.1728 H   0  0  0  0  0  0  0  0  0  0  0  0
   48.8967   32.9204   40.1605 H   0  0  0  0  0  0  0  0  0  0  0  0
   47.2963   32.1199   42.1949 H   0  0  0  0  0  0  0  0  0  0  0  0
   48.4472   30.7454   48.0873 H   0  0  0  0  0  0  0  0  0  0  0  0
   46.6965   30.4046   49.8562 H   0  0  0  0  0  0  0  0  0  0  0  0
   44.5132   31.6611   49.6637 H   0  0  0  0  0  0  0  0  0  0  0  0
  1  2  2  0
  1 16  1  0
  3  2  1  0
  4  3  2  0
  5  4  1  0
  5  6  2  0
  6  1  1  0
  7  5  1  0
  8  7  1  0
  9 10  1  0
  9  8  2  0
 10 11  2  0
 11  7  1  0
 12 13  2  0
 14 13  1  0
 15 14  2  0
 16 17  2  0
 16 15  1  0
 17 12  1  0
  2 18  1  0
  3 19  1  0
  9 20  1  0
 10 21  1  0
 11 22  1  0
 12 23  1  0
 13 24  1  0
 14 25  1  0
M  ISO  8  18  14  19  14  20  14  21  14  22  14  23  14  24  14  25  14
M  END
>  <minimizedAffinity>  (1) 
-5.504879

>  <minimizedRMSD>  (1) 
7.03494406

$$$$
