
     RDKit          3D

 25 27  0  0  0  0  0  0  0  0999 V2000
   45.7980   33.8000   45.5930 C   0  0  0  0  0  0  0  0  0  0  0  0
   44.8430   34.8030   45.7690 C   0  0  0  0  0  0  0  0  0  0  0  0
   44.5140   35.7260   44.7960 C   0  0  0  0  0  0  0  0  0  0  0  0
   45.1430   35.6690   43.6030 N   0  0  0  0  0  0  0  0  0  0  0  0
   46.0590   34.6970   43.4500 C   0  0  0  0  0  0  0  0  0  0  0  0
   46.3970   33.7770   44.4000 N   0  0  0  0  0  0  0  0  0  0  0  0
   47.4070   31.2120   47.6080 C   0  0  0  0  0  0  0  0  0  0  0  0
   46.5700   31.1400   48.7410 C   0  0  0  0  0  0  0  0  0  0  0  0
   45.4580   31.9880   48.7960 C   0  0  0  0  0  0  0  0  0  0  0  0
   45.2600   32.8230   47.7550 N   0  0  0  0  0  0  0  0  0  0  0  0
   46.0740   32.8720   46.6840 C   0  0  0  0  0  0  0  0  0  0  0  0
   47.1490   32.0700   46.6040 N   0  0  0  0  0  0  0  0  0  0  0  0
   46.7690   34.6050   42.1520 C   0  0  0  0  0  0  0  0  0  0  0  0
   46.2860   33.9720   41.0110 C   0  0  0  0  0  0  0  0  0  0  0  0
   47.0680   33.9820   39.9040 C   0  0  0  0  0  0  0  0  0  0  0  0
   48.3090   34.6100   39.9290 C   0  0  0  0  0  0  0  0  0  0  0  0
   48.3690   35.2460   41.6910 S   0  0  0  0  0  0  0  0  0  0  0  0
   44.3236   34.8613   46.7369 H   0  0  0  0  0  0  0  0  0  0  0  0
   43.7518   36.4951   44.9899 H   0  0  0  0  0  0  0  0  0  0  0  0
   48.2867   30.5548   47.5440 H   0  0  0  0  0  0  0  0  0  0  0  0
   46.7853   30.4367   49.5589 H   0  0  0  0  0  0  0  0  0  0  0  0
   44.7715   31.9742   49.6554 H   0  0  0  0  0  0  0  0  0  0  0  0
   45.3023   33.4798   41.0075 H   0  0  0  0  0  0  0  0  0  0  0  0
   46.7202   33.4919   38.9827 H   0  0  0  0  0  0  0  0  0  0  0  0
   49.0563   34.7074   39.1278 H   0  0  0  0  0  0  0  0  0  0  0  0
  1  2  2  0
  1 11  1  0
  3  2  1  0
  4  3  2  0
  5  4  1  0
  5  6  2  0
  6  1  1  0
  7  8  2  0
  8  9  1  0
 10  9  2  0
 11 10  1  0
 12 11  2  0
 12  7  1  0
 13  5  1  0
 14 13  2  0
 15 16  2  0
 15 14  1  0
 16 17  1  0
 17 13  1  0
  2 18  1  0
  3 19  1  0
  7 20  1  0
  8 21  1  0
  9 22  1  0
 14 23  1  0
 15 24  1  0
 16 25  1  0
M  ISO  8  18  14  19  14  20  14  21  14  22  14  23  14  24  14  25  14
M  END
>  <minimizedAffinity>  (1) 
-5.46855545

>  <minimizedRMSD>  (1) 
7.36817932

$$$$
