
     RDKit          3D

 28 30  0  0  0  0  0  0  0  0999 V2000
   48.2810   32.1820   43.1120 C   0  0  0  0  0  0  0  0  0  0  0  0
   48.6390   30.9520   42.5860 C   0  0  0  0  0  0  0  0  0  0  0  0
   48.4420   29.7600   43.2490 C   0  0  0  0  0  0  0  0  0  0  0  0
   47.8810   29.7620   44.4580 N   0  0  0  0  0  0  0  0  0  0  0  0
   47.5290   30.9660   44.9750 C   0  0  0  0  0  0  0  0  0  0  0  0
   47.7170   32.1480   44.3320 N   0  0  0  0  0  0  0  0  0  0  0  0
   46.9110   31.1980   46.2610 N   0  0  0  0  0  0  0  0  0  0  0  0
   47.4630   30.5230   47.2880 C   0  0  0  0  0  0  0  0  0  0  0  0
   46.8980   30.7160   48.5550 C   0  0  0  0  0  0  0  0  0  0  0  0
   45.8240   31.5750   48.6610 C   0  0  0  0  0  0  0  0  0  0  0  0
   45.2910   31.7680   49.8070 O   0  0  0  0  0  0  0  0  0  0  0  0
   45.3040   32.2320   47.6000 N   0  0  0  0  0  0  0  0  0  0  0  0
   45.8720   32.0250   46.3830 C   0  0  0  0  0  0  0  0  0  0  0  0
   45.4800   32.5800   45.3080 O   0  0  0  0  0  0  0  0  0  0  0  0
   49.5190   35.5070   42.1770 C   0  0  0  0  0  0  0  0  0  0  0  0
   48.9240   35.7080   40.9190 C   0  0  0  0  0  0  0  0  0  0  0  0
   48.1140   34.6980   40.4280 C   0  0  0  0  0  0  0  0  0  0  0  0
   47.9230   33.5680   41.1560 N   0  0  0  0  0  0  0  0  0  0  0  0
   48.5140   33.4120   42.3630 C   0  0  0  0  0  0  0  0  0  0  0  0
   49.3070   34.3680   42.8770 N   0  0  0  0  0  0  0  0  0  0  0  0
   49.1038   30.9251   41.5894 H   0  0  0  0  0  0  0  0  0  0  0  0
   48.7463   28.8114   42.7826 H   0  0  0  0  0  0  0  0  0  0  0  0
   48.3199   29.8498   47.1380 H   0  0  0  0  0  0  0  0  0  0  0  0
   47.2987   30.1981   49.4389 H   0  0  0  0  0  0  0  0  0  0  0  0
   44.5025   32.8694   47.7106 H   0  0  0  0  0  0  0  0  0  0  0  0
   50.1677   36.2885   42.5994 H   0  0  0  0  0  0  0  0  0  0  0  0
   49.0954   36.6318   40.3470 H   0  0  0  0  0  0  0  0  0  0  0  0
   47.6256   34.8111   39.4489 H   0  0  0  0  0  0  0  0  0  0  0  0
  1  6  1  0
  2  1  2  0
  2  3  1  0
  3  4  2  0
  4  5  1  0
  5  7  1  0
  6  5  2  0
  7 13  1  0
  7  8  1  0
  8  9  2  0
  9 10  1  0
 10 11  2  0
 12 10  1  0
 13 12  1  0
 14 13  2  0
 15 20  2  0
 16 15  1  0
 17 16  2  0
 17 18  1  0
 18 19  2  0
 19 20  1  0
 19  1  1  0
  2 21  1  0
  3 22  1  0
  8 23  1  0
  9 24  1  0
 12 25  1  0
 15 26  1  0
 16 27  1  0
 17 28  1  0
M  ISO  8  21  14  22  14  23  14  24  14  25   9  26  14  27  14  28  14
M  END
>  <minimizedAffinity>  (1) 
-5.07310486

>  <minimizedRMSD>  (1) 
4.50020933

$$$$
