
     RDKit          3D

 27 28  0  0  0  0  0  0  0  0999 V2000
   46.4790   32.9010   45.4060 C   0  0  0  0  0  0  0  0  0  0  0  0
   46.9990   31.8120   44.7200 C   0  0  0  0  0  0  0  0  0  0  0  0
   47.5070   30.6940   45.3240 C   0  0  0  0  0  0  0  0  0  0  0  0
   47.5080   30.6390   46.6540 N   0  0  0  0  0  0  0  0  0  0  0  0
   47.0030   31.6980   47.3450 C   0  0  0  0  0  0  0  0  0  0  0  0
   46.4990   32.8060   46.7350 N   0  0  0  0  0  0  0  0  0  0  0  0
   44.5110   35.8760   44.5500 C   0  0  0  0  0  0  0  0  0  0  0  0
   45.0010   36.1970   43.2720 C   0  0  0  0  0  0  0  0  0  0  0  0
   46.0040   35.3810   42.7240 C   0  0  0  0  0  0  0  0  0  0  0  0
   46.4670   34.3190   43.4340 N   0  0  0  0  0  0  0  0  0  0  0  0
   45.9570   34.0510   44.6720 C   0  0  0  0  0  0  0  0  0  0  0  0
   44.9950   34.8130   45.2260 N   0  0  0  0  0  0  0  0  0  0  0  0
   46.9650   31.7210   48.8330 C   0  0  0  0  0  0  0  0  0  0  0  0
   48.1070   30.8330   49.3250 C   0  0  0  0  0  0  0  0  0  0  0  0
   45.6610   31.2210   49.3720 C   0  0  0  0  0  0  0  0  0  0  0  0
   47.0030   31.8501   43.6207 H   0  0  0  0  0  0  0  0  0  0  0  0
   47.9047   29.8614   44.7252 H   0  0  0  0  0  0  0  0  0  0  0  0
   43.7250   36.4977   45.0036 H   0  0  0  0  0  0  0  0  0  0  0  0
   44.6099   37.0626   42.7171 H   0  0  0  0  0  0  0  0  0  0  0  0
   46.4122   35.6002   41.7263 H   0  0  0  0  0  0  0  0  0  0  0  0
   47.0743   32.7569   49.1864 H   0  0  0  0  0  0  0  0  0  0  0  0
   48.1174   30.8249   50.4249 H   0  0  0  0  0  0  0  0  0  0  0  0
   47.9615   29.8084   48.9521 H   0  0  0  0  0  0  0  0  0  0  0  0
   49.0642   31.2264   48.9521 H   0  0  0  0  0  0  0  0  0  0  0  0
   45.6903   31.2322   50.4716 H   0  0  0  0  0  0  0  0  0  0  0  0
   44.8457   31.8703   49.0203 H   0  0  0  0  0  0  0  0  0  0  0  0
   45.4888   30.1931   49.0203 H   0  0  0  0  0  0  0  0  0  0  0  0
  1  6  2  0
  2  3  2  0
  2  1  1  0
  3  4  1  0
  4  5  2  0
  5 13  1  0
  6  5  1  0
  7 12  2  0
  8  7  1  0
  9  8  2  0
  9 10  1  0
 10 11  2  0
 11 12  1  0
 11  1  1  0
 13 14  1  0
 13 15  1  0
  2 16  1  0
  3 17  1  0
  7 18  1  0
  8 19  1  0
  9 20  1  0
 13 21  1  0
 14 22  1  0
 14 23  1  0
 14 24  1  0
 15 25  1  0
 15 26  1  0
 15 27  1  0
M  ISO  8  16  14  17  14  18  14  19  14  20  14  21   8  22   8  23   8
M  ISO  4  24   8  25   8  26   8  27   8
M  END
>  <minimizedAffinity>  (1) 
-4.89317894

>  <minimizedRMSD>  (1) 
1.90053058

$$$$
