
     RDKit          3D

 23 25  0  0  0  0  0  0  0  0999 V2000
   46.1450   33.0800   45.5580 C   0  0  0  0  0  0  0  0  0  0  0  0
   45.2290   34.0650   45.2200 C   0  0  0  0  0  0  0  0  0  0  0  0
   45.3700   34.9010   44.1420 C   0  0  0  0  0  0  0  0  0  0  0  0
   46.4590   34.7700   43.3560 N   0  0  0  0  0  0  0  0  0  0  0  0
   47.3510   33.8130   43.6840 C   0  0  0  0  0  0  0  0  0  0  0  0
   47.2130   32.9760   44.7580 N   0  0  0  0  0  0  0  0  0  0  0  0
   45.5520   30.1140   47.6320 C   0  0  0  0  0  0  0  0  0  0  0  0
   45.4880   30.6640   48.9180 C   0  0  0  0  0  0  0  0  0  0  0  0
   45.6480   32.0360   49.0610 C   0  0  0  0  0  0  0  0  0  0  0  0
   45.8600   32.8020   47.9480 N   0  0  0  0  0  0  0  0  0  0  0  0
   45.9150   32.2310   46.7250 C   0  0  0  0  0  0  0  0  0  0  0  0
   45.7640   30.9050   46.5570 N   0  0  0  0  0  0  0  0  0  0  0  0
   48.5920   33.5340   42.9360 C   0  0  0  0  0  0  0  0  0  0  0  0
   49.7030   34.2920   42.7930 N   0  0  0  0  0  0  0  0  0  0  0  0
   50.5460   33.6540   42.0510 O   0  0  0  0  0  0  0  0  0  0  0  0
   50.0840   32.5050   41.6730 C   0  0  0  0  0  0  0  0  0  0  0  0
   48.8390   32.4120   42.2270 N   0  0  0  0  0  0  0  0  0  0  0  0
   44.3374   34.1825   45.8535 H   0  0  0  0  0  0  0  0  0  0  0  0
   44.6092   35.6644   43.9221 H   0  0  0  0  0  0  0  0  0  0  0  0
   45.4287   29.0295   47.4956 H   0  0  0  0  0  0  0  0  0  0  0  0
   45.3148   30.0236   49.7955 H   0  0  0  0  0  0  0  0  0  0  0  0
   45.6048   32.5009   50.0570 H   0  0  0  0  0  0  0  0  0  0  0  0
   50.5880   31.7605   41.0392 H   0  0  0  0  0  0  0  0  0  0  0  0
  1 11  1  0
  2  1  2  0
  3  2  1  0
  4  5  1  0
  4  3  2  0
  5  6  2  0
  6  1  1  0
  7  8  2  0
  8  9  1  0
 10  9  2  0
 11 10  1  0
 12 11  2  0
 12  7  1  0
 13  5  1  0
 14 13  2  0
 15 14  1  0
 16 15  1  0
 16 17  2  0
 17 13  1  0
  2 18  1  0
  3 19  1  0
  7 20  1  0
  8 21  1  0
  9 22  1  0
 16 23  1  0
M  ISO  6  18  14  19  14  20  14  21  14  22  14  23  14
M  END
>  <minimizedAffinity>  (1) 
-4.77521276

>  <minimizedRMSD>  (1) 
7.04499578

$$$$
