
     RDKit          3D

 28 30  0  0  0  0  0  0  0  0999 V2000
   45.9320   32.7890   43.4420 C   0  0  0  0  0  0  0  0  0  0  0  0
   47.0760   32.1700   42.9600 C   0  0  0  0  0  0  0  0  0  0  0  0
   47.8680   31.3350   43.7110 C   0  0  0  0  0  0  0  0  0  0  0  0
   47.5240   31.0940   44.9950 N   0  0  0  0  0  0  0  0  0  0  0  0
   46.4140   31.6980   45.4530 C   0  0  0  0  0  0  0  0  0  0  0  0
   45.6100   32.5330   44.7230 N   0  0  0  0  0  0  0  0  0  0  0  0
   43.9510   35.6360   42.2490 C   0  0  0  0  0  0  0  0  0  0  0  0
   43.6810   35.2850   40.9250 C   0  0  0  0  0  0  0  0  0  0  0  0
   44.1850   34.0780   40.4690 C   0  0  0  0  0  0  0  0  0  0  0  0
   44.9120   33.2820   41.3000 N   0  0  0  0  0  0  0  0  0  0  0  0
   45.1510   33.6600   42.5760 C   0  0  0  0  0  0  0  0  0  0  0  0
   44.6770   34.8170   43.0400 N   0  0  0  0  0  0  0  0  0  0  0  0
   46.0280   31.4460   46.8410 C   0  0  0  0  0  0  0  0  0  0  0  0
   45.4790   30.2460   47.2440 C   0  0  0  0  0  0  0  0  0  0  0  0
   45.1000   29.9500   48.5220 C   0  0  0  0  0  0  0  0  0  0  0  0
   45.3110   30.9780   49.4330 C   0  0  0  0  0  0  0  0  0  0  0  0
   45.8530   32.1980   49.1020 C   0  0  0  0  0  0  0  0  0  0  0  0
   46.2170   32.4360   47.7880 C   0  0  0  0  0  0  0  0  0  0  0  0
   47.3661   32.3585   41.9158 H   0  0  0  0  0  0  0  0  0  0  0  0
   48.7652   30.8716   43.2748 H   0  0  0  0  0  0  0  0  0  0  0  0
   43.5697   36.5864   42.6507 H   0  0  0  0  0  0  0  0  0  0  0  0
   43.0907   35.9417   40.2691 H   0  0  0  0  0  0  0  0  0  0  0  0
   43.9972   33.7619   39.4323 H   0  0  0  0  0  0  0  0  0  0  0  0
   45.3359   29.4694   46.4782 H   0  0  0  0  0  0  0  0  0  0  0  0
   44.6648   28.9805   48.8062 H   0  0  0  0  0  0  0  0  0  0  0  0
   45.0275   30.8056   50.4818 H   0  0  0  0  0  0  0  0  0  0  0  0
   45.9950   32.9727   49.8699 H   0  0  0  0  0  0  0  0  0  0  0  0
   46.6527   33.4039   47.4995 H   0  0  0  0  0  0  0  0  0  0  0  0
  1  6  1  0
  2  1  2  0
  2  3  1  0
  3  4  2  0
  4  5  1  0
  5 13  1  0
  6  5  2  0
  7 12  2  0
  8  7  1  0
  9  8  2  0
  9 10  1  0
 10 11  2  0
 11 12  1  0
 11  1  1  0
 13 14  2  0
 13 18  1  0
 14 15  1  0
 15 16  2  0
 17 16  1  0
 18 17  2  0
  2 19  1  0
  3 20  1  0
  7 21  1  0
  8 22  1  0
  9 23  1  0
 14 24  1  0
 15 25  1  0
 16 26  1  0
 17 27  1  0
 18 28  1  0
M  ISO  8  19  14  20  14  21  14  22  14  23  14  24  14  25  14  26  14
M  ISO  2  27  14  28  14
M  END
>  <minimizedAffinity>  (1) 
-4.66527462

>  <minimizedRMSD>  (1) 
3.42736936

$$$$
