
     RDKit          3D

 32 35  0  0  0  0  0  0  0  0999 V2000
   46.9590   34.2450   42.3280 C   0  0  0  0  0  0  0  0  0  0  0  0
   47.6820   35.2580   41.7190 C   0  0  0  0  0  0  0  0  0  0  0  0
   48.4520   35.0720   40.5910 C   0  0  0  0  0  0  0  0  0  0  0  0
   48.5240   33.8650   40.0370 N   0  0  0  0  0  0  0  0  0  0  0  0
   47.8200   32.8620   40.6230 C   0  0  0  0  0  0  0  0  0  0  0  0
   47.0550   33.0410   41.7410 N   0  0  0  0  0  0  0  0  0  0  0  0
   47.7450   31.4840   40.2040 N   0  0  0  0  0  0  0  0  0  0  0  0
   46.6530   30.6950   40.0030 C   0  0  0  0  0  0  0  0  0  0  0  0
   47.0640   29.4740   39.6150 N   0  0  0  0  0  0  0  0  0  0  0  0
   48.3930   29.4540   39.5590 C   0  0  0  0  0  0  0  0  0  0  0  0
   49.3730   28.5420   39.2430 C   0  0  0  0  0  0  0  0  0  0  0  0
   48.9920   27.3810   38.9020 O   0  0  0  0  0  0  0  0  0  0  0  0
   50.6930   28.7940   39.2720 N   0  0  0  0  0  0  0  0  0  0  0  0
   51.0200   30.0540   39.6450 C   0  0  0  0  0  0  0  0  0  0  0  0
   52.4280   30.3480   39.6820 N   0  0  0  0  0  0  0  0  0  0  0  0
   50.1320   31.0230   39.9740 N   0  0  0  0  0  0  0  0  0  0  0  0
   48.8090   30.7010   39.9250 C   0  0  0  0  0  0  0  0  0  0  0  0
   45.5350   33.9780   45.6870 C   0  0  0  0  0  0  0  0  0  0  0  0
   44.6450   35.0460   45.7370 C   0  0  0  0  0  0  0  0  0  0  0  0
   44.5520   35.8440   44.6010 C   0  0  0  0  0  0  0  0  0  0  0  0
   45.3160   35.5530   43.5250 N   0  0  0  0  0  0  0  0  0  0  0  0
   46.1650   34.5080   43.5190 C   0  0  0  0  0  0  0  0  0  0  0  0
   46.2960   33.7020   44.5890 N   0  0  0  0  0  0  0  0  0  0  0  0
   47.6392   36.2650   42.1595 H   0  0  0  0  0  0  0  0  0  0  0  0
   49.0034   35.9164   40.1518 H   0  0  0  0  0  0  0  0  0  0  0  0
   45.6061   31.0054   40.1361 H   0  0  0  0  0  0  0  0  0  0  0  0
   51.3997   28.0849   39.0297 H   0  0  0  0  0  0  0  0  0  0  0  0
   52.7511   31.2866   39.9569 H   0  0  0  0  0  0  0  0  0  0  0  0
   53.1128   29.6199   39.4336 H   0  0  0  0  0  0  0  0  0  0  0  0
   45.6291   33.3288   46.5700 H   0  0  0  0  0  0  0  0  0  0  0  0
   44.0421   35.2504   46.6340 H   0  0  0  0  0  0  0  0  0  0  0  0
   43.8642   36.7022   44.5790 H   0  0  0  0  0  0  0  0  0  0  0  0
  1 22  1  0
  2  1  2  0
  3  2  1  0
  4  3  2  0
  4  5  1  0
  5  6  2  0
  6  1  1  0
  7  5  1  0
  8  7  1  0
  9  8  2  0
 10  9  1  0
 10 17  2  0
 11 13  1  0
 11 10  1  0
 12 11  2  0
 13 14  1  0
 14 15  1  0
 14 16  2  0
 17 16  1  0
 17  7  1  0
 18 19  2  0
 20 19  1  0
 21 20  2  0
 22 21  1  0
 22 23  2  0
 23 18  1  0
  2 24  1  0
  3 25  1  0
  8 26  1  0
 13 27  1  0
 15 28  1  0
 15 29  1  0
 18 30  1  0
 19 31  1  0
 20 32  1  0
M  ISO  7  24  14  25  14  26  14  27   9  30  14  31  14  32  14
M  END
>  <minimizedAffinity>  (1) 
-4.52465868

>  <minimizedRMSD>  (1) 
10.2841797

$$$$
