
     RDKit          3D

 32 34  0  0  0  0  0  0  0  0999 V2000
   46.9920   32.7800   44.1280 C   0  0  0  0  0  0  0  0  0  0  0  0
   47.8940   32.6560   43.0680 C   0  0  0  0  0  0  0  0  0  0  0  0
   48.7220   31.5670   42.9170 C   0  0  0  0  0  0  0  0  0  0  0  0
   48.6840   30.5720   43.8030 N   0  0  0  0  0  0  0  0  0  0  0  0
   47.8060   30.6960   44.8320 C   0  0  0  0  0  0  0  0  0  0  0  0
   46.9770   31.7670   44.9990 N   0  0  0  0  0  0  0  0  0  0  0  0
   47.7480   29.6450   45.7910 N   0  0  0  0  0  0  0  0  0  0  0  0
   46.5330   29.3340   46.4950 C   0  0  0  0  0  0  0  0  0  0  0  0
   46.6510   28.0410   47.2410 C   0  0  0  0  0  0  0  0  0  0  0  0
   47.7800   28.0120   48.1410 N   0  0  0  0  0  0  0  0  0  0  0  0
   48.9660   28.6080   47.5910 C   0  0  0  0  0  0  0  0  0  0  0  0
   48.8860   28.8420   46.1090 C   0  0  0  0  0  0  0  0  0  0  0  0
   44.6650   35.2820   45.4180 C   0  0  0  0  0  0  0  0  0  0  0  0
   44.5730   36.2000   44.3740 C   0  0  0  0  0  0  0  0  0  0  0  0
   45.3160   35.9510   43.2310 C   0  0  0  0  0  0  0  0  0  0  0  0
   46.0950   34.8380   43.1670 N   0  0  0  0  0  0  0  0  0  0  0  0
   46.1530   33.9710   44.2090 C   0  0  0  0  0  0  0  0  0  0  0  0
   45.4450   34.1840   45.3310 N   0  0  0  0  0  0  0  0  0  0  0  0
   47.9445   33.4632   42.3224 H   0  0  0  0  0  0  0  0  0  0  0  0
   49.4155   31.5178   42.0646 H   0  0  0  0  0  0  0  0  0  0  0  0
   46.3166   30.1415   47.2099 H   0  0  0  0  0  0  0  0  0  0  0  0
   45.7210   29.2370   45.7593 H   0  0  0  0  0  0  0  0  0  0  0  0
   45.7320   27.8882   47.8259 H   0  0  0  0  0  0  0  0  0  0  0  0
   46.8009   27.2439   46.4979 H   0  0  0  0  0  0  0  0  0  0  0  0
   47.5263   28.5223   48.9990 H   0  0  0  0  0  0  0  0  0  0  0  0
   49.1324   29.5752   48.0879 H   0  0  0  0  0  0  0  0  0  0  0  0
   49.7927   27.9032   47.7636 H   0  0  0  0  0  0  0  0  0  0  0  0
   48.8017   27.8739   45.5935 H   0  0  0  0  0  0  0  0  0  0  0  0
   49.7953   29.3673   45.7817 H   0  0  0  0  0  0  0  0  0  0  0  0
   44.0867   35.4567   46.3373 H   0  0  0  0  0  0  0  0  0  0  0  0
   43.9331   37.0911   44.4542 H   0  0  0  0  0  0  0  0  0  0  0  0
   45.2760   36.6486   42.3815 H   0  0  0  0  0  0  0  0  0  0  0  0
  1 17  1  0
  1  6  1  0
  2  1  2  0
  3  2  1  0
  3  4  2  0
  4  5  1  0
  5  6  2  0
  5  7  1  0
  7 12  1  0
  7  8  1  0
  8  9  1  0
  9 10  1  0
 11 10  1  0
 12 11  1  0
 14 13  2  0
 15 14  1  0
 16 15  2  0
 16 17  1  0
 17 18  2  0
 18 13  1  0
  2 19  1  0
  3 20  1  0
  8 21  1  0
  8 22  1  0
  9 23  1  0
  9 24  1  0
 10 25  1  0
 11 26  1  0
 11 27  1  0
 12 28  1  0
 12 29  1  0
 13 30  1  0
 14 31  1  0
 15 32  1  0
M  ISO  8  19  14  20  14  21  13  22  13  23  13  24  13  25   5  26  13
M  ISO  6  27  13  28  13  29  13  30  14  31  14  32  14
M  END
>  <minimizedAffinity>  (1) 
-4.43840885

>  <minimizedRMSD>  (1) 
4.65329885

$$$$
