
     RDKit          3D

 30 32  0  0  0  0  0  0  0  0999 V2000
   46.6220   34.7670   42.0880 C   0  0  0  0  0  0  0  0  0  0  0  0
   47.9210   35.1910   42.0200 C   0  0  0  0  0  0  0  0  0  0  0  0
   48.6830   35.0450   40.8520 C   0  0  0  0  0  0  0  0  0  0  0  0
   48.1140   34.4560   39.7280 C   0  0  0  0  0  0  0  0  0  0  0  0
   46.8060   34.0330   39.8050 C   0  0  0  0  0  0  0  0  0  0  0  0
   46.0720   34.1840   40.9620 C   0  0  0  0  0  0  0  0  0  0  0  0
   44.4410   36.1450   44.8290 C   0  0  0  0  0  0  0  0  0  0  0  0
   45.0790   36.0600   43.5920 C   0  0  0  0  0  0  0  0  0  0  0  0
   45.9120   34.9600   43.3340 C   0  0  0  0  0  0  0  0  0  0  0  0
   46.0640   34.0300   44.2910 N   0  0  0  0  0  0  0  0  0  0  0  0
   45.4140   34.1580   45.4930 C   0  0  0  0  0  0  0  0  0  0  0  0
   44.6220   35.1960   45.7490 N   0  0  0  0  0  0  0  0  0  0  0  0
   44.6830   33.7220   41.0360 C   0  0  0  0  0  0  0  0  0  0  0  0
   43.6790   34.5620   40.5570 C   0  0  0  0  0  0  0  0  0  0  0  0
   42.3610   34.1880   40.5860 C   0  0  0  0  0  0  0  0  0  0  0  0
   42.0210   32.9660   41.0990 C   0  0  0  0  0  0  0  0  0  0  0  0
   42.9960   32.1200   41.5800 C   0  0  0  0  0  0  0  0  0  0  0  0
   44.3360   32.4920   41.5530 C   0  0  0  0  0  0  0  0  0  0  0  0
   48.3793   35.6583   42.9041 H   0  0  0  0  0  0  0  0  0  0  0  0
   49.7256   35.3946   40.8249 H   0  0  0  0  0  0  0  0  0  0  0  0
   48.6938   34.3313   38.8016 H   0  0  0  0  0  0  0  0  0  0  0  0
   46.3377   33.5655   38.9263 H   0  0  0  0  0  0  0  0  0  0  0  0
   43.7843   37.0000   45.0476 H   0  0  0  0  0  0  0  0  0  0  0  0
   44.9321   36.8412   42.8317 H   0  0  0  0  0  0  0  0  0  0  0  0
   45.5510   33.3843   46.2628 H   0  0  0  0  0  0  0  0  0  0  0  0
   43.9505   35.5460   40.1470 H   0  0  0  0  0  0  0  0  0  0  0  0
   41.5836   34.8640   40.2004 H   0  0  0  0  0  0  0  0  0  0  0  0
   40.9654   32.6580   41.1274 H   0  0  0  0  0  0  0  0  0  0  0  0
   42.7117   31.1396   41.9899 H   0  0  0  0  0  0  0  0  0  0  0  0
   45.1099   31.8126   41.9397 H   0  0  0  0  0  0  0  0  0  0  0  0
  1  9  1  0
  2  1  2  0
  3  2  1  0
  4  5  1  0
  4  3  2  0
  5  6  2  0
  6 13  1  0
  6  1  1  0
  7 12  2  0
  8  7  1  0
  9  8  2  0
  9 10  1  0
 10 11  2  0
 11 12  1  0
 13 18  2  0
 14 15  2  0
 14 13  1  0
 15 16  1  0
 16 17  2  0
 18 17  1  0
  2 19  1  0
  3 20  1  0
  4 21  1  0
  5 22  1  0
  7 23  1  0
  8 24  1  0
 11 25  1  0
 14 26  1  0
 15 27  1  0
 16 28  1  0
 17 29  1  0
 18 30  1  0
M  ISO  8  19  14  20  14  21  14  22  14  23  14  24  14  25  14  26  14
M  ISO  4  27  14  28  14  29  14  30  14
M  END
>  <minimizedAffinity>  (1) 
-5.78420591

>  <minimizedRMSD>  (1) 
0.581538737

$$$$
