
     RDKit          3D

 36 39  0  0  0  0  0  0  0  0999 V2000
   44.4410   35.7820   44.9820 C   0  0  0  0  0  0  0  0  0  0  0  0
   45.0630   35.8470   43.7500 C   0  0  0  0  0  0  0  0  0  0  0  0
   46.0310   34.9230   43.3960 C   0  0  0  0  0  0  0  0  0  0  0  0
   46.3210   33.9600   44.3210 N   0  0  0  0  0  0  0  0  0  0  0  0
   45.7040   33.9070   45.5210 C   0  0  0  0  0  0  0  0  0  0  0  0
   44.7790   34.8060   45.8420 N   0  0  0  0  0  0  0  0  0  0  0  0
   46.0680   32.8430   46.4590 C   0  0  0  0  0  0  0  0  0  0  0  0
   46.9880   31.8620   46.0870 C   0  0  0  0  0  0  0  0  0  0  0  0
   47.3670   30.8390   46.9290 C   0  0  0  0  0  0  0  0  0  0  0  0
   46.8480   30.7630   48.1500 N   0  0  0  0  0  0  0  0  0  0  0  0
   45.9470   31.7260   48.5140 C   0  0  0  0  0  0  0  0  0  0  0  0
   45.5460   32.7580   47.7050 N   0  0  0  0  0  0  0  0  0  0  0  0
   45.2870   31.8090   49.7790 N   0  0  0  0  0  0  0  0  0  0  0  0
   46.7420   34.7710   42.1510 C   0  0  0  0  0  0  0  0  0  0  0  0
   47.9760   35.3960   42.0430 C   0  0  0  0  0  0  0  0  0  0  0  0
   48.7870   35.3680   40.9280 C   0  0  0  0  0  0  0  0  0  0  0  0
   48.3790   34.6810   39.8220 C   0  0  0  0  0  0  0  0  0  0  0  0
   47.1650   34.0390   39.8520 C   0  0  0  0  0  0  0  0  0  0  0  0
   46.7140   33.3710   38.7420 C   0  0  0  0  0  0  0  0  0  0  0  0
   45.4790   32.7340   38.7020 C   0  0  0  0  0  0  0  0  0  0  0  0
   44.7130   32.8160   39.8720 C   0  0  0  0  0  0  0  0  0  0  0  0
   45.2020   33.4900   40.9520 C   0  0  0  0  0  0  0  0  0  0  0  0
   46.4180   34.1140   40.9950 C   0  0  0  0  0  0  0  0  0  0  0  0
   43.6756   36.5228   45.2567 H   0  0  0  0  0  0  0  0  0  0  0  0
   44.7858   36.6422   43.0423 H   0  0  0  0  0  0  0  0  0  0  0  0
   47.4289   31.9071   45.0802 H   0  0  0  0  0  0  0  0  0  0  0  0
   48.0965   30.0880   46.5916 H   0  0  0  0  0  0  0  0  0  0  0  0
   44.6214   32.5731   49.9634 H   0  0  0  0  0  0  0  0  0  0  0  0
   45.4770   31.1047   50.5062 H   0  0  0  0  0  0  0  0  0  0  0  0
   48.3363   35.9589   42.9167 H   0  0  0  0  0  0  0  0  0  0  0  0
   49.7530   35.8942   40.9302 H   0  0  0  0  0  0  0  0  0  0  0  0
   49.0109   34.6420   38.9225 H   0  0  0  0  0  0  0  0  0  0  0  0
   47.3547   33.3381   37.8485 H   0  0  0  0  0  0  0  0  0  0  0  0
   45.1256   32.1993   37.8080 H   0  0  0  0  0  0  0  0  0  0  0  0
   43.7227   32.3395   39.9193 H   0  0  0  0  0  0  0  0  0  0  0  0
   44.5730   33.5349   41.8533 H   0  0  0  0  0  0  0  0  0  0  0  0
  1  6  2  0
  2  1  1  0
  3  2  2  0
  3  4  1  0
  4  5  2  0
  5  6  1  0
  5  7  1  0
  7 12  1  0
  8  7  2  0
  8  9  1  0
  9 10  2  0
 10 11  1  0
 11 13  1  0
 12 11  2  0
 14  3  1  0
 15 14  2  0
 16 15  1  0
 17 18  1  0
 17 16  2  0
 18 23  2  0
 19 18  1  0
 20 19  2  0
 20 21  1  0
 21 22  2  0
 22 23  1  0
 23 14  1  0
  1 24  1  0
  2 25  1  0
  8 26  1  0
  9 27  1  0
 13 28  1  0
 13 29  1  0
 15 30  1  0
 16 31  1  0
 17 32  1  0
 19 33  1  0
 20 34  1  0
 21 35  1  0
 22 36  1  0
M  ISO  8  24  14  25  14  26  14  27  14  30  14  31  14  32  14  33  14
M  ISO  3  34  14  35  14  36  14
M  END
>  <minimizedAffinity>  (1) 
-7.64100075

>  <minimizedRMSD>  (1) 
1.47317338

$$$$
