
     RDKit          3D

 30 32  0  0  0  0  0  0  0  0999 V2000
   44.5160   35.7410   44.9300 C   0  0  0  0  0  0  0  0  0  0  0  0
   45.1540   35.7500   43.6790 C   0  0  0  0  0  0  0  0  0  0  0  0
   46.0890   34.7790   43.3780 C   0  0  0  0  0  0  0  0  0  0  0  0
   46.3570   33.8390   44.3180 N   0  0  0  0  0  0  0  0  0  0  0  0
   45.7230   33.8490   45.5300 C   0  0  0  0  0  0  0  0  0  0  0  0
   44.8100   34.7830   45.8470 N   0  0  0  0  0  0  0  0  0  0  0  0
   46.0590   32.8060   46.4990 C   0  0  0  0  0  0  0  0  0  0  0  0
   46.9630   31.8090   46.1770 C   0  0  0  0  0  0  0  0  0  0  0  0
   47.3280   30.8000   47.0290 C   0  0  0  0  0  0  0  0  0  0  0  0
   46.7850   30.7630   48.2530 N   0  0  0  0  0  0  0  0  0  0  0  0
   45.8950   31.7400   48.5800 C   0  0  0  0  0  0  0  0  0  0  0  0
   45.5320   32.7420   47.7340 N   0  0  0  0  0  0  0  0  0  0  0  0
   45.2160   31.8620   49.8430 N   0  0  0  0  0  0  0  0  0  0  0  0
   46.7570   34.7380   42.1490 N   0  0  0  0  0  0  0  0  0  0  0  0
   47.9750   35.2400   41.9500 C   0  0  0  0  0  0  0  0  0  0  0  0
   48.5930   35.1710   40.6980 C   0  0  0  0  0  0  0  0  0  0  0  0
   47.9210   34.5660   39.6460 C   0  0  0  0  0  0  0  0  0  0  0  0
   48.4220   34.4670   38.4800 O   0  0  0  0  0  0  0  0  0  0  0  0
   46.6930   34.0620   39.8570 N   0  0  0  0  0  0  0  0  0  0  0  0
   46.1760   34.1680   41.0740 C   0  0  0  0  0  0  0  0  0  0  0  0
   45.0110   33.6710   41.2040 O   0  0  0  0  0  0  0  0  0  0  0  0
   43.7725   36.5156   45.1691 H   0  0  0  0  0  0  0  0  0  0  0  0
   44.9098   36.5282   42.9409 H   0  0  0  0  0  0  0  0  0  0  0  0
   47.4166   31.8277   45.1751 H   0  0  0  0  0  0  0  0  0  0  0  0
   48.0530   30.0350   46.7140 H   0  0  0  0  0  0  0  0  0  0  0  0
   44.5569   32.6376   50.0005 H   0  0  0  0  0  0  0  0  0  0  0  0
   45.3892   31.1737   50.5894 H   0  0  0  0  0  0  0  0  0  0  0  0
   48.5046   35.7181   42.7872 H   0  0  0  0  0  0  0  0  0  0  0  0
   49.5987   35.5908   40.5490 H   0  0  0  0  0  0  0  0  0  0  0  0
   46.1688   33.6069   39.0961 H   0  0  0  0  0  0  0  0  0  0  0  0
  1  6  2  0
  2  1  1  0
  3  2  2  0
  3  4  1  0
  4  5  2  0
  5  6  1  0
  5  7  1  0
  7 12  1  0
  8  7  2  0
  8  9  1  0
  9 10  2  0
 10 11  1  0
 11 13  1  0
 12 11  2  0
 14  3  1  0
 15 14  1  0
 16 15  2  0
 17 19  1  0
 17 16  1  0
 18 17  2  0
 19 20  1  0
 20 21  2  0
 20 14  1  0
  1 22  1  0
  2 23  1  0
  8 24  1  0
  9 25  1  0
 13 26  1  0
 13 27  1  0
 15 28  1  0
 16 29  1  0
 19 30  1  0
M  ISO  7  22  14  23  14  24  14  25  14  28  14  29  14  30   9
M  END
>  <minimizedAffinity>  (1) 
-7.11301517

>  <minimizedRMSD>  (1) 
0.434595406

$$$$
