
     RDKit          3D

 31 34  0  0  0  0  0  0  0  0999 V2000
   44.6620   35.5170   44.6730 C   0  0  0  0  0  0  0  0  0  0  0  0
   45.4020   35.5790   43.5000 C   0  0  0  0  0  0  0  0  0  0  0  0
   46.4270   34.6570   43.3170 C   0  0  0  0  0  0  0  0  0  0  0  0
   46.6870   33.7180   44.2760 N   0  0  0  0  0  0  0  0  0  0  0  0
   45.9270   33.7020   45.4120 C   0  0  0  0  0  0  0  0  0  0  0  0
   44.9260   34.5860   45.6160 N   0  0  0  0  0  0  0  0  0  0  0  0
   46.2190   32.6960   46.4190 C   0  0  0  0  0  0  0  0  0  0  0  0
   47.0710   31.6460   46.1410 C   0  0  0  0  0  0  0  0  0  0  0  0
   47.3800   30.6710   47.0540 C   0  0  0  0  0  0  0  0  0  0  0  0
   46.8560   30.7050   48.2710 N   0  0  0  0  0  0  0  0  0  0  0  0
   46.0160   31.7320   48.5590 C   0  0  0  0  0  0  0  0  0  0  0  0
   45.6940   32.7120   47.6670 N   0  0  0  0  0  0  0  0  0  0  0  0
   45.3350   31.9670   49.8130 N   0  0  0  0  0  0  0  0  0  0  0  0
   47.1590   34.7480   42.1140 N   0  0  0  0  0  0  0  0  0  0  0  0
   48.2790   35.4670   41.9360 C   0  0  0  0  0  0  0  0  0  0  0  0
   48.6950   35.3220   40.6870 N   0  0  0  0  0  0  0  0  0  0  0  0
   47.8650   34.5060   40.0130 C   0  0  0  0  0  0  0  0  0  0  0  0
   47.8690   34.0530   38.7100 C   0  0  0  0  0  0  0  0  0  0  0  0
   46.8520   33.2210   38.3580 N   0  0  0  0  0  0  0  0  0  0  0  0
   45.9030   32.8800   39.2790 C   0  0  0  0  0  0  0  0  0  0  0  0
   45.9060   33.3230   40.5430 N   0  0  0  0  0  0  0  0  0  0  0  0
   46.8980   34.1590   40.9500 C   0  0  0  0  0  0  0  0  0  0  0  0
   43.8474   36.2376   44.8374 H   0  0  0  0  0  0  0  0  0  0  0  0
   45.1831   36.3382   42.7347 H   0  0  0  0  0  0  0  0  0  0  0  0
   47.5232   31.5889   45.1399 H   0  0  0  0  0  0  0  0  0  0  0  0
   48.0656   29.8572   46.7754 H   0  0  0  0  0  0  0  0  0  0  0  0
   44.7173   32.7845   49.9183 H   0  0  0  0  0  0  0  0  0  0  0  0
   45.4676   31.3169   50.6008 H   0  0  0  0  0  0  0  0  0  0  0  0
   48.7725   36.0791   42.7052 H   0  0  0  0  0  0  0  0  0  0  0  0
   48.6513   34.3482   37.9952 H   0  0  0  0  0  0  0  0  0  0  0  0
   45.0926   32.2053   38.9659 H   0  0  0  0  0  0  0  0  0  0  0  0
  1  6  2  0
  2  1  1  0
  3  2  2  0
  3  4  1  0
  4  5  2  0
  5  6  1  0
  5  7  1  0
  7 12  1  0
  8  7  2  0
  8  9  1  0
  9 10  2  0
 10 11  1  0
 11 13  1  0
 12 11  2  0
 14  3  1  0
 15 14  1  0
 16 15  2  0
 17 16  1  0
 17 22  2  0
 18 17  1  0
 19 18  2  0
 19 20  1  0
 20 21  2  0
 21 22  1  0
 22 14  1  0
  1 23  1  0
  2 24  1  0
  8 25  1  0
  9 26  1  0
 13 27  1  0
 13 28  1  0
 15 29  1  0
 18 30  1  0
 20 31  1  0
M  ISO  7  23  14  24  14  25  14  26  14  29  14  30  14  31  14
M  END
>  <minimizedAffinity>  (1) 
-6.72284126

>  <minimizedRMSD>  (1) 
1.01843083

$$$$
