
     RDKit          3D

 28 30  0  0  0  0  0  0  0  0999 V2000
   46.6270   34.7730   42.0820 C   0  0  0  0  0  0  0  0  0  0  0  0
   47.9130   35.2630   42.0090 C   0  0  0  0  0  0  0  0  0  0  0  0
   48.6810   35.1410   40.8440 C   0  0  0  0  0  0  0  0  0  0  0  0
   48.1360   34.5080   39.7190 C   0  0  0  0  0  0  0  0  0  0  0  0
   46.8490   34.0230   39.8070 C   0  0  0  0  0  0  0  0  0  0  0  0
   46.1190   34.1580   40.9700 C   0  0  0  0  0  0  0  0  0  0  0  0
   44.4510   36.0860   44.8650 C   0  0  0  0  0  0  0  0  0  0  0  0
   45.0800   36.0280   43.6160 C   0  0  0  0  0  0  0  0  0  0  0  0
   45.9190   34.9500   43.3320 C   0  0  0  0  0  0  0  0  0  0  0  0
   46.0890   34.0040   44.2800 N   0  0  0  0  0  0  0  0  0  0  0  0
   45.4630   34.0880   45.4880 C   0  0  0  0  0  0  0  0  0  0  0  0
   44.6520   35.1190   45.7740 N   0  0  0  0  0  0  0  0  0  0  0  0
   44.7580   33.6320   41.0280 C   0  0  0  0  0  0  0  0  0  0  0  0
   43.7490   34.4230   40.5090 C   0  0  0  0  0  0  0  0  0  0  0  0
   42.4400   33.9810   40.5330 C   0  0  0  0  0  0  0  0  0  0  0  0
   42.1240   32.7650   41.0660 N   0  0  0  0  0  0  0  0  0  0  0  0
   43.1360   32.0040   41.5710 C   0  0  0  0  0  0  0  0  0  0  0  0
   44.4000   32.4260   41.5500 N   0  0  0  0  0  0  0  0  0  0  0  0
   48.3472   35.7624   42.8876 H   0  0  0  0  0  0  0  0  0  0  0  0
   49.7057   35.5397   40.8125 H   0  0  0  0  0  0  0  0  0  0  0  0
   48.7187   34.4012   38.7921 H   0  0  0  0  0  0  0  0  0  0  0  0
   46.3976   33.5215   38.9383 H   0  0  0  0  0  0  0  0  0  0  0  0
   43.7872   36.9301   45.1034 H   0  0  0  0  0  0  0  0  0  0  0  0
   44.9155   36.8197   42.8702 H   0  0  0  0  0  0  0  0  0  0  0  0
   45.6245   33.3003   46.2387 H   0  0  0  0  0  0  0  0  0  0  0  0
   43.9890   35.4055   40.0764 H   0  0  0  0  0  0  0  0  0  0  0  0
   41.6438   34.6163   40.1179 H   0  0  0  0  0  0  0  0  0  0  0  0
   42.9043   31.0203   42.0053 H   0  0  0  0  0  0  0  0  0  0  0  0
  1  9  1  0
  2  1  2  0
  3  2  1  0
  4  5  1  0
  4  3  2  0
  5  6  2  0
  6 13  1  0
  6  1  1  0
  7 12  2  0
  8  7  1  0
  9  8  2  0
  9 10  1  0
 10 11  2  0
 11 12  1  0
 13 18  2  0
 14 15  2  0
 14 13  1  0
 15 16  1  0
 16 17  2  0
 18 17  1  0
  2 19  1  0
  3 20  1  0
  4 21  1  0
  5 22  1  0
  7 23  1  0
  8 24  1  0
 11 25  1  0
 14 26  1  0
 15 27  1  0
 17 28  1  0
M  ISO  8  19  14  20  14  21  14  22  14  23  14  24  14  25  14  26  14
M  ISO  2  27  14  28  14
M  END
>  <minimizedAffinity>  (1) 
-5.73262835

>  <minimizedRMSD>  (1) 
0.758952975

$$$$
