
     RDKit          3D

 27 29  0  0  0  0  0  0  0  0999 V2000
   44.5270   35.6560   44.8390 C   0  0  0  0  0  0  0  0  0  0  0  0
   45.2140   35.7550   43.6430 C   0  0  0  0  0  0  0  0  0  0  0  0
   46.2110   34.8310   43.4250 C   0  0  0  0  0  0  0  0  0  0  0  0
   46.5220   33.8660   44.3230 N   0  0  0  0  0  0  0  0  0  0  0  0
   45.8030   33.8180   45.4950 C   0  0  0  0  0  0  0  0  0  0  0  0
   44.8300   34.6990   45.7370 N   0  0  0  0  0  0  0  0  0  0  0  0
   46.1230   32.7870   46.4690 C   0  0  0  0  0  0  0  0  0  0  0  0
   47.0300   31.7840   46.1370 C   0  0  0  0  0  0  0  0  0  0  0  0
   47.3790   30.7830   46.9980 C   0  0  0  0  0  0  0  0  0  0  0  0
   46.8430   30.7460   48.2090 N   0  0  0  0  0  0  0  0  0  0  0  0
   45.9530   31.7240   48.5430 C   0  0  0  0  0  0  0  0  0  0  0  0
   45.5830   32.7360   47.7120 N   0  0  0  0  0  0  0  0  0  0  0  0
   45.2600   31.8680   49.8000 N   0  0  0  0  0  0  0  0  0  0  0  0
   46.9920   34.8310   42.2260 C   0  0  0  0  0  0  0  0  0  0  0  0
   48.1680   35.3690   41.7250 C   0  0  0  0  0  0  0  0  0  0  0  0
   48.5580   35.0900   40.4490 C   0  0  0  0  0  0  0  0  0  0  0  0
   47.7790   34.2560   39.6190 C   0  0  0  0  0  0  0  0  0  0  0  0
   46.3370   33.8200   40.7730 S   0  0  0  0  0  0  0  0  0  0  0  0
   43.7202   36.3702   45.0605 H   0  0  0  0  0  0  0  0  0  0  0  0
   44.9758   36.5331   42.9028 H   0  0  0  0  0  0  0  0  0  0  0  0
   47.4860   31.7986   45.1361 H   0  0  0  0  0  0  0  0  0  0  0  0
   48.1004   30.0126   46.6881 H   0  0  0  0  0  0  0  0  0  0  0  0
   44.6061   32.6513   49.9408 H   0  0  0  0  0  0  0  0  0  0  0  0
   45.4191   31.1875   50.5567 H   0  0  0  0  0  0  0  0  0  0  0  0
   48.7869   36.0217   42.3582 H   0  0  0  0  0  0  0  0  0  0  0  0
   49.4928   35.5209   40.0610 H   0  0  0  0  0  0  0  0  0  0  0  0
   47.9595   33.9423   38.5802 H   0  0  0  0  0  0  0  0  0  0  0  0
  1  6  2  0
  2  1  1  0
  3  2  2  0
  3  4  1  0
  4  5  2  0
  5  6  1  0
  5  7  1  0
  7 12  1  0
  8  7  2  0
  8  9  1  0
  9 10  2  0
 10 11  1  0
 11 13  1  0
 12 11  2  0
 14  3  1  0
 15 14  2  0
 16 15  1  0
 17 16  2  0
 17 18  1  0
 18 14  1  0
  1 19  1  0
  2 20  1  0
  8 21  1  0
  9 22  1  0
 13 23  1  0
 13 24  1  0
 15 25  1  0
 16 26  1  0
 17 27  1  0
M  ISO  7  19  14  20  14  21  14  22  14  25  14  26  14  27  14
M  END
>  <minimizedAffinity>  (1) 
-6.41167259

>  <minimizedRMSD>  (1) 
0.542292714

$$$$
