
     RDKit          3D

 32 34  0  0  0  0  0  0  0  0999 V2000
   44.4850   35.7390   44.9670 C   0  0  0  0  0  0  0  0  0  0  0  0
   45.0770   35.7780   43.7090 C   0  0  0  0  0  0  0  0  0  0  0  0
   46.0150   34.8010   43.4030 C   0  0  0  0  0  0  0  0  0  0  0  0
   46.3350   33.8470   44.3120 N   0  0  0  0  0  0  0  0  0  0  0  0
   45.7250   33.8530   45.5340 C   0  0  0  0  0  0  0  0  0  0  0  0
   44.8120   34.7840   45.8640 N   0  0  0  0  0  0  0  0  0  0  0  0
   46.0830   32.8190   46.4950 C   0  0  0  0  0  0  0  0  0  0  0  0
   47.0140   31.8410   46.1660 C   0  0  0  0  0  0  0  0  0  0  0  0
   47.3990   30.8360   47.0210 C   0  0  0  0  0  0  0  0  0  0  0  0
   46.8680   30.7740   48.2350 N   0  0  0  0  0  0  0  0  0  0  0  0
   45.9490   31.7300   48.5780 C   0  0  0  0  0  0  0  0  0  0  0  0
   45.5600   32.7350   47.7290 N   0  0  0  0  0  0  0  0  0  0  0  0
   45.2720   31.8300   49.8280 N   0  0  0  0  0  0  0  0  0  0  0  0
   46.6410   34.8050   42.1320 N   0  0  0  0  0  0  0  0  0  0  0  0
   46.0500   34.3120   40.9010 C   0  0  0  0  0  0  0  0  0  0  0  0
   47.2520   33.7910   40.1510 C   0  0  0  0  0  0  0  0  0  0  0  0
   48.3140   34.7940   40.4660 C   0  0  0  0  0  0  0  0  0  0  0  0
   47.9730   35.2980   41.8390 C   0  0  0  0  0  0  0  0  0  0  0  0
   43.7372   36.4995   45.2360 H   0  0  0  0  0  0  0  0  0  0  0  0
   44.8107   36.5576   42.9801 H   0  0  0  0  0  0  0  0  0  0  0  0
   47.4685   31.8730   45.1648 H   0  0  0  0  0  0  0  0  0  0  0  0
   48.1410   30.0896   46.7013 H   0  0  0  0  0  0  0  0  0  0  0  0
   44.5954   32.5900   49.9879 H   0  0  0  0  0  0  0  0  0  0  0  0
   45.4593   31.1423   50.5716 H   0  0  0  0  0  0  0  0  0  0  0  0
   45.3264   33.5080   41.1010 H   0  0  0  0  0  0  0  0  0  0  0  0
   45.4840   35.0761   40.3481 H   0  0  0  0  0  0  0  0  0  0  0  0
   47.0552   33.7518   39.0695 H   0  0  0  0  0  0  0  0  0  0  0  0
   47.5285   32.7660   40.4390 H   0  0  0  0  0  0  0  0  0  0  0  0
   49.3069   34.3206   40.4629 H   0  0  0  0  0  0  0  0  0  0  0  0
   48.3512   35.6052   39.7240 H   0  0  0  0  0  0  0  0  0  0  0  0
   48.6928   34.9128   42.5762 H   0  0  0  0  0  0  0  0  0  0  0  0
   48.0127   36.3964   41.8840 H   0  0  0  0  0  0  0  0  0  0  0  0
  1  6  2  0
  2  1  1  0
  3  2  2  0
  3  4  1  0
  4  5  2  0
  5  6  1  0
  5  7  1  0
  7 12  1  0
  8  7  2  0
  8  9  1  0
  9 10  2  0
 10 11  1  0
 11 13  1  0
 12 11  2  0
 14  3  1  0
 15 14  1  0
 16 17  1  0
 16 15  1  0
 17 18  1  0
 18 14  1  0
  1 19  1  0
  2 20  1  0
  8 21  1  0
  9 22  1  0
 13 23  1  0
 13 24  1  0
 15 25  1  0
 15 26  1  0
 16 27  1  0
 16 28  1  0
 17 29  1  0
 17 30  1  0
 18 31  1  0
 18 32  1  0
M  ISO  8  19  14  20  14  21  14  22  14  25  13  26  13  27  13  28  13
M  ISO  4  29  13  30  13  31  13  32  13
M  END
>  <minimizedAffinity>  (1) 
-6.31790876

>  <minimizedRMSD>  (1) 
0.511192918

$$$$
