
     RDKit          3D

 34 36  0  0  0  0  0  0  0  0999 V2000
   44.5150   35.6840   44.8170 C   0  0  0  0  0  0  0  0  0  0  0  0
   45.2210   35.7680   43.6080 C   0  0  0  0  0  0  0  0  0  0  0  0
   46.2270   34.8540   43.3550 C   0  0  0  0  0  0  0  0  0  0  0  0
   46.4980   33.9070   44.2800 N   0  0  0  0  0  0  0  0  0  0  0  0
   45.7990   33.8510   45.4370 C   0  0  0  0  0  0  0  0  0  0  0  0
   44.8150   34.7240   45.7150 N   0  0  0  0  0  0  0  0  0  0  0  0
   46.1300   32.8060   46.4080 C   0  0  0  0  0  0  0  0  0  0  0  0
   47.0250   31.8060   46.0750 C   0  0  0  0  0  0  0  0  0  0  0  0
   47.3700   30.8060   46.9440 C   0  0  0  0  0  0  0  0  0  0  0  0
   46.8410   30.7640   48.1680 N   0  0  0  0  0  0  0  0  0  0  0  0
   45.9580   31.7510   48.4970 C   0  0  0  0  0  0  0  0  0  0  0  0
   45.5990   32.7550   47.6530 N   0  0  0  0  0  0  0  0  0  0  0  0
   45.2940   31.8690   49.7570 N   0  0  0  0  0  0  0  0  0  0  0  0
   46.9940   34.8560   42.1700 N   0  0  0  0  0  0  0  0  0  0  0  0
   48.2920   35.4520   41.9690 C   0  0  0  0  0  0  0  0  0  0  0  0
   49.3110   34.4150   41.5300 C   0  0  0  0  0  0  0  0  0  0  0  0
   48.7760   33.5510   40.4980 N   0  0  0  0  0  0  0  0  0  0  0  0
   47.5680   34.0900   39.9080 C   0  0  0  0  0  0  0  0  0  0  0  0
   46.5180   34.2150   40.9610 C   0  0  0  0  0  0  0  0  0  0  0  0
   43.7127   36.4047   45.0336 H   0  0  0  0  0  0  0  0  0  0  0  0
   44.9781   36.5490   42.8725 H   0  0  0  0  0  0  0  0  0  0  0  0
   47.4776   31.8143   45.0725 H   0  0  0  0  0  0  0  0  0  0  0  0
   48.0873   30.0329   46.6313 H   0  0  0  0  0  0  0  0  0  0  0  0
   44.6402   32.6472   49.9237 H   0  0  0  0  0  0  0  0  0  0  0  0
   45.4693   31.1758   50.4984 H   0  0  0  0  0  0  0  0  0  0  0  0
   48.2140   36.2287   41.1940 H   0  0  0  0  0  0  0  0  0  0  0  0
   48.6267   35.8871   42.9223 H   0  0  0  0  0  0  0  0  0  0  0  0
   50.2006   34.9307   41.1392 H   0  0  0  0  0  0  0  0  0  0  0  0
   49.5700   33.7945   42.4006 H   0  0  0  0  0  0  0  0  0  0  0  0
   49.4847   33.4381   39.7591 H   0  0  0  0  0  0  0  0  0  0  0  0
   47.7788   35.0811   39.4798 H   0  0  0  0  0  0  0  0  0  0  0  0
   47.2143   33.4171   39.1130 H   0  0  0  0  0  0  0  0  0  0  0  0
   45.6854   34.8085   40.5554 H   0  0  0  0  0  0  0  0  0  0  0  0
   46.2057   33.1960   41.2331 H   0  0  0  0  0  0  0  0  0  0  0  0
  1  6  2  0
  2  1  1  0
  3  2  2  0
  3  4  1  0
  4  5  2  0
  5  6  1  0
  5  7  1  0
  7 12  1  0
  8  7  2  0
  8  9  1  0
  9 10  2  0
 10 11  1  0
 11 13  1  0
 12 11  2  0
 14  3  1  0
 15 14  1  0
 16 15  1  0
 17 16  1  0
 18 17  1  0
 18 19  1  0
 19 14  1  0
  1 20  1  0
  2 21  1  0
  8 22  1  0
  9 23  1  0
 13 24  1  0
 13 25  1  0
 15 26  1  0
 15 27  1  0
 16 28  1  0
 16 29  1  0
 17 30  1  0
 18 31  1  0
 18 32  1  0
 19 33  1  0
 19 34  1  0
M  ISO  8  20  14  21  14  22  14  23  14  26  13  27  13  28  13  29  13
M  ISO  5  30   5  31  13  32  13  33  13  34  13
M  END
>  <minimizedAffinity>  (1) 
-6.1968236

>  <minimizedRMSD>  (1) 
1.01824141

$$$$
