
     RDKit          3D

 27 29  0  0  0  0  0  0  0  0999 V2000
   44.4790   35.8150   44.9300 C   0  0  0  0  0  0  0  0  0  0  0  0
   45.0410   35.8560   43.6650 C   0  0  0  0  0  0  0  0  0  0  0  0
   45.9590   34.8740   43.3170 C   0  0  0  0  0  0  0  0  0  0  0  0
   46.2590   33.9200   44.2330 N   0  0  0  0  0  0  0  0  0  0  0  0
   45.6930   33.9070   45.4620 C   0  0  0  0  0  0  0  0  0  0  0  0
   44.8100   34.8470   45.8060 N   0  0  0  0  0  0  0  0  0  0  0  0
   46.0470   32.8620   46.4130 C   0  0  0  0  0  0  0  0  0  0  0  0
   46.9630   31.8790   46.0290 C   0  0  0  0  0  0  0  0  0  0  0  0
   47.3490   30.8600   46.8710 C   0  0  0  0  0  0  0  0  0  0  0  0
   46.8390   30.7890   48.1040 N   0  0  0  0  0  0  0  0  0  0  0  0
   45.9500   31.7470   48.4650 C   0  0  0  0  0  0  0  0  0  0  0  0
   45.5500   32.7700   47.6500 N   0  0  0  0  0  0  0  0  0  0  0  0
   45.3000   31.8390   49.7380 N   0  0  0  0  0  0  0  0  0  0  0  0
   46.6590   34.7170   42.0850 N   0  0  0  0  0  0  0  0  0  0  0  0
   47.9280   35.2110   41.9920 C   0  0  0  0  0  0  0  0  0  0  0  0
   48.4450   34.9660   40.7280 C   0  0  0  0  0  0  0  0  0  0  0  0
   47.4590   34.3180   40.0800 N   0  0  0  0  0  0  0  0  0  0  0  0
   46.3930   34.1680   40.8850 C   0  0  0  0  0  0  0  0  0  0  0  0
   43.7507   36.5852   45.2240 H   0  0  0  0  0  0  0  0  0  0  0  0
   44.7666   36.6479   42.9526 H   0  0  0  0  0  0  0  0  0  0  0  0
   47.3915   31.9207   45.0168 H   0  0  0  0  0  0  0  0  0  0  0  0
   48.0747   30.1071   46.5297 H   0  0  0  0  0  0  0  0  0  0  0  0
   44.6365   32.6047   49.9233 H   0  0  0  0  0  0  0  0  0  0  0  0
   45.4961   31.1394   50.4681 H   0  0  0  0  0  0  0  0  0  0  0  0
   48.4632   35.7284   42.8018 H   0  0  0  0  0  0  0  0  0  0  0  0
   49.4380   35.2399   40.3420 H   0  0  0  0  0  0  0  0  0  0  0  0
   45.4505   33.6738   40.6067 H   0  0  0  0  0  0  0  0  0  0  0  0
  1  6  2  0
  2  1  1  0
  3  2  2  0
  3  4  1  0
  4  5  2  0
  5  6  1  0
  5  7  1  0
  7 12  1  0
  8  7  2  0
  8  9  1  0
  9 10  2  0
 10 11  1  0
 11 13  1  0
 12 11  2  0
 14  3  1  0
 15 14  1  0
 16 15  2  0
 17 16  1  0
 17 18  2  0
 18 14  1  0
  1 19  1  0
  2 20  1  0
  8 21  1  0
  9 22  1  0
 13 23  1  0
 13 24  1  0
 15 25  1  0
 16 26  1  0
 18 27  1  0
M  ISO  7  19  14  20  14  21  14  22  14  25  14  26  14  27  14
M  END
>  <minimizedAffinity>  (1) 
-6.12173843

>  <minimizedRMSD>  (1) 
0.52394855

$$$$
