
     RDKit          3D

 27 29  0  0  0  0  0  0  0  0999 V2000
   44.5580   35.6360   44.8570 C   0  0  0  0  0  0  0  0  0  0  0  0
   45.2390   35.6710   43.6300 C   0  0  0  0  0  0  0  0  0  0  0  0
   46.2170   34.7110   43.4010 C   0  0  0  0  0  0  0  0  0  0  0  0
   46.5000   33.7720   44.3380 N   0  0  0  0  0  0  0  0  0  0  0  0
   45.8060   33.7790   45.5230 C   0  0  0  0  0  0  0  0  0  0  0  0
   44.8430   34.6910   45.7990 N   0  0  0  0  0  0  0  0  0  0  0  0
   46.1290   32.7620   46.5130 C   0  0  0  0  0  0  0  0  0  0  0  0
   47.0370   31.7580   46.2230 C   0  0  0  0  0  0  0  0  0  0  0  0
   47.3830   30.7730   47.1050 C   0  0  0  0  0  0  0  0  0  0  0  0
   46.8380   30.7510   48.3130 N   0  0  0  0  0  0  0  0  0  0  0  0
   45.9390   31.7350   48.6140 C   0  0  0  0  0  0  0  0  0  0  0  0
   45.5740   32.7340   47.7460 N   0  0  0  0  0  0  0  0  0  0  0  0
   45.2310   31.8950   49.8650 N   0  0  0  0  0  0  0  0  0  0  0  0
   46.9420   34.7210   42.1350 C   0  0  0  0  0  0  0  0  0  0  0  0
   46.5240   34.1210   40.9650 C   0  0  0  0  0  0  0  0  0  0  0  0
   47.4590   34.3490   40.0240 N   0  0  0  0  0  0  0  0  0  0  0  0
   48.4470   35.0810   40.6020 C   0  0  0  0  0  0  0  0  0  0  0  0
   48.1280   35.3090   41.8980 N   0  0  0  0  0  0  0  0  0  0  0  0
   43.7793   36.3851   45.0631 H   0  0  0  0  0  0  0  0  0  0  0  0
   45.0057   36.4346   42.8734 H   0  0  0  0  0  0  0  0  0  0  0  0
   47.5058   31.7528   45.2279 H   0  0  0  0  0  0  0  0  0  0  0  0
   48.1109   30.0015   46.8135 H   0  0  0  0  0  0  0  0  0  0  0  0
   44.5715   32.6767   49.9872 H   0  0  0  0  0  0  0  0  0  0  0  0
   45.3863   31.2273   50.6337 H   0  0  0  0  0  0  0  0  0  0  0  0
   45.5907   33.5557   40.8257 H   0  0  0  0  0  0  0  0  0  0  0  0
   49.3595   35.4320   40.0980 H   0  0  0  0  0  0  0  0  0  0  0  0
   48.6918   35.8373   42.5792 H   0  0  0  0  0  0  0  0  0  0  0  0
  1  6  2  0
  2  1  1  0
  3  2  2  0
  3  4  1  0
  4  5  2  0
  5  6  1  0
  5  7  1  0
  7 12  1  0
  8  7  2  0
  8  9  1  0
  9 10  2  0
 10 11  1  0
 11 13  1  0
 12 11  2  0
 14  3  1  0
 15 14  2  0
 16 17  2  0
 16 15  1  0
 17 18  1  0
 18 14  1  0
  1 19  1  0
  2 20  1  0
  8 21  1  0
  9 22  1  0
 13 23  1  0
 13 24  1  0
 15 25  1  0
 17 26  1  0
 18 27  1  0
M  ISO  7  19  14  20  14  21  14  22  14  25  14  26  14  27   9
M  END
>  <minimizedAffinity>  (1) 
-6.092834

>  <minimizedRMSD>  (1) 
0.538488328

$$$$
