
     RDKit          3D

 33 35  0  0  0  0  0  0  0  0999 V2000
   44.5200   35.5970   45.0060 C   0  0  0  0  0  0  0  0  0  0  0  0
   45.1280   35.5810   43.7630 C   0  0  0  0  0  0  0  0  0  0  0  0
   46.0840   34.6010   43.4900 C   0  0  0  0  0  0  0  0  0  0  0  0
   46.3720   33.7040   44.4660 N   0  0  0  0  0  0  0  0  0  0  0  0
   45.7560   33.7490   45.6710 C   0  0  0  0  0  0  0  0  0  0  0  0
   44.8280   34.6910   45.9550 N   0  0  0  0  0  0  0  0  0  0  0  0
   46.1000   32.7600   46.6910 C   0  0  0  0  0  0  0  0  0  0  0  0
   47.0880   31.8220   46.4260 C   0  0  0  0  0  0  0  0  0  0  0  0
   47.4710   30.8580   47.3320 C   0  0  0  0  0  0  0  0  0  0  0  0
   46.8730   30.8090   48.5270 N   0  0  0  0  0  0  0  0  0  0  0  0
   45.9090   31.7280   48.7790 C   0  0  0  0  0  0  0  0  0  0  0  0
   45.5230   32.6840   47.8930 N   0  0  0  0  0  0  0  0  0  0  0  0
   45.1650   31.8240   50.0010 N   0  0  0  0  0  0  0  0  0  0  0  0
   46.8030   34.4430   42.2680 N   0  0  0  0  0  0  0  0  0  0  0  0
   47.8370   35.3590   41.8210 C   0  0  0  0  0  0  0  0  0  0  0  0
   48.7050   34.6210   40.8310 C   0  0  0  0  0  0  0  0  0  0  0  0
   47.9840   34.3110   39.6860 O   0  0  0  0  0  0  0  0  0  0  0  0
   46.7060   33.8860   39.9390 C   0  0  0  0  0  0  0  0  0  0  0  0
   46.5550   33.3370   41.3600 C   0  0  0  0  0  0  0  0  0  0  0  0
   43.7668   36.3682   45.2249 H   0  0  0  0  0  0  0  0  0  0  0  0
   44.8621   36.3291   43.0017 H   0  0  0  0  0  0  0  0  0  0  0  0
   47.5884   31.8498   45.4468 H   0  0  0  0  0  0  0  0  0  0  0  0
   48.2603   30.1361   47.0753 H   0  0  0  0  0  0  0  0  0  0  0  0
   44.4473   32.5546   50.1109 H   0  0  0  0  0  0  0  0  0  0  0  0
   45.3483   31.1624   50.7689 H   0  0  0  0  0  0  0  0  0  0  0  0
   47.3789   36.2347   41.3381 H   0  0  0  0  0  0  0  0  0  0  0  0
   48.4368   35.7098   42.6738 H   0  0  0  0  0  0  0  0  0  0  0  0
   49.5617   35.2548   40.5584 H   0  0  0  0  0  0  0  0  0  0  0  0
   49.0554   33.6866   41.2937 H   0  0  0  0  0  0  0  0  0  0  0  0
   46.0177   34.7345   39.8111 H   0  0  0  0  0  0  0  0  0  0  0  0
   46.4721   33.0742   39.2345 H   0  0  0  0  0  0  0  0  0  0  0  0
   45.5374   32.9465   41.5085 H   0  0  0  0  0  0  0  0  0  0  0  0
   47.2610   32.5131   41.5409 H   0  0  0  0  0  0  0  0  0  0  0  0
  1  6  2  0
  2  1  1  0
  3  2  2  0
  3  4  1  0
  4  5  2  0
  5  6  1  0
  5  7  1  0
  7 12  1  0
  8  7  2  0
  8  9  1  0
  9 10  2  0
 10 11  1  0
 11 13  1  0
 12 11  2  0
 14  3  1  0
 15 14  1  0
 16 15  1  0
 17 18  1  0
 17 16  1  0
 18 19  1  0
 19 14  1  0
  1 20  1  0
  2 21  1  0
  8 22  1  0
  9 23  1  0
 13 24  1  0
 13 25  1  0
 15 26  1  0
 15 27  1  0
 16 28  1  0
 16 29  1  0
 18 30  1  0
 18 31  1  0
 19 32  1  0
 19 33  1  0
M  ISO  8  20  14  21  14  22  14  23  14  26  13  27  13  28  13  29  13
M  ISO  4  30  13  31  13  32  13  33  13
M  END
>  <minimizedAffinity>  (1) 
-5.96032381

>  <minimizedRMSD>  (1) 
0.434102893

$$$$
