
     RDKit          3D

 29 30  0  0  0  0  0  0  0  0999 V2000
   46.1890   32.7270   46.6230 C   0  0  0  0  0  0  0  0  0  0  0  0
   47.1790   31.7870   46.4110 C   0  0  0  0  0  0  0  0  0  0  0  0
   47.5360   30.8570   47.3510 C   0  0  0  0  0  0  0  0  0  0  0  0
   46.9180   30.8320   48.5360 N   0  0  0  0  0  0  0  0  0  0  0  0
   45.9450   31.7520   48.7490 C   0  0  0  0  0  0  0  0  0  0  0  0
   45.5820   32.6840   47.8190 N   0  0  0  0  0  0  0  0  0  0  0  0
   45.1720   31.8840   49.9500 N   0  0  0  0  0  0  0  0  0  0  0  0
   44.6450   35.5440   44.8620 C   0  0  0  0  0  0  0  0  0  0  0  0
   45.2630   35.4710   43.6090 C   0  0  0  0  0  0  0  0  0  0  0  0
   46.1960   34.4710   43.3680 C   0  0  0  0  0  0  0  0  0  0  0  0
   46.4670   33.6020   44.3730 N   0  0  0  0  0  0  0  0  0  0  0  0
   45.8540   33.6960   45.5790 C   0  0  0  0  0  0  0  0  0  0  0  0
   44.9410   34.6620   45.8360 N   0  0  0  0  0  0  0  0  0  0  0  0
   46.9040   34.3060   42.0810 C   0  0  0  0  0  0  0  0  0  0  0  0
   47.9470   35.3580   41.8750 C   0  0  0  0  0  0  0  0  0  0  0  0
   45.8660   34.3620   40.9890 C   0  0  0  0  0  0  0  0  0  0  0  0
   47.7039   31.7854   45.4443 H   0  0  0  0  0  0  0  0  0  0  0  0
   48.3318   30.1302   47.1306 H   0  0  0  0  0  0  0  0  0  0  0  0
   44.4511   32.6163   50.0206 H   0  0  0  0  0  0  0  0  0  0  0  0
   45.3378   31.2465   50.7418 H   0  0  0  0  0  0  0  0  0  0  0  0
   43.9051   36.3348   45.0549 H   0  0  0  0  0  0  0  0  0  0  0  0
   45.0124   36.1983   42.8227 H   0  0  0  0  0  0  0  0  0  0  0  0
   47.4353   33.3429   42.0712 H   0  0  0  0  0  0  0  0  0  0  0  0
   48.3033   35.7173   42.8517 H   0  0  0  0  0  0  0  0  0  0  0  0
   48.7902   34.9328   41.3109 H   0  0  0  0  0  0  0  0  0  0  0  0
   47.5146   36.1975   41.3109 H   0  0  0  0  0  0  0  0  0  0  0  0
   44.8635   34.4161   41.4385 H   0  0  0  0  0  0  0  0  0  0  0  0
   46.0370   35.2522   40.3659 H   0  0  0  0  0  0  0  0  0  0  0  0
   45.9402   33.4585   40.3659 H   0  0  0  0  0  0  0  0  0  0  0  0
  1  6  1  0
  2  1  2  0
  2  3  1  0
  3  4  2  0
  4  5  1  0
  5  7  1  0
  6  5  2  0
  8 13  2  0
  9  8  1  0
 10  9  2  0
 10 11  1  0
 11 12  2  0
 12 13  1  0
 12  1  1  0
 14 10  1  0
 15 14  1  0
 16 14  1  0
  2 17  1  0
  3 18  1  0
  7 19  1  0
  7 20  1  0
  8 21  1  0
  9 22  1  0
 14 23  1  0
 15 24  1  0
 15 25  1  0
 15 26  1  0
 16 27  1  0
 16 28  1  0
 16 29  1  0
M  ISO  8  17  14  18  14  21  14  22  14  23   8  24   8  25   8  26   8
M  ISO  3  27   8  28   8  29   8
M  END
>  <minimizedAffinity>  (1) 
-5.63807058

>  <minimizedRMSD>  (1) 
0.55011344

$$$$
