
     RDKit          3D

 27 29  0  0  0  0  0  0  0  0999 V2000
   44.5590   35.5430   45.0410 C   0  0  0  0  0  0  0  0  0  0  0  0
   45.0800   35.4340   43.7620 C   0  0  0  0  0  0  0  0  0  0  0  0
   45.9620   34.3920   43.4850 C   0  0  0  0  0  0  0  0  0  0  0  0
   46.2700   33.5360   44.4760 N   0  0  0  0  0  0  0  0  0  0  0  0
   45.7580   33.6520   45.7130 C   0  0  0  0  0  0  0  0  0  0  0  0
   44.9060   34.6540   45.9880 N   0  0  0  0  0  0  0  0  0  0  0  0
   46.1330   32.6890   46.7410 C   0  0  0  0  0  0  0  0  0  0  0  0
   47.1440   31.7830   46.5250 C   0  0  0  0  0  0  0  0  0  0  0  0
   47.5290   30.8650   47.4520 C   0  0  0  0  0  0  0  0  0  0  0  0
   46.9250   30.8100   48.6330 N   0  0  0  0  0  0  0  0  0  0  0  0
   45.9270   31.6980   48.8600 C   0  0  0  0  0  0  0  0  0  0  0  0
   45.5160   32.6300   47.9510 N   0  0  0  0  0  0  0  0  0  0  0  0
   45.1530   31.8060   50.0600 N   0  0  0  0  0  0  0  0  0  0  0  0
   46.5480   34.2400   42.1190 C   0  0  0  0  0  0  0  0  0  0  0  0
   46.0610   33.2780   41.2440 C   0  0  0  0  0  0  0  0  0  0  0  0
   47.1110   33.5200   39.7430 S   0  0  0  0  0  0  0  0  0  0  0  0
   48.0430   34.9210   40.6050 C   0  0  0  0  0  0  0  0  0  0  0  0
   47.5440   34.9900   41.6570 N   0  0  0  0  0  0  0  0  0  0  0  0
   49.1970   35.9370   40.3390 O   0  0  0  0  0  0  0  0  0  0  0  0
   43.8606   36.3579   45.2820 H   0  0  0  0  0  0  0  0  0  0  0  0
   44.8025   36.1564   42.9802 H   0  0  0  0  0  0  0  0  0  0  0  0
   47.6662   31.8012   45.5570 H   0  0  0  0  0  0  0  0  0  0  0  0
   48.3452   30.1644   47.2219 H   0  0  0  0  0  0  0  0  0  0  0  0
   44.4129   32.5186   50.1331 H   0  0  0  0  0  0  0  0  0  0  0  0
   45.3364   31.1711   50.8500 H   0  0  0  0  0  0  0  0  0  0  0  0
   45.2507   32.5517   41.4047 H   0  0  0  0  0  0  0  0  0  0  0  0
   49.4610   36.5815   41.0426 H   0  0  0  0  0  0  0  0  0  0  0  0
  1  6  2  0
  2  1  1  0
  3  2  2  0
  3  4  1  0
  4  5  2  0
  5  6  1  0
  5  7  1  0
  7 12  1  0
  8  7  2  0
  8  9  1  0
  9 10  2  0
 10 11  1  0
 11 13  1  0
 12 11  2  0
 14  3  1  0
 15 14  2  0
 16 17  1  0
 16 15  1  0
 17 18  2  0
 18 14  1  0
 19 17  1  0
  1 20  1  0
  2 21  1  0
  8 22  1  0
  9 23  1  0
 13 24  1  0
 13 25  1  0
 15 26  1  0
 19 27  1  0
M  ISO  6  20  14  21  14  22  14  23  14  26  14  27   3
M  END
>  <minimizedAffinity>  (1) 
-6.35565329

>  <minimizedRMSD>  (1) 
0.595070601

$$$$
