
     RDKit          3D

 38 41  0  0  0  0  0  0  0  0999 V2000
   44.5480   35.9730   44.5350 C   0  0  0  0  0  0  0  0  0  0  0  0
   44.3530   35.5990   43.2210 C   0  0  0  0  0  0  0  0  0  0  0  0
   44.6790   34.3020   42.8380 C   0  0  0  0  0  0  0  0  0  0  0  0
   45.1770   33.4520   43.7610 N   0  0  0  0  0  0  0  0  0  0  0  0
   45.3610   33.8420   45.0460 C   0  0  0  0  0  0  0  0  0  0  0  0
   45.0500   35.0790   45.4200 N   0  0  0  0  0  0  0  0  0  0  0  0
   44.4810   33.8600   41.4240 C   0  0  0  0  0  0  0  0  0  0  0  0
   43.2020   33.7050   40.8970 C   0  0  0  0  0  0  0  0  0  0  0  0
   43.5600   33.1550   39.1600 S   0  0  0  0  0  0  0  0  0  0  0  0
   45.4210   33.2420   39.4860 C   0  0  0  0  0  0  0  0  0  0  0  0
   45.4790   33.5870   40.5850 N   0  0  0  0  0  0  0  0  0  0  0  0
   46.5590   32.9530   38.5960 N   0  0  0  0  0  0  0  0  0  0  0  0
   47.7830   32.2020   38.8230 C   0  0  0  0  0  0  0  0  0  0  0  0
   48.8150   33.1160   38.1900 C   0  0  0  0  0  0  0  0  0  0  0  0
   48.0600   33.9640   37.1790 C   0  0  0  0  0  0  0  0  0  0  0  0
   46.6420   33.4110   37.2430 C   0  0  0  0  0  0  0  0  0  0  0  0
   45.9020   32.8790   46.0040 C   0  0  0  0  0  0  0  0  0  0  0  0
   46.8020   31.9220   45.6060 C   0  0  0  0  0  0  0  0  0  0  0  0
   47.3370   30.9990   46.4680 C   0  0  0  0  0  0  0  0  0  0  0  0
   46.9890   31.0050   47.7450 N   0  0  0  0  0  0  0  0  0  0  0  0
   46.0980   31.9510   48.1480 C   0  0  0  0  0  0  0  0  0  0  0  0
   45.5580   32.8740   47.3040 N   0  0  0  0  0  0  0  0  0  0  0  0
   45.5950   32.1250   49.4850 N   0  0  0  0  0  0  0  0  0  0  0  0
   44.2968   36.9927   44.8622 H   0  0  0  0  0  0  0  0  0  0  0  0
   43.9471   36.3135   42.4897 H   0  0  0  0  0  0  0  0  0  0  0  0
   42.2292   33.8668   41.3843 H   0  0  0  0  0  0  0  0  0  0  0  0
   47.9752   32.0605   39.8968 H   0  0  0  0  0  0  0  0  0  0  0  0
   47.7695   31.1831   38.4087 H   0  0  0  0  0  0  0  0  0  0  0  0
   49.2791   33.7560   38.9549 H   0  0  0  0  0  0  0  0  0  0  0  0
   49.6221   32.5419   37.7115 H   0  0  0  0  0  0  0  0  0  0  0  0
   48.4837   33.8450   36.1709 H   0  0  0  0  0  0  0  0  0  0  0  0
   48.1113   35.0407   37.3982 H   0  0  0  0  0  0  0  0  0  0  0  0
   45.8980   34.1956   37.0408 H   0  0  0  0  0  0  0  0  0  0  0  0
   46.4385   32.6280   36.4977 H   0  0  0  0  0  0  0  0  0  0  0  0
   47.1075   31.8941   44.5496 H   0  0  0  0  0  0  0  0  0  0  0  0
   48.0558   30.2532   46.0978 H   0  0  0  0  0  0  0  0  0  0  0  0
   44.9195   32.8757   49.6875 H   0  0  0  0  0  0  0  0  0  0  0  0
   45.9105   31.4988   50.2395 H   0  0  0  0  0  0  0  0  0  0  0  0
  1  6  2  0
  2  1  1  0
  3  2  2  0
  3  4  1  0
  4  5  2  0
  5  6  1  0
  5 17  1  0
  7  3  1  0
  8  7  2  0
  9 10  1  0
  9  8  1  0
 10 11  2  0
 11  7  1  0
 12 13  1  0
 12 10  1  0
 14 13  1  0
 15 16  1  0
 15 14  1  0
 16 12  1  0
 17 22  1  0
 18 17  2  0
 18 19  1  0
 19 20  2  0
 20 21  1  0
 21 23  1  0
 22 21  2  0
  1 24  1  0
  2 25  1  0
  8 26  1  0
 13 27  1  0
 13 28  1  0
 14 29  1  0
 14 30  1  0
 15 31  1  0
 15 32  1  0
 16 33  1  0
 16 34  1  0
 18 35  1  0
 19 36  1  0
 23 37  1  0
 23 38  1  0
M  ISO  8  24  14  25  14  26  14  27  13  28  13  29  13  30  13  31  13
M  ISO  5  32  13  33  13  34  13  35  14  36  14
M  END
>  <minimizedAffinity>  (1) 
-6.06987953

>  <minimizedRMSD>  (1) 
3.35545492

$$$$
