
     RDKit          3D

 28 30  0  0  0  0  0  0  0  0999 V2000
   44.4890   35.7090   44.9250 C   0  0  0  0  0  0  0  0  0  0  0  0
   44.7300   35.4570   43.5880 C   0  0  0  0  0  0  0  0  0  0  0  0
   45.4110   34.2940   43.2230 C   0  0  0  0  0  0  0  0  0  0  0  0
   45.8020   33.4690   44.2170 N   0  0  0  0  0  0  0  0  0  0  0  0
   45.5560   33.7340   45.5170 C   0  0  0  0  0  0  0  0  0  0  0  0
   44.9050   34.8460   45.8590 N   0  0  0  0  0  0  0  0  0  0  0  0
   46.0160   32.7850   46.5270 C   0  0  0  0  0  0  0  0  0  0  0  0
   47.0410   31.9080   46.2800 C   0  0  0  0  0  0  0  0  0  0  0  0
   47.5050   31.0070   47.1910 C   0  0  0  0  0  0  0  0  0  0  0  0
   46.9520   30.9510   48.3990 N   0  0  0  0  0  0  0  0  0  0  0  0
   45.9360   31.8100   48.6650 C   0  0  0  0  0  0  0  0  0  0  0  0
   45.4610   32.7160   47.7660 N   0  0  0  0  0  0  0  0  0  0  0  0
   45.2120   31.9020   49.9070 N   0  0  0  0  0  0  0  0  0  0  0  0
   45.6930   33.9810   41.7890 C   0  0  0  0  0  0  0  0  0  0  0  0
   44.7260   33.3250   41.0150 C   0  0  0  0  0  0  0  0  0  0  0  0
   45.6110   33.2190   39.3840 S   0  0  0  0  0  0  0  0  0  0  0  0
   47.1300   34.0950   40.0920 C   0  0  0  0  0  0  0  0  0  0  0  0
   46.8330   34.3000   41.1940 N   0  0  0  0  0  0  0  0  0  0  0  0
   48.2320   34.2830   39.1210 C   0  0  0  0  0  0  0  0  0  0  0  0
   48.0010   34.3540   37.8680 O   0  0  0  0  0  0  0  0  0  0  0  0
   43.9532   36.6224   45.2226 H   0  0  0  0  0  0  0  0  0  0  0  0
   44.3888   36.1655   42.8189 H   0  0  0  0  0  0  0  0  0  0  0  0
   47.5165   31.9333   45.2884 H   0  0  0  0  0  0  0  0  0  0  0  0
   48.3317   30.3304   46.9288 H   0  0  0  0  0  0  0  0  0  0  0  0
   44.4530   32.5905   50.0109 H   0  0  0  0  0  0  0  0  0  0  0  0
   45.4533   31.2792   50.6911 H   0  0  0  0  0  0  0  0  0  0  0  0
   43.7227   32.9714   41.2949 H   0  0  0  0  0  0  0  0  0  0  0  0
   49.2667   34.3628   39.4857 H   0  0  0  0  0  0  0  0  0  0  0  0
  1  6  2  0
  2  1  1  0
  3  2  2  0
  3  4  1  0
  4  5  2  0
  5  6  1  0
  5  7  1  0
  7 12  1  0
  8  7  2  0
  8  9  1  0
  9 10  2  0
 10 11  1  0
 11 13  1  0
 12 11  2  0
 14  3  1  0
 15 14  2  0
 16 17  1  0
 16 15  1  0
 17 18  2  0
 18 14  1  0
 19 17  1  0
 20 19  2  0
  1 21  1  0
  2 22  1  0
  8 23  1  0
  9 24  1  0
 13 25  1  0
 13 26  1  0
 15 27  1  0
 19 28  1  0
M  ISO  6  21  14  22  14  23  14  24  14  27  14  28   6
M  END
>  <minimizedAffinity>  (1) 
-5.72944641

>  <minimizedRMSD>  (1) 
1.54345179

$$$$
