
     RDKit          3D

 27 29  0  0  0  0  0  0  0  0999 V2000
   46.4920   34.7220   42.1860 C   0  0  0  0  0  0  0  0  0  0  0  0
   47.8120   35.0870   42.0880 C   0  0  0  0  0  0  0  0  0  0  0  0
   48.5430   34.9090   40.9030 C   0  0  0  0  0  0  0  0  0  0  0  0
   47.9170   34.3420   39.7810 C   0  0  0  0  0  0  0  0  0  0  0  0
   46.5980   33.9800   39.8920 C   0  0  0  0  0  0  0  0  0  0  0  0
   45.9120   34.1720   41.0730 C   0  0  0  0  0  0  0  0  0  0  0  0
   44.4330   36.1290   44.9920 C   0  0  0  0  0  0  0  0  0  0  0  0
   45.0250   36.0430   43.7250 C   0  0  0  0  0  0  0  0  0  0  0  0
   45.8190   34.9430   43.4470 C   0  0  0  0  0  0  0  0  0  0  0  0
   45.9820   34.0130   44.4120 N   0  0  0  0  0  0  0  0  0  0  0  0
   45.4010   34.1140   45.6300 C   0  0  0  0  0  0  0  0  0  0  0  0
   44.6320   35.1690   45.9140 N   0  0  0  0  0  0  0  0  0  0  0  0
   44.5130   33.7780   41.1630 C   0  0  0  0  0  0  0  0  0  0  0  0
   43.5010   34.4970   40.5530 C   0  0  0  0  0  0  0  0  0  0  0  0
   42.3120   33.8570   40.8380 C   0  0  0  0  0  0  0  0  0  0  0  0
   42.6010   32.7820   41.5990 N   0  0  0  0  0  0  0  0  0  0  0  0
   43.9020   32.7460   41.7830 N   0  0  0  0  0  0  0  0  0  0  0  0
   48.3104   35.5312   42.9622 H   0  0  0  0  0  0  0  0  0  0  0  0
   49.5994   35.2117   40.8535 H   0  0  0  0  0  0  0  0  0  0  0  0
   48.4679   34.1924   38.8407 H   0  0  0  0  0  0  0  0  0  0  0  0
   46.0823   33.5319   39.0299 H   0  0  0  0  0  0  0  0  0  0  0  0
   43.7971   36.9927   45.2364 H   0  0  0  0  0  0  0  0  0  0  0  0
   44.8634   36.8280   42.9715 H   0  0  0  0  0  0  0  0  0  0  0  0
   45.5614   33.3296   46.3843 H   0  0  0  0  0  0  0  0  0  0  0  0
   43.6216   35.4102   39.9518 H   0  0  0  0  0  0  0  0  0  0  0  0
   41.3106   34.1674   40.5049 H   0  0  0  0  0  0  0  0  0  0  0  0
   41.9196   32.1056   41.9719 H   0  0  0  0  0  0  0  0  0  0  0  0
  1  9  1  0
  2  1  2  0
  3  2  1  0
  4  5  1  0
  4  3  2  0
  5  6  2  0
  6 13  1  0
  6  1  1  0
  7 12  2  0
  8  7  1  0
  9  8  2  0
  9 10  1  0
 10 11  2  0
 11 12  1  0
 13 17  2  0
 14 15  2  0
 14 13  1  0
 15 16  1  0
 16 17  1  0
  2 18  1  0
  3 19  1  0
  4 20  1  0
  5 21  1  0
  7 22  1  0
  8 23  1  0
 11 24  1  0
 14 25  1  0
 15 26  1  0
 16 27  1  0
M  ISO  8  18  14  19  14  20  14  21  14  22  14  23  14  24  14  25  14
M  ISO  2  26  14  27   9
M  END
>  <minimizedAffinity>  (1) 
-5.58085537

>  <minimizedRMSD>  (1) 
0.741802514

$$$$
