
     RDKit          3D

 48 52  0  0  0  0  0  0  0  0999 V2000
   45.3490   33.8280   41.6700 C   0  0  0  0  0  0  0  0  0  0  0  0
   44.3010   33.2620   40.9680 C   0  0  0  0  0  0  0  0  0  0  0  0
   45.0500   33.0300   39.2810 S   0  0  0  0  0  0  0  0  0  0  0  0
   46.6830   33.7630   39.8610 C   0  0  0  0  0  0  0  0  0  0  0  0
   46.4560   34.0070   40.9710 N   0  0  0  0  0  0  0  0  0  0  0  0
   44.5250   35.7250   44.8280 C   0  0  0  0  0  0  0  0  0  0  0  0
   44.6350   35.4180   43.4750 C   0  0  0  0  0  0  0  0  0  0  0  0
   45.2090   34.2000   43.1140 C   0  0  0  0  0  0  0  0  0  0  0  0
   45.6360   33.3670   44.0960 N   0  0  0  0  0  0  0  0  0  0  0  0
   45.5130   33.6990   45.3980 C   0  0  0  0  0  0  0  0  0  0  0  0
   44.9690   34.8510   45.7500 N   0  0  0  0  0  0  0  0  0  0  0  0
   45.9930   32.7490   46.3940 C   0  0  0  0  0  0  0  0  0  0  0  0
   47.0030   31.8450   46.1050 C   0  0  0  0  0  0  0  0  0  0  0  0
   47.4800   30.9400   47.0080 C   0  0  0  0  0  0  0  0  0  0  0  0
   46.9710   30.8980   48.2340 N   0  0  0  0  0  0  0  0  0  0  0  0
   45.9850   31.7750   48.5330 C   0  0  0  0  0  0  0  0  0  0  0  0
   45.4810   32.6970   47.6500 N   0  0  0  0  0  0  0  0  0  0  0  0
   45.2970   31.9010   49.7970 N   0  0  0  0  0  0  0  0  0  0  0  0
   47.8750   33.9290   38.9980 C   0  0  0  0  0  0  0  0  0  0  0  0
   47.4020   33.9020   37.5630 C   0  0  0  0  0  0  0  0  0  0  0  0
   48.0100   32.7900   36.7750 C   0  0  0  0  0  0  0  0  0  0  0  0
   49.3280   32.3710   36.9500 C   0  0  0  0  0  0  0  0  0  0  0  0
   49.8530   31.3360   36.1740 C   0  0  0  0  0  0  0  0  0  0  0  0
   49.0740   30.7050   35.2140 C   0  0  0  0  0  0  0  0  0  0  0  0
   47.7570   31.0990   35.0170 C   0  0  0  0  0  0  0  0  0  0  0  0
   46.9840   30.4690   34.0690 C   0  0  0  0  0  0  0  0  0  0  0  0
   45.6720   30.8410   33.8630 C   0  0  0  0  0  0  0  0  0  0  0  0
   45.1340   31.8650   34.6230 C   0  0  0  0  0  0  0  0  0  0  0  0
   45.9520   32.4660   35.5610 C   0  0  0  0  0  0  0  0  0  0  0  0
   47.2650   32.1300   35.8030 C   0  0  0  0  0  0  0  0  0  0  0  0
   43.2877   33.0135   41.3164 H   0  0  0  0  0  0  0  0  0  0  0  0
   44.0766   36.6789   45.1427 H   0  0  0  0  0  0  0  0  0  0  0  0
   44.2771   36.1205   42.7079 H   0  0  0  0  0  0  0  0  0  0  0  0
   47.4423   31.8577   45.0966 H   0  0  0  0  0  0  0  0  0  0  0  0
   48.2844   30.2467   46.7211 H   0  0  0  0  0  0  0  0  0  0  0  0
   44.5576   32.6087   49.9126 H   0  0  0  0  0  0  0  0  0  0  0  0
   45.5459   31.2831   50.5826 H   0  0  0  0  0  0  0  0  0  0  0  0
   48.3648   34.8899   39.2143 H   0  0  0  0  0  0  0  0  0  0  0  0
   48.6025   33.1247   39.1821 H   0  0  0  0  0  0  0  0  0  0  0  0
   46.3087   33.7813   37.5554 H   0  0  0  0  0  0  0  0  0  0  0  0
   47.7112   34.8479   37.0943 H   0  0  0  0  0  0  0  0  0  0  0  0
   49.9598   32.8601   37.7060 H   0  0  0  0  0  0  0  0  0  0  0  0
   50.8949   31.0172   36.3249 H   0  0  0  0  0  0  0  0  0  0  0  0
   49.5004   29.8917   34.6084 H   0  0  0  0  0  0  0  0  0  0  0  0
   47.4185   29.6573   33.4670 H   0  0  0  0  0  0  0  0  0  0  0  0
   45.0609   30.3303   33.1042 H   0  0  0  0  0  0  0  0  0  0  0  0
   44.0919   32.1891   34.4853 H   0  0  0  0  0  0  0  0  0  0  0  0
   45.5189   33.2785   36.1629 H   0  0  0  0  0  0  0  0  0  0  0  0
  1  8  1  0
  2  1  2  0
  3  4  1  0
  3  2  1  0
  4  5  2  0
  5  1  1  0
  6 11  2  0
  7  6  1  0
  8  7  2  0
  8  9  1  0
  9 10  2  0
 10 11  1  0
 10 12  1  0
 12 17  1  0
 13 12  2  0
 13 14  1  0
 14 15  2  0
 15 16  1  0
 16 18  1  0
 17 16  2  0
 19  4  1  0
 20 19  1  0
 21 22  2  0
 21 20  1  0
 23 22  1  0
 24 23  2  0
 25 24  1  0
 25 30  2  0
 26 25  1  0
 27 26  2  0
 27 28  1  0
 28 29  2  0
 29 30  1  0
 30 21  1  0
  2 31  1  0
  6 32  1  0
  7 33  1  0
 13 34  1  0
 14 35  1  0
 18 36  1  0
 18 37  1  0
 19 38  1  0
 19 39  1  0
 20 40  1  0
 20 41  1  0
 22 42  1  0
 23 43  1  0
 24 44  1  0
 26 45  1  0
 27 46  1  0
 28 47  1  0
 29 48  1  0
M  ISO  8  31  14  32  14  33  14  34  14  35  14  38   8  39   8  40   8
M  ISO  8  41   8  42  14  43  14  44  14  45  14  46  14  47  14  48  14
M  END
>  <minimizedAffinity>  (1) 
-6.58915806

>  <minimizedRMSD>  (1) 
2.35540414

$$$$
