
     RDKit          3D

 46 49  0  0  0  0  0  0  0  0999 V2000
   44.4860   35.7350   44.9430 C   0  0  0  0  0  0  0  0  0  0  0  0
   44.6860   35.4490   43.5970 C   0  0  0  0  0  0  0  0  0  0  0  0
   45.3240   34.2720   43.2350 C   0  0  0  0  0  0  0  0  0  0  0  0
   45.7260   33.4520   44.2210 N   0  0  0  0  0  0  0  0  0  0  0  0
   45.5280   33.7390   45.5310 C   0  0  0  0  0  0  0  0  0  0  0  0
   44.9210   34.8560   45.8670 N   0  0  0  0  0  0  0  0  0  0  0  0
   46.0000   32.7940   46.5340 C   0  0  0  0  0  0  0  0  0  0  0  0
   47.0310   31.9160   46.2620 C   0  0  0  0  0  0  0  0  0  0  0  0
   47.5070   31.0100   47.1680 C   0  0  0  0  0  0  0  0  0  0  0  0
   46.9740   30.9430   48.3820 N   0  0  0  0  0  0  0  0  0  0  0  0
   45.9550   31.8030   48.6710 C   0  0  0  0  0  0  0  0  0  0  0  0
   45.4660   32.7200   47.7660 N   0  0  0  0  0  0  0  0  0  0  0  0
   45.2360   31.8940   49.8990 N   0  0  0  0  0  0  0  0  0  0  0  0
   45.5510   33.9430   41.7970 C   0  0  0  0  0  0  0  0  0  0  0  0
   44.5690   33.3330   41.0410 C   0  0  0  0  0  0  0  0  0  0  0  0
   45.4010   33.1740   39.3810 S   0  0  0  0  0  0  0  0  0  0  0  0
   46.9620   33.9900   40.0560 C   0  0  0  0  0  0  0  0  0  0  0  0
   46.6700   34.1960   41.1550 N   0  0  0  0  0  0  0  0  0  0  0  0
   48.1630   34.2330   39.2360 C   0  0  0  0  0  0  0  0  0  0  0  0
   47.8400   33.9960   37.7960 C   0  0  0  0  0  0  0  0  0  0  0  0
   48.2700   32.7170   37.2810 N   0  0  0  0  0  0  0  0  0  0  0  0
   47.6800   32.4380   35.9830 C   0  0  0  0  0  0  0  0  0  0  0  0
   48.6940   32.5840   34.8720 C   0  0  0  0  0  0  0  0  0  0  0  0
   49.8870   31.8110   35.1020 N   0  0  0  0  0  0  0  0  0  0  0  0
   49.9570   31.2690   36.4330 C   0  0  0  0  0  0  0  0  0  0  0  0
   49.6680   32.4600   37.3660 C   0  0  0  0  0  0  0  0  0  0  0  0
   43.9811   36.6633   45.2484 H   0  0  0  0  0  0  0  0  0  0  0  0
   44.3405   36.1517   42.8244 H   0  0  0  0  0  0  0  0  0  0  0  0
   47.4931   31.9475   45.2643 H   0  0  0  0  0  0  0  0  0  0  0  0
   48.3315   30.3365   46.8913 H   0  0  0  0  0  0  0  0  0  0  0  0
   44.4808   32.5866   50.0035 H   0  0  0  0  0  0  0  0  0  0  0  0
   45.4718   31.2671   50.6815 H   0  0  0  0  0  0  0  0  0  0  0  0
   43.5576   33.0216   41.3411 H   0  0  0  0  0  0  0  0  0  0  0  0
   48.4947   35.2731   39.3709 H   0  0  0  0  0  0  0  0  0  0  0  0
   48.9652   33.5485   39.5491 H   0  0  0  0  0  0  0  0  0  0  0  0
   46.7489   34.0645   37.6744 H   0  0  0  0  0  0  0  0  0  0  0  0
   48.3893   34.7597   37.2259 H   0  0  0  0  0  0  0  0  0  0  0  0
   47.2922   31.4086   35.9802 H   0  0  0  0  0  0  0  0  0  0  0  0
   46.8700   33.1615   35.8089 H   0  0  0  0  0  0  0  0  0  0  0  0
   48.9730   33.6447   34.7876 H   0  0  0  0  0  0  0  0  0  0  0  0
   48.2295   32.2102   33.9476 H   0  0  0  0  0  0  0  0  0  0  0  0
   49.9083   31.0319   34.4287 H   0  0  0  0  0  0  0  0  0  0  0  0
   49.2028   30.4799   36.5689 H   0  0  0  0  0  0  0  0  0  0  0  0
   50.9349   30.8102   36.6406 H   0  0  0  0  0  0  0  0  0  0  0  0
   50.2363   33.3436   37.0399 H   0  0  0  0  0  0  0  0  0  0  0  0
   49.9664   32.2337   38.4003 H   0  0  0  0  0  0  0  0  0  0  0  0
  1  6  2  0
  2  1  1  0
  3  2  2  0
  3  4  1  0
  4  5  2  0
  5  6  1  0
  5  7  1  0
  7 12  1  0
  8  7  2  0
  8  9  1  0
  9 10  2  0
 10 11  1  0
 11 13  1  0
 12 11  2  0
 14  3  1  0
 15 14  2  0
 16 17  1  0
 16 15  1  0
 17 18  2  0
 18 14  1  0
 19 17  1  0
 20 19  1  0
 21 26  1  0
 21 20  1  0
 22 21  1  0
 23 24  1  0
 23 22  1  0
 24 25  1  0
 25 26  1  0
  1 27  1  0
  2 28  1  0
  8 29  1  0
  9 30  1  0
 13 31  1  0
 13 32  1  0
 15 33  1  0
 19 34  1  0
 19 35  1  0
 20 36  1  0
 20 37  1  0
 22 38  1  0
 22 39  1  0
 23 40  1  0
 23 41  1  0
 24 42  1  0
 25 43  1  0
 25 44  1  0
 26 45  1  0
 26 46  1  0
M  ISO  8  27  14  28  14  29  14  30  14  33  14  34   8  35   8  36   8
M  ISO  8  37   8  38  13  39  13  40  13  41  13  42   5  43  13  44  13
M  ISO  2  45  13  46  13
M  END
>  <minimizedAffinity>  (1) 
-6.4250021

>  <minimizedRMSD>  (1) 
0.561062753

$$$$
