
     RDKit          3D

 41 44  0  0  0  0  0  0  0  0999 V2000
   44.5270   35.6690   44.8840 C   0  0  0  0  0  0  0  0  0  0  0  0
   44.8100   35.4080   43.5510 C   0  0  0  0  0  0  0  0  0  0  0  0
   45.5100   34.2480   43.2200 C   0  0  0  0  0  0  0  0  0  0  0  0
   45.8840   33.4260   44.2160 N   0  0  0  0  0  0  0  0  0  0  0  0
   45.6020   33.6910   45.5040 C   0  0  0  0  0  0  0  0  0  0  0  0
   44.9320   34.7990   45.8340 N   0  0  0  0  0  0  0  0  0  0  0  0
   46.0360   32.7610   46.5320 C   0  0  0  0  0  0  0  0  0  0  0  0
   47.0710   31.8730   46.2930 C   0  0  0  0  0  0  0  0  0  0  0  0
   47.5250   30.9760   47.2180 C   0  0  0  0  0  0  0  0  0  0  0  0
   46.9660   30.9270   48.4240 N   0  0  0  0  0  0  0  0  0  0  0  0
   45.9490   31.7900   48.6810 C   0  0  0  0  0  0  0  0  0  0  0  0
   45.4750   32.6990   47.7660 N   0  0  0  0  0  0  0  0  0  0  0  0
   45.2030   31.9170   49.8930 N   0  0  0  0  0  0  0  0  0  0  0  0
   45.8330   33.9330   41.7950 C   0  0  0  0  0  0  0  0  0  0  0  0
   44.9740   33.1940   41.0140 C   0  0  0  0  0  0  0  0  0  0  0  0
   45.8720   33.1580   39.3940 S   0  0  0  0  0  0  0  0  0  0  0  0
   47.2830   34.1780   40.0980 C   0  0  0  0  0  0  0  0  0  0  0  0
   46.9310   34.3430   41.1870 N   0  0  0  0  0  0  0  0  0  0  0  0
   48.4440   34.5910   39.3080 C   0  0  0  0  0  0  0  0  0  0  0  0
   48.2020   34.3320   37.8600 C   0  0  0  0  0  0  0  0  0  0  0  0
   48.9060   33.2080   37.2480 C   0  0  0  0  0  0  0  0  0  0  0  0
   48.4840   33.0200   35.9280 C   0  0  0  0  0  0  0  0  0  0  0  0
   48.9390   32.0490   35.0350 C   0  0  0  0  0  0  0  0  0  0  0  0
   49.9060   31.1680   35.4690 C   0  0  0  0  0  0  0  0  0  0  0  0
   50.3110   31.3630   36.7640 C   0  0  0  0  0  0  0  0  0  0  0  0
   49.8370   32.3090   37.5680 N   0  0  0  0  0  0  0  0  0  0  0  0
   43.9763   36.5788   45.1651 H   0  0  0  0  0  0  0  0  0  0  0  0
   44.4865   36.1068   42.7655 H   0  0  0  0  0  0  0  0  0  0  0  0
   47.5539   31.8907   45.3048 H   0  0  0  0  0  0  0  0  0  0  0  0
   48.3515   30.2953   46.9659 H   0  0  0  0  0  0  0  0  0  0  0  0
   44.4496   32.6158   49.9632 H   0  0  0  0  0  0  0  0  0  0  0  0
   45.4187   31.3098   50.6965 H   0  0  0  0  0  0  0  0  0  0  0  0
   44.0072   32.7428   41.2816 H   0  0  0  0  0  0  0  0  0  0  0  0
   48.6226   35.6658   39.4597 H   0  0  0  0  0  0  0  0  0  0  0  0
   49.3222   34.0139   39.6332 H   0  0  0  0  0  0  0  0  0  0  0  0
   47.1240   34.1538   37.7331 H   0  0  0  0  0  0  0  0  0  0  0  0
   48.5961   35.2217   37.3470 H   0  0  0  0  0  0  0  0  0  0  0  0
   47.7127   33.7097   35.5546 H   0  0  0  0  0  0  0  0  0  0  0  0
   48.5370   31.9884   34.0129 H   0  0  0  0  0  0  0  0  0  0  0  0
   50.3186   30.3741   34.8291 H   0  0  0  0  0  0  0  0  0  0  0  0
   51.0822   30.6894   37.1657 H   0  0  0  0  0  0  0  0  0  0  0  0
  1  6  2  0
  2  1  1  0
  3  2  2  0
  3  4  1  0
  4  5  2  0
  5  6  1  0
  5  7  1  0
  7 12  1  0
  8  7  2  0
  8  9  1  0
  9 10  2  0
 10 11  1  0
 11 13  1  0
 12 11  2  0
 14  3  1  0
 15 14  2  0
 16 17  1  0
 16 15  1  0
 17 18  2  0
 18 14  1  0
 19 17  1  0
 20 19  1  0
 21 26  1  0
 21 20  1  0
 22 21  2  0
 23 24  2  0
 23 22  1  0
 24 25  1  0
 25 26  2  0
  1 27  1  0
  2 28  1  0
  8 29  1  0
  9 30  1  0
 13 31  1  0
 13 32  1  0
 15 33  1  0
 19 34  1  0
 19 35  1  0
 20 36  1  0
 20 37  1  0
 22 38  1  0
 23 39  1  0
 24 40  1  0
 25 41  1  0
M  ISO  8  27  14  28  14  29  14  30  14  33  14  34   8  35   8  36   8
M  ISO  5  37   8  38  14  39  14  40  14  41  14
M  END
>  <minimizedAffinity>  (1) 
-6.41181517

>  <minimizedRMSD>  (1) 
0.913275599

$$$$
