
     RDKit          3D

 39 41  0  0  0  0  0  0  0  0999 V2000
   45.7870   33.8930   41.6800 C   0  0  0  0  0  0  0  0  0  0  0  0
   44.8860   33.1670   40.9130 C   0  0  0  0  0  0  0  0  0  0  0  0
   45.7540   33.0740   39.2810 S   0  0  0  0  0  0  0  0  0  0  0  0
   47.2270   34.0690   39.9580 C   0  0  0  0  0  0  0  0  0  0  0  0
   46.8880   34.2570   41.0510 N   0  0  0  0  0  0  0  0  0  0  0  0
   44.5700   35.6600   44.7790 C   0  0  0  0  0  0  0  0  0  0  0  0
   44.8260   35.3880   43.4380 C   0  0  0  0  0  0  0  0  0  0  0  0
   45.4960   34.2180   43.1080 C   0  0  0  0  0  0  0  0  0  0  0  0
   45.8690   33.3960   44.1080 N   0  0  0  0  0  0  0  0  0  0  0  0
   45.6120   33.6750   45.4020 C   0  0  0  0  0  0  0  0  0  0  0  0
   44.9750   34.7900   45.7230 N   0  0  0  0  0  0  0  0  0  0  0  0
   46.0550   32.7250   46.4220 C   0  0  0  0  0  0  0  0  0  0  0  0
   47.0400   31.7940   46.1610 C   0  0  0  0  0  0  0  0  0  0  0  0
   47.4780   30.8940   47.0840 C   0  0  0  0  0  0  0  0  0  0  0  0
   46.9570   30.8800   48.3000 N   0  0  0  0  0  0  0  0  0  0  0  0
   45.9870   31.7860   48.5800 C   0  0  0  0  0  0  0  0  0  0  0  0
   45.5260   32.7060   47.6680 N   0  0  0  0  0  0  0  0  0  0  0  0
   45.2890   31.9530   49.8170 N   0  0  0  0  0  0  0  0  0  0  0  0
   48.4260   34.4300   39.1660 C   0  0  0  0  0  0  0  0  0  0  0  0
   48.0120   34.3300   37.6970 C   0  0  0  0  0  0  0  0  0  0  0  0
   49.0030   33.6540   36.8910 N   0  0  0  0  0  0  0  0  0  0  0  0
   48.5710   32.8630   35.7830 C   0  0  0  0  0  0  0  0  0  0  0  0
   47.3820   32.3290   35.8890 N   0  0  0  0  0  0  0  0  0  0  0  0
   49.4060   32.6820   34.6420 N   0  0  0  0  0  0  0  0  0  0  0  0
   46.9470   31.7320   35.1570 H   0  0  0  0  0  0  0  0  0  0  0  0
   43.9082   32.7536   41.2010 H   0  0  0  0  0  0  0  0  0  0  0  0
   44.0400   36.5803   45.0655 H   0  0  0  0  0  0  0  0  0  0  0  0
   44.5029   36.0881   42.6535 H   0  0  0  0  0  0  0  0  0  0  0  0
   47.4931   31.7784   45.1588 H   0  0  0  0  0  0  0  0  0  0  0  0
   48.2677   30.1761   46.8178 H   0  0  0  0  0  0  0  0  0  0  0  0
   44.5674   32.6825   49.9068 H   0  0  0  0  0  0  0  0  0  0  0  0
   45.5079   31.3438   50.6182 H   0  0  0  0  0  0  0  0  0  0  0  0
   48.7454   35.4555   39.4034 H   0  0  0  0  0  0  0  0  0  0  0  0
   49.2712   33.7629   39.3909 H   0  0  0  0  0  0  0  0  0  0  0  0
   47.0654   33.7733   37.6337 H   0  0  0  0  0  0  0  0  0  0  0  0
   47.9041   35.3533   37.3081 H   0  0  0  0  0  0  0  0  0  0  0  0
   50.0052   33.7413   37.1122 H   0  0  0  0  0  0  0  0  0  0  0  0
   50.3353   33.1250   34.6084 H   0  0  0  0  0  0  0  0  0  0  0  0
   49.0801   32.1082   33.8511 H   0  0  0  0  0  0  0  0  0  0  0  0
  1  8  1  0
  2  1  2  0
  3  4  1  0
  3  2  1  0
  4  5  2  0
  5  1  1  0
  6 11  2  0
  7  6  1  0
  8  7  2  0
  8  9  1  0
  9 10  2  0
 10 11  1  0
 10 12  1  0
 12 17  1  0
 13 12  2  0
 13 14  1  0
 14 15  2  0
 15 16  1  0
 16 18  1  0
 17 16  2  0
 19  4  1  0
 20 19  1  0
 21 20  1  0
 22 23  2  0
 22 21  1  0
 24 22  1  0
 25 23  1  0
  2 26  1  0
  6 27  1  0
  7 28  1  0
 13 29  1  0
 14 30  1  0
 18 31  1  0
 18 32  1  0
 19 33  1  0
 19 34  1  0
 20 35  1  0
 20 36  1  0
 21 37  1  0
 24 38  1  0
 24 39  1  0
M  ISO  8  26  14  27  14  28  14  29  14  30  14  33   8  34   8  35   8
M  ISO  1  36   8
M  END
>  <minimizedAffinity>  (1) 
-6.30434322

>  <minimizedRMSD>  (1) 
0.65833956

$$$$
