
     RDKit          3D

 39 42  0  0  0  0  0  0  0  0999 V2000
   44.5230   35.7130   44.8180 C   0  0  0  0  0  0  0  0  0  0  0  0
   44.7380   35.4370   43.4720 C   0  0  0  0  0  0  0  0  0  0  0  0
   45.3850   34.2640   43.1250 C   0  0  0  0  0  0  0  0  0  0  0  0
   45.7830   33.4350   44.1170 N   0  0  0  0  0  0  0  0  0  0  0  0
   45.5630   33.7260   45.4190 C   0  0  0  0  0  0  0  0  0  0  0  0
   44.9440   34.8450   45.7620 N   0  0  0  0  0  0  0  0  0  0  0  0
   46.0230   32.7790   46.4360 C   0  0  0  0  0  0  0  0  0  0  0  0
   47.0220   31.8790   46.1690 C   0  0  0  0  0  0  0  0  0  0  0  0
   47.4950   30.9660   47.0820 C   0  0  0  0  0  0  0  0  0  0  0  0
   46.9650   30.9390   48.3040 N   0  0  0  0  0  0  0  0  0  0  0  0
   45.9710   31.8250   48.5860 C   0  0  0  0  0  0  0  0  0  0  0  0
   45.5030   32.7310   47.6760 N   0  0  0  0  0  0  0  0  0  0  0  0
   45.2790   31.9510   49.8300 N   0  0  0  0  0  0  0  0  0  0  0  0
   45.6370   33.9270   41.6960 C   0  0  0  0  0  0  0  0  0  0  0  0
   44.6560   33.3390   40.9130 C   0  0  0  0  0  0  0  0  0  0  0  0
   45.5050   33.1530   39.2770 S   0  0  0  0  0  0  0  0  0  0  0  0
   47.0920   33.9340   39.9780 C   0  0  0  0  0  0  0  0  0  0  0  0
   46.7790   34.1510   41.0750 N   0  0  0  0  0  0  0  0  0  0  0  0
   48.3420   34.1480   39.1990 C   0  0  0  0  0  0  0  0  0  0  0  0
   47.9050   34.3530   37.7500 C   0  0  0  0  0  0  0  0  0  0  0  0
   48.4600   33.3310   36.8460 C   0  0  0  0  0  0  0  0  0  0  0  0
   49.3400   32.3810   37.2640 C   0  0  0  0  0  0  0  0  0  0  0  0
   49.6270   31.6290   36.1800 N   0  0  0  0  0  0  0  0  0  0  0  0
   48.9360   32.1040   35.1030 C   0  0  0  0  0  0  0  0  0  0  0  0
   48.2010   33.1760   35.5210 N   0  0  0  0  0  0  0  0  0  0  0  0
   44.0093   36.6397   45.1136 H   0  0  0  0  0  0  0  0  0  0  0  0
   44.3994   36.1394   42.6961 H   0  0  0  0  0  0  0  0  0  0  0  0
   47.4718   31.8877   45.1652 H   0  0  0  0  0  0  0  0  0  0  0  0
   48.2995   30.2679   46.8073 H   0  0  0  0  0  0  0  0  0  0  0  0
   44.5386   32.6588   49.9380 H   0  0  0  0  0  0  0  0  0  0  0  0
   45.5207   31.3340   50.6186 H   0  0  0  0  0  0  0  0  0  0  0  0
   43.6310   33.0543   41.1927 H   0  0  0  0  0  0  0  0  0  0  0  0
   48.8743   35.0375   39.5672 H   0  0  0  0  0  0  0  0  0  0  0  0
   49.0284   33.2939   39.2959 H   0  0  0  0  0  0  0  0  0  0  0  0
   46.8070   34.3079   37.7025 H   0  0  0  0  0  0  0  0  0  0  0  0
   48.2828   35.3323   37.4212 H   0  0  0  0  0  0  0  0  0  0  0  0
   49.7379   32.2516   38.2813 H   0  0  0  0  0  0  0  0  0  0  0  0
   48.9659   31.6964   34.0818 H   0  0  0  0  0  0  0  0  0  0  0  0
   47.5730   33.7542   34.9447 H   0  0  0  0  0  0  0  0  0  0  0  0
  1  6  2  0
  2  1  1  0
  3  2  2  0
  3  4  1  0
  4  5  2  0
  5  6  1  0
  5  7  1  0
  7 12  1  0
  8  7  2  0
  8  9  1  0
  9 10  2  0
 10 11  1  0
 11 13  1  0
 12 11  2  0
 14  3  1  0
 15 14  2  0
 16 17  1  0
 16 15  1  0
 17 18  2  0
 18 14  1  0
 19 17  1  0
 20 19  1  0
 21 22  2  0
 21 20  1  0
 23 22  1  0
 24 25  1  0
 24 23  2  0
 25 21  1  0
  1 26  1  0
  2 27  1  0
  8 28  1  0
  9 29  1  0
 13 30  1  0
 13 31  1  0
 15 32  1  0
 19 33  1  0
 19 34  1  0
 20 35  1  0
 20 36  1  0
 22 37  1  0
 24 38  1  0
 25 39  1  0
M  ISO  8  26  14  27  14  28  14  29  14  32  14  33   8  34   8  35   8
M  ISO  4  36   8  37  14  38  14  39   9
M  END
>  <minimizedAffinity>  (1) 
-6.30054617

>  <minimizedRMSD>  (1) 
1.34056985

$$$$
