
     RDKit          3D

 38 41  0  0  0  0  0  0  0  0999 V2000
   44.5230   35.6820   44.8960 C   0  0  0  0  0  0  0  0  0  0  0  0
   44.8070   35.4190   43.5650 C   0  0  0  0  0  0  0  0  0  0  0  0
   45.5000   34.2560   43.2340 C   0  0  0  0  0  0  0  0  0  0  0  0
   45.8710   33.4250   44.2310 N   0  0  0  0  0  0  0  0  0  0  0  0
   45.5880   33.6960   45.5210 C   0  0  0  0  0  0  0  0  0  0  0  0
   44.9250   34.8060   45.8450 N   0  0  0  0  0  0  0  0  0  0  0  0
   46.0160   32.7700   46.5520 C   0  0  0  0  0  0  0  0  0  0  0  0
   47.0580   31.8830   46.3070 C   0  0  0  0  0  0  0  0  0  0  0  0
   47.5260   30.9800   47.2280 C   0  0  0  0  0  0  0  0  0  0  0  0
   46.9640   30.9290   48.4340 N   0  0  0  0  0  0  0  0  0  0  0  0
   45.9390   31.7920   48.6920 C   0  0  0  0  0  0  0  0  0  0  0  0
   45.4600   32.7050   47.7770 N   0  0  0  0  0  0  0  0  0  0  0  0
   45.2020   31.9040   49.9120 N   0  0  0  0  0  0  0  0  0  0  0  0
   45.8200   33.9370   41.8020 C   0  0  0  0  0  0  0  0  0  0  0  0
   44.9640   33.1850   41.0260 C   0  0  0  0  0  0  0  0  0  0  0  0
   45.8830   33.1580   39.4140 S   0  0  0  0  0  0  0  0  0  0  0  0
   47.2760   34.1890   40.1150 C   0  0  0  0  0  0  0  0  0  0  0  0
   46.9150   34.3520   41.1970 N   0  0  0  0  0  0  0  0  0  0  0  0
   48.4250   34.5940   39.3140 C   0  0  0  0  0  0  0  0  0  0  0  0
   48.2200   34.3250   37.8780 C   0  0  0  0  0  0  0  0  0  0  0  0
   48.8070   33.2020   37.2490 N   0  0  0  0  0  0  0  0  0  0  0  0
   49.6760   32.1850   37.3150 C   0  0  0  0  0  0  0  0  0  0  0  0
   49.7350   31.5200   36.1250 N   0  0  0  0  0  0  0  0  0  0  0  0
   48.8620   32.1450   35.2810 C   0  0  0  0  0  0  0  0  0  0  0  0
   48.3390   33.1320   35.9910 N   0  0  0  0  0  0  0  0  0  0  0  0
   43.9762   36.5940   45.1777 H   0  0  0  0  0  0  0  0  0  0  0  0
   44.4891   36.1200   42.7792 H   0  0  0  0  0  0  0  0  0  0  0  0
   47.5355   31.9064   45.3163 H   0  0  0  0  0  0  0  0  0  0  0  0
   48.3566   30.3054   46.9728 H   0  0  0  0  0  0  0  0  0  0  0  0
   44.4436   32.5961   49.9938 H   0  0  0  0  0  0  0  0  0  0  0  0
   45.4294   31.2926   50.7091 H   0  0  0  0  0  0  0  0  0  0  0  0
   43.9997   32.7263   41.2901 H   0  0  0  0  0  0  0  0  0  0  0  0
   48.5925   35.6723   39.4530 H   0  0  0  0  0  0  0  0  0  0  0  0
   49.2951   34.0099   39.6483 H   0  0  0  0  0  0  0  0  0  0  0  0
   47.1339   34.2317   37.7308 H   0  0  0  0  0  0  0  0  0  0  0  0
   48.7438   35.1664   37.4008 H   0  0  0  0  0  0  0  0  0  0  0  0
   50.2626   31.9216   38.2075 H   0  0  0  0  0  0  0  0  0  0  0  0
   48.6409   31.8841   34.2355 H   0  0  0  0  0  0  0  0  0  0  0  0
  1  6  2  0
  2  1  1  0
  3  2  2  0
  3  4  1  0
  4  5  2  0
  5  6  1  0
  5  7  1  0
  7 12  1  0
  8  7  2  0
  8  9  1  0
  9 10  2  0
 10 11  1  0
 11 13  1  0
 12 11  2  0
 14  3  1  0
 15 14  2  0
 16 17  1  0
 16 15  1  0
 17 18  2  0
 18 14  1  0
 19 17  1  0
 20 19  1  0
 21 22  1  0
 21 20  1  0
 23 22  2  0
 24 25  2  0
 24 23  1  0
 25 21  1  0
  1 26  1  0
  2 27  1  0
  8 28  1  0
  9 29  1  0
 13 30  1  0
 13 31  1  0
 15 32  1  0
 19 33  1  0
 19 34  1  0
 20 35  1  0
 20 36  1  0
 22 37  1  0
 24 38  1  0
M  ISO  8  26  14  27  14  28  14  29  14  32  14  33   8  34   8  35   8
M  ISO  3  36   8  37  14  38  14
M  END
>  <minimizedAffinity>  (1) 
-6.2253828

>  <minimizedRMSD>  (1) 
0.623747051

$$$$
