
     RDKit          3D

 39 42  0  0  0  0  0  0  0  0999 V2000
   44.4950   35.6990   44.9020 C   0  0  0  0  0  0  0  0  0  0  0  0
   44.7230   35.4210   43.5620 C   0  0  0  0  0  0  0  0  0  0  0  0
   45.3800   34.2660   43.2140 C   0  0  0  0  0  0  0  0  0  0  0  0
   45.7780   33.4370   44.2120 N   0  0  0  0  0  0  0  0  0  0  0  0
   45.5530   33.7120   45.5080 C   0  0  0  0  0  0  0  0  0  0  0  0
   44.9160   34.8350   45.8460 N   0  0  0  0  0  0  0  0  0  0  0  0
   46.0060   32.7830   46.5300 C   0  0  0  0  0  0  0  0  0  0  0  0
   47.0480   31.9010   46.2780 C   0  0  0  0  0  0  0  0  0  0  0  0
   47.5220   31.0020   47.1920 C   0  0  0  0  0  0  0  0  0  0  0  0
   46.9800   30.9450   48.3980 N   0  0  0  0  0  0  0  0  0  0  0  0
   45.9570   31.8050   48.6610 C   0  0  0  0  0  0  0  0  0  0  0  0
   45.4680   32.7100   47.7590 N   0  0  0  0  0  0  0  0  0  0  0  0
   45.2230   31.9140   49.9060 N   0  0  0  0  0  0  0  0  0  0  0  0
   45.6480   33.9250   41.7890 C   0  0  0  0  0  0  0  0  0  0  0  0
   44.7330   33.2140   41.0400 C   0  0  0  0  0  0  0  0  0  0  0  0
   45.5880   33.0920   39.3880 S   0  0  0  0  0  0  0  0  0  0  0  0
   47.0730   34.0610   40.0460 C   0  0  0  0  0  0  0  0  0  0  0  0
   46.7460   34.2620   41.1400 N   0  0  0  0  0  0  0  0  0  0  0  0
   48.2810   34.4030   39.2490 C   0  0  0  0  0  0  0  0  0  0  0  0
   47.8980   34.2180   37.7930 C   0  0  0  0  0  0  0  0  0  0  0  0
   48.9490   33.6090   36.9560 C   0  0  0  0  0  0  0  0  0  0  0  0
   49.4500   32.2330   37.3470 C   0  0  0  0  0  0  0  0  0  0  0  0
   48.7620   32.5040   36.0160 C   0  0  0  0  0  0  0  0  0  0  0  0
   43.9721   36.6221   45.1927 H   0  0  0  0  0  0  0  0  0  0  0  0
   44.3804   36.1198   42.7846 H   0  0  0  0  0  0  0  0  0  0  0  0
   47.5198   31.9271   45.2847 H   0  0  0  0  0  0  0  0  0  0  0  0
   48.3504   30.3288   46.9263 H   0  0  0  0  0  0  0  0  0  0  0  0
   44.4629   32.6031   49.9971 H   0  0  0  0  0  0  0  0  0  0  0  0
   45.4614   31.3023   50.6997 H   0  0  0  0  0  0  0  0  0  0  0  0
   43.7509   32.8202   41.3406 H   0  0  0  0  0  0  0  0  0  0  0  0
   48.5773   35.4459   39.4352 H   0  0  0  0  0  0  0  0  0  0  0  0
   49.1337   33.7640   39.5220 H   0  0  0  0  0  0  0  0  0  0  0  0
   47.0085   33.5722   37.7512 H   0  0  0  0  0  0  0  0  0  0  0  0
   47.7188   35.2244   37.3866 H   0  0  0  0  0  0  0  0  0  0  0  0
   49.3605   34.6184   36.8085 H   0  0  0  0  0  0  0  0  0  0  0  0
   50.5292   32.0231   37.3832 H   0  0  0  0  0  0  0  0  0  0  0  0
   49.2973   31.5452   38.1918 H   0  0  0  0  0  0  0  0  0  0  0  0
   47.7527   32.1077   35.8310 H   0  0  0  0  0  0  0  0  0  0  0  0
   49.0261   32.3342   34.9618 H   0  0  0  0  0  0  0  0  0  0  0  0
  1  6  2  0
  2  1  1  0
  3  2  2  0
  3  4  1  0
  4  5  2  0
  5  6  1  0
  5  7  1  0
  7 12  1  0
  8  7  2  0
  8  9  1  0
  9 10  2  0
 10 11  1  0
 11 13  1  0
 12 11  2  0
 14  3  1  0
 15 14  2  0
 16 17  1  0
 16 15  1  0
 17 18  2  0
 18 14  1  0
 19 17  1  0
 20 19  1  0
 21 22  1  0
 21 20  1  0
 23 21  1  0
 23 22  1  0
  1 24  1  0
  2 25  1  0
  8 26  1  0
  9 27  1  0
 13 28  1  0
 13 29  1  0
 15 30  1  0
 19 31  1  0
 19 32  1  0
 20 33  1  0
 20 34  1  0
 21 35  1  0
 22 36  1  0
 22 37  1  0
 23 38  1  0
 23 39  1  0
M  ISO  8  24  14  25  14  26  14  27  14  30  14  31   8  32   8  33   8
M  ISO  6  34   8  35  13  36  13  37  13  38  13  39  13
M  END
>  <minimizedAffinity>  (1) 
-5.92704868

>  <minimizedRMSD>  (1) 
0.948360801

$$$$
