
     RDKit          3D

 33 35  0  0  0  0  0  0  0  0999 V2000
   46.6340   34.7570   42.0140 C   0  0  0  0  0  0  0  0  0  0  0  0
   47.8920   35.2870   41.9020 C   0  0  0  0  0  0  0  0  0  0  0  0
   48.6370   35.1450   40.7230 C   0  0  0  0  0  0  0  0  0  0  0  0
   48.1050   34.4550   39.6370 C   0  0  0  0  0  0  0  0  0  0  0  0
   46.8410   33.9250   39.7600 C   0  0  0  0  0  0  0  0  0  0  0  0
   46.1260   34.0780   40.9300 C   0  0  0  0  0  0  0  0  0  0  0  0
   44.4740   36.0830   44.7930 C   0  0  0  0  0  0  0  0  0  0  0  0
   45.1040   36.0270   43.5340 C   0  0  0  0  0  0  0  0  0  0  0  0
   45.9240   34.9450   43.2650 C   0  0  0  0  0  0  0  0  0  0  0  0
   46.0840   33.9930   44.2210 N   0  0  0  0  0  0  0  0  0  0  0  0
   45.4620   34.0770   45.4280 C   0  0  0  0  0  0  0  0  0  0  0  0
   44.6610   35.1270   45.6980 N   0  0  0  0  0  0  0  0  0  0  0  0
   44.7560   33.4990   41.0520 C   0  0  0  0  0  0  0  0  0  0  0  0
   43.7050   34.4520   40.5340 C   0  0  0  0  0  0  0  0  0  0  0  0
   43.3590   33.9470   39.1410 C   0  0  0  0  0  0  0  0  0  0  0  0
   43.7990   32.5160   39.0600 C   0  0  0  0  0  0  0  0  0  0  0  0
   44.6080   32.2110   40.2910 C   0  0  0  0  0  0  0  0  0  0  0  0
   48.3255   35.8338   42.7523 H   0  0  0  0  0  0  0  0  0  0  0  0
   49.6451   35.5801   40.6557 H   0  0  0  0  0  0  0  0  0  0  0  0
   48.6793   34.3368   38.7063 H   0  0  0  0  0  0  0  0  0  0  0  0
   46.3966   33.3743   38.9178 H   0  0  0  0  0  0  0  0  0  0  0  0
   43.8163   36.9319   45.0313 H   0  0  0  0  0  0  0  0  0  0  0  0
   44.9488   36.8196   42.7872 H   0  0  0  0  0  0  0  0  0  0  0  0
   45.6124   33.2900   46.1817 H   0  0  0  0  0  0  0  0  0  0  0  0
   44.6132   33.3118   42.1265 H   0  0  0  0  0  0  0  0  0  0  0  0
   42.8163   34.4352   41.1820 H   0  0  0  0  0  0  0  0  0  0  0  0
   44.0656   35.4911   40.5164 H   0  0  0  0  0  0  0  0  0  0  0  0
   42.2739   34.0166   38.9748 H   0  0  0  0  0  0  0  0  0  0  0  0
   43.8626   34.5520   38.3727 H   0  0  0  0  0  0  0  0  0  0  0  0
   42.9197   31.8564   39.0176 H   0  0  0  0  0  0  0  0  0  0  0  0
   44.4016   32.3509   38.1547 H   0  0  0  0  0  0  0  0  0  0  0  0
   44.0876   31.4648   40.9094 H   0  0  0  0  0  0  0  0  0  0  0  0
   45.5920   31.7999   40.0213 H   0  0  0  0  0  0  0  0  0  0  0  0
  1  9  1  0
  2  1  2  0
  3  2  1  0
  4  5  1  0
  4  3  2  0
  5  6  2  0
  6 13  1  0
  6  1  1  0
  7 12  2  0
  8  7  1  0
  9  8  2  0
  9 10  1  0
 10 11  2  0
 11 12  1  0
 14 13  1  0
 15 14  1  0
 16 15  1  0
 16 17  1  0
 17 13  1  0
  2 18  1  0
  3 19  1  0
  4 20  1  0
  5 21  1  0
  7 22  1  0
  8 23  1  0
 11 24  1  0
 13 25  1  0
 14 26  1  0
 14 27  1  0
 15 28  1  0
 15 29  1  0
 16 30  1  0
 16 31  1  0
 17 32  1  0
 17 33  1  0
M  ISO  8  18  14  19  14  20  14  21  14  22  14  23  14  24  14  25  13
M  ISO  8  26  13  27  13  28  13  29  13  30  13  31  13  32  13  33  13
M  END
>  <minimizedAffinity>  (1) 
-5.50727463

>  <minimizedRMSD>  (1) 
0.570193112

$$$$
