
     RDKit          3D

 39 42  0  0  0  0  0  0  0  0999 V2000
   44.4850   35.9140   44.7300 C   0  0  0  0  0  0  0  0  0  0  0  0
   44.3610   35.5520   43.3950 C   0  0  0  0  0  0  0  0  0  0  0  0
   44.7540   34.2930   43.0030 C   0  0  0  0  0  0  0  0  0  0  0  0
   45.2480   33.4610   43.9500 N   0  0  0  0  0  0  0  0  0  0  0  0
   45.3630   33.8260   45.2400 C   0  0  0  0  0  0  0  0  0  0  0  0
   44.9860   35.0330   45.6140 N   0  0  0  0  0  0  0  0  0  0  0  0
   45.9100   32.8560   46.1920 C   0  0  0  0  0  0  0  0  0  0  0  0
   46.8630   31.9420   45.8230 C   0  0  0  0  0  0  0  0  0  0  0  0
   47.3980   31.0190   46.6840 C   0  0  0  0  0  0  0  0  0  0  0  0
   46.9910   30.9870   47.9410 N   0  0  0  0  0  0  0  0  0  0  0  0
   46.0460   31.8850   48.3320 C   0  0  0  0  0  0  0  0  0  0  0  0
   45.5010   32.8140   47.4830 N   0  0  0  0  0  0  0  0  0  0  0  0
   45.4640   32.0260   49.6420 N   0  0  0  0  0  0  0  0  0  0  0  0
   44.6380   33.8580   41.5750 C   0  0  0  0  0  0  0  0  0  0  0  0
   43.4120   33.5740   41.0070 C   0  0  0  0  0  0  0  0  0  0  0  0
   43.8860   33.1060   39.2790 S   0  0  0  0  0  0  0  0  0  0  0  0
   45.7210   33.3910   39.6570 C   0  0  0  0  0  0  0  0  0  0  0  0
   45.6720   33.7160   40.7670 N   0  0  0  0  0  0  0  0  0  0  0  0
   46.8200   33.2030   38.6740 C   0  0  0  0  0  0  0  0  0  0  0  0
   46.1660   33.1550   37.2920 C   0  0  0  0  0  0  0  0  0  0  0  0
   47.1100   32.7120   36.2590 C   0  0  0  0  0  0  0  0  0  0  0  0
   46.7780   31.7130   35.3700 C   0  0  0  0  0  0  0  0  0  0  0  0
   47.8950   31.5590   34.5490 C   0  0  0  0  0  0  0  0  0  0  0  0
   48.8200   32.4710   34.9930 C   0  0  0  0  0  0  0  0  0  0  0  0
   48.3120   33.1340   36.0080 O   0  0  0  0  0  0  0  0  0  0  0  0
   44.1752   36.9157   45.0625 H   0  0  0  0  0  0  0  0  0  0  0  0
   43.9539   36.2625   42.6605 H   0  0  0  0  0  0  0  0  0  0  0  0
   47.2169   31.9497   44.7815 H   0  0  0  0  0  0  0  0  0  0  0  0
   48.1610   30.3097   46.3309 H   0  0  0  0  0  0  0  0  0  0  0  0
   44.7519   32.7500   49.8139 H   0  0  0  0  0  0  0  0  0  0  0  0
   45.7600   31.4028   50.4068 H   0  0  0  0  0  0  0  0  0  0  0  0
   42.4119   33.6151   41.4631 H   0  0  0  0  0  0  0  0  0  0  0  0
   47.5275   34.0434   38.7302 H   0  0  0  0  0  0  0  0  0  0  0  0
   47.3825   32.2802   38.8792 H   0  0  0  0  0  0  0  0  0  0  0  0
   45.3178   32.4553   37.3233 H   0  0  0  0  0  0  0  0  0  0  0  0
   45.8303   34.1709   37.0364 H   0  0  0  0  0  0  0  0  0  0  0  0
   45.8316   31.1547   35.3186 H   0  0  0  0  0  0  0  0  0  0  0  0
   48.0111   30.8508   33.7153 H   0  0  0  0  0  0  0  0  0  0  0  0
   49.8234   32.6224   34.5684 H   0  0  0  0  0  0  0  0  0  0  0  0
  1  6  2  0
  2  1  1  0
  3  2  2  0
  3  4  1  0
  4  5  2  0
  5  6  1  0
  5  7  1  0
  7 12  1  0
  8  7  2  0
  8  9  1  0
  9 10  2  0
 10 11  1  0
 11 13  1  0
 12 11  2  0
 14  3  1  0
 15 14  2  0
 16 17  1  0
 16 15  1  0
 17 18  2  0
 18 14  1  0
 19 17  1  0
 20 19  1  0
 21 20  1  0
 22 21  2  0
 23 24  2  0
 23 22  1  0
 24 25  1  0
 25 21  1  0
  1 26  1  0
  2 27  1  0
  8 28  1  0
  9 29  1  0
 13 30  1  0
 13 31  1  0
 15 32  1  0
 19 33  1  0
 19 34  1  0
 20 35  1  0
 20 36  1  0
 22 37  1  0
 23 38  1  0
 24 39  1  0
M  ISO  8  26  14  27  14  28  14  29  14  32  14  33   8  34   8  35   8
M  ISO  4  36   8  37  14  38  14  39  14
M  END
>  <minimizedAffinity>  (1) 
-5.68516016

>  <minimizedRMSD>  (1) 
1.93841815

$$$$
