
     RDKit          3D

 38 41  0  0  0  0  0  0  0  0999 V2000
   44.5190   35.8810   44.6800 C   0  0  0  0  0  0  0  0  0  0  0  0
   44.3630   35.4840   43.3620 C   0  0  0  0  0  0  0  0  0  0  0  0
   44.7250   34.2060   42.9880 C   0  0  0  0  0  0  0  0  0  0  0  0
   45.2210   33.3980   43.9470 N   0  0  0  0  0  0  0  0  0  0  0  0
   45.3690   33.7930   45.2250 C   0  0  0  0  0  0  0  0  0  0  0  0
   45.0240   35.0130   45.5830 N   0  0  0  0  0  0  0  0  0  0  0  0
   45.9210   32.8310   46.1900 C   0  0  0  0  0  0  0  0  0  0  0  0
   46.8820   31.9140   45.8420 C   0  0  0  0  0  0  0  0  0  0  0  0
   47.4160   31.0080   46.7040 C   0  0  0  0  0  0  0  0  0  0  0  0
   47.0040   30.9830   47.9710 N   0  0  0  0  0  0  0  0  0  0  0  0
   46.0560   31.8830   48.3300 C   0  0  0  0  0  0  0  0  0  0  0  0
   45.5030   32.8060   47.4740 N   0  0  0  0  0  0  0  0  0  0  0  0
   45.4660   32.0390   49.6430 N   0  0  0  0  0  0  0  0  0  0  0  0
   44.5680   33.7460   41.5740 C   0  0  0  0  0  0  0  0  0  0  0  0
   43.3270   33.3930   41.0750 C   0  0  0  0  0  0  0  0  0  0  0  0
   43.7500   32.9260   39.3290 S   0  0  0  0  0  0  0  0  0  0  0  0
   45.5840   33.3100   39.6200 C   0  0  0  0  0  0  0  0  0  0  0  0
   45.5710   33.6470   40.7240 N   0  0  0  0  0  0  0  0  0  0  0  0
   46.6170   33.1560   38.5790 C   0  0  0  0  0  0  0  0  0  0  0  0
   45.9280   33.0750   37.2420 C   0  0  0  0  0  0  0  0  0  0  0  0
   46.8720   32.7020   36.1300 C   0  0  0  0  0  0  0  0  0  0  0  0
   48.2540   33.0070   36.2360 C   0  0  0  0  0  0  0  0  0  0  0  0
   48.8700   32.3360   34.6380 S   0  0  0  0  0  0  0  0  0  0  0  0
   47.2070   31.7740   34.1130 C   0  0  0  0  0  0  0  0  0  0  0  0
   46.3940   32.0840   35.0500 N   0  0  0  0  0  0  0  0  0  0  0  0
   44.2332   36.8972   44.9892 H   0  0  0  0  0  0  0  0  0  0  0  0
   43.9531   36.1831   42.6182 H   0  0  0  0  0  0  0  0  0  0  0  0
   47.2418   31.9122   44.8025 H   0  0  0  0  0  0  0  0  0  0  0  0
   48.1834   30.3001   46.3575 H   0  0  0  0  0  0  0  0  0  0  0  0
   44.7491   32.7610   49.8030 H   0  0  0  0  0  0  0  0  0  0  0  0
   45.7632   31.4280   50.4171 H   0  0  0  0  0  0  0  0  0  0  0  0
   42.3493   33.3899   41.5790 H   0  0  0  0  0  0  0  0  0  0  0  0
   47.2956   34.0216   38.5966 H   0  0  0  0  0  0  0  0  0  0  0  0
   47.2058   32.2445   38.7593 H   0  0  0  0  0  0  0  0  0  0  0  0
   45.1334   32.3166   37.2998 H   0  0  0  0  0  0  0  0  0  0  0  0
   45.5199   34.0709   37.0148 H   0  0  0  0  0  0  0  0  0  0  0  0
   48.8037   33.5058   37.0478 H   0  0  0  0  0  0  0  0  0  0  0  0
   46.9556   31.2661   33.1702 H   0  0  0  0  0  0  0  0  0  0  0  0
  1  6  2  0
  2  1  1  0
  3  2  2  0
  3  4  1  0
  4  5  2  0
  5  6  1  0
  5  7  1  0
  7 12  1  0
  8  7  2  0
  8  9  1  0
  9 10  2  0
 10 11  1  0
 11 13  1  0
 12 11  2  0
 14  3  1  0
 15 14  2  0
 16 17  1  0
 16 15  1  0
 17 18  2  0
 18 14  1  0
 19 17  1  0
 20 19  1  0
 21 22  2  0
 21 20  1  0
 23 22  1  0
 24 23  1  0
 24 25  2  0
 25 21  1  0
  1 26  1  0
  2 27  1  0
  8 28  1  0
  9 29  1  0
 13 30  1  0
 13 31  1  0
 15 32  1  0
 19 33  1  0
 19 34  1  0
 20 35  1  0
 20 36  1  0
 22 37  1  0
 24 38  1  0
M  ISO  8  26  14  27  14  28  14  29  14  32  14  33   8  34   8  35   8
M  ISO  3  36   8  37  14  38  14
M  END
>  <minimizedAffinity>  (1) 
-5.64822769

>  <minimizedRMSD>  (1) 
2.06166196

$$$$
