
     RDKit          3D

 40 43  0  0  0  0  0  0  0  0999 V2000
   44.4640   35.7480   45.0050 C   0  0  0  0  0  0  0  0  0  0  0  0
   44.6200   35.4640   43.6530 C   0  0  0  0  0  0  0  0  0  0  0  0
   45.2350   34.2710   43.2810 C   0  0  0  0  0  0  0  0  0  0  0  0
   45.6560   33.4350   44.2560 N   0  0  0  0  0  0  0  0  0  0  0  0
   45.4920   33.7310   45.5620 C   0  0  0  0  0  0  0  0  0  0  0  0
   44.9080   34.8670   45.9220 N   0  0  0  0  0  0  0  0  0  0  0  0
   45.9670   32.7910   46.5640 C   0  0  0  0  0  0  0  0  0  0  0  0
   47.0170   31.9220   46.2890 C   0  0  0  0  0  0  0  0  0  0  0  0
   47.5140   31.0120   47.1840 C   0  0  0  0  0  0  0  0  0  0  0  0
   46.9780   30.9390   48.3880 N   0  0  0  0  0  0  0  0  0  0  0  0
   45.9530   31.7760   48.6770 C   0  0  0  0  0  0  0  0  0  0  0  0
   45.4340   32.6980   47.8000 N   0  0  0  0  0  0  0  0  0  0  0  0
   45.2350   31.8620   49.9290 N   0  0  0  0  0  0  0  0  0  0  0  0
   45.4220   33.9300   41.8410 C   0  0  0  0  0  0  0  0  0  0  0  0
   44.4130   33.3590   41.0990 C   0  0  0  0  0  0  0  0  0  0  0  0
   45.2240   33.1770   39.4360 S   0  0  0  0  0  0  0  0  0  0  0  0
   46.8330   33.9350   40.0830 C   0  0  0  0  0  0  0  0  0  0  0  0
   46.5520   34.1460   41.1800 N   0  0  0  0  0  0  0  0  0  0  0  0
   48.0190   34.1190   39.2330 C   0  0  0  0  0  0  0  0  0  0  0  0
   48.6710   32.7770   39.0030 C   0  0  0  0  0  0  0  0  0  0  0  0
   48.3480   32.3640   37.6000 C   0  0  0  0  0  0  0  0  0  0  0  0
   48.8160   33.2490   36.6260 C   0  0  0  0  0  0  0  0  0  0  0  0
   48.5430   32.9110   35.3160 C   0  0  0  0  0  0  0  0  0  0  0  0
   47.8760   31.8110   34.9970 N   0  0  0  0  0  0  0  0  0  0  0  0
   47.4340   30.9740   35.9560 C   0  0  0  0  0  0  0  0  0  0  0  0
   47.6840   31.2750   37.2300 N   0  0  0  0  0  0  0  0  0  0  0  0
   43.9821   36.6842   45.3231 H   0  0  0  0  0  0  0  0  0  0  0  0
   44.2633   36.1705   42.8890 H   0  0  0  0  0  0  0  0  0  0  0  0
   47.4770   31.9682   45.2909 H   0  0  0  0  0  0  0  0  0  0  0  0
   48.3478   30.3516   46.9034 H   0  0  0  0  0  0  0  0  0  0  0  0
   44.4675   32.5404   50.0370 H   0  0  0  0  0  0  0  0  0  0  0  0
   45.4910   31.2449   50.7129 H   0  0  0  0  0  0  0  0  0  0  0  0
   43.3943   33.0829   41.4087 H   0  0  0  0  0  0  0  0  0  0  0  0
   47.7177   34.5530   38.2682 H   0  0  0  0  0  0  0  0  0  0  0  0
   48.7294   34.7977   39.7276 H   0  0  0  0  0  0  0  0  0  0  0  0
   49.7604   32.8602   39.1303 H   0  0  0  0  0  0  0  0  0  0  0  0
   48.3010   32.0337   39.7245 H   0  0  0  0  0  0  0  0  0  0  0  0
   49.3701   34.1625   36.8879 H   0  0  0  0  0  0  0  0  0  0  0  0
   48.8900   33.5757   34.5111 H   0  0  0  0  0  0  0  0  0  0  0  0
   46.8786   30.0617   35.6930 H   0  0  0  0  0  0  0  0  0  0  0  0
  1  6  2  0
  2  1  1  0
  3  2  2  0
  3  4  1  0
  4  5  2  0
  5  6  1  0
  5  7  1  0
  7 12  1  0
  8  7  2  0
  8  9  1  0
  9 10  2  0
 10 11  1  0
 11 13  1  0
 12 11  2  0
 14  3  1  0
 15 14  2  0
 16 17  1  0
 16 15  1  0
 17 18  2  0
 18 14  1  0
 19 17  1  0
 20 19  1  0
 21 20  1  0
 22 21  2  0
 23 22  1  0
 24 23  2  0
 24 25  1  0
 25 26  2  0
 26 21  1  0
  1 27  1  0
  2 28  1  0
  8 29  1  0
  9 30  1  0
 13 31  1  0
 13 32  1  0
 15 33  1  0
 19 34  1  0
 19 35  1  0
 20 36  1  0
 20 37  1  0
 22 38  1  0
 23 39  1  0
 25 40  1  0
M  ISO  8  27  14  28  14  29  14  30  14  33  14  34   8  35   8  36   8
M  ISO  4  37   8  38  14  39  14  40  14
M  END
>  <minimizedAffinity>  (1) 
-6.03965902

>  <minimizedRMSD>  (1) 
2.18363595

$$$$
