
     RDKit          3D

 26 28  0  0  0  0  0  0  0  0999 V2000
   46.6660   34.7900   42.0390 C   0  0  0  0  0  0  0  0  0  0  0  0
   47.9510   35.2770   41.9760 C   0  0  0  0  0  0  0  0  0  0  0  0
   48.7240   35.1530   40.8130 C   0  0  0  0  0  0  0  0  0  0  0  0
   48.1820   34.5160   39.6790 C   0  0  0  0  0  0  0  0  0  0  0  0
   46.8930   34.0340   39.7600 C   0  0  0  0  0  0  0  0  0  0  0  0
   46.1590   34.1730   40.9210 C   0  0  0  0  0  0  0  0  0  0  0  0
   44.4510   36.1250   44.7780 C   0  0  0  0  0  0  0  0  0  0  0  0
   45.1020   36.0520   43.5430 C   0  0  0  0  0  0  0  0  0  0  0  0
   45.9440   34.9640   43.2800 C   0  0  0  0  0  0  0  0  0  0  0  0
   46.0940   34.0240   44.2320 N   0  0  0  0  0  0  0  0  0  0  0  0
   45.4440   34.1220   45.4300 C   0  0  0  0  0  0  0  0  0  0  0  0
   44.6400   35.1560   45.6910 N   0  0  0  0  0  0  0  0  0  0  0  0
   44.7840   33.6470   40.9730 C   0  0  0  0  0  0  0  0  0  0  0  0
   44.4930   32.3370   41.4140 C   0  0  0  0  0  0  0  0  0  0  0  0
   42.6550   32.2890   41.2460 S   0  0  0  0  0  0  0  0  0  0  0  0
   42.6250   34.0800   40.6010 C   0  0  0  0  0  0  0  0  0  0  0  0
   43.7780   34.4180   40.5950 N   0  0  0  0  0  0  0  0  0  0  0  0
   48.3815   35.7746   42.8575 H   0  0  0  0  0  0  0  0  0  0  0  0
   49.7490   35.5512   40.7859 H   0  0  0  0  0  0  0  0  0  0  0  0
   48.7703   34.4065   38.7560 H   0  0  0  0  0  0  0  0  0  0  0  0
   46.4442   33.5329   38.8897 H   0  0  0  0  0  0  0  0  0  0  0  0
   43.7863   36.9723   45.0022 H   0  0  0  0  0  0  0  0  0  0  0  0
   44.9550   36.8384   42.7880 H   0  0  0  0  0  0  0  0  0  0  0  0
   45.5848   33.3388   46.1895 H   0  0  0  0  0  0  0  0  0  0  0  0
   45.1799   31.5527   41.7648 H   0  0  0  0  0  0  0  0  0  0  0  0
   41.7483   34.6727   40.3010 H   0  0  0  0  0  0  0  0  0  0  0  0
  1  9  1  0
  2  1  2  0
  3  2  1  0
  4  5  1  0
  4  3  2  0
  5  6  2  0
  6 13  1  0
  6  1  1  0
  7 12  2  0
  8  7  1  0
  9  8  2  0
  9 10  1  0
 10 11  2  0
 11 12  1  0
 13 14  2  0
 15 14  1  0
 16 15  1  0
 17 16  2  0
 17 13  1  0
  2 18  1  0
  3 19  1  0
  4 20  1  0
  5 21  1  0
  7 22  1  0
  8 23  1  0
 11 24  1  0
 14 25  1  0
 16 26  1  0
M  ISO  8  18  14  19  14  20  14  21  14  22  14  23  14  24  14  25  14
M  ISO  1  26  14
M  END
>  <minimizedAffinity>  (1) 
-5.48760176

>  <minimizedRMSD>  (1) 
0.740571201

$$$$
