
     RDKit          3D

 53 57  0  0  0  0  0  0  0  0999 V2000
   45.2910   33.9590   41.8550 C   0  0  0  0  0  0  0  0  0  0  0  0
   44.2460   33.4700   41.1240 C   0  0  0  0  0  0  0  0  0  0  0  0
   45.0280   33.2570   39.4430 S   0  0  0  0  0  0  0  0  0  0  0  0
   46.6670   33.8910   40.0690 C   0  0  0  0  0  0  0  0  0  0  0  0
   46.4040   34.0990   41.1640 N   0  0  0  0  0  0  0  0  0  0  0  0
   44.4590   35.7970   45.0390 C   0  0  0  0  0  0  0  0  0  0  0  0
   44.5720   35.5100   43.6870 C   0  0  0  0  0  0  0  0  0  0  0  0
   45.1540   34.2960   43.2900 C   0  0  0  0  0  0  0  0  0  0  0  0
   45.5810   33.4540   44.2600 N   0  0  0  0  0  0  0  0  0  0  0  0
   45.4590   33.7550   45.5620 C   0  0  0  0  0  0  0  0  0  0  0  0
   44.9070   34.9100   45.9480 N   0  0  0  0  0  0  0  0  0  0  0  0
   45.9350   32.8170   46.5570 C   0  0  0  0  0  0  0  0  0  0  0  0
   46.9910   31.9470   46.2620 C   0  0  0  0  0  0  0  0  0  0  0  0
   47.5040   31.0280   47.1430 C   0  0  0  0  0  0  0  0  0  0  0  0
   46.9850   30.9440   48.3490 N   0  0  0  0  0  0  0  0  0  0  0  0
   45.9630   31.7800   48.6510 C   0  0  0  0  0  0  0  0  0  0  0  0
   45.4270   32.7080   47.7920 N   0  0  0  0  0  0  0  0  0  0  0  0
   45.2510   31.8510   49.9190 N   0  0  0  0  0  0  0  0  0  0  0  0
   47.8300   33.9950   39.1780 C   0  0  0  0  0  0  0  0  0  0  0  0
   48.3840   32.6340   38.9020 C   0  0  0  0  0  0  0  0  0  0  0  0
   48.0640   32.3260   37.4610 C   0  0  0  0  0  0  0  0  0  0  0  0
   48.8230   33.0540   36.5580 C   0  0  0  0  0  0  0  0  0  0  0  0
   48.5670   32.8100   35.2220 C   0  0  0  0  0  0  0  0  0  0  0  0
   47.6510   31.9320   34.8210 N   0  0  0  0  0  0  0  0  0  0  0  0
   46.9360   31.2470   35.7230 C   0  0  0  0  0  0  0  0  0  0  0  0
   47.1640   31.4640   37.0210 N   0  0  0  0  0  0  0  0  0  0  0  0
   45.9520   30.3050   35.3050 N   0  0  0  0  0  0  0  0  0  0  0  0
   44.6480   30.2880   35.9450 C   0  0  0  0  0  0  0  0  0  0  0  0
   43.6350   30.3790   34.8040 C   0  0  0  0  0  0  0  0  0  0  0  0
   44.2180   30.4840   33.5640 O   0  0  0  0  0  0  0  0  0  0  0  0
   45.1080   29.4860   33.2460 C   0  0  0  0  0  0  0  0  0  0  0  0
   46.2640   29.3660   34.2410 C   0  0  0  0  0  0  0  0  0  0  0  0
   43.2147   33.2576   41.4424 H   0  0  0  0  0  0  0  0  0  0  0  0
   44.0059   36.7441   45.3672 H   0  0  0  0  0  0  0  0  0  0  0  0
   44.2097   36.2256   42.9343 H   0  0  0  0  0  0  0  0  0  0  0  0
   47.4389   32.0034   45.2589 H   0  0  0  0  0  0  0  0  0  0  0  0
   48.3356   30.3723   46.8455 H   0  0  0  0  0  0  0  0  0  0  0  0
   44.4845   32.5280   50.0421 H   0  0  0  0  0  0  0  0  0  0  0  0
   45.5138   31.2242   50.6930 H   0  0  0  0  0  0  0  0  0  0  0  0
   47.5230   34.4626   38.2309 H   0  0  0  0  0  0  0  0  0  0  0  0
   48.6034   34.6089   39.6627 H   0  0  0  0  0  0  0  0  0  0  0  0
   49.4727   32.6277   39.0593 H   0  0  0  0  0  0  0  0  0  0  0  0
   47.9472   31.8824   39.5760 H   0  0  0  0  0  0  0  0  0  0  0  0
   49.5817   33.7805   36.8844 H   0  0  0  0  0  0  0  0  0  0  0  0
   49.1411   33.3614   34.4628 H   0  0  0  0  0  0  0  0  0  0  0  0
   44.5086   29.3545   36.5099 H   0  0  0  0  0  0  0  0  0  0  0  0
   44.5329   31.1148   36.6613 H   0  0  0  0  0  0  0  0  0  0  0  0
   43.0097   29.4742   34.8199 H   0  0  0  0  0  0  0  0  0  0  0  0
   43.0461   31.2941   34.9646 H   0  0  0  0  0  0  0  0  0  0  0  0
   44.5660   28.5291   33.2235 H   0  0  0  0  0  0  0  0  0  0  0  0
   45.5446   29.7383   32.2684 H   0  0  0  0  0  0  0  0  0  0  0  0
   46.3269   28.3417   34.6371 H   0  0  0  0  0  0  0  0  0  0  0  0
   47.2342   29.5854   33.7714 H   0  0  0  0  0  0  0  0  0  0  0  0
  1  8  1  0
  2  1  2  0
  3  4  1  0
  3  2  1  0
  4  5  2  0
  5  1  1  0
  6 11  2  0
  7  6  1  0
  8  7  2  0
  8  9  1  0
  9 10  2  0
 10 11  1  0
 10 12  1  0
 12 17  1  0
 13 12  2  0
 13 14  1  0
 14 15  2  0
 15 16  1  0
 16 18  1  0
 17 16  2  0
 19  4  1  0
 20 19  1  0
 21 20  1  0
 22 21  2  0
 23 22  1  0
 24 23  2  0
 24 25  1  0
 25 26  2  0
 26 21  1  0
 27 25  1  0
 27 28  1  0
 29 28  1  0
 30 29  1  0
 31 30  1  0
 31 32  1  0
 32 27  1  0
  2 33  1  0
  6 34  1  0
  7 35  1  0
 13 36  1  0
 14 37  1  0
 18 38  1  0
 18 39  1  0
 19 40  1  0
 19 41  1  0
 20 42  1  0
 20 43  1  0
 22 44  1  0
 23 45  1  0
 28 46  1  0
 28 47  1  0
 29 48  1  0
 29 49  1  0
 31 50  1  0
 31 51  1  0
 32 52  1  0
 32 53  1  0
M  ISO  8  33  14  34  14  35  14  36  14  37  14  40   8  41   8  42   8
M  ISO  8  43   8  44  14  45  14  46  13  47  13  48  13  49  13  50  13
M  ISO  3  51  13  52  13  53  13
M  END
>  <minimizedAffinity>  (1) 
-6.77282953

>  <minimizedRMSD>  (1) 
0.574883878

$$$$
