
     RDKit          3D

 52 56  0  0  0  0  0  0  0  0999 V2000
   45.2650   33.9560   41.8700 C   0  0  0  0  0  0  0  0  0  0  0  0
   44.2110   33.4780   41.1400 C   0  0  0  0  0  0  0  0  0  0  0  0
   45.0050   33.2690   39.4610 S   0  0  0  0  0  0  0  0  0  0  0  0
   46.6500   33.8830   40.0840 C   0  0  0  0  0  0  0  0  0  0  0  0
   46.3970   34.0950   41.1900 N   0  0  0  0  0  0  0  0  0  0  0  0
   44.4520   35.8040   45.0570 C   0  0  0  0  0  0  0  0  0  0  0  0
   44.5620   35.5060   43.7000 C   0  0  0  0  0  0  0  0  0  0  0  0
   45.1400   34.2880   43.3090 C   0  0  0  0  0  0  0  0  0  0  0  0
   45.5660   33.4570   44.2740 N   0  0  0  0  0  0  0  0  0  0  0  0
   45.4550   33.7550   45.5750 C   0  0  0  0  0  0  0  0  0  0  0  0
   44.9070   34.9110   45.9580 N   0  0  0  0  0  0  0  0  0  0  0  0
   45.9360   32.8130   46.5690 C   0  0  0  0  0  0  0  0  0  0  0  0
   46.9930   31.9450   46.2750 C   0  0  0  0  0  0  0  0  0  0  0  0
   47.5030   31.0300   47.1570 C   0  0  0  0  0  0  0  0  0  0  0  0
   46.9860   30.9410   48.3580 N   0  0  0  0  0  0  0  0  0  0  0  0
   45.9570   31.7780   48.6620 C   0  0  0  0  0  0  0  0  0  0  0  0
   45.4290   32.7000   47.8030 N   0  0  0  0  0  0  0  0  0  0  0  0
   45.2450   31.8450   49.9290 N   0  0  0  0  0  0  0  0  0  0  0  0
   47.8120   33.9800   39.1980 C   0  0  0  0  0  0  0  0  0  0  0  0
   48.3250   32.5960   38.8790 C   0  0  0  0  0  0  0  0  0  0  0  0
   48.0400   32.3570   37.4260 C   0  0  0  0  0  0  0  0  0  0  0  0
   48.8850   33.0530   36.5590 C   0  0  0  0  0  0  0  0  0  0  0  0
   48.6590   32.8640   35.2060 C   0  0  0  0  0  0  0  0  0  0  0  0
   47.6900   32.0620   34.7550 N   0  0  0  0  0  0  0  0  0  0  0  0
   46.9060   31.4150   35.6220 C   0  0  0  0  0  0  0  0  0  0  0  0
   47.0870   31.5680   36.9310 N   0  0  0  0  0  0  0  0  0  0  0  0
   45.8710   30.5580   35.1600 N   0  0  0  0  0  0  0  0  0  0  0  0
   44.4390   30.6070   35.3690 C   0  0  0  0  0  0  0  0  0  0  0  0
   43.8170   30.2200   34.0340 C   0  0  0  0  0  0  0  0  0  0  0  0
   44.9750   29.6410   33.2450 C   0  0  0  0  0  0  0  0  0  0  0  0
   45.9950   29.3750   34.3310 C   0  0  0  0  0  0  0  0  0  0  0  0
   43.1774   33.2726   41.4555 H   0  0  0  0  0  0  0  0  0  0  0  0
   44.0016   36.7518   45.3870 H   0  0  0  0  0  0  0  0  0  0  0  0
   44.1998   36.2176   42.9434 H   0  0  0  0  0  0  0  0  0  0  0  0
   47.4426   32.0010   45.2726 H   0  0  0  0  0  0  0  0  0  0  0  0
   48.3372   30.3771   46.8608 H   0  0  0  0  0  0  0  0  0  0  0  0
   44.4768   32.5198   50.0530 H   0  0  0  0  0  0  0  0  0  0  0  0
   45.5092   31.2176   50.7020 H   0  0  0  0  0  0  0  0  0  0  0  0
   47.5200   34.4857   38.2658 H   0  0  0  0  0  0  0  0  0  0  0  0
   48.6045   34.5563   39.6979 H   0  0  0  0  0  0  0  0  0  0  0  0
   49.4072   32.5397   39.0676 H   0  0  0  0  0  0  0  0  0  0  0  0
   47.8370   31.8375   39.5087 H   0  0  0  0  0  0  0  0  0  0  0  0
   49.6835   33.7128   36.9292 H   0  0  0  0  0  0  0  0  0  0  0  0
   49.2966   33.3901   34.4803 H   0  0  0  0  0  0  0  0  0  0  0  0
   44.1407   29.8948   36.1525 H   0  0  0  0  0  0  0  0  0  0  0  0
   44.1095   31.6036   35.6980 H   0  0  0  0  0  0  0  0  0  0  0  0
   43.0252   29.4694   34.1743 H   0  0  0  0  0  0  0  0  0  0  0  0
   43.3414   31.0716   33.5254 H   0  0  0  0  0  0  0  0  0  0  0  0
   44.6847   28.7116   32.7332 H   0  0  0  0  0  0  0  0  0  0  0  0
   45.3410   30.3019   32.4455 H   0  0  0  0  0  0  0  0  0  0  0  0
   45.7485   28.4639   34.8959 H   0  0  0  0  0  0  0  0  0  0  0  0
   47.0131   29.2059   33.9503 H   0  0  0  0  0  0  0  0  0  0  0  0
  1  8  1  0
  2  1  2  0
  3  4  1  0
  3  2  1  0
  4  5  2  0
  5  1  1  0
  6 11  2  0
  7  6  1  0
  8  7  2  0
  8  9  1  0
  9 10  2  0
 10 11  1  0
 10 12  1  0
 12 17  1  0
 13 12  2  0
 13 14  1  0
 14 15  2  0
 15 16  1  0
 16 18  1  0
 17 16  2  0
 19  4  1  0
 20 19  1  0
 21 20  1  0
 22 21  2  0
 23 22  1  0
 24 23  2  0
 24 25  1  0
 25 26  2  0
 26 21  1  0
 27 28  1  0
 27 25  1  0
 29 28  1  0
 30 29  1  0
 30 31  1  0
 31 27  1  0
  2 32  1  0
  6 33  1  0
  7 34  1  0
 13 35  1  0
 14 36  1  0
 18 37  1  0
 18 38  1  0
 19 39  1  0
 19 40  1  0
 20 41  1  0
 20 42  1  0
 22 43  1  0
 23 44  1  0
 28 45  1  0
 28 46  1  0
 29 47  1  0
 29 48  1  0
 30 49  1  0
 30 50  1  0
 31 51  1  0
 31 52  1  0
M  ISO  8  32  14  33  14  34  14  35  14  36  14  39   8  40   8  41   8
M  ISO  8  42   8  43  14  44  14  45  13  46  13  47  13  48  13  49  13
M  ISO  3  50  13  51  13  52  13
M  END
>  <minimizedAffinity>  (1) 
-6.65202284

>  <minimizedRMSD>  (1) 
0.704625905

$$$$
