
     RDKit          3D

 46 50  0  0  0  0  0  0  0  0999 V2000
   45.3930   33.9120   41.8440 C   0  0  0  0  0  0  0  0  0  0  0  0
   44.3840   33.3630   41.1040 C   0  0  0  0  0  0  0  0  0  0  0  0
   45.2070   33.1860   39.4340 S   0  0  0  0  0  0  0  0  0  0  0  0
   46.8010   33.9090   40.0780 C   0  0  0  0  0  0  0  0  0  0  0  0
   46.5120   34.1090   41.1680 N   0  0  0  0  0  0  0  0  0  0  0  0
   44.4650   35.7510   45.0030 C   0  0  0  0  0  0  0  0  0  0  0  0
   44.6140   35.4560   43.6500 C   0  0  0  0  0  0  0  0  0  0  0  0
   45.2230   34.2490   43.2760 C   0  0  0  0  0  0  0  0  0  0  0  0
   45.6400   33.4250   44.2500 N   0  0  0  0  0  0  0  0  0  0  0  0
   45.4880   33.7290   45.5600 C   0  0  0  0  0  0  0  0  0  0  0  0
   44.9100   34.8730   45.9230 N   0  0  0  0  0  0  0  0  0  0  0  0
   45.9590   32.7990   46.5650 C   0  0  0  0  0  0  0  0  0  0  0  0
   47.0160   31.9240   46.2890 C   0  0  0  0  0  0  0  0  0  0  0  0
   47.5240   31.0140   47.1810 C   0  0  0  0  0  0  0  0  0  0  0  0
   46.9890   30.9490   48.3760 N   0  0  0  0  0  0  0  0  0  0  0  0
   45.9630   31.7840   48.6690 C   0  0  0  0  0  0  0  0  0  0  0  0
   45.4360   32.7050   47.7940 N   0  0  0  0  0  0  0  0  0  0  0  0
   45.2430   31.8650   49.9280 N   0  0  0  0  0  0  0  0  0  0  0  0
   47.9650   34.0680   39.1990 C   0  0  0  0  0  0  0  0  0  0  0  0
   48.6020   32.7350   38.9480 C   0  0  0  0  0  0  0  0  0  0  0  0
   48.2750   32.3680   37.5220 C   0  0  0  0  0  0  0  0  0  0  0  0
   48.8600   33.2070   36.5860 C   0  0  0  0  0  0  0  0  0  0  0  0
   48.5940   32.9180   35.2620 C   0  0  0  0  0  0  0  0  0  0  0  0
   47.8250   31.8970   34.9000 N   0  0  0  0  0  0  0  0  0  0  0  0
   47.2760   31.1060   35.8290 C   0  0  0  0  0  0  0  0  0  0  0  0
   47.5160   31.3620   37.1160 N   0  0  0  0  0  0  0  0  0  0  0  0
   46.4460   30.0010   35.4640 N   0  0  0  0  0  0  0  0  0  0  0  0
   45.3820   29.5150   36.1310 C   0  0  0  0  0  0  0  0  0  0  0  0
   44.8510   28.4520   35.4620 N   0  0  0  0  0  0  0  0  0  0  0  0
   45.6420   28.3150   34.3590 C   0  0  0  0  0  0  0  0  0  0  0  0
   46.5830   29.2520   34.3850 N   0  0  0  0  0  0  0  0  0  0  0  0
   43.3613   33.0965   41.4090 H   0  0  0  0  0  0  0  0  0  0  0  0
   43.9888   36.6914   45.3173 H   0  0  0  0  0  0  0  0  0  0  0  0
   44.2584   36.1609   42.8841 H   0  0  0  0  0  0  0  0  0  0  0  0
   47.4705   31.9691   45.2883 H   0  0  0  0  0  0  0  0  0  0  0  0
   48.3592   30.3554   46.9006 H   0  0  0  0  0  0  0  0  0  0  0  0
   44.4748   32.5420   50.0393 H   0  0  0  0  0  0  0  0  0  0  0  0
   45.5007   31.2454   50.7094 H   0  0  0  0  0  0  0  0  0  0  0  0
   47.6422   34.5037   38.2419 H   0  0  0  0  0  0  0  0  0  0  0  0
   48.6957   34.7325   39.6832 H   0  0  0  0  0  0  0  0  0  0  0  0
   49.6916   32.8027   39.0831 H   0  0  0  0  0  0  0  0  0  0  0  0
   48.2280   31.9759   39.6507 H   0  0  0  0  0  0  0  0  0  0  0  0
   49.4984   34.0530   36.8806 H   0  0  0  0  0  0  0  0  0  0  0  0
   49.0339   33.5550   34.4805 H   0  0  0  0  0  0  0  0  0  0  0  0
   44.9965   29.9176   37.0793 H   0  0  0  0  0  0  0  0  0  0  0  0
   45.5203   27.5525   33.5755 H   0  0  0  0  0  0  0  0  0  0  0  0
  1  8  1  0
  2  1  2  0
  3  4  1  0
  3  2  1  0
  4  5  2  0
  5  1  1  0
  6 11  2  0
  7  6  1  0
  8  7  2  0
  8  9  1  0
  9 10  2  0
 10 11  1  0
 10 12  1  0
 12 17  1  0
 13 12  2  0
 13 14  1  0
 14 15  2  0
 15 16  1  0
 16 18  1  0
 17 16  2  0
 19  4  1  0
 20 19  1  0
 21 20  1  0
 22 21  2  0
 23 22  1  0
 24 23  2  0
 24 25  1  0
 25 26  2  0
 26 21  1  0
 27 25  1  0
 27 28  1  0
 29 28  2  0
 30 31  2  0
 30 29  1  0
 31 27  1  0
  2 32  1  0
  6 33  1  0
  7 34  1  0
 13 35  1  0
 14 36  1  0
 18 37  1  0
 18 38  1  0
 19 39  1  0
 19 40  1  0
 20 41  1  0
 20 42  1  0
 22 43  1  0
 23 44  1  0
 28 45  1  0
 30 46  1  0
M  ISO  8  32  14  33  14  34  14  35  14  36  14  39   8  40   8  41   8
M  ISO  5  42   8  43  14  44  14  45  14  46  14
M  END
>  <minimizedAffinity>  (1) 
-6.40626812

>  <minimizedRMSD>  (1) 
0.225389779

$$$$
