
     RDKit          3D

 48 52  0  0  0  0  0  0  0  0999 V2000
   45.2640   33.9310   41.8240 C   0  0  0  0  0  0  0  0  0  0  0  0
   44.2110   33.4400   41.1090 C   0  0  0  0  0  0  0  0  0  0  0  0
   44.9950   33.2260   39.4250 S   0  0  0  0  0  0  0  0  0  0  0  0
   46.6410   33.8580   40.0330 C   0  0  0  0  0  0  0  0  0  0  0  0
   46.3930   34.0750   41.1320 N   0  0  0  0  0  0  0  0  0  0  0  0
   44.4730   35.7980   45.0030 C   0  0  0  0  0  0  0  0  0  0  0  0
   44.5740   35.4960   43.6520 C   0  0  0  0  0  0  0  0  0  0  0  0
   45.1460   34.2740   43.2660 C   0  0  0  0  0  0  0  0  0  0  0  0
   45.5760   33.4390   44.2320 N   0  0  0  0  0  0  0  0  0  0  0  0
   45.4660   33.7590   45.5370 C   0  0  0  0  0  0  0  0  0  0  0  0
   44.9260   34.9130   45.9090 N   0  0  0  0  0  0  0  0  0  0  0  0
   45.9520   32.8080   46.5260 C   0  0  0  0  0  0  0  0  0  0  0  0
   46.9920   31.9260   46.2310 C   0  0  0  0  0  0  0  0  0  0  0  0
   47.4970   31.0120   47.1060 C   0  0  0  0  0  0  0  0  0  0  0  0
   46.9760   30.9400   48.3280 N   0  0  0  0  0  0  0  0  0  0  0  0
   45.9680   31.7860   48.6350 C   0  0  0  0  0  0  0  0  0  0  0  0
   45.4450   32.7130   47.7690 N   0  0  0  0  0  0  0  0  0  0  0  0
   45.2700   31.8730   49.8900 N   0  0  0  0  0  0  0  0  0  0  0  0
   47.7800   33.9510   39.1300 C   0  0  0  0  0  0  0  0  0  0  0  0
   48.3120   32.5800   38.8210 C   0  0  0  0  0  0  0  0  0  0  0  0
   47.9780   32.3110   37.3750 C   0  0  0  0  0  0  0  0  0  0  0  0
   48.8050   32.9870   36.4860 C   0  0  0  0  0  0  0  0  0  0  0  0
   48.5450   32.7780   35.1460 C   0  0  0  0  0  0  0  0  0  0  0  0
   47.5660   31.9840   34.7290 N   0  0  0  0  0  0  0  0  0  0  0  0
   46.7870   31.3480   35.6110 C   0  0  0  0  0  0  0  0  0  0  0  0
   47.0150   31.5300   36.9140 N   0  0  0  0  0  0  0  0  0  0  0  0
   45.7100   30.4720   35.1670 C   0  0  0  0  0  0  0  0  0  0  0  0
   44.7090   30.9680   34.3570 C   0  0  0  0  0  0  0  0  0  0  0  0
   43.6690   30.1610   33.9180 C   0  0  0  0  0  0  0  0  0  0  0  0
   43.6530   28.8520   34.3060 N   0  0  0  0  0  0  0  0  0  0  0  0
   44.6400   28.3950   35.0960 C   0  0  0  0  0  0  0  0  0  0  0  0
   45.6690   29.1810   35.5340 N   0  0  0  0  0  0  0  0  0  0  0  0
   43.1818   33.2279   41.4343 H   0  0  0  0  0  0  0  0  0  0  0  0
   44.0278   36.7497   45.3288 H   0  0  0  0  0  0  0  0  0  0  0  0
   44.2105   36.2052   42.8938 H   0  0  0  0  0  0  0  0  0  0  0  0
   47.4338   31.9716   45.2246 H   0  0  0  0  0  0  0  0  0  0  0  0
   48.3201   30.3460   46.8077 H   0  0  0  0  0  0  0  0  0  0  0  0
   44.5128   32.5606   50.0116 H   0  0  0  0  0  0  0  0  0  0  0  0
   45.5274   31.2477   50.6669 H   0  0  0  0  0  0  0  0  0  0  0  0
   47.4636   34.4369   38.1952 H   0  0  0  0  0  0  0  0  0  0  0  0
   48.5722   34.5426   39.6120 H   0  0  0  0  0  0  0  0  0  0  0  0
   49.4012   32.5515   38.9718 H   0  0  0  0  0  0  0  0  0  0  0  0
   47.8674   31.8209   39.4814 H   0  0  0  0  0  0  0  0  0  0  0  0
   49.6157   33.6470   36.8282 H   0  0  0  0  0  0  0  0  0  0  0  0
   49.1707   33.2870   34.3981 H   0  0  0  0  0  0  0  0  0  0  0  0
   44.7360   32.0248   34.0531 H   0  0  0  0  0  0  0  0  0  0  0  0
   42.8760   30.5664   33.2725 H   0  0  0  0  0  0  0  0  0  0  0  0
   44.6186   27.3393   35.4043 H   0  0  0  0  0  0  0  0  0  0  0  0
  1  8  1  0
  2  1  2  0
  3  4  1  0
  3  2  1  0
  4  5  2  0
  5  1  1  0
  6 11  2  0
  7  6  1  0
  8  7  2  0
  8  9  1  0
  9 10  2  0
 10 11  1  0
 10 12  1  0
 12 17  1  0
 13 12  2  0
 13 14  1  0
 14 15  2  0
 15 16  1  0
 16 18  1  0
 17 16  2  0
 19  4  1  0
 20 19  1  0
 21 20  1  0
 22 21  2  0
 23 22  1  0
 24 23  2  0
 24 25  1  0
 25 26  2  0
 26 21  1  0
 27 32  1  0
 27 25  1  0
 28 27  2  0
 29 30  2  0
 29 28  1  0
 30 31  1  0
 31 32  2  0
  2 33  1  0
  6 34  1  0
  7 35  1  0
 13 36  1  0
 14 37  1  0
 18 38  1  0
 18 39  1  0
 19 40  1  0
 19 41  1  0
 20 42  1  0
 20 43  1  0
 22 44  1  0
 23 45  1  0
 28 46  1  0
 29 47  1  0
 31 48  1  0
M  ISO  8  33  14  34  14  35  14  36  14  37  14  40   8  41   8  42   8
M  ISO  6  43   8  44  14  45  14  46  14  47  14  48  14
M  END
>  <minimizedAffinity>  (1) 
-6.39689922

>  <minimizedRMSD>  (1) 
0.840107024

$$$$
