
     RDKit          3D

 47 51  0  0  0  0  0  0  0  0999 V2000
   45.4030   33.9180   41.8500 C   0  0  0  0  0  0  0  0  0  0  0  0
   44.3980   33.3680   41.1070 C   0  0  0  0  0  0  0  0  0  0  0  0
   45.2310   33.2050   39.4430 S   0  0  0  0  0  0  0  0  0  0  0  0
   46.8210   33.9310   40.0900 C   0  0  0  0  0  0  0  0  0  0  0  0
   46.5240   34.1240   41.1830 N   0  0  0  0  0  0  0  0  0  0  0  0
   44.4610   35.7500   45.0150 C   0  0  0  0  0  0  0  0  0  0  0  0
   44.6150   35.4550   43.6570 C   0  0  0  0  0  0  0  0  0  0  0  0
   45.2300   34.2490   43.2850 C   0  0  0  0  0  0  0  0  0  0  0  0
   45.6450   33.4280   44.2630 N   0  0  0  0  0  0  0  0  0  0  0  0
   45.4870   33.7350   45.5630 C   0  0  0  0  0  0  0  0  0  0  0  0
   44.9070   34.8710   45.9260 N   0  0  0  0  0  0  0  0  0  0  0  0
   45.9650   32.7910   46.5710 C   0  0  0  0  0  0  0  0  0  0  0  0
   47.0180   31.9200   46.2930 C   0  0  0  0  0  0  0  0  0  0  0  0
   47.5160   31.0110   47.1870 C   0  0  0  0  0  0  0  0  0  0  0  0
   46.9810   30.9410   48.3880 N   0  0  0  0  0  0  0  0  0  0  0  0
   45.9560   31.7810   48.6740 C   0  0  0  0  0  0  0  0  0  0  0  0
   45.4340   32.6980   47.8070 N   0  0  0  0  0  0  0  0  0  0  0  0
   45.2340   31.8590   49.9360 N   0  0  0  0  0  0  0  0  0  0  0  0
   47.9760   34.0930   39.2160 C   0  0  0  0  0  0  0  0  0  0  0  0
   48.6370   32.7640   38.9720 C   0  0  0  0  0  0  0  0  0  0  0  0
   48.2960   32.3810   37.5530 C   0  0  0  0  0  0  0  0  0  0  0  0
   48.8770   33.2150   36.6090 C   0  0  0  0  0  0  0  0  0  0  0  0
   48.5920   32.9040   35.2850 C   0  0  0  0  0  0  0  0  0  0  0  0
   47.8150   31.8790   34.9460 N   0  0  0  0  0  0  0  0  0  0  0  0
   47.2740   31.0980   35.8920 C   0  0  0  0  0  0  0  0  0  0  0  0
   47.5290   31.3700   37.1650 N   0  0  0  0  0  0  0  0  0  0  0  0
   46.4300   29.9730   35.6760 N   0  0  0  0  0  0  0  0  0  0  0  0
   46.2140   29.5300   34.4230 C   0  0  0  0  0  0  0  0  0  0  0  0
   45.3570   28.4400   34.5860 C   0  0  0  0  0  0  0  0  0  0  0  0
   45.0830   28.2560   35.9070 N   0  0  0  0  0  0  0  0  0  0  0  0
   45.7650   29.2290   36.5740 C   0  0  0  0  0  0  0  0  0  0  0  0
   43.3755   33.0950   41.4069 H   0  0  0  0  0  0  0  0  0  0  0  0
   43.9817   36.6880   45.3319 H   0  0  0  0  0  0  0  0  0  0  0  0
   44.2590   36.1586   42.8901 H   0  0  0  0  0  0  0  0  0  0  0  0
   47.4764   31.9663   45.2942 H   0  0  0  0  0  0  0  0  0  0  0  0
   48.3493   30.3500   46.9067 H   0  0  0  0  0  0  0  0  0  0  0  0
   44.4667   32.5367   50.0493 H   0  0  0  0  0  0  0  0  0  0  0  0
   45.4906   31.2365   50.7155 H   0  0  0  0  0  0  0  0  0  0  0  0
   47.6475   34.5166   38.2555 H   0  0  0  0  0  0  0  0  0  0  0  0
   48.6979   34.7682   39.6987 H   0  0  0  0  0  0  0  0  0  0  0  0
   49.7269   32.8520   39.0922 H   0  0  0  0  0  0  0  0  0  0  0  0
   48.2889   32.0047   39.6878 H   0  0  0  0  0  0  0  0  0  0  0  0
   49.5186   34.0635   36.8890 H   0  0  0  0  0  0  0  0  0  0  0  0
   49.0244   33.5278   34.4888 H   0  0  0  0  0  0  0  0  0  0  0  0
   46.6204   29.9348   33.4844 H   0  0  0  0  0  0  0  0  0  0  0  0
   44.9613   27.8208   33.7675 H   0  0  0  0  0  0  0  0  0  0  0  0
   45.7698   29.3794   37.6637 H   0  0  0  0  0  0  0  0  0  0  0  0
  1  8  1  0
  2  1  2  0
  3  4  1  0
  3  2  1  0
  4  5  2  0
  5  1  1  0
  6 11  2  0
  7  6  1  0
  8  7  2  0
  8  9  1  0
  9 10  2  0
 10 11  1  0
 10 12  1  0
 12 17  1  0
 13 12  2  0
 13 14  1  0
 14 15  2  0
 15 16  1  0
 16 18  1  0
 17 16  2  0
 19  4  1  0
 20 19  1  0
 21 20  1  0
 22 21  2  0
 23 22  1  0
 24 23  2  0
 24 25  1  0
 25 26  2  0
 26 21  1  0
 27 25  1  0
 27 31  1  0
 28 29  2  0
 28 27  1  0
 29 30  1  0
 30 31  2  0
  2 32  1  0
  6 33  1  0
  7 34  1  0
 13 35  1  0
 14 36  1  0
 18 37  1  0
 18 38  1  0
 19 39  1  0
 19 40  1  0
 20 41  1  0
 20 42  1  0
 22 43  1  0
 23 44  1  0
 28 45  1  0
 29 46  1  0
 31 47  1  0
M  ISO  8  32  14  33  14  34  14  35  14  36  14  39   8  40   8  41   8
M  ISO  6  42   8  43  14  44  14  45  14  46  14  47  14
M  END
>  <minimizedAffinity>  (1) 
-6.39341402

>  <minimizedRMSD>  (1) 
0.192289084

$$$$
