
     RDKit          3D

 47 51  0  0  0  0  0  0  0  0999 V2000
   45.3910   33.9130   41.8430 C   0  0  0  0  0  0  0  0  0  0  0  0
   44.3810   33.3630   41.1070 C   0  0  0  0  0  0  0  0  0  0  0  0
   45.2130   33.1930   39.4430 S   0  0  0  0  0  0  0  0  0  0  0  0
   46.8070   33.9180   40.0850 C   0  0  0  0  0  0  0  0  0  0  0  0
   46.5160   34.1180   41.1760 N   0  0  0  0  0  0  0  0  0  0  0  0
   44.4630   35.7500   45.0080 C   0  0  0  0  0  0  0  0  0  0  0  0
   44.6110   35.4560   43.6580 C   0  0  0  0  0  0  0  0  0  0  0  0
   45.2220   34.2520   43.2820 C   0  0  0  0  0  0  0  0  0  0  0  0
   45.6420   33.4240   44.2570 N   0  0  0  0  0  0  0  0  0  0  0  0
   45.4830   33.7420   45.5680 C   0  0  0  0  0  0  0  0  0  0  0  0
   44.9100   34.8710   45.9300 N   0  0  0  0  0  0  0  0  0  0  0  0
   45.9650   32.7940   46.5660 C   0  0  0  0  0  0  0  0  0  0  0  0
   47.0170   31.9200   46.2870 C   0  0  0  0  0  0  0  0  0  0  0  0
   47.5140   31.0090   47.1790 C   0  0  0  0  0  0  0  0  0  0  0  0
   46.9820   30.9380   48.3770 N   0  0  0  0  0  0  0  0  0  0  0  0
   45.9530   31.7810   48.6770 C   0  0  0  0  0  0  0  0  0  0  0  0
   45.4410   32.6990   47.7960 N   0  0  0  0  0  0  0  0  0  0  0  0
   45.2340   31.8590   49.9310 N   0  0  0  0  0  0  0  0  0  0  0  0
   47.9690   34.0810   39.2090 C   0  0  0  0  0  0  0  0  0  0  0  0
   48.6120   32.7550   38.9580 C   0  0  0  0  0  0  0  0  0  0  0  0
   48.2810   32.3780   37.5350 C   0  0  0  0  0  0  0  0  0  0  0  0
   48.8640   33.2070   36.5880 C   0  0  0  0  0  0  0  0  0  0  0  0
   48.5980   32.9170   35.2690 C   0  0  0  0  0  0  0  0  0  0  0  0
   47.8280   31.9020   34.9180 N   0  0  0  0  0  0  0  0  0  0  0  0
   47.2740   31.1140   35.8550 C   0  0  0  0  0  0  0  0  0  0  0  0
   47.5180   31.3760   37.1400 N   0  0  0  0  0  0  0  0  0  0  0  0
   46.4110   29.9720   35.5660 C   0  0  0  0  0  0  0  0  0  0  0  0
   46.0410   28.8750   36.3160 C   0  0  0  0  0  0  0  0  0  0  0  0
   45.1980   28.1410   35.4850 C   0  0  0  0  0  0  0  0  0  0  0  0
   45.0860   28.7900   34.2980 N   0  0  0  0  0  0  0  0  0  0  0  0
   45.8140   29.8920   34.3420 N   0  0  0  0  0  0  0  0  0  0  0  0
   43.3585   33.0940   41.4104 H   0  0  0  0  0  0  0  0  0  0  0  0
   43.9861   36.6901   45.3225 H   0  0  0  0  0  0  0  0  0  0  0  0
   44.2526   36.1604   42.8929 H   0  0  0  0  0  0  0  0  0  0  0  0
   47.4750   31.9664   45.2880 H   0  0  0  0  0  0  0  0  0  0  0  0
   48.3458   30.3469   46.8967 H   0  0  0  0  0  0  0  0  0  0  0  0
   44.4690   32.5393   50.0446 H   0  0  0  0  0  0  0  0  0  0  0  0
   45.4874   31.2342   50.7097 H   0  0  0  0  0  0  0  0  0  0  0  0
   47.6451   34.5155   38.2518 H   0  0  0  0  0  0  0  0  0  0  0  0
   48.6962   34.7479   39.6952 H   0  0  0  0  0  0  0  0  0  0  0  0
   49.7018   32.8312   39.0868 H   0  0  0  0  0  0  0  0  0  0  0  0
   48.2455   31.9962   39.6650 H   0  0  0  0  0  0  0  0  0  0  0  0
   49.5058   34.0526   36.8762 H   0  0  0  0  0  0  0  0  0  0  0  0
   49.0393   33.5487   34.4840 H   0  0  0  0  0  0  0  0  0  0  0  0
   46.3451   28.6329   37.3450 H   0  0  0  0  0  0  0  0  0  0  0  0
   44.7050   27.1932   35.7470 H   0  0  0  0  0  0  0  0  0  0  0  0
   44.5249   28.4748   33.4938 H   0  0  0  0  0  0  0  0  0  0  0  0
  1  8  1  0
  2  1  2  0
  3  4  1  0
  3  2  1  0
  4  5  2  0
  5  1  1  0
  6 11  2  0
  7  6  1  0
  8  7  2  0
  8  9  1  0
  9 10  2  0
 10 11  1  0
 10 12  1  0
 12 17  1  0
 13 12  2  0
 13 14  1  0
 14 15  2  0
 15 16  1  0
 16 18  1  0
 17 16  2  0
 19  4  1  0
 20 19  1  0
 21 20  1  0
 22 21  2  0
 23 22  1  0
 24 23  2  0
 24 25  1  0
 25 26  2  0
 26 21  1  0
 27 25  1  0
 27 28  1  0
 29 28  2  0
 30 31  1  0
 30 29  1  0
 31 27  2  0
  2 32  1  0
  6 33  1  0
  7 34  1  0
 13 35  1  0
 14 36  1  0
 18 37  1  0
 18 38  1  0
 19 39  1  0
 19 40  1  0
 20 41  1  0
 20 42  1  0
 22 43  1  0
 23 44  1  0
 28 45  1  0
 29 46  1  0
 30 47  1  0
M  ISO  8  32  14  33  14  34  14  35  14  36  14  39   8  40   8  41   8
M  ISO  6  42   8  43  14  44  14  45  14  46  14  47   9
M  END
>  <minimizedAffinity>  (1) 
-6.1243434

>  <minimizedRMSD>  (1) 
0.267388344

$$$$
