
     RDKit          3D

 41 44  0  0  0  0  0  0  0  0999 V2000
   45.4160   33.9170   41.8470 C   0  0  0  0  0  0  0  0  0  0  0  0
   44.4140   33.3610   41.1050 C   0  0  0  0  0  0  0  0  0  0  0  0
   45.2440   33.1920   39.4410 S   0  0  0  0  0  0  0  0  0  0  0  0
   46.8300   33.9280   40.0880 C   0  0  0  0  0  0  0  0  0  0  0  0
   46.5370   34.1260   41.1760 N   0  0  0  0  0  0  0  0  0  0  0  0
   44.4660   35.7430   45.0040 C   0  0  0  0  0  0  0  0  0  0  0  0
   44.6210   35.4550   43.6530 C   0  0  0  0  0  0  0  0  0  0  0  0
   45.2370   34.2510   43.2790 C   0  0  0  0  0  0  0  0  0  0  0  0
   45.6510   33.4250   44.2600 N   0  0  0  0  0  0  0  0  0  0  0  0
   45.4930   33.7210   45.5590 C   0  0  0  0  0  0  0  0  0  0  0  0
   44.9070   34.8670   45.9210 N   0  0  0  0  0  0  0  0  0  0  0  0
   45.9590   32.7930   46.5710 C   0  0  0  0  0  0  0  0  0  0  0  0
   47.0200   31.9250   46.2830 C   0  0  0  0  0  0  0  0  0  0  0  0
   47.5150   31.0170   47.1960 C   0  0  0  0  0  0  0  0  0  0  0  0
   46.9790   30.9490   48.4000 N   0  0  0  0  0  0  0  0  0  0  0  0
   45.9580   31.7810   48.6850 C   0  0  0  0  0  0  0  0  0  0  0  0
   45.4330   32.7030   47.7990 N   0  0  0  0  0  0  0  0  0  0  0  0
   45.2380   31.8670   49.9260 N   0  0  0  0  0  0  0  0  0  0  0  0
   47.9890   34.0930   39.2110 C   0  0  0  0  0  0  0  0  0  0  0  0
   48.6690   32.7700   38.9920 C   0  0  0  0  0  0  0  0  0  0  0  0
   48.3390   32.3530   37.5810 C   0  0  0  0  0  0  0  0  0  0  0  0
   48.8200   33.2300   36.6170 C   0  0  0  0  0  0  0  0  0  0  0  0
   48.5510   32.9040   35.3010 C   0  0  0  0  0  0  0  0  0  0  0  0
   47.8740   31.8210   34.9800 N   0  0  0  0  0  0  0  0  0  0  0  0
   47.4180   30.9880   35.9250 C   0  0  0  0  0  0  0  0  0  0  0  0
   47.6650   31.2800   37.2050 N   0  0  0  0  0  0  0  0  0  0  0  0
   46.7020   29.8400   35.5990 O   0  0  0  0  0  0  0  0  0  0  0  0
   43.3924   33.0864   41.4064 H   0  0  0  0  0  0  0  0  0  0  0  0
   43.9859   36.6811   45.3193 H   0  0  0  0  0  0  0  0  0  0  0  0
   44.2658   36.1610   42.8879 H   0  0  0  0  0  0  0  0  0  0  0  0
   47.4790   31.9694   45.2843 H   0  0  0  0  0  0  0  0  0  0  0  0
   48.3498   30.3549   46.9226 H   0  0  0  0  0  0  0  0  0  0  0  0
   44.4703   32.5457   50.0300 H   0  0  0  0  0  0  0  0  0  0  0  0
   45.4898   31.2499   50.7113 H   0  0  0  0  0  0  0  0  0  0  0  0
   47.6571   34.4953   38.2425 H   0  0  0  0  0  0  0  0  0  0  0  0
   48.6997   34.7872   39.6833 H   0  0  0  0  0  0  0  0  0  0  0  0
   49.7571   32.8764   39.1131 H   0  0  0  0  0  0  0  0  0  0  0  0
   48.3281   32.0198   39.7207 H   0  0  0  0  0  0  0  0  0  0  0  0
   49.3844   34.1349   36.8864 H   0  0  0  0  0  0  0  0  0  0  0  0
   48.9120   33.5667   34.5007 H   0  0  0  0  0  0  0  0  0  0  0  0
   46.3755   29.2400   36.3156 H   0  0  0  0  0  0  0  0  0  0  0  0
  1  8  1  0
  2  1  2  0
  3  4  1  0
  3  2  1  0
  4  5  2  0
  5  1  1  0
  6 11  2  0
  7  6  1  0
  8  7  2  0
  8  9  1  0
  9 10  2  0
 10 11  1  0
 10 12  1  0
 12 17  1  0
 13 12  2  0
 13 14  1  0
 14 15  2  0
 15 16  1  0
 16 18  1  0
 17 16  2  0
 19  4  1  0
 20 19  1  0
 21 20  1  0
 22 21  2  0
 23 22  1  0
 24 23  2  0
 24 25  1  0
 25 26  2  0
 26 21  1  0
 27 25  1  0
  2 28  1  0
  6 29  1  0
  7 30  1  0
 13 31  1  0
 14 32  1  0
 18 33  1  0
 18 34  1  0
 19 35  1  0
 19 36  1  0
 20 37  1  0
 20 38  1  0
 22 39  1  0
 23 40  1  0
 27 41  1  0
M  ISO  8  28  14  29  14  30  14  31  14  32  14  35   8  36   8  37   8
M  ISO  4  38   8  39  14  40  14  41   3
M  END
>  <minimizedAffinity>  (1) 
-6.12079239

>  <minimizedRMSD>  (1) 
0.0208048932

$$$$
