
     RDKit          3D

 27 29  0  0  0  0  0  0  0  0999 V2000
   46.5050   34.7180   42.1040 C   0  0  0  0  0  0  0  0  0  0  0  0
   47.8040   35.1620   41.9810 C   0  0  0  0  0  0  0  0  0  0  0  0
   48.5370   34.9780   40.8040 C   0  0  0  0  0  0  0  0  0  0  0  0
   47.9490   34.3280   39.7190 C   0  0  0  0  0  0  0  0  0  0  0  0
   46.6460   33.8840   39.8480 C   0  0  0  0  0  0  0  0  0  0  0  0
   45.9450   34.0800   41.0200 C   0  0  0  0  0  0  0  0  0  0  0  0
   44.4480   36.2010   44.8840 C   0  0  0  0  0  0  0  0  0  0  0  0
   45.0610   36.0740   43.6310 C   0  0  0  0  0  0  0  0  0  0  0  0
   45.8270   34.9540   43.3550 C   0  0  0  0  0  0  0  0  0  0  0  0
   45.9470   34.0280   44.3180 N   0  0  0  0  0  0  0  0  0  0  0  0
   45.3430   34.1670   45.5320 C   0  0  0  0  0  0  0  0  0  0  0  0
   44.6050   35.2440   45.8010 N   0  0  0  0  0  0  0  0  0  0  0  0
   44.5780   33.5850   41.0960 C   0  0  0  0  0  0  0  0  0  0  0  0
   43.8220   33.6580   39.9350 C   0  0  0  0  0  0  0  0  0  0  0  0
   42.5990   33.1580   40.1920 N   0  0  0  0  0  0  0  0  0  0  0  0
   42.5830   32.7720   41.5000 C   0  0  0  0  0  0  0  0  0  0  0  0
   43.7800   33.0300   42.0520 N   0  0  0  0  0  0  0  0  0  0  0  0
   48.2770   35.6749   42.8314 H   0  0  0  0  0  0  0  0  0  0  0  0
   49.5720   35.3441   40.7344 H   0  0  0  0  0  0  0  0  0  0  0  0
   48.5078   34.1726   38.7843 H   0  0  0  0  0  0  0  0  0  0  0  0
   46.1622   33.3680   39.0056 H   0  0  0  0  0  0  0  0  0  0  0  0
   43.8383   37.0878   45.1118 H   0  0  0  0  0  0  0  0  0  0  0  0
   44.9347   36.8591   42.8710 H   0  0  0  0  0  0  0  0  0  0  0  0
   45.4655   33.3846   46.2954 H   0  0  0  0  0  0  0  0  0  0  0  0
   44.1640   34.0568   38.9686 H   0  0  0  0  0  0  0  0  0  0  0  0
   41.7254   32.3208   42.0205 H   0  0  0  0  0  0  0  0  0  0  0  0
   44.0485   32.8413   43.0283 H   0  0  0  0  0  0  0  0  0  0  0  0
  1  9  1  0
  2  1  2  0
  3  2  1  0
  4  5  1  0
  4  3  2  0
  5  6  2  0
  6 13  1  0
  6  1  1  0
  7 12  2  0
  8  7  1  0
  9  8  2  0
  9 10  1  0
 10 11  2  0
 11 12  1  0
 13 17  1  0
 14 15  1  0
 14 13  2  0
 15 16  2  0
 16 17  1  0
  2 18  1  0
  3 19  1  0
  4 20  1  0
  5 21  1  0
  7 22  1  0
  8 23  1  0
 11 24  1  0
 14 25  1  0
 16 26  1  0
 17 27  1  0
M  ISO  8  18  14  19  14  20  14  21  14  22  14  23  14  24  14  25  14
M  ISO  2  26  14  27   9
M  END
>  <minimizedAffinity>  (1) 
-5.46439552

>  <minimizedRMSD>  (1) 
0.518777549

$$$$
