
     RDKit          3D

 46 49  0  0  0  0  0  0  0  0999 V2000
   45.4040   33.9080   41.8380 C   0  0  0  0  0  0  0  0  0  0  0  0
   44.4000   33.3520   41.0970 C   0  0  0  0  0  0  0  0  0  0  0  0
   45.2300   33.1800   39.4280 S   0  0  0  0  0  0  0  0  0  0  0  0
   46.8180   33.9130   40.0740 C   0  0  0  0  0  0  0  0  0  0  0  0
   46.5260   34.1150   41.1710 N   0  0  0  0  0  0  0  0  0  0  0  0
   44.4650   35.7500   44.9970 C   0  0  0  0  0  0  0  0  0  0  0  0
   44.6180   35.4510   43.6420 C   0  0  0  0  0  0  0  0  0  0  0  0
   45.2300   34.2450   43.2700 C   0  0  0  0  0  0  0  0  0  0  0  0
   45.6440   33.4270   44.2500 N   0  0  0  0  0  0  0  0  0  0  0  0
   45.4900   33.7250   45.5490 C   0  0  0  0  0  0  0  0  0  0  0  0
   44.9090   34.8730   45.9130 N   0  0  0  0  0  0  0  0  0  0  0  0
   45.9610   32.7960   46.5580 C   0  0  0  0  0  0  0  0  0  0  0  0
   47.0200   31.9240   46.2810 C   0  0  0  0  0  0  0  0  0  0  0  0
   47.5220   31.0170   47.1800 C   0  0  0  0  0  0  0  0  0  0  0  0
   46.9850   30.9530   48.3830 N   0  0  0  0  0  0  0  0  0  0  0  0
   45.9660   31.7860   48.6630 C   0  0  0  0  0  0  0  0  0  0  0  0
   45.4370   32.7040   47.7930 N   0  0  0  0  0  0  0  0  0  0  0  0
   45.2460   31.8710   49.9260 N   0  0  0  0  0  0  0  0  0  0  0  0
   47.9720   34.0740   39.1980 C   0  0  0  0  0  0  0  0  0  0  0  0
   48.6420   32.7430   38.9740 C   0  0  0  0  0  0  0  0  0  0  0  0
   48.3280   32.3530   37.5510 C   0  0  0  0  0  0  0  0  0  0  0  0
   48.8280   33.2440   36.6120 C   0  0  0  0  0  0  0  0  0  0  0  0
   48.5680   32.9340   35.2890 C   0  0  0  0  0  0  0  0  0  0  0  0
   47.8870   31.8570   34.9360 N   0  0  0  0  0  0  0  0  0  0  0  0
   47.4160   31.0140   35.8690 C   0  0  0  0  0  0  0  0  0  0  0  0
   47.6500   31.2850   37.1540 N   0  0  0  0  0  0  0  0  0  0  0  0
   46.6480   29.8000   35.4820 C   0  0  0  0  0  0  0  0  0  0  0  0
   46.1900   29.8290   34.0560 C   0  0  0  0  0  0  0  0  0  0  0  0
   43.3784   33.0788   41.3997 H   0  0  0  0  0  0  0  0  0  0  0  0
   43.9877   36.6902   45.3103 H   0  0  0  0  0  0  0  0  0  0  0  0
   44.2624   36.1538   42.8741 H   0  0  0  0  0  0  0  0  0  0  0  0
   47.4778   31.9684   45.2818 H   0  0  0  0  0  0  0  0  0  0  0  0
   48.3563   30.3559   46.9027 H   0  0  0  0  0  0  0  0  0  0  0  0
   44.4771   32.5475   50.0360 H   0  0  0  0  0  0  0  0  0  0  0  0
   45.5057   31.2547   50.7093 H   0  0  0  0  0  0  0  0  0  0  0  0
   47.6410   34.4819   38.2315 H   0  0  0  0  0  0  0  0  0  0  0  0
   48.6884   34.7628   39.6694 H   0  0  0  0  0  0  0  0  0  0  0  0
   49.7292   32.8341   39.1142 H   0  0  0  0  0  0  0  0  0  0  0  0
   48.2832   31.9865   39.6874 H   0  0  0  0  0  0  0  0  0  0  0  0
   49.3956   34.1407   36.9015 H   0  0  0  0  0  0  0  0  0  0  0  0
   48.9410   33.6072   34.5031 H   0  0  0  0  0  0  0  0  0  0  0  0
   47.2894   28.9182   35.6266 H   0  0  0  0  0  0  0  0  0  0  0  0
   45.7499   29.7619   36.1161 H   0  0  0  0  0  0  0  0  0  0  0  0
   45.0926   29.8985   34.0247 H   0  0  0  0  0  0  0  0  0  0  0  0
   46.6273   30.7013   33.5481 H   0  0  0  0  0  0  0  0  0  0  0  0
   46.5138   28.9086   33.5481 H   0  0  0  0  0  0  0  0  0  0  0  0
  1  8  1  0
  2  1  2  0
  3  4  1  0
  3  2  1  0
  4  5  2  0
  5  1  1  0
  6 11  2  0
  7  6  1  0
  8  7  2  0
  8  9  1  0
  9 10  2  0
 10 11  1  0
 10 12  1  0
 12 17  1  0
 13 12  2  0
 13 14  1  0
 14 15  2  0
 15 16  1  0
 16 18  1  0
 17 16  2  0
 19  4  1  0
 20 19  1  0
 21 20  1  0
 22 21  2  0
 23 22  1  0
 24 23  2  0
 24 25  1  0
 25 26  2  0
 26 21  1  0
 27 25  1  0
 28 27  1  0
  2 29  1  0
  6 30  1  0
  7 31  1  0
 13 32  1  0
 14 33  1  0
 18 34  1  0
 18 35  1  0
 19 36  1  0
 19 37  1  0
 20 38  1  0
 20 39  1  0
 22 40  1  0
 23 41  1  0
 27 42  1  0
 27 43  1  0
 28 44  1  0
 28 45  1  0
 28 46  1  0
M  ISO  8  29  14  30  14  31  14  32  14  33  14  36   8  37   8  38   8
M  ISO  8  39   8  40  14  41  14  42   8  43   8  44   8  45   8  46   8
M  END
>  <minimizedAffinity>  (1) 
-5.95747375

>  <minimizedRMSD>  (1) 
0.0596934333

$$$$
