
     RDKit          3D

 42 45  0  0  0  0  0  0  0  0999 V2000
   45.4150   33.9120   41.8430 C   0  0  0  0  0  0  0  0  0  0  0  0
   44.4120   33.3560   41.1020 C   0  0  0  0  0  0  0  0  0  0  0  0
   45.2500   33.1940   39.4400 S   0  0  0  0  0  0  0  0  0  0  0  0
   46.8370   33.9290   40.0850 C   0  0  0  0  0  0  0  0  0  0  0  0
   46.5410   34.1260   41.1810 N   0  0  0  0  0  0  0  0  0  0  0  0
   44.4610   35.7440   45.0050 C   0  0  0  0  0  0  0  0  0  0  0  0
   44.6180   35.4490   43.6530 C   0  0  0  0  0  0  0  0  0  0  0  0
   45.2370   34.2460   43.2800 C   0  0  0  0  0  0  0  0  0  0  0  0
   45.6550   33.4260   44.2560 N   0  0  0  0  0  0  0  0  0  0  0  0
   45.4900   33.7370   45.5650 C   0  0  0  0  0  0  0  0  0  0  0  0
   44.9100   34.8640   45.9210 N   0  0  0  0  0  0  0  0  0  0  0  0
   45.9730   32.7880   46.5660 C   0  0  0  0  0  0  0  0  0  0  0  0
   47.0230   31.9160   46.2920 C   0  0  0  0  0  0  0  0  0  0  0  0
   47.5160   31.0090   47.1870 C   0  0  0  0  0  0  0  0  0  0  0  0
   46.9820   30.9390   48.3820 N   0  0  0  0  0  0  0  0  0  0  0  0
   45.9520   31.7810   48.6770 C   0  0  0  0  0  0  0  0  0  0  0  0
   45.4440   32.6950   47.7980 N   0  0  0  0  0  0  0  0  0  0  0  0
   45.2290   31.8660   49.9310 N   0  0  0  0  0  0  0  0  0  0  0  0
   47.9900   34.0940   39.2100 C   0  0  0  0  0  0  0  0  0  0  0  0
   48.6700   32.7680   38.9910 C   0  0  0  0  0  0  0  0  0  0  0  0
   48.3410   32.3500   37.5800 C   0  0  0  0  0  0  0  0  0  0  0  0
   48.8200   33.2400   36.6220 C   0  0  0  0  0  0  0  0  0  0  0  0
   48.5540   32.9200   35.3100 C   0  0  0  0  0  0  0  0  0  0  0  0
   47.8800   31.8230   34.9710 N   0  0  0  0  0  0  0  0  0  0  0  0
   47.4350   30.9900   35.9190 C   0  0  0  0  0  0  0  0  0  0  0  0
   47.6780   31.2780   37.1980 N   0  0  0  0  0  0  0  0  0  0  0  0
   46.6950   29.7880   35.5550 C   0  0  0  0  0  0  0  0  0  0  0  0
   46.2360   29.6830   34.3830 O   0  0  0  0  0  0  0  0  0  0  0  0
   43.3904   33.0792   41.4015 H   0  0  0  0  0  0  0  0  0  0  0  0
   43.9780   36.6807   45.3200 H   0  0  0  0  0  0  0  0  0  0  0  0
   44.2606   36.1515   42.8857 H   0  0  0  0  0  0  0  0  0  0  0  0
   47.4838   31.9599   45.2941 H   0  0  0  0  0  0  0  0  0  0  0  0
   48.3492   30.3469   46.9087 H   0  0  0  0  0  0  0  0  0  0  0  0
   44.4630   32.5461   50.0388 H   0  0  0  0  0  0  0  0  0  0  0  0
   45.4814   31.2463   50.7140 H   0  0  0  0  0  0  0  0  0  0  0  0
   47.6569   34.4960   38.2418 H   0  0  0  0  0  0  0  0  0  0  0  0
   48.7012   34.7891   39.6802 H   0  0  0  0  0  0  0  0  0  0  0  0
   49.7581   32.8735   39.1128 H   0  0  0  0  0  0  0  0  0  0  0  0
   48.3274   32.0185   39.7196 H   0  0  0  0  0  0  0  0  0  0  0  0
   49.3787   34.1465   36.8979 H   0  0  0  0  0  0  0  0  0  0  0  0
   48.9099   33.5926   34.5156 H   0  0  0  0  0  0  0  0  0  0  0  0
   46.5387   28.9846   36.2899 H   0  0  0  0  0  0  0  0  0  0  0  0
  1  8  1  0
  2  1  2  0
  3  4  1  0
  3  2  1  0
  4  5  2  0
  5  1  1  0
  6 11  2  0
  7  6  1  0
  8  7  2  0
  8  9  1  0
  9 10  2  0
 10 11  1  0
 10 12  1  0
 12 17  1  0
 13 12  2  0
 13 14  1  0
 14 15  2  0
 15 16  1  0
 16 18  1  0
 17 16  2  0
 19  4  1  0
 20 19  1  0
 21 20  1  0
 22 21  2  0
 23 22  1  0
 24 23  2  0
 24 25  1  0
 25 26  2  0
 26 21  1  0
 27 25  1  0
 28 27  2  0
  2 29  1  0
  6 30  1  0
  7 31  1  0
 13 32  1  0
 14 33  1  0
 18 34  1  0
 18 35  1  0
 19 36  1  0
 19 37  1  0
 20 38  1  0
 20 39  1  0
 22 40  1  0
 23 41  1  0
 27 42  1  0
M  ISO  8  29  14  30  14  31  14  32  14  33  14  36   8  37   8  38   8
M  ISO  4  39   8  40  14  41  14  42   6
M  END
>  <minimizedAffinity>  (1) 
-5.93660069

>  <minimizedRMSD>  (1) 
0.0272316001

$$$$
