
     RDKit          3D

 27 29  0  0  0  0  0  0  0  0999 V2000
   46.6600   34.7980   42.0520 C   0  0  0  0  0  0  0  0  0  0  0  0
   47.9520   35.2740   41.9890 C   0  0  0  0  0  0  0  0  0  0  0  0
   48.7410   35.1540   40.8400 C   0  0  0  0  0  0  0  0  0  0  0  0
   48.2010   34.5230   39.7040 C   0  0  0  0  0  0  0  0  0  0  0  0
   46.9010   34.0480   39.7810 C   0  0  0  0  0  0  0  0  0  0  0  0
   46.1640   34.1900   40.9300 C   0  0  0  0  0  0  0  0  0  0  0  0
   44.4480   36.0960   44.8020 C   0  0  0  0  0  0  0  0  0  0  0  0
   45.0970   36.0330   43.5640 C   0  0  0  0  0  0  0  0  0  0  0  0
   45.9360   34.9710   43.2880 C   0  0  0  0  0  0  0  0  0  0  0  0
   46.1070   34.0080   44.2430 N   0  0  0  0  0  0  0  0  0  0  0  0
   45.4630   34.0960   45.4420 C   0  0  0  0  0  0  0  0  0  0  0  0
   44.6420   35.1370   45.7080 N   0  0  0  0  0  0  0  0  0  0  0  0
   44.7980   33.6740   40.9610 C   0  0  0  0  0  0  0  0  0  0  0  0
   44.2960   32.4290   41.3080 C   0  0  0  0  0  0  0  0  0  0  0  0
   42.9210   32.5040   41.1480 C   0  0  0  0  0  0  0  0  0  0  0  0
   42.6630   33.7980   40.7100 C   0  0  0  0  0  0  0  0  0  0  0  0
   43.7900   34.4560   40.6120 O   0  0  0  0  0  0  0  0  0  0  0  0
   48.3786   35.7666   42.8752 H   0  0  0  0  0  0  0  0  0  0  0  0
   49.7683   35.5471   40.8248 H   0  0  0  0  0  0  0  0  0  0  0  0
   48.7923   34.4102   38.7833 H   0  0  0  0  0  0  0  0  0  0  0  0
   46.4535   33.5499   38.9083 H   0  0  0  0  0  0  0  0  0  0  0  0
   43.7769   36.9377   45.0282 H   0  0  0  0  0  0  0  0  0  0  0  0
   44.9401   36.8238   42.8157 H   0  0  0  0  0  0  0  0  0  0  0  0
   45.6129   33.3128   46.1997 H   0  0  0  0  0  0  0  0  0  0  0  0
   44.8740   31.5553   41.6436 H   0  0  0  0  0  0  0  0  0  0  0  0
   42.1866   31.7055   41.3298 H   0  0  0  0  0  0  0  0  0  0  0  0
   41.6670   34.2052   40.4815 H   0  0  0  0  0  0  0  0  0  0  0  0
  1  9  1  0
  2  1  2  0
  3  2  1  0
  4  5  1  0
  4  3  2  0
  5  6  2  0
  6 13  1  0
  6  1  1  0
  7 12  2  0
  8  7  1  0
  9  8  2  0
  9 10  1  0
 10 11  2  0
 11 12  1  0
 13 14  2  0
 15 14  1  0
 16 15  2  0
 17 16  1  0
 17 13  1  0
  2 18  1  0
  3 19  1  0
  4 20  1  0
  5 21  1  0
  7 22  1  0
  8 23  1  0
 11 24  1  0
 14 25  1  0
 15 26  1  0
 16 27  1  0
M  ISO  8  18  14  19  14  20  14  21  14  22  14  23  14  24  14  25  14
M  ISO  2  26  14  27  14
M  END
>  <minimizedAffinity>  (1) 
-5.4641819

>  <minimizedRMSD>  (1) 
0.526387751

$$$$
