
     RDKit          3D

 25 27  0  0  0  0  0  0  0  0999 V2000
   46.6810   34.8010   42.0450 C   0  0  0  0  0  0  0  0  0  0  0  0
   47.9550   35.2760   41.9840 C   0  0  0  0  0  0  0  0  0  0  0  0
   48.7140   35.1370   40.8100 C   0  0  0  0  0  0  0  0  0  0  0  0
   48.1630   34.5070   39.6910 C   0  0  0  0  0  0  0  0  0  0  0  0
   46.8740   34.0350   39.7730 C   0  0  0  0  0  0  0  0  0  0  0  0
   46.1530   34.1820   40.9300 C   0  0  0  0  0  0  0  0  0  0  0  0
   44.4550   36.1280   44.7820 C   0  0  0  0  0  0  0  0  0  0  0  0
   45.1080   36.0590   43.5510 C   0  0  0  0  0  0  0  0  0  0  0  0
   45.9440   34.9800   43.2980 C   0  0  0  0  0  0  0  0  0  0  0  0
   46.0920   34.0410   44.2510 N   0  0  0  0  0  0  0  0  0  0  0  0
   45.4410   34.1350   45.4440 C   0  0  0  0  0  0  0  0  0  0  0  0
   44.6340   35.1670   45.7010 N   0  0  0  0  0  0  0  0  0  0  0  0
   44.7870   33.6730   40.9970 C   0  0  0  0  0  0  0  0  0  0  0  0
   44.3740   32.4720   41.4410 N   0  0  0  0  0  0  0  0  0  0  0  0
   43.0870   32.4090   41.3360 O   0  0  0  0  0  0  0  0  0  0  0  0
   42.5910   33.5180   40.8380 C   0  0  0  0  0  0  0  0  0  0  0  0
   43.6590   34.3080   40.6260 N   0  0  0  0  0  0  0  0  0  0  0  0
   48.3942   35.7730   42.8615 H   0  0  0  0  0  0  0  0  0  0  0  0
   49.7428   35.5244   40.7716 H   0  0  0  0  0  0  0  0  0  0  0  0
   48.7468   34.3913   38.7659 H   0  0  0  0  0  0  0  0  0  0  0  0
   46.4184   33.5363   38.9048 H   0  0  0  0  0  0  0  0  0  0  0  0
   43.7891   36.9758   45.0005 H   0  0  0  0  0  0  0  0  0  0  0  0
   44.9631   36.8449   42.7951 H   0  0  0  0  0  0  0  0  0  0  0  0
   45.5818   33.3521   46.2038 H   0  0  0  0  0  0  0  0  0  0  0  0
   41.5345   33.7501   40.6381 H   0  0  0  0  0  0  0  0  0  0  0  0
  1  9  1  0
  2  1  2  0
  3  2  1  0
  4  5  1  0
  4  3  2  0
  5  6  2  0
  6 13  1  0
  6  1  1  0
  7 12  2  0
  8  7  1  0
  9  8  2  0
  9 10  1  0
 10 11  2  0
 11 12  1  0
 13 14  2  0
 15 14  1  0
 16 15  1  0
 17 16  2  0
 17 13  1  0
  2 18  1  0
  3 19  1  0
  4 20  1  0
  5 21  1  0
  7 22  1  0
  8 23  1  0
 11 24  1  0
 16 25  1  0
M  ISO  8  18  14  19  14  20  14  21  14  22  14  23  14  24  14  25  14
M  END
>  <minimizedAffinity>  (1) 
-5.43222475

>  <minimizedRMSD>  (1) 
0.476182431

$$$$
