
     RDKit          3D

 40 44  0  0  0  0  0  0  0  0999 V2000
   39.9050   82.3120   60.0790 C   0  0  0  0  0  0  0  0  0  0  0  0
   40.3170   83.2870   59.1140 C   0  0  0  0  0  0  0  0  0  0  0  0
   40.0920   84.6370   59.4150 C   0  0  0  0  0  0  0  0  0  0  0  0
   39.4820   84.9330   60.6370 N   0  0  0  0  0  0  0  0  0  0  0  0
   39.1070   83.9500   61.5320 C   0  0  0  0  0  0  0  0  0  0  0  0
   39.3030   82.6170   61.2870 N   0  0  0  0  0  0  0  0  0  0  0  0
   40.1520   80.9660   59.7210 N   0  0  0  0  0  0  0  0  0  0  0  0
   40.3410   80.4740   58.5000 C   0  0  0  0  0  0  0  0  0  0  0  0
   40.6000   79.1660   58.5380 N   0  0  0  0  0  0  0  0  0  0  0  0
   40.5700   78.8020   59.8410 C   0  0  0  0  0  0  0  0  0  0  0  0
   40.7430   77.5550   60.4110 C   0  0  0  0  0  0  0  0  0  0  0  0
   41.0040   76.5740   59.6480 O   0  0  0  0  0  0  0  0  0  0  0  0
   40.6230   77.4620   61.7400 N   0  0  0  0  0  0  0  0  0  0  0  0
   40.3490   78.5460   62.4610 C   0  0  0  0  0  0  0  0  0  0  0  0
   40.2310   78.2770   63.8220 N   0  0  0  0  0  0  0  0  0  0  0  0
   40.1740   79.7890   61.9460 N   0  0  0  0  0  0  0  0  0  0  0  0
   40.2830   79.9500   60.5910 C   0  0  0  0  0  0  0  0  0  0  0  0
   40.2290   81.0380   57.1360 C   0  0  0  0  0  0  0  0  0  0  0  0
   39.1810   80.3210   56.3490 N   0  0  0  0  0  0  0  0  0  0  0  0
   38.0700   79.8330   56.9740 C   0  0  0  0  0  0  0  0  0  0  0  0
   37.2950   79.2370   56.0290 N   0  0  0  0  0  0  0  0  0  0  0  0
   37.9110   79.3500   54.8370 C   0  0  0  0  0  0  0  0  0  0  0  0
   37.6870   78.9830   53.5170 C   0  0  0  0  0  0  0  0  0  0  0  0
   38.5580   79.2730   52.5300 N   0  0  0  0  0  0  0  0  0  0  0  0
   39.6980   79.9410   52.7900 C   0  0  0  0  0  0  0  0  0  0  0  0
   39.9570   80.3200   54.0680 N   0  0  0  0  0  0  0  0  0  0  0  0
   39.0880   80.0270   55.0350 C   0  0  0  0  0  0  0  0  0  0  0  0
   36.4640   78.2680   53.2480 N   0  0  0  0  0  0  0  0  0  0  0  0
   40.7936   82.9864   58.1693 H   0  0  0  0  0  0  0  0  0  0  0  0
   40.3846   85.4340   58.7155 H   0  0  0  0  0  0  0  0  0  0  0  0
   38.6326   84.2495   62.4782 H   0  0  0  0  0  0  0  0  0  0  0  0
   40.7428   76.5509   62.2053 H   0  0  0  0  0  0  0  0  0  0  0  0
   40.0199   79.0397   64.4813 H   0  0  0  0  0  0  0  0  0  0  0  0
   40.3548   77.3153   64.1695 H   0  0  0  0  0  0  0  0  0  0  0  0
   39.9612   82.1026   57.2070 H   0  0  0  0  0  0  0  0  0  0  0  0
   41.1960   80.9192   56.6252 H   0  0  0  0  0  0  0  0  0  0  0  0
   37.8428   79.9082   58.0476 H   0  0  0  0  0  0  0  0  0  0  0  0
   40.4065   80.1754   51.9819 H   0  0  0  0  0  0  0  0  0  0  0  0
   36.2427   77.9692   52.2874 H   0  0  0  0  0  0  0  0  0  0  0  0
   35.8117   78.0560   54.0164 H   0  0  0  0  0  0  0  0  0  0  0  0
  1  6  2  0
  2  3  2  0
  2  1  1  0
  3  4  1  0
  4  5  2  0
  6  5  1  0
  7  1  1  0
  7 17  1  0
  8  9  2  0
  8  7  1  0
  9 10  1  0
 10 11  1  0
 10 17  2  0
 11 13  1  0
 12 11  2  0
 13 14  1  0
 14 15  1  0
 16 14  2  0
 17 16  1  0
 18  8  1  0
 19 20  1  0
 19 18  1  0
 21 20  2  0
 22 27  2  0
 22 21  1  0
 23 22  1  0
 24 25  1  0
 24 23  2  0
 25 26  2  0
 26 27  1  0
 27 19  1  0
 28 23  1  0
  2 29  1  0
  3 30  1  0
  5 31  1  0
 13 32  1  0
 15 33  1  0
 15 34  1  0
 18 35  1  0
 18 36  1  0
 20 37  1  0
 25 38  1  0
 28 39  1  0
 28 40  1  0
M  END
>  <Score>  (1) 
-7.57573

$$$$
