
     RDKit          3D

 45 48  0  0  0  0  0  0  0  0999 V2000
   41.1360   81.5440   60.3740 C   0  0  0  0  0  0  0  0  0  0  0  0
   42.2010   81.2890   61.2810 C   0  0  0  0  0  0  0  0  0  0  0  0
   42.5210   79.9820   61.6390 C   0  0  0  0  0  0  0  0  0  0  0  0
   41.7870   78.9840   61.0960 N   0  0  0  0  0  0  0  0  0  0  0  0
   40.7880   79.2310   60.2450 C   0  0  0  0  0  0  0  0  0  0  0  0
   40.5020   80.4900   59.9160 N   0  0  0  0  0  0  0  0  0  0  0  0
   40.0040   78.1850   59.6620 N   0  0  0  0  0  0  0  0  0  0  0  0
   39.6200   78.3670   58.3550 C   0  0  0  0  0  0  0  0  0  0  0  0
   38.8820   77.2140   58.0550 C   0  0  0  0  0  0  0  0  0  0  0  0
   38.8350   76.4070   59.1170 N   0  0  0  0  0  0  0  0  0  0  0  0
   39.5210   77.0050   60.0950 C   0  0  0  0  0  0  0  0  0  0  0  0
   39.7780   76.5790   61.4180 N   0  0  0  0  0  0  0  0  0  0  0  0
   40.7630   82.8890   59.9670 C   0  0  0  0  0  0  0  0  0  0  0  0
   41.2910   83.3290   58.7670 C   0  0  0  0  0  0  0  0  0  0  0  0
   40.9970   84.5980   58.2890 C   0  0  0  0  0  0  0  0  0  0  0  0
   40.1850   85.3760   59.0300 C   0  0  0  0  0  0  0  0  0  0  0  0
   39.6430   84.9790   60.2190 C   0  0  0  0  0  0  0  0  0  0  0  0
   39.9420   83.6980   60.7000 C   0  0  0  0  0  0  0  0  0  0  0  0
   39.3430   83.3200   61.9680 C   0  0  0  0  0  0  0  0  0  0  0  0
   38.1610   83.2160   62.2980 O   0  0  0  0  0  0  0  0  0  0  0  0
   40.0400   82.9910   63.0960 O   0  0  0  0  0  0  0  0  0  0  0  0
   40.8310   83.7090   63.9250 C   0  0  0  0  0  0  0  0  0  0  0  0
   42.1100   84.2540   63.5010 N   0  0  0  0  0  0  0  0  0  0  0  0
   40.3500   83.8510   65.0790 O   0  0  0  0  0  0  0  0  0  0  0  0
   38.2690   76.9710   56.7520 C   0  0  0  0  0  0  0  0  0  0  0  0
   38.3720   75.7260   56.1690 C   0  0  0  0  0  0  0  0  0  0  0  0
   37.7800   75.5220   54.9320 C   0  0  0  0  0  0  0  0  0  0  0  0
   37.1000   76.5420   54.2910 C   0  0  0  0  0  0  0  0  0  0  0  0
   37.0190   77.7770   54.9100 C   0  0  0  0  0  0  0  0  0  0  0  0
   37.6030   77.9450   56.1110 N   0  0  0  0  0  0  0  0  0  0  0  0
   42.7746   82.1280   61.7017 H   0  0  0  0  0  0  0  0  0  0  0  0
   43.3422   79.7685   62.3391 H   0  0  0  0  0  0  0  0  0  0  0  0
   39.8408   79.2202   57.6967 H   0  0  0  0  0  0  0  0  0  0  0  0
   39.4086   75.6764   61.7493 H   0  0  0  0  0  0  0  0  0  0  0  0
   40.3347   77.1712   62.0507 H   0  0  0  0  0  0  0  0  0  0  0  0
   41.9500   82.6670   58.1862 H   0  0  0  0  0  0  0  0  0  0  0  0
   41.4135   84.9568   57.3362 H   0  0  0  0  0  0  0  0  0  0  0  0
   39.9460   86.3833   58.6583 H   0  0  0  0  0  0  0  0  0  0  0  0
   38.9846   85.6521   60.7877 H   0  0  0  0  0  0  0  0  0  0  0  0
   42.6837   84.7959   64.1628 H   0  0  0  0  0  0  0  0  0  0  0  0
   42.4426   84.0983   62.5387 H   0  0  0  0  0  0  0  0  0  0  0  0
   38.9123   74.9119   56.6744 H   0  0  0  0  0  0  0  0  0  0  0  0
   37.8521   74.5343   54.4531 H   0  0  0  0  0  0  0  0  0  0  0  0
   36.6331   76.3748   53.3091 H   0  0  0  0  0  0  0  0  0  0  0  0
   36.4852   78.6091   54.4277 H   0  0  0  0  0  0  0  0  0  0  0  0
  1  2  2  0
  2  3  1  0
  4  3  2  0
  5  4  1  0
  6  5  2  0
  6  1  1  0
  7 11  1  0
  7  5  1  0
  8  7  1  0
  9  8  2  0
  9 10  1  0
 10 11  2  0
 11 12  1  0
 13  1  1  0
 13 18  1  0
 14 13  2  0
 15 14  1  0
 15 16  2  0
 16 17  1  0
 17 18  2  0
 18 19  1  0
 19 20  2  0
 19 21  1  0
 21 22  1  0
 22 24  2  0
 23 22  1  0
 25  9  1  0
 26 25  2  0
 27 26  1  0
 28 29  1  0
 28 27  2  0
 29 30  2  0
 30 25  1  0
  2 31  1  0
  3 32  1  0
  8 33  1  0
 12 34  1  0
 12 35  1  0
 14 36  1  0
 15 37  1  0
 16 38  1  0
 17 39  1  0
 23 40  1  0
 23 41  1  0
 26 42  1  0
 27 43  1  0
 28 44  1  0
 29 45  1  0
M  END
>  <Score>  (1) 
-7.76358

$$$$
