
     RDKit          3D

 44 48  0  0  0  0  0  0  0  0999 V2000
   40.7870   82.2120   59.1580 C   0  0  0  0  0  0  0  0  0  0  0  0
   39.8650   81.2670   58.7540 C   0  0  0  0  0  0  0  0  0  0  0  0
   40.0930   81.0020   57.4160 C   0  0  0  0  0  0  0  0  0  0  0  0
   41.1390   81.8000   57.0820 C   0  0  0  0  0  0  0  0  0  0  0  0
   41.5590   82.5230   58.1090 O   0  0  0  0  0  0  0  0  0  0  0  0
   39.3690   80.0860   56.6010 C   0  0  0  0  0  0  0  0  0  0  0  0
   39.6280   78.7830   56.2640 C   0  0  0  0  0  0  0  0  0  0  0  0
   38.7870   78.0580   55.4480 C   0  0  0  0  0  0  0  0  0  0  0  0
   37.6380   78.6010   54.9250 C   0  0  0  0  0  0  0  0  0  0  0  0
   37.3490   79.9200   55.2480 C   0  0  0  0  0  0  0  0  0  0  0  0
   38.2000   80.6510   56.0730 C   0  0  0  0  0  0  0  0  0  0  0  0
   40.4900   81.9360   61.6280 C   0  0  0  0  0  0  0  0  0  0  0  0
   40.8270   82.7140   60.5050 C   0  0  0  0  0  0  0  0  0  0  0  0
   41.2170   84.0300   60.7140 C   0  0  0  0  0  0  0  0  0  0  0  0
   41.2600   84.5200   61.9770 N   0  0  0  0  0  0  0  0  0  0  0  0
   40.9230   83.7220   63.0350 C   0  0  0  0  0  0  0  0  0  0  0  0
   40.5470   82.4650   62.8680 N   0  0  0  0  0  0  0  0  0  0  0  0
   41.5760   84.8870   59.6300 N   0  0  0  0  0  0  0  0  0  0  0  0
   40.9090   85.4690   58.6030 C   0  0  0  0  0  0  0  0  0  0  0  0
   41.7790   86.1920   57.8700 N   0  0  0  0  0  0  0  0  0  0  0  0
   43.0030   86.0670   58.4340 C   0  0  0  0  0  0  0  0  0  0  0  0
   44.1700   86.6530   57.9870 C   0  0  0  0  0  0  0  0  0  0  0  0
   45.2780   86.3750   58.7290 N   0  0  0  0  0  0  0  0  0  0  0  0
   45.1940   85.5770   59.8180 C   0  0  0  0  0  0  0  0  0  0  0  0
   44.0410   85.0190   60.2300 N   0  0  0  0  0  0  0  0  0  0  0  0
   42.8880   85.2520   59.5390 C   0  0  0  0  0  0  0  0  0  0  0  0
   40.9790   84.2830   64.3950 C   0  0  0  0  0  0  0  0  0  0  0  0
   40.1710   83.5180   65.2420 F   0  0  0  0  0  0  0  0  0  0  0  0
   40.5970   85.5730   64.4690 F   0  0  0  0  0  0  0  0  0  0  0  0
   42.2720   84.1170   64.8670 F   0  0  0  0  0  0  0  0  0  0  0  0
   41.8540   81.9800   55.8020 C   0  0  0  0  0  0  0  0  0  0  0  0
   43.1120   81.4140   55.8980 F   0  0  0  0  0  0  0  0  0  0  0  0
   42.0330   83.3510   55.5120 F   0  0  0  0  0  0  0  0  0  0  0  0
   41.0940   81.4650   54.7740 F   0  0  0  0  0  0  0  0  0  0  0  0
   39.0886   80.8075   59.3833 H   0  0  0  0  0  0  0  0  0  0  0  0
   40.5353   78.3011   56.6571 H   0  0  0  0  0  0  0  0  0  0  0  0
   39.0425   77.0152   55.2085 H   0  0  0  0  0  0  0  0  0  0  0  0
   36.9728   78.0132   54.2754 H   0  0  0  0  0  0  0  0  0  0  0  0
   36.4393   80.3920   54.8485 H   0  0  0  0  0  0  0  0  0  0  0  0
   37.9494   81.6943   56.3155 H   0  0  0  0  0  0  0  0  0  0  0  0
   40.1780   80.8897   61.4941 H   0  0  0  0  0  0  0  0  0  0  0  0
   39.8325   85.3676   58.4008 H   0  0  0  0  0  0  0  0  0  0  0  0
   44.2029   87.2977   57.0963 H   0  0  0  0  0  0  0  0  0  0  0  0
   46.1098   85.3751   60.3928 H   0  0  0  0  0  0  0  0  0  0  0  0
  1 13  1  0
  2  1  2  0
  3  2  1  0
  4  3  2  0
  4  5  1  0
  5  1  1  0
  6  3  1  0
  7  6  2  0
  8  7  1  0
  9 10  1  0
  9  8  2  0
 10 11  2  0
 11  6  1  0
 12 17  2  0
 13 14  2  0
 13 12  1  0
 14 15  1  0
 15 16  2  0
 16 27  1  0
 17 16  1  0
 18 14  1  0
 19 18  1  0
 20 21  1  0
 20 19  2  0
 21 26  2  0
 22 21  1  0
 22 23  2  0
 23 24  1  0
 24 25  2  0
 26 18  1  0
 26 25  1  0
 27 29  1  0
 27 30  1  0
 27 28  1  0
 31 32  1  0
 31  4  1  0
 33 31  1  0
 34 31  1  0
  2 35  1  0
  7 36  1  0
  8 37  1  0
  9 38  1  0
 10 39  1  0
 11 40  1  0
 12 41  1  0
 19 42  1  0
 22 43  1  0
 24 44  1  0
M  END
>  <Score>  (1) 
-7.48295

$$$$
