
     RDKit          3D

 49 52  0  0  1  0  0  0  0  0999 V2000
   39.6600   83.6070   60.1050 C   0  0  0  0  0  0  0  0  0  0  0  0
   40.0770   82.2640   60.1230 C   0  0  0  0  0  0  0  0  0  0  0  0
   40.7960   81.8380   61.2460 C   0  0  0  0  0  0  0  0  0  0  0  0
   41.0110   82.7650   62.2110 N   0  0  0  0  0  0  0  0  0  0  0  0
   40.6090   84.0190   62.1820 C   0  0  0  0  0  0  0  0  0  0  0  0
   39.9270   84.4310   61.1070 N   0  0  0  0  0  0  0  0  0  0  0  0
   40.9060   84.8620   63.2960 N   0  0  0  0  0  0  0  0  0  0  0  0
   40.3940   84.4750   64.5810 C   0  0  0  0  0  0  0  0  0  0  0  0
   40.3430   83.2590   64.9660 N   0  0  0  0  0  0  0  0  0  0  0  0
   39.9230   85.5080   65.4670 N   0  0  0  0  0  0  0  0  0  0  0  0
   40.6660   82.4380   64.4720 H   0  0  0  0  0  0  0  0  0  0  0  0
   41.2960   80.5170   61.3920 N   0  0  0  0  0  0  0  0  0  0  0  0
   40.6680   79.4100   62.0720 C   0  0  0  0  0  0  0  0  0  0  0  0
   41.6360   78.2700   61.9010 C   0  0  0  0  0  0  0  0  0  0  0  0
   42.9540   78.9940   61.8720 C   0  0  0  0  0  0  0  0  0  0  0  0
   42.5480   80.0780   60.8570 C   0  0  2  0  0  0  0  0  0  0  0  0
   43.6270   81.1030   60.8790 C   0  0  1  0  0  0  0  0  0  0  0  0
   43.3320   82.1150   59.8130 C   0  0  0  0  0  0  0  0  0  0  0  0
   43.9070   83.4400   60.2150 C   0  0  0  0  0  0  0  0  0  0  0  0
   44.0480   83.3470   61.7070 C   0  0  0  0  0  0  0  0  0  0  0  0
   43.6950   81.9420   62.0960 C   0  0  2  0  0  0  0  0  0  0  0  0
   45.0250   81.4870   62.7210 C   0  0  0  0  0  0  0  0  0  0  0  0
   45.9930   82.1380   63.4550 C   0  0  0  0  0  0  0  0  0  0  0  0
   46.9940   81.2410   63.7690 C   0  0  0  0  0  0  0  0  0  0  0  0
   46.5740   80.0610   63.1970 C   0  0  0  0  0  0  0  0  0  0  0  0
   45.4310   80.2560   62.6040 O   0  0  0  0  0  0  0  0  0  0  0  0
   39.0981   83.9825   59.2371 H   0  0  0  0  0  0  0  0  0  0  0  0
   39.8486   81.5796   59.2926 H   0  0  0  0  0  0  0  0  0  0  0  0
   41.4678   85.7177   63.1819 H   0  0  0  0  0  0  0  0  0  0  0  0
   39.5504   85.2603   66.3948 H   0  0  0  0  0  0  0  0  0  0  0  0
   39.9587   86.4945   65.1729 H   0  0  0  0  0  0  0  0  0  0  0  0
   40.5214   79.6400   63.1376 H   0  0  0  0  0  0  0  0  0  0  0  0
   39.6716   79.1792   61.6672 H   0  0  0  0  0  0  0  0  0  0  0  0
   41.5823   77.5677   62.7459 H   0  0  0  0  0  0  0  0  0  0  0  0
   41.4458   77.6511   61.0118 H   0  0  0  0  0  0  0  0  0  0  0  0
   43.2251   79.4146   62.8516 H   0  0  0  0  0  0  0  0  0  0  0  0
   43.8412   78.3932   61.6233 H   0  0  0  0  0  0  0  0  0  0  0  0
   42.4339   79.7849   59.8029 H   0  0  0  0  0  0  0  0  0  0  0  0
   44.5529   80.5179   60.7769 H   0  0  0  0  0  0  0  0  0  0  0  0
   42.2433   82.2097   59.6875 H   0  0  0  0  0  0  0  0  0  0  0  0
   43.7817   81.7911   58.8628 H   0  0  0  0  0  0  0  0  0  0  0  0
   44.8864   83.5997   59.7404 H   0  0  0  0  0  0  0  0  0  0  0  0
   43.2735   84.2841   59.9049 H   0  0  0  0  0  0  0  0  0  0  0  0
   45.0833   83.5718   62.0030 H   0  0  0  0  0  0  0  0  0  0  0  0
   43.3880   84.0700   62.2087 H   0  0  0  0  0  0  0  0  0  0  0  0
   42.7705   81.8772   62.6885 H   0  0  0  0  0  0  0  0  0  0  0  0
   45.9714   83.1993   63.7435 H   0  0  0  0  0  0  0  0  0  0  0  0
   47.9139   81.4259   64.3431 H   0  0  0  0  0  0  0  0  0  0  0  0
   47.1175   79.1054   63.2349 H   0  0  0  0  0  0  0  0  0  0  0  0
  1  2  2  0
  1  6  1  0
  2  3  1  0
  3 12  1  0
  3  4  2  0
  5  4  1  0
  5  7  1  0
  6  5  2  0
  7  8  1  0
  8  9  2  0
  8 10  1  0
 11  9  1  0
 12 13  1  0
 14 13  1  0
 15 14  1  0
 16 17  1  0
 16 12  1  0
 16 15  1  0
 17 21  1  0
 18 19  1  0
 18 17  1  0
 19 20  1  0
 20 21  1  0
 21 22  1  0
 22 23  2  0
 23 24  1  0
 25 24  2  0
 26 22  1  0
 26 25  1  0
  1 27  1  0
  2 28  1  0
  7 29  1  0
 10 30  1  0
 10 31  1  0
 13 32  1  0
 13 33  1  0
 14 34  1  0
 14 35  1  0
 15 36  1  0
 15 37  1  0
 16 38  1  6
 17 39  1  6
 18 40  1  0
 18 41  1  0
 19 42  1  0
 19 43  1  0
 20 44  1  0
 20 45  1  0
 21 46  1  1
 23 47  1  0
 24 48  1  0
 25 49  1  0
M  END
>  <Score>  (1) 
-7.13634

$$$$
