
     RDKit          3D

 37 41  0  0  0  0  0  0  0  0999 V2000
   40.8350   81.9880   61.1390 C   0  0  0  0  0  0  0  0  0  0  0  0
   40.6560   82.6730   59.9540 C   0  0  0  0  0  0  0  0  0  0  0  0
   40.3390   82.0640   58.7670 C   0  0  0  0  0  0  0  0  0  0  0  0
   40.1870   80.6940   58.7310 C   0  0  0  0  0  0  0  0  0  0  0  0
   40.3490   79.9460   59.8680 C   0  0  0  0  0  0  0  0  0  0  0  0
   40.2000   78.5930   59.8440 C   0  0  0  0  0  0  0  0  0  0  0  0
   40.3580   77.8060   60.9840 C   0  0  0  0  0  0  0  0  0  0  0  0
   40.6760   78.4840   62.1380 C   0  0  0  0  0  0  0  0  0  0  0  0
   40.8180   79.8490   62.1260 C   0  0  0  0  0  0  0  0  0  0  0  0
   40.6660   80.6210   61.0230 C   0  0  0  0  0  0  0  0  0  0  0  0
   39.8570   77.8520   58.6040 C   0  0  0  0  0  0  0  0  0  0  0  0
   40.2300   76.7280   58.0120 N   0  0  0  0  0  0  0  0  0  0  0  0
   39.6270   76.4940   56.9040 O   0  0  0  0  0  0  0  0  0  0  0  0
   38.8070   77.4580   56.6850 C   0  0  0  0  0  0  0  0  0  0  0  0
   38.9360   78.2910   57.7110 N   0  0  0  0  0  0  0  0  0  0  0  0
   37.9610   77.5400   55.5430 N   0  0  0  0  0  0  0  0  0  0  0  0
   37.3000   76.6020   54.8350 C   0  0  0  0  0  0  0  0  0  0  0  0
   36.6180   77.1760   53.8210 N   0  0  0  0  0  0  0  0  0  0  0  0
   36.8710   78.5020   53.9160 C   0  0  0  0  0  0  0  0  0  0  0  0
   37.6960   78.7180   54.9750 N   0  0  0  0  0  0  0  0  0  0  0  0
   42.5330   83.9120   63.9630 C   0  0  0  0  0  0  0  0  0  0  0  0
   42.4040   83.1830   62.7880 C   0  0  0  0  0  0  0  0  0  0  0  0
   41.1640   82.7400   62.3160 C   0  0  0  0  0  0  0  0  0  0  0  0
   40.1140   83.0970   63.1240 N   0  0  0  0  0  0  0  0  0  0  0  0
   40.2440   83.7990   64.2560 C   0  0  0  0  0  0  0  0  0  0  0  0
   41.4550   84.1980   64.6600 N   0  0  0  0  0  0  0  0  0  0  0  0
   40.7740   83.7666   59.9624 H   0  0  0  0  0  0  0  0  0  0  0  0
   40.2074   82.6620   57.8532 H   0  0  0  0  0  0  0  0  0  0  0  0
   39.9338   80.1976   57.7826 H   0  0  0  0  0  0  0  0  0  0  0  0
   40.2362   76.7130   60.9621 H   0  0  0  0  0  0  0  0  0  0  0  0
   40.8174   77.9283   63.0767 H   0  0  0  0  0  0  0  0  0  0  0  0
   41.0715   80.3484   63.0728 H   0  0  0  0  0  0  0  0  0  0  0  0
   37.3143   75.5238   55.0524 H   0  0  0  0  0  0  0  0  0  0  0  0
   36.4739   79.2786   53.2457 H   0  0  0  0  0  0  0  0  0  0  0  0
   43.5234   84.2457   64.3061 H   0  0  0  0  0  0  0  0  0  0  0  0
   43.3083   82.9457   62.2084 H   0  0  0  0  0  0  0  0  0  0  0  0
   39.3550   84.0478   64.8541 H   0  0  0  0  0  0  0  0  0  0  0  0
  1 23  1  0
  2  1  2  0
  3  2  1  0
  4  3  2  0
  4  5  1  0
  5 10  2  0
  6  5  1  0
  6  7  2  0
  7  8  1  0
  9  8  2  0
 10  1  1  0
 10  9  1  0
 11  6  1  0
 12 11  2  0
 13 12  1  0
 14 13  1  0
 14 15  2  0
 15 11  1  0
 16 14  1  0
 17 16  1  0
 18 19  1  0
 18 17  2  0
 19 20  2  0
 20 16  1  0
 21 26  2  0
 22 21  1  0
 23 22  2  0
 23 24  1  0
 24 25  2  0
 25 26  1  0
  2 27  1  0
  3 28  1  0
  4 29  1  0
  7 30  1  0
  8 31  1  0
  9 32  1  0
 17 33  1  0
 19 34  1  0
 21 35  1  0
 22 36  1  0
 25 37  1  0
M  END
>  <Score>  (1) 
-7.32709

$$$$
