
     RDKit          3D

 43 47  0  0  0  0  0  0  0  0999 V2000
   41.7610   86.0540   57.6200 C   0  0  0  0  0  0  0  0  0  0  0  0
   41.5320   84.9090   56.7940 C   0  0  0  0  0  0  0  0  0  0  0  0
   41.6870   83.6610   57.3740 C   0  0  0  0  0  0  0  0  0  0  0  0
   42.0390   83.6130   58.6570 N   0  0  0  0  0  0  0  0  0  0  0  0
   42.2570   84.6690   59.4430 C   0  0  0  0  0  0  0  0  0  0  0  0
   42.1160   85.9000   58.9140 N   0  0  0  0  0  0  0  0  0  0  0  0
   41.4650   82.4370   56.5730 C   0  0  0  0  0  0  0  0  0  0  0  0
   42.3800   82.0860   55.5600 C   0  0  0  0  0  0  0  0  0  0  0  0
   41.6790   80.5250   54.8750 S   0  0  0  0  0  0  0  0  0  0  0  0
   40.2490   80.6340   56.1080 C   0  0  0  0  0  0  0  0  0  0  0  0
   40.4870   81.5700   56.6650 N   0  0  0  0  0  0  0  0  0  0  0  0
   39.0840   79.7250   56.3170 N   0  0  0  0  0  0  0  0  0  0  0  0
   39.3430   78.7890   57.2540 C   0  0  0  0  0  0  0  0  0  0  0  0
   38.3690   77.8570   57.5760 C   0  0  0  0  0  0  0  0  0  0  0  0
   38.6380   76.8300   58.5990 C   0  0  0  0  0  0  0  0  0  0  0  0
   37.1670   77.9530   56.8940 C   0  0  0  0  0  0  0  0  0  0  0  0
   36.2510   77.1250   57.1550 O   0  0  0  0  0  0  0  0  0  0  0  0
   36.9850   78.9160   55.9710 N   0  0  0  0  0  0  0  0  0  0  0  0
   37.9240   79.8250   55.6520 C   0  0  0  0  0  0  0  0  0  0  0  0
   37.8260   80.7360   54.8150 O   0  0  0  0  0  0  0  0  0  0  0  0
   42.6400   84.5680   60.8380 C   0  0  0  0  0  0  0  0  0  0  0  0
   43.8790   84.7550   61.4130 C   0  0  0  0  0  0  0  0  0  0  0  0
   43.8370   84.5730   62.7440 N   0  0  0  0  0  0  0  0  0  0  0  0
   42.5700   84.2670   63.0300 C   0  0  0  0  0  0  0  0  0  0  0  0
   41.9210   83.9710   64.2470 C   0  0  0  0  0  0  0  0  0  0  0  0
   40.5710   83.6880   64.2300 C   0  0  0  0  0  0  0  0  0  0  0  0
   39.8110   83.6760   63.0810 C   0  0  0  0  0  0  0  0  0  0  0  0
   40.4460   83.9670   61.8890 C   0  0  0  0  0  0  0  0  0  0  0  0
   41.7920   84.2510   61.8910 C   0  0  0  0  0  0  0  0  0  0  0  0
   41.6475   87.0642   57.1996 H   0  0  0  0  0  0  0  0  0  0  0  0
   41.2436   85.0157   55.7378 H   0  0  0  0  0  0  0  0  0  0  0  0
   43.2932   82.6163   55.2521 H   0  0  0  0  0  0  0  0  0  0  0  0
   40.3202   78.7659   57.7586 H   0  0  0  0  0  0  0  0  0  0  0  0
   38.5226   77.2707   59.6002 H   0  0  0  0  0  0  0  0  0  0  0  0
   37.9272   75.9989   58.4800 H   0  0  0  0  0  0  0  0  0  0  0  0
   39.6649   76.4541   58.4800 H   0  0  0  0  0  0  0  0  0  0  0  0
   36.0788   78.9591   55.4832 H   0  0  0  0  0  0  0  0  0  0  0  0
   44.7878   85.0199   60.8528 H   0  0  0  0  0  0  0  0  0  0  0  0
   44.6213   84.6532   63.4068 H   0  0  0  0  0  0  0  0  0  0  0  0
   42.4818   83.9659   65.1933 H   0  0  0  0  0  0  0  0  0  0  0  0
   40.0748   83.4597   65.1848 H   0  0  0  0  0  0  0  0  0  0  0  0
   38.7364   83.4429   63.1116 H   0  0  0  0  0  0  0  0  0  0  0  0
   39.8798   83.9716   60.9459 H   0  0  0  0  0  0  0  0  0  0  0  0
  1  6  2  0
  2  3  2  0
  2  1  1  0
  3  4  1  0
  4  5  2  0
  5 21  1  0
  6  5  1  0
  7 11  1  0
  7  3  1  0
  8  7  2  0
  9  8  1  0
  9 10  1  0
 10 12  1  0
 10 11  2  0
 12 13  1  0
 13 14  2  0
 14 15  1  0
 16 17  2  0
 16 14  1  0
 18 16  1  0
 19 18  1  0
 19 12  1  0
 20 19  2  0
 21 22  2  0
 21 29  1  0
 22 23  1  0
 23 24  1  0
 24 25  2  0
 26 25  1  0
 27 26  2  0
 28 29  2  0
 28 27  1  0
 29 24  1  0
  1 30  1  0
  2 31  1  0
  8 32  1  0
 13 33  1  0
 15 34  1  0
 15 35  1  0
 15 36  1  0
 18 37  1  0
 22 38  1  0
 23 39  1  0
 25 40  1  0
 26 41  1  0
 27 42  1  0
 28 43  1  0
M  END
>  <Score>  (1) 
-7.74942

$$$$
