
     RDKit          3D

 41 45  0  0  0  0  0  0  0  0999 V2000
   41.6420   86.0010   57.5720 C   0  0  0  0  0  0  0  0  0  0  0  0
   41.5450   84.8550   56.7280 C   0  0  0  0  0  0  0  0  0  0  0  0
   41.8250   83.6140   57.2950 C   0  0  0  0  0  0  0  0  0  0  0  0
   42.1640   83.6000   58.5840 N   0  0  0  0  0  0  0  0  0  0  0  0
   42.2610   84.6510   59.3830 C   0  0  0  0  0  0  0  0  0  0  0  0
   41.9960   85.8640   58.8690 N   0  0  0  0  0  0  0  0  0  0  0  0
   41.7460   82.3830   56.4850 C   0  0  0  0  0  0  0  0  0  0  0  0
   42.9410   81.7770   56.0310 C   0  0  0  0  0  0  0  0  0  0  0  0
   42.3170   80.3040   55.0880 S   0  0  0  0  0  0  0  0  0  0  0  0
   40.5330   80.8020   55.5000 C   0  0  0  0  0  0  0  0  0  0  0  0
   40.6750   81.7290   56.1050 N   0  0  0  0  0  0  0  0  0  0  0  0
   39.3940   80.0390   55.0510 N   0  0  0  0  0  0  0  0  0  0  0  0
   38.5170   79.5970   55.9700 C   0  0  0  0  0  0  0  0  0  0  0  0
   37.4370   78.8690   55.5130 C   0  0  0  0  0  0  0  0  0  0  0  0
   37.3560   78.6630   54.1510 C   0  0  0  0  0  0  0  0  0  0  0  0
   36.3110   77.9370   53.5140 N   0  0  0  0  0  0  0  0  0  0  0  0
   38.2770   79.1380   53.2640 N   0  0  0  0  0  0  0  0  0  0  0  0
   39.3370   79.8540   53.7430 C   0  0  0  0  0  0  0  0  0  0  0  0
   40.1980   80.3010   52.9410 O   0  0  0  0  0  0  0  0  0  0  0  0
   42.6340   84.5790   60.7820 C   0  0  0  0  0  0  0  0  0  0  0  0
   43.8670   84.8110   61.3650 C   0  0  0  0  0  0  0  0  0  0  0  0
   43.8290   84.6480   62.6860 N   0  0  0  0  0  0  0  0  0  0  0  0
   42.5660   84.3070   62.9720 C   0  0  0  0  0  0  0  0  0  0  0  0
   41.9300   84.0090   64.1910 C   0  0  0  0  0  0  0  0  0  0  0  0
   40.5890   83.6850   64.1730 C   0  0  0  0  0  0  0  0  0  0  0  0
   39.8390   83.6370   63.0220 C   0  0  0  0  0  0  0  0  0  0  0  0
   40.4740   83.9300   61.8340 C   0  0  0  0  0  0  0  0  0  0  0  0
   41.8000   84.2530   61.8300 C   0  0  0  0  0  0  0  0  0  0  0  0
   41.4278   87.0004   57.1654 H   0  0  0  0  0  0  0  0  0  0  0  0
   41.2599   84.9479   55.6697 H   0  0  0  0  0  0  0  0  0  0  0  0
   43.9801   82.0981   56.1955 H   0  0  0  0  0  0  0  0  0  0  0  0
   38.6547   79.8069   57.0410 H   0  0  0  0  0  0  0  0  0  0  0  0
   36.6769   78.4719   56.2019 H   0  0  0  0  0  0  0  0  0  0  0  0
   36.3136   77.8219   52.4905 H   0  0  0  0  0  0  0  0  0  0  0  0
   35.5520   77.5266   54.0765 H   0  0  0  0  0  0  0  0  0  0  0  0
   44.7698   85.0958   60.8048 H   0  0  0  0  0  0  0  0  0  0  0  0
   44.6086   84.7607   63.3496 H   0  0  0  0  0  0  0  0  0  0  0  0
   42.4896   84.0338   65.1377 H   0  0  0  0  0  0  0  0  0  0  0  0
   40.0950   83.4533   65.1281 H   0  0  0  0  0  0  0  0  0  0  0  0
   38.7711   83.3744   63.0480 H   0  0  0  0  0  0  0  0  0  0  0  0
   39.9117   83.9035   60.8889 H   0  0  0  0  0  0  0  0  0  0  0  0
  1  6  2  0
  2  3  2  0
  2  1  1  0
  3  4  1  0
  4  5  2  0
  5 20  1  0
  6  5  1  0
  7  3  1  0
  8  7  2  0
  9 10  1  0
  9  8  1  0
 10 11  2  0
 11  7  1  0
 12 10  1  0
 12 13  1  0
 14 13  2  0
 15 14  1  0
 16 15  1  0
 17 18  1  0
 17 15  2  0
 18 12  1  0
 19 18  2  0
 20 21  2  0
 20 28  1  0
 21 22  1  0
 22 23  1  0
 23 24  2  0
 25 24  1  0
 26 25  2  0
 27 26  1  0
 28 27  2  0
 28 23  1  0
  1 29  1  0
  2 30  1  0
  8 31  1  0
 13 32  1  0
 14 33  1  0
 16 34  1  0
 16 35  1  0
 21 36  1  0
 22 37  1  0
 24 38  1  0
 25 39  1  0
 26 40  1  0
 27 41  1  0
M  END
>  <Score>  (1) 
-7.04883

$$$$
