
     RDKit          3D

 39 42  0  0  1  0  0  0  0  0999 V2000
   40.6450   80.2100   60.1940 C   0  0  0  0  0  0  0  0  0  0  0  0
   40.2230   79.0610   59.5490 C   0  0  0  0  0  0  0  0  0  0  0  0
   40.1110   77.8300   60.1810 C   0  0  0  0  0  0  0  0  0  0  0  0
   40.4310   77.7140   61.5260 C   0  0  0  0  0  0  0  0  0  0  0  0
   40.8510   78.8490   62.1740 C   0  0  0  0  0  0  0  0  0  0  0  0
   40.9520   80.0620   61.5180 C   0  0  0  0  0  0  0  0  0  0  0  0
   41.4050   81.2570   62.2410 C   0  0  2  0  0  0  0  0  0  0  0  0
   40.4840   82.0080   62.8890 N   0  0  0  0  0  0  0  0  0  0  0  0
   40.7970   83.1120   63.5740 C   0  0  0  0  0  0  0  0  0  0  0  0
   42.0620   83.5470   63.6600 N   0  0  0  0  0  0  0  0  0  0  0  0
   43.0290   82.8340   63.0320 C   0  0  0  0  0  0  0  0  0  0  0  0
   44.3470   83.2250   63.0800 C   0  0  0  0  0  0  0  0  0  0  0  0
   45.2810   82.4610   62.4210 C   0  0  0  0  0  0  0  0  0  0  0  0
   44.9650   81.3320   61.7200 C   0  0  0  0  0  0  0  0  0  0  0  0
   43.6430   80.9260   61.6620 C   0  0  0  0  0  0  0  0  0  0  0  0
   42.7110   81.6870   62.3180 C   0  0  0  0  0  0  0  0  0  0  0  0
   40.7260   81.4430   59.4340 C   0  0  0  0  0  0  0  0  0  0  0  0
   41.5170   81.5290   58.2710 C   0  0  0  0  0  0  0  0  0  0  0  0
   41.5450   82.7520   57.5910 C   0  0  0  0  0  0  0  0  0  0  0  0
   40.8190   83.7830   58.0780 N   0  0  0  0  0  0  0  0  0  0  0  0
   40.0790   83.6470   59.1940 C   0  0  0  0  0  0  0  0  0  0  0  0
   40.0200   82.4950   59.8810 N   0  0  0  0  0  0  0  0  0  0  0  0
   39.2990   84.7650   59.7100 C   0  0  0  0  0  0  0  0  0  0  0  0
   39.0270   85.7990   59.0100 O   0  0  0  0  0  0  0  0  0  0  0  0
   38.7810   84.8180   60.9960 O   0  0  0  0  0  0  0  0  0  0  0  0
   39.9633   79.1261   58.4821 H   0  0  0  0  0  0  0  0  0  0  0  0
   39.7696   76.9494   59.6172 H   0  0  0  0  0  0  0  0  0  0  0  0
   40.3514   76.7512   62.0520 H   0  0  0  0  0  0  0  0  0  0  0  0
   41.1135   78.7921   63.2407 H   0  0  0  0  0  0  0  0  0  0  0  0
   41.5504   80.6528   63.1486 H   0  0  0  0  0  0  0  0  0  0  0  0
   39.9988   83.6763   64.0785 H   0  0  0  0  0  0  0  0  0  0  0  0
   42.2931   84.4000   64.1890 H   0  0  0  0  0  0  0  0  0  0  0  0
   44.6466   84.1277   63.6326 H   0  0  0  0  0  0  0  0  0  0  0  0
   46.3347   82.7744   62.4602 H   0  0  0  0  0  0  0  0  0  0  0  0
   45.7494   80.7542   61.2093 H   0  0  0  0  0  0  0  0  0  0  0  0
   43.3501   80.0222   61.1076 H   0  0  0  0  0  0  0  0  0  0  0  0
   42.0930   80.6642   57.9098 H   0  0  0  0  0  0  0  0  0  0  0  0
   42.1463   82.8719   56.6777 H   0  0  0  0  0  0  0  0  0  0  0  0
   38.2585   85.6069   61.2870 H   0  0  0  0  0  0  0  0  0  0  0  0
  1  6  2  0
  2  3  2  0
  2  1  1  0
  3  4  1  0
  4  5  2  0
  6  5  1  0
  7  6  1  0
  7 16  1  0
  7  8  1  0
  8  9  2  0
  9 10  1  0
 11 12  2  0
 11 10  1  0
 13 12  1  0
 14 13  2  0
 15 14  1  0
 15 16  2  0
 16 11  1  0
 17 22  1  0
 17  1  1  0
 18 17  2  0
 19 20  2  0
 19 18  1  0
 20 21  1  0
 21 23  1  0
 21 22  2  0
 23 25  1  0
 24 23  2  0
  2 26  1  0
  3 27  1  0
  4 28  1  0
  5 29  1  0
  7 30  1  1
  9 31  1  0
 10 32  1  0
 12 33  1  0
 13 34  1  0
 14 35  1  0
 15 36  1  0
 18 37  1  0
 19 38  1  0
 25 39  1  0
M  END
>  <Score>  (1) 
-7.09269

$$$$
