
     RDKit          3D

 46 50  0  0  0  0  0  0  0  0999 V2000
   40.9670   81.7060   56.4180 C   0  0  0  0  0  0  0  0  0  0  0  0
   40.7500   81.4640   57.7770 C   0  0  0  0  0  0  0  0  0  0  0  0
   39.7160   80.6090   58.1150 C   0  0  0  0  0  0  0  0  0  0  0  0
   38.9790   80.0610   57.1020 N   0  0  0  0  0  0  0  0  0  0  0  0
   39.2210   80.3190   55.8170 C   0  0  0  0  0  0  0  0  0  0  0  0
   40.2280   81.1530   55.4670 N   0  0  0  0  0  0  0  0  0  0  0  0
   41.5550   82.0640   58.8520 C   0  0  0  0  0  0  0  0  0  0  0  0
   42.8710   82.2030   59.0920 N   0  0  0  0  0  0  0  0  0  0  0  0
   43.0160   82.8380   60.2320 O   0  0  0  0  0  0  0  0  0  0  0  0
   41.8880   83.1260   60.7560 C   0  0  0  0  0  0  0  0  0  0  0  0
   40.9600   82.6500   59.9080 N   0  0  0  0  0  0  0  0  0  0  0  0
   41.6300   83.8030   61.9740 N   0  0  0  0  0  0  0  0  0  0  0  0
   42.6690   84.5660   62.6240 C   0  0  0  0  0  0  0  0  0  0  0  0
   42.6380   84.2780   64.1110 C   0  0  0  0  0  0  0  0  0  0  0  0
   41.2910   84.3090   64.6550 N   0  0  0  0  0  0  0  0  0  0  0  0
   40.5090   83.2560   64.0120 C   0  0  0  0  0  0  0  0  0  0  0  0
   40.2970   83.7350   62.5910 C   0  0  0  0  0  0  0  0  0  0  0  0
   38.3860   79.6920   54.7920 C   0  0  0  0  0  0  0  0  0  0  0  0
   37.7530   78.4830   54.9940 C   0  0  0  0  0  0  0  0  0  0  0  0
   36.9850   77.9790   53.9530 C   0  0  0  0  0  0  0  0  0  0  0  0
   36.8900   78.6820   52.8030 N   0  0  0  0  0  0  0  0  0  0  0  0
   37.5020   79.8570   52.6000 C   0  0  0  0  0  0  0  0  0  0  0  0
   38.2430   80.3330   53.6170 N   0  0  0  0  0  0  0  0  0  0  0  0
   37.4320   80.6430   51.3960 C   0  0  0  0  0  0  0  0  0  0  0  0
   36.7930   80.0930   50.2930 C   0  0  0  0  0  0  0  0  0  0  0  0
   36.6880   80.7930   49.1000 C   0  0  0  0  0  0  0  0  0  0  0  0
   37.2550   82.0410   49.1030 C   0  0  0  0  0  0  0  0  0  0  0  0
   37.8960   82.6160   50.1760 C   0  0  0  0  0  0  0  0  0  0  0  0
   37.9570   81.8810   51.2930 N   0  0  0  0  0  0  0  0  0  0  0  0
   41.7837   82.3825   56.1259 H   0  0  0  0  0  0  0  0  0  0  0  0
   39.4935   80.3771   59.1670 H   0  0  0  0  0  0  0  0  0  0  0  0
   43.6484   84.2792   62.2135 H   0  0  0  0  0  0  0  0  0  0  0  0
   42.5043   85.6397   62.4507 H   0  0  0  0  0  0  0  0  0  0  0  0
   43.0665   83.2802   64.2862 H   0  0  0  0  0  0  0  0  0  0  0  0
   43.2209   85.0624   64.6160 H   0  0  0  0  0  0  0  0  0  0  0  0
   41.3228   84.1470   65.6717 H   0  0  0  0  0  0  0  0  0  0  0  0
   41.0612   82.3047   64.0207 H   0  0  0  0  0  0  0  0  0  0  0  0
   39.5571   83.0732   64.5320 H   0  0  0  0  0  0  0  0  0  0  0  0
   39.8262   84.7292   62.5906 H   0  0  0  0  0  0  0  0  0  0  0  0
   39.6339   83.0556   62.0353 H   0  0  0  0  0  0  0  0  0  0  0  0
   37.8530   77.9385   55.9446 H   0  0  0  0  0  0  0  0  0  0  0  0
   36.4600   77.0187   54.0631 H   0  0  0  0  0  0  0  0  0  0  0  0
   36.3621   79.0836   50.3664 H   0  0  0  0  0  0  0  0  0  0  0  0
   36.1855   80.3763   48.2146 H   0  0  0  0  0  0  0  0  0  0  0  0
   37.1926   82.6286   48.1752 H   0  0  0  0  0  0  0  0  0  0  0  0
   38.3339   83.6235   50.1191 H   0  0  0  0  0  0  0  0  0  0  0  0
  1  2  2  0
  2  3  1  0
  2  7  1  0
  4  3  2  0
  5  4  1  0
  6  5  2  0
  6  1  1  0
  7  8  2  0
  7 11  1  0
  8  9  1  0
  9 10  1  0
 10 12  1  0
 11 10  2  0
 12 17  1  0
 12 13  1  0
 13 14  1  0
 14 15  1  0
 16 15  1  0
 17 16  1  0
 18 19  2  0
 18  5  1  0
 20 19  1  0
 21 20  2  0
 22 21  1  0
 22 23  2  0
 23 18  1  0
 24 22  1  0
 25 24  2  0
 26 27  2  0
 26 25  1  0
 27 28  1  0
 28 29  2  0
 29 24  1  0
  1 30  1  0
  3 31  1  0
 13 32  1  0
 13 33  1  0
 14 34  1  0
 14 35  1  0
 15 36  1  0
 16 37  1  0
 16 38  1  0
 17 39  1  0
 17 40  1  0
 19 41  1  0
 20 42  1  0
 25 43  1  0
 26 44  1  0
 27 45  1  0
 28 46  1  0
M  END
>  <Score>  (1) 
-7.15681

$$$$
