
     RDKit          3D

 46 49  0  0  0  0  0  0  0  0999 V2000
   40.7670   82.1790   59.0370 C   0  0  0  0  0  0  0  0  0  0  0  0
   39.8510   81.2050   58.6570 C   0  0  0  0  0  0  0  0  0  0  0  0
   40.0300   80.9290   57.3320 C   0  0  0  0  0  0  0  0  0  0  0  0
   41.0570   81.7490   56.9480 C   0  0  0  0  0  0  0  0  0  0  0  0
   41.4760   82.4760   57.9670 O   0  0  0  0  0  0  0  0  0  0  0  0
   39.3000   79.9940   56.5390 C   0  0  0  0  0  0  0  0  0  0  0  0
   39.5380   78.6790   56.2330 C   0  0  0  0  0  0  0  0  0  0  0  0
   38.6820   77.9580   55.4310 C   0  0  0  0  0  0  0  0  0  0  0  0
   37.5460   78.5000   54.8900 C   0  0  0  0  0  0  0  0  0  0  0  0
   37.2820   79.8180   55.1800 C   0  0  0  0  0  0  0  0  0  0  0  0
   38.1400   80.5560   55.9880 C   0  0  0  0  0  0  0  0  0  0  0  0
   40.1590   82.0650   61.4680 C   0  0  0  0  0  0  0  0  0  0  0  0
   40.8140   82.6720   60.3810 C   0  0  0  0  0  0  0  0  0  0  0  0
   41.5390   83.8280   60.6190 C   0  0  0  0  0  0  0  0  0  0  0  0
   41.5990   84.3380   61.8790 N   0  0  0  0  0  0  0  0  0  0  0  0
   40.9360   83.6950   62.8990 C   0  0  0  0  0  0  0  0  0  0  0  0
   40.2410   82.5970   62.7050 N   0  0  0  0  0  0  0  0  0  0  0  0
   42.2990   84.5960   59.7030 N   0  0  0  0  0  0  0  0  0  0  0  0
   41.9220   85.6220   58.7220 C   0  0  0  0  0  0  0  0  0  0  0  0
   43.0420   86.5920   58.5230 C   0  0  0  0  0  0  0  0  0  0  0  0
   44.1420   85.8440   58.0730 O   0  0  0  0  0  0  0  0  0  0  0  0
   44.6320   85.1580   59.1560 C   0  0  0  0  0  0  0  0  0  0  0  0
   43.6780   84.2350   59.8320 C   0  0  0  0  0  0  0  0  0  0  0  0
   41.0140   84.2600   64.2650 C   0  0  0  0  0  0  0  0  0  0  0  0
   40.1940   83.5430   65.1150 F   0  0  0  0  0  0  0  0  0  0  0  0
   40.7180   85.5670   64.3290 F   0  0  0  0  0  0  0  0  0  0  0  0
   42.3100   84.0490   64.7280 F   0  0  0  0  0  0  0  0  0  0  0  0
   41.7230   81.9300   55.6510 C   0  0  0  0  0  0  0  0  0  0  0  0
   43.0100   81.3720   55.7380 F   0  0  0  0  0  0  0  0  0  0  0  0
   41.8960   83.2800   55.3500 F   0  0  0  0  0  0  0  0  0  0  0  0
   40.9740   81.3630   54.6600 F   0  0  0  0  0  0  0  0  0  0  0  0
   39.1054   80.7345   59.3149 H   0  0  0  0  0  0  0  0  0  0  0  0
   40.4350   78.1878   56.6382 H   0  0  0  0  0  0  0  0  0  0  0  0
   38.9195   76.9056   55.2162 H   0  0  0  0  0  0  0  0  0  0  0  0
   36.8746   77.9069   54.2517 H   0  0  0  0  0  0  0  0  0  0  0  0
   36.3805   80.2946   54.7675 H   0  0  0  0  0  0  0  0  0  0  0  0
   37.9021   81.6088   56.2004 H   0  0  0  0  0  0  0  0  0  0  0  0
   39.5741   81.1473   61.3077 H   0  0  0  0  0  0  0  0  0  0  0  0
   41.6881   85.1372   57.7627 H   0  0  0  0  0  0  0  0  0  0  0  0
   41.0422   86.1660   59.0961 H   0  0  0  0  0  0  0  0  0  0  0  0
   42.7627   87.3462   57.7725 H   0  0  0  0  0  0  0  0  0  0  0  0
   43.2779   87.1242   59.4563 H   0  0  0  0  0  0  0  0  0  0  0  0
   45.4922   84.5626   58.8159 H   0  0  0  0  0  0  0  0  0  0  0  0
   44.8820   85.9250   59.9038 H   0  0  0  0  0  0  0  0  0  0  0  0
   43.9265   84.2108   60.9033 H   0  0  0  0  0  0  0  0  0  0  0  0
   43.7896   83.2586   59.3379 H   0  0  0  0  0  0  0  0  0  0  0  0
  1 13  1  0
  2  1  2  0
  3  2  1  0
  4  3  2  0
  4  5  1  0
  5  1  1  0
  6  3  1  0
  7  6  2  0
  8  7  1  0
  9 10  1  0
  9  8  2  0
 10 11  2  0
 11  6  1  0
 12 17  2  0
 13 14  2  0
 13 12  1  0
 14 15  1  0
 15 16  2  0
 16 24  1  0
 17 16  1  0
 18 23  1  0
 18 14  1  0
 19 18  1  0
 20 19  1  0
 21 20  1  0
 21 22  1  0
 22 23  1  0
 24 26  1  0
 24 27  1  0
 24 25  1  0
 28 29  1  0
 28  4  1  0
 30 28  1  0
 31 28  1  0
  2 32  1  0
  7 33  1  0
  8 34  1  0
  9 35  1  0
 10 36  1  0
 11 37  1  0
 12 38  1  0
 19 39  1  0
 19 40  1  0
 20 41  1  0
 20 42  1  0
 22 43  1  0
 22 44  1  0
 23 45  1  0
 23 46  1  0
M  END
>  <Score>  (1) 
-7.00635

$$$$
