
     RDKit          3D

 45 49  0  0  0  0  0  0  0  0999 V2000
   38.7640   78.0580   57.2220 C   0  0  0  0  0  0  0  0  0  0  0  0
   38.5260   76.7430   57.4150 C   0  0  0  0  0  0  0  0  0  0  0  0
   37.9270   76.2410   56.2750 C   0  0  0  0  0  0  0  0  0  0  0  0
   37.8260   77.3050   55.4200 C   0  0  0  0  0  0  0  0  0  0  0  0
   38.3330   78.3440   56.0290 O   0  0  0  0  0  0  0  0  0  0  0  0
   38.7920   75.9130   58.5370 N   0  0  0  0  0  0  0  0  0  0  0  0
   38.0990   75.6230   59.6670 C   0  0  0  0  0  0  0  0  0  0  0  0
   38.8190   74.7330   60.4120 N   0  0  0  0  0  0  0  0  0  0  0  0
   39.9830   74.4470   59.7580 C   0  0  0  0  0  0  0  0  0  0  0  0
   41.0300   73.6140   60.0970 C   0  0  0  0  0  0  0  0  0  0  0  0
   42.0720   73.5220   59.2490 N   0  0  0  0  0  0  0  0  0  0  0  0
   42.0300   74.2500   58.1190 C   0  0  0  0  0  0  0  0  0  0  0  0
   41.0180   75.0660   57.7730 N   0  0  0  0  0  0  0  0  0  0  0  0
   39.9530   75.1970   58.5800 C   0  0  0  0  0  0  0  0  0  0  0  0
   40.9940   72.8770   61.3170 N   0  0  0  0  0  0  0  0  0  0  0  0
   37.2460   77.2790   54.0520 C   0  0  0  0  0  0  0  0  0  0  0  0
   37.5680   78.4120   53.3450 F   0  0  0  0  0  0  0  0  0  0  0  0
   35.8730   77.0640   54.0840 F   0  0  0  0  0  0  0  0  0  0  0  0
   37.7580   76.1910   53.3520 F   0  0  0  0  0  0  0  0  0  0  0  0
   37.5230   74.8910   56.0960 N   0  0  0  0  0  0  0  0  0  0  0  0
   39.3230   79.0180   58.0000 O   0  0  0  0  0  0  0  0  0  0  0  0
   40.5130   78.9770   58.7010 C   0  0  0  0  0  0  0  0  0  0  0  0
   41.4270   78.5340   57.9470 O   0  0  0  0  0  0  0  0  0  0  0  0
   40.9940   80.7690   61.6770 C   0  0  0  0  0  0  0  0  0  0  0  0
   40.7950   79.5220   62.2880 C   0  0  0  0  0  0  0  0  0  0  0  0
   40.5780   78.6370   61.2200 C   0  0  0  0  0  0  0  0  0  0  0  0
   40.6560   79.3800   60.0640 C   0  0  0  0  0  0  0  0  0  0  0  0
   40.9000   80.6150   60.3860 O   0  0  0  0  0  0  0  0  0  0  0  0
   40.7510   83.5850   64.0690 C   0  0  0  0  0  0  0  0  0  0  0  0
   42.0520   84.0990   63.9990 C   0  0  0  0  0  0  0  0  0  0  0  0
   42.9590   83.4790   63.1500 C   0  0  0  0  0  0  0  0  0  0  0  0
   42.4970   82.4060   62.4480 N   0  0  0  0  0  0  0  0  0  0  0  0
   41.2520   81.9320   62.5300 C   0  0  0  0  0  0  0  0  0  0  0  0
   40.3920   82.5290   63.3410 N   0  0  0  0  0  0  0  0  0  0  0  0
   37.1170   76.0373   59.9389 H   0  0  0  0  0  0  0  0  0  0  0  0
   42.8832   74.1728   57.4291 H   0  0  0  0  0  0  0  0  0  0  0  0
   41.7770   72.2562   61.5670 H   0  0  0  0  0  0  0  0  0  0  0  0
   40.1850   72.9653   61.9484 H   0  0  0  0  0  0  0  0  0  0  0  0
   37.0822   74.5982   55.2123 H   0  0  0  0  0  0  0  0  0  0  0  0
   37.6709   74.2049   56.8499 H   0  0  0  0  0  0  0  0  0  0  0  0
   40.8064   79.2897   63.3631 H   0  0  0  0  0  0  0  0  0  0  0  0
   40.3830   77.5569   61.2930 H   0  0  0  0  0  0  0  0  0  0  0  0
   40.0153   84.0601   64.7346 H   0  0  0  0  0  0  0  0  0  0  0  0
   42.3475   84.9710   64.6009 H   0  0  0  0  0  0  0  0  0  0  0  0
   43.9950   83.8348   63.0493 H   0  0  0  0  0  0  0  0  0  0  0  0
  1  2  2  0
  1 21  1  0
  2  6  1  0
  3  2  1  0
  4  5  1  0
  4  3  2  0
  5  1  1  0
  6 14  1  0
  6  7  1  0
  7  8  2  0
  9 10  2  0
  9  8  1  0
 10 15  1  0
 11 10  1  0
 12 11  2  0
 13 12  1  0
 13 14  2  0
 14  9  1  0
 16 18  1  0
 16  4  1  0
 17 16  1  0
 19 16  1  0
 20  3  1  0
 21 22  1  0
 22 27  1  0
 23 22  2  0
 24 25  2  0
 24 33  1  0
 26 25  1  0
 27 28  1  0
 27 26  2  0
 28 24  1  0
 30 29  2  0
 31 30  1  0
 32 33  1  0
 32 31  2  0
 33 34  2  0
 34 29  1  0
  7 35  1  0
 12 36  1  0
 15 37  1  0
 15 38  1  0
 20 39  1  0
 20 40  1  0
 25 41  1  0
 26 42  1  0
 29 43  1  0
 30 44  1  0
 31 45  1  0
M  END
>  <Score>  (1) 
-7.21109

$$$$
