
     RDKit          3D

 40 45  0  0  1  0  0  0  0  0999 V2000
   41.1290   81.3740   55.7050 C   0  0  0  0  0  0  0  0  0  0  0  0
   40.4560   80.1740   55.7180 C   0  0  0  0  0  0  0  0  0  0  0  0
   39.7260   79.8190   56.8700 C   0  0  0  0  0  0  0  0  0  0  0  0
   39.7260   80.6970   57.9120 N   0  0  0  0  0  0  0  0  0  0  0  0
   40.3870   81.8580   57.8720 C   0  0  0  0  0  0  0  0  0  0  0  0
   41.0580   82.1520   56.7860 N   0  0  0  0  0  0  0  0  0  0  0  0
   40.3330   82.7580   59.0070 C   0  0  0  0  0  0  0  0  0  0  0  0
   39.8170   84.0600   58.9750 C   0  0  0  0  0  0  0  0  0  0  0  0
   39.9230   84.5910   60.1930 N   0  0  0  0  0  0  0  0  0  0  0  0
   40.4860   83.6850   61.0090 C   0  0  0  0  0  0  0  0  0  0  0  0
   40.7320   82.5680   60.2730 N   0  0  0  0  0  0  0  0  0  0  0  0
   40.7670   83.8730   62.3980 N   0  0  0  0  0  0  0  0  0  0  0  0
   39.9740   83.5390   63.3910 N   0  0  0  0  0  0  0  0  0  0  0  0
   40.5050   83.8360   64.5780 C   0  0  0  0  0  0  0  0  0  0  0  0
   41.7050   84.3920   64.3220 C   0  0  0  0  0  0  0  0  0  0  0  0
   41.8600   84.4100   62.9390 C   0  0  0  0  0  0  0  0  0  0  0  0
   38.8320   78.7390   56.9960 C   0  0  0  0  0  0  0  0  0  0  0  0
   38.0360   77.7780   57.1090 N   0  0  0  0  0  0  0  0  0  0  0  0
   37.3050   76.8230   57.3150 C   0  0  0  0  0  0  0  0  0  0  0  0
   36.6880   76.9600   56.1350 N   0  0  0  0  0  0  0  0  0  0  0  0
   37.0780   77.9660   55.3020 C   0  0  0  0  0  0  0  0  0  0  0  0
   36.3860   77.9600   54.0560 C   0  0  0  0  0  0  0  0  0  0  0  0
   36.7950   78.9040   53.1610 C   0  0  0  0  0  0  0  0  0  0  0  0
   37.7850   79.8430   53.3270 C   0  0  0  0  0  0  0  0  0  0  0  0
   38.3450   79.6990   54.5990 C   0  0  0  0  0  0  0  0  0  0  0  0
   38.1260   78.8310   55.7240 C   0  0  1  0  0  0  0  0  0  0  0  0
   41.7113   81.6841   54.8248 H   0  0  0  0  0  0  0  0  0  0  0  0
   40.4872   79.5045   54.8458 H   0  0  0  0  0  0  0  0  0  0  0  0
   39.3945   84.5609   58.0915 H   0  0  0  0  0  0  0  0  0  0  0  0
   41.1611   81.7042   60.6345 H   0  0  0  0  0  0  0  0  0  0  0  0
   40.0542   83.6621   65.5662 H   0  0  0  0  0  0  0  0  0  0  0  0
   42.4262   84.7619   65.0656 H   0  0  0  0  0  0  0  0  0  0  0  0
   42.7304   84.7986   62.3899 H   0  0  0  0  0  0  0  0  0  0  0  0
   39.6286   78.1328   57.4519 H   0  0  0  0  0  0  0  0  0  0  0  0
   37.1949   76.1178   58.1520 H   0  0  0  0  0  0  0  0  0  0  0  0
   35.5801   77.2454   53.8325 H   0  0  0  0  0  0  0  0  0  0  0  0
   36.2717   78.9154   52.1935 H   0  0  0  0  0  0  0  0  0  0  0  0
   38.0882   80.5891   52.5777 H   0  0  0  0  0  0  0  0  0  0  0  0
   39.4102   79.5393   54.3760 H   0  0  0  0  0  0  0  0  0  0  0  0
   37.7986   80.5488   55.0340 H   0  0  0  0  0  0  0  0  0  0  0  0
  1  2  2  0
  1  6  1  0
  2  3  1  0
  3  4  2  0
  5  4  1  0
  5  7  1  0
  6  5  2  0
  7 11  1  0
  8  7  2  0
  8  9  1  0
  9 10  2  0
 10 12  1  0
 11 10  1  0
 12 16  1  0
 12 13  1  0
 13 14  2  0
 15 14  1  0
 16 15  2  0
 17  3  1  0
 17 18  1  0
 18 19  1  0
 20 19  2  0
 21 26  1  0
 21 20  1  0
 22 21  2  0
 23 24  2  0
 23 22  1  0
 24 25  1  0
 26 25  1  1
 26 17  1  0
 26 18  1  0
  1 27  1  0
  2 28  1  0
  8 29  1  0
 11 30  1  0
 14 31  1  0
 15 32  1  0
 16 33  1  0
 17 34  1  0
 19 35  1  0
 22 36  1  0
 23 37  1  0
 24 38  1  0
 25 39  1  0
 25 40  1  0
M  END
>  <Score>  (1) 
-7.2971

$$$$
