
     RDKit          3D

 41 44  0  0  0  0  0  0  0  0999 V2000
   41.7280   79.7500   61.6190 C   0  0  0  0  0  0  0  0  0  0  0  0
   43.0050   79.2640   61.8220 C   0  0  0  0  0  0  0  0  0  0  0  0
   42.8750   77.5720   61.4090 S   0  0  0  0  0  0  0  0  0  0  0  0
   41.0620   77.6770   60.9880 C   0  0  0  0  0  0  0  0  0  0  0  0
   40.8120   78.9540   61.2150 N   0  0  0  0  0  0  0  0  0  0  0  0
   40.2080   76.5890   60.5330 C   0  0  0  0  0  0  0  0  0  0  0  0
   40.4630   75.3000   60.9180 C   0  0  0  0  0  0  0  0  0  0  0  0
   39.6030   74.3580   60.4360 C   0  0  0  0  0  0  0  0  0  0  0  0
   38.5650   74.6770   59.6270 N   0  0  0  0  0  0  0  0  0  0  0  0
   38.3240   75.9390   59.2550 C   0  0  0  0  0  0  0  0  0  0  0  0
   39.1740   76.8570   59.7350 N   0  0  0  0  0  0  0  0  0  0  0  0
   37.2640   76.3690   58.4140 N   0  0  0  0  0  0  0  0  0  0  0  0
   37.4770   77.2960   57.3600 C   0  0  0  0  0  0  0  0  0  0  0  0
   38.6720   77.4290   56.8920 N   0  0  0  0  0  0  0  0  0  0  0  0
   36.4700   78.0950   56.7730 N   0  0  0  0  0  0  0  0  0  0  0  0
   38.9360   78.0730   56.1280 H   0  0  0  0  0  0  0  0  0  0  0  0
   41.3640   81.1800   61.8530 C   0  0  0  0  0  0  0  0  0  0  0  0
   41.6930   82.1220   60.8480 C   0  0  0  0  0  0  0  0  0  0  0  0
   41.3710   83.4800   61.0240 C   0  0  0  0  0  0  0  0  0  0  0  0
   40.7470   83.7720   62.1920 N   0  0  0  0  0  0  0  0  0  0  0  0
   40.4460   82.8890   63.1180 C   0  0  0  0  0  0  0  0  0  0  0  0
   40.7570   81.6060   62.9400 N   0  0  0  0  0  0  0  0  0  0  0  0
   41.6780   84.4850   60.0390 C   0  0  0  0  0  0  0  0  0  0  0  0
   42.8210   85.2440   60.0180 C   0  0  0  0  0  0  0  0  0  0  0  0
   43.1070   86.2050   59.0710 C   0  0  0  0  0  0  0  0  0  0  0  0
   42.1400   86.3930   58.0730 C   0  0  0  0  0  0  0  0  0  0  0  0
   40.9660   85.6520   58.0480 C   0  0  0  0  0  0  0  0  0  0  0  0
   40.7660   84.7080   59.0440 C   0  0  0  0  0  0  0  0  0  0  0  0
   43.8946   79.8135   62.1635 H   0  0  0  0  0  0  0  0  0  0  0  0
   41.3073   75.0411   61.5739 H   0  0  0  0  0  0  0  0  0  0  0  0
   39.7574   73.3048   60.7133 H   0  0  0  0  0  0  0  0  0  0  0  0
   36.3160   75.9989   58.5727 H   0  0  0  0  0  0  0  0  0  0  0  0
   36.7077   78.7450   56.0101 H   0  0  0  0  0  0  0  0  0  0  0  0
   35.4984   78.0274   57.1080 H   0  0  0  0  0  0  0  0  0  0  0  0
   42.2004   81.7917   59.9296 H   0  0  0  0  0  0  0  0  0  0  0  0
   39.9376   83.2093   64.0394 H   0  0  0  0  0  0  0  0  0  0  0  0
   43.5619   85.0738   60.8131 H   0  0  0  0  0  0  0  0  0  0  0  0
   44.0385   86.7894   59.0970 H   0  0  0  0  0  0  0  0  0  0  0  0
   42.3158   87.1460   57.2907 H   0  0  0  0  0  0  0  0  0  0  0  0
   40.2151   85.8095   57.2597 H   0  0  0  0  0  0  0  0  0  0  0  0
   39.8389   84.1161   59.0336 H   0  0  0  0  0  0  0  0  0  0  0  0
  1  2  2  0
  1 17  1  0
  3  2  1  0
  4  5  2  0
  4  3  1  0
  5  1  1  0
  6  7  2  0
  6  4  1  0
  8  7  1  0
  9  8  2  0
 10  9  1  0
 10 11  2  0
 11  6  1  0
 12 10  1  0
 13 12  1  0
 14 13  2  0
 15 13  1  0
 16 14  1  0
 17 22  2  0
 18 19  2  0
 18 17  1  0
 19 20  1  0
 20 21  2  0
 22 21  1  0
 23 19  1  0
 24 23  2  0
 25 24  1  0
 26 25  2  0
 27 26  1  0
 27 28  2  0
 28 23  1  0
  2 29  1  0
  7 30  1  0
  8 31  1  0
 12 32  1  0
 15 33  1  0
 15 34  1  0
 18 35  1  0
 21 36  1  0
 24 37  1  0
 25 38  1  0
 26 39  1  0
 27 40  1  0
 28 41  1  0
M  END
>  <Score>  (1) 
-7.08205

$$$$
