
     RDKit          3D

 51 55  0  0  0  0  0  0  0  0999 V2000
   40.5620   80.0540   60.7000 C   0  0  0  0  0  0  0  0  0  0  0  0
   41.7460   80.2520   61.4230 C   0  0  0  0  0  0  0  0  0  0  0  0
   42.4250   79.1110   61.8360 C   0  0  0  0  0  0  0  0  0  0  0  0
   41.9240   77.9050   61.5300 N   0  0  0  0  0  0  0  0  0  0  0  0
   40.7960   77.7320   60.8410 C   0  0  0  0  0  0  0  0  0  0  0  0
   40.1170   78.8040   60.4270 N   0  0  0  0  0  0  0  0  0  0  0  0
   42.2240   81.5350   61.7140 N   0  0  0  0  0  0  0  0  0  0  0  0
   43.3080   82.0790   61.0930 C   0  0  0  0  0  0  0  0  0  0  0  0
   43.5250   83.3230   61.5820 N   0  0  0  0  0  0  0  0  0  0  0  0
   42.5870   83.5700   62.5060 C   0  0  0  0  0  0  0  0  0  0  0  0
   42.3300   84.6520   63.3170 C   0  0  0  0  0  0  0  0  0  0  0  0
   41.2490   84.5660   64.1400 N   0  0  0  0  0  0  0  0  0  0  0  0
   40.4700   83.4820   64.2050 C   0  0  0  0  0  0  0  0  0  0  0  0
   40.7750   82.4670   63.4170 N   0  0  0  0  0  0  0  0  0  0  0  0
   41.8030   82.4380   62.5560 C   0  0  0  0  0  0  0  0  0  0  0  0
   40.3750   76.3580   60.5820 C   0  0  0  0  0  0  0  0  0  0  0  0
   38.9290   76.1720   60.2860 C   0  0  0  0  0  0  0  0  0  0  0  0
   38.7080   75.9610   58.8250 C   0  0  0  0  0  0  0  0  0  0  0  0
   39.0400   74.7800   58.2020 C   0  0  0  0  0  0  0  0  0  0  0  0
   38.8150   74.6300   56.8400 C   0  0  0  0  0  0  0  0  0  0  0  0
   38.2640   75.7260   56.2410 C   0  0  0  0  0  0  0  0  0  0  0  0
   37.9300   76.9030   56.8480 C   0  0  0  0  0  0  0  0  0  0  0  0
   38.1690   77.0000   58.1830 N   0  0  0  0  0  0  0  0  0  0  0  0
   37.3330   78.0310   56.0940 C   0  0  0  0  0  0  0  0  0  0  0  0
   37.7780   78.0430   54.6450 C   0  0  0  0  0  0  0  0  0  0  0  0
   37.1440   79.3680   54.2020 C   0  0  0  0  0  0  0  0  0  0  0  0
   37.3350   80.2760   55.4050 C   0  0  0  0  0  0  0  0  0  0  0  0
   37.7300   79.3830   56.5680 C   0  0  0  0  0  0  0  0  0  0  0  0
   39.9871   80.9240   60.3500 H   0  0  0  0  0  0  0  0  0  0  0  0
   43.3615   79.1964   62.4067 H   0  0  0  0  0  0  0  0  0  0  0  0
   43.9115   81.5855   60.3170 H   0  0  0  0  0  0  0  0  0  0  0  0
   43.2162   84.8105   63.9491 H   0  0  0  0  0  0  0  0  0  0  0  0
   42.0981   85.4767   62.6270 H   0  0  0  0  0  0  0  0  0  0  0  0
   39.6088   83.4370   64.8879 H   0  0  0  0  0  0  0  0  0  0  0  0
   40.1756   81.6309   63.4677 H   0  0  0  0  0  0  0  0  0  0  0  0
   40.9473   75.9859   59.7194 H   0  0  0  0  0  0  0  0  0  0  0  0
   40.5641   75.8054   61.5141 H   0  0  0  0  0  0  0  0  0  0  0  0
   38.5584   75.2949   60.8368 H   0  0  0  0  0  0  0  0  0  0  0  0
   38.3870   77.0774   60.5966 H   0  0  0  0  0  0  0  0  0  0  0  0
   39.4827   73.9565   58.7816 H   0  0  0  0  0  0  0  0  0  0  0  0
   39.0594   73.7084   56.2915 H   0  0  0  0  0  0  0  0  0  0  0  0
   38.0694   75.6539   55.1607 H   0  0  0  0  0  0  0  0  0  0  0  0
   36.2565   77.8563   56.2375 H   0  0  0  0  0  0  0  0  0  0  0  0
   38.8739   78.0600   54.5515 H   0  0  0  0  0  0  0  0  0  0  0  0
   37.4851   77.1614   54.0559 H   0  0  0  0  0  0  0  0  0  0  0  0
   37.6586   79.7735   53.3184 H   0  0  0  0  0  0  0  0  0  0  0  0
   36.0886   79.2604   53.9113 H   0  0  0  0  0  0  0  0  0  0  0  0
   38.1294   81.0098   55.2037 H   0  0  0  0  0  0  0  0  0  0  0  0
   36.4139   80.8337   55.6297 H   0  0  0  0  0  0  0  0  0  0  0  0
   37.1842   79.6585   57.4824 H   0  0  0  0  0  0  0  0  0  0  0  0
   38.7953   79.4568   56.8318 H   0  0  0  0  0  0  0  0  0  0  0  0
  1  2  2  0
  2  7  1  0
  2  3  1  0
  4  3  2  0
  5  4  1  0
  6  1  1  0
  6  5  2  0
  7 15  1  0
  8  9  2  0
  8  7  1  0
  9 10  1  0
 10 15  2  0
 10 11  1  0
 11 12  1  0
 12 13  2  0
 14 13  1  0
 15 14  1  0
 16  5  1  0
 17 16  1  0
 18 17  1  0
 19 18  2  0
 20 19  1  0
 21 20  2  0
 21 22  1  0
 22 23  2  0
 23 18  1  0
 24 28  1  0
 24 22  1  0
 25 24  1  0
 26 25  1  0
 26 27  1  0
 27 28  1  0
  1 29  1  0
  3 30  1  0
  8 31  1  0
 11 32  1  0
 11 33  1  0
 13 34  1  0
 14 35  1  0
 16 36  1  0
 16 37  1  0
 17 38  1  0
 17 39  1  0
 19 40  1  0
 20 41  1  0
 21 42  1  0
 24 43  1  0
 25 44  1  0
 25 45  1  0
 26 46  1  0
 26 47  1  0
 27 48  1  0
 27 49  1  0
 28 50  1  0
 28 51  1  0
M  END
>  <Score>  (1) 
-7.15684

$$$$
