
     RDKit          3D

 49 53  0  0  1  0  0  0  0  0999 V2000
   41.0940   78.1040   61.5720 C   0  0  0  0  0  0  0  0  0  0  0  0
   39.8220   77.6620   61.1370 C   0  0  0  0  0  0  0  0  0  0  0  0
   39.6920   76.4240   60.5290 C   0  0  0  0  0  0  0  0  0  0  0  0
   40.8330   75.6890   60.3830 N   0  0  0  0  0  0  0  0  0  0  0  0
   42.0160   76.1290   60.8000 C   0  0  0  0  0  0  0  0  0  0  0  0
   42.1700   77.3030   61.3840 N   0  0  0  0  0  0  0  0  0  0  0  0
   41.2630   79.4240   62.2350 C   0  0  0  0  0  0  0  0  0  0  0  0
   40.7740   80.4300   61.3160 N   0  0  0  0  0  0  0  0  0  0  0  0
   40.5250   80.4020   59.9810 C   0  0  0  0  0  0  0  0  0  0  0  0
   40.0740   81.6030   59.5690 N   0  0  0  0  0  0  0  0  0  0  0  0
   40.0150   82.4350   60.5950 C   0  0  0  0  0  0  0  0  0  0  0  0
   39.6500   83.7650   60.8440 C   0  0  0  0  0  0  0  0  0  0  0  0
   39.2550   84.4110   59.8220 O   0  0  0  0  0  0  0  0  0  0  0  0
   39.7160   84.3160   62.0770 N   0  0  0  0  0  0  0  0  0  0  0  0
   40.1530   83.5570   63.1240 C   0  0  0  0  0  0  0  0  0  0  0  0
   40.2400   84.0890   64.4340 N   0  0  0  0  0  0  0  0  0  0  0  0
   40.5090   82.2830   62.9260 N   0  0  0  0  0  0  0  0  0  0  0  0
   40.4580   81.6910   61.7050 C   0  0  0  0  0  0  0  0  0  0  0  0
   43.2050   75.2910   60.6100 C   0  0  1  0  0  0  0  0  0  0  0  0
   43.7610   74.7720   61.9560 C   0  0  0  0  0  0  0  0  0  0  0  0
   42.9650   74.0770   59.7530 C   0  0  0  0  0  0  0  0  0  0  0  0
   42.5290   72.8900   60.3850 N   0  0  0  0  0  0  0  0  0  0  0  0
   42.4500   72.9910   61.7510 C   0  0  0  0  0  0  0  0  0  0  0  0
   41.9770   71.8520   62.3150 N   0  0  0  0  0  0  0  0  0  0  0  0
   41.7290   70.9590   61.3410 C   0  0  0  0  0  0  0  0  0  0  0  0
   41.2780   69.6630   61.2210 C   0  0  0  0  0  0  0  0  0  0  0  0
   41.2080   69.1310   59.9850 N   0  0  0  0  0  0  0  0  0  0  0  0
   41.5490   69.7870   58.8810 C   0  0  0  0  0  0  0  0  0  0  0  0
   41.9840   71.0440   59.0070 N   0  0  0  0  0  0  0  0  0  0  0  0
   42.0810   71.6410   60.1990 C   0  0  0  0  0  0  0  0  0  0  0  0
   40.9270   69.0050   62.4310 N   0  0  0  0  0  0  0  0  0  0  0  0
   38.9379   78.3004   61.2814 H   0  0  0  0  0  0  0  0  0  0  0  0
   38.7172   76.0516   60.1810 H   0  0  0  0  0  0  0  0  0  0  0  0
   40.6834   79.4534   63.1694 H   0  0  0  0  0  0  0  0  0  0  0  0
   42.3192   79.6034   62.4847 H   0  0  0  0  0  0  0  0  0  0  0  0
   40.6703   79.5266   59.3310 H   0  0  0  0  0  0  0  0  0  0  0  0
   39.4397   85.2972   62.2245 H   0  0  0  0  0  0  0  0  0  0  0  0
   40.5726   83.4976   65.2090 H   0  0  0  0  0  0  0  0  0  0  0  0
   39.9706   85.0672   64.6115 H   0  0  0  0  0  0  0  0  0  0  0  0
   43.9190   75.9590   60.1060 H   0  0  0  0  0  0  0  0  0  0  0  0
   43.2328   75.2650   62.7854 H   0  0  0  0  0  0  0  0  0  0  0  0
   43.6100   73.6843   62.0201 H   0  0  0  0  0  0  0  0  0  0  0  0
   44.8357   74.9974   62.0201 H   0  0  0  0  0  0  0  0  0  0  0  0
   43.9113   73.8460   59.2420 H   0  0  0  0  0  0  0  0  0  0  0  0
   42.1259   74.3638   59.1021 H   0  0  0  0  0  0  0  0  0  0  0  0
   42.7359   73.8878   62.3202 H   0  0  0  0  0  0  0  0  0  0  0  0
   41.4754   69.3095   57.8928 H   0  0  0  0  0  0  0  0  0  0  0  0
   40.5828   68.0345   62.4083 H   0  0  0  0  0  0  0  0  0  0  0  0
   41.0168   69.4987   63.3305 H   0  0  0  0  0  0  0  0  0  0  0  0
  1  7  1  0
  2  1  2  0
  3  2  1  0
  4  3  2  0
  4  5  1  0
  5  6  2  0
  6  1  1  0
  8 18  1  0
  8  7  1  0
  9  8  1  0
 10  9  2  0
 10 11  1  0
 11 12  1  0
 11 18  2  0
 12 14  1  0
 13 12  2  0
 14 15  1  0
 15 16  1  0
 17 15  2  0
 18 17  1  0
 19  5  1  0
 19 20  1  0
 21 22  1  0
 21 19  1  0
 22 23  1  0
 23 24  2  0
 25 24  1  0
 26 25  2  0
 26 31  1  0
 27 26  1  0
 28 29  1  0
 28 27  2  0
 29 30  2  0
 30 22  1  0
 30 25  1  0
  2 32  1  0
  3 33  1  0
  7 34  1  0
  7 35  1  0
  9 36  1  0
 14 37  1  0
 16 38  1  0
 16 39  1  0
 19 40  1  6
 20 41  1  0
 20 42  1  0
 20 43  1  0
 21 44  1  0
 21 45  1  0
 23 46  1  0
 28 47  1  0
 31 48  1  0
 31 49  1  0
M  END
>  <Score>  (1) 
-7.55662

$$$$
