
     RDKit          3D

 49 53  0  0  1  0  0  0  0  0999 V2000
   40.3440   80.5180   60.9810 C   0  0  2  0  0  0  0  0  0  0  0  0
   39.8440   81.9030   60.9930 C   0  0  0  0  0  0  0  0  0  0  0  0
   40.0020   82.6680   59.8040 C   0  0  0  0  0  0  0  0  0  0  0  0
   39.5720   83.9860   59.7350 C   0  0  0  0  0  0  0  0  0  0  0  0
   38.9950   84.4670   60.8920 N   0  0  0  0  0  0  0  0  0  0  0  0
   38.8610   83.7200   61.9960 C   0  0  0  0  0  0  0  0  0  0  0  0
   39.2810   82.4280   62.0690 N   0  0  0  0  0  0  0  0  0  0  0  0
   41.4370   80.3720   62.1100 C   0  0  0  0  0  0  0  0  0  0  0  0
   42.5720   81.2280   61.8710 N   0  0  0  0  0  0  0  0  0  0  0  0
   43.8200   80.7970   61.7550 C   0  0  0  0  0  0  0  0  0  0  0  0
   44.6500   81.8520   61.6130 N   0  0  0  0  0  0  0  0  0  0  0  0
   43.8500   82.9640   61.6960 C   0  0  0  0  0  0  0  0  0  0  0  0
   42.5730   82.5580   61.9420 N   0  0  0  0  0  0  0  0  0  0  0  0
   44.2210   84.3290   61.5680 N   0  0  0  0  0  0  0  0  0  0  0  0
   43.3870   85.3570   61.7100 N   0  0  0  0  0  0  0  0  0  0  0  0
   44.0300   86.5180   61.5420 C   0  0  0  0  0  0  0  0  0  0  0  0
   45.3270   86.1930   61.2830 C   0  0  0  0  0  0  0  0  0  0  0  0
   45.4440   84.8400   61.2990 C   0  0  0  0  0  0  0  0  0  0  0  0
   40.8970   80.0450   59.7320 C   0  0  0  0  0  0  0  0  0  0  0  0
   41.1570   78.6630   59.8750 O   0  0  0  0  0  0  0  0  0  0  0  0
   40.1780   77.6860   59.7980 C   0  0  0  0  0  0  0  0  0  0  0  0
   39.9520   76.6930   60.6790 N   0  0  0  0  0  0  0  0  0  0  0  0
   38.9940   75.7840   60.5510 C   0  0  0  0  0  0  0  0  0  0  0  0
   38.1630   75.8020   59.4960 N   0  0  0  0  0  0  0  0  0  0  0  0
   38.3530   76.7790   58.5890 C   0  0  0  0  0  0  0  0  0  0  0  0
   37.4820   76.7700   57.5170 C   0  0  0  0  0  0  0  0  0  0  0  0
   37.5610   77.7070   56.5180 C   0  0  0  0  0  0  0  0  0  0  0  0
   38.5500   78.6750   56.6170 C   0  0  0  0  0  0  0  0  0  0  0  0
   39.4230   78.6990   57.6750 C   0  0  0  0  0  0  0  0  0  0  0  0
   39.3380   77.7490   58.6790 C   0  0  0  0  0  0  0  0  0  0  0  0
   39.4570   79.8899   61.1504 H   0  0  0  0  0  0  0  0  0  0  0  0
   40.4734   82.2068   58.9236 H   0  0  0  0  0  0  0  0  0  0  0  0
   39.6827   84.5991   58.8284 H   0  0  0  0  0  0  0  0  0  0  0  0
   38.3908   84.1710   62.8823 H   0  0  0  0  0  0  0  0  0  0  0  0
   40.9872   80.6392   63.0776 H   0  0  0  0  0  0  0  0  0  0  0  0
   41.7893   79.3300   62.1117 H   0  0  0  0  0  0  0  0  0  0  0  0
   44.0976   80.2311   62.6565 H   0  0  0  0  0  0  0  0  0  0  0  0
   43.9018   80.1453   60.8726 H   0  0  0  0  0  0  0  0  0  0  0  0
   41.7642   83.1630   62.1440 H   0  0  0  0  0  0  0  0  0  0  0  0
   43.5993   87.5284   61.6010 H   0  0  0  0  0  0  0  0  0  0  0  0
   46.1425   86.9063   61.0929 H   0  0  0  0  0  0  0  0  0  0  0  0
   46.3653   84.2648   61.1249 H   0  0  0  0  0  0  0  0  0  0  0  0
   41.8312   80.5811   59.5086 H   0  0  0  0  0  0  0  0  0  0  0  0
   40.1921   80.2217   58.9063 H   0  0  0  0  0  0  0  0  0  0  0  0
   38.8788   75.0052   61.3192 H   0  0  0  0  0  0  0  0  0  0  0  0
   36.7059   75.9924   57.4629 H   0  0  0  0  0  0  0  0  0  0  0  0
   36.8638   77.6913   55.6673 H   0  0  0  0  0  0  0  0  0  0  0  0
   38.6359   79.4393   55.8306 H   0  0  0  0  0  0  0  0  0  0  0  0
   40.1968   79.4792   57.7262 H   0  0  0  0  0  0  0  0  0  0  0  0
  1  2  1  0
  1  8  1  0
  2  7  1  0
  3  2  2  0
  4  3  1  0
  4  5  2  0
  5  6  1  0
  6  7  2  0
  9 13  1  0
  9  8  1  0
 10  9  1  0
 11 12  2  0
 11 10  1  0
 12 13  1  0
 14 12  1  0
 14 15  1  0
 16 15  2  0
 17 18  2  0
 17 16  1  0
 18 14  1  0
 19 20  1  0
 19  1  1  0
 21 20  1  0
 21 22  2  0
 23 22  1  0
 24 23  2  0
 25 30  2  0
 25 24  1  0
 26 25  1  0
 27 28  1  0
 27 26  2  0
 28 29  2  0
 29 30  1  0
 30 21  1  0
  1 31  1  1
  3 32  1  0
  4 33  1  0
  6 34  1  0
  8 35  1  0
  8 36  1  0
 10 37  1  0
 10 38  1  0
 13 39  1  0
 16 40  1  0
 17 41  1  0
 18 42  1  0
 19 43  1  0
 19 44  1  0
 23 45  1  0
 26 46  1  0
 27 47  1  0
 28 48  1  0
 29 49  1  0
M  END
>  <Score>  (1) 
-7.24571

$$$$
