
     RDKit          3D

 37 41  0  0  0  0  0  0  0  0999 V2000
   40.8350   82.2570   61.2850 C   0  0  0  0  0  0  0  0  0  0  0  0
   40.4690   82.9900   60.1620 C   0  0  0  0  0  0  0  0  0  0  0  0
   40.1310   82.4300   58.9490 C   0  0  0  0  0  0  0  0  0  0  0  0
   40.1510   81.0610   58.8200 C   0  0  0  0  0  0  0  0  0  0  0  0
   40.5040   80.2610   59.8900 C   0  0  0  0  0  0  0  0  0  0  0  0
   40.5350   78.9080   59.7540 C   0  0  0  0  0  0  0  0  0  0  0  0
   40.8980   78.0760   60.8000 C   0  0  0  0  0  0  0  0  0  0  0  0
   41.2290   78.7160   62.0000 C   0  0  0  0  0  0  0  0  0  0  0  0
   41.1840   80.0790   62.0910 C   0  0  0  0  0  0  0  0  0  0  0  0
   40.8210   80.9040   61.0450 C   0  0  0  0  0  0  0  0  0  0  0  0
   40.9560   76.6770   60.7450 N   0  0  0  0  0  0  0  0  0  0  0  0
   42.1370   76.0270   60.8180 C   0  0  0  0  0  0  0  0  0  0  0  0
   41.9600   74.6930   60.7440 N   0  0  0  0  0  0  0  0  0  0  0  0
   40.6400   74.4640   60.6200 C   0  0  0  0  0  0  0  0  0  0  0  0
   39.7850   73.3880   60.4990 C   0  0  0  0  0  0  0  0  0  0  0  0
   38.4440   73.5920   60.3930 N   0  0  0  0  0  0  0  0  0  0  0  0
   37.8960   74.8120   60.3990 C   0  0  0  0  0  0  0  0  0  0  0  0
   38.6980   75.8860   60.5150 N   0  0  0  0  0  0  0  0  0  0  0  0
   40.0340   75.7030   60.6220 C   0  0  0  0  0  0  0  0  0  0  0  0
   42.5040   84.1700   64.1330 C   0  0  0  0  0  0  0  0  0  0  0  0
   42.3590   83.4890   62.9270 C   0  0  0  0  0  0  0  0  0  0  0  0
   41.1570   82.9780   62.4800 C   0  0  0  0  0  0  0  0  0  0  0  0
   40.1200   83.2070   63.3390 N   0  0  0  0  0  0  0  0  0  0  0  0
   40.2260   83.8560   64.5040 C   0  0  0  0  0  0  0  0  0  0  0  0
   41.4040   84.3260   64.8860 N   0  0  0  0  0  0  0  0  0  0  0  0
   40.4478   84.0865   60.2469 H   0  0  0  0  0  0  0  0  0  0  0  0
   39.8498   83.0676   58.0979 H   0  0  0  0  0  0  0  0  0  0  0  0
   39.8840   80.5994   57.8579 H   0  0  0  0  0  0  0  0  0  0  0  0
   40.2641   78.4619   58.7857 H   0  0  0  0  0  0  0  0  0  0  0  0
   41.5269   78.1188   62.8744 H   0  0  0  0  0  0  0  0  0  0  0  0
   41.4519   80.5446   63.0509 H   0  0  0  0  0  0  0  0  0  0  0  0
   43.1142   76.5208   60.9239 H   0  0  0  0  0  0  0  0  0  0  0  0
   40.1878   72.3644   60.4882 H   0  0  0  0  0  0  0  0  0  0  0  0
   36.8065   74.9354   60.3105 H   0  0  0  0  0  0  0  0  0  0  0  0
   43.4794   84.5636   64.4550 H   0  0  0  0  0  0  0  0  0  0  0  0
   43.2499   83.3509   62.2968 H   0  0  0  0  0  0  0  0  0  0  0  0
   39.3404   83.9984   65.1407 H   0  0  0  0  0  0  0  0  0  0  0  0
  1 22  1  0
  2  1  2  0
  3  2  1  0
  4  3  2  0
  4  5  1  0
  5 10  2  0
  6  5  1  0
  6  7  2  0
  7  8  1  0
  8  9  2  0
 10  1  1  0
 10  9  1  0
 11  7  1  0
 11 12  1  0
 13 12  2  0
 14 19  2  0
 14 13  1  0
 15 14  1  0
 16 17  1  0
 16 15  2  0
 17 18  2  0
 18 19  1  0
 19 11  1  0
 20 25  2  0
 21 20  1  0
 22 21  2  0
 22 23  1  0
 23 24  2  0
 24 25  1  0
  2 26  1  0
  3 27  1  0
  4 28  1  0
  6 29  1  0
  8 30  1  0
  9 31  1  0
 12 32  1  0
 15 33  1  0
 17 34  1  0
 20 35  1  0
 21 36  1  0
 24 37  1  0
M  END
>  <Score>  (1) 
-7.35474

$$$$
