
     RDKit          3D

 51 55  0  0  0  0  0  0  0  0999 V2000
   41.4860   81.1280   57.3710 N   0  0  0  0  0  0  0  0  0  0  0  0
   40.4460   80.4750   57.9030 N   0  0  0  0  0  0  0  0  0  0  0  0
   40.6750   79.1490   57.8470 C   0  0  0  0  0  0  0  0  0  0  0  0
   41.9070   79.0350   57.2540 C   0  0  0  0  0  0  0  0  0  0  0  0
   42.4190   80.2810   56.9530 C   0  0  0  0  0  0  0  0  0  0  0  0
   39.7970   78.0620   58.3190 C   0  0  0  0  0  0  0  0  0  0  0  0
   40.0590   77.4170   59.5150 C   0  0  0  0  0  0  0  0  0  0  0  0
   39.1880   76.4210   59.8700 C   0  0  0  0  0  0  0  0  0  0  0  0
   38.0860   76.0310   59.1160 C   0  0  0  0  0  0  0  0  0  0  0  0
   37.8850   76.7120   57.9400 C   0  0  0  0  0  0  0  0  0  0  0  0
   38.7210   77.7130   57.5390 C   0  0  0  0  0  0  0  0  0  0  0  0
   38.4130   78.3590   56.2850 N   0  0  0  0  0  0  0  0  0  0  0  0
   37.5500   79.4250   56.4570 C   0  0  0  0  0  0  0  0  0  0  0  0
   37.1130   80.1910   55.4140 C   0  0  0  0  0  0  0  0  0  0  0  0
   37.5790   79.8530   54.1380 C   0  0  0  0  0  0  0  0  0  0  0  0
   37.2040   80.5670   52.9680 N   0  0  0  0  0  0  0  0  0  0  0  0
   38.4090   78.8200   54.0220 N   0  0  0  0  0  0  0  0  0  0  0  0
   38.8210   78.0880   55.0490 C   0  0  0  0  0  0  0  0  0  0  0  0
   39.5890   77.1140   55.0230 O   0  0  0  0  0  0  0  0  0  0  0  0
   42.2910   84.5500   56.2120 C   0  0  0  0  0  0  0  0  0  0  0  0
   42.2580   83.1540   56.2650 C   0  0  0  0  0  0  0  0  0  0  0  0
   41.5430   82.5600   57.2850 C   0  0  0  0  0  0  0  0  0  0  0  0
   40.9050   83.3530   58.1860 N   0  0  0  0  0  0  0  0  0  0  0  0
   40.9770   84.6920   58.0780 C   0  0  0  0  0  0  0  0  0  0  0  0
   41.6670   85.2970   57.0930 N   0  0  0  0  0  0  0  0  0  0  0  0
   40.2370   85.4740   59.1250 C   0  0  0  0  0  0  0  0  0  0  0  0
   40.4180   84.7010   60.3630 N   0  0  0  0  0  0  0  0  0  0  0  0
   39.2990   84.0750   60.8340 C   0  0  0  0  0  0  0  0  0  0  0  0
   39.3300   83.3160   61.9890 C   0  0  0  0  0  0  0  0  0  0  0  0
   40.5560   83.2290   62.6330 C   0  0  0  0  0  0  0  0  0  0  0  0
   40.6280   82.5460   63.6910 O   0  0  0  0  0  0  0  0  0  0  0  0
   41.6480   83.8540   62.1520 N   0  0  0  0  0  0  0  0  0  0  0  0
   41.5890   84.5930   61.0170 C   0  0  0  0  0  0  0  0  0  0  0  0
   42.5760   85.1900   60.5340 O   0  0  0  0  0  0  0  0  0  0  0  0
   42.4163   78.0823   57.0470 H   0  0  0  0  0  0  0  0  0  0  0  0
   43.3811   80.5182   56.4755 H   0  0  0  0  0  0  0  0  0  0  0  0
   40.9185   77.6888   60.1453 H   0  0  0  0  0  0  0  0  0  0  0  0
   39.3729   75.8930   60.8171 H   0  0  0  0  0  0  0  0  0  0  0  0
   37.4141   75.2236   59.4427 H   0  0  0  0  0  0  0  0  0  0  0  0
   37.0278   76.4433   57.3051 H   0  0  0  0  0  0  0  0  0  0  0  0
   37.2020   79.6655   57.4724 H   0  0  0  0  0  0  0  0  0  0  0  0
   36.4257   81.0356   55.5697 H   0  0  0  0  0  0  0  0  0  0  0  0
   37.5728   80.2810   52.0498 H   0  0  0  0  0  0  0  0  0  0  0  0
   36.5634   81.3705   53.0382 H   0  0  0  0  0  0  0  0  0  0  0  0
   42.8581   85.0388   55.4061 H   0  0  0  0  0  0  0  0  0  0  0  0
   42.7865   82.5464   55.5156 H   0  0  0  0  0  0  0  0  0  0  0  0
   40.6641   86.4821   59.2308 H   0  0  0  0  0  0  0  0  0  0  0  0
   39.1757   85.6112   58.8705 H   0  0  0  0  0  0  0  0  0  0  0  0
   38.3528   84.1770   60.2823 H   0  0  0  0  0  0  0  0  0  0  0  0
   38.4333   82.8096   62.3757 H   0  0  0  0  0  0  0  0  0  0  0  0
   42.5428   83.7690   62.6550 H   0  0  0  0  0  0  0  0  0  0  0  0
  1  2  1  0
  3  2  2  0
  3  6  1  0
  4  3  1  0
  5  4  2  0
  5  1  1  0
  6  7  2  0
  7  8  1  0
  9  8  2  0
 10  9  1  0
 11 10  2  0
 11  6  1  0
 12 13  1  0
 12 11  1  0
 14 13  2  0
 15 14  1  0
 16 15  1  0
 17 15  2  0
 17 18  1  0
 18 12  1  0
 19 18  2  0
 20 21  2  0
 20 25  1  0
 21 22  1  0
 22  1  1  0
 22 23  2  0
 24 23  1  0
 24 26  1  0
 25 24  2  0
 26 27  1  0
 27 28  1  0
 27 33  1  0
 28 29  2  0
 29 30  1  0
 30 31  2  0
 32 30  1  0
 33 32  1  0
 34 33  2  0
  4 35  1  0
  5 36  1  0
  7 37  1  0
  8 38  1  0
  9 39  1  0
 10 40  1  0
 13 41  1  0
 14 42  1  0
 16 43  1  0
 16 44  1  0
 20 45  1  0
 21 46  1  0
 26 47  1  0
 26 48  1  0
 28 49  1  0
 29 50  1  0
 32 51  1  0
M  END
>  <Score>  (1) 
-7.78362

$$$$
