
     RDKit          3D

 50 54  0  0  0  0  0  0  0  0999 V2000
   41.1150   81.4190   60.4040 C   0  0  0  0  0  0  0  0  0  0  0  0
   42.1690   81.1970   61.3310 C   0  0  0  0  0  0  0  0  0  0  0  0
   42.4840   79.9000   61.7480 C   0  0  0  0  0  0  0  0  0  0  0  0
   41.7530   78.8870   61.2400 N   0  0  0  0  0  0  0  0  0  0  0  0
   40.7640   79.0910   60.3700 C   0  0  0  0  0  0  0  0  0  0  0  0
   40.4990   80.3380   60.0010 N   0  0  0  0  0  0  0  0  0  0  0  0
   39.9880   78.0230   59.8160 N   0  0  0  0  0  0  0  0  0  0  0  0
   39.6230   78.1500   58.5180 C   0  0  0  0  0  0  0  0  0  0  0  0
   38.8890   76.9940   58.2160 C   0  0  0  0  0  0  0  0  0  0  0  0
   38.8410   76.2300   59.3200 N   0  0  0  0  0  0  0  0  0  0  0  0
   39.5120   76.8720   60.2770 C   0  0  0  0  0  0  0  0  0  0  0  0
   39.7450   76.4780   61.6250 N   0  0  0  0  0  0  0  0  0  0  0  0
   38.3550   76.8720   56.8350 C   0  0  0  0  0  0  0  0  0  0  0  0
   38.2160   75.7160   56.1830 N   0  0  0  0  0  0  0  0  0  0  0  0
   37.7370   75.6090   54.9430 C   0  0  0  0  0  0  0  0  0  0  0  0
   37.3480   76.6830   54.2320 N   0  0  0  0  0  0  0  0  0  0  0  0
   37.4550   77.8920   54.8110 C   0  0  0  0  0  0  0  0  0  0  0  0
   37.0620   79.0020   54.0950 C   0  0  0  0  0  0  0  0  0  0  0  0
   37.1520   80.2640   54.6430 C   0  0  0  0  0  0  0  0  0  0  0  0
   37.6550   80.3720   55.9450 C   0  0  0  0  0  0  0  0  0  0  0  0
   38.0290   79.2280   56.6060 C   0  0  0  0  0  0  0  0  0  0  0  0
   37.9540   77.9550   56.0920 C   0  0  0  0  0  0  0  0  0  0  0  0
   40.7500   82.7420   59.9380 C   0  0  0  0  0  0  0  0  0  0  0  0
   41.2840   83.1110   58.7040 C   0  0  0  0  0  0  0  0  0  0  0  0
   40.9910   84.3650   58.1730 C   0  0  0  0  0  0  0  0  0  0  0  0
   40.1940   85.1780   58.8830 C   0  0  0  0  0  0  0  0  0  0  0  0
   39.6630   84.8430   60.0840 C   0  0  0  0  0  0  0  0  0  0  0  0
   39.9480   83.5860   60.6320 C   0  0  0  0  0  0  0  0  0  0  0  0
   39.3530   83.2720   61.9270 C   0  0  0  0  0  0  0  0  0  0  0  0
   38.1720   83.2250   62.2690 O   0  0  0  0  0  0  0  0  0  0  0  0
   40.0660   82.9560   63.0480 O   0  0  0  0  0  0  0  0  0  0  0  0
   40.8320   83.6960   63.8720 C   0  0  0  0  0  0  0  0  0  0  0  0
   42.0840   84.2980   63.4290 N   0  0  0  0  0  0  0  0  0  0  0  0
   40.3650   83.8120   65.0330 O   0  0  0  0  0  0  0  0  0  0  0  0
   42.7408   82.0510   61.7231 H   0  0  0  0  0  0  0  0  0  0  0  0
   43.2979   79.7129   62.4639 H   0  0  0  0  0  0  0  0  0  0  0  0
   39.8542   78.9860   57.8415 H   0  0  0  0  0  0  0  0  0  0  0  0
   39.3711   75.5832   61.9720 H   0  0  0  0  0  0  0  0  0  0  0  0
   40.2875   77.0878   62.2533 H   0  0  0  0  0  0  0  0  0  0  0  0
   37.6574   74.6111   54.4871 H   0  0  0  0  0  0  0  0  0  0  0  0
   36.6718   78.8797   53.0739 H   0  0  0  0  0  0  0  0  0  0  0  0
   36.8397   81.1542   54.0773 H   0  0  0  0  0  0  0  0  0  0  0  0
   37.7489   81.3551   56.4295 H   0  0  0  0  0  0  0  0  0  0  0  0
   38.4198   79.3389   57.6283 H   0  0  0  0  0  0  0  0  0  0  0  0
   41.9335   82.4153   58.1525 H   0  0  0  0  0  0  0  0  0  0  0  0
   41.4004   84.6791   57.2015 H   0  0  0  0  0  0  0  0  0  0  0  0
   39.9591   86.1693   58.4681 H   0  0  0  0  0  0  0  0  0  0  0  0
   39.0153   85.5505   60.6225 H   0  0  0  0  0  0  0  0  0  0  0  0
   42.6464   84.8586   64.0850 H   0  0  0  0  0  0  0  0  0  0  0  0
   42.4060   84.1626   62.4600 H   0  0  0  0  0  0  0  0  0  0  0  0
  1  2  2  0
  2  3  1  0
  4  3  2  0
  5  4  1  0
  6  5  2  0
  6  1  1  0
  7 11  1  0
  7  5  1  0
  8  7  1  0
  9  8  2  0
  9 10  1  0
 10 11  2  0
 11 12  1  0
 13  9  1  0
 14 13  2  0
 15 14  1  0
 16 17  1  0
 16 15  2  0
 17 22  2  0
 18 19  2  0
 18 17  1  0
 19 20  1  0
 20 21  2  0
 22 21  1  0
 22 13  1  0
 23  1  1  0
 23 28  1  0
 24 23  2  0
 25 24  1  0
 25 26  2  0
 26 27  1  0
 27 28  2  0
 28 29  1  0
 29 30  2  0
 29 31  1  0
 31 32  1  0
 32 34  2  0
 33 32  1  0
  2 35  1  0
  3 36  1  0
  8 37  1  0
 12 38  1  0
 12 39  1  0
 15 40  1  0
 18 41  1  0
 19 42  1  0
 20 43  1  0
 21 44  1  0
 24 45  1  0
 25 46  1  0
 26 47  1  0
 27 48  1  0
 33 49  1  0
 33 50  1  0
M  END
>  <Score>  (1) 
-8.96305

$$$$
