
     RDKit          3D

 46 51  0  0  0  0  0  0  0  0999 V2000
   43.3050   78.6060   61.0820 C   0  0  0  0  0  0  0  0  0  0  0  0
   42.9000   79.8430   61.6560 C   0  0  0  0  0  0  0  0  0  0  0  0
   41.5470   80.1330   61.7110 C   0  0  0  0  0  0  0  0  0  0  0  0
   40.6870   79.2070   61.2090 N   0  0  0  0  0  0  0  0  0  0  0  0
   41.0620   78.0620   60.6780 C   0  0  0  0  0  0  0  0  0  0  0  0
   42.3740   77.7490   60.6090 N   0  0  0  0  0  0  0  0  0  0  0  0
   39.9970   77.2240   60.2050 N   0  0  0  0  0  0  0  0  0  0  0  0
   39.7270   76.1370   60.9420 N   0  0  0  0  0  0  0  0  0  0  0  0
   38.6980   75.4750   60.3390 C   0  0  0  0  0  0  0  0  0  0  0  0
   38.3620   76.2100   59.2100 C   0  0  0  0  0  0  0  0  0  0  0  0
   39.1940   77.3130   59.1400 C   0  0  0  0  0  0  0  0  0  0  0  0
   39.2740   78.3740   58.1960 N   0  0  0  0  0  0  0  0  0  0  0  0
   40.0750   79.4710   58.2680 C   0  0  0  0  0  0  0  0  0  0  0  0
   39.8820   80.2730   57.1850 N   0  0  0  0  0  0  0  0  0  0  0  0
   38.9580   79.6920   56.4190 C   0  0  0  0  0  0  0  0  0  0  0  0
   38.3110   79.9420   55.2260 C   0  0  0  0  0  0  0  0  0  0  0  0
   37.3830   79.1360   54.6790 N   0  0  0  0  0  0  0  0  0  0  0  0
   37.0690   77.9980   55.3600 C   0  0  0  0  0  0  0  0  0  0  0  0
   37.6520   77.6770   56.5290 N   0  0  0  0  0  0  0  0  0  0  0  0
   38.5760   78.5110   57.0420 C   0  0  0  0  0  0  0  0  0  0  0  0
   40.9250   81.6570   62.4100 S   0  0  0  0  0  0  0  0  0  0  0  0
   43.9460   83.9840   62.8040 N   0  0  0  0  0  0  0  0  0  0  0  0
   43.2150   82.9070   63.0470 N   0  0  0  0  0  0  0  0  0  0  0  0
   42.1130   82.9800   62.2960 C   0  0  0  0  0  0  0  0  0  0  0  0
   42.1330   84.1480   61.5390 C   0  0  0  0  0  0  0  0  0  0  0  0
   43.2910   84.7460   61.8840 C   0  0  0  0  0  0  0  0  0  0  0  0
   43.6840   86.0060   61.3050 N   0  0  0  0  0  0  0  0  0  0  0  0
   44.0960   87.0690   61.9690 N   0  0  0  0  0  0  0  0  0  0  0  0
   44.3830   88.0690   61.1540 C   0  0  0  0  0  0  0  0  0  0  0  0
   44.1390   87.6200   59.8820 C   0  0  0  0  0  0  0  0  0  0  0  0
   43.6920   86.2960   59.9850 C   0  0  0  0  0  0  0  0  0  0  0  0
   43.3480   85.5470   58.7620 C   0  0  0  0  0  0  0  0  0  0  0  0
   43.9150   84.2910   58.7030 F   0  0  0  0  0  0  0  0  0  0  0  0
   43.9090   86.1870   57.6320 F   0  0  0  0  0  0  0  0  0  0  0  0
   42.0080   85.5810   58.4990 F   0  0  0  0  0  0  0  0  0  0  0  0
   44.3728   78.3482   61.0235 H   0  0  0  0  0  0  0  0  0  0  0  0
   43.6441   80.5525   62.0470 H   0  0  0  0  0  0  0  0  0  0  0  0
   38.2267   74.5416   60.6804 H   0  0  0  0  0  0  0  0  0  0  0  0
   37.5678   75.9577   58.4920 H   0  0  0  0  0  0  0  0  0  0  0  0
   40.7796   79.6806   59.0863 H   0  0  0  0  0  0  0  0  0  0  0  0
   38.5719   80.8636   54.6851 H   0  0  0  0  0  0  0  0  0  0  0  0
   36.3129   77.3187   54.9393 H   0  0  0  0  0  0  0  0  0  0  0  0
   44.8538   84.2073   63.2363 H   0  0  0  0  0  0  0  0  0  0  0  0
   41.3768   84.5021   60.8229 H   0  0  0  0  0  0  0  0  0  0  0  0
   44.7467   89.0668   61.4404 H   0  0  0  0  0  0  0  0  0  0  0  0
   44.2699   88.1931   58.9523 H   0  0  0  0  0  0  0  0  0  0  0  0
  1  2  2  0
  2  3  1  0
  3 21  1  0
  4  3  2  0
  5  4  1  0
  6  5  2  0
  6  1  1  0
  7  5  1  0
  7  8  1  0
  9  8  2  0
 10  9  1  0
 11 10  2  0
 11  7  1  0
 12 13  1  0
 12 11  1  0
 14 13  2  0
 15 20  2  0
 15 14  1  0
 16 15  1  0
 17 16  2  0
 17 18  1  0
 18 19  2  0
 19 20  1  0
 20 12  1  0
 22 23  1  0
 24 21  1  0
 24 23  2  0
 25 26  2  0
 25 24  1  0
 26 22  1  0
 27 26  1  0
 27 28  1  0
 29 28  2  0
 30 31  2  0
 30 29  1  0
 31 27  1  0
 32 31  1  0
 33 32  1  0
 34 32  1  0
 35 32  1  0
  1 36  1  0
  2 37  1  0
  9 38  1  0
 10 39  1  0
 13 40  1  0
 16 41  1  0
 18 42  1  0
 22 43  1  0
 25 44  1  0
 29 45  1  0
 30 46  1  0
M  END
>  <Score>  (1) 
-7.30897

$$$$
