
     RDKit          3D

 49 54  0  0  1  0  0  0  0  0999 V2000
   41.3230   78.5980   60.5810 C   0  0  0  0  0  0  0  0  0  0  0  0
   42.4140   78.8930   59.7830 C   0  0  0  0  0  0  0  0  0  0  0  0
   43.0810   77.8020   59.2260 C   0  0  0  0  0  0  0  0  0  0  0  0
   42.6390   76.5290   59.4900 C   0  0  0  0  0  0  0  0  0  0  0  0
   41.5440   76.2800   60.2940 C   0  0  0  0  0  0  0  0  0  0  0  0
   40.9140   77.3400   60.8200 N   0  0  0  0  0  0  0  0  0  0  0  0
   40.7270   81.8420   62.0480 N   0  0  0  0  0  0  0  0  0  0  0  0
   41.3050   80.4990   62.1890 C   0  0  0  0  0  0  0  0  0  0  0  0
   40.5620   79.6770   61.2130 C   0  0  1  0  0  0  0  0  0  0  0  0
   40.1920   80.6790   60.1300 C   0  0  0  0  0  0  0  0  0  0  0  0
   39.7010   81.8190   61.0510 C   0  0  0  0  0  0  0  0  0  0  0  0
   40.8720   84.6200   64.5390 C   0  0  0  0  0  0  0  0  0  0  0  0
   40.3940   83.4910   63.8800 C   0  0  0  0  0  0  0  0  0  0  0  0
   41.1250   82.9820   62.7840 C   0  0  0  0  0  0  0  0  0  0  0  0
   42.2470   83.6450   62.4600 N   0  0  0  0  0  0  0  0  0  0  0  0
   42.7030   84.7410   63.1050 C   0  0  0  0  0  0  0  0  0  0  0  0
   42.0110   85.2320   64.1510 N   0  0  0  0  0  0  0  0  0  0  0  0
   41.1230   74.9020   60.5390 C   0  0  0  0  0  0  0  0  0  0  0  0
   39.8810   74.3920   60.6330 C   0  0  0  0  0  0  0  0  0  0  0  0
   40.0090   73.0270   60.8750 C   0  0  0  0  0  0  0  0  0  0  0  0
   41.3510   72.7960   60.9120 C   0  0  0  0  0  0  0  0  0  0  0  0
   41.9900   73.9240   60.7110 O   0  0  0  0  0  0  0  0  0  0  0  0
   42.1050   71.5970   61.1230 N   0  0  0  0  0  0  0  0  0  0  0  0
   43.1170   71.5620   62.0090 C   0  0  0  0  0  0  0  0  0  0  0  0
   43.6220   70.2990   61.9750 N   0  0  0  0  0  0  0  0  0  0  0  0
   42.9050   69.6010   61.0670 C   0  0  0  0  0  0  0  0  0  0  0  0
   42.9370   68.2930   60.5930 C   0  0  0  0  0  0  0  0  0  0  0  0
   42.0660   67.8580   59.6480 N   0  0  0  0  0  0  0  0  0  0  0  0
   41.1410   68.7110   59.1540 C   0  0  0  0  0  0  0  0  0  0  0  0
   41.0650   69.9860   59.5760 N   0  0  0  0  0  0  0  0  0  0  0  0
   41.9190   70.4190   60.5030 C   0  0  0  0  0  0  0  0  0  0  0  0
   42.7368   79.9283   59.5985 H   0  0  0  0  0  0  0  0  0  0  0  0
   43.9562   77.9605   58.5788 H   0  0  0  0  0  0  0  0  0  0  0  0
   43.1758   75.6779   59.0456 H   0  0  0  0  0  0  0  0  0  0  0  0
   42.3790   80.5102   61.9513 H   0  0  0  0  0  0  0  0  0  0  0  0
   41.2210   80.1112   63.2149 H   0  0  0  0  0  0  0  0  0  0  0  0
   39.7327   79.1683   61.7264 H   0  0  0  0  0  0  0  0  0  0  0  0
   39.3958   80.3043   59.4700 H   0  0  0  0  0  0  0  0  0  0  0  0
   40.9913   80.9412   59.4212 H   0  0  0  0  0  0  0  0  0  0  0  0
   39.6440   82.7756   60.5109 H   0  0  0  0  0  0  0  0  0  0  0  0
   38.6884   81.6664   61.4528 H   0  0  0  0  0  0  0  0  0  0  0  0
   40.3095   85.0222   65.3944 H   0  0  0  0  0  0  0  0  0  0  0  0
   39.4635   83.0039   64.2070 H   0  0  0  0  0  0  0  0  0  0  0  0
   43.6331   85.2290   62.7781 H   0  0  0  0  0  0  0  0  0  0  0  0
   38.9384   74.9508   60.5364 H   0  0  0  0  0  0  0  0  0  0  0  0
   39.2005   72.2930   61.0078 H   0  0  0  0  0  0  0  0  0  0  0  0
   43.4679   72.3930   62.6385 H   0  0  0  0  0  0  0  0  0  0  0  0
   43.6865   67.5949   60.9941 H   0  0  0  0  0  0  0  0  0  0  0  0
   40.4346   68.3545   58.3898 H   0  0  0  0  0  0  0  0  0  0  0  0
  1  6  1  0
  1  9  1  0
  2  1  2  0
  3  4  2  0
  3  2  1  0
  4  5  1  0
  5 18  1  0
  5  6  2  0
  7  8  1  0
  7 14  1  0
  9  8  1  0
 10 11  1  0
 10  9  1  0
 11  7  1  0
 13 12  2  0
 14 13  1  0
 15 14  2  0
 15 16  1  0
 16 17  2  0
 17 12  1  0
 18 19  2  0
 18 22  1  0
 19 20  1  0
 20 21  2  0
 21 23  1  0
 22 21  1  0
 23 24  1  0
 25 24  2  0
 26 25  1  0
 27 26  2  0
 28 27  1  0
 29 30  1  0
 29 28  2  0
 30 31  2  0
 31 26  1  0
 31 23  1  0
  2 32  1  0
  3 33  1  0
  4 34  1  0
  8 35  1  0
  8 36  1  0
  9 37  1  1
 10 38  1  0
 10 39  1  0
 11 40  1  0
 11 41  1  0
 12 42  1  0
 13 43  1  0
 16 44  1  0
 19 45  1  0
 20 46  1  0
 24 47  1  0
 27 48  1  0
 29 49  1  0
M  END
>  <Score>  (1) 
-7.2792

$$$$
