
     RDKit          3D

 47 51  0  0  0  0  0  0  0  0999 V2000
   40.8040   80.9480   61.2780 C   0  0  0  0  0  0  0  0  0  0  0  0
   40.8380   79.7030   61.8810 C   0  0  0  0  0  0  0  0  0  0  0  0
   40.3700   78.6200   60.5940 S   0  0  0  0  0  0  0  0  0  0  0  0
   40.1670   79.9770   59.3330 C   0  0  0  0  0  0  0  0  0  0  0  0
   40.4750   81.0480   60.0450 N   0  0  0  0  0  0  0  0  0  0  0  0
   39.7660   79.8220   57.9370 C   0  0  0  0  0  0  0  0  0  0  0  0
   40.1730   80.7390   57.0020 C   0  0  0  0  0  0  0  0  0  0  0  0
   39.7460   80.5050   55.7290 C   0  0  0  0  0  0  0  0  0  0  0  0
   38.9730   79.4390   55.4120 N   0  0  0  0  0  0  0  0  0  0  0  0
   38.5870   78.5570   56.3360 C   0  0  0  0  0  0  0  0  0  0  0  0
   38.9940   78.7660   57.5940 N   0  0  0  0  0  0  0  0  0  0  0  0
   37.7780   77.4630   55.9330 N   0  0  0  0  0  0  0  0  0  0  0  0
   36.8860   77.6610   54.8060 C   0  0  0  0  0  0  0  0  0  0  0  0
   37.2890   76.6060   53.7740 C   0  0  0  0  0  0  0  0  0  0  0  0
   38.2380   75.7270   54.2430 O   0  0  0  0  0  0  0  0  0  0  0  0
   37.9440   75.1460   55.4620 C   0  0  0  0  0  0  0  0  0  0  0  0
   37.8000   76.1700   56.5890 C   0  0  0  0  0  0  0  0  0  0  0  0
   41.1380   82.2140   62.0100 C   0  0  0  0  0  0  0  0  0  0  0  0
   41.8930   83.1960   61.3320 C   0  0  0  0  0  0  0  0  0  0  0  0
   42.2310   84.3980   61.9760 C   0  0  0  0  0  0  0  0  0  0  0  0
   41.7800   84.5100   63.2480 N   0  0  0  0  0  0  0  0  0  0  0  0
   41.0720   83.5840   63.8760 C   0  0  0  0  0  0  0  0  0  0  0  0
   40.7620   82.4520   63.2500 N   0  0  0  0  0  0  0  0  0  0  0  0
   42.9990   85.4340   61.3310 C   0  0  0  0  0  0  0  0  0  0  0  0
   43.8540   86.3020   61.9930 C   0  0  0  0  0  0  0  0  0  0  0  0
   44.5830   87.2880   61.3600 C   0  0  0  0  0  0  0  0  0  0  0  0
   44.4320   87.3950   59.9750 C   0  0  0  0  0  0  0  0  0  0  0  0
   43.5790   86.5390   59.2640 C   0  0  0  0  0  0  0  0  0  0  0  0
   42.8870   85.5800   59.9800 C   0  0  0  0  0  0  0  0  0  0  0  0
   41.0974   79.4553   62.9209 H   0  0  0  0  0  0  0  0  0  0  0  0
   40.8010   81.6040   57.2616 H   0  0  0  0  0  0  0  0  0  0  0  0
   40.0389   81.2051   54.9327 H   0  0  0  0  0  0  0  0  0  0  0  0
   35.8399   77.5172   55.1141 H   0  0  0  0  0  0  0  0  0  0  0  0
   36.9635   78.6799   54.3989 H   0  0  0  0  0  0  0  0  0  0  0  0
   37.6937   77.1187   52.8889 H   0  0  0  0  0  0  0  0  0  0  0  0
   36.3891   76.0203   53.5351 H   0  0  0  0  0  0  0  0  0  0  0  0
   36.9984   74.5919   55.3680 H   0  0  0  0  0  0  0  0  0  0  0  0
   38.7821   74.4830   55.7229 H   0  0  0  0  0  0  0  0  0  0  0  0
   38.6527   76.1037   57.2807 H   0  0  0  0  0  0  0  0  0  0  0  0
   36.8916   75.9978   57.1850 H   0  0  0  0  0  0  0  0  0  0  0  0
   42.2176   83.0192   60.2960 H   0  0  0  0  0  0  0  0  0  0  0  0
   40.7413   83.7502   64.9119 H   0  0  0  0  0  0  0  0  0  0  0  0
   43.9569   86.1989   63.0833 H   0  0  0  0  0  0  0  0  0  0  0  0
   45.2518   87.9585   61.9196 H   0  0  0  0  0  0  0  0  0  0  0  0
   44.9946   88.1677   59.4306 H   0  0  0  0  0  0  0  0  0  0  0  0
   43.4643   86.6275   58.1736 H   0  0  0  0  0  0  0  0  0  0  0  0
   42.2141   84.9026   59.4338 H   0  0  0  0  0  0  0  0  0  0  0  0
  1  2  2  0
  1 18  1  0
  3  2  1  0
  4  5  2  0
  4  3  1  0
  5  1  1  0
  6  4  1  0
  7  6  2  0
  8  7  1  0
  9  8  2  0
  9 10  1  0
 10 11  2  0
 11  6  1  0
 12 10  1  0
 12 17  1  0
 13 12  1  0
 14 15  1  0
 14 13  1  0
 15 16  1  0
 16 17  1  0
 18 23  2  0
 19 20  2  0
 19 18  1  0
 20 21  1  0
 21 22  2  0
 23 22  1  0
 24 20  1  0
 24 25  2  0
 26 25  1  0
 27 26  2  0
 28 27  1  0
 28 29  2  0
 29 24  1  0
  2 30  1  0
  7 31  1  0
  8 32  1  0
 13 33  1  0
 13 34  1  0
 14 35  1  0
 14 36  1  0
 16 37  1  0
 16 38  1  0
 17 39  1  0
 17 40  1  0
 19 41  1  0
 22 42  1  0
 25 43  1  0
 26 44  1  0
 27 45  1  0
 28 46  1  0
 29 47  1  0
M  END
>  <Score>  (1) 
-7.00162

$$$$
