
     RDKit          3D

 47 51  0  0  0  0  0  0  0  0999 V2000
   43.0640   85.2340   59.5720 C   0  0  0  0  0  0  0  0  0  0  0  0
   43.3020   86.4670   59.5780 O   0  0  0  0  0  0  0  0  0  0  0  0
   42.5680   84.4310   63.1830 C   0  0  0  0  0  0  0  0  0  0  0  0
   42.8620   85.1730   62.0190 C   0  0  0  0  0  0  0  0  0  0  0  0
   42.7780   84.5430   60.8040 C   0  0  0  0  0  0  0  0  0  0  0  0
   42.4150   83.2390   60.7930 N   0  0  0  0  0  0  0  0  0  0  0  0
   42.1350   82.5370   61.9130 C   0  0  0  0  0  0  0  0  0  0  0  0
   42.2140   83.1390   63.0990 N   0  0  0  0  0  0  0  0  0  0  0  0
   41.7550   81.1670   61.8730 N   0  0  0  0  0  0  0  0  0  0  0  0
   42.7240   80.2670   61.8350 C   0  0  0  0  0  0  0  0  0  0  0  0
   42.3450   78.9350   61.7970 C   0  0  0  0  0  0  0  0  0  0  0  0
   41.0170   78.6320   61.8020 C   0  0  0  0  0  0  0  0  0  0  0  0
   40.4980   77.3070   61.7660 N   0  0  0  0  0  0  0  0  0  0  0  0
   40.0570   79.5830   61.8420 N   0  0  0  0  0  0  0  0  0  0  0  0
   40.4150   80.9090   61.8800 C   0  0  0  0  0  0  0  0  0  0  0  0
   39.5810   81.8740   61.9190 O   0  0  0  0  0  0  0  0  0  0  0  0
   43.0790   84.5060   58.2980 C   0  0  0  0  0  0  0  0  0  0  0  0
   44.0430   84.3330   57.3240 C   0  0  0  0  0  0  0  0  0  0  0  0
   43.7510   83.5920   56.2450 C   0  0  0  0  0  0  0  0  0  0  0  0
   42.5270   83.0110   56.0920 C   0  0  0  0  0  0  0  0  0  0  0  0
   41.6700   83.5790   57.6740 S   0  0  0  0  0  0  0  0  0  0  0  0
   41.9040   82.2210   55.1570 C   0  0  0  0  0  0  0  0  0  0  0  0
   42.2730   82.2260   53.8130 C   0  0  0  0  0  0  0  0  0  0  0  0
   41.6290   81.4170   52.8820 C   0  0  0  0  0  0  0  0  0  0  0  0
   40.6180   80.6070   53.3110 N   0  0  0  0  0  0  0  0  0  0  0  0
   40.2650   80.6050   54.6100 C   0  0  0  0  0  0  0  0  0  0  0  0
   40.9000   81.3910   55.4760 N   0  0  0  0  0  0  0  0  0  0  0  0
   39.1740   79.7400   55.1080 C   0  0  0  0  0  0  0  0  0  0  0  0
   38.2080   80.3340   55.9270 C   0  0  0  0  0  0  0  0  0  0  0  0
   37.2180   79.4820   56.3600 C   0  0  0  0  0  0  0  0  0  0  0  0
   37.1460   78.1480   56.0380 C   0  0  0  0  0  0  0  0  0  0  0  0
   38.1530   77.6500   55.2180 C   0  0  0  0  0  0  0  0  0  0  0  0
   39.1240   78.4360   54.7800 N   0  0  0  0  0  0  0  0  0  0  0  0
   42.6295   84.9161   64.1683 H   0  0  0  0  0  0  0  0  0  0  0  0
   43.1518   86.2321   62.0849 H   0  0  0  0  0  0  0  0  0  0  0  0
   43.7834   80.5631   61.8336 H   0  0  0  0  0  0  0  0  0  0  0  0
   43.1019   78.1375   61.7634 H   0  0  0  0  0  0  0  0  0  0  0  0
   39.4797   77.1524   61.7723 H   0  0  0  0  0  0  0  0  0  0  0  0
   41.1408   76.5028   61.7337 H   0  0  0  0  0  0  0  0  0  0  0  0
   45.0350   84.7959   57.4317 H   0  0  0  0  0  0  0  0  0  0  0  0
   44.5153   83.4499   55.4668 H   0  0  0  0  0  0  0  0  0  0  0  0
   43.0904   82.8832   53.4814 H   0  0  0  0  0  0  0  0  0  0  0  0
   41.9282   81.4301   51.8236 H   0  0  0  0  0  0  0  0  0  0  0  0
   38.2375   81.3984   56.2031 H   0  0  0  0  0  0  0  0  0  0  0  0
   36.4313   79.8966   57.0074 H   0  0  0  0  0  0  0  0  0  0  0  0
   36.3333   77.5067   56.4098 H   0  0  0  0  0  0  0  0  0  0  0  0
   38.1424   76.5886   54.9295 H   0  0  0  0  0  0  0  0  0  0  0  0
  1  2  2  0
  1  5  1  0
  4  3  2  0
  5  4  1  0
  6  5  2  0
  6  7  1  0
  7  8  2  0
  8  3  1  0
  9 15  1  0
  9  7  1  0
 10  9  1  0
 11 12  1  0
 11 10  2  0
 12 14  2  0
 13 12  1  0
 14 15  1  0
 15 16  2  0
 17  1  1  0
 18 17  2  0
 19 18  1  0
 20 19  2  0
 20 21  1  0
 21 17  1  0
 22 27  1  0
 22 20  1  0
 23 22  2  0
 24 25  2  0
 24 23  1  0
 25 26  1  0
 26 28  1  0
 26 27  2  0
 28 29  2  0
 29 30  1  0
 31 30  2  0
 32 31  1  0
 33 28  1  0
 33 32  2  0
  3 34  1  0
  4 35  1  0
 10 36  1  0
 11 37  1  0
 13 38  1  0
 13 39  1  0
 18 40  1  0
 19 41  1  0
 23 42  1  0
 24 43  1  0
 29 44  1  0
 30 45  1  0
 31 46  1  0
 32 47  1  0
M  END
>  <Score>  (1) 
-7.17921

$$$$
