
     RDKit          3D

 54 57  0  0  0  0  0  0  0  0999 V2000
   40.9410   81.0190   61.7490 N   0  0  0  0  0  0  0  0  0  0  0  0
   40.8040   79.8610   62.4310 C   0  0  0  0  0  0  0  0  0  0  0  0
   40.5210   78.7040   61.7400 C   0  0  0  0  0  0  0  0  0  0  0  0
   40.3750   78.7130   60.3670 C   0  0  0  0  0  0  0  0  0  0  0  0
   40.1240   77.6310   59.8010 O   0  0  0  0  0  0  0  0  0  0  0  0
   40.5150   79.8620   59.7380 N   0  0  0  0  0  0  0  0  0  0  0  0
   40.7970   81.0260   60.3960 C   0  0  0  0  0  0  0  0  0  0  0  0
   40.9000   82.0300   59.6530 O   0  0  0  0  0  0  0  0  0  0  0  0
   41.2340   82.2930   62.3030 C   0  0  0  0  0  0  0  0  0  0  0  0
   42.2450   83.0710   61.7310 C   0  0  0  0  0  0  0  0  0  0  0  0
   42.5220   84.3480   62.2940 C   0  0  0  0  0  0  0  0  0  0  0  0
   41.7620   84.7320   63.3820 N   0  0  0  0  0  0  0  0  0  0  0  0
   40.8090   83.9310   63.8760 C   0  0  0  0  0  0  0  0  0  0  0  0
   40.5440   82.7320   63.3530 N   0  0  0  0  0  0  0  0  0  0  0  0
   40.0930   84.4330   64.9830 N   0  0  0  0  0  0  0  0  0  0  0  0
   43.5150   85.2100   61.7930 N   0  0  0  0  0  0  0  0  0  0  0  0
   43.4690   86.4420   62.3000 N   0  0  0  0  0  0  0  0  0  0  0  0
   44.4310   87.2000   61.7760 C   0  0  0  0  0  0  0  0  0  0  0  0
   45.1130   86.3810   60.8900 C   0  0  0  0  0  0  0  0  0  0  0  0
   44.5270   85.1610   60.9210 C   0  0  0  0  0  0  0  0  0  0  0  0
   40.2950   79.8070   58.3030 C   0  0  0  0  0  0  0  0  0  0  0  0
   40.1050   81.0710   57.5860 C   0  0  0  0  0  0  0  0  0  0  0  0
   41.5820   79.2110   57.6420 C   0  0  0  0  0  0  0  0  0  0  0  0
   39.2120   78.8310   57.9010 C   0  0  0  0  0  0  0  0  0  0  0  0
   37.8970   79.4440   53.8300 C   0  0  0  0  0  0  0  0  0  0  0  0
   38.9110   78.5470   54.0930 C   0  0  0  0  0  0  0  0  0  0  0  0
   39.3830   78.3110   55.3670 C   0  0  0  0  0  0  0  0  0  0  0  0
   38.8090   79.0120   56.4340 C   0  0  0  0  0  0  0  0  0  0  0  0
   37.7820   79.9130   56.1220 C   0  0  0  0  0  0  0  0  0  0  0  0
   37.3090   80.1500   54.8510 C   0  0  0  0  0  0  0  0  0  0  0  0
   37.3110   79.7310   52.2080 S   0  0  0  0  0  0  0  0  0  0  0  0
   38.0450   78.9200   51.1920 O   0  0  0  0  0  0  0  0  0  0  0  0
   37.5480   81.2030   51.9190 O   0  0  0  0  0  0  0  0  0  0  0  0
   40.9171   79.8425   63.5250 H   0  0  0  0  0  0  0  0  0  0  0  0
   40.4095   77.7581   62.2903 H   0  0  0  0  0  0  0  0  0  0  0  0
   42.8141   82.7037   60.8643 H   0  0  0  0  0  0  0  0  0  0  0  0
   39.3461   83.8684   65.4123 H   0  0  0  0  0  0  0  0  0  0  0  0
   40.3171   85.3641   65.3620 H   0  0  0  0  0  0  0  0  0  0  0  0
   44.6405   88.2564   62.0000 H   0  0  0  0  0  0  0  0  0  0  0  0
   45.9759   86.6704   60.2722 H   0  0  0  0  0  0  0  0  0  0  0  0
   44.8305   84.2831   60.3318 H   0  0  0  0  0  0  0  0  0  0  0  0
   39.9820   81.8890   58.3111 H   0  0  0  0  0  0  0  0  0  0  0  0
   40.9833   81.2699   56.9544 H   0  0  0  0  0  0  0  0  0  0  0  0
   39.2070   81.0029   56.9544 H   0  0  0  0  0  0  0  0  0  0  0  0
   42.2811   78.8872   58.4271 H   0  0  0  0  0  0  0  0  0  0  0  0
   41.3074   78.3484   57.0171 H   0  0  0  0  0  0  0  0  0  0  0  0
   42.0622   79.9784   57.0171 H   0  0  0  0  0  0  0  0  0  0  0  0
   39.5832   77.8057   58.0458 H   0  0  0  0  0  0  0  0  0  0  0  0
   38.3277   79.0196   58.5275 H   0  0  0  0  0  0  0  0  0  0  0  0
   39.3613   77.9979   53.2529 H   0  0  0  0  0  0  0  0  0  0  0  0
   40.1931   77.5875   55.5410 H   0  0  0  0  0  0  0  0  0  0  0  0
   37.3213   80.4701   56.9511 H   0  0  0  0  0  0  0  0  0  0  0  0
   36.4992   80.8701   54.6622 H   0  0  0  0  0  0  0  0  0  0  0  0
   35.9892   79.3789   52.1315 H   0  0  0  0  0  0  0  0  0  0  0  0
  1  9  1  0
  1  2  1  0
  3  2  2  0
  4  3  1  0
  5  4  2  0
  6  4  1  0
  6  7  1  0
  7  1  1  0
  8  7  2  0
  9 14  2  0
 10 11  2  0
 10  9  1  0
 11 12  1  0
 12 13  2  0
 13 15  1  0
 14 13  1  0
 16 11  1  0
 16 17  1  0
 18 17  2  0
 19 20  2  0
 19 18  1  0
 20 16  1  0
 21  6  1  0
 22 21  1  0
 23 21  1  0
 24 21  1  0
 25 26  2  0
 25 30  1  0
 26 27  1  0
 27 28  2  0
 28 24  1  0
 29 28  1  0
 30 29  2  0
 31 25  1  0
 32 31  2  0
 33 31  2  0
  2 34  1  0
  3 35  1  0
 10 36  1  0
 15 37  1  0
 15 38  1  0
 18 39  1  0
 19 40  1  0
 20 41  1  0
 22 42  1  0
 22 43  1  0
 22 44  1  0
 23 45  1  0
 23 46  1  0
 23 47  1  0
 24 48  1  0
 24 49  1  0
 26 50  1  0
 27 51  1  0
 29 52  1  0
 30 53  1  0
 31 54  1  0
M  END
>  <Score>  (1) 
-7.62044

$$$$
