
     RDKit          3D

 45 49  0  0  0  0  0  0  0  0999 V2000
   38.9770   83.5230   61.8150 C   0  0  0  0  0  0  0  0  0  0  0  0
   39.5880   84.4330   60.9510 C   0  0  0  0  0  0  0  0  0  0  0  0
   40.7490   84.0150   60.2640 C   0  0  0  0  0  0  0  0  0  0  0  0
   41.2010   82.7680   60.4800 N   0  0  0  0  0  0  0  0  0  0  0  0
   40.5780   81.9050   61.3320 C   0  0  0  0  0  0  0  0  0  0  0  0
   39.4710   82.2860   61.9940 N   0  0  0  0  0  0  0  0  0  0  0  0
   41.3880   84.9570   59.3630 C   0  0  0  0  0  0  0  0  0  0  0  0
   40.9920   85.3360   58.1220 C   0  0  0  0  0  0  0  0  0  0  0  0
   41.8490   86.2330   57.6000 N   0  0  0  0  0  0  0  0  0  0  0  0
   42.8140   86.4280   58.5370 C   0  0  0  0  0  0  0  0  0  0  0  0
   43.9230   87.2550   58.4840 C   0  0  0  0  0  0  0  0  0  0  0  0
   44.7970   87.3030   59.5720 C   0  0  0  0  0  0  0  0  0  0  0  0
   44.5660   86.5410   60.6810 C   0  0  0  0  0  0  0  0  0  0  0  0
   43.4400   85.7350   60.6720 C   0  0  0  0  0  0  0  0  0  0  0  0
   42.5480   85.6510   59.6280 C   0  0  0  0  0  0  0  0  0  0  0  0
   41.1150   80.5510   61.5310 C   0  0  0  0  0  0  0  0  0  0  0  0
   40.2850   79.4700   61.3690 C   0  0  0  0  0  0  0  0  0  0  0  0
   40.7740   78.1720   61.5520 C   0  0  0  0  0  0  0  0  0  0  0  0
   42.1070   78.0920   61.8950 C   0  0  0  0  0  0  0  0  0  0  0  0
   42.9440   79.1720   62.0590 C   0  0  0  0  0  0  0  0  0  0  0  0
   42.4200   80.3960   61.8700 N   0  0  0  0  0  0  0  0  0  0  0  0
   44.3080   78.9930   62.4140 N   0  0  0  0  0  0  0  0  0  0  0  0
   45.2320   80.1140   62.5980 C   0  0  0  0  0  0  0  0  0  0  0  0
   46.6020   79.4870   62.7310 C   0  0  0  0  0  0  0  0  0  0  0  0
   46.3260   78.0760   63.1980 C   0  0  0  0  0  0  0  0  0  0  0  0
   44.9650   77.7330   62.6390 C   0  0  0  0  0  0  0  0  0  0  0  0
   38.0713   83.8248   62.3614 H   0  0  0  0  0  0  0  0  0  0  0  0
   39.1782   85.4440   60.8096 H   0  0  0  0  0  0  0  0  0  0  0  0
   40.0926   84.9611   57.6117 H   0  0  0  0  0  0  0  0  0  0  0  0
   41.7861   86.6820   56.6751 H   0  0  0  0  0  0  0  0  0  0  0  0
   44.1142   87.8694   57.5919 H   0  0  0  0  0  0  0  0  0  0  0  0
   45.6785   87.9599   59.5352 H   0  0  0  0  0  0  0  0  0  0  0  0
   45.2458   86.5662   61.5454 H   0  0  0  0  0  0  0  0  0  0  0  0
   43.2451   85.1187   61.5620 H   0  0  0  0  0  0  0  0  0  0  0  0
   39.2312   79.6248   61.0942 H   0  0  0  0  0  0  0  0  0  0  0  0
   40.1412   77.2804   61.4311 H   0  0  0  0  0  0  0  0  0  0  0  0
   42.5334   77.0898   62.0491 H   0  0  0  0  0  0  0  0  0  0  0  0
   45.1993   80.7866   61.7282 H   0  0  0  0  0  0  0  0  0  0  0  0
   44.9714   80.7188   63.4791 H   0  0  0  0  0  0  0  0  0  0  0  0
   47.1232   79.4815   61.7624 H   0  0  0  0  0  0  0  0  0  0  0  0
   47.2503   80.0397   63.4269 H   0  0  0  0  0  0  0  0  0  0  0  0
   47.0882   77.3849   62.8089 H   0  0  0  0  0  0  0  0  0  0  0  0
   46.3529   77.9931   64.2945 H   0  0  0  0  0  0  0  0  0  0  0  0
   44.3960   77.1270   63.3594 H   0  0  0  0  0  0  0  0  0  0  0  0
   45.0429   77.1445   61.7129 H   0  0  0  0  0  0  0  0  0  0  0  0
  1  6  2  0
  2  1  1  0
  3  4  1  0
  3  2  2  0
  4  5  2  0
  5 16  1  0
  5  6  1  0
  7 15  1  0
  7  3  1  0
  8  7  2  0
  9  8  1  0
  9 10  1  0
 10 15  2  0
 11 10  1  0
 11 12  2  0
 12 13  1  0
 14 13  2  0
 15 14  1  0
 16 21  1  0
 17 16  2  0
 17 18  1  0
 18 19  2  0
 19 20  1  0
 20 22  1  0
 21 20  2  0
 22 23  1  0
 22 26  1  0
 23 24  1  0
 24 25  1  0
 26 25  1  0
  1 27  1  0
  2 28  1  0
  8 29  1  0
  9 30  1  0
 11 31  1  0
 12 32  1  0
 13 33  1  0
 14 34  1  0
 17 35  1  0
 18 36  1  0
 19 37  1  0
 23 38  1  0
 23 39  1  0
 24 40  1  0
 24 41  1  0
 25 42  1  0
 25 43  1  0
 26 44  1  0
 26 45  1  0
M  END
>  <Score>  (1) 
-7.03058

$$$$
