
     RDKit          3D

 45 49  0  0  0  0  0  0  0  0999 V2000
   41.3060   79.4950   62.1220 C   0  0  0  0  0  0  0  0  0  0  0  0
   41.5450   78.1030   61.6270 C   0  0  0  0  0  0  0  0  0  0  0  0
   42.8160   77.5700   61.6070 C   0  0  0  0  0  0  0  0  0  0  0  0
   42.9730   76.2750   61.1360 C   0  0  0  0  0  0  0  0  0  0  0  0
   41.9050   75.5800   60.7150 N   0  0  0  0  0  0  0  0  0  0  0  0
   40.6960   76.1530   60.7590 C   0  0  0  0  0  0  0  0  0  0  0  0
   40.5290   77.3790   61.2030 N   0  0  0  0  0  0  0  0  0  0  0  0
   39.5160   75.4360   60.3140 C   0  0  0  0  0  0  0  0  0  0  0  0
   38.3750   75.5570   60.8210 O   0  0  0  0  0  0  0  0  0  0  0  0
   38.6690   74.4360   55.8310 N   0  0  0  0  0  0  0  0  0  0  0  0
   38.1630   75.6580   56.1690 C   0  0  0  0  0  0  0  0  0  0  0  0
   38.4510   75.8670   57.4770 N   0  0  0  0  0  0  0  0  0  0  0  0
   39.1130   74.8220   57.9490 C   0  0  0  0  0  0  0  0  0  0  0  0
   39.6460   74.4950   59.1890 C   0  0  0  0  0  0  0  0  0  0  0  0
   40.2840   73.3060   59.3500 N   0  0  0  0  0  0  0  0  0  0  0  0
   40.4260   72.4180   58.3530 C   0  0  0  0  0  0  0  0  0  0  0  0
   39.9180   72.7150   57.1480 N   0  0  0  0  0  0  0  0  0  0  0  0
   39.2700   73.8850   56.9220 C   0  0  0  0  0  0  0  0  0  0  0  0
   40.1300   80.1290   61.4040 C   0  0  0  0  0  0  0  0  0  0  0  0
   40.2790   81.5960   61.6020 C   0  0  0  0  0  0  0  0  0  0  0  0
   40.2290   82.4910   60.5050 C   0  0  0  0  0  0  0  0  0  0  0  0
   40.3760   83.8180   60.7900 C   0  0  0  0  0  0  0  0  0  0  0  0
   40.5580   84.2060   62.0730 N   0  0  0  0  0  0  0  0  0  0  0  0
   40.6040   83.3310   63.0980 C   0  0  0  0  0  0  0  0  0  0  0  0
   40.4630   82.0190   62.8590 N   0  0  0  0  0  0  0  0  0  0  0  0
   40.3290   84.7640   59.6970 C   0  0  0  0  0  0  0  0  0  0  0  0
   41.4190   84.9890   58.8830 C   0  0  0  0  0  0  0  0  0  0  0  0
   41.2490   85.9210   57.8680 C   0  0  0  0  0  0  0  0  0  0  0  0
   40.0690   86.5820   57.6830 N   0  0  0  0  0  0  0  0  0  0  0  0
   39.0270   86.3310   58.5040 C   0  0  0  0  0  0  0  0  0  0  0  0
   39.1570   85.4230   59.5100 N   0  0  0  0  0  0  0  0  0  0  0  0
   41.0945   79.4624   63.2010 H   0  0  0  0  0  0  0  0  0  0  0  0
   42.2049   80.0977   61.9253 H   0  0  0  0  0  0  0  0  0  0  0  0
   43.6805   78.1547   61.9545 H   0  0  0  0  0  0  0  0  0  0  0  0
   43.9730   75.8176   61.1075 H   0  0  0  0  0  0  0  0  0  0  0  0
   38.6063   74.0003   54.8998 H   0  0  0  0  0  0  0  0  0  0  0  0
   37.6216   76.3460   55.5030 H   0  0  0  0  0  0  0  0  0  0  0  0
   40.9490   71.4651   58.5214 H   0  0  0  0  0  0  0  0  0  0  0  0
   39.1818   79.7781   61.8374 H   0  0  0  0  0  0  0  0  0  0  0  0
   40.1156   79.8634   60.3367 H   0  0  0  0  0  0  0  0  0  0  0  0
   40.0792   82.1346   59.4752 H   0  0  0  0  0  0  0  0  0  0  0  0
   40.7565   83.6919   64.1259 H   0  0  0  0  0  0  0  0  0  0  0  0
   42.3716   84.4589   59.0298 H   0  0  0  0  0  0  0  0  0  0  0  0
   42.0907   86.1332   57.1924 H   0  0  0  0  0  0  0  0  0  0  0  0
   38.0733   86.8600   58.3601 H   0  0  0  0  0  0  0  0  0  0  0  0
  2  1  1  0
  3  2  2  0
  4  3  1  0
  5  6  1  0
  5  4  2  0
  6  7  2  0
  7  2  1  0
  8  6  1  0
  8  9  2  0
 10 11  1  0
 10 18  1  0
 11 12  2  0
 12 13  1  0
 13 14  2  0
 14 15  1  0
 14  8  1  0
 16 15  2  0
 17 16  1  0
 18 17  2  0
 18 13  1  0
 19 20  1  0
 19  1  1  0
 20 25  2  0
 21 22  2  0
 21 20  1  0
 22 23  1  0
 23 24  2  0
 25 24  1  0
 26 22  1  0
 27 26  2  0
 28 27  1  0
 29 28  2  0
 29 30  1  0
 30 31  2  0
 31 26  1  0
  1 32  1  0
  1 33  1  0
  3 34  1  0
  4 35  1  0
 10 36  1  0
 11 37  1  0
 16 38  1  0
 19 39  1  0
 19 40  1  0
 21 41  1  0
 24 42  1  0
 27 43  1  0
 28 44  1  0
 30 45  1  0
M  END
>  <Score>  (1) 
-7.43556

$$$$
