
     RDKit          3D

 47 51  0  0  1  0  0  0  0  0999 V2000
   40.9440   81.6500   58.9520 C   0  0  1  0  0  0  0  0  0  0  0  0
   41.9230   80.6840   59.4730 C   0  0  0  0  0  0  0  0  0  0  0  0
   41.4400   79.2790   59.6390 C   0  0  0  0  0  0  0  0  0  0  0  0
   40.4730   78.7930   58.6030 C   0  0  2  0  0  0  0  0  0  0  0  0
   39.4990   79.7620   58.0820 C   0  0  0  0  0  0  0  0  0  0  0  0
   40.0280   81.1330   57.8960 C   0  0  0  0  0  0  0  0  0  0  0  0
   39.9410   81.8750   61.2320 C   0  0  0  0  0  0  0  0  0  0  0  0
   40.2090   82.4090   59.9920 C   0  0  0  0  0  0  0  0  0  0  0  0
   39.7500   83.7090   59.7730 C   0  0  0  0  0  0  0  0  0  0  0  0
   39.0910   84.3450   60.7550 N   0  0  0  0  0  0  0  0  0  0  0  0
   38.8460   83.7990   61.9490 C   0  0  0  0  0  0  0  0  0  0  0  0
   39.2770   82.5340   62.2050 N   0  0  0  0  0  0  0  0  0  0  0  0
   39.7790   77.6560   59.1390 N   0  0  0  0  0  0  0  0  0  0  0  0
   39.9290   77.0310   60.3320 C   0  0  0  0  0  0  0  0  0  0  0  0
   39.0390   75.9820   60.4930 C   0  0  0  0  0  0  0  0  0  0  0  0
   38.3290   75.9690   59.3680 N   0  0  0  0  0  0  0  0  0  0  0  0
   38.7780   76.9720   58.5590 C   0  0  0  0  0  0  0  0  0  0  0  0
   38.0430   77.0000   57.3190 C   0  0  0  0  0  0  0  0  0  0  0  0
   36.7000   77.3870   57.1330 C   0  0  0  0  0  0  0  0  0  0  0  0
   36.2580   77.2130   55.8780 N   0  0  0  0  0  0  0  0  0  0  0  0
   37.2500   76.7030   55.1380 C   0  0  0  0  0  0  0  0  0  0  0  0
   37.3820   76.3090   53.8270 C   0  0  0  0  0  0  0  0  0  0  0  0
   38.5530   75.7820   53.3300 C   0  0  0  0  0  0  0  0  0  0  0  0
   39.6300   75.6440   54.1800 C   0  0  0  0  0  0  0  0  0  0  0  0
   39.4700   76.0480   55.4840 C   0  0  0  0  0  0  0  0  0  0  0  0
   38.3070   76.5790   56.0030 C   0  0  0  0  0  0  0  0  0  0  0  0
   41.5976   82.3727   58.4416 H   0  0  0  0  0  0  0  0  0  0  0  0
   42.7774   80.6655   58.7805 H   0  0  0  0  0  0  0  0  0  0  0  0
   42.1693   81.0323   60.4869 H   0  0  0  0  0  0  0  0  0  0  0  0
   42.3176   78.6162   59.6182 H   0  0  0  0  0  0  0  0  0  0  0  0
   40.8890   79.2641   60.5909 H   0  0  0  0  0  0  0  0  0  0  0  0
   41.0919   78.5557   57.7252 H   0  0  0  0  0  0  0  0  0  0  0  0
   39.1411   79.3978   57.1077 H   0  0  0  0  0  0  0  0  0  0  0  0
   38.7015   79.8366   58.8360 H   0  0  0  0  0  0  0  0  0  0  0  0
   40.5759   81.1515   56.9423 H   0  0  0  0  0  0  0  0  0  0  0  0
   39.1459   81.7890   57.9344 H   0  0  0  0  0  0  0  0  0  0  0  0
   40.2879   80.8525   61.4421 H   0  0  0  0  0  0  0  0  0  0  0  0
   39.9260   84.2063   58.8078 H   0  0  0  0  0  0  0  0  0  0  0  0
   38.3011   84.3664   62.7179 H   0  0  0  0  0  0  0  0  0  0  0  0
   40.6734   77.3237   61.0871 H   0  0  0  0  0  0  0  0  0  0  0  0
   38.9411   75.3096   61.3581 H   0  0  0  0  0  0  0  0  0  0  0  0
   36.0735   77.7933   57.9407 H   0  0  0  0  0  0  0  0  0  0  0  0
   35.3109   77.4354   55.5397 H   0  0  0  0  0  0  0  0  0  0  0  0
   36.5211   76.4188   53.1511 H   0  0  0  0  0  0  0  0  0  0  0  0
   38.6279   75.4771   52.2758 H   0  0  0  0  0  0  0  0  0  0  0  0
   40.5839   75.2252   53.8268 H   0  0  0  0  0  0  0  0  0  0  0  0
   40.3298   75.9404   56.1617 H   0  0  0  0  0  0  0  0  0  0  0  0
  1  2  1  0
  1  8  1  0
  2  3  1  0
  4 13  1  0
  4  3  1  0
  5  4  1  0
  6  5  1  0
  6  1  1  0
  7 12  2  0
  8  7  1  0
  9  8  2  0
  9 10  1  0
 10 11  2  0
 11 12  1  0
 13 14  1  0
 14 15  2  0
 16 15  1  0
 17 13  1  0
 17 16  2  0
 18 17  1  0
 19 18  2  0
 20 19  1  0
 21 20  1  0
 21 26  2  0
 22 21  1  0
 23 22  2  0
 23 24  1  0
 24 25  2  0
 25 26  1  0
 26 18  1  0
  1 27  1  6
  2 28  1  0
  2 29  1  0
  3 30  1  0
  3 31  1  0
  4 32  1  6
  5 33  1  0
  5 34  1  0
  6 35  1  0
  6 36  1  0
  7 37  1  0
  9 38  1  0
 11 39  1  0
 14 40  1  0
 15 41  1  0
 19 42  1  0
 20 43  1  0
 22 44  1  0
 23 45  1  0
 24 46  1  0
 25 47  1  0
M  END
>  <Score>  (1) 
-7.17868

$$$$
