
     RDKit          3D

 41 44  0  0  1  0  0  0  0  0999 V2000
   43.3310   85.3670   58.7210 C   0  0  1  0  0  0  0  0  0  0  0  0
   43.5940   83.9670   59.1550 C   0  0  0  0  0  0  0  0  0  0  0  0
   43.6290   83.1320   57.8710 C   0  0  0  0  0  0  0  0  0  0  0  0
   43.0690   83.8490   56.6750 C   0  0  0  0  0  0  0  0  0  0  0  0
   41.8260   84.6010   56.9490 C   0  0  0  0  0  0  0  0  0  0  0  0
   41.9530   85.4900   58.1600 C   0  0  1  0  0  0  0  0  0  0  0  0
   43.3540   83.2970   63.1950 C   0  0  0  0  0  0  0  0  0  0  0  0
   44.6150   82.7060   63.1880 C   0  0  0  0  0  0  0  0  0  0  0  0
   45.6110   83.2900   62.4300 C   0  0  0  0  0  0  0  0  0  0  0  0
   45.3140   84.4280   61.7170 N   0  0  0  0  0  0  0  0  0  0  0  0
   44.1000   84.9760   61.7410 C   0  0  0  0  0  0  0  0  0  0  0  0
   43.1450   84.3950   62.4830 N   0  0  0  0  0  0  0  0  0  0  0  0
   44.0350   86.1330   60.9400 N   0  0  0  0  0  0  0  0  0  0  0  0
   44.3660   87.2840   61.5650 C   0  0  0  0  0  0  0  0  0  0  0  0
   44.2420   88.3010   60.6450 C   0  0  0  0  0  0  0  0  0  0  0  0
   43.8390   87.7500   59.4870 N   0  0  0  0  0  0  0  0  0  0  0  0
   43.7120   86.3950   59.6770 C   0  0  0  0  0  0  0  0  0  0  0  0
   40.9670   85.1290   59.2040 C   0  0  0  0  0  0  0  0  0  0  0  0
   39.7230   85.6370   59.1660 N   0  0  0  0  0  0  0  0  0  0  0  0
   39.0410   85.1890   60.1770 O   0  0  0  0  0  0  0  0  0  0  0  0
   39.7830   84.3850   60.9120 C   0  0  0  0  0  0  0  0  0  0  0  0
   40.9700   84.3610   60.2950 N   0  0  0  0  0  0  0  0  0  0  0  0
   39.5220   83.6280   62.1320 C   0  0  0  0  0  0  0  0  0  0  0  0
   38.9200   82.5200   62.1610 O   0  0  0  0  0  0  0  0  0  0  0  0
   39.9240   84.0740   63.3850 O   0  0  0  0  0  0  0  0  0  0  0  0
   44.0274   85.5841   57.8976 H   0  0  0  0  0  0  0  0  0  0  0  0
   44.5587   83.9034   59.6798 H   0  0  0  0  0  0  0  0  0  0  0  0
   42.8222   83.6071   59.8513 H   0  0  0  0  0  0  0  0  0  0  0  0
   44.6744   82.8638   57.6583 H   0  0  0  0  0  0  0  0  0  0  0  0
   42.9983   82.2473   58.0428 H   0  0  0  0  0  0  0  0  0  0  0  0
   42.8570   83.1042   55.8938 H   0  0  0  0  0  0  0  0  0  0  0  0
   43.8240   84.5866   56.3653 H   0  0  0  0  0  0  0  0  0  0  0  0
   41.5896   85.2252   56.0746 H   0  0  0  0  0  0  0  0  0  0  0  0
   41.0271   83.8715   57.1481 H   0  0  0  0  0  0  0  0  0  0  0  0
   41.7574   86.5259   57.8460 H   0  0  0  0  0  0  0  0  0  0  0  0
   42.5382   82.8561   63.7866 H   0  0  0  0  0  0  0  0  0  0  0  0
   44.8131   81.7954   63.7725 H   0  0  0  0  0  0  0  0  0  0  0  0
   46.6204   82.8542   62.3973 H   0  0  0  0  0  0  0  0  0  0  0  0
   44.6771   87.3893   62.6148 H   0  0  0  0  0  0  0  0  0  0  0  0
   44.4370   89.3686   60.8247 H   0  0  0  0  0  0  0  0  0  0  0  0
   39.7283   83.5316   64.1897 H   0  0  0  0  0  0  0  0  0  0  0  0
  1  2  1  0
  1 17  1  0
  3  2  1  0
  4  5  1  0
  4  3  1  0
  5  6  1  0
  6  1  1  0
  6 18  1  0
  8  7  2  0
  9  8  1  0
 10 11  1  0
 10  9  2  0
 11 12  2  0
 12  7  1  0
 13 14  1  0
 13 11  1  0
 15 14  2  0
 16 17  2  0
 16 15  1  0
 17 13  1  0
 18 22  1  0
 19 18  2  0
 19 20  1  0
 20 21  1  0
 21 23  1  0
 22 21  2  0
 23 24  2  0
 23 25  1  0
  1 26  1  6
  2 27  1  0
  2 28  1  0
  3 29  1  0
  3 30  1  0
  4 31  1  0
  4 32  1  0
  5 33  1  0
  5 34  1  0
  6 35  1  6
  7 36  1  0
  8 37  1  0
  9 38  1  0
 14 39  1  0
 15 40  1  0
 25 41  1  0
M  END
>  <Score>  (1) 
-7.13258

$$$$
