
     RDKit          3D

 46 50  0  0  0  0  0  0  0  0999 V2000
   41.7230   83.4390   61.6210 C   0  0  0  0  0  0  0  0  0  0  0  0
   40.5980   84.0600   62.1830 C   0  0  0  0  0  0  0  0  0  0  0  0
   39.3900   83.3850   62.2620 C   0  0  0  0  0  0  0  0  0  0  0  0
   39.3070   82.1280   61.7960 N   0  0  0  0  0  0  0  0  0  0  0  0
   40.3880   81.5380   61.2590 C   0  0  0  0  0  0  0  0  0  0  0  0
   41.5630   82.1650   61.1700 N   0  0  0  0  0  0  0  0  0  0  0  0
   45.5250   87.4220   57.5000 C   0  0  0  0  0  0  0  0  0  0  0  0
   45.1120   88.7540   57.7710 C   0  0  0  0  0  0  0  0  0  0  0  0
   44.4560   89.0100   58.9700 C   0  0  0  0  0  0  0  0  0  0  0  0
   44.2410   87.9840   59.8240 N   0  0  0  0  0  0  0  0  0  0  0  0
   44.6470   86.7100   59.5420 C   0  0  0  0  0  0  0  0  0  0  0  0
   45.2710   86.4630   58.4040 N   0  0  0  0  0  0  0  0  0  0  0  0
   44.4030   85.6670   60.4620 N   0  0  0  0  0  0  0  0  0  0  0  0
   45.4090   85.2270   61.2630 C   0  0  0  0  0  0  0  0  0  0  0  0
   45.2920   84.2200   62.1960 C   0  0  0  0  0  0  0  0  0  0  0  0
   44.0300   83.6640   62.2640 C   0  0  0  0  0  0  0  0  0  0  0  0
   43.8170   82.7320   63.0870 O   0  0  0  0  0  0  0  0  0  0  0  0
   43.0060   84.0570   61.5000 N   0  0  0  0  0  0  0  0  0  0  0  0
   43.1940   85.0450   60.6130 C   0  0  0  0  0  0  0  0  0  0  0  0
   42.2440   85.4420   59.8740 O   0  0  0  0  0  0  0  0  0  0  0  0
   40.3600   80.1750   60.7170 C   0  0  0  0  0  0  0  0  0  0  0  0
   40.4720   79.1390   61.3840 O   0  0  0  0  0  0  0  0  0  0  0  0
   40.1780   80.2710   59.2690 C   0  0  0  0  0  0  0  0  0  0  0  0
   40.3510   81.4650   58.5620 C   0  0  0  0  0  0  0  0  0  0  0  0
   40.1820   81.5950   57.1990 C   0  0  0  0  0  0  0  0  0  0  0  0
   39.8200   80.4830   56.4700 C   0  0  0  0  0  0  0  0  0  0  0  0
   39.6370   79.2910   57.1040 C   0  0  0  0  0  0  0  0  0  0  0  0
   39.2780   78.2130   56.3340 C   0  0  0  0  0  0  0  0  0  0  0  0
   39.0850   76.9890   56.9310 C   0  0  0  0  0  0  0  0  0  0  0  0
   39.2550   76.8570   58.3060 C   0  0  0  0  0  0  0  0  0  0  0  0
   39.6170   77.9790   59.0290 C   0  0  0  0  0  0  0  0  0  0  0  0
   39.8170   79.2120   58.4660 C   0  0  0  0  0  0  0  0  0  0  0  0
   40.6749   85.0892   62.5635 H   0  0  0  0  0  0  0  0  0  0  0  0
   38.5082   83.8738   62.7019 H   0  0  0  0  0  0  0  0  0  0  0  0
   46.0459   87.1799   56.5619 H   0  0  0  0  0  0  0  0  0  0  0  0
   45.3062   89.5623   57.0506 H   0  0  0  0  0  0  0  0  0  0  0  0
   44.1187   90.0270   59.2188 H   0  0  0  0  0  0  0  0  0  0  0  0
   46.3910   85.7116   61.1585 H   0  0  0  0  0  0  0  0  0  0  0  0
   46.1282   83.8890   62.8293 H   0  0  0  0  0  0  0  0  0  0  0  0
   40.6413   82.3607   59.1308 H   0  0  0  0  0  0  0  0  0  0  0  0
   40.3330   82.5659   56.7045 H   0  0  0  0  0  0  0  0  0  0  0  0
   39.6795   80.5574   55.3816 H   0  0  0  0  0  0  0  0  0  0  0  0
   39.1457   78.3270   55.2480 H   0  0  0  0  0  0  0  0  0  0  0  0
   38.7974   76.1178   56.3241 H   0  0  0  0  0  0  0  0  0  0  0  0
   39.1056   75.8875   58.8037 H   0  0  0  0  0  0  0  0  0  0  0  0
   39.7518   77.8758   60.1158 H   0  0  0  0  0  0  0  0  0  0  0  0
  1  2  2  0
  2  3  1  0
  4  3  2  0
  5  4  1  0
  6  5  2  0
  6  1  1  0
  7  8  2  0
  7 12  1  0
  8  9  1  0
  9 10  2  0
 11 10  1  0
 11 13  1  0
 12 11  2  0
 13 19  1  0
 13 14  1  0
 14 15  2  0
 15 16  1  0
 16 17  2  0
 18  1  1  0
 18 16  1  0
 19 18  1  0
 20 19  2  0
 21  5  1  0
 21 22  2  0
 23 21  1  0
 24 23  2  0
 25 24  1  0
 26 27  1  0
 26 25  2  0
 27 32  2  0
 28 29  2  0
 28 27  1  0
 29 30  1  0
 30 31  2  0
 32 31  1  0
 32 23  1  0
  2 33  1  0
  3 34  1  0
  7 35  1  0
  8 36  1  0
  9 37  1  0
 14 38  1  0
 15 39  1  0
 24 40  1  0
 25 41  1  0
 26 42  1  0
 28 43  1  0
 29 44  1  0
 30 45  1  0
 31 46  1  0
M  END
>  <Score>  (1) 
-7.23853

$$$$
