
     RDKit          3D

 57 61  0  0  1  0  0  0  0  0999 V2000
   39.9600   75.9780   60.7590 C   0  0  0  0  0  0  0  0  0  0  0  0
   39.8490   75.0160   59.7720 N   0  0  0  0  0  0  0  0  0  0  0  0
   38.8390   74.9120   58.8990 C   0  0  0  0  0  0  0  0  0  0  0  0
   39.1760   74.1550   57.5910 C   0  0  0  0  0  0  0  0  0  0  0  0
   40.4370   73.7600   57.4020 O   0  0  0  0  0  0  0  0  0  0  0  0
   41.3810   74.2530   58.2560 C   0  0  0  0  0  0  0  0  0  0  0  0
   40.8850   74.1100   59.6630 C   0  0  2  0  0  0  0  0  0  0  0  0
   40.6060   72.8100   59.8490 O   0  0  0  0  0  0  0  0  0  0  0  0
   41.0160   71.7000   60.4220 C   0  0  0  0  0  0  0  0  0  0  0  0
   41.2580   71.8370   61.7990 C   0  0  0  0  0  0  0  0  0  0  0  0
   41.6740   70.6310   62.2800 N   0  0  0  0  0  0  0  0  0  0  0  0
   41.7160   69.7160   61.2960 C   0  0  0  0  0  0  0  0  0  0  0  0
   42.0400   68.3860   61.1530 C   0  0  0  0  0  0  0  0  0  0  0  0
   41.9710   67.7100   59.9350 C   0  0  0  0  0  0  0  0  0  0  0  0
   41.5560   68.4520   58.8470 C   0  0  0  0  0  0  0  0  0  0  0  0
   41.2130   69.8010   58.9140 C   0  0  0  0  0  0  0  0  0  0  0  0
   41.3110   70.3800   60.1570 C   0  0  0  0  0  0  0  0  0  0  0  0
   41.0090   76.9580   60.3990 C   0  0  0  0  0  0  0  0  0  0  0  0
   40.2200   80.4590   60.9060 C   0  0  0  0  0  0  0  0  0  0  0  0
   40.2390   80.0200   62.1990 N   0  0  0  0  0  0  0  0  0  0  0  0
   40.5110   78.7580   62.2270 O   0  0  0  0  0  0  0  0  0  0  0  0
   40.6800   78.3140   60.9940 C   0  0  0  0  0  0  0  0  0  0  0  0
   40.4990   79.3650   60.1770 N   0  0  0  0  0  0  0  0  0  0  0  0
   39.9670   83.6250   59.1800 C   0  0  0  0  0  0  0  0  0  0  0  0
   39.4310   84.4950   60.1420 C   0  0  0  0  0  0  0  0  0  0  0  0
   39.1660   83.9710   61.3730 C   0  0  0  0  0  0  0  0  0  0  0  0
   39.4160   82.6570   61.6350 N   0  0  0  0  0  0  0  0  0  0  0  0
   39.9330   81.8610   60.6730 C   0  0  0  0  0  0  0  0  0  0  0  0
   40.2200   82.3110   59.4360 N   0  0  0  0  0  0  0  0  0  0  0  0
   39.1840   85.8670   59.8250 N   0  0  0  0  0  0  0  0  0  0  0  0
   41.0650   77.1290   58.9320 C   0  0  0  0  0  0  0  0  0  0  0  0
   42.3480   76.4860   60.9560 C   0  0  0  0  0  0  0  0  0  0  0  0
   38.9976   76.4992   60.8688 H   0  0  0  0  0  0  0  0  0  0  0  0
   40.2325   75.4911   61.7070 H   0  0  0  0  0  0  0  0  0  0  0  0
   38.0125   74.3826   59.3957 H   0  0  0  0  0  0  0  0  0  0  0  0
   38.5849   75.9399   58.6010 H   0  0  0  0  0  0  0  0  0  0  0  0
   38.5437   73.2554   57.5617 H   0  0  0  0  0  0  0  0  0  0  0  0
   38.9967   74.8914   56.7938 H   0  0  0  0  0  0  0  0  0  0  0  0
   42.3180   73.6895   58.1358 H   0  0  0  0  0  0  0  0  0  0  0  0
   41.5678   75.3138   58.0328 H   0  0  0  0  0  0  0  0  0  0  0  0
   41.5890   74.3531   60.4725 H   0  0  0  0  0  0  0  0  0  0  0  0
   41.1334   72.7580   62.3874 H   0  0  0  0  0  0  0  0  0  0  0  0
   41.9221   70.4463   63.2625 H   0  0  0  0  0  0  0  0  0  0  0  0
   42.3694   67.8291   62.0426 H   0  0  0  0  0  0  0  0  0  0  0  0
   42.2326   66.6453   59.8461 H   0  0  0  0  0  0  0  0  0  0  0  0
   41.4925   67.9491   57.8707 H   0  0  0  0  0  0  0  0  0  0  0  0
   40.8849   70.3662   58.0292 H   0  0  0  0  0  0  0  0  0  0  0  0
   40.1920   84.0202   58.1784 H   0  0  0  0  0  0  0  0  0  0  0  0
   38.7470   84.6142   62.1609 H   0  0  0  0  0  0  0  0  0  0  0  0
   38.7904   86.4975   60.5380 H   0  0  0  0  0  0  0  0  0  0  0  0
   39.3997   86.2250   58.8836 H   0  0  0  0  0  0  0  0  0  0  0  0
   41.3993   78.1497   58.6943 H   0  0  0  0  0  0  0  0  0  0  0  0
   41.7723   76.4028   58.5049 H   0  0  0  0  0  0  0  0  0  0  0  0
   40.0652   76.9618   58.5049 H   0  0  0  0  0  0  0  0  0  0  0  0
   42.3127   76.4984   62.0554 H   0  0  0  0  0  0  0  0  0  0  0  0
   42.5499   75.4625   60.6072 H   0  0  0  0  0  0  0  0  0  0  0  0
   43.1471   77.1566   60.6072 H   0  0  0  0  0  0  0  0  0  0  0  0
  2  1  1  0
  3  2  1  0
  4  3  1  0
  5  4  1  0
  5  6  1  0
  6  7  1  0
  7  2  1  0
  7  8  1  0
  8  9  1  0
  9 10  2  0
 10 11  1  0
 12 11  1  0
 13 12  2  0
 14 13  1  0
 15 16  1  0
 15 14  2  0
 16 17  2  0
 17  9  1  0
 17 12  1  0
 18  1  1  0
 18 32  1  0
 18 22  1  0
 19 20  2  0
 20 21  1  0
 22 21  1  0
 23 19  1  0
 23 22  2  0
 24 29  2  0
 24 25  1  0
 25 26  2  0
 26 27  1  0
 28 19  1  0
 28 27  2  0
 29 28  1  0
 30 25  1  0
 31 18  1  0
  1 33  1  0
  1 34  1  0
  3 35  1  0
  3 36  1  0
  4 37  1  0
  4 38  1  0
  6 39  1  0
  6 40  1  0
  7 41  1  1
 10 42  1  0
 11 43  1  0
 13 44  1  0
 14 45  1  0
 15 46  1  0
 16 47  1  0
 24 48  1  0
 26 49  1  0
 30 50  1  0
 30 51  1  0
 31 52  1  0
 31 53  1  0
 31 54  1  0
 32 55  1  0
 32 56  1  0
 32 57  1  0
M  END
>  <Score>  (1) 
-7.1007

$$$$
