
     RDKit          3D

 50 54  0  0  1  0  0  0  0  0999 V2000
   40.8280   76.3700   60.8580 C   0  0  0  0  0  0  0  0  0  0  0  0
   39.6720   75.6320   60.6540 C   0  0  0  0  0  0  0  0  0  0  0  0
   39.8320   74.3080   60.3870 C   0  0  0  0  0  0  0  0  0  0  0  0
   41.0940   73.7880   60.3360 N   0  0  0  0  0  0  0  0  0  0  0  0
   42.1440   74.5550   60.5420 C   0  0  0  0  0  0  0  0  0  0  0  0
   42.0700   75.8770   60.8120 N   0  0  0  0  0  0  0  0  0  0  0  0
   40.2550   80.3940   61.1750 C   0  0  0  0  0  0  0  0  0  0  0  0
   40.7460   79.8190   62.3040 C   0  0  0  0  0  0  0  0  0  0  0  0
   40.9770   78.4770   62.3080 C   0  0  0  0  0  0  0  0  0  0  0  0
   40.6930   77.7960   61.1590 C   0  0  0  0  0  0  0  0  0  0  0  0
   40.0750   79.0900   60.0190 S   0  0  0  0  0  0  0  0  0  0  0  0
   39.9320   81.8150   60.9340 C   0  0  0  0  0  0  0  0  0  0  0  0
   40.2300   82.4330   59.7090 C   0  0  0  0  0  0  0  0  0  0  0  0
   39.8710   83.7870   59.6220 C   0  0  0  0  0  0  0  0  0  0  0  0
   39.2810   84.3940   60.6810 N   0  0  0  0  0  0  0  0  0  0  0  0
   39.0200   83.7320   61.8400 C   0  0  0  0  0  0  0  0  0  0  0  0
   39.3500   82.4510   61.9500 N   0  0  0  0  0  0  0  0  0  0  0  0
   43.4600   73.8880   60.4800 C   0  0  1  0  0  0  0  0  0  0  0  0
   44.5840   74.7900   60.9740 C   0  0  0  0  0  0  0  0  0  0  0  0
   43.4340   72.5820   61.1810 C   0  0  0  0  0  0  0  0  0  0  0  0
   43.3450   71.3400   60.4490 C   0  0  0  0  0  0  0  0  0  0  0  0
   44.1640   71.4480   59.3190 C   0  0  0  0  0  0  0  0  0  0  0  0
   44.2310   70.4760   58.3090 C   0  0  0  0  0  0  0  0  0  0  0  0
   43.4430   69.3260   58.4200 C   0  0  0  0  0  0  0  0  0  0  0  0
   42.6230   69.1750   59.5180 C   0  0  0  0  0  0  0  0  0  0  0  0
   41.8370   68.0830   59.7940 C   0  0  0  0  0  0  0  0  0  0  0  0
   41.0770   67.9540   60.9370 C   0  0  0  0  0  0  0  0  0  0  0  0
   41.0780   68.9710   61.8980 C   0  0  0  0  0  0  0  0  0  0  0  0
   41.8650   70.0460   61.6000 C   0  0  0  0  0  0  0  0  0  0  0  0
   42.6240   70.1750   60.4520 C   0  0  0  0  0  0  0  0  0  0  0  0
   38.6752   76.0943   60.7055 H   0  0  0  0  0  0  0  0  0  0  0  0
   38.9567   73.6645   60.2144 H   0  0  0  0  0  0  0  0  0  0  0  0
   40.9529   80.4260   63.1977 H   0  0  0  0  0  0  0  0  0  0  0  0
   41.3744   77.9647   63.1966 H   0  0  0  0  0  0  0  0  0  0  0  0
   40.7099   81.8952   58.8780 H   0  0  0  0  0  0  0  0  0  0  0  0
   40.0673   84.3528   58.6993 H   0  0  0  0  0  0  0  0  0  0  0  0
   38.5389   84.2543   62.6801 H   0  0  0  0  0  0  0  0  0  0  0  0
   43.6757   73.6826   59.4211 H   0  0  0  0  0  0  0  0  0  0  0  0
   44.5922   74.7966   62.0739 H   0  0  0  0  0  0  0  0  0  0  0  0
   45.5478   74.4118   60.6024 H   0  0  0  0  0  0  0  0  0  0  0  0
   44.4235   75.8128   60.6024 H   0  0  0  0  0  0  0  0  0  0  0  0
   44.3589   72.5284   61.7741 H   0  0  0  0  0  0  0  0  0  0  0  0
   42.4718   72.6154   61.7130 H   0  0  0  0  0  0  0  0  0  0  0  0
   44.7909   72.3461   59.2168 H   0  0  0  0  0  0  0  0  0  0  0  0
   44.8938   70.6166   57.4425 H   0  0  0  0  0  0  0  0  0  0  0  0
   43.4770   68.5509   57.6403 H   0  0  0  0  0  0  0  0  0  0  0  0
   41.8125   67.2637   59.0604 H   0  0  0  0  0  0  0  0  0  0  0  0
   40.4692   67.0506   61.0936 H   0  0  0  0  0  0  0  0  0  0  0  0
   40.4885   68.9090   62.8247 H   0  0  0  0  0  0  0  0  0  0  0  0
   41.8975   70.8706   62.3273 H   0  0  0  0  0  0  0  0  0  0  0  0
  1 10  1  0
  2  1  2  0
  3  2  1  0
  4  3  2  0
  4  5  1  0
  5  6  2  0
  6  1  1  0
  7  8  2  0
  8  9  1  0
 10  9  2  0
 11 10  1  0
 11  7  1  0
 12  7  1  0
 12 17  1  0
 13 12  2  0
 14 13  1  0
 14 15  2  0
 15 16  1  0
 16 17  2  0
 18  5  1  0
 18 19  1  0
 18 20  1  0
 21 30  1  0
 21 20  1  0
 22 21  2  0
 23 24  2  0
 23 22  1  0
 24 25  1  0
 25 26  1  0
 25 30  2  0
 26 27  2  0
 27 28  1  0
 29 28  2  0
 30 29  1  0
  2 31  1  0
  3 32  1  0
  8 33  1  0
  9 34  1  0
 13 35  1  0
 14 36  1  0
 16 37  1  0
 18 38  1  6
 19 39  1  0
 19 40  1  0
 19 41  1  0
 20 42  1  0
 20 43  1  0
 22 44  1  0
 23 45  1  0
 24 46  1  0
 26 47  1  0
 27 48  1  0
 28 49  1  0
 29 50  1  0
M  END
>  <Score>  (1) 
-7.07815

$$$$
