
     RDKit          3D

 49 53  0  0  0  0  0  0  0  0999 V2000
   40.3960   76.3140   60.6940 C   0  0  0  0  0  0  0  0  0  0  0  0
   40.5610   80.0040   60.7610 C   0  0  0  0  0  0  0  0  0  0  0  0
   41.7570   80.2360   61.4520 C   0  0  0  0  0  0  0  0  0  0  0  0
   42.4570   79.1110   61.8670 C   0  0  0  0  0  0  0  0  0  0  0  0
   41.9500   77.8960   61.5830 N   0  0  0  0  0  0  0  0  0  0  0  0
   40.8040   77.7060   60.9210 C   0  0  0  0  0  0  0  0  0  0  0  0
   40.1130   78.7530   60.5120 N   0  0  0  0  0  0  0  0  0  0  0  0
   42.2220   81.5250   61.7080 N   0  0  0  0  0  0  0  0  0  0  0  0
   43.2760   82.0820   61.0660 C   0  0  0  0  0  0  0  0  0  0  0  0
   43.4790   83.3360   61.5360 N   0  0  0  0  0  0  0  0  0  0  0  0
   42.5560   83.5820   62.4760 C   0  0  0  0  0  0  0  0  0  0  0  0
   42.3100   84.6660   63.2810 C   0  0  0  0  0  0  0  0  0  0  0  0
   41.2260   84.5710   64.1080 N   0  0  0  0  0  0  0  0  0  0  0  0
   40.4790   83.4960   64.2060 C   0  0  0  0  0  0  0  0  0  0  0  0
   40.7780   82.4610   63.4370 N   0  0  0  0  0  0  0  0  0  0  0  0
   41.7900   82.4330   62.5570 C   0  0  0  0  0  0  0  0  0  0  0  0
   38.9660   76.1140   60.3370 C   0  0  0  0  0  0  0  0  0  0  0  0
   38.8340   75.7830   58.8880 C   0  0  0  0  0  0  0  0  0  0  0  0
   39.0280   74.4950   58.4160 C   0  0  0  0  0  0  0  0  0  0  0  0
   38.8950   74.2480   57.0500 C   0  0  0  0  0  0  0  0  0  0  0  0
   38.5750   75.3600   56.3060 C   0  0  0  0  0  0  0  0  0  0  0  0
   38.3830   76.6320   56.7670 C   0  0  0  0  0  0  0  0  0  0  0  0
   38.5200   76.8340   58.1010 N   0  0  0  0  0  0  0  0  0  0  0  0
   38.0520   77.7150   55.9030 N   0  0  0  0  0  0  0  0  0  0  0  0
   37.8720   78.9740   56.3430 C   0  0  0  0  0  0  0  0  0  0  0  0
   37.5510   79.9470   55.3970 C   0  0  0  0  0  0  0  0  0  0  0  0
   37.4360   79.5680   54.0720 C   0  0  0  0  0  0  0  0  0  0  0  0
   37.1100   80.5490   53.1020 N   0  0  0  0  0  0  0  0  0  0  0  0
   37.6270   78.2860   53.6810 N   0  0  0  0  0  0  0  0  0  0  0  0
   37.9420   77.3410   54.6150 C   0  0  0  0  0  0  0  0  0  0  0  0
   38.1050   76.1820   54.1900 O   0  0  0  0  0  0  0  0  0  0  0  0
   41.0091   75.9109   59.8745 H   0  0  0  0  0  0  0  0  0  0  0  0
   40.5419   75.7971   61.6540 H   0  0  0  0  0  0  0  0  0  0  0  0
   39.9700   80.8633   60.4113 H   0  0  0  0  0  0  0  0  0  0  0  0
   43.4051   79.2099   62.4159 H   0  0  0  0  0  0  0  0  0  0  0  0
   43.8746   81.5921   60.2840 H   0  0  0  0  0  0  0  0  0  0  0  0
   43.1985   84.8255   63.9096 H   0  0  0  0  0  0  0  0  0  0  0  0
   42.0847   85.4962   62.5954 H   0  0  0  0  0  0  0  0  0  0  0  0
   39.6309   83.4566   64.9054 H   0  0  0  0  0  0  0  0  0  0  0  0
   40.1924   81.6178   63.5202 H   0  0  0  0  0  0  0  0  0  0  0  0
   38.5546   75.2885   60.9365 H   0  0  0  0  0  0  0  0  0  0  0  0
   38.4131   77.0423   60.5432 H   0  0  0  0  0  0  0  0  0  0  0  0
   39.2832   73.6793   59.1085 H   0  0  0  0  0  0  0  0  0  0  0  0
   39.0338   73.2511   56.6062 H   0  0  0  0  0  0  0  0  0  0  0  0
   38.4613   75.2088   55.2224 H   0  0  0  0  0  0  0  0  0  0  0  0
   37.9742   79.2261   57.4088 H   0  0  0  0  0  0  0  0  0  0  0  0
   37.3927   80.9931   55.6981 H   0  0  0  0  0  0  0  0  0  0  0  0
   37.0205   80.2834   52.1109 H   0  0  0  0  0  0  0  0  0  0  0  0
   36.9626   81.5274   53.3884 H   0  0  0  0  0  0  0  0  0  0  0  0
  1  6  1  0
  2  3  2  0
  3  8  1  0
  3  4  1  0
  5  4  2  0
  6  5  1  0
  7  2  1  0
  7  6  2  0
  8 16  1  0
  9 10  2  0
  9  8  1  0
 10 11  1  0
 11 16  2  0
 11 12  1  0
 12 13  1  0
 13 14  2  0
 15 14  1  0
 16 15  1  0
 17  1  1  0
 18 17  1  0
 19 18  2  0
 20 19  1  0
 21 22  1  0
 21 20  2  0
 22 23  2  0
 23 18  1  0
 24 25  1  0
 24 22  1  0
 26 25  2  0
 27 26  1  0
 28 27  1  0
 29 27  2  0
 29 30  1  0
 30 24  1  0
 31 30  2  0
  1 32  1  0
  1 33  1  0
  2 34  1  0
  4 35  1  0
  9 36  1  0
 12 37  1  0
 12 38  1  0
 14 39  1  0
 15 40  1  0
 17 41  1  0
 17 42  1  0
 19 43  1  0
 20 44  1  0
 21 45  1  0
 25 46  1  0
 26 47  1  0
 28 48  1  0
 28 49  1  0
M  END
>  <Score>  (1) 
-7.88656

$$$$
