
     RDKit          3D

 51 56  0  0  1  0  0  0  0  0999 V2000
   40.2380   79.8260   56.0680 C   0  0  1  0  0  0  0  0  0  0  0  0
   38.8380   79.4830   56.6210 C   0  0  0  0  0  0  0  0  0  0  0  0
   39.0150   79.6700   55.1860 C   0  0  2  0  0  0  0  0  0  0  0  0
   40.7670   82.6210   58.2810 N   0  0  0  0  0  0  0  0  0  0  0  0
   41.4530   83.5300   57.4880 C   0  0  0  0  0  0  0  0  0  0  0  0
   41.7610   83.2230   56.1710 C   0  0  0  0  0  0  0  0  0  0  0  0
   41.3580   81.9800   55.6840 C   0  0  0  0  0  0  0  0  0  0  0  0
   41.6080   81.6390   54.4990 O   0  0  0  0  0  0  0  0  0  0  0  0
   40.6840   81.1260   56.5090 N   0  0  0  0  0  0  0  0  0  0  0  0
   40.4110   81.4560   57.7580 C   0  0  0  0  0  0  0  0  0  0  0  0
   39.8080   80.7610   58.5820 O   0  0  0  0  0  0  0  0  0  0  0  0
   41.4360   82.7750   60.6510 C   0  0  0  0  0  0  0  0  0  0  0  0
   40.5770   83.1500   59.5930 C   0  0  0  0  0  0  0  0  0  0  0  0
   39.5340   84.0530   59.8370 C   0  0  0  0  0  0  0  0  0  0  0  0
   39.3930   84.5320   61.0910 N   0  0  0  0  0  0  0  0  0  0  0  0
   40.2260   84.1670   62.1100 C   0  0  0  0  0  0  0  0  0  0  0  0
   41.2190   83.3060   61.8750 N   0  0  0  0  0  0  0  0  0  0  0  0
   39.0190   78.4670   54.2910 C   0  0  0  0  0  0  0  0  0  0  0  0
   39.5790   78.3650   53.0520 C   0  0  0  0  0  0  0  0  0  0  0  0
   39.5710   77.1860   52.3250 C   0  0  0  0  0  0  0  0  0  0  0  0
   38.9880   76.0720   52.8490 C   0  0  0  0  0  0  0  0  0  0  0  0
   38.3970   76.0810   54.0920 C   0  0  0  0  0  0  0  0  0  0  0  0
   38.4420   77.2920   54.7600 C   0  0  0  0  0  0  0  0  0  0  0  0
   37.7180   77.0800   56.0380 C   0  0  0  0  0  0  0  0  0  0  0  0
   36.5310   77.2840   56.6800 C   0  0  0  0  0  0  0  0  0  0  0  0
   36.5570   76.8590   57.9450 N   0  0  0  0  0  0  0  0  0  0  0  0
   37.7760   76.3530   58.1900 C   0  0  0  0  0  0  0  0  0  0  0  0
   38.1960   75.8160   59.3790 C   0  0  0  0  0  0  0  0  0  0  0  0
   39.4870   75.3420   59.4490 C   0  0  0  0  0  0  0  0  0  0  0  0
   40.2820   75.4280   58.3420 C   0  0  0  0  0  0  0  0  0  0  0  0
   39.8120   75.9740   57.1770 C   0  0  0  0  0  0  0  0  0  0  0  0
   38.5280   76.4770   57.0160 C   0  0  0  0  0  0  0  0  0  0  0  0
   41.2544   79.4095   56.0087 H   0  0  0  0  0  0  0  0  0  0  0  0
   38.6380   78.4786   57.0226 H   0  0  0  0  0  0  0  0  0  0  0  0
   38.1777   79.9219   57.3835 H   0  0  0  0  0  0  0  0  0  0  0  0
   38.4925   80.2986   54.4499 H   0  0  0  0  0  0  0  0  0  0  0  0
   41.7547   84.5013   57.9071 H   0  0  0  0  0  0  0  0  0  0  0  0
   42.3043   83.9353   55.5327 H   0  0  0  0  0  0  0  0  0  0  0  0
   42.2615   82.0678   60.4823 H   0  0  0  0  0  0  0  0  0  0  0  0
   38.8513   84.3620   59.0317 H   0  0  0  0  0  0  0  0  0  0  0  0
   40.0795   84.5802   63.1189 H   0  0  0  0  0  0  0  0  0  0  0  0
   40.0557   79.2537   52.6126 H   0  0  0  0  0  0  0  0  0  0  0  0
   40.0339   77.1494   51.3278 H   0  0  0  0  0  0  0  0  0  0  0  0
   38.9896   75.1408   52.2634 H   0  0  0  0  0  0  0  0  0  0  0  0
   37.9221   75.1879   54.5242 H   0  0  0  0  0  0  0  0  0  0  0  0
   35.6517   77.7467   56.2080 H   0  0  0  0  0  0  0  0  0  0  0  0
   35.7775   76.9103   58.6163 H   0  0  0  0  0  0  0  0  0  0  0  0
   37.5241   75.7653   60.2485 H   0  0  0  0  0  0  0  0  0  0  0  0
   39.8714   74.9016   60.3808 H   0  0  0  0  0  0  0  0  0  0  0  0
   41.3152   75.0532   58.3865 H   0  0  0  0  0  0  0  0  0  0  0  0
   40.4944   76.0166   56.3153 H   0  0  0  0  0  0  0  0  0  0  0  0
  1  9  1  0
  1  2  1  0
  3  1  1  0
  3  2  1  0
  4 13  1  0
  5  4  1  0
  6  5  2  0
  7  6  1  0
  7  9  1  0
  8  7  2  0
  9 10  1  0
 10  4  1  0
 10 11  2  0
 12 17  2  0
 13 14  2  0
 13 12  1  0
 14 15  1  0
 15 16  2  0
 17 16  1  0
 18 23  1  0
 18  3  1  0
 19 18  2  0
 20 21  2  0
 20 19  1  0
 21 22  1  0
 22 23  2  0
 23 24  1  0
 24 25  2  0
 24 32  1  0
 25 26  1  0
 26 27  1  0
 27 28  2  0
 28 29  1  0
 30 29  2  0
 31 30  1  0
 32 31  2  0
 32 27  1  0
  1 33  1  6
  2 34  1  0
  2 35  1  0
  3 36  1  6
  5 37  1  0
  6 38  1  0
 12 39  1  0
 14 40  1  0
 16 41  1  0
 19 42  1  0
 20 43  1  0
 21 44  1  0
 22 45  1  0
 25 46  1  0
 26 47  1  0
 28 48  1  0
 29 49  1  0
 30 50  1  0
 31 51  1  0
M  END
>  <Score>  (1) 
-7.01988

$$$$
