
     RDKit          3D

 45 49  0  0  0  0  0  0  0  0999 V2000
   40.2840   77.6640   62.3220 N   0  0  0  0  0  0  0  0  0  0  0  0
   40.0730   78.8760   62.8580 N   0  0  0  0  0  0  0  0  0  0  0  0
   40.8860   79.7580   62.2520 C   0  0  0  0  0  0  0  0  0  0  0  0
   41.6030   79.0250   61.3230 C   0  0  0  0  0  0  0  0  0  0  0  0
   41.2250   77.7140   61.3680 C   0  0  0  0  0  0  0  0  0  0  0  0
   41.7560   76.6920   60.5530 N   0  0  0  0  0  0  0  0  0  0  0  0
   42.9130   76.0970   60.8620 N   0  0  0  0  0  0  0  0  0  0  0  0
   43.1290   75.1860   59.8980 C   0  0  0  0  0  0  0  0  0  0  0  0
   42.0980   75.2170   58.9850 C   0  0  0  0  0  0  0  0  0  0  0  0
   41.2250   76.1950   59.4270 C   0  0  0  0  0  0  0  0  0  0  0  0
   40.0030   76.5990   58.8160 N   0  0  0  0  0  0  0  0  0  0  0  0
   39.8440   77.5610   57.8890 C   0  0  0  0  0  0  0  0  0  0  0  0
   38.6320   77.8850   57.3550 C   0  0  0  0  0  0  0  0  0  0  0  0
   38.5900   78.9760   56.3310 C   0  0  0  0  0  0  0  0  0  0  0  0
   37.4850   77.2080   57.7660 C   0  0  0  0  0  0  0  0  0  0  0  0
   36.3690   77.5140   57.2670 O   0  0  0  0  0  0  0  0  0  0  0  0
   37.6580   76.2410   58.6990 N   0  0  0  0  0  0  0  0  0  0  0  0
   38.8780   75.9600   59.1960 C   0  0  0  0  0  0  0  0  0  0  0  0
   38.8510   75.0210   60.0650 O   0  0  0  0  0  0  0  0  0  0  0  0
   40.8190   81.0650   62.6640 O   0  0  0  0  0  0  0  0  0  0  0  0
   40.8440   82.1440   61.8310 C   0  0  0  0  0  0  0  0  0  0  0  0
   39.7500   82.3940   61.0250 C   0  0  0  0  0  0  0  0  0  0  0  0
   39.7740   83.5010   60.1710 C   0  0  0  0  0  0  0  0  0  0  0  0
   40.8880   84.2800   60.1820 N   0  0  0  0  0  0  0  0  0  0  0  0
   41.9380   84.0130   60.9780 C   0  0  0  0  0  0  0  0  0  0  0  0
   41.8960   82.9690   61.7710 N   0  0  0  0  0  0  0  0  0  0  0  0
   43.1190   84.7950   61.0240 N   0  0  0  0  0  0  0  0  0  0  0  0
   43.6290   85.7110   61.8420 N   0  0  0  0  0  0  0  0  0  0  0  0
   44.8250   86.1250   61.3660 C   0  0  0  0  0  0  0  0  0  0  0  0
   45.0880   85.4380   60.1860 C   0  0  0  0  0  0  0  0  0  0  0  0
   43.9860   84.6010   59.9950 C   0  0  0  0  0  0  0  0  0  0  0  0
   39.7880   76.8072   62.6062 H   0  0  0  0  0  0  0  0  0  0  0  0
   42.3661   79.4382   60.6470 H   0  0  0  0  0  0  0  0  0  0  0  0
   43.9994   74.5155   59.8458 H   0  0  0  0  0  0  0  0  0  0  0  0
   41.9906   74.5912   58.0868 H   0  0  0  0  0  0  0  0  0  0  0  0
   40.7325   78.1114   57.5462 H   0  0  0  0  0  0  0  0  0  0  0  0
   38.5524   79.9522   56.8366 H   0  0  0  0  0  0  0  0  0  0  0  0
   39.4908   78.9233   55.7019 H   0  0  0  0  0  0  0  0  0  0  0  0
   37.6959   78.8542   55.7019 H   0  0  0  0  0  0  0  0  0  0  0  0
   36.8412   75.7107   59.0346 H   0  0  0  0  0  0  0  0  0  0  0  0
   38.8724   81.7315   61.0547 H   0  0  0  0  0  0  0  0  0  0  0  0
   38.9226   83.7330   59.5143 H   0  0  0  0  0  0  0  0  0  0  0  0
   45.4784   86.8769   61.8326 H   0  0  0  0  0  0  0  0  0  0  0  0
   45.9740   85.5332   59.5411 H   0  0  0  0  0  0  0  0  0  0  0  0
   43.8441   83.9043   59.1557 H   0  0  0  0  0  0  0  0  0  0  0  0
  1  2  1  0
  3 20  1  0
  3  2  2  0
  4  5  2  0
  4  3  1  0
  5  1  1  0
  6  7  1  0
  6  5  1  0
  8  7  2  0
  9 10  2  0
  9  8  1  0
 10  6  1  0
 11 18  1  0
 11 10  1  0
 12 11  1  0
 13 15  1  0
 13 12  2  0
 14 13  1  0
 15 17  1  0
 16 15  2  0
 17 18  1  0
 18 19  2  0
 21 20  1  0
 22 21  2  0
 23 24  2  0
 23 22  1  0
 24 25  1  0
 25 27  1  0
 25 26  2  0
 26 21  1  0
 27 28  1  0
 29 28  2  0
 30 29  1  0
 31 30  2  0
 31 27  1  0
  1 32  1  0
  4 33  1  0
  8 34  1  0
  9 35  1  0
 12 36  1  0
 14 37  1  0
 14 38  1  0
 14 39  1  0
 17 40  1  0
 22 41  1  0
 23 42  1  0
 29 43  1  0
 30 44  1  0
 31 45  1  0
M  END
>  <Score>  (1) 
-7.45193

$$$$
