
     RDKit          3D

 45 49  0  0  0  0  0  0  0  0999 V2000
   42.9870   85.1770   59.5430 C   0  0  0  0  0  0  0  0  0  0  0  0
   43.2150   86.4220   59.5240 O   0  0  0  0  0  0  0  0  0  0  0  0
   42.5920   84.4070   63.1660 C   0  0  0  0  0  0  0  0  0  0  0  0
   42.8500   85.1390   61.9950 C   0  0  0  0  0  0  0  0  0  0  0  0
   42.7370   84.4910   60.7870 C   0  0  0  0  0  0  0  0  0  0  0  0
   42.3860   83.1850   60.7920 N   0  0  0  0  0  0  0  0  0  0  0  0
   42.1400   82.4890   61.9180 C   0  0  0  0  0  0  0  0  0  0  0  0
   42.2450   83.1060   63.1030 N   0  0  0  0  0  0  0  0  0  0  0  0
   41.7710   81.1120   61.8970 N   0  0  0  0  0  0  0  0  0  0  0  0
   42.7620   80.2280   61.8360 C   0  0  0  0  0  0  0  0  0  0  0  0
   42.3780   78.8940   61.8180 C   0  0  0  0  0  0  0  0  0  0  0  0
   41.0530   78.5820   61.8620 C   0  0  0  0  0  0  0  0  0  0  0  0
   40.5560   77.2480   61.8480 N   0  0  0  0  0  0  0  0  0  0  0  0
   40.0730   79.5280   61.9240 N   0  0  0  0  0  0  0  0  0  0  0  0
   40.4420   80.8450   61.9420 C   0  0  0  0  0  0  0  0  0  0  0  0
   39.5860   81.8060   61.9990 O   0  0  0  0  0  0  0  0  0  0  0  0
   42.9810   84.4450   58.2780 C   0  0  0  0  0  0  0  0  0  0  0  0
   43.9340   84.2950   57.2870 C   0  0  0  0  0  0  0  0  0  0  0  0
   43.6410   83.5460   56.2120 C   0  0  0  0  0  0  0  0  0  0  0  0
   42.4300   82.9320   56.0790 C   0  0  0  0  0  0  0  0  0  0  0  0
   41.5920   83.4820   57.6780 S   0  0  0  0  0  0  0  0  0  0  0  0
   41.8110   82.1250   55.1570 C   0  0  0  0  0  0  0  0  0  0  0  0
   42.2150   82.0310   53.8410 C   0  0  0  0  0  0  0  0  0  0  0  0
   41.5630   81.2020   52.9350 C   0  0  0  0  0  0  0  0  0  0  0  0
   40.5010   80.4680   53.3650 N   0  0  0  0  0  0  0  0  0  0  0  0
   40.1040   80.5530   54.6380 C   0  0  0  0  0  0  0  0  0  0  0  0
   40.7450   81.3560   55.4880 N   0  0  0  0  0  0  0  0  0  0  0  0
   38.9820   79.7880   55.1230 N   0  0  0  0  0  0  0  0  0  0  0  0
   38.4890   78.7100   54.5740 N   0  0  0  0  0  0  0  0  0  0  0  0
   37.4300   78.2350   55.2870 C   0  0  0  0  0  0  0  0  0  0  0  0
   37.3020   79.1310   56.3530 C   0  0  0  0  0  0  0  0  0  0  0  0
   38.2830   80.0960   56.2320 C   0  0  0  0  0  0  0  0  0  0  0  0
   42.6741   84.9011   64.1453 H   0  0  0  0  0  0  0  0  0  0  0  0
   43.1344   86.2005   62.0428 H   0  0  0  0  0  0  0  0  0  0  0  0
   43.8181   80.5338   61.8020 H   0  0  0  0  0  0  0  0  0  0  0  0
   43.1355   78.0979   61.7687 H   0  0  0  0  0  0  0  0  0  0  0  0
   39.5411   77.0762   61.8834 H   0  0  0  0  0  0  0  0  0  0  0  0
   41.2114   76.4547   61.8025 H   0  0  0  0  0  0  0  0  0  0  0  0
   44.9163   84.7816   57.3781 H   0  0  0  0  0  0  0  0  0  0  0  0
   44.3948   83.4246   55.4201 H   0  0  0  0  0  0  0  0  0  0  0  0
   43.0745   82.6269   53.5001 H   0  0  0  0  0  0  0  0  0  0  0  0
   41.8996   81.1406   51.8896 H   0  0  0  0  0  0  0  0  0  0  0  0
   36.8153   77.3483   55.0729 H   0  0  0  0  0  0  0  0  0  0  0  0
   36.5481   79.0766   57.1522 H   0  0  0  0  0  0  0  0  0  0  0  0
   38.4583   80.9466   56.9071 H   0  0  0  0  0  0  0  0  0  0  0  0
  1  5  1  0
  2  1  2  0
  4  3  2  0
  5  6  2  0
  5  4  1  0
  6  7  1  0
  7  8  2  0
  8  3  1  0
  9  7  1  0
  9 15  1  0
 10  9  1  0
 11 10  2  0
 11 12  1  0
 12 14  2  0
 13 12  1  0
 14 15  1  0
 15 16  2  0
 17  1  1  0
 18 17  2  0
 19 18  1  0
 20 19  2  0
 20 21  1  0
 21 17  1  0
 22 27  1  0
 22 20  1  0
 23 22  2  0
 24 25  2  0
 24 23  1  0
 25 26  1  0
 26 28  1  0
 26 27  2  0
 28 32  1  0
 29 28  1  0
 29 30  2  0
 30 31  1  0
 32 31  2  0
  3 33  1  0
  4 34  1  0
 10 35  1  0
 11 36  1  0
 13 37  1  0
 13 38  1  0
 18 39  1  0
 19 40  1  0
 23 41  1  0
 24 42  1  0
 30 43  1  0
 31 44  1  0
 32 45  1  0
M  END
>  <Score>  (1) 
-7.07408

$$$$
