
     RDKit          3D

 44 48  0  0  0  0  0  0  0  0999 V2000
   40.8220   81.8400   61.1650 C   0  0  0  0  0  0  0  0  0  0  0  0
   40.5220   82.4280   59.9560 C   0  0  0  0  0  0  0  0  0  0  0  0
   40.1040   81.7330   58.8470 C   0  0  0  0  0  0  0  0  0  0  0  0
   39.9710   80.3770   58.9200 C   0  0  0  0  0  0  0  0  0  0  0  0
   40.2510   79.7090   60.0910 C   0  0  0  0  0  0  0  0  0  0  0  0
   40.1220   78.3480   60.1840 C   0  0  0  0  0  0  0  0  0  0  0  0
   40.3990   77.6500   61.3570 C   0  0  0  0  0  0  0  0  0  0  0  0
   40.8140   78.4180   62.4280 C   0  0  0  0  0  0  0  0  0  0  0  0
   40.9300   79.7780   62.2970 C   0  0  0  0  0  0  0  0  0  0  0  0
   40.6600   80.4700   61.1510 C   0  0  0  0  0  0  0  0  0  0  0  0
   39.6700   77.5240   59.0350 C   0  0  0  0  0  0  0  0  0  0  0  0
   39.3990   76.2270   58.8190 N   0  0  0  0  0  0  0  0  0  0  0  0
   39.0350   75.9770   57.6160 O   0  0  0  0  0  0  0  0  0  0  0  0
   39.0400   77.0810   56.9610 C   0  0  0  0  0  0  0  0  0  0  0  0
   39.4250   78.0460   57.8090 N   0  0  0  0  0  0  0  0  0  0  0  0
   38.7540   77.5290   55.6190 N   0  0  0  0  0  0  0  0  0  0  0  0
   39.5400   78.5130   55.1280 C   0  0  0  0  0  0  0  0  0  0  0  0
   39.2780   78.9490   53.8480 C   0  0  0  0  0  0  0  0  0  0  0  0
   40.1020   80.0290   53.2410 C   0  0  0  0  0  0  0  0  0  0  0  0
   38.2440   78.3820   53.1200 C   0  0  0  0  0  0  0  0  0  0  0  0
   37.9590   78.7390   51.9510 O   0  0  0  0  0  0  0  0  0  0  0  0
   37.4840   77.4040   53.6470 N   0  0  0  0  0  0  0  0  0  0  0  0
   37.7330   76.9680   54.9020 C   0  0  0  0  0  0  0  0  0  0  0  0
   37.0960   76.0540   55.5190 O   0  0  0  0  0  0  0  0  0  0  0  0
   42.6970   84.0350   63.6580 C   0  0  0  0  0  0  0  0  0  0  0  0
   42.4910   83.2290   62.5470 C   0  0  0  0  0  0  0  0  0  0  0  0
   41.2430   82.6820   62.2460 C   0  0  0  0  0  0  0  0  0  0  0  0
   40.2690   83.0220   63.1500 N   0  0  0  0  0  0  0  0  0  0  0  0
   40.4670   83.7970   64.2170 C   0  0  0  0  0  0  0  0  0  0  0  0
   41.6830   84.2960   64.4600 N   0  0  0  0  0  0  0  0  0  0  0  0
   40.6232   83.5202   59.8734 H   0  0  0  0  0  0  0  0  0  0  0  0
   39.8790   82.2640   57.9103 H   0  0  0  0  0  0  0  0  0  0  0  0
   39.6375   79.8131   58.0364 H   0  0  0  0  0  0  0  0  0  0  0  0
   40.2941   76.5572   61.4263 H   0  0  0  0  0  0  0  0  0  0  0  0
   41.0520   77.9371   63.3883 H   0  0  0  0  0  0  0  0  0  0  0  0
   41.2633   80.3508   63.1750 H   0  0  0  0  0  0  0  0  0  0  0  0
   40.3549   78.9474   55.7257 H   0  0  0  0  0  0  0  0  0  0  0  0
   40.5617   80.6315   54.0383 H   0  0  0  0  0  0  0  0  0  0  0  0
   40.8908   79.5822   52.6180 H   0  0  0  0  0  0  0  0  0  0  0  0
   39.4627   80.6718   52.6180 H   0  0  0  0  0  0  0  0  0  0  0  0
   36.7174   76.9904   53.0973 H   0  0  0  0  0  0  0  0  0  0  0  0
   43.6936   84.4510   63.8670 H   0  0  0  0  0  0  0  0  0  0  0  0
   43.3400   83.0142   61.8814 H   0  0  0  0  0  0  0  0  0  0  0  0
   39.6317   84.0251   64.8955 H   0  0  0  0  0  0  0  0  0  0  0  0
  1 27  1  0
  2  1  2  0
  3  4  2  0
  3  2  1  0
  4  5  1  0
  5  6  1  0
  5 10  2  0
  6  7  2  0
  7  8  1  0
  9  8  2  0
 10  1  1  0
 10  9  1  0
 11  6  1  0
 12 11  2  0
 13 12  1  0
 14 13  1  0
 14 15  2  0
 15 11  1  0
 16 14  1  0
 17 16  1  0
 18 17  2  0
 19 18  1  0
 20 22  1  0
 20 18  1  0
 21 20  2  0
 22 23  1  0
 23 24  2  0
 23 16  1  0
 25 30  2  0
 26 25  1  0
 27 26  2  0
 27 28  1  0
 28 29  2  0
 29 30  1  0
  2 31  1  0
  3 32  1  0
  4 33  1  0
  7 34  1  0
  8 35  1  0
  9 36  1  0
 17 37  1  0
 19 38  1  0
 19 39  1  0
 19 40  1  0
 22 41  1  0
 25 42  1  0
 26 43  1  0
 29 44  1  0
M  END
>  <Score>  (1) 
-7.62813

$$$$
