
     RDKit          3D

 44 48  0  0  0  0  0  0  0  0999 V2000
   40.8650   81.9990   61.2010 C   0  0  0  0  0  0  0  0  0  0  0  0
   40.6560   82.6850   60.0230 C   0  0  0  0  0  0  0  0  0  0  0  0
   40.3100   82.0810   58.8390 C   0  0  0  0  0  0  0  0  0  0  0  0
   40.1580   80.7200   58.7990 C   0  0  0  0  0  0  0  0  0  0  0  0
   40.3490   79.9650   59.9340 C   0  0  0  0  0  0  0  0  0  0  0  0
   40.2020   78.6050   59.9160 C   0  0  0  0  0  0  0  0  0  0  0  0
   40.3900   77.8130   61.0470 C   0  0  0  0  0  0  0  0  0  0  0  0
   40.7340   78.4940   62.1910 C   0  0  0  0  0  0  0  0  0  0  0  0
   40.8730   79.8590   62.1750 C   0  0  0  0  0  0  0  0  0  0  0  0
   40.6920   80.6360   61.0760 C   0  0  0  0  0  0  0  0  0  0  0  0
   42.6120   83.9300   63.9890 C   0  0  0  0  0  0  0  0  0  0  0  0
   42.4670   83.2020   62.8110 C   0  0  0  0  0  0  0  0  0  0  0  0
   41.2210   82.7500   62.3690 C   0  0  0  0  0  0  0  0  0  0  0  0
   40.1870   83.0950   63.2050 N   0  0  0  0  0  0  0  0  0  0  0  0
   40.3330   83.7950   64.3340 C   0  0  0  0  0  0  0  0  0  0  0  0
   41.5490   84.2040   64.7120 N   0  0  0  0  0  0  0  0  0  0  0  0
   39.8250   77.8760   58.6750 C   0  0  0  0  0  0  0  0  0  0  0  0
   40.2570   76.8240   57.9940 N   0  0  0  0  0  0  0  0  0  0  0  0
   39.5790   76.5680   56.9350 O   0  0  0  0  0  0  0  0  0  0  0  0
   38.6430   77.4420   56.8440 C   0  0  0  0  0  0  0  0  0  0  0  0
   38.7820   78.2360   57.8900 N   0  0  0  0  0  0  0  0  0  0  0  0
   37.5810   77.6100   55.8200 C   0  0  0  0  0  0  0  0  0  0  0  0
   37.5030   76.4410   54.8970 C   0  0  0  0  0  0  0  0  0  0  0  0
   36.6040   77.0110   53.7950 C   0  0  0  0  0  0  0  0  0  0  0  0
   36.8660   78.5120   53.7870 C   0  0  0  0  0  0  0  0  0  0  0  0
   37.8990   78.7360   54.8570 C   0  0  0  0  0  0  0  0  0  0  0  0
   40.7731   83.7787   60.0322 H   0  0  0  0  0  0  0  0  0  0  0  0
   40.1565   82.6840   57.9319 H   0  0  0  0  0  0  0  0  0  0  0  0
   39.8818   80.2279   57.8548 H   0  0  0  0  0  0  0  0  0  0  0  0
   40.2715   76.7196   61.0261 H   0  0  0  0  0  0  0  0  0  0  0  0
   40.8991   77.9399   63.1268 H   0  0  0  0  0  0  0  0  0  0  0  0
   41.1497   80.3575   63.1157 H   0  0  0  0  0  0  0  0  0  0  0  0
   43.6064   84.2725   64.3114 H   0  0  0  0  0  0  0  0  0  0  0  0
   43.3603   82.9759   62.2102 H   0  0  0  0  0  0  0  0  0  0  0  0
   39.4546   84.0344   64.9513 H   0  0  0  0  0  0  0  0  0  0  0  0
   36.6674   77.7711   56.4111 H   0  0  0  0  0  0  0  0  0  0  0  0
   38.4942   76.1638   54.5089 H   0  0  0  0  0  0  0  0  0  0  0  0
   37.1280   75.5166   55.3605 H   0  0  0  0  0  0  0  0  0  0  0  0
   36.8644   76.5707   52.8212 H   0  0  0  0  0  0  0  0  0  0  0  0
   35.5432   76.7842   53.9776 H   0  0  0  0  0  0  0  0  0  0  0  0
   37.2498   78.8317   52.8069 H   0  0  0  0  0  0  0  0  0  0  0  0
   35.9492   79.0910   53.9720 H   0  0  0  0  0  0  0  0  0  0  0  0
   38.9194   78.6465   54.4561 H   0  0  0  0  0  0  0  0  0  0  0  0
   37.8671   79.7378   55.3102 H   0  0  0  0  0  0  0  0  0  0  0  0
  1 13  1  0
  2  1  2  0
  3  2  1  0
  4  3  2  0
  4  5  1  0
  5 10  2  0
  6  5  1  0
  6  7  2  0
  7  8  1  0
  9  8  2  0
 10  1  1  0
 10  9  1  0
 11 16  2  0
 12 11  1  0
 13 12  2  0
 13 14  1  0
 14 15  2  0
 15 16  1  0
 17  6  1  0
 18 17  2  0
 19 18  1  0
 20 19  1  0
 20 21  2  0
 21 17  1  0
 22 20  1  0
 23 22  1  0
 24 23  1  0
 25 24  1  0
 25 26  1  0
 26 22  1  0
  2 27  1  0
  3 28  1  0
  4 29  1  0
  7 30  1  0
  8 31  1  0
  9 32  1  0
 11 33  1  0
 12 34  1  0
 15 35  1  0
 22 36  1  0
 23 37  1  0
 23 38  1  0
 24 39  1  0
 24 40  1  0
 25 41  1  0
 25 42  1  0
 26 43  1  0
 26 44  1  0
M  END
>  <Score>  (1) 
-7.14917

$$$$
