
     RDKit          3D

 47 51  0  0  1  0  0  0  0  0999 V2000
   41.4740   80.9940   60.8530 N   0  0  0  0  0  0  0  0  0  0  0  0
   42.8260   81.1040   60.3860 C   0  0  0  0  0  0  0  0  0  0  0  0
   43.2980   79.7380   59.8960 C   0  0  0  0  0  0  0  0  0  0  0  0
   43.2200   78.7080   60.9790 C   0  0  0  0  0  0  0  0  0  0  0  0
   42.2130   79.0380   62.0200 C   0  0  0  0  0  0  0  0  0  0  0  0
   41.0400   79.7130   61.3060 C   0  0  2  0  0  0  0  0  0  0  0  0
   40.5860   82.1030   60.8760 C   0  0  0  0  0  0  0  0  0  0  0  0
   40.5200   82.9440   59.7880 C   0  0  0  0  0  0  0  0  0  0  0  0
   39.6520   84.0250   59.8030 C   0  0  0  0  0  0  0  0  0  0  0  0
   38.8920   84.1920   60.9370 N   0  0  0  0  0  0  0  0  0  0  0  0
   38.9700   83.3650   61.9850 C   0  0  0  0  0  0  0  0  0  0  0  0
   39.8160   82.3190   61.9580 N   0  0  0  0  0  0  0  0  0  0  0  0
   40.3530   78.8400   60.3900 C   0  0  0  0  0  0  0  0  0  0  0  0
   39.9670   77.5440   60.5540 C   0  0  0  0  0  0  0  0  0  0  0  0
   39.2960   76.7950   59.6080 C   0  0  0  0  0  0  0  0  0  0  0  0
   38.9960   77.3900   58.4280 N   0  0  0  0  0  0  0  0  0  0  0  0
   39.3720   78.6770   58.2490 C   0  0  0  0  0  0  0  0  0  0  0  0
   40.0160   79.3500   59.1890 N   0  0  0  0  0  0  0  0  0  0  0  0
   39.0480   79.3360   56.9600 C   0  0  0  0  0  0  0  0  0  0  0  0
   39.4990   80.5730   56.5360 C   0  0  0  0  0  0  0  0  0  0  0  0
   38.9840   80.8150   55.3160 N   0  0  0  0  0  0  0  0  0  0  0  0
   38.2190   79.7690   54.9500 C   0  0  0  0  0  0  0  0  0  0  0  0
   37.4970   79.5750   53.7890 C   0  0  0  0  0  0  0  0  0  0  0  0
   36.7750   78.4150   53.6220 C   0  0  0  0  0  0  0  0  0  0  0  0
   36.8100   77.5000   54.6320 C   0  0  0  0  0  0  0  0  0  0  0  0
   37.5240   77.6620   55.8100 C   0  0  0  0  0  0  0  0  0  0  0  0
   38.2420   78.8290   55.9620 C   0  0  0  0  0  0  0  0  0  0  0  0
   42.8723   81.8280   59.5592 H   0  0  0  0  0  0  0  0  0  0  0  0
   43.4742   81.4479   61.2055 H   0  0  0  0  0  0  0  0  0  0  0  0
   42.6631   79.4212   59.0554 H   0  0  0  0  0  0  0  0  0  0  0  0
   44.3483   79.8288   59.5820 H   0  0  0  0  0  0  0  0  0  0  0  0
   42.9526   77.7420   60.5259 H   0  0  0  0  0  0  0  0  0  0  0  0
   44.2032   78.6716   61.4710 H   0  0  0  0  0  0  0  0  0  0  0  0
   41.8728   78.1200   62.5216 H   0  0  0  0  0  0  0  0  0  0  0  0
   42.6416   79.7009   62.7861 H   0  0  0  0  0  0  0  0  0  0  0  0
   40.2053   79.9230   61.9909 H   0  0  0  0  0  0  0  0  0  0  0  0
   41.1545   82.7587   58.9088 H   0  0  0  0  0  0  0  0  0  0  0  0
   39.5750   84.7151   58.9499 H   0  0  0  0  0  0  0  0  0  0  0  0
   38.3415   83.5401   62.8706 H   0  0  0  0  0  0  0  0  0  0  0  0
   40.2077   77.0582   61.5111 H   0  0  0  0  0  0  0  0  0  0  0  0
   39.0143   75.7502   59.8055 H   0  0  0  0  0  0  0  0  0  0  0  0
   40.1644   81.2439   57.0992 H   0  0  0  0  0  0  0  0  0  0  0  0
   39.1484   81.6623   54.7540 H   0  0  0  0  0  0  0  0  0  0  0  0
   37.4988   80.3433   53.0018 H   0  0  0  0  0  0  0  0  0  0  0  0
   36.1914   78.2330   52.7075 H   0  0  0  0  0  0  0  0  0  0  0  0
   36.2338   76.5717   54.5042 H   0  0  0  0  0  0  0  0  0  0  0  0
   37.5176   76.8892   56.5927 H   0  0  0  0  0  0  0  0  0  0  0  0
  1  7  1  0
  1  6  1  0
  2  1  1  0
  3  2  1  0
  3  4  1  0
  4  5  1  0
  6  5  1  0
  7 12  2  0
  8  9  2  0
  8  7  1  0
  9 10  1  0
 10 11  2  0
 12 11  1  0
 13 14  2  0
 13  6  1  0
 15 14  1  0
 16 15  2  0
 17 16  1  0
 17 18  2  0
 18 13  1  0
 19 17  1  0
 20 19  2  0
 21 20  1  0
 22 21  1  0
 22 27  2  0
 23 22  1  0
 24 23  2  0
 24 25  1  0
 25 26  2  0
 26 27  1  0
 27 19  1  0
  2 28  1  0
  2 29  1  0
  3 30  1  0
  3 31  1  0
  4 32  1  0
  4 33  1  0
  5 34  1  0
  5 35  1  0
  6 36  1  1
  8 37  1  0
  9 38  1  0
 11 39  1  0
 14 40  1  0
 15 41  1  0
 20 42  1  0
 21 43  1  0
 23 44  1  0
 24 45  1  0
 25 46  1  0
 26 47  1  0
M  END
>  <Score>  (1) 
-7.01818

$$$$
