
     RDKit          3D

 51 55  0  0  0  0  0  0  0  0999 V2000
   40.1020   76.2630   60.5930 C   0  0  0  0  0  0  0  0  0  0  0  0
   40.5540   79.9280   60.5130 C   0  0  0  0  0  0  0  0  0  0  0  0
   41.6560   80.1110   61.3560 C   0  0  0  0  0  0  0  0  0  0  0  0
   42.2040   78.9550   61.9230 C   0  0  0  0  0  0  0  0  0  0  0  0
   41.6450   77.7670   61.6260 N   0  0  0  0  0  0  0  0  0  0  0  0
   40.5940   77.6200   60.8190 C   0  0  0  0  0  0  0  0  0  0  0  0
   40.0500   78.6940   60.2650 N   0  0  0  0  0  0  0  0  0  0  0  0
   42.1850   81.3740   61.6210 N   0  0  0  0  0  0  0  0  0  0  0  0
   43.2640   81.8740   61.0010 C   0  0  0  0  0  0  0  0  0  0  0  0
   43.5300   83.1230   61.4770 N   0  0  0  0  0  0  0  0  0  0  0  0
   42.6100   83.4070   62.4030 C   0  0  0  0  0  0  0  0  0  0  0  0
   42.3940   84.5020   63.2090 C   0  0  0  0  0  0  0  0  0  0  0  0
   41.3050   84.4530   64.0310 N   0  0  0  0  0  0  0  0  0  0  0  0
   40.5040   83.4200   64.1180 C   0  0  0  0  0  0  0  0  0  0  0  0
   40.7630   82.3710   63.3400 N   0  0  0  0  0  0  0  0  0  0  0  0
   41.7840   82.3020   62.4730 C   0  0  0  0  0  0  0  0  0  0  0  0
   38.7380   76.1510   60.0070 C   0  0  0  0  0  0  0  0  0  0  0  0
   38.8170   75.7380   58.5770 C   0  0  0  0  0  0  0  0  0  0  0  0
   39.1290   74.4360   58.2260 C   0  0  0  0  0  0  0  0  0  0  0  0
   39.1880   74.1100   56.8560 C   0  0  0  0  0  0  0  0  0  0  0  0
   38.9220   75.1450   56.0050 C   0  0  0  0  0  0  0  0  0  0  0  0
   38.6140   76.4330   56.3680 C   0  0  0  0  0  0  0  0  0  0  0  0
   38.5670   76.7050   57.6850 N   0  0  0  0  0  0  0  0  0  0  0  0
   38.3450   77.4800   55.4440 N   0  0  0  0  0  0  0  0  0  0  0  0
   38.7500   77.3600   54.1550 C   0  0  0  0  0  0  0  0  0  0  0  0
   38.4790   78.3900   53.2630 C   0  0  0  0  0  0  0  0  0  0  0  0
   38.9310   78.2450   51.8460 C   0  0  0  0  0  0  0  0  0  0  0  0
   37.8070   79.5220   53.6880 C   0  0  0  0  0  0  0  0  0  0  0  0
   37.5740   80.4520   52.8450 O   0  0  0  0  0  0  0  0  0  0  0  0
   37.4110   79.6190   54.9880 N   0  0  0  0  0  0  0  0  0  0  0  0
   37.6870   78.5960   55.8440 C   0  0  0  0  0  0  0  0  0  0  0  0
   37.3040   78.7190   57.0430 O   0  0  0  0  0  0  0  0  0  0  0  0
   40.8034   75.7603   59.9108 H   0  0  0  0  0  0  0  0  0  0  0  0
   40.0345   75.8029   61.5899 H   0  0  0  0  0  0  0  0  0  0  0  0
   40.0864   80.8047   60.0411 H   0  0  0  0  0  0  0  0  0  0  0  0
   43.0719   79.0157   62.5961 H   0  0  0  0  0  0  0  0  0  0  0  0
   43.8462   81.3546   60.2256 H   0  0  0  0  0  0  0  0  0  0  0  0
   43.2842   84.6305   63.8423 H   0  0  0  0  0  0  0  0  0  0  0  0
   42.1975   85.3352   62.5182 H   0  0  0  0  0  0  0  0  0  0  0  0
   39.6481   83.4193   64.8090 H   0  0  0  0  0  0  0  0  0  0  0  0
   40.1362   81.5565   63.4087 H   0  0  0  0  0  0  0  0  0  0  0  0
   38.1628   75.4007   60.5693 H   0  0  0  0  0  0  0  0  0  0  0  0
   38.2430   77.1315   60.0675 H   0  0  0  0  0  0  0  0  0  0  0  0
   39.3258   73.6756   58.9961 H   0  0  0  0  0  0  0  0  0  0  0  0
   39.4301   73.0981   56.4989 H   0  0  0  0  0  0  0  0  0  0  0  0
   38.9579   74.9260   54.9276 H   0  0  0  0  0  0  0  0  0  0  0  0
   39.2857   76.4594   53.8205 H   0  0  0  0  0  0  0  0  0  0  0  0
   39.9783   77.9090   51.8278 H   0  0  0  0  0  0  0  0  0  0  0  0
   38.2994   77.5044   51.3336 H   0  0  0  0  0  0  0  0  0  0  0  0
   38.8481   79.2148   51.3336 H   0  0  0  0  0  0  0  0  0  0  0  0
   36.9093   80.4553   55.3193 H   0  0  0  0  0  0  0  0  0  0  0  0
  1  6  1  0
  2  3  2  0
  3  8  1  0
  3  4  1  0
  5  4  2  0
  6  5  1  0
  7  2  1  0
  7  6  2  0
  8 16  1  0
  9 10  2  0
  9  8  1  0
 10 11  1  0
 11 16  2  0
 11 12  1  0
 12 13  1  0
 13 14  2  0
 15 14  1  0
 16 15  1  0
 17  1  1  0
 18 17  1  0
 19 18  2  0
 20 19  1  0
 21 22  1  0
 21 20  2  0
 22 23  2  0
 23 18  1  0
 24 31  1  0
 24 22  1  0
 25 24  1  0
 26 28  1  0
 26 25  2  0
 27 26  1  0
 28 30  1  0
 29 28  2  0
 30 31  1  0
 31 32  2  0
  1 33  1  0
  1 34  1  0
  2 35  1  0
  4 36  1  0
  9 37  1  0
 12 38  1  0
 12 39  1  0
 14 40  1  0
 15 41  1  0
 17 42  1  0
 17 43  1  0
 19 44  1  0
 20 45  1  0
 21 46  1  0
 25 47  1  0
 27 48  1  0
 27 49  1  0
 27 50  1  0
 30 51  1  0
M  END
>  <Score>  (1) 
-7.49572

$$$$
