
     RDKit          3D

 43 46  0  0  0  0  0  0  0  0999 V2000
   41.1920   81.5990   60.3620 C   0  0  0  0  0  0  0  0  0  0  0  0
   42.3290   81.3920   61.1910 C   0  0  0  0  0  0  0  0  0  0  0  0
   42.6960   80.0950   61.5670 C   0  0  0  0  0  0  0  0  0  0  0  0
   41.9360   79.0820   61.1130 N   0  0  0  0  0  0  0  0  0  0  0  0
   40.8650   79.2840   60.3320 C   0  0  0  0  0  0  0  0  0  0  0  0
   40.5410   80.5240   59.9920 N   0  0  0  0  0  0  0  0  0  0  0  0
   40.0540   78.2080   59.8480 N   0  0  0  0  0  0  0  0  0  0  0  0
   39.5680   78.3530   58.5740 C   0  0  0  0  0  0  0  0  0  0  0  0
   38.8200   77.1750   58.3590 C   0  0  0  0  0  0  0  0  0  0  0  0
   38.8730   76.3950   59.4530 N   0  0  0  0  0  0  0  0  0  0  0  0
   39.6300   77.0420   60.3480 C   0  0  0  0  0  0  0  0  0  0  0  0
   39.9950   76.6510   61.6580 N   0  0  0  0  0  0  0  0  0  0  0  0
   40.7690   82.9290   59.9430 C   0  0  0  0  0  0  0  0  0  0  0  0
   41.2870   83.3740   58.7290 C   0  0  0  0  0  0  0  0  0  0  0  0
   40.9400   84.6290   58.2490 C   0  0  0  0  0  0  0  0  0  0  0  0
   40.1050   85.3870   58.9770 C   0  0  0  0  0  0  0  0  0  0  0  0
   39.5780   84.9810   60.1730 C   0  0  0  0  0  0  0  0  0  0  0  0
   39.9260   83.7080   60.6660 C   0  0  0  0  0  0  0  0  0  0  0  0
   39.3380   83.3200   61.9470 C   0  0  0  0  0  0  0  0  0  0  0  0
   38.1650   83.2250   62.2900 O   0  0  0  0  0  0  0  0  0  0  0  0
   40.0590   82.9760   63.0480 O   0  0  0  0  0  0  0  0  0  0  0  0
   40.8370   83.6960   63.8940 C   0  0  0  0  0  0  0  0  0  0  0  0
   42.1030   84.2850   63.4700 N   0  0  0  0  0  0  0  0  0  0  0  0
   40.3690   83.8010   65.0530 O   0  0  0  0  0  0  0  0  0  0  0  0
   38.1220   76.9070   57.1230 N   0  0  0  0  0  0  0  0  0  0  0  0
   37.0680   77.7020   56.8140 C   0  0  0  0  0  0  0  0  0  0  0  0
   36.5880   77.2430   55.6080 C   0  0  0  0  0  0  0  0  0  0  0  0
   37.3360   76.2020   55.2070 N   0  0  0  0  0  0  0  0  0  0  0  0
   38.2970   75.9840   56.1470 C   0  0  0  0  0  0  0  0  0  0  0  0
   42.9206   82.2524   61.5370 H   0  0  0  0  0  0  0  0  0  0  0  0
   43.5708   79.9111   62.2080 H   0  0  0  0  0  0  0  0  0  0  0  0
   39.7246   79.1923   57.8805 H   0  0  0  0  0  0  0  0  0  0  0  0
   39.6656   75.7520   62.0377 H   0  0  0  0  0  0  0  0  0  0  0  0
   40.5901   77.2654   62.2318 H   0  0  0  0  0  0  0  0  0  0  0  0
   41.9694   82.7323   58.1522 H   0  0  0  0  0  0  0  0  0  0  0  0
   41.3408   84.9949   57.2922 H   0  0  0  0  0  0  0  0  0  0  0  0
   39.8314   86.3813   58.5943 H   0  0  0  0  0  0  0  0  0  0  0  0
   38.8970   85.6349   60.7375 H   0  0  0  0  0  0  0  0  0  0  0  0
   42.6690   84.8261   64.1391 H   0  0  0  0  0  0  0  0  0  0  0  0
   42.4306   84.1596   62.5016 H   0  0  0  0  0  0  0  0  0  0  0  0
   36.6763   78.5423   57.4061 H   0  0  0  0  0  0  0  0  0  0  0  0
   35.7302   77.6614   55.0611 H   0  0  0  0  0  0  0  0  0  0  0  0
   39.0715   75.2034   56.1190 H   0  0  0  0  0  0  0  0  0  0  0  0
  1  2  2  0
  2  3  1  0
  4  3  2  0
  5  4  1  0
  6  5  2  0
  6  1  1  0
  7  5  1  0
  7 11  1  0
  8  7  1  0
  9  8  2  0
  9 10  1  0
 10 11  2  0
 11 12  1  0
 13  1  1  0
 13 18  1  0
 14 13  2  0
 15 14  1  0
 15 16  2  0
 16 17  1  0
 17 18  2  0
 18 19  1  0
 19 20  2  0
 19 21  1  0
 21 22  1  0
 22 24  2  0
 23 22  1  0
 25  9  1  0
 26 25  1  0
 27 26  2  0
 28 27  1  0
 28 29  2  0
 29 25  1  0
  2 30  1  0
  3 31  1  0
  8 32  1  0
 12 33  1  0
 12 34  1  0
 14 35  1  0
 15 36  1  0
 16 37  1  0
 17 38  1  0
 23 39  1  0
 23 40  1  0
 26 41  1  0
 27 42  1  0
 29 43  1  0
M  END
>  <Score>  (1) 
-7.67621

$$$$
