
     RDKit          3D

 42 45  0  0  0  0  0  0  0  0999 V2000
   41.2410   83.9510   61.5010 C   0  0  0  0  0  0  0  0  0  0  0  0
   40.5190   83.9450   60.3450 C   0  0  0  0  0  0  0  0  0  0  0  0
   39.2070   83.8400   60.6390 N   0  0  0  0  0  0  0  0  0  0  0  0
   39.0670   83.7780   61.9650 C   0  0  0  0  0  0  0  0  0  0  0  0
   40.3090   83.8450   62.4990 N   0  0  0  0  0  0  0  0  0  0  0  0
   37.8590   83.6610   62.7210 N   0  0  0  0  0  0  0  0  0  0  0  0
   41.0420   84.0350   59.0230 N   0  0  0  0  0  0  0  0  0  0  0  0
   40.9780   85.3030   58.5500 C   0  0  0  0  0  0  0  0  0  0  0  0
   41.4240   85.6420   57.2920 C   0  0  0  0  0  0  0  0  0  0  0  0
   41.9500   84.6030   56.5250 C   0  0  0  0  0  0  0  0  0  0  0  0
   42.3740   84.8370   55.3730 O   0  0  0  0  0  0  0  0  0  0  0  0
   42.0050   83.3340   57.0230 N   0  0  0  0  0  0  0  0  0  0  0  0
   41.5580   83.0580   58.2530 C   0  0  0  0  0  0  0  0  0  0  0  0
   41.5510   81.9460   58.8220 O   0  0  0  0  0  0  0  0  0  0  0  0
   44.6320   85.3030   61.4890 C   0  0  0  0  0  0  0  0  0  0  0  0
   45.4020   84.1830   61.8990 C   0  0  0  0  0  0  0  0  0  0  0  0
   44.7430   83.0200   62.1630 C   0  0  0  0  0  0  0  0  0  0  0  0
   43.3800   83.0040   62.0140 N   0  0  0  0  0  0  0  0  0  0  0  0
   42.6780   84.0480   61.6340 C   0  0  0  0  0  0  0  0  0  0  0  0
   43.2940   85.2250   61.3630 N   0  0  0  0  0  0  0  0  0  0  0  0
   45.4280   81.8100   62.5890 C   0  0  0  0  0  0  0  0  0  0  0  0
   44.9710   80.5270   62.2900 C   0  0  0  0  0  0  0  0  0  0  0  0
   45.6120   79.3790   62.6900 C   0  0  0  0  0  0  0  0  0  0  0  0
   46.7630   79.5290   63.4220 C   0  0  0  0  0  0  0  0  0  0  0  0
   47.2780   80.7730   63.7570 C   0  0  0  0  0  0  0  0  0  0  0  0
   46.5800   81.8770   63.3210 C   0  0  0  0  0  0  0  0  0  0  0  0
   40.6550   83.8130   63.9070 C   0  0  0  0  0  0  0  0  0  0  0  0
   40.7620   82.4870   64.3010 F   0  0  0  0  0  0  0  0  0  0  0  0
   39.6620   84.4060   64.6710 F   0  0  0  0  0  0  0  0  0  0  0  0
   41.7970   84.5520   64.1860 F   0  0  0  0  0  0  0  0  0  0  0  0
   37.8968   83.6235   63.7496 H   0  0  0  0  0  0  0  0  0  0  0  0
   36.9510   83.6142   62.2370 H   0  0  0  0  0  0  0  0  0  0  0  0
   40.5551   86.0889   59.1931 H   0  0  0  0  0  0  0  0  0  0  0  0
   41.3685   86.6734   56.9138 H   0  0  0  0  0  0  0  0  0  0  0  0
   42.3963   82.5777   56.4435 H   0  0  0  0  0  0  0  0  0  0  0  0
   45.1391   86.2542   61.2698 H   0  0  0  0  0  0  0  0  0  0  0  0
   46.4952   84.2518   62.0003 H   0  0  0  0  0  0  0  0  0  0  0  0
   44.0468   80.4283   61.7017 H   0  0  0  0  0  0  0  0  0  0  0  0
   45.2196   78.3836   62.4346 H   0  0  0  0  0  0  0  0  0  0  0  0
   47.2981   78.6279   63.7562 H   0  0  0  0  0  0  0  0  0  0  0  0
   48.2025   80.8729   64.3446 H   0  0  0  0  0  0  0  0  0  0  0  0
   46.9731   82.8719   63.5771 H   0  0  0  0  0  0  0  0  0  0  0  0
  1 19  1  0
  1  5  1  0
  2  3  1  0
  2  1  2  0
  3  4  2  0
  4  5  1  0
  4  6  1  0
  5 27  1  0
  7  2  1  0
  8  7  1  0
  9  8  2  0
 10 12  1  0
 10  9  1  0
 11 10  2  0
 12 13  1  0
 13 14  2  0
 13  7  1  0
 15 16  2  0
 16 17  1  0
 17 21  1  0
 18 17  2  0
 19 18  1  0
 20 15  1  0
 20 19  2  0
 21 26  1  0
 22 21  2  0
 22 23  1  0
 23 24  2  0
 24 25  1  0
 26 25  2  0
 27 30  1  0
 27 28  1  0
 27 29  1  0
  6 31  1  0
  6 32  1  0
  8 33  1  0
  9 34  1  0
 12 35  1  0
 15 36  1  0
 16 37  1  0
 22 38  1  0
 23 39  1  0
 24 40  1  0
 25 41  1  0
 26 42  1  0
M  END
>  <Score>  (1) 
-7.5039

$$$$
