
     RDKit          3D

 45 49  0  0  0  0  0  0  0  0999 V2000
   40.5720   77.9050   62.6230 N   0  0  0  0  0  0  0  0  0  0  0  0
   40.2020   79.0760   63.1440 N   0  0  0  0  0  0  0  0  0  0  0  0
   40.9210   80.0460   62.5510 C   0  0  0  0  0  0  0  0  0  0  0  0
   41.7540   79.4040   61.6390 C   0  0  0  0  0  0  0  0  0  0  0  0
   41.5330   78.0580   61.6840 C   0  0  0  0  0  0  0  0  0  0  0  0
   42.2000   77.1070   60.8970 N   0  0  0  0  0  0  0  0  0  0  0  0
   43.4030   76.6550   61.2190 N   0  0  0  0  0  0  0  0  0  0  0  0
   43.7620   75.7670   60.2790 C   0  0  0  0  0  0  0  0  0  0  0  0
   42.7360   75.6650   59.3360 C   0  0  0  0  0  0  0  0  0  0  0  0
   41.7460   76.5430   59.7680 C   0  0  0  0  0  0  0  0  0  0  0  0
   38.0870   77.2290   57.6950 C   0  0  0  0  0  0  0  0  0  0  0  0
   39.2500   77.9060   57.3880 C   0  0  0  0  0  0  0  0  0  0  0  0
   40.4620   77.6960   58.0550 C   0  0  0  0  0  0  0  0  0  0  0  0
   40.4820   76.7590   59.0760 C   0  0  0  0  0  0  0  0  0  0  0  0
   39.3180   76.0870   59.3790 C   0  0  0  0  0  0  0  0  0  0  0  0
   38.1280   76.3000   58.7150 C   0  0  0  0  0  0  0  0  0  0  0  0
   36.6490   77.6240   56.7450 S   0  0  0  0  0  0  0  0  0  0  0  0
   35.3950   77.1600   57.3790 O   0  0  0  0  0  0  0  0  0  0  0  0
   36.7700   77.0090   55.3580 O   0  0  0  0  0  0  0  0  0  0  0  0
   40.6850   81.3310   62.9540 O   0  0  0  0  0  0  0  0  0  0  0  0
   40.7020   82.4290   62.1310 C   0  0  0  0  0  0  0  0  0  0  0  0
   39.5400   82.7540   61.4650 C   0  0  0  0  0  0  0  0  0  0  0  0
   39.5540   83.8710   60.6270 C   0  0  0  0  0  0  0  0  0  0  0  0
   40.7000   84.5670   60.5150 N   0  0  0  0  0  0  0  0  0  0  0  0
   41.8210   84.2240   61.1770 C   0  0  0  0  0  0  0  0  0  0  0  0
   41.7980   83.1760   61.9610 N   0  0  0  0  0  0  0  0  0  0  0  0
   43.0440   84.9230   61.0900 N   0  0  0  0  0  0  0  0  0  0  0  0
   43.7150   85.7890   61.8310 N   0  0  0  0  0  0  0  0  0  0  0  0
   44.8650   86.1280   61.2290 C   0  0  0  0  0  0  0  0  0  0  0  0
   44.9350   85.4390   60.0310 C   0  0  0  0  0  0  0  0  0  0  0  0
   43.7650   84.6810   59.9690 C   0  0  0  0  0  0  0  0  0  0  0  0
   40.1747   76.9964   62.9016 H   0  0  0  0  0  0  0  0  0  0  0  0
   42.4800   79.9053   60.9820 H   0  0  0  0  0  0  0  0  0  0  0  0
   44.7101   75.2098   60.2548 H   0  0  0  0  0  0  0  0  0  0  0  0
   42.7150   75.0257   58.4411 H   0  0  0  0  0  0  0  0  0  0  0  0
   39.2226   78.6489   56.5772 H   0  0  0  0  0  0  0  0  0  0  0  0
   41.3679   78.2554   57.7785 H   0  0  0  0  0  0  0  0  0  0  0  0
   39.3388   75.3443   60.1901 H   0  0  0  0  0  0  0  0  0  0  0  0
   37.2248   75.7377   58.9943 H   0  0  0  0  0  0  0  0  0  0  0  0
   36.5832   78.9901   56.6659 H   0  0  0  0  0  0  0  0  0  0  0  0
   38.6283   82.1513   61.5899 H   0  0  0  0  0  0  0  0  0  0  0  0
   38.6528   84.1736   60.0736 H   0  0  0  0  0  0  0  0  0  0  0  0
   45.6181   86.8288   61.6184 H   0  0  0  0  0  0  0  0  0  0  0  0
   45.7424   85.4801   59.2851 H   0  0  0  0  0  0  0  0  0  0  0  0
   43.4778   84.0039   59.1511 H   0  0  0  0  0  0  0  0  0  0  0  0
  1  2  1  0
  3 20  1  0
  3  2  2  0
  4  5  2  0
  4  3  1  0
  5  1  1  0
  6  7  1  0
  6  5  1  0
  8  7  2  0
  9 10  2  0
  9  8  1  0
 10  6  1  0
 11 16  2  0
 12 11  1  0
 12 13  2  0
 13 14  1  0
 14 15  2  0
 14 10  1  0
 16 15  1  0
 17 18  2  0
 17 11  1  0
 19 17  2  0
 21 20  1  0
 22 21  2  0
 23 22  1  0
 24 23  2  0
 24 25  1  0
 25 26  2  0
 26 21  1  0
 27 25  1  0
 27 28  1  0
 29 28  2  0
 30 29  1  0
 31 30  2  0
 31 27  1  0
  1 32  1  0
  4 33  1  0
  8 34  1  0
  9 35  1  0
 12 36  1  0
 13 37  1  0
 15 38  1  0
 16 39  1  0
 17 40  1  0
 22 41  1  0
 23 42  1  0
 29 43  1  0
 30 44  1  0
 31 45  1  0
M  END
>  <Score>  (1) 
-7.12608

$$$$
