
     RDKit          3D

 53 58  0  0  0  0  0  0  0  0999 V2000
   40.9990   81.5570   56.1000 C   0  0  0  0  0  0  0  0  0  0  0  0
   40.6860   81.3540   57.4270 C   0  0  0  0  0  0  0  0  0  0  0  0
   39.5390   80.6230   57.7140 C   0  0  0  0  0  0  0  0  0  0  0  0
   38.7950   80.1540   56.6630 N   0  0  0  0  0  0  0  0  0  0  0  0
   39.1380   80.3770   55.3910 C   0  0  0  0  0  0  0  0  0  0  0  0
   40.2590   81.0900   55.1030 N   0  0  0  0  0  0  0  0  0  0  0  0
   41.4770   81.8540   58.5540 C   0  0  0  0  0  0  0  0  0  0  0  0
   42.7640   81.7180   58.9450 N   0  0  0  0  0  0  0  0  0  0  0  0
   42.9420   82.3930   60.0510 O   0  0  0  0  0  0  0  0  0  0  0  0
   41.8610   82.9700   60.4240 C   0  0  0  0  0  0  0  0  0  0  0  0
   40.9210   82.6480   59.5010 N   0  0  0  0  0  0  0  0  0  0  0  0
   41.6280   83.7910   61.5600 N   0  0  0  0  0  0  0  0  0  0  0  0
   42.7550   84.3400   62.2910 C   0  0  0  0  0  0  0  0  0  0  0  0
   42.5260   84.1710   63.7740 C   0  0  0  0  0  0  0  0  0  0  0  0
   41.1700   84.5520   64.1580 N   0  0  0  0  0  0  0  0  0  0  0  0
   40.2070   83.6880   63.4760 C   0  0  0  0  0  0  0  0  0  0  0  0
   40.2750   84.0900   62.0060 C   0  0  0  0  0  0  0  0  0  0  0  0
   38.2980   79.8520   54.3210 C   0  0  0  0  0  0  0  0  0  0  0  0
   37.4450   78.7970   54.4770 C   0  0  0  0  0  0  0  0  0  0  0  0
   36.6890   78.3860   53.4090 C   0  0  0  0  0  0  0  0  0  0  0  0
   36.8230   79.0510   52.2320 N   0  0  0  0  0  0  0  0  0  0  0  0
   37.6530   80.0930   52.0440 C   0  0  0  0  0  0  0  0  0  0  0  0
   38.3450   80.4220   53.1280 N   0  0  0  0  0  0  0  0  0  0  0  0
   37.6450   80.6610   50.7140 C   0  0  0  0  0  0  0  0  0  0  0  0
   38.8410   81.0550   50.1470 C   0  0  0  0  0  0  0  0  0  0  0  0
   38.9500   81.6030   48.8970 C   0  0  0  0  0  0  0  0  0  0  0  0
   37.8320   81.7940   48.1230 C   0  0  0  0  0  0  0  0  0  0  0  0
   36.6130   81.4190   48.6420 C   0  0  0  0  0  0  0  0  0  0  0  0
   35.4880   81.6030   47.8830 C   0  0  0  0  0  0  0  0  0  0  0  0
   34.2370   81.2440   48.3530 C   0  0  0  0  0  0  0  0  0  0  0  0
   34.1750   80.6880   49.6350 C   0  0  0  0  0  0  0  0  0  0  0  0
   35.3340   80.5280   50.3470 C   0  0  0  0  0  0  0  0  0  0  0  0
   36.5790   80.8740   49.9050 C   0  0  0  0  0  0  0  0  0  0  0  0
   41.9041   82.1328   55.8566 H   0  0  0  0  0  0  0  0  0  0  0  0
   39.2376   80.4269   58.7536 H   0  0  0  0  0  0  0  0  0  0  0  0
   43.6739   83.8102   61.9995 H   0  0  0  0  0  0  0  0  0  0  0  0
   42.8573   85.4098   62.0562 H   0  0  0  0  0  0  0  0  0  0  0  0
   42.6895   83.1168   64.0421 H   0  0  0  0  0  0  0  0  0  0  0  0
   43.2303   84.8270   64.3066 H   0  0  0  0  0  0  0  0  0  0  0  0
   41.0607   84.4500   65.1771 H   0  0  0  0  0  0  0  0  0  0  0  0
   40.4835   82.6305   63.5993 H   0  0  0  0  0  0  0  0  0  0  0  0
   39.1924   83.8019   63.8855 H   0  0  0  0  0  0  0  0  0  0  0  0
   40.0668   85.1644   61.8955 H   0  0  0  0  0  0  0  0  0  0  0  0
   39.5289   83.5453   61.4088 H   0  0  0  0  0  0  0  0  0  0  0  0
   37.3653   78.2836   55.4465 H   0  0  0  0  0  0  0  0  0  0  0  0
   35.9923   77.5400   53.5030 H   0  0  0  0  0  0  0  0  0  0  0  0
   39.7611   80.9205   50.7347 H   0  0  0  0  0  0  0  0  0  0  0  0
   39.9386   81.8918   48.5107 H   0  0  0  0  0  0  0  0  0  0  0  0
   37.9080   82.2338   47.1176 H   0  0  0  0  0  0  0  0  0  0  0  0
   35.5807   82.0449   46.8799 H   0  0  0  0  0  0  0  0  0  0  0  0
   33.3316   81.3894   47.7455 H   0  0  0  0  0  0  0  0  0  0  0  0
   33.2094   80.3837   50.0651 H   0  0  0  0  0  0  0  0  0  0  0  0
   35.2561   80.0871   51.3517 H   0  0  0  0  0  0  0  0  0  0  0  0
  1  2  2  0
  2  3  1  0
  2  7  1  0
  4  3  2  0
  5  4  1  0
  6  5  2  0
  6  1  1  0
  7  8  2  0
  7 11  1  0
  8  9  1  0
  9 10  1  0
 10 12  1  0
 11 10  2  0
 12 17  1  0
 12 13  1  0
 13 14  1  0
 14 15  1  0
 16 15  1  0
 17 16  1  0
 18 19  2  0
 18  5  1  0
 20 19  1  0
 21 20  2  0
 22 21  1  0
 22 23  2  0
 23 18  1  0
 24 22  1  0
 25 24  2  0
 26 25  1  0
 27 28  1  0
 27 26  2  0
 28 33  2  0
 29 30  2  0
 29 28  1  0
 30 31  1  0
 31 32  2  0
 33 32  1  0
 33 24  1  0
  1 34  1  0
  3 35  1  0
 13 36  1  0
 13 37  1  0
 14 38  1  0
 14 39  1  0
 15 40  1  0
 16 41  1  0
 16 42  1  0
 17 43  1  0
 17 44  1  0
 19 45  1  0
 20 46  1  0
 25 47  1  0
 26 48  1  0
 27 49  1  0
 29 50  1  0
 30 51  1  0
 31 52  1  0
 32 53  1  0
M  END
>  <Score>  (1) 
-8.03094

$$$$
