
     RDKit          3D

 48 52  0  0  0  0  0  0  0  0999 V2000
   41.2370   84.2490   61.3570 C   0  0  0  0  0  0  0  0  0  0  0  0
   40.4570   84.4770   60.2500 C   0  0  0  0  0  0  0  0  0  0  0  0
   39.1680   84.2980   60.5870 N   0  0  0  0  0  0  0  0  0  0  0  0
   39.0920   83.9650   61.8640 C   0  0  0  0  0  0  0  0  0  0  0  0
   40.3610   83.9380   62.3280 N   0  0  0  0  0  0  0  0  0  0  0  0
   37.9190   83.6840   62.6230 N   0  0  0  0  0  0  0  0  0  0  0  0
   44.6170   85.6260   61.4140 C   0  0  0  0  0  0  0  0  0  0  0  0
   45.4070   84.4740   61.5510 C   0  0  0  0  0  0  0  0  0  0  0  0
   44.7720   83.2650   61.6210 C   0  0  0  0  0  0  0  0  0  0  0  0
   43.3980   83.2440   61.5530 N   0  0  0  0  0  0  0  0  0  0  0  0
   42.6770   84.3430   61.4230 C   0  0  0  0  0  0  0  0  0  0  0  0
   43.2750   85.5490   61.3510 N   0  0  0  0  0  0  0  0  0  0  0  0
   45.4740   82.0140   61.7580 C   0  0  0  0  0  0  0  0  0  0  0  0
   45.0850   80.9930   62.6160 C   0  0  0  0  0  0  0  0  0  0  0  0
   45.7480   79.7960   62.7520 C   0  0  0  0  0  0  0  0  0  0  0  0
   46.8770   79.6250   61.9700 C   0  0  0  0  0  0  0  0  0  0  0  0
   47.3330   80.5870   61.0930 C   0  0  0  0  0  0  0  0  0  0  0  0
   46.6070   81.7460   61.0250 C   0  0  0  0  0  0  0  0  0  0  0  0
   40.7700   83.6180   63.6850 C   0  0  0  0  0  0  0  0  0  0  0  0
   40.8960   82.2630   63.8050 F   0  0  0  0  0  0  0  0  0  0  0  0
   39.8250   84.0530   64.6170 F   0  0  0  0  0  0  0  0  0  0  0  0
   41.9340   84.3230   64.0600 F   0  0  0  0  0  0  0  0  0  0  0  0
   40.9980   84.8440   58.9030 C   0  0  0  0  0  0  0  0  0  0  0  0
   41.0060   83.6070   58.1330 N   0  0  0  0  0  0  0  0  0  0  0  0
   40.5390   82.3660   58.3500 C   0  0  0  0  0  0  0  0  0  0  0  0
   40.8070   81.5600   57.3080 N   0  0  0  0  0  0  0  0  0  0  0  0
   41.4600   82.2970   56.4080 C   0  0  0  0  0  0  0  0  0  0  0  0
   41.9950   82.0450   55.1570 C   0  0  0  0  0  0  0  0  0  0  0  0
   42.6130   83.0450   54.4880 N   0  0  0  0  0  0  0  0  0  0  0  0
   42.7510   84.2820   54.9530 C   0  0  0  0  0  0  0  0  0  0  0  0
   42.2310   84.5170   56.1630 N   0  0  0  0  0  0  0  0  0  0  0  0
   41.5970   83.5970   56.9100 C   0  0  0  0  0  0  0  0  0  0  0  0
   41.9020   80.7640   54.5640 N   0  0  0  0  0  0  0  0  0  0  0  0
   37.9977   83.4344   63.6192 H   0  0  0  0  0  0  0  0  0  0  0  0
   36.9925   83.7305   62.1754 H   0  0  0  0  0  0  0  0  0  0  0  0
   45.1042   86.6106   61.3570 H   0  0  0  0  0  0  0  0  0  0  0  0
   46.5038   84.5417   61.6006 H   0  0  0  0  0  0  0  0  0  0  0  0
   44.1853   81.1530   63.2283 H   0  0  0  0  0  0  0  0  0  0  0  0
   45.3997   79.0162   63.4452 H   0  0  0  0  0  0  0  0  0  0  0  0
   47.4351   78.6806   62.0514 H   0  0  0  0  0  0  0  0  0  0  0  0
   48.2331   80.4312   60.4801 H   0  0  0  0  0  0  0  0  0  0  0  0
   46.9570   82.5235   60.3300 H   0  0  0  0  0  0  0  0  0  0  0  0
   40.3519   85.5922   58.4207 H   0  0  0  0  0  0  0  0  0  0  0  0
   42.0032   85.2850   58.9747 H   0  0  0  0  0  0  0  0  0  0  0  0
   40.0075   82.0511   59.2601 H   0  0  0  0  0  0  0  0  0  0  0  0
   43.2628   85.0669   54.3768 H   0  0  0  0  0  0  0  0  0  0  0  0
   42.3070   80.5974   53.6317 H   0  0  0  0  0  0  0  0  0  0  0  0
   41.4293   79.9979   55.0645 H   0  0  0  0  0  0  0  0  0  0  0  0
  1 11  1  0
  1  5  1  0
  2  3  1  0
  2  1  2  0
  3  4  2  0
  4  5  1  0
  4  6  1  0
  5 19  1  0
  7  8  2  0
  8  9  1  0
  9 13  1  0
 10  9  2  0
 11 10  1  0
 12  7  1  0
 12 11  2  0
 13 14  2  0
 14 15  1  0
 16 15  2  0
 17 16  1  0
 18 17  2  0
 18 13  1  0
 19 20  1  0
 19 22  1  0
 19 21  1  0
 23  2  1  0
 24 25  1  0
 24 23  1  0
 26 25  2  0
 27 32  2  0
 27 26  1  0
 28 27  1  0
 29 30  1  0
 29 28  2  0
 30 31  2  0
 31 32  1  0
 32 24  1  0
 33 28  1  0
  6 34  1  0
  6 35  1  0
  7 36  1  0
  8 37  1  0
 14 38  1  0
 15 39  1  0
 16 40  1  0
 17 41  1  0
 18 42  1  0
 23 43  1  0
 23 44  1  0
 25 45  1  0
 30 46  1  0
 33 47  1  0
 33 48  1  0
M  END
>  <Score>  (1) 
-7.17479

$$$$
