
     RDKit          3D

 46 50  0  0  0  0  0  0  0  0999 V2000
   41.2660   84.2300   61.3170 C   0  0  0  0  0  0  0  0  0  0  0  0
   40.4940   84.4230   60.2000 C   0  0  0  0  0  0  0  0  0  0  0  0
   39.1950   84.2520   60.5180 N   0  0  0  0  0  0  0  0  0  0  0  0
   39.1110   83.9540   61.8100 C   0  0  0  0  0  0  0  0  0  0  0  0
   40.3750   83.9390   62.3060 N   0  0  0  0  0  0  0  0  0  0  0  0
   37.9220   83.6930   62.5690 N   0  0  0  0  0  0  0  0  0  0  0  0
   40.9680   84.7640   58.8480 C   0  0  0  0  0  0  0  0  0  0  0  0
   41.0760   86.0440   58.2990 C   0  0  0  0  0  0  0  0  0  0  0  0
   41.5430   85.9250   57.0590 N   0  0  0  0  0  0  0  0  0  0  0  0
   41.7480   84.6260   56.7680 C   0  0  0  0  0  0  0  0  0  0  0  0
   42.2110   83.9590   55.6500 C   0  0  0  0  0  0  0  0  0  0  0  0
   42.3120   82.5890   55.6570 C   0  0  0  0  0  0  0  0  0  0  0  0
   41.9570   81.8340   56.7710 C   0  0  0  0  0  0  0  0  0  0  0  0
   41.4880   82.4860   57.9040 C   0  0  0  0  0  0  0  0  0  0  0  0
   41.3970   83.8600   57.8720 C   0  0  0  0  0  0  0  0  0  0  0  0
   44.6550   85.5700   61.4030 C   0  0  0  0  0  0  0  0  0  0  0  0
   45.4290   84.4060   61.5900 C   0  0  0  0  0  0  0  0  0  0  0  0
   44.7720   83.1990   61.6800 C   0  0  0  0  0  0  0  0  0  0  0  0
   43.4130   83.2150   61.5830 N   0  0  0  0  0  0  0  0  0  0  0  0
   42.7060   84.3190   61.4080 C   0  0  0  0  0  0  0  0  0  0  0  0
   43.3160   85.5100   61.3160 N   0  0  0  0  0  0  0  0  0  0  0  0
   45.4820   81.9580   61.8710 C   0  0  0  0  0  0  0  0  0  0  0  0
   44.8950   80.8470   62.4580 C   0  0  0  0  0  0  0  0  0  0  0  0
   45.5370   79.6350   62.6610 C   0  0  0  0  0  0  0  0  0  0  0  0
   46.8490   79.5660   62.2400 C   0  0  0  0  0  0  0  0  0  0  0  0
   47.4930   80.6230   61.6520 C   0  0  0  0  0  0  0  0  0  0  0  0
   46.7810   81.8020   61.4830 C   0  0  0  0  0  0  0  0  0  0  0  0
   40.7560   83.6610   63.6720 C   0  0  0  0  0  0  0  0  0  0  0  0
   40.9160   82.3080   63.8170 F   0  0  0  0  0  0  0  0  0  0  0  0
   39.7840   84.0830   64.5600 F   0  0  0  0  0  0  0  0  0  0  0  0
   41.8980   84.3810   64.0440 F   0  0  0  0  0  0  0  0  0  0  0  0
   37.9899   83.4716   63.5726 H   0  0  0  0  0  0  0  0  0  0  0  0
   37.0004   83.7270   62.1103 H   0  0  0  0  0  0  0  0  0  0  0  0
   40.8194   86.9868   58.8043 H   0  0  0  0  0  0  0  0  0  0  0  0
   41.7214   86.7101   56.4166 H   0  0  0  0  0  0  0  0  0  0  0  0
   42.4993   84.5261   54.7526 H   0  0  0  0  0  0  0  0  0  0  0  0
   42.6834   82.0750   54.7582 H   0  0  0  0  0  0  0  0  0  0  0  0
   42.0465   80.7378   56.7543 H   0  0  0  0  0  0  0  0  0  0  0  0
   41.1973   81.9209   58.8019 H   0  0  0  0  0  0  0  0  0  0  0  0
   45.1574   86.5456   61.3269 H   0  0  0  0  0  0  0  0  0  0  0  0
   46.5253   84.4606   61.6619 H   0  0  0  0  0  0  0  0  0  0  0  0
   43.8483   80.9333   62.7849 H   0  0  0  0  0  0  0  0  0  0  0  0
   45.0301   78.7788   63.1301 H   0  0  0  0  0  0  0  0  0  0  0  0
   47.4002   78.6247   62.3820 H   0  0  0  0  0  0  0  0  0  0  0  0
   48.5399   80.5396   61.3247 H   0  0  0  0  0  0  0  0  0  0  0  0
   47.2903   82.6555   61.0116 H   0  0  0  0  0  0  0  0  0  0  0  0
  1 20  1  0
  1  5  1  0
  2  3  1  0
  2  1  2  0
  3  4  2  0
  4  5  1  0
  4  6  1  0
  5 28  1  0
  7  2  1  0
  8  7  2  0
  9  8  1  0
 10  9  1  0
 10 15  2  0
 11 12  2  0
 11 10  1  0
 12 13  1  0
 13 14  2  0
 15 14  1  0
 15  7  1  0
 16 17  2  0
 17 18  1  0
 18 22  1  0
 19 18  2  0
 20 19  1  0
 21 16  1  0
 21 20  2  0
 22 23  2  0
 23 24  1  0
 25 24  2  0
 26 25  1  0
 27 26  2  0
 27 22  1  0
 28 29  1  0
 28 31  1  0
 28 30  1  0
  6 32  1  0
  6 33  1  0
  8 34  1  0
  9 35  1  0
 11 36  1  0
 12 37  1  0
 13 38  1  0
 14 39  1  0
 16 40  1  0
 17 41  1  0
 23 42  1  0
 24 43  1  0
 25 44  1  0
 26 45  1  0
 27 46  1  0
M  END
>  <Score>  (1) 
-7.53558

$$$$
