
     RDKit          3D

 43 47  0  0  0  0  0  0  0  0999 V2000
   39.8360   82.2190   60.3060 C   0  0  0  0  0  0  0  0  0  0  0  0
   40.1750   83.1860   59.3230 C   0  0  0  0  0  0  0  0  0  0  0  0
   39.9650   84.5260   59.5990 C   0  0  0  0  0  0  0  0  0  0  0  0
   39.4240   84.8400   60.8540 N   0  0  0  0  0  0  0  0  0  0  0  0
   39.1070   83.8760   61.7870 C   0  0  0  0  0  0  0  0  0  0  0  0
   39.3060   82.5500   61.5310 N   0  0  0  0  0  0  0  0  0  0  0  0
   40.0730   80.8780   59.9380 N   0  0  0  0  0  0  0  0  0  0  0  0
   40.2200   80.3670   58.7220 C   0  0  0  0  0  0  0  0  0  0  0  0
   40.4470   79.0650   58.7700 N   0  0  0  0  0  0  0  0  0  0  0  0
   40.4480   78.6990   60.0630 C   0  0  0  0  0  0  0  0  0  0  0  0
   40.6130   77.4600   60.6310 C   0  0  0  0  0  0  0  0  0  0  0  0
   40.8330   76.4520   59.8760 O   0  0  0  0  0  0  0  0  0  0  0  0
   40.5380   77.3600   61.9520 N   0  0  0  0  0  0  0  0  0  0  0  0
   40.3100   78.4580   62.6700 C   0  0  0  0  0  0  0  0  0  0  0  0
   40.2660   78.2190   64.0670 N   0  0  0  0  0  0  0  0  0  0  0  0
   40.1420   79.6980   62.1610 N   0  0  0  0  0  0  0  0  0  0  0  0
   40.2080   79.8580   60.8100 C   0  0  0  0  0  0  0  0  0  0  0  0
   40.1300   80.9170   57.3720 C   0  0  0  0  0  0  0  0  0  0  0  0
   40.4690   79.8890   56.2890 C   0  0  0  0  0  0  0  0  0  0  0  0
   41.7630   79.4380   56.0290 C   0  0  0  0  0  0  0  0  0  0  0  0
   41.8000   78.5500   55.0340 N   0  0  0  0  0  0  0  0  0  0  0  0
   40.5340   78.4210   54.6420 C   0  0  0  0  0  0  0  0  0  0  0  0
   39.9380   77.6420   53.6490 C   0  0  0  0  0  0  0  0  0  0  0  0
   38.5850   77.6710   53.4220 C   0  0  0  0  0  0  0  0  0  0  0  0
   37.7900   78.4860   54.1890 C   0  0  0  0  0  0  0  0  0  0  0  0
   38.3420   79.2820   55.1930 C   0  0  0  0  0  0  0  0  0  0  0  0
   39.7020   79.2190   55.3840 C   0  0  0  0  0  0  0  0  0  0  0  0
   37.4670   80.1090   55.9370 C   0  0  0  0  0  0  0  0  0  0  0  0
   36.9860   81.1860   55.5020 O   0  0  0  0  0  0  0  0  0  0  0  0
   40.5982   82.8748   58.3565 H   0  0  0  0  0  0  0  0  0  0  0  0
   40.2114   85.3092   58.8669 H   0  0  0  0  0  0  0  0  0  0  0  0
   38.6857   84.1811   62.7562 H   0  0  0  0  0  0  0  0  0  0  0  0
   40.6543   76.4472   62.4148 H   0  0  0  0  0  0  0  0  0  0  0  0
   40.0956   78.9989   64.7178 H   0  0  0  0  0  0  0  0  0  0  0  0
   40.4045   77.2655   64.4310 H   0  0  0  0  0  0  0  0  0  0  0  0
   39.1036   81.2764   57.2066 H   0  0  0  0  0  0  0  0  0  0  0  0
   40.8647   81.7322   57.2967 H   0  0  0  0  0  0  0  0  0  0  0  0
   42.6520   79.7761   56.5816 H   0  0  0  0  0  0  0  0  0  0  0  0
   42.6271   78.0692   54.6524 H   0  0  0  0  0  0  0  0  0  0  0  0
   40.5701   76.9869   53.0315 H   0  0  0  0  0  0  0  0  0  0  0  0
   38.1414   77.0467   52.6324 H   0  0  0  0  0  0  0  0  0  0  0  0
   36.7050   78.5117   54.0099 H   0  0  0  0  0  0  0  0  0  0  0  0
   37.1922   79.7914   56.9536 H   0  0  0  0  0  0  0  0  0  0  0  0
  1  6  2  0
  2  3  2  0
  2  1  1  0
  3  4  1  0
  4  5  2  0
  6  5  1  0
  7  1  1  0
  7 17  1  0
  8  9  2  0
  8  7  1  0
  9 10  1  0
 10 11  1  0
 10 17  2  0
 11 13  1  0
 12 11  2  0
 13 14  1  0
 14 15  1  0
 16 14  2  0
 17 16  1  0
 18  8  1  0
 19 18  1  0
 20 19  2  0
 21 20  1  0
 22 21  1  0
 22 27  2  0
 23 22  1  0
 24 23  2  0
 24 25  1  0
 25 26  2  0
 26 27  1  0
 26 28  1  0
 27 19  1  0
 29 28  2  0
  2 30  1  0
  3 31  1  0
  5 32  1  0
 13 33  1  0
 15 34  1  0
 15 35  1  0
 18 36  1  0
 18 37  1  0
 20 38  1  0
 21 39  1  0
 23 40  1  0
 24 41  1  0
 25 42  1  0
 28 43  1  0
M  END
>  <Score>  (1) 
-7.22381

$$$$
