
     RDKit          3D

 47 50  0  0  1  0  0  0  0  0999 V2000
   40.3710   83.6610   58.6380 C   0  0  0  0  0  0  0  0  0  0  0  0
   39.5130   84.4510   59.4090 C   0  0  0  0  0  0  0  0  0  0  0  0
   39.1770   83.9660   60.6690 C   0  0  0  0  0  0  0  0  0  0  0  0
   39.6850   82.7770   61.0790 N   0  0  0  0  0  0  0  0  0  0  0  0
   40.5090   82.0440   60.3100 C   0  0  0  0  0  0  0  0  0  0  0  0
   40.8610   82.4890   59.0680 N   0  0  0  0  0  0  0  0  0  0  0  0
   41.0070   80.7930   60.8170 N   0  0  0  0  0  0  0  0  0  0  0  0
   40.1150   79.7500   61.1660 C   0  0  0  0  0  0  0  0  0  0  0  0
   40.7960   78.3990   61.0790 C   0  0  0  0  0  0  0  0  0  0  0  0
   42.0640   78.3150   61.8570 C   0  0  0  0  0  0  0  0  0  0  0  0
   42.8220   79.6000   61.9440 C   0  0  0  0  0  0  0  0  0  0  0  0
   42.4380   80.6460   60.9570 C   0  0  2  0  0  0  0  0  0  0  0  0
   43.0180   81.9410   61.4240 C   0  0  0  0  0  0  0  0  0  0  0  0
   44.0040   82.5950   60.7230 C   0  0  0  0  0  0  0  0  0  0  0  0
   44.4800   83.7980   61.2420 C   0  0  0  0  0  0  0  0  0  0  0  0
   43.9870   84.3070   62.3970 N   0  0  0  0  0  0  0  0  0  0  0  0
   43.0110   83.6420   63.0730 C   0  0  0  0  0  0  0  0  0  0  0  0
   42.5380   82.4790   62.5910 N   0  0  0  0  0  0  0  0  0  0  0  0
   42.4940   84.1730   64.2820 N   0  0  0  0  0  0  0  0  0  0  0  0
   41.0990   84.2060   64.5220 C   0  0  0  0  0  0  0  0  0  0  0  0
   40.3330   83.3190   63.9450 N   0  0  0  0  0  0  0  0  0  0  0  0
   40.5870   85.2260   65.3970 N   0  0  0  0  0  0  0  0  0  0  0  0
   39.2940   83.3670   64.1440 H   0  0  0  0  0  0  0  0  0  0  0  0
   45.5240   84.5300   60.5380 C   0  0  0  0  0  0  0  0  0  0  0  0
   45.3270   85.5960   59.6840 C   0  0  0  0  0  0  0  0  0  0  0  0
   46.5610   85.9360   59.2820 N   0  0  0  0  0  0  0  0  0  0  0  0
   47.4590   85.1270   59.8550 C   0  0  0  0  0  0  0  0  0  0  0  0
   46.8270   84.2400   60.6460 N   0  0  0  0  0  0  0  0  0  0  0  0
   40.6562   84.0157   57.6366 H   0  0  0  0  0  0  0  0  0  0  0  0
   39.1224   85.4098   59.0373 H   0  0  0  0  0  0  0  0  0  0  0  0
   38.5068   84.5404   61.3254 H   0  0  0  0  0  0  0  0  0  0  0  0
   39.7616   79.9087   62.1955 H   0  0  0  0  0  0  0  0  0  0  0  0
   39.2702   79.7619   60.4616 H   0  0  0  0  0  0  0  0  0  0  0  0
   40.1027   77.6356   61.4618 H   0  0  0  0  0  0  0  0  0  0  0  0
   41.0564   78.2383   60.0224 H   0  0  0  0  0  0  0  0  0  0  0  0
   41.8195   77.9901   62.8791 H   0  0  0  0  0  0  0  0  0  0  0  0
   42.7124   77.6039   61.3241 H   0  0  0  0  0  0  0  0  0  0  0  0
   42.6696   80.0143   62.9515 H   0  0  0  0  0  0  0  0  0  0  0  0
   43.8682   79.3459   61.7186 H   0  0  0  0  0  0  0  0  0  0  0  0
   42.8238   80.3477   59.9710 H   0  0  0  0  0  0  0  0  0  0  0  0
   44.4035   82.1828   59.7846 H   0  0  0  0  0  0  0  0  0  0  0  0
   43.1414   84.5393   64.9945 H   0  0  0  0  0  0  0  0  0  0  0  0
   39.5770   85.2775   65.5924 H   0  0  0  0  0  0  0  0  0  0  0  0
   41.2303   85.9050   65.8283 H   0  0  0  0  0  0  0  0  0  0  0  0
   44.3728   86.0621   59.3973 H   0  0  0  0  0  0  0  0  0  0  0  0
   48.5472   85.1787   59.7031 H   0  0  0  0  0  0  0  0  0  0  0  0
   47.2552   83.4954   61.2144 H   0  0  0  0  0  0  0  0  0  0  0  0
  1  6  2  0
  1  2  1  0
  2  3  2  0
  3  4  1  0
  5  7  1  0
  5  4  2  0
  6  5  1  0
  7 12  1  0
  7  8  1  0
  9  8  1  0
  9 10  1  0
 10 11  1  0
 12 13  1  0
 12 11  1  0
 13 18  2  0
 14 15  2  0
 14 13  1  0
 15 16  1  0
 16 17  2  0
 17 19  1  0
 18 17  1  0
 19 20  1  0
 20 22  1  0
 21 23  1  0
 21 20  2  0
 24 28  1  0
 24 15  1  0
 25 24  2  0
 26 25  1  0
 26 27  2  0
 27 28  1  0
  1 29  1  0
  2 30  1  0
  3 31  1  0
  8 32  1  0
  8 33  1  0
  9 34  1  0
  9 35  1  0
 10 36  1  0
 10 37  1  0
 11 38  1  0
 11 39  1  0
 12 40  1  6
 14 41  1  0
 19 42  1  0
 22 43  1  0
 22 44  1  0
 25 45  1  0
 27 46  1  0
 28 47  1  0
M  END
>  <Score>  (1) 
-7.05298

$$$$
