
     RDKit          3D

 43 47  0  0  0  0  0  0  0  0999 V2000
   38.6790   77.8330   57.0570 C   0  0  0  0  0  0  0  0  0  0  0  0
   38.4930   76.5110   57.2670 C   0  0  0  0  0  0  0  0  0  0  0  0
   37.9880   75.9560   56.1090 C   0  0  0  0  0  0  0  0  0  0  0  0
   37.8870   76.9950   55.2210 C   0  0  0  0  0  0  0  0  0  0  0  0
   38.3080   78.0750   55.8330 O   0  0  0  0  0  0  0  0  0  0  0  0
   38.7290   75.7170   58.4230 N   0  0  0  0  0  0  0  0  0  0  0  0
   38.2000   75.6600   59.6590 C   0  0  0  0  0  0  0  0  0  0  0  0
   38.7970   74.7320   60.4110 N   0  0  0  0  0  0  0  0  0  0  0  0
   39.7560   74.1520   59.6510 C   0  0  0  0  0  0  0  0  0  0  0  0
   40.6420   73.1460   59.9670 C   0  0  0  0  0  0  0  0  0  0  0  0
   41.5030   72.7530   59.0050 N   0  0  0  0  0  0  0  0  0  0  0  0
   41.4660   73.3540   57.7800 C   0  0  0  0  0  0  0  0  0  0  0  0
   40.5920   74.3370   57.4930 N   0  0  0  0  0  0  0  0  0  0  0  0
   39.7120   74.7730   58.4000 C   0  0  0  0  0  0  0  0  0  0  0  0
   37.3910   76.9070   53.8210 C   0  0  0  0  0  0  0  0  0  0  0  0
   37.8970   77.9110   53.0430 F   0  0  0  0  0  0  0  0  0  0  0  0
   36.0030   76.8610   53.7750 F   0  0  0  0  0  0  0  0  0  0  0  0
   37.8120   75.6990   53.2620 F   0  0  0  0  0  0  0  0  0  0  0  0
   37.6600   74.5820   55.9420 N   0  0  0  0  0  0  0  0  0  0  0  0
   39.1450   78.8370   57.8410 O   0  0  0  0  0  0  0  0  0  0  0  0
   40.3730   78.9370   58.4760 C   0  0  0  0  0  0  0  0  0  0  0  0
   41.2910   78.6440   57.6720 O   0  0  0  0  0  0  0  0  0  0  0  0
   40.8940   80.6900   61.4750 C   0  0  0  0  0  0  0  0  0  0  0  0
   40.6840   79.4360   62.0690 C   0  0  0  0  0  0  0  0  0  0  0  0
   40.4500   78.5640   60.9950 C   0  0  0  0  0  0  0  0  0  0  0  0
   40.5290   79.3220   59.8490 C   0  0  0  0  0  0  0  0  0  0  0  0
   40.7890   80.5470   60.1900 O   0  0  0  0  0  0  0  0  0  0  0  0
   40.7000   83.4860   63.8920 C   0  0  0  0  0  0  0  0  0  0  0  0
   42.0190   83.9570   63.8470 C   0  0  0  0  0  0  0  0  0  0  0  0
   42.9130   83.3230   63.0170 C   0  0  0  0  0  0  0  0  0  0  0  0
   42.4300   82.2660   62.2890 N   0  0  0  0  0  0  0  0  0  0  0  0
   41.1700   81.8340   62.3450 C   0  0  0  0  0  0  0  0  0  0  0  0
   40.3210   82.4530   63.1490 N   0  0  0  0  0  0  0  0  0  0  0  0
   37.3760   76.3000   60.0075 H   0  0  0  0  0  0  0  0  0  0  0  0
   40.6476   72.6813   60.9640 H   0  0  0  0  0  0  0  0  0  0  0  0
   42.1721   73.0250   57.0033 H   0  0  0  0  0  0  0  0  0  0  0  0
   37.2867   74.2473   55.0423 H   0  0  0  0  0  0  0  0  0  0  0  0
   37.7958   73.9218   56.7208 H   0  0  0  0  0  0  0  0  0  0  0  0
   40.6995   79.1906   63.1412 H   0  0  0  0  0  0  0  0  0  0  0  0
   40.2437   77.4853   61.0569 H   0  0  0  0  0  0  0  0  0  0  0  0
   39.9696   83.9782   64.5510 H   0  0  0  0  0  0  0  0  0  0  0  0
   42.3318   84.8141   64.4615 H   0  0  0  0  0  0  0  0  0  0  0  0
   43.9615   83.6468   62.9408 H   0  0  0  0  0  0  0  0  0  0  0  0
  1  2  2  0
  1 20  1  0
  2  6  1  0
  3  2  1  0
  4  5  1  0
  4  3  2  0
  5  1  1  0
  6  7  1  0
  7  8  2  0
  9 10  2  0
  9  8  1  0
 11 10  1  0
 12 11  2  0
 13 12  1  0
 13 14  2  0
 14  6  1  0
 14  9  1  0
 15  4  1  0
 16 15  1  0
 17 15  1  0
 18 15  1  0
 19  3  1  0
 20 21  1  0
 21 26  1  0
 22 21  2  0
 23 24  2  0
 23 32  1  0
 25 24  1  0
 26 27  1  0
 26 25  2  0
 27 23  1  0
 29 28  2  0
 30 29  1  0
 31 32  1  0
 31 30  2  0
 32 33  2  0
 33 28  1  0
  7 34  1  0
 10 35  1  0
 12 36  1  0
 19 37  1  0
 19 38  1  0
 24 39  1  0
 25 40  1  0
 28 41  1  0
 29 42  1  0
 30 43  1  0
M  END
>  <Score>  (1) 
-7.12277

$$$$
