
     RDKit          3D

 29 32  0  0  0  0  0  0  0  0999 V2000
   40.7663   81.6990   61.6417 N   0  0  0  0  0  0  0  0  0  0  0  0
   40.9055   80.3809   61.7297 N   0  0  0  0  0  0  0  0  0  0  0  0
   40.4698   79.8229   60.5619 C   0  0  0  0  0  0  0  0  0  0  0  0
   40.0672   80.8723   59.7809 C   0  0  0  0  0  0  0  0  0  0  0  0
   40.2514   82.0697   60.4579 C   0  0  0  0  0  0  0  0  0  0  0  0
   39.9862   83.4257   60.0700 N   0  0  0  0  0  0  0  0  0  0  0  0
   39.1761   84.3536   60.6022 C   0  0  0  0  0  0  0  0  0  0  0  0
   39.2640   85.4896   59.8838 N   0  0  0  0  0  0  0  0  0  0  0  0
   40.1400   85.2854   58.8811 C   0  0  0  0  0  0  0  0  0  0  0  0
   40.6545   86.0235   57.8339 C   0  0  0  0  0  0  0  0  0  0  0  0
   41.5428   85.5134   56.9790 N   0  0  0  0  0  0  0  0  0  0  0  0
   42.0016   84.2258   57.0848 C   0  0  0  0  0  0  0  0  0  0  0  0
   41.5027   83.5062   58.1024 N   0  0  0  0  0  0  0  0  0  0  0  0
   40.6119   83.9680   58.9862 C   0  0  0  0  0  0  0  0  0  0  0  0
   42.7255   83.9756   63.8162 C   0  0  0  0  0  0  0  0  0  0  0  0
   42.4374   83.0835   62.7751 C   0  0  0  0  0  0  0  0  0  0  0  0
   41.1218   82.6104   62.6812 C   0  0  0  0  0  0  0  0  0  0  0  0
   40.1976   83.0337   63.5932 N   0  0  0  0  0  0  0  0  0  0  0  0
   40.5413   83.8921   64.5687 C   0  0  0  0  0  0  0  0  0  0  0  0
   41.7965   84.3767   64.7013 N   0  0  0  0  0  0  0  0  0  0  0  0
   40.4480   78.7643   60.3073 H   0  0  0  0  0  0  0  0  0  0  0  0
   39.6570   80.8374   58.7749 H   0  0  0  0  0  0  0  0  0  0  0  0
   38.5853   84.1418   61.4651 H   0  0  0  0  0  0  0  0  0  0  0  0
   40.3141   87.0451   57.7200 H   0  0  0  0  0  0  0  0  0  0  0  0
   42.7160   83.8401   56.3842 H   0  0  0  0  0  0  0  0  0  0  0  0
   43.7622   84.3279   63.8636 H   0  0  0  0  0  0  0  0  0  0  0  0
   43.1577   82.7510   62.0609 H   0  0  0  0  0  0  0  0  0  0  0  0
   39.5590   84.2772   65.4541 O   0  0  0  0  0  0  0  0  0  0  0  0
   38.5993   84.0462   65.3517 H   0  0  0  0  0  0  0  0  0  0  0  0
  1  2  1  0
  1 17  1  0
  3  2  2  0
  4  5  2  0
  4  3  1  0
  5  1  1  0
  6  5  1  0
  6  7  1  0
  8  7  2  0
  9 14  2  0
  9  8  1  0
 10  9  1  0
 11 12  1  0
 11 10  2  0
 12 13  2  0
 13 14  1  0
 14  6  1  0
 15 20  2  0
 16 15  1  0
 17 16  2  0
 17 18  1  0
 18 19  2  0
 19 20  1  0
  3 21  1  0
  4 22  1  0
  7 23  1  0
 10 24  1  0
 12 25  1  0
 15 26  1  0
 16 27  1  0
 28 29  1  0
 19 28  1  0
M  END
>  <Score>  (1) 
-7.25889

$$$$
