
     RDKit          3D

 40 43  0  0  0  0  0  0  0  0999 V2000
   41.2850   78.7100   60.6610 C   0  0  0  0  0  0  0  0  0  0  0  0
   40.4440   77.9020   61.3850 C   0  0  0  0  0  0  0  0  0  0  0  0
   39.8210   77.0140   60.5340 C   0  0  0  0  0  0  0  0  0  0  0  0
   40.3150   77.3210   59.2870 C   0  0  0  0  0  0  0  0  0  0  0  0
   41.1460   78.3000   59.4480 O   0  0  0  0  0  0  0  0  0  0  0  0
   40.1210   76.8130   57.9440 C   0  0  0  0  0  0  0  0  0  0  0  0
   41.0880   76.0640   57.3640 N   0  0  0  0  0  0  0  0  0  0  0  0
   40.9730   75.4550   56.1830 C   0  0  0  0  0  0  0  0  0  0  0  0
   39.8360   75.5400   55.4390 N   0  0  0  0  0  0  0  0  0  0  0  0
   38.7970   76.2760   55.9340 C   0  0  0  0  0  0  0  0  0  0  0  0
   37.6410   76.4210   55.2110 C   0  0  0  0  0  0  0  0  0  0  0  0
   36.5890   77.1860   55.6660 C   0  0  0  0  0  0  0  0  0  0  0  0
   36.7680   77.8050   56.9030 C   0  0  0  0  0  0  0  0  0  0  0  0
   37.9480   77.6250   57.5850 C   0  0  0  0  0  0  0  0  0  0  0  0
   39.0090   76.8670   57.1560 C   0  0  0  0  0  0  0  0  0  0  0  0
   43.4020   79.5280   61.7390 C   0  0  0  0  0  0  0  0  0  0  0  0
   42.0990   79.7620   61.2640 C   0  0  0  0  0  0  0  0  0  0  0  0
   41.5700   81.0350   61.3810 C   0  0  0  0  0  0  0  0  0  0  0  0
   42.3550   82.0180   61.9620 N   0  0  0  0  0  0  0  0  0  0  0  0
   43.6020   81.7290   62.3990 C   0  0  0  0  0  0  0  0  0  0  0  0
   44.1100   80.5010   62.2870 N   0  0  0  0  0  0  0  0  0  0  0  0
   44.3140   82.9030   63.0050 C   0  0  0  0  0  0  0  0  0  0  0  0
   45.3880   82.4190   63.7950 F   0  0  0  0  0  0  0  0  0  0  0  0
   43.4990   83.5810   63.9040 F   0  0  0  0  0  0  0  0  0  0  0  0
   44.7520   83.7200   62.0280 F   0  0  0  0  0  0  0  0  0  0  0  0
   40.2470   81.4110   60.9330 C   0  0  0  0  0  0  0  0  0  0  0  0
   39.9580   81.3550   59.7110 O   0  0  0  0  0  0  0  0  0  0  0  0
   39.2930   81.8360   61.8680 O   0  0  0  0  0  0  0  0  0  0  0  0
   39.1690   83.2170   62.1730 C   0  0  0  0  0  0  0  0  0  0  0  0
   39.9200   83.4820   63.3070 F   0  0  0  0  0  0  0  0  0  0  0  0
   39.8390   83.9000   61.1400 F   0  0  0  0  0  0  0  0  0  0  0  0
   37.8840   83.6620   62.2210 F   0  0  0  0  0  0  0  0  0  0  0  0
   40.2912   77.9547   62.4731 H   0  0  0  0  0  0  0  0  0  0  0  0
   39.0910   76.2333   60.7942 H   0  0  0  0  0  0  0  0  0  0  0  0
   41.8204   74.8677   55.7994 H   0  0  0  0  0  0  0  0  0  0  0  0
   37.5508   75.9121   54.2400 H   0  0  0  0  0  0  0  0  0  0  0  0
   35.6611   77.3019   55.0867 H   0  0  0  0  0  0  0  0  0  0  0  0
   35.9713   78.4322   57.3295 H   0  0  0  0  0  0  0  0  0  0  0  0
   38.0506   78.1310   58.5563 H   0  0  0  0  0  0  0  0  0  0  0  0
   43.8380   78.5217   61.6534 H   0  0  0  0  0  0  0  0  0  0  0  0
  1 17  1  0
  1  2  2  0
  3  2  1  0
  4  5  1  0
  4  3  2  0
  5  1  1  0
  6  4  1  0
  7  6  2  0
  8  7  1  0
  9 10  1  0
  9  8  2  0
 10 15  2  0
 11 12  2  0
 11 10  1  0
 12 13  1  0
 13 14  2  0
 15 14  1  0
 15  6  1  0
 16 21  2  0
 17 18  2  0
 17 16  1  0
 18 19  1  0
 19 20  2  0
 20 22  1  0
 21 20  1  0
 22 23  1  0
 22 24  1  0
 25 22  1  0
 26 18  1  0
 26 28  1  0
 27 26  2  0
 28 29  1  0
 29 32  1  0
 29 30  1  0
 31 29  1  0
  2 33  1  0
  3 34  1  0
  8 35  1  0
 11 36  1  0
 12 37  1  0
 13 38  1  0
 14 39  1  0
 16 40  1  0
M  END
>  <Score>  (1) 
-7.07377

$$$$
