
     RDKit          3D

 51 57  0  0  0  0  0  0  0  0999 V2000
   40.5110   78.0630   59.2950 C   0  0  0  0  0  0  0  0  0  0  0  0
   39.3660   77.2990   59.5570 C   0  0  0  0  0  0  0  0  0  0  0  0
   39.7730   75.9790   59.4970 C   0  0  0  0  0  0  0  0  0  0  0  0
   41.1300   76.0280   59.2070 C   0  0  0  0  0  0  0  0  0  0  0  0
   41.5590   77.2560   59.0880 O   0  0  0  0  0  0  0  0  0  0  0  0
   40.5790   79.5240   59.2490 C   0  0  0  0  0  0  0  0  0  0  0  0
   40.8240   80.1010   57.9860 C   0  0  0  0  0  0  0  0  0  0  0  0
   40.8970   81.4830   57.8940 C   0  0  0  0  0  0  0  0  0  0  0  0
   40.7200   82.1790   59.0670 N   0  0  0  0  0  0  0  0  0  0  0  0
   40.4890   81.5890   60.2430 C   0  0  0  0  0  0  0  0  0  0  0  0
   40.4150   80.2430   60.3490 N   0  0  0  0  0  0  0  0  0  0  0  0
   40.3170   82.3900   61.4070 N   0  0  0  0  0  0  0  0  0  0  0  0
   39.1700   82.8840   61.9030 C   0  0  0  0  0  0  0  0  0  0  0  0
   39.3620   83.6060   63.0250 N   0  0  0  0  0  0  0  0  0  0  0  0
   40.7020   83.5580   63.2390 C   0  0  0  0  0  0  0  0  0  0  0  0
   41.4540   84.1180   64.2370 C   0  0  0  0  0  0  0  0  0  0  0  0
   40.9350   84.7960   65.1420 O   0  0  0  0  0  0  0  0  0  0  0  0
   42.7920   83.9280   64.2370 N   0  0  0  0  0  0  0  0  0  0  0  0
   43.3510   83.1930   63.2560 C   0  0  0  0  0  0  0  0  0  0  0  0
   44.7830   83.0630   63.3670 N   0  0  0  0  0  0  0  0  0  0  0  0
   42.6340   82.6340   62.2650 N   0  0  0  0  0  0  0  0  0  0  0  0
   41.2960   82.8050   62.2360 C   0  0  0  0  0  0  0  0  0  0  0  0
   41.9940   74.8530   59.0470 C   0  0  0  0  0  0  0  0  0  0  0  0
   42.1070   73.9890   58.0260 N   0  0  0  0  0  0  0  0  0  0  0  0
   42.9980   73.0930   58.3080 O   0  0  0  0  0  0  0  0  0  0  0  0
   43.5120   73.3090   59.4980 C   0  0  0  0  0  0  0  0  0  0  0  0
   42.8770   74.3790   59.9060 N   0  0  0  0  0  0  0  0  0  0  0  0
   44.5470   72.5300   60.1880 C   0  0  0  0  0  0  0  0  0  0  0  0
   45.8290   73.0510   60.3470 C   0  0  0  0  0  0  0  0  0  0  0  0
   46.7900   72.3090   60.9960 C   0  0  0  0  0  0  0  0  0  0  0  0
   46.4080   71.0900   61.4460 C   0  0  0  0  0  0  0  0  0  0  0  0
   45.1870   70.5270   61.3260 C   0  0  0  0  0  0  0  0  0  0  0  0
   44.2030   71.2970   60.6560 C   0  0  0  0  0  0  0  0  0  0  0  0
   42.8980   70.5940   60.5750 C   0  0  0  0  0  0  0  0  0  0  0  0
   42.0950   70.4730   61.6280 N   0  0  0  0  0  0  0  0  0  0  0  0
   41.0250   69.8280   61.3150 O   0  0  0  0  0  0  0  0  0  0  0  0
   41.0750   69.4940   60.0450 C   0  0  0  0  0  0  0  0  0  0  0  0
   42.2150   69.9750   59.6410 N   0  0  0  0  0  0  0  0  0  0  0  0
   38.3528   77.6722   59.7670 H   0  0  0  0  0  0  0  0  0  0  0  0
   39.1542   75.0820   59.6469 H   0  0  0  0  0  0  0  0  0  0  0  0
   40.9542   79.4699   57.0945 H   0  0  0  0  0  0  0  0  0  0  0  0
   41.0856   81.9931   56.9378 H   0  0  0  0  0  0  0  0  0  0  0  0
   38.1841   82.7177   61.4444 H   0  0  0  0  0  0  0  0  0  0  0  0
   43.3771   84.3400   64.9778 H   0  0  0  0  0  0  0  0  0  0  0  0
   45.3067   82.5199   62.6658 H   0  0  0  0  0  0  0  0  0  0  0  0
   45.2820   83.5132   64.1475 H   0  0  0  0  0  0  0  0  0  0  0  0
   46.0723   74.0500   59.9561 H   0  0  0  0  0  0  0  0  0  0  0  0
   47.8131   72.6859   61.1413 H   0  0  0  0  0  0  0  0  0  0  0  0
   47.1745   70.4953   61.9646 H   0  0  0  0  0  0  0  0  0  0  0  0
   44.9676   69.5261   61.7260 H   0  0  0  0  0  0  0  0  0  0  0  0
   40.3278   68.9378   59.4599 H   0  0  0  0  0  0  0  0  0  0  0  0
  1  2  2  0
  3  2  1  0
  4  3  2  0
  5  4  1  0
  5  1  1  0
  6  1  1  0
  6 11  1  0
  7  6  2  0
  8  7  1  0
  8  9  2  0
  9 10  1  0
 10 11  2  0
 10 12  1  0
 12 13  1  0
 12 22  1  0
 13 14  2  0
 14 15  1  0
 15 16  1  0
 16 18  1  0
 16 17  2  0
 19 20  1  0
 19 18  1  0
 21 19  2  0
 22 21  1  0
 22 15  2  0
 23  4  1  0
 23 27  1  0
 24 25  1  0
 24 23  2  0
 25 26  1  0
 26 27  2  0
 26 28  1  0
 28 29  2  0
 28 33  1  0
 29 30  1  0
 30 31  2  0
 32 31  1  0
 33 32  2  0
 34 33  1  0
 34 35  2  0
 36 35  1  0
 37 36  1  0
 38 37  2  0
 38 34  1  0
  2 39  1  0
  3 40  1  0
  7 41  1  0
  8 42  1  0
 13 43  1  0
 18 44  1  0
 20 45  1  0
 20 46  1  0
 29 47  1  0
 30 48  1  0
 31 49  1  0
 32 50  1  0
 37 51  1  0
M  END
>  <Score>  (1) 
-7.78632

$$$$
