
     RDKit          3D

 47 51  0  0  0  0  0  0  0  0999 V2000
   41.0400   83.4060   62.1260 C   0  0  0  0  0  0  0  0  0  0  0  0
   40.1260   83.2590   63.1710 C   0  0  0  0  0  0  0  0  0  0  0  0
   40.3140   83.8030   64.4010 C   0  0  0  0  0  0  0  0  0  0  0  0
   41.4810   84.5510   64.6410 C   0  0  0  0  0  0  0  0  0  0  0  0
   42.3970   84.6900   63.5710 C   0  0  0  0  0  0  0  0  0  0  0  0
   42.1940   84.1350   62.3310 C   0  0  0  0  0  0  0  0  0  0  0  0
   43.3140   84.4910   61.4860 C   0  0  0  0  0  0  0  0  0  0  0  0
   44.4540   83.7160   61.5260 C   0  0  0  0  0  0  0  0  0  0  0  0
   45.5700   83.9710   60.7540 C   0  0  0  0  0  0  0  0  0  0  0  0
   45.5860   85.0410   59.8890 C   0  0  0  0  0  0  0  0  0  0  0  0
   44.4630   85.8440   59.8190 C   0  0  0  0  0  0  0  0  0  0  0  0
   43.3880   85.5500   60.6030 C   0  0  0  0  0  0  0  0  0  0  0  0
   41.2810   81.5260   60.4460 C   0  0  0  0  0  0  0  0  0  0  0  0
   40.9010   82.8560   60.8050 C   0  0  0  0  0  0  0  0  0  0  0  0
   40.3550   83.6890   59.7900 C   0  0  0  0  0  0  0  0  0  0  0  0
   40.2280   83.1680   58.5300 N   0  0  0  0  0  0  0  0  0  0  0  0
   40.5980   81.9160   58.2400 C   0  0  0  0  0  0  0  0  0  0  0  0
   41.1110   81.1190   59.1760 N   0  0  0  0  0  0  0  0  0  0  0  0
   40.4500   81.3820   56.8810 C   0  0  0  0  0  0  0  0  0  0  0  0
   41.2750   81.6310   55.7810 C   0  0  0  0  0  0  0  0  0  0  0  0
   40.8040   80.9560   54.7170 N   0  0  0  0  0  0  0  0  0  0  0  0
   39.7030   80.2820   55.0960 C   0  0  0  0  0  0  0  0  0  0  0  0
   38.8440   79.4380   54.3850 C   0  0  0  0  0  0  0  0  0  0  0  0
   37.7520   78.8350   54.9710 C   0  0  0  0  0  0  0  0  0  0  0  0
   37.5180   79.0900   56.3200 C   0  0  0  0  0  0  0  0  0  0  0  0
   38.3530   79.9260   57.0620 C   0  0  0  0  0  0  0  0  0  0  0  0
   39.4380   80.5160   56.4500 C   0  0  0  0  0  0  0  0  0  0  0  0
   41.8510   80.5640   61.4010 C   0  0  0  0  0  0  0  0  0  0  0  0
   40.9060   80.0710   62.3180 F   0  0  0  0  0  0  0  0  0  0  0  0
   43.0420   80.8090   61.9320 F   0  0  0  0  0  0  0  0  0  0  0  0
   42.0850   79.3590   60.6420 F   0  0  0  0  0  0  0  0  0  0  0  0
   39.2113   82.6756   62.9897 H   0  0  0  0  0  0  0  0  0  0  0  0
   39.5668   83.6612   65.1958 H   0  0  0  0  0  0  0  0  0  0  0  0
   41.6741   85.0099   65.6219 H   0  0  0  0  0  0  0  0  0  0  0  0
   43.3158   85.2705   63.7406 H   0  0  0  0  0  0  0  0  0  0  0  0
   44.4753   82.8520   62.2065 H   0  0  0  0  0  0  0  0  0  0  0  0
   46.4503   83.3158   60.8308 H   0  0  0  0  0  0  0  0  0  0  0  0
   46.4698   85.2520   59.2691 H   0  0  0  0  0  0  0  0  0  0  0  0
   44.4375   86.7087   59.1395 H   0  0  0  0  0  0  0  0  0  0  0  0
   42.5099   86.2082   60.5264 H   0  0  0  0  0  0  0  0  0  0  0  0
   40.0440   84.7209   60.0104 H   0  0  0  0  0  0  0  0  0  0  0  0
   42.1664   82.2755   55.7846 H   0  0  0  0  0  0  0  0  0  0  0  0
   41.2160   80.9553   53.7730 H   0  0  0  0  0  0  0  0  0  0  0  0
   39.0470   79.2488   53.3206 H   0  0  0  0  0  0  0  0  0  0  0  0
   37.0882   78.1751   54.3932 H   0  0  0  0  0  0  0  0  0  0  0  0
   36.6536   78.6208   56.8126 H   0  0  0  0  0  0  0  0  0  0  0  0
   38.1472   80.1127   58.1263 H   0  0  0  0  0  0  0  0  0  0  0  0
  1  6  1  0
  1  2  2  0
  2  3  1  0
  3  4  2  0
  5  4  1  0
  6  5  2  0
  7  8  2  0
  7  6  1  0
  9  8  1  0
 10  9  2  0
 11 10  1  0
 11 12  2  0
 12  7  1  0
 13 14  2  0
 13 28  1  0
 14  1  1  0
 15 14  1  0
 16 15  2  0
 17 16  1  0
 17 18  2  0
 18 13  1  0
 19 17  1  0
 20 19  2  0
 21 22  1  0
 21 20  1  0
 22 27  2  0
 23 24  2  0
 23 22  1  0
 24 25  1  0
 25 26  2  0
 27 19  1  0
 27 26  1  0
 28 30  1  0
 28 29  1  0
 31 28  1  0
  2 32  1  0
  3 33  1  0
  4 34  1  0
  5 35  1  0
  8 36  1  0
  9 37  1  0
 10 38  1  0
 11 39  1  0
 12 40  1  0
 15 41  1  0
 20 42  1  0
 21 43  1  0
 23 44  1  0
 24 45  1  0
 25 46  1  0
 26 47  1  0
M  END
>  <Score>  (1) 
-7.00859

$$$$
