
     RDKit          3D

 46 50  0  0  1  0  0  0  0  0999 V2000
   40.0880   79.6390   58.6720 N   0  0  0  0  0  0  0  0  0  0  0  0
   40.3870   80.5330   57.5620 C   0  0  0  0  0  0  0  0  0  0  0  0
   39.2210   80.5160   56.6280 C   0  0  0  0  0  0  0  0  0  0  0  0
   39.1210   79.1530   56.0040 C   0  0  0  0  0  0  0  0  0  0  0  0
   39.5680   78.0550   56.9050 C   0  0  0  0  0  0  0  0  0  0  0  0
   39.5410   78.3420   58.3680 C   0  0  1  0  0  0  0  0  0  0  0  0
   40.3300   77.2730   58.9980 N   0  0  0  0  0  0  0  0  0  0  0  0
   41.6930   77.2720   59.1030 C   0  0  0  0  0  0  0  0  0  0  0  0
   42.1030   76.1470   59.7390 N   0  0  0  0  0  0  0  0  0  0  0  0
   41.0240   75.4290   60.0430 C   0  0  0  0  0  0  0  0  0  0  0  0
   40.8620   74.2240   60.6790 C   0  0  0  0  0  0  0  0  0  0  0  0
   41.7970   73.5360   61.1200 O   0  0  0  0  0  0  0  0  0  0  0  0
   39.5980   73.7410   60.8440 N   0  0  0  0  0  0  0  0  0  0  0  0
   38.5250   74.4360   60.3880 C   0  0  0  0  0  0  0  0  0  0  0  0
   37.1940   73.9880   60.5280 N   0  0  0  0  0  0  0  0  0  0  0  0
   38.6660   75.6370   59.7530 N   0  0  0  0  0  0  0  0  0  0  0  0
   39.9210   76.1130   59.5910 C   0  0  0  0  0  0  0  0  0  0  0  0
   40.8420   81.1510   61.7620 N   0  0  0  0  0  0  0  0  0  0  0  0
   40.4770   79.9600   62.1880 N   0  0  0  0  0  0  0  0  0  0  0  0
   40.1310   79.1790   61.1520 C   0  0  0  0  0  0  0  0  0  0  0  0
   40.3130   79.9850   60.0470 C   0  0  0  0  0  0  0  0  0  0  0  0
   40.7590   81.2210   60.4360 C   0  0  0  0  0  0  0  0  0  0  0  0
   42.9080   83.7300   63.4370 C   0  0  0  0  0  0  0  0  0  0  0  0
   42.5750   82.6700   62.5690 C   0  0  0  0  0  0  0  0  0  0  0  0
   41.2650   82.2190   62.6080 C   0  0  0  0  0  0  0  0  0  0  0  0
   40.3920   82.8290   63.4800 N   0  0  0  0  0  0  0  0  0  0  0  0
   40.7660   83.8360   64.2840 C   0  0  0  0  0  0  0  0  0  0  0  0
   42.0220   84.2880   64.2650 N   0  0  0  0  0  0  0  0  0  0  0  0
   40.5490   81.5539   57.9382 H   0  0  0  0  0  0  0  0  0  0  0  0
   41.2983   80.2039   57.0413 H   0  0  0  0  0  0  0  0  0  0  0  0
   38.2982   80.7365   57.1845 H   0  0  0  0  0  0  0  0  0  0  0  0
   39.3578   81.2766   55.8452 H   0  0  0  0  0  0  0  0  0  0  0  0
   38.0716   78.9721   55.7282 H   0  0  0  0  0  0  0  0  0  0  0  0
   39.7882   79.1469   55.1295 H   0  0  0  0  0  0  0  0  0  0  0  0
   38.9171   77.1872   56.7226 H   0  0  0  0  0  0  0  0  0  0  0  0
   40.6278   77.8908   56.6601 H   0  0  0  0  0  0  0  0  0  0  0  0
   38.5080   78.3628   58.7456 H   0  0  0  0  0  0  0  0  0  0  0  0
   42.3571   78.0646   58.7279 H   0  0  0  0  0  0  0  0  0  0  0  0
   39.4556   72.8387   61.3199 H   0  0  0  0  0  0  0  0  0  0  0  0
   36.4177   74.5576   60.1621 H   0  0  0  0  0  0  0  0  0  0  0  0
   36.9989   73.0915   60.9960 H   0  0  0  0  0  0  0  0  0  0  0  0
   39.7825   78.1360   61.1782 H   0  0  0  0  0  0  0  0  0  0  0  0
   40.9962   82.0816   59.7933 H   0  0  0  0  0  0  0  0  0  0  0  0
   43.9393   84.1125   63.4317 H   0  0  0  0  0  0  0  0  0  0  0  0
   43.3189   82.2226   61.8935 H   0  0  0  0  0  0  0  0  0  0  0  0
   40.0319   84.2927   64.9641 H   0  0  0  0  0  0  0  0  0  0  0  0
  1 21  1  0
  2  1  1  0
  3  2  1  0
  4  3  1  0
  4  5  1  0
  5  6  1  0
  6  1  1  0
  6  7  1  0
  7  8  1  0
  7 17  1  0
  8  9  2  0
  9 10  1  0
 10 11  1  0
 11 13  1  0
 11 12  2  0
 14 15  1  0
 14 13  1  0
 16 14  2  0
 17 16  1  0
 17 10  2  0
 18 19  1  0
 18 25  1  0
 20 19  2  0
 21 22  2  0
 21 20  1  0
 22 18  1  0
 23 28  2  0
 24 25  2  0
 24 23  1  0
 25 26  1  0
 26 27  2  0
 28 27  1  0
  2 29  1  0
  2 30  1  0
  3 31  1  0
  3 32  1  0
  4 33  1  0
  4 34  1  0
  5 35  1  0
  5 36  1  0
  6 37  1  1
  8 38  1  0
 13 39  1  0
 15 40  1  0
 15 41  1  0
 20 42  1  0
 22 43  1  0
 23 44  1  0
 24 45  1  0
 27 46  1  0
M  END
>  <Score>  (1) 
-7.2113

$$$$
