
     RDKit          3D

 49 54  0  0  0  0  0  0  0  0999 V2000
   43.1070   78.4960   61.4380 C   0  0  0  0  0  0  0  0  0  0  0  0
   42.5650   77.3040   61.8890 C   0  0  0  0  0  0  0  0  0  0  0  0
   43.4400   76.7900   62.7460 N   0  0  0  0  0  0  0  0  0  0  0  0
   44.5160   77.5870   62.8720 C   0  0  0  0  0  0  0  0  0  0  0  0
   45.6510   77.4300   63.6530 C   0  0  0  0  0  0  0  0  0  0  0  0
   46.6380   78.3920   63.6180 C   0  0  0  0  0  0  0  0  0  0  0  0
   46.4450   79.4840   62.7940 C   0  0  0  0  0  0  0  0  0  0  0  0
   45.3310   79.6470   62.0210 C   0  0  0  0  0  0  0  0  0  0  0  0
   44.3250   78.6880   62.0430 C   0  0  0  0  0  0  0  0  0  0  0  0
   40.3630   82.3590   60.5300 C   0  0  0  0  0  0  0  0  0  0  0  0
   40.2890   83.5090   59.7730 C   0  0  0  0  0  0  0  0  0  0  0  0
   39.4840   84.5760   60.1240 C   0  0  0  0  0  0  0  0  0  0  0  0
   38.7530   84.4210   61.2870 N   0  0  0  0  0  0  0  0  0  0  0  0
   38.8350   83.2980   62.0110 C   0  0  0  0  0  0  0  0  0  0  0  0
   39.6230   82.2640   61.6600 N   0  0  0  0  0  0  0  0  0  0  0  0
   41.1860   81.3020   60.1450 N   0  0  0  0  0  0  0  0  0  0  0  0
   41.4280   81.1700   58.8450 C   0  0  0  0  0  0  0  0  0  0  0  0
   42.2210   80.1760   58.3010 C   0  0  0  0  0  0  0  0  0  0  0  0
   42.8040   79.2530   59.1770 C   0  0  0  0  0  0  0  0  0  0  0  0
   43.5250   78.3410   58.7420 O   0  0  0  0  0  0  0  0  0  0  0  0
   42.5400   79.4070   60.5090 N   0  0  0  0  0  0  0  0  0  0  0  0
   41.7590   80.3970   60.9670 C   0  0  0  0  0  0  0  0  0  0  0  0
   41.5290   80.5220   62.1960 O   0  0  0  0  0  0  0  0  0  0  0  0
   45.1330   80.7310   61.2000 O   0  0  0  0  0  0  0  0  0  0  0  0
   44.6870   81.9540   61.6640 C   0  0  0  0  0  0  0  0  0  0  0  0
   44.6120   82.1650   63.0260 C   0  0  0  0  0  0  0  0  0  0  0  0
   44.1540   83.4260   63.2680 N   0  0  0  0  0  0  0  0  0  0  0  0
   43.9250   84.0470   62.0740 C   0  0  0  0  0  0  0  0  0  0  0  0
   43.4720   85.2980   61.6850 C   0  0  0  0  0  0  0  0  0  0  0  0
   43.3550   85.6220   60.3340 C   0  0  0  0  0  0  0  0  0  0  0  0
   43.7010   84.6680   59.4040 C   0  0  0  0  0  0  0  0  0  0  0  0
   44.1580   83.4080   59.7510 C   0  0  0  0  0  0  0  0  0  0  0  0
   44.2550   83.1360   61.0990 C   0  0  0  0  0  0  0  0  0  0  0  0
   41.5988   76.8681   61.5950 H   0  0  0  0  0  0  0  0  0  0  0  0
   43.3116   75.8995   63.2474 H   0  0  0  0  0  0  0  0  0  0  0  0
   45.7631   76.5444   64.2958 H   0  0  0  0  0  0  0  0  0  0  0  0
   47.5492   78.2933   64.2262 H   0  0  0  0  0  0  0  0  0  0  0  0
   47.2253   80.2586   62.7589 H   0  0  0  0  0  0  0  0  0  0  0  0
   40.8928   83.5797   58.8562 H   0  0  0  0  0  0  0  0  0  0  0  0
   39.4284   85.4911   59.5162 H   0  0  0  0  0  0  0  0  0  0  0  0
   38.2348   83.2166   62.9292 H   0  0  0  0  0  0  0  0  0  0  0  0
   40.9689   81.8968   58.1587 H   0  0  0  0  0  0  0  0  0  0  0  0
   42.3881   80.1129   57.2156 H   0  0  0  0  0  0  0  0  0  0  0  0
   44.8806   81.4286   63.7978 H   0  0  0  0  0  0  0  0  0  0  0  0
   44.0052   83.8418   64.1985 H   0  0  0  0  0  0  0  0  0  0  0  0
   43.2024   86.0419   62.4492 H   0  0  0  0  0  0  0  0  0  0  0  0
   42.9959   86.6131   60.0198 H   0  0  0  0  0  0  0  0  0  0  0  0
   43.6103   84.9181   58.3366 H   0  0  0  0  0  0  0  0  0  0  0  0
   44.4299   82.6619   58.9898 H   0  0  0  0  0  0  0  0  0  0  0  0
  1  2  2  0
  1  9  1  0
  2  3  1  0
  3  4  1  0
  4  5  2  0
  6  5  1  0
  7  6  2  0
  8  9  2  0
  8  7  1  0
  9  4  1  0
 10 15  2  0
 11 12  2  0
 11 10  1  0
 12 13  1  0
 13 14  2  0
 15 14  1  0
 16 10  1  0
 16 22  1  0
 17 16  1  0
 18 17  2  0
 18 19  1  0
 19 21  1  0
 20 19  2  0
 21 22  1  0
 21  1  1  0
 22 23  2  0
 24 25  1  0
 24  8  1  0
 25 26  2  0
 26 27  1  0
 28 27  1  0
 29 28  2  0
 30 29  1  0
 31 32  1  0
 31 30  2  0
 32 33  2  0
 33 25  1  0
 33 28  1  0
  2 34  1  0
  3 35  1  0
  5 36  1  0
  6 37  1  0
  7 38  1  0
 11 39  1  0
 12 40  1  0
 14 41  1  0
 17 42  1  0
 18 43  1  0
 26 44  1  0
 27 45  1  0
 29 46  1  0
 30 47  1  0
 31 48  1  0
 32 49  1  0
M  END
>  <Score>  (1) 
-7.23975

$$$$
