
     RDKit          3D

 57 61  0  0  0  0  0  0  0  0999 V2000
   41.1730   81.2000   57.7500 N   0  0  0  0  0  0  0  0  0  0  0  0
   40.1950   80.4550   58.2470 N   0  0  0  0  0  0  0  0  0  0  0  0
   40.4380   79.1490   58.0110 C   0  0  0  0  0  0  0  0  0  0  0  0
   41.6340   79.1560   57.3350 C   0  0  0  0  0  0  0  0  0  0  0  0
   42.0960   80.4480   57.1720 C   0  0  0  0  0  0  0  0  0  0  0  0
   39.6170   77.9920   58.3870 C   0  0  0  0  0  0  0  0  0  0  0  0
   39.8410   77.3140   59.5760 C   0  0  0  0  0  0  0  0  0  0  0  0
   39.0290   76.2500   59.8390 C   0  0  0  0  0  0  0  0  0  0  0  0
   38.0090   75.8100   59.0070 C   0  0  0  0  0  0  0  0  0  0  0  0
   37.8300   76.5180   57.8400 C   0  0  0  0  0  0  0  0  0  0  0  0
   38.6140   77.5920   57.5240 C   0  0  0  0  0  0  0  0  0  0  0  0
   38.3390   78.2620   56.2750 N   0  0  0  0  0  0  0  0  0  0  0  0
   37.4960   79.3410   56.4530 C   0  0  0  0  0  0  0  0  0  0  0  0
   37.0930   80.1310   55.4100 C   0  0  0  0  0  0  0  0  0  0  0  0
   37.5660   79.8090   54.1430 C   0  0  0  0  0  0  0  0  0  0  0  0
   37.2190   80.5530   52.9810 N   0  0  0  0  0  0  0  0  0  0  0  0
   38.3740   78.7620   54.0200 N   0  0  0  0  0  0  0  0  0  0  0  0
   38.7630   77.9960   55.0420 C   0  0  0  0  0  0  0  0  0  0  0  0
   39.5090   77.0080   55.0180 O   0  0  0  0  0  0  0  0  0  0  0  0
   42.0110   84.7540   57.1530 C   0  0  0  0  0  0  0  0  0  0  0  0
   42.0250   83.3550   57.0230 C   0  0  0  0  0  0  0  0  0  0  0  0
   41.1910   82.6310   57.8480 C   0  0  0  0  0  0  0  0  0  0  0  0
   40.4100   83.2900   58.7300 N   0  0  0  0  0  0  0  0  0  0  0  0
   40.4320   84.6340   58.8170 C   0  0  0  0  0  0  0  0  0  0  0  0
   41.2330   85.3720   58.0280 N   0  0  0  0  0  0  0  0  0  0  0  0
   39.5300   85.2560   59.8240 C   0  0  0  0  0  0  0  0  0  0  0  0
   39.9350   84.7510   61.1740 C   0  0  0  0  0  0  0  0  0  0  0  0
   39.1080   83.6230   61.6760 C   0  0  0  0  0  0  0  0  0  0  0  0
   39.8300   82.3770   62.0170 C   0  0  0  0  0  0  0  0  0  0  0  0
   41.2110   82.5250   62.5660 C   0  0  0  0  0  0  0  0  0  0  0  0
   41.7310   83.9410   62.5760 C   0  0  0  0  0  0  0  0  0  0  0  0
   41.4070   84.5010   61.1860 C   0  0  0  0  0  0  0  0  0  0  0  0
   42.1529   78.2561   56.9730 H   0  0  0  0  0  0  0  0  0  0  0  0
   43.0206   80.7767   56.6749 H   0  0  0  0  0  0  0  0  0  0  0  0
   40.6351   77.6195   60.2732 H   0  0  0  0  0  0  0  0  0  0  0  0
   39.1945   75.7013   60.7779 H   0  0  0  0  0  0  0  0  0  0  0  0
   37.3799   74.9454   59.2652 H   0  0  0  0  0  0  0  0  0  0  0  0
   37.0354   76.2114   57.1438 H   0  0  0  0  0  0  0  0  0  0  0  0
   37.1364   79.5735   57.4662 H   0  0  0  0  0  0  0  0  0  0  0  0
   36.4210   80.9873   55.5684 H   0  0  0  0  0  0  0  0  0  0  0  0
   37.5937   80.2773   52.0620 H   0  0  0  0  0  0  0  0  0  0  0  0
   36.5931   81.3673   53.0587 H   0  0  0  0  0  0  0  0  0  0  0  0
   42.6676   85.3552   56.5069 H   0  0  0  0  0  0  0  0  0  0  0  0
   42.6768   82.8563   56.2906 H   0  0  0  0  0  0  0  0  0  0  0  0
   39.6284   86.3510   59.7890 H   0  0  0  0  0  0  0  0  0  0  0  0
   38.4820   84.9954   59.6145 H   0  0  0  0  0  0  0  0  0  0  0  0
   39.7233   85.5362   61.9147 H   0  0  0  0  0  0  0  0  0  0  0  0
   38.5881   83.9670   62.5823 H   0  0  0  0  0  0  0  0  0  0  0  0
   38.4425   83.3555   60.8420 H   0  0  0  0  0  0  0  0  0  0  0  0
   39.2302   81.8399   62.7665 H   0  0  0  0  0  0  0  0  0  0  0  0
   39.9567   81.8481   61.0608 H   0  0  0  0  0  0  0  0  0  0  0  0
   41.2114   82.1514   63.6006 H   0  0  0  0  0  0  0  0  0  0  0  0
   41.8750   81.9522   61.9019 H   0  0  0  0  0  0  0  0  0  0  0  0
   41.2274   84.5309   63.3560 H   0  0  0  0  0  0  0  0  0  0  0  0
   42.8087   83.9805   62.7930 H   0  0  0  0  0  0  0  0  0  0  0  0
   41.6769   83.7717   60.4080 H   0  0  0  0  0  0  0  0  0  0  0  0
   41.9730   85.4217   60.9814 H   0  0  0  0  0  0  0  0  0  0  0  0
  1 22  1  0
  1  2  1  0
  3  2  2  0
  3  6  1  0
  4  3  1  0
  5  4  2  0
  5  1  1  0
  6  7  2  0
  7  8  1  0
  9  8  2  0
 10  9  1  0
 11 10  2  0
 11  6  1  0
 12 13  1  0
 12 11  1  0
 14 13  2  0
 15 14  1  0
 16 15  1  0
 17 15  2  0
 17 18  1  0
 18 12  1  0
 19 18  2  0
 20 25  2  0
 21 20  1  0
 21 22  2  0
 22 23  1  0
 23 24  2  0
 24 26  1  0
 25 24  1  0
 26 27  1  0
 27 32  1  0
 27 28  1  0
 28 29  1  0
 29 30  1  0
 30 31  1  0
 32 31  1  0
  4 33  1  0
  5 34  1  0
  7 35  1  0
  8 36  1  0
  9 37  1  0
 10 38  1  0
 13 39  1  0
 14 40  1  0
 16 41  1  0
 16 42  1  0
 20 43  1  0
 21 44  1  0
 26 45  1  0
 26 46  1  0
 27 47  1  0
 28 48  1  0
 28 49  1  0
 29 50  1  0
 29 51  1  0
 30 52  1  0
 30 53  1  0
 31 54  1  0
 31 55  1  0
 32 56  1  0
 32 57  1  0
M  END
>  <Score>  (1) 
-7.05076

$$$$
