
     RDKit          3D

 40 44  0  0  0  0  0  0  0  0999 V2000
   40.8520   82.2480   61.3630 C   0  0  0  0  0  0  0  0  0  0  0  0
   40.4110   82.9480   60.2470 C   0  0  0  0  0  0  0  0  0  0  0  0
   40.0770   82.3600   59.0530 C   0  0  0  0  0  0  0  0  0  0  0  0
   40.1770   80.9910   58.9270 C   0  0  0  0  0  0  0  0  0  0  0  0
   40.6100   80.2230   59.9930 C   0  0  0  0  0  0  0  0  0  0  0  0
   40.7230   78.8730   59.8740 C   0  0  0  0  0  0  0  0  0  0  0  0
   41.1640   78.0720   60.9170 C   0  0  0  0  0  0  0  0  0  0  0  0
   41.4820   78.7460   62.0910 C   0  0  0  0  0  0  0  0  0  0  0  0
   41.3560   80.1050   62.1770 C   0  0  0  0  0  0  0  0  0  0  0  0
   40.9220   80.8900   61.1480 C   0  0  0  0  0  0  0  0  0  0  0  0
   41.2850   76.6250   60.7850 C   0  0  0  0  0  0  0  0  0  0  0  0
   42.4630   75.8680   60.8190 C   0  0  0  0  0  0  0  0  0  0  0  0
   42.1130   74.5770   60.6580 N   0  0  0  0  0  0  0  0  0  0  0  0
   40.7790   74.4620   60.5250 C   0  0  0  0  0  0  0  0  0  0  0  0
   39.9640   73.3540   60.3390 C   0  0  0  0  0  0  0  0  0  0  0  0
   38.5970   73.5080   60.2290 C   0  0  0  0  0  0  0  0  0  0  0  0
   38.0480   74.7720   60.3040 C   0  0  0  0  0  0  0  0  0  0  0  0
   38.8800   75.8550   60.4860 C   0  0  0  0  0  0  0  0  0  0  0  0
   40.2460   75.7360   60.6010 C   0  0  0  0  0  0  0  0  0  0  0  0
   42.4930   84.2500   64.1660 C   0  0  0  0  0  0  0  0  0  0  0  0
   42.3650   83.5440   62.9740 C   0  0  0  0  0  0  0  0  0  0  0  0
   41.1600   82.9970   62.5400 C   0  0  0  0  0  0  0  0  0  0  0  0
   40.1290   83.2290   63.4070 N   0  0  0  0  0  0  0  0  0  0  0  0
   40.2320   83.9020   64.5530 C   0  0  0  0  0  0  0  0  0  0  0  0
   41.4080   84.4040   64.9190 N   0  0  0  0  0  0  0  0  0  0  0  0
   40.3241   84.0418   60.3254 H   0  0  0  0  0  0  0  0  0  0  0  0
   39.7337   82.9735   58.2069 H   0  0  0  0  0  0  0  0  0  0  0  0
   39.9115   80.5074   57.9753 H   0  0  0  0  0  0  0  0  0  0  0  0
   40.4554   78.4000   58.9176 H   0  0  0  0  0  0  0  0  0  0  0  0
   41.8398   78.1782   62.9625 H   0  0  0  0  0  0  0  0  0  0  0  0
   41.6188   80.5923   63.1275 H   0  0  0  0  0  0  0  0  0  0  0  0
   43.4838   76.2554   60.9523 H   0  0  0  0  0  0  0  0  0  0  0  0
   42.7746   73.7878   60.6393 H   0  0  0  0  0  0  0  0  0  0  0  0
   40.4091   72.3499   60.2791 H   0  0  0  0  0  0  0  0  0  0  0  0
   37.9502   72.6304   60.0827 H   0  0  0  0  0  0  0  0  0  0  0  0
   36.9603   74.9130   60.2196 H   0  0  0  0  0  0  0  0  0  0  0  0
   38.4328   76.8584   60.5418 H   0  0  0  0  0  0  0  0  0  0  0  0
   43.4621   84.6680   64.4760 H   0  0  0  0  0  0  0  0  0  0  0  0
   43.2575   83.4116   62.3448 H   0  0  0  0  0  0  0  0  0  0  0  0
   39.3484   84.0416   65.1931 H   0  0  0  0  0  0  0  0  0  0  0  0
  1 22  1  0
  2  1  2  0
  3  2  1  0
  4  3  2  0
  4  5  1  0
  5 10  2  0
  6  5  1  0
  6  7  2  0
  7  8  1  0
  8  9  2  0
 10  1  1  0
 10  9  1  0
 11 12  2  0
 11  7  1  0
 13 12  1  0
 14 19  2  0
 14 13  1  0
 15 14  1  0
 16 17  1  0
 16 15  2  0
 17 18  2  0
 18 19  1  0
 19 11  1  0
 20 25  2  0
 21 20  1  0
 22 21  2  0
 22 23  1  0
 23 24  2  0
 24 25  1  0
  2 26  1  0
  3 27  1  0
  4 28  1  0
  6 29  1  0
  8 30  1  0
  9 31  1  0
 12 32  1  0
 13 33  1  0
 15 34  1  0
 16 35  1  0
 17 36  1  0
 18 37  1  0
 20 38  1  0
 21 39  1  0
 24 40  1  0
M  END
>  <Score>  (1) 
-7.29208

$$$$
