
     RDKit          3D

 47 50  0  0  1  0  0  0  0  0999 V2000
   39.6690   83.5800   60.1290 C   0  0  0  0  0  0  0  0  0  0  0  0
   40.1380   82.2570   60.1570 C   0  0  0  0  0  0  0  0  0  0  0  0
   40.8790   81.8700   61.2830 C   0  0  0  0  0  0  0  0  0  0  0  0
   41.0600   82.8150   62.2370 N   0  0  0  0  0  0  0  0  0  0  0  0
   40.6090   84.0520   62.1970 C   0  0  0  0  0  0  0  0  0  0  0  0
   39.9070   84.4250   61.1200 N   0  0  0  0  0  0  0  0  0  0  0  0
   40.8790   84.9120   63.3040 N   0  0  0  0  0  0  0  0  0  0  0  0
   40.3890   84.5170   64.5950 C   0  0  0  0  0  0  0  0  0  0  0  0
   40.3860   83.3040   64.9910 N   0  0  0  0  0  0  0  0  0  0  0  0
   39.8810   85.5350   65.4740 N   0  0  0  0  0  0  0  0  0  0  0  0
   40.7380   82.4920   64.5020 H   0  0  0  0  0  0  0  0  0  0  0  0
   41.4250   80.5720   61.4380 N   0  0  0  0  0  0  0  0  0  0  0  0
   40.8420   79.4470   62.1290 C   0  0  0  0  0  0  0  0  0  0  0  0
   41.8450   78.3410   61.9580 C   0  0  0  0  0  0  0  0  0  0  0  0
   43.1390   79.1140   61.9240 C   0  0  0  0  0  0  0  0  0  0  0  0
   42.6930   80.1750   60.9060 C   0  0  2  0  0  0  0  0  0  0  0  0
   43.7370   81.2420   60.9180 C   0  0  1  0  0  0  0  0  0  0  0  0
   43.4750   82.1540   59.7530 C   0  0  0  0  0  0  0  0  0  0  0  0
   43.9720   83.5280   60.0690 C   0  0  0  0  0  0  0  0  0  0  0  0
   44.0210   83.5600   61.5670 C   0  0  0  0  0  0  0  0  0  0  0  0
   43.6980   82.1710   62.0560 C   0  0  2  0  0  0  0  0  0  0  0  0
   45.0150   81.8260   62.7720 C   0  0  0  0  0  0  0  0  0  0  0  0
   45.7360   82.4400   63.6830 N   0  0  0  0  0  0  0  0  0  0  0  0
   46.7870   81.7240   63.9680 O   0  0  0  0  0  0  0  0  0  0  0  0
   46.8020   80.6170   63.2650 C   0  0  0  0  0  0  0  0  0  0  0  0
   45.6730   80.6830   62.5030 N   0  0  0  0  0  0  0  0  0  0  0  0
   39.0882   83.9237   59.2604 H   0  0  0  0  0  0  0  0  0  0  0  0
   39.9337   81.5565   59.3339 H   0  0  0  0  0  0  0  0  0  0  0  0
   41.4079   85.7872   63.1809 H   0  0  0  0  0  0  0  0  0  0  0  0
   39.5234   85.2795   66.4055 H   0  0  0  0  0  0  0  0  0  0  0  0
   39.8746   86.5198   65.1722 H   0  0  0  0  0  0  0  0  0  0  0  0
   40.6957   79.6782   63.1944 H   0  0  0  0  0  0  0  0  0  0  0  0
   39.8516   79.1792   61.7321 H   0  0  0  0  0  0  0  0  0  0  0  0
   41.8180   77.6391   62.8046 H   0  0  0  0  0  0  0  0  0  0  0  0
   41.6738   77.7124   61.0717 H   0  0  0  0  0  0  0  0  0  0  0  0
   43.3956   79.5492   62.9011 H   0  0  0  0  0  0  0  0  0  0  0  0
   44.0475   78.5448   61.6775 H   0  0  0  0  0  0  0  0  0  0  0  0
   42.5884   79.8706   59.8541 H   0  0  0  0  0  0  0  0  0  0  0  0
   44.6875   80.6884   60.9275 H   0  0  0  0  0  0  0  0  0  0  0  0
   42.3938   82.1926   59.5545 H   0  0  0  0  0  0  0  0  0  0  0  0
   43.9994   81.7715   58.8649 H   0  0  0  0  0  0  0  0  0  0  0  0
   44.9725   83.6899   59.6415 H   0  0  0  0  0  0  0  0  0  0  0  0
   43.3309   84.3172   59.6493 H   0  0  0  0  0  0  0  0  0  0  0  0
   45.0259   83.8537   61.9046 H   0  0  0  0  0  0  0  0  0  0  0  0
   43.3007   84.2901   61.9646 H   0  0  0  0  0  0  0  0  0  0  0  0
   42.7466   82.1147   62.6052 H   0  0  0  0  0  0  0  0  0  0  0  0
   47.5555   79.8158   63.2854 H   0  0  0  0  0  0  0  0  0  0  0  0
  1  2  2  0
  1  6  1  0
  2  3  1  0
  3 12  1  0
  3  4  2  0
  5  4  1  0
  5  7  1  0
  6  5  2  0
  7  8  1  0
  8  9  2  0
  8 10  1  0
 11  9  1  0
 12 13  1  0
 14 13  1  0
 15 14  1  0
 16 17  1  0
 16 12  1  0
 16 15  1  0
 17 21  1  0
 18 19  1  0
 18 17  1  0
 19 20  1  0
 20 21  1  0
 21 22  1  0
 22 23  2  0
 23 24  1  0
 25 24  1  0
 26 22  1  0
 26 25  2  0
  1 27  1  0
  2 28  1  0
  7 29  1  0
 10 30  1  0
 10 31  1  0
 13 32  1  0
 13 33  1  0
 14 34  1  0
 14 35  1  0
 15 36  1  0
 15 37  1  0
 16 38  1  6
 17 39  1  6
 18 40  1  0
 18 41  1  0
 19 42  1  0
 19 43  1  0
 20 44  1  0
 20 45  1  0
 21 46  1  1
 25 47  1  0
M  END
>  <Score>  (1) 
-7.30038

$$$$
