
     RDKit          3D

 47 51  0  0  1  0  0  0  0  0999 V2000
   42.5870   86.4330   58.4310 C   0  0  0  0  0  0  0  0  0  0  0  0
   43.0250   85.8580   59.6530 C   0  0  0  0  0  0  0  0  0  0  0  0
   44.0790   86.4360   60.3120 C   0  0  0  0  0  0  0  0  0  0  0  0
   44.6460   87.5520   59.7300 N   0  0  0  0  0  0  0  0  0  0  0  0
   44.2190   88.0710   58.5870 C   0  0  0  0  0  0  0  0  0  0  0  0
   43.1740   87.5130   57.9190 N   0  0  0  0  0  0  0  0  0  0  0  0
   44.8510   89.2220   58.0490 N   0  0  0  0  0  0  0  0  0  0  0  0
   45.8490   89.1100   57.1680 C   0  0  0  0  0  0  0  0  0  0  0  0
   46.2660   90.3810   56.8210 C   0  0  0  0  0  0  0  0  0  0  0  0
   45.4990   91.2530   57.5100 N   0  0  0  0  0  0  0  0  0  0  0  0
   44.6370   90.5360   58.2560 C   0  0  0  0  0  0  0  0  0  0  0  0
   43.6680   91.0920   59.1330 N   0  0  0  0  0  0  0  0  0  0  0  0
   42.4430   91.6590   58.5580 C   0  0  0  0  0  0  0  0  0  0  0  0
   41.9980   92.9360   59.1310 C   0  0  0  0  0  0  0  0  0  0  0  0
   42.5280   93.3090   60.4690 C   0  0  0  0  0  0  0  0  0  0  0  0
   43.8440   92.7030   60.8190 C   0  0  0  0  0  0  0  0  0  0  0  0
   43.6850   91.2040   60.5600 C   0  0  0  0  0  0  0  0  0  0  0  0
   42.2910   84.6950   60.1080 N   0  0  0  0  0  0  0  0  0  0  0  0
   41.7080   83.7740   59.3240 C   0  0  0  0  0  0  0  0  0  0  0  0
   41.0810   82.8610   60.1100 N   0  0  0  0  0  0  0  0  0  0  0  0
   41.2590   83.1920   61.3820 C   0  0  0  0  0  0  0  0  0  0  0  0
   40.8450   82.7260   62.6000 C   0  0  2  0  0  0  0  0  0  0  0  0
   41.3270   83.2360   63.7510 N   0  0  0  0  0  0  0  0  0  0  0  0
   42.0870   84.3610   63.7600 C   0  0  0  0  0  0  0  0  0  0  0  0
   42.4250   84.9080   62.5810 N   0  0  0  0  0  0  0  0  0  0  0  0
   42.0280   84.3510   61.4070 C   0  0  0  0  0  0  0  0  0  0  0  0
   40.5710   81.3090   62.7020 N   0  0  0  0  0  0  0  0  0  0  0  0
   41.7427   85.9755   57.8945 H   0  0  0  0  0  0  0  0  0  0  0  0
   44.4560   86.0288   61.2618 H   0  0  0  0  0  0  0  0  0  0  0  0
   46.2672   88.1676   56.7845 H   0  0  0  0  0  0  0  0  0  0  0  0
   47.0714   90.6347   56.1160 H   0  0  0  0  0  0  0  0  0  0  0  0
   41.6344   90.9265   58.6980 H   0  0  0  0  0  0  0  0  0  0  0  0
   42.6784   91.8708   57.5046 H   0  0  0  0  0  0  0  0  0  0  0  0
   42.2875   93.7313   58.4284 H   0  0  0  0  0  0  0  0  0  0  0  0
   40.9154   92.8135   59.2823 H   0  0  0  0  0  0  0  0  0  0  0  0
   42.6378   94.4031   60.4992 H   0  0  0  0  0  0  0  0  0  0  0  0
   41.8069   92.9208   61.2033 H   0  0  0  0  0  0  0  0  0  0  0  0
   44.6403   93.1204   60.1851 H   0  0  0  0  0  0  0  0  0  0  0  0
   44.1240   92.9095   61.8625 H   0  0  0  0  0  0  0  0  0  0  0  0
   42.7442   90.8316   60.9914 H   0  0  0  0  0  0  0  0  0  0  0  0
   44.4894   90.6104   61.0188 H   0  0  0  0  0  0  0  0  0  0  0  0
   41.7340   83.7611   58.2244 H   0  0  0  0  0  0  0  0  0  0  0  0
   39.8844   83.2575   62.5304 H   0  0  0  0  0  0  0  0  0  0  0  0
   42.4170   84.8122   64.7074 H   0  0  0  0  0  0  0  0  0  0  0  0
   42.9956   85.7654   62.5664 H   0  0  0  0  0  0  0  0  0  0  0  0
   40.5190   81.0400   63.6949 H   0  0  0  0  0  0  0  0  0  0  0  0
   39.6738   81.0988   62.2419 H   0  0  0  0  0  0  0  0  0  0  0  0
  1  2  2  0
  2 18  1  0
  2  3  1  0
  4  3  2  0
  5  4  1  0
  6  1  1  0
  6  5  2  0
  7 11  1  0
  7  5  1  0
  8  7  1  0
  9  8  2  0
  9 10  1  0
 10 11  2  0
 11 12  1  0
 12 17  1  0
 13 14  1  0
 13 12  1  0
 14 15  1  0
 15 16  1  0
 17 16  1  0
 18 26  1  0
 19 18  1  0
 19 20  2  0
 20 21  1  0
 21 26  2  0
 21 22  1  0
 22 27  1  0
 22 23  1  0
 23 24  2  0
 25 24  1  0
 26 25  1  0
  1 28  1  0
  3 29  1  0
  8 30  1  0
  9 31  1  0
 13 32  1  0
 13 33  1  0
 14 34  1  0
 14 35  1  0
 15 36  1  0
 15 37  1  0
 16 38  1  0
 16 39  1  0
 17 40  1  0
 17 41  1  0
 19 42  1  0
 22 43  1  1
 24 44  1  0
 25 45  1  0
 27 46  1  0
 27 47  1  0
M  END
>  <Score>  (1) 
-7.11815

$$$$
