
     RDKit          3D

 43 47  0  0  0  0  0  0  0  0999 V2000
   38.9830   83.4860   61.8480 C   0  0  0  0  0  0  0  0  0  0  0  0
   39.5960   84.4080   60.9940 C   0  0  0  0  0  0  0  0  0  0  0  0
   40.7340   83.9700   60.2680 C   0  0  0  0  0  0  0  0  0  0  0  0
   41.1680   82.7100   60.4290 N   0  0  0  0  0  0  0  0  0  0  0  0
   40.5380   81.8350   61.2780 C   0  0  0  0  0  0  0  0  0  0  0  0
   39.4520   82.2350   61.9770 N   0  0  0  0  0  0  0  0  0  0  0  0
   41.0420   80.4690   61.4260 C   0  0  0  0  0  0  0  0  0  0  0  0
   40.2050   79.4140   61.1310 C   0  0  0  0  0  0  0  0  0  0  0  0
   40.6820   78.1000   61.2710 C   0  0  0  0  0  0  0  0  0  0  0  0
   41.9720   77.9790   61.7010 C   0  0  0  0  0  0  0  0  0  0  0  0
   42.8060   79.0330   61.9960 C   0  0  0  0  0  0  0  0  0  0  0  0
   42.3080   80.2730   61.8470 N   0  0  0  0  0  0  0  0  0  0  0  0
   44.1300   78.7580   62.4350 N   0  0  0  0  0  0  0  0  0  0  0  0
   44.9280   79.8560   62.4770 C   0  0  0  0  0  0  0  0  0  0  0  0
   46.2510   79.7880   62.8800 C   0  0  0  0  0  0  0  0  0  0  0  0
   46.7430   78.5420   63.2440 C   0  0  0  0  0  0  0  0  0  0  0  0
   47.9500   78.3910   63.6270 O   0  0  0  0  0  0  0  0  0  0  0  0
   45.9270   77.4760   63.1910 N   0  0  0  0  0  0  0  0  0  0  0  0
   44.6560   77.5730   62.7980 C   0  0  0  0  0  0  0  0  0  0  0  0
   43.8200   76.6300   62.7170 O   0  0  0  0  0  0  0  0  0  0  0  0
   41.3800   84.9260   59.3730 C   0  0  0  0  0  0  0  0  0  0  0  0
   40.9910   85.3290   58.1420 C   0  0  0  0  0  0  0  0  0  0  0  0
   41.8540   86.2260   57.6330 N   0  0  0  0  0  0  0  0  0  0  0  0
   42.8170   86.3970   58.5650 C   0  0  0  0  0  0  0  0  0  0  0  0
   43.9420   87.2190   58.5310 C   0  0  0  0  0  0  0  0  0  0  0  0
   44.8150   87.2370   59.6230 C   0  0  0  0  0  0  0  0  0  0  0  0
   44.5760   86.4580   60.7250 C   0  0  0  0  0  0  0  0  0  0  0  0
   43.4430   85.6620   60.7020 C   0  0  0  0  0  0  0  0  0  0  0  0
   42.5510   85.6040   59.6560 C   0  0  0  0  0  0  0  0  0  0  0  0
   38.0985   83.7921   62.4258 H   0  0  0  0  0  0  0  0  0  0  0  0
   39.2111   85.4331   60.8890 H   0  0  0  0  0  0  0  0  0  0  0  0
   39.1757   79.5989   60.7900 H   0  0  0  0  0  0  0  0  0  0  0  0
   40.0554   77.2238   61.0482 H   0  0  0  0  0  0  0  0  0  0  0  0
   42.3751   76.9625   61.8207 H   0  0  0  0  0  0  0  0  0  0  0  0
   44.5104   80.8298   62.1817 H   0  0  0  0  0  0  0  0  0  0  0  0
   46.8866   80.6853   62.9105 H   0  0  0  0  0  0  0  0  0  0  0  0
   46.2951   76.5532   63.4629 H   0  0  0  0  0  0  0  0  0  0  0  0
   40.0883   84.9706   57.6256 H   0  0  0  0  0  0  0  0  0  0  0  0
   41.7930   86.6901   56.7155 H   0  0  0  0  0  0  0  0  0  0  0  0
   44.1416   87.8489   57.6516 H   0  0  0  0  0  0  0  0  0  0  0  0
   45.7042   87.8841   59.5973 H   0  0  0  0  0  0  0  0  0  0  0  0
   45.2549   86.4647   61.5905 H   0  0  0  0  0  0  0  0  0  0  0  0
   43.2422   85.0322   61.5812 H   0  0  0  0  0  0  0  0  0  0  0  0
  1  6  2  0
  2  1  1  0
  3  4  1  0
  3  2  2  0
  4  5  2  0
  5  7  1  0
  5  6  1  0
  7 12  2  0
  8  9  2  0
  8  7  1  0
  9 10  1  0
 10 11  2  0
 11 13  1  0
 12 11  1  0
 13 14  1  0
 13 19  1  0
 14 15  2  0
 15 16  1  0
 16 17  2  0
 18 16  1  0
 19 18  1  0
 20 19  2  0
 21 29  1  0
 21  3  1  0
 22 21  2  0
 23 22  1  0
 23 24  1  0
 24 29  2  0
 25 24  1  0
 25 26  2  0
 26 27  1  0
 28 27  2  0
 29 28  1  0
  1 30  1  0
  2 31  1  0
  8 32  1  0
  9 33  1  0
 10 34  1  0
 14 35  1  0
 15 36  1  0
 18 37  1  0
 22 38  1  0
 23 39  1  0
 25 40  1  0
 26 41  1  0
 27 42  1  0
 28 43  1  0
M  END
>  <Score>  (1) 
-7.43514

$$$$
