
     RDKit          3D

 46 49  0  0  1  0  0  0  0  0999 V2000
   40.5610   83.6960   58.6190 C   0  0  0  0  0  0  0  0  0  0  0  0
   39.6940   84.4870   59.3560 C   0  0  0  0  0  0  0  0  0  0  0  0
   39.2840   84.0100   60.5960 C   0  0  0  0  0  0  0  0  0  0  0  0
   39.7540   82.8040   61.0090 N   0  0  0  0  0  0  0  0  0  0  0  0
   40.5950   82.0510   60.2780 C   0  0  0  0  0  0  0  0  0  0  0  0
   41.0070   82.5050   59.0600 N   0  0  0  0  0  0  0  0  0  0  0  0
   41.0380   80.7960   60.7950 N   0  0  0  0  0  0  0  0  0  0  0  0
   40.1120   79.7660   61.0940 C   0  0  0  0  0  0  0  0  0  0  0  0
   40.7920   78.4030   61.0100 C   0  0  0  0  0  0  0  0  0  0  0  0
   41.9880   78.2880   61.8760 C   0  0  0  0  0  0  0  0  0  0  0  0
   42.7760   79.5550   61.9950 C   0  0  0  0  0  0  0  0  0  0  0  0
   42.4580   80.6170   61.0010 C   0  0  2  0  0  0  0  0  0  0  0  0
   43.0400   81.9010   61.5130 C   0  0  0  0  0  0  0  0  0  0  0  0
   44.0800   82.5350   60.8710 C   0  0  0  0  0  0  0  0  0  0  0  0
   44.5520   83.7150   61.4160 C   0  0  0  0  0  0  0  0  0  0  0  0
   44.0120   84.2390   62.5480 N   0  0  0  0  0  0  0  0  0  0  0  0
   42.9920   83.6030   63.1630 C   0  0  0  0  0  0  0  0  0  0  0  0
   42.5120   82.4430   62.6480 N   0  0  0  0  0  0  0  0  0  0  0  0
   42.4250   84.1390   64.3380 N   0  0  0  0  0  0  0  0  0  0  0  0
   41.0200   84.1940   64.5120 C   0  0  0  0  0  0  0  0  0  0  0  0
   40.2690   83.3160   63.8960 N   0  0  0  0  0  0  0  0  0  0  0  0
   40.4720   85.2150   65.3650 N   0  0  0  0  0  0  0  0  0  0  0  0
   39.2200   83.3860   64.0500 H   0  0  0  0  0  0  0  0  0  0  0  0
   45.6270   84.3340   60.7180 N   0  0  0  0  0  0  0  0  0  0  0  0
   45.9580   85.5670   60.2810 C   0  0  0  0  0  0  0  0  0  0  0  0
   47.1530   85.5060   59.6650 N   0  0  0  0  0  0  0  0  0  0  0  0
   47.5730   84.2200   59.7210 C   0  0  0  0  0  0  0  0  0  0  0  0
   46.6190   83.5070   60.3740 N   0  0  0  0  0  0  0  0  0  0  0  0
   40.8978   84.0554   57.6354 H   0  0  0  0  0  0  0  0  0  0  0  0
   39.3430   85.4569   58.9739 H   0  0  0  0  0  0  0  0  0  0  0  0
   38.5970   84.5938   61.2262 H   0  0  0  0  0  0  0  0  0  0  0  0
   39.7202   79.9141   62.1111 H   0  0  0  0  0  0  0  0  0  0  0  0
   39.2892   79.8013   60.3648 H   0  0  0  0  0  0  0  0  0  0  0  0
   40.0673   77.6326   61.3122 H   0  0  0  0  0  0  0  0  0  0  0  0
   41.1294   78.2719   59.9713 H   0  0  0  0  0  0  0  0  0  0  0  0
   41.6593   77.9890   62.8823 H   0  0  0  0  0  0  0  0  0  0  0  0
   42.6496   77.5438   61.4087 H   0  0  0  0  0  0  0  0  0  0  0  0
   42.5981   79.9690   62.9985 H   0  0  0  0  0  0  0  0  0  0  0  0
   43.8218   79.2730   61.8035 H   0  0  0  0  0  0  0  0  0  0  0  0
   42.8836   80.3187   60.0315 H   0  0  0  0  0  0  0  0  0  0  0  0
   44.5211   82.1165   59.9543 H   0  0  0  0  0  0  0  0  0  0  0  0
   43.0421   84.4961   65.0813 H   0  0  0  0  0  0  0  0  0  0  0  0
   39.4537   85.2754   65.5072 H   0  0  0  0  0  0  0  0  0  0  0  0
   41.0981   85.8855   65.8334 H   0  0  0  0  0  0  0  0  0  0  0  0
   45.3498   86.4747   60.4077 H   0  0  0  0  0  0  0  0  0  0  0  0
   48.5147   83.8249   59.3123 H   0  0  0  0  0  0  0  0  0  0  0  0
  1  6  2  0
  1  2  1  0
  2  3  2  0
  3  4  1  0
  5  7  1  0
  5  4  2  0
  6  5  1  0
  7 12  1  0
  7  8  1  0
  9  8  1  0
  9 10  1  0
 10 11  1  0
 12 13  1  0
 12 11  1  0
 13 18  2  0
 14 15  2  0
 14 13  1  0
 15 16  1  0
 16 17  2  0
 17 19  1  0
 18 17  1  0
 19 20  1  0
 20 22  1  0
 21 23  1  0
 21 20  2  0
 24 15  1  0
 25 24  1  0
 26 27  1  0
 26 25  2  0
 27 28  2  0
 28 24  1  0
  1 29  1  0
  2 30  1  0
  3 31  1  0
  8 32  1  0
  8 33  1  0
  9 34  1  0
  9 35  1  0
 10 36  1  0
 10 37  1  0
 11 38  1  0
 11 39  1  0
 12 40  1  6
 14 41  1  0
 19 42  1  0
 22 43  1  0
 22 44  1  0
 25 45  1  0
 27 46  1  0
M  END
>  <Score>  (1) 
-7.46809

$$$$
