
     RDKit          3D

 41 44  0  0  1  0  0  0  0  0999 V2000
   40.8550   81.5690   61.2000 C   0  0  1  0  0  0  0  0  0  0  0  0
   39.5050   82.0900   61.3410 C   0  0  0  0  0  0  0  0  0  0  0  0
   39.5190   83.5640   61.3450 C   0  0  0  0  0  0  0  0  0  0  0  0
   40.7070   84.2460   61.8530 C   0  0  0  0  0  0  0  0  0  0  0  0
   41.8520   83.4440   62.3460 C   0  0  2  0  0  0  0  0  0  0  0  0
   41.5780   81.9840   62.5090 C   0  0  0  0  0  0  0  0  0  0  0  0
   41.0100   80.1400   60.9220 C   0  0  0  0  0  0  0  0  0  0  0  0
   42.2350   79.5790   61.3810 C   0  0  0  0  0  0  0  0  0  0  0  0
   42.4830   78.2190   61.1530 C   0  0  0  0  0  0  0  0  0  0  0  0
   41.5010   77.5190   60.4900 N   0  0  0  0  0  0  0  0  0  0  0  0
   40.3500   78.0840   60.0700 C   0  0  0  0  0  0  0  0  0  0  0  0
   40.1170   79.3850   60.2890 N   0  0  0  0  0  0  0  0  0  0  0  0
   39.3510   77.2790   59.3720 C   0  0  0  0  0  0  0  0  0  0  0  0
   38.8420   76.0630   59.7900 C   0  0  0  0  0  0  0  0  0  0  0  0
   37.9530   75.6540   58.8720 N   0  0  0  0  0  0  0  0  0  0  0  0
   37.8660   76.5540   57.8790 C   0  0  0  0  0  0  0  0  0  0  0  0
   37.1550   76.6810   56.7050 C   0  0  0  0  0  0  0  0  0  0  0  0
   37.2480   77.7340   55.8310 C   0  0  0  0  0  0  0  0  0  0  0  0
   38.1280   78.7580   56.1450 C   0  0  0  0  0  0  0  0  0  0  0  0
   38.8670   78.6810   57.3090 C   0  0  0  0  0  0  0  0  0  0  0  0
   38.7470   77.6040   58.1660 C   0  0  0  0  0  0  0  0  0  0  0  0
   42.4070   84.0680   63.5900 C   0  0  0  0  0  0  0  0  0  0  0  0
   41.4530   83.8340   64.6010 F   0  0  0  0  0  0  0  0  0  0  0  0
   42.5200   85.4170   63.4410 F   0  0  0  0  0  0  0  0  0  0  0  0
   43.5580   83.4590   64.0090 F   0  0  0  0  0  0  0  0  0  0  0  0
   41.2902   81.9963   60.2845 H   0  0  0  0  0  0  0  0  0  0  0  0
   38.8906   81.7360   60.5001 H   0  0  0  0  0  0  0  0  0  0  0  0
   39.0841   81.7353   62.2934 H   0  0  0  0  0  0  0  0  0  0  0  0
   38.6559   84.1366   60.9745 H   0  0  0  0  0  0  0  0  0  0  0  0
   40.7514   85.3450   61.8695 H   0  0  0  0  0  0  0  0  0  0  0  0
   42.6155   83.4694   61.5546 H   0  0  0  0  0  0  0  0  0  0  0  0
   40.9325   81.8057   63.3817 H   0  0  0  0  0  0  0  0  0  0  0  0
   42.4978   81.4047   62.6774 H   0  0  0  0  0  0  0  0  0  0  0  0
   42.9741   80.2023   61.9056 H   0  0  0  0  0  0  0  0  0  0  0  0
   43.4135   77.7363   61.4863 H   0  0  0  0  0  0  0  0  0  0  0  0
   39.1168   75.5270   60.7104 H   0  0  0  0  0  0  0  0  0  0  0  0
   37.4152   74.7769   58.9217 H   0  0  0  0  0  0  0  0  0  0  0  0
   36.4558   75.8716   56.4480 H   0  0  0  0  0  0  0  0  0  0  0  0
   36.6446   77.7649   54.9118 H   0  0  0  0  0  0  0  0  0  0  0  0
   38.2365   79.6229   55.4740 H   0  0  0  0  0  0  0  0  0  0  0  0
   39.5652   79.4934   57.5589 H   0  0  0  0  0  0  0  0  0  0  0  0
  1  2  1  0
  1  6  1  0
  2  3  1  0
  3  4  2  0
  4  5  1  0
  5  6  1  0
  5 22  1  0
  7  1  1  0
  7  8  2  0
  9  8  1  0
 10  9  2  0
 11 12  2  0
 11 10  1  0
 12  7  1  0
 13 14  2  0
 13 11  1  0
 15 14  1  0
 16 21  2  0
 16 15  1  0
 17 16  1  0
 18 19  1  0
 18 17  2  0
 19 20  2  0
 20 21  1  0
 21 13  1  0
 22 25  1  0
 22 23  1  0
 24 22  1  0
  1 26  1  6
  2 27  1  0
  2 28  1  0
  3 29  1  0
  4 30  1  0
  5 31  1  6
  6 32  1  0
  6 33  1  0
  8 34  1  0
  9 35  1  0
 14 36  1  0
 15 37  1  0
 17 38  1  0
 18 39  1  0
 19 40  1  0
 20 41  1  0
M  END
>  <Score>  (1) 
-7.04346

$$$$
