
     RDKit          3D

 50 55  0  0  1  0  0  0  0  0999 V2000
   42.5940   87.1110   58.0720 C   0  0  2  0  0  0  0  0  0  0  0  0
   42.8260   88.2960   57.8700 N   0  0  0  0  0  0  0  0  0  0  0  0
   43.1530   89.4740   57.8420 C   0  0  0  0  0  0  0  0  0  0  0  0
   43.8090   89.5950   58.9970 N   0  0  0  0  0  0  0  0  0  0  0  0
   43.9140   88.4260   59.7670 C   0  0  0  0  0  0  0  0  0  0  0  0
   44.6470   88.6670   60.9200 C   0  0  0  0  0  0  0  0  0  0  0  0
   44.8490   87.5170   61.6750 C   0  0  0  0  0  0  0  0  0  0  0  0
   44.3990   86.2270   61.3230 C   0  0  0  0  0  0  0  0  0  0  0  0
   43.7440   86.2880   60.1940 C   0  0  0  0  0  0  0  0  0  0  0  0
   43.3160   87.2360   59.2420 C   0  0  0  0  0  0  0  0  0  0  0  0
   41.8350   83.5060   57.6600 C   0  0  0  0  0  0  0  0  0  0  0  0
   42.1870   84.7160   57.2480 C   0  0  0  0  0  0  0  0  0  0  0  0
   42.2020   85.7410   58.1810 C   0  0  0  0  0  0  0  0  0  0  0  0
   41.8240   85.4110   59.4480 N   0  0  0  0  0  0  0  0  0  0  0  0
   41.4670   84.2100   59.8580 C   0  0  0  0  0  0  0  0  0  0  0  0
   41.5030   83.3170   58.9150 N   0  0  0  0  0  0  0  0  0  0  0  0
   41.1050   83.9110   61.1710 N   0  0  0  0  0  0  0  0  0  0  0  0
   41.9660   83.4180   62.0230 C   0  0  0  0  0  0  0  0  0  0  0  0
   41.7940   83.0790   63.3260 C   0  0  0  0  0  0  0  0  0  0  0  0
   40.4930   83.3090   63.7340 C   0  0  0  0  0  0  0  0  0  0  0  0
   40.1280   83.0510   64.9310 O   0  0  0  0  0  0  0  0  0  0  0  0
   39.5220   83.8090   62.9340 N   0  0  0  0  0  0  0  0  0  0  0  0
   39.8550   84.1020   61.6630 C   0  0  0  0  0  0  0  0  0  0  0  0
   38.9660   84.5800   60.8610 O   0  0  0  0  0  0  0  0  0  0  0  0
   44.5210   85.1560   59.2940 C   0  0  0  0  0  0  0  0  0  0  0  0
   44.4010   83.8240   59.4910 N   0  0  0  0  0  0  0  0  0  0  0  0
   44.7650   82.7700   58.8870 C   0  0  0  0  0  0  0  0  0  0  0  0
   45.4490   82.9120   57.7570 N   0  0  0  0  0  0  0  0  0  0  0  0
   45.6860   84.1720   57.3680 C   0  0  0  0  0  0  0  0  0  0  0  0
   46.3320   84.4000   56.1760 C   0  0  0  0  0  0  0  0  0  0  0  0
   46.5250   85.6870   55.7250 C   0  0  0  0  0  0  0  0  0  0  0  0
   46.0760   86.8020   56.4540 C   0  0  0  0  0  0  0  0  0  0  0  0
   45.4640   86.4080   57.6010 C   0  0  0  0  0  0  0  0  0  0  0  0
   45.2210   85.1860   58.1380 C   0  0  0  0  0  0  0  0  0  0  0  0
   41.6801   87.4148   58.6035 H   0  0  0  0  0  0  0  0  0  0  0  0
   42.9579   90.2324   57.0695 H   0  0  0  0  0  0  0  0  0  0  0  0
   44.2135   90.4908   59.3049 H   0  0  0  0  0  0  0  0  0  0  0  0
   45.0267   89.6591   61.2056 H   0  0  0  0  0  0  0  0  0  0  0  0
   45.4025   87.6210   62.6199 H   0  0  0  0  0  0  0  0  0  0  0  0
   44.5726   85.3119   61.9082 H   0  0  0  0  0  0  0  0  0  0  0  0
   41.8214   82.6639   56.9524 H   0  0  0  0  0  0  0  0  0  0  0  0
   42.4587   84.9008   56.1982 H   0  0  0  0  0  0  0  0  0  0  0  0
   42.9783   83.2540   61.6252 H   0  0  0  0  0  0  0  0  0  0  0  0
   42.5862   82.6741   63.9730 H   0  0  0  0  0  0  0  0  0  0  0  0
   38.5652   83.9594   63.2844 H   0  0  0  0  0  0  0  0  0  0  0  0
   44.5229   81.7734   59.2847 H   0  0  0  0  0  0  0  0  0  0  0  0
   46.6964   83.5506   55.5797 H   0  0  0  0  0  0  0  0  0  0  0  0
   47.0445   85.8467   54.7686 H   0  0  0  0  0  0  0  0  0  0  0  0
   46.2027   87.8484   56.1393 H   0  0  0  0  0  0  0  0  0  0  0  0
   45.0931   87.2426   58.2140 H   0  0  0  0  0  0  0  0  0  0  0  0
  1 13  1  0
  1 10  1  0
  2  1  1  0
  3  2  2  0
  3  4  1  0
  4  5  1  0
  5  6  2  0
  6  7  1  0
  8  7  2  0
  9  8  1  0
 10  5  1  0
 10  9  2  0
 11 16  2  0
 12 11  1  0
 12 13  2  0
 13 14  1  0
 14 15  2  0
 15 17  1  0
 16 15  1  0
 17 23  1  0
 17 18  1  0
 18 19  2  0
 19 20  1  0
 20 21  2  0
 22 20  1  0
 23 22  1  0
 24 23  2  0
 25 26  2  0
 25  9  1  0
 27 26  1  0
 28 27  2  0
 29 28  1  0
 29 34  2  0
 30 29  1  0
 31 30  2  0
 31 32  1  0
 32 33  2  0
 33 34  1  0
 34 25  1  0
  1 35  1  1
  3 36  1  0
  4 37  1  0
  6 38  1  0
  7 39  1  0
  8 40  1  0
 11 41  1  0
 12 42  1  0
 18 43  1  0
 19 44  1  0
 22 45  1  0
 27 46  1  0
 30 47  1  0
 31 48  1  0
 32 49  1  0
 33 50  1  0
M  END
>  <Score>  (1) 
-7.00293

$$$$
