
     RDKit          3D

 45 49  0  0  0  0  0  0  0  0999 V2000
   41.2850   84.3130   61.2870 C   0  0  0  0  0  0  0  0  0  0  0  0
   40.5110   84.5060   60.1820 C   0  0  0  0  0  0  0  0  0  0  0  0
   39.2150   84.3000   60.4960 N   0  0  0  0  0  0  0  0  0  0  0  0
   39.1330   83.9760   61.7850 C   0  0  0  0  0  0  0  0  0  0  0  0
   40.3980   83.9810   62.2770 N   0  0  0  0  0  0  0  0  0  0  0  0
   37.9540   83.6740   62.5300 N   0  0  0  0  0  0  0  0  0  0  0  0
   40.8920   84.8650   58.8780 N   0  0  0  0  0  0  0  0  0  0  0  0
   40.7740   86.0030   58.1450 C   0  0  0  0  0  0  0  0  0  0  0  0
   41.3030   85.8500   56.9280 N   0  0  0  0  0  0  0  0  0  0  0  0
   41.7910   84.5870   56.8280 C   0  0  0  0  0  0  0  0  0  0  0  0
   42.4130   83.9890   55.7730 C   0  0  0  0  0  0  0  0  0  0  0  0
   42.7850   82.7050   55.9860 N   0  0  0  0  0  0  0  0  0  0  0  0
   42.5370   82.1040   57.1690 C   0  0  0  0  0  0  0  0  0  0  0  0
   41.9200   82.7090   58.2000 N   0  0  0  0  0  0  0  0  0  0  0  0
   41.5170   84.0010   58.0590 C   0  0  0  0  0  0  0  0  0  0  0  0
   42.6510   84.6670   54.5480 N   0  0  0  0  0  0  0  0  0  0  0  0
   44.6460   85.7350   61.3740 C   0  0  0  0  0  0  0  0  0  0  0  0
   45.4440   84.5910   61.5970 C   0  0  0  0  0  0  0  0  0  0  0  0
   44.8210   83.3790   61.7100 C   0  0  0  0  0  0  0  0  0  0  0  0
   43.4530   83.3560   61.6000 N   0  0  0  0  0  0  0  0  0  0  0  0
   42.7120   84.4320   61.3900 C   0  0  0  0  0  0  0  0  0  0  0  0
   43.3120   85.6370   61.2760 N   0  0  0  0  0  0  0  0  0  0  0  0
   45.5390   82.1460   61.9390 C   0  0  0  0  0  0  0  0  0  0  0  0
   44.9770   81.0340   62.5420 C   0  0  0  0  0  0  0  0  0  0  0  0
   45.6460   79.8500   62.7680 C   0  0  0  0  0  0  0  0  0  0  0  0
   46.9630   79.8000   62.3550 C   0  0  0  0  0  0  0  0  0  0  0  0
   47.5930   80.8630   61.7490 C   0  0  0  0  0  0  0  0  0  0  0  0
   46.8490   82.0140   61.5590 C   0  0  0  0  0  0  0  0  0  0  0  0
   40.7880   83.6880   63.6320 C   0  0  0  0  0  0  0  0  0  0  0  0
   40.9650   82.3250   63.7550 F   0  0  0  0  0  0  0  0  0  0  0  0
   39.8060   84.0690   64.5310 F   0  0  0  0  0  0  0  0  0  0  0  0
   41.9150   84.4200   64.0250 F   0  0  0  0  0  0  0  0  0  0  0  0
   38.0233   83.4362   63.5298 H   0  0  0  0  0  0  0  0  0  0  0  0
   37.0337   83.6938   62.0680 H   0  0  0  0  0  0  0  0  0  0  0  0
   40.3041   86.9295   58.5066 H   0  0  0  0  0  0  0  0  0  0  0  0
   42.8578   81.0597   57.2973 H   0  0  0  0  0  0  0  0  0  0  0  0
   42.3490   85.6451   54.4336 H   0  0  0  0  0  0  0  0  0  0  0  0
   43.1256   84.1807   53.7740 H   0  0  0  0  0  0  0  0  0  0  0  0
   45.1256   86.7204   61.2794 H   0  0  0  0  0  0  0  0  0  0  0  0
   46.5380   84.6730   61.6776 H   0  0  0  0  0  0  0  0  0  0  0  0
   43.9267   81.0994   62.8622 H   0  0  0  0  0  0  0  0  0  0  0  0
   45.1572   78.9912   63.2513 H   0  0  0  0  0  0  0  0  0  0  0  0
   47.5317   78.8725   62.5171 H   0  0  0  0  0  0  0  0  0  0  0  0
   48.6436   80.8002   61.4292 H   0  0  0  0  0  0  0  0  0  0  0  0
   47.3372   82.8727   61.0750 H   0  0  0  0  0  0  0  0  0  0  0  0
  1 21  1  0
  1  5  1  0
  2  3  1  0
  2  1  2  0
  3  4  2  0
  4  5  1  0
  4  6  1  0
  5 29  1  0
  7  2  1  0
  8  7  1  0
  9  8  2  0
 10  9  1  0
 10 15  2  0
 11 12  2  0
 11 10  1  0
 12 13  1  0
 13 14  2  0
 15 14  1  0
 15  7  1  0
 16 11  1  0
 17 18  2  0
 18 19  1  0
 19 23  1  0
 20 19  2  0
 21 20  1  0
 22 17  1  0
 22 21  2  0
 23 24  2  0
 24 25  1  0
 26 25  2  0
 27 26  1  0
 28 27  2  0
 28 23  1  0
 29 30  1  0
 29 32  1  0
 29 31  1  0
  6 33  1  0
  6 34  1  0
  8 35  1  0
 13 36  1  0
 16 37  1  0
 16 38  1  0
 17 39  1  0
 18 40  1  0
 24 41  1  0
 25 42  1  0
 26 43  1  0
 27 44  1  0
 28 45  1  0
M  END
>  <Score>  (1) 
-8.08572

$$$$
