
     RDKit          3D

 49 54  0  0  0  0  0  0  0  0999 V2000
   43.3140   78.6270   61.0810 C   0  0  0  0  0  0  0  0  0  0  0  0
   42.9150   79.8510   61.6590 C   0  0  0  0  0  0  0  0  0  0  0  0
   41.5460   80.1320   61.7240 C   0  0  0  0  0  0  0  0  0  0  0  0
   40.6740   79.2130   61.2280 N   0  0  0  0  0  0  0  0  0  0  0  0
   41.0770   78.0600   60.6830 C   0  0  0  0  0  0  0  0  0  0  0  0
   42.3900   77.7520   60.6030 N   0  0  0  0  0  0  0  0  0  0  0  0
   40.0070   77.2080   60.2100 N   0  0  0  0  0  0  0  0  0  0  0  0
   39.7320   76.1480   60.9860 N   0  0  0  0  0  0  0  0  0  0  0  0
   38.7020   75.4670   60.4290 C   0  0  0  0  0  0  0  0  0  0  0  0
   38.3780   76.1780   59.2750 C   0  0  0  0  0  0  0  0  0  0  0  0
   39.2150   77.2820   59.1440 C   0  0  0  0  0  0  0  0  0  0  0  0
   39.2470   78.2920   58.1160 C   0  0  0  0  0  0  0  0  0  0  0  0
   40.0510   79.4050   58.1030 C   0  0  0  0  0  0  0  0  0  0  0  0
   39.8560   80.1730   57.0410 N   0  0  0  0  0  0  0  0  0  0  0  0
   38.8910   79.6060   56.2650 C   0  0  0  0  0  0  0  0  0  0  0  0
   38.3010   79.9660   55.0660 C   0  0  0  0  0  0  0  0  0  0  0  0
   37.3250   79.1760   54.5070 C   0  0  0  0  0  0  0  0  0  0  0  0
   36.9500   78.0230   55.1650 C   0  0  0  0  0  0  0  0  0  0  0  0
   37.5650   77.7090   56.3520 C   0  0  0  0  0  0  0  0  0  0  0  0
   38.5330   78.4440   56.9560 C   0  0  0  0  0  0  0  0  0  0  0  0
   40.9260   81.6570   62.4160 S   0  0  0  0  0  0  0  0  0  0  0  0
   43.9570   83.9930   62.7950 N   0  0  0  0  0  0  0  0  0  0  0  0
   43.2300   82.9110   63.0440 N   0  0  0  0  0  0  0  0  0  0  0  0
   42.1110   82.9900   62.2900 C   0  0  0  0  0  0  0  0  0  0  0  0
   42.1220   84.1630   61.5320 C   0  0  0  0  0  0  0  0  0  0  0  0
   43.2970   84.7540   61.8830 C   0  0  0  0  0  0  0  0  0  0  0  0
   43.6860   86.0140   61.3050 N   0  0  0  0  0  0  0  0  0  0  0  0
   44.0920   87.0780   61.9800 N   0  0  0  0  0  0  0  0  0  0  0  0
   44.3780   88.0800   61.1560 C   0  0  0  0  0  0  0  0  0  0  0  0
   44.1420   87.6320   59.8850 C   0  0  0  0  0  0  0  0  0  0  0  0
   43.7000   86.3090   59.9980 C   0  0  0  0  0  0  0  0  0  0  0  0
   43.3620   85.5540   58.7690 C   0  0  0  0  0  0  0  0  0  0  0  0
   43.9360   84.2910   58.7180 F   0  0  0  0  0  0  0  0  0  0  0  0
   43.9290   86.1860   57.6330 F   0  0  0  0  0  0  0  0  0  0  0  0
   42.0230   85.5870   58.4940 F   0  0  0  0  0  0  0  0  0  0  0  0
   44.3836   78.3784   61.0166 H   0  0  0  0  0  0  0  0  0  0  0  0
   43.6583   80.5630   62.0469 H   0  0  0  0  0  0  0  0  0  0  0  0
   38.2244   74.5506   60.8061 H   0  0  0  0  0  0  0  0  0  0  0  0
   37.5778   75.9063   58.5708 H   0  0  0  0  0  0  0  0  0  0  0  0
   40.7814   79.6353   58.8926 H   0  0  0  0  0  0  0  0  0  0  0  0
   40.3517   81.0524   56.8364 H   0  0  0  0  0  0  0  0  0  0  0  0
   38.6149   80.8895   54.5575 H   0  0  0  0  0  0  0  0  0  0  0  0
   36.8525   79.4574   53.5543 H   0  0  0  0  0  0  0  0  0  0  0  0
   36.1725   77.3670   54.7465 H   0  0  0  0  0  0  0  0  0  0  0  0
   37.2464   76.7843   56.8555 H   0  0  0  0  0  0  0  0  0  0  0  0
   44.8674   84.2179   63.2210 H   0  0  0  0  0  0  0  0  0  0  0  0
   41.3631   84.5230   60.8217 H   0  0  0  0  0  0  0  0  0  0  0  0
   44.7365   89.0800   61.4414 H   0  0  0  0  0  0  0  0  0  0  0  0
   44.2742   88.2020   58.9535 H   0  0  0  0  0  0  0  0  0  0  0  0
  1  2  2  0
  2  3  1  0
  3 21  1  0
  4  3  2  0
  5  4  1  0
  6  5  2  0
  6  1  1  0
  7  5  1  0
  7  8  1  0
  9  8  2  0
 10  9  1  0
 11 10  2  0
 11  7  1  0
 12 11  1  0
 13 12  2  0
 14 13  1  0
 15 20  2  0
 15 14  1  0
 16 15  1  0
 17 16  2  0
 17 18  1  0
 18 19  2  0
 19 20  1  0
 20 12  1  0
 22 23  1  0
 24 21  1  0
 24 23  2  0
 25 26  2  0
 25 24  1  0
 26 22  1  0
 27 26  1  0
 27 28  1  0
 29 28  2  0
 30 31  2  0
 30 29  1  0
 31 27  1  0
 32 31  1  0
 33 32  1  0
 34 32  1  0
 35 32  1  0
  1 36  1  0
  2 37  1  0
  9 38  1  0
 10 39  1  0
 13 40  1  0
 14 41  1  0
 16 42  1  0
 17 43  1  0
 18 44  1  0
 19 45  1  0
 22 46  1  0
 25 47  1  0
 29 48  1  0
 30 49  1  0
M  END
>  <Score>  (1) 
-7.56141

$$$$
