
     RDKit          3D

 45 48  0  0  1  0  0  0  0  0999 V2000
   40.4400   78.7270   59.5560 C   0  0  1  0  0  0  0  0  0  0  0  0
   39.4040   78.1400   58.7500 C   0  0  0  0  0  0  0  0  0  0  0  0
   39.3790   76.6710   58.9160 C   0  0  0  0  0  0  0  0  0  0  0  0
   40.6060   75.9860   59.2130 C   0  0  0  0  0  0  0  0  0  0  0  0
   41.8560   76.7510   59.3360 C   0  0  0  0  0  0  0  0  0  0  0  0
   41.7780   78.1940   58.9050 C   0  0  0  0  0  0  0  0  0  0  0  0
   40.4920   80.1810   59.6890 C   0  0  0  0  0  0  0  0  0  0  0  0
   40.2580   80.8650   58.4750 C   0  0  0  0  0  0  0  0  0  0  0  0
   40.3030   82.2690   58.5070 C   0  0  0  0  0  0  0  0  0  0  0  0
   40.5660   82.8880   59.6940 N   0  0  0  0  0  0  0  0  0  0  0  0
   40.7800   82.1800   60.8210 C   0  0  0  0  0  0  0  0  0  0  0  0
   40.7410   80.8540   60.8030 N   0  0  0  0  0  0  0  0  0  0  0  0
   41.0520   82.8790   62.0380 N   0  0  0  0  0  0  0  0  0  0  0  0
   42.2180   83.1400   62.6250 C   0  0  0  0  0  0  0  0  0  0  0  0
   42.2480   83.8400   63.8150 C   0  0  0  0  0  0  0  0  0  0  0  0
   41.0740   84.2740   64.4030 C   0  0  0  0  0  0  0  0  0  0  0  0
   41.1560   84.9090   65.4890 O   0  0  0  0  0  0  0  0  0  0  0  0
   39.9030   83.9940   63.7840 N   0  0  0  0  0  0  0  0  0  0  0  0
   39.8960   83.3060   62.6190 C   0  0  0  0  0  0  0  0  0  0  0  0
   38.7260   83.1260   62.1680 O   0  0  0  0  0  0  0  0  0  0  0  0
   40.5760   74.5710   59.3850 C   0  0  0  0  0  0  0  0  0  0  0  0
   40.4850   73.8870   60.5760 C   0  0  0  0  0  0  0  0  0  0  0  0
   40.4610   72.5150   60.6910 C   0  0  0  0  0  0  0  0  0  0  0  0
   40.5310   71.7390   59.5520 C   0  0  0  0  0  0  0  0  0  0  0  0
   40.6230   72.3990   58.3420 C   0  0  0  0  0  0  0  0  0  0  0  0
   40.6450   73.7770   58.2670 C   0  0  0  0  0  0  0  0  0  0  0  0
   40.7650   74.5200   56.6430 S   0  0  0  0  0  0  0  0  0  0  0  0
   40.2489   78.4317   60.5982 H   0  0  0  0  0  0  0  0  0  0  0  0
   39.5897   78.3804   57.6928 H   0  0  0  0  0  0  0  0  0  0  0  0
   38.4340   78.5478   59.0706 H   0  0  0  0  0  0  0  0  0  0  0  0
   38.4369   76.1124   58.8138 H   0  0  0  0  0  0  0  0  0  0  0  0
   42.1648   76.7286   60.3915 H   0  0  0  0  0  0  0  0  0  0  0  0
   42.5731   76.2702   58.6545 H   0  0  0  0  0  0  0  0  0  0  0  0
   42.6447   78.7592   59.2785 H   0  0  0  0  0  0  0  0  0  0  0  0
   41.7853   78.3057   57.8107 H   0  0  0  0  0  0  0  0  0  0  0  0
   40.0490   80.3203   57.5424 H   0  0  0  0  0  0  0  0  0  0  0  0
   40.1297   82.8570   57.5937 H   0  0  0  0  0  0  0  0  0  0  0  0
   43.1560   82.7986   62.1629 H   0  0  0  0  0  0  0  0  0  0  0  0
   43.2126   84.0539   64.2986 H   0  0  0  0  0  0  0  0  0  0  0  0
   39.0144   84.3058   64.2013 H   0  0  0  0  0  0  0  0  0  0  0  0
   40.4274   74.4784   61.5017 H   0  0  0  0  0  0  0  0  0  0  0  0
   40.3867   72.0421   61.6814 H   0  0  0  0  0  0  0  0  0  0  0  0
   40.5142   70.6404   59.6054 H   0  0  0  0  0  0  0  0  0  0  0  0
   40.6802   71.8110   57.4141 H   0  0  0  0  0  0  0  0  0  0  0  0
   40.9825   75.8665   56.7718 H   0  0  0  0  0  0  0  0  0  0  0  0
  1  7  1  0
  2  3  1  0
  2  1  1  0
  3  4  2  0
  4  5  1  0
  4 21  1  0
  6  5  1  0
  6  1  1  0
  7 12  2  0
  8  9  2  0
  8  7  1  0
  9 10  1  0
 10 11  2  0
 11 13  1  0
 12 11  1  0
 13 19  1  0
 13 14  1  0
 14 15  2  0
 15 16  1  0
 16 17  2  0
 18 16  1  0
 19 18  1  0
 20 19  2  0
 21 22  2  0
 22 23  1  0
 24 23  2  0
 25 24  1  0
 26 25  2  0
 26 21  1  0
 27 26  1  0
  1 28  1  1
  2 29  1  0
  2 30  1  0
  3 31  1  0
  5 32  1  0
  5 33  1  0
  6 34  1  0
  6 35  1  0
  8 36  1  0
  9 37  1  0
 14 38  1  0
 15 39  1  0
 18 40  1  0
 22 41  1  0
 23 42  1  0
 24 43  1  0
 25 44  1  0
 27 45  1  0
M  END
>  <Score>  (1) 
-7.10757

$$$$
