
     RDKit          3D

 40 43  0  0  0  0  0  0  0  0999 V2000
   44.6630   85.4120   61.4750 C   0  0  0  0  0  0  0  0  0  0  0  0
   45.4210   84.2990   61.8920 C   0  0  0  0  0  0  0  0  0  0  0  0
   44.7580   83.1170   62.1620 C   0  0  0  0  0  0  0  0  0  0  0  0
   43.4020   83.1160   62.0030 N   0  0  0  0  0  0  0  0  0  0  0  0
   42.7000   84.1650   61.6110 C   0  0  0  0  0  0  0  0  0  0  0  0
   43.3240   85.3250   61.3430 N   0  0  0  0  0  0  0  0  0  0  0  0
   45.4500   81.9270   62.5960 C   0  0  0  0  0  0  0  0  0  0  0  0
   44.9900   80.6500   62.3120 C   0  0  0  0  0  0  0  0  0  0  0  0
   45.6200   79.4830   62.7070 C   0  0  0  0  0  0  0  0  0  0  0  0
   46.7860   79.6560   63.4340 C   0  0  0  0  0  0  0  0  0  0  0  0
   47.3010   80.8850   63.7530 C   0  0  0  0  0  0  0  0  0  0  0  0
   46.6060   81.9950   63.3170 C   0  0  0  0  0  0  0  0  0  0  0  0
   41.2720   84.0650   61.4720 C   0  0  0  0  0  0  0  0  0  0  0  0
   40.5300   84.1350   60.3280 C   0  0  0  0  0  0  0  0  0  0  0  0
   39.2320   83.9940   60.6210 N   0  0  0  0  0  0  0  0  0  0  0  0
   39.1000   83.8320   61.9390 C   0  0  0  0  0  0  0  0  0  0  0  0
   40.3410   83.8760   62.4620 N   0  0  0  0  0  0  0  0  0  0  0  0
   37.8850   83.6490   62.6650 N   0  0  0  0  0  0  0  0  0  0  0  0
   40.9960   84.3300   58.9590 C   0  0  0  0  0  0  0  0  0  0  0  0
   41.5470   83.4070   58.0930 C   0  0  0  0  0  0  0  0  0  0  0  0
   41.9090   83.8510   56.8360 C   0  0  0  0  0  0  0  0  0  0  0  0
   41.7380   85.1330   56.4600 N   0  0  0  0  0  0  0  0  0  0  0  0
   41.2030   86.0180   57.3110 C   0  0  0  0  0  0  0  0  0  0  0  0
   40.8430   85.6130   58.5350 N   0  0  0  0  0  0  0  0  0  0  0  0
   40.6830   83.7430   63.8590 C   0  0  0  0  0  0  0  0  0  0  0  0
   40.7980   82.4150   64.1710 F   0  0  0  0  0  0  0  0  0  0  0  0
   39.6980   84.2990   64.6660 F   0  0  0  0  0  0  0  0  0  0  0  0
   41.8250   84.4820   64.1920 F   0  0  0  0  0  0  0  0  0  0  0  0
   45.1701   86.3630   61.2546 H   0  0  0  0  0  0  0  0  0  0  0  0
   46.5134   84.3697   61.9998 H   0  0  0  0  0  0  0  0  0  0  0  0
   44.0596   80.5583   61.7324 H   0  0  0  0  0  0  0  0  0  0  0  0
   45.2224   78.4874   62.4607 H   0  0  0  0  0  0  0  0  0  0  0  0
   47.3268   78.7601   63.7730 H   0  0  0  0  0  0  0  0  0  0  0  0
   48.2305   80.9831   64.3330 H   0  0  0  0  0  0  0  0  0  0  0  0
   47.0064   82.9892   63.5646 H   0  0  0  0  0  0  0  0  0  0  0  0
   37.9089   83.5336   63.6882 H   0  0  0  0  0  0  0  0  0  0  0  0
   36.9843   83.6323   62.1657 H   0  0  0  0  0  0  0  0  0  0  0  0
   41.6922   82.3585   58.3923 H   0  0  0  0  0  0  0  0  0  0  0  0
   42.3488   83.1383   56.1228 H   0  0  0  0  0  0  0  0  0  0  0  0
   41.0610   87.0658   57.0076 H   0  0  0  0  0  0  0  0  0  0  0  0
  1  2  2  0
  2  3  1  0
  3  7  1  0
  4  3  2  0
  5  4  1  0
  6  1  1  0
  6  5  2  0
  7 12  1  0
  8  7  2  0
  8  9  1  0
  9 10  2  0
 10 11  1  0
 12 11  2  0
 13  5  1  0
 13 17  1  0
 14 15  1  0
 14 13  2  0
 15 16  2  0
 16 17  1  0
 16 18  1  0
 17 25  1  0
 19 14  1  0
 20 19  2  0
 21 20  1  0
 22 21  2  0
 22 23  1  0
 23 24  2  0
 24 19  1  0
 25 26  1  0
 25 28  1  0
 25 27  1  0
  1 29  1  0
  2 30  1  0
  8 31  1  0
  9 32  1  0
 10 33  1  0
 11 34  1  0
 12 35  1  0
 18 36  1  0
 18 37  1  0
 20 38  1  0
 21 39  1  0
 23 40  1  0
M  END
>  <Score>  (1) 
-7.36168

$$$$
