
     RDKit          3D

 43 46  0  0  0  0  0  0  0  0999 V2000
   41.4540   76.8580   61.0600 C   0  0  0  0  0  0  0  0  0  0  0  0
   40.9510   78.1490   61.1510 C   0  0  0  0  0  0  0  0  0  0  0  0
   41.7580   79.2070   61.5120 C   0  0  0  0  0  0  0  0  0  0  0  0
   43.0760   78.9370   61.7770 N   0  0  0  0  0  0  0  0  0  0  0  0
   43.5520   77.6800   61.6850 C   0  0  0  0  0  0  0  0  0  0  0  0
   42.7540   76.6580   61.3320 N   0  0  0  0  0  0  0  0  0  0  0  0
   40.6030   75.7960   60.6890 N   0  0  0  0  0  0  0  0  0  0  0  0
   39.2070   76.0270   60.7190 C   0  0  0  0  0  0  0  0  0  0  0  0
   38.3430   74.9480   60.2480 C   0  0  0  0  0  0  0  0  0  0  0  0
   38.9990   73.6870   59.7750 C   0  0  0  0  0  0  0  0  0  0  0  0
   40.2370   73.4030   60.6290 C   0  0  0  0  0  0  0  0  0  0  0  0
   41.1930   74.5260   60.3020 C   0  0  0  0  0  0  0  0  0  0  0  0
   41.3190   80.5940   61.6370 C   0  0  0  0  0  0  0  0  0  0  0  0
   41.1500   81.4350   60.5420 C   0  0  0  0  0  0  0  0  0  0  0  0
   40.7260   82.6660   61.0300 C   0  0  0  0  0  0  0  0  0  0  0  0
   40.6550   82.5400   62.3560 N   0  0  0  0  0  0  0  0  0  0  0  0
   41.0050   81.3180   62.7100 N   0  0  0  0  0  0  0  0  0  0  0  0
   40.4970   83.7430   60.0960 C   0  0  0  0  0  0  0  0  0  0  0  0
   39.4170   84.5490   59.8510 C   0  0  0  0  0  0  0  0  0  0  0  0
   39.3800   85.5460   58.9330 C   0  0  0  0  0  0  0  0  0  0  0  0
   40.4640   85.8230   58.1610 C   0  0  0  0  0  0  0  0  0  0  0  0
   41.6030   85.0780   58.3200 C   0  0  0  0  0  0  0  0  0  0  0  0
   41.5830   84.0770   59.2670 C   0  0  0  0  0  0  0  0  0  0  0  0
   40.2770   83.5560   63.2990 C   0  0  0  0  0  0  0  0  0  0  0  0
   40.4230   83.0930   64.6090 F   0  0  0  0  0  0  0  0  0  0  0  0
   38.9800   83.9580   63.1710 F   0  0  0  0  0  0  0  0  0  0  0  0
   41.1300   84.6400   63.1580 F   0  0  0  0  0  0  0  0  0  0  0  0
   39.8887   78.3311   60.9309 H   0  0  0  0  0  0  0  0  0  0  0  0
   44.6128   77.4868   61.9027 H   0  0  0  0  0  0  0  0  0  0  0  0
   38.7907   76.9784   61.0815 H   0  0  0  0  0  0  0  0  0  0  0  0
   37.2485   75.0574   60.2408 H   0  0  0  0  0  0  0  0  0  0  0  0
   38.2914   72.8496   59.8655 H   0  0  0  0  0  0  0  0  0  0  0  0
   39.2986   73.8026   58.7229 H   0  0  0  0  0  0  0  0  0  0  0  0
   39.9807   73.4106   61.6987 H   0  0  0  0  0  0  0  0  0  0  0  0
   40.6695   72.4135   60.4196 H   0  0  0  0  0  0  0  0  0  0  0  0
   42.1344   74.3771   60.8512 H   0  0  0  0  0  0  0  0  0  0  0  0
   41.3947   74.5311   59.2207 H   0  0  0  0  0  0  0  0  0  0  0  0
   41.3201   81.1747   59.4868 H   0  0  0  0  0  0  0  0  0  0  0  0
   38.5084   84.3736   60.4457 H   0  0  0  0  0  0  0  0  0  0  0  0
   38.4611   86.1383   58.8114 H   0  0  0  0  0  0  0  0  0  0  0  0
   40.4274   86.6341   57.4188 H   0  0  0  0  0  0  0  0  0  0  0  0
   42.5003   85.2718   57.7140 H   0  0  0  0  0  0  0  0  0  0  0  0
   42.5019   83.4841   59.3856 H   0  0  0  0  0  0  0  0  0  0  0  0
  1  2  2  0
  1  6  1  0
  2  3  1  0
  3 13  1  0
  3  4  2  0
  5  4  1  0
  6  5  2  0
  7  8  1  0
  7  1  1  0
  9  8  2  0
 10  9  1  0
 10 11  1  0
 12 11  1  0
 12  7  1  0
 13 17  2  0
 14 15  2  0
 14 13  1  0
 15 16  1  0
 16 17  1  0
 16 24  1  0
 18 15  1  0
 19 18  2  0
 20 19  1  0
 21 22  1  0
 21 20  2  0
 22 23  2  0
 23 18  1  0
 24 25  1  0
 26 24  1  0
 27 24  1  0
  2 28  1  0
  5 29  1  0
  8 30  1  0
  9 31  1  0
 10 32  1  0
 10 33  1  0
 11 34  1  0
 11 35  1  0
 12 36  1  0
 12 37  1  0
 14 38  1  0
 19 39  1  0
 20 40  1  0
 21 41  1  0
 22 42  1  0
 23 43  1  0
M  END
>  <Score>  (1) 
-7.12186

$$$$
