
     RDKit          3D

 50 54  0  0  0  0  0  0  0  0999 V2000
   40.8690   81.6280   56.2900 C   0  0  0  0  0  0  0  0  0  0  0  0
   40.6670   81.4120   57.6470 C   0  0  0  0  0  0  0  0  0  0  0  0
   39.6310   80.5710   58.0160 C   0  0  0  0  0  0  0  0  0  0  0  0
   38.8800   80.0110   57.0130 N   0  0  0  0  0  0  0  0  0  0  0  0
   39.1020   80.2400   55.7340 C   0  0  0  0  0  0  0  0  0  0  0  0
   40.1190   81.0670   55.3520 N   0  0  0  0  0  0  0  0  0  0  0  0
   41.4850   82.0220   58.7040 C   0  0  0  0  0  0  0  0  0  0  0  0
   42.8100   82.1150   58.9480 N   0  0  0  0  0  0  0  0  0  0  0  0
   42.9800   82.7900   60.0660 O   0  0  0  0  0  0  0  0  0  0  0  0
   41.8520   83.1500   60.5760 C   0  0  0  0  0  0  0  0  0  0  0  0
   40.9200   82.6750   59.7340 N   0  0  0  0  0  0  0  0  0  0  0  0
   41.6130   83.8800   61.7550 N   0  0  0  0  0  0  0  0  0  0  0  0
   42.6820   84.6270   62.3890 C   0  0  0  0  0  0  0  0  0  0  0  0
   42.6540   84.3610   63.8830 C   0  0  0  0  0  0  0  0  0  0  0  0
   41.3240   84.4130   64.4510 N   0  0  0  0  0  0  0  0  0  0  0  0
   40.4530   83.4440   63.8110 C   0  0  0  0  0  0  0  0  0  0  0  0
   40.2850   83.9000   62.3650 C   0  0  0  0  0  0  0  0  0  0  0  0
   38.2750   79.6220   54.7070 C   0  0  0  0  0  0  0  0  0  0  0  0
   37.6240   78.4340   54.9210 C   0  0  0  0  0  0  0  0  0  0  0  0
   36.8490   77.8890   53.9070 C   0  0  0  0  0  0  0  0  0  0  0  0
   36.7700   78.5560   52.7500 N   0  0  0  0  0  0  0  0  0  0  0  0
   37.3990   79.7270   52.5100 C   0  0  0  0  0  0  0  0  0  0  0  0
   38.1440   80.2270   53.5210 N   0  0  0  0  0  0  0  0  0  0  0  0
   37.3300   80.4510   51.2920 N   0  0  0  0  0  0  0  0  0  0  0  0
   36.2010   80.3810   50.5280 C   0  0  0  0  0  0  0  0  0  0  0  0
   36.1200   81.0910   49.3250 C   0  0  0  0  0  0  0  0  0  0  0  0
   34.9080   81.0320   48.4790 C   0  0  0  0  0  0  0  0  0  0  0  0
   37.2150   81.8330   48.9810 C   0  0  0  0  0  0  0  0  0  0  0  0
   37.1420   82.4650   47.9100 O   0  0  0  0  0  0  0  0  0  0  0  0
   38.3470   81.9280   49.7090 N   0  0  0  0  0  0  0  0  0  0  0  0
   38.3500   81.2120   50.8610 C   0  0  0  0  0  0  0  0  0  0  0  0
   39.3760   81.2600   51.5810 O   0  0  0  0  0  0  0  0  0  0  0  0
   41.6876   82.2941   55.9799 H   0  0  0  0  0  0  0  0  0  0  0  0
   39.4176   80.3594   59.0742 H   0  0  0  0  0  0  0  0  0  0  0  0
   43.6501   84.3076   61.9759 H   0  0  0  0  0  0  0  0  0  0  0  0
   42.5455   85.7022   62.2009 H   0  0  0  0  0  0  0  0  0  0  0  0
   43.0729   83.3607   64.0670 H   0  0  0  0  0  0  0  0  0  0  0  0
   43.2444   85.1540   64.3652 H   0  0  0  0  0  0  0  0  0  0  0  0
   41.3784   84.2049   65.4583 H   0  0  0  0  0  0  0  0  0  0  0  0
   40.9092   82.4436   63.8433 H   0  0  0  0  0  0  0  0  0  0  0  0
   39.4818   83.3828   64.3239 H   0  0  0  0  0  0  0  0  0  0  0  0
   39.8708   84.9186   62.3356 H   0  0  0  0  0  0  0  0  0  0  0  0
   39.5931   83.2392   61.8223 H   0  0  0  0  0  0  0  0  0  0  0  0
   37.7154   77.9176   55.8880 H   0  0  0  0  0  0  0  0  0  0  0  0
   36.3159   76.9375   54.0502 H   0  0  0  0  0  0  0  0  0  0  0  0
   35.3523   79.7645   50.8591 H   0  0  0  0  0  0  0  0  0  0  0  0
   34.0151   80.9885   49.1200 H   0  0  0  0  0  0  0  0  0  0  0  0
   34.8601   81.9289   47.8439 H   0  0  0  0  0  0  0  0  0  0  0  0
   34.9475   80.1347   47.8439 H   0  0  0  0  0  0  0  0  0  0  0  0
   39.1493   82.5016   49.4120 H   0  0  0  0  0  0  0  0  0  0  0  0
  1  2  2  0
  2  3  1  0
  2  7  1  0
  4  3  2  0
  5  4  1  0
  6  5  2  0
  6  1  1  0
  7  8  2  0
  7 11  1  0
  8  9  1  0
  9 10  1  0
 10 12  1  0
 11 10  2  0
 12 17  1  0
 12 13  1  0
 13 14  1  0
 14 15  1  0
 16 15  1  0
 17 16  1  0
 18 19  2  0
 18  5  1  0
 20 19  1  0
 21 20  2  0
 22 21  1  0
 22 23  2  0
 23 18  1  0
 24 22  1  0
 25 24  1  0
 26 25  2  0
 27 26  1  0
 28 26  1  0
 28 30  1  0
 29 28  2  0
 30 31  1  0
 31 24  1  0
 31 32  2  0
  1 33  1  0
  3 34  1  0
 13 35  1  0
 13 36  1  0
 14 37  1  0
 14 38  1  0
 15 39  1  0
 16 40  1  0
 16 41  1  0
 17 42  1  0
 17 43  1  0
 19 44  1  0
 20 45  1  0
 25 46  1  0
 27 47  1  0
 27 48  1  0
 27 49  1  0
 30 50  1  0
M  END
>  <Score>  (1) 
-8.03461

$$$$
