
     RDKit          3D

 41 44  0  0  0  0  0  0  0  0999 V2000
   41.7390   81.1090   60.9420 C   0  0  0  0  0  0  0  0  0  0  0  0
   41.6330   81.9670   59.8260 C   0  0  0  0  0  0  0  0  0  0  0  0
   41.0860   83.2560   60.1090 C   0  0  0  0  0  0  0  0  0  0  0  0
   40.7160   83.5650   61.3420 N   0  0  0  0  0  0  0  0  0  0  0  0
   40.8290   82.7050   62.3850 C   0  0  0  0  0  0  0  0  0  0  0  0
   41.3400   81.4890   62.1690 N   0  0  0  0  0  0  0  0  0  0  0  0
   40.4090   83.0790   63.7000 N   0  0  0  0  0  0  0  0  0  0  0  0
   40.9790   84.2240   64.3160 C   0  0  0  0  0  0  0  0  0  0  0  0
   42.1850   84.5510   64.0170 N   0  0  0  0  0  0  0  0  0  0  0  0
   40.1960   84.9660   65.2470 N   0  0  0  0  0  0  0  0  0  0  0  0
   42.6000   85.3790   64.4900 H   0  0  0  0  0  0  0  0  0  0  0  0
   41.9650   81.6920   58.4710 C   0  0  0  0  0  0  0  0  0  0  0  0
   43.2810   81.9070   58.1820 C   0  0  0  0  0  0  0  0  0  0  0  0
   43.8550   81.6160   56.9770 C   0  0  0  0  0  0  0  0  0  0  0  0
   43.0940   81.0800   55.9980 C   0  0  0  0  0  0  0  0  0  0  0  0
   41.7360   80.8430   56.2510 C   0  0  0  0  0  0  0  0  0  0  0  0
   40.8620   80.3140   55.2960 C   0  0  0  0  0  0  0  0  0  0  0  0
   39.5360   80.1370   55.6090 C   0  0  0  0  0  0  0  0  0  0  0  0
   39.0290   80.4650   56.8310 C   0  0  0  0  0  0  0  0  0  0  0  0
   39.9060   80.9850   57.7590 C   0  0  0  0  0  0  0  0  0  0  0  0
   41.2170   81.1590   57.4690 C   0  0  0  0  0  0  0  0  0  0  0  0
   40.7030   84.3900   59.2930 C   0  0  0  0  0  0  0  0  0  0  0  0
   39.3860   84.8820   59.3980 C   0  0  0  0  0  0  0  0  0  0  0  0
   39.1360   85.9880   58.6100 C   0  0  0  0  0  0  0  0  0  0  0  0
   40.0260   86.5850   57.7980 N   0  0  0  0  0  0  0  0  0  0  0  0
   41.2810   86.0710   57.7360 C   0  0  0  0  0  0  0  0  0  0  0  0
   41.5830   84.9970   58.4780 N   0  0  0  0  0  0  0  0  0  0  0  0
   42.1595   80.1019   60.8043 H   0  0  0  0  0  0  0  0  0  0  0  0
   39.6987   82.5221   64.1961 H   0  0  0  0  0  0  0  0  0  0  0  0
   40.5923   85.7996   65.7041 H   0  0  0  0  0  0  0  0  0  0  0  0
   39.2337   84.6687   65.4629 H   0  0  0  0  0  0  0  0  0  0  0  0
   43.9182   82.3408   58.9667 H   0  0  0  0  0  0  0  0  0  0  0  0
   44.9232   81.8156   56.8061 H   0  0  0  0  0  0  0  0  0  0  0  0
   43.5324   80.8339   55.0196 H   0  0  0  0  0  0  0  0  0  0  0  0
   41.2348   80.0406   54.2979 H   0  0  0  0  0  0  0  0  0  0  0  0
   38.8614   79.7168   54.8485 H   0  0  0  0  0  0  0  0  0  0  0  0
   37.9643   80.3208   57.0669 H   0  0  0  0  0  0  0  0  0  0  0  0
   39.5330   81.2642   58.7554 H   0  0  0  0  0  0  0  0  0  0  0  0
   38.6258   84.4258   60.0492 H   0  0  0  0  0  0  0  0  0  0  0  0
   38.1237   86.4166   58.6499 H   0  0  0  0  0  0  0  0  0  0  0  0
   42.0398   86.5301   57.0853 H   0  0  0  0  0  0  0  0  0  0  0  0
  1  6  2  0
  2  3  2  0
  2  1  1  0
  3  4  1  0
  4  5  2  0
  5  7  1  0
  6  5  1  0
  7  8  1  0
  8 10  1  0
  9  8  2  0
  9 11  1  0
 12  2  1  0
 13 12  2  0
 14 13  1  0
 15 16  1  0
 15 14  2  0
 16 21  2  0
 17 18  2  0
 17 16  1  0
 18 19  1  0
 19 20  2  0
 21 20  1  0
 21 12  1  0
 22 23  2  0
 22  3  1  0
 24 23  1  0
 25 24  2  0
 26 25  1  0
 26 27  2  0
 27 22  1  0
  1 28  1  0
  7 29  1  0
 10 30  1  0
 10 31  1  0
 13 32  1  0
 14 33  1  0
 15 34  1  0
 17 35  1  0
 18 36  1  0
 19 37  1  0
 20 38  1  0
 23 39  1  0
 24 40  1  0
 26 41  1  0
M  END
>  <Score>  (1) 
-7.17016

$$$$
