
     RDKit          3D

 46 51  0  0  0  0  0  0  0  0999 V2000
   41.5410   85.8620   57.4070 C   0  0  0  0  0  0  0  0  0  0  0  0
   41.5390   84.6630   56.6430 C   0  0  0  0  0  0  0  0  0  0  0  0
   41.8960   83.4770   57.2750 C   0  0  0  0  0  0  0  0  0  0  0  0
   42.2190   83.5550   58.5790 N   0  0  0  0  0  0  0  0  0  0  0  0
   42.2240   84.6720   59.3020 C   0  0  0  0  0  0  0  0  0  0  0  0
   41.8830   85.8360   58.7120 N   0  0  0  0  0  0  0  0  0  0  0  0
   42.5790   84.7120   60.7110 C   0  0  0  0  0  0  0  0  0  0  0  0
   43.7440   85.1260   61.2950 C   0  0  0  0  0  0  0  0  0  0  0  0
   43.6940   85.0130   62.6350 N   0  0  0  0  0  0  0  0  0  0  0  0
   42.4630   84.5130   62.9060 C   0  0  0  0  0  0  0  0  0  0  0  0
   41.8600   84.1900   64.1360 C   0  0  0  0  0  0  0  0  0  0  0  0
   40.5510   83.6810   64.0850 C   0  0  0  0  0  0  0  0  0  0  0  0
   39.8550   83.4900   62.9380 C   0  0  0  0  0  0  0  0  0  0  0  0
   40.4810   83.8190   61.7480 C   0  0  0  0  0  0  0  0  0  0  0  0
   41.7600   84.3190   61.7530 C   0  0  0  0  0  0  0  0  0  0  0  0
   41.9180   82.1930   56.5390 C   0  0  0  0  0  0  0  0  0  0  0  0
   43.0390   81.3590   56.6710 C   0  0  0  0  0  0  0  0  0  0  0  0
   42.6100   79.9380   55.5890 S   0  0  0  0  0  0  0  0  0  0  0  0
   40.9420   80.7620   55.1490 C   0  0  0  0  0  0  0  0  0  0  0  0
   41.0160   81.7000   55.7450 N   0  0  0  0  0  0  0  0  0  0  0  0
   40.0460   79.9810   54.2010 C   0  0  0  0  0  0  0  0  0  0  0  0
   39.6810   80.5120   53.1320 O   0  0  0  0  0  0  0  0  0  0  0  0
   39.5450   78.6570   54.3730 C   0  0  0  0  0  0  0  0  0  0  0  0
   40.1250   77.6880   53.6000 N   0  0  0  0  0  0  0  0  0  0  0  0
   39.7390   76.3900   53.6590 C   0  0  0  0  0  0  0  0  0  0  0  0
   38.7480   75.9490   54.4860 N   0  0  0  0  0  0  0  0  0  0  0  0
   38.1320   76.8550   55.2750 C   0  0  0  0  0  0  0  0  0  0  0  0
   37.1020   76.5110   56.1210 C   0  0  0  0  0  0  0  0  0  0  0  0
   36.4310   77.4430   56.9220 C   0  0  0  0  0  0  0  0  0  0  0  0
   36.8760   78.7590   56.8080 C   0  0  0  0  0  0  0  0  0  0  0  0
   37.9040   79.0720   55.9570 C   0  0  0  0  0  0  0  0  0  0  0  0
   38.5540   78.1570   55.1830 C   0  0  0  0  0  0  0  0  0  0  0  0
   41.2627   86.8145   56.9324 H   0  0  0  0  0  0  0  0  0  0  0  0
   41.2620   84.6733   55.5785 H   0  0  0  0  0  0  0  0  0  0  0  0
   44.6141   85.5045   60.7385 H   0  0  0  0  0  0  0  0  0  0  0  0
   44.4330   85.2547   63.3106 H   0  0  0  0  0  0  0  0  0  0  0  0
   42.3877   84.3292   65.0911 H   0  0  0  0  0  0  0  0  0  0  0  0
   40.0610   83.4215   65.0350 H   0  0  0  0  0  0  0  0  0  0  0  0
   38.8310   83.0886   62.9521 H   0  0  0  0  0  0  0  0  0  0  0  0
   39.9515   83.6793   60.7940 H   0  0  0  0  0  0  0  0  0  0  0  0
   43.9469   81.5167   57.2718 H   0  0  0  0  0  0  0  0  0  0  0  0
   40.2472   75.6603   53.0115 H   0  0  0  0  0  0  0  0  0  0  0  0
   36.7922   75.4567   56.1699 H   0  0  0  0  0  0  0  0  0  0  0  0
   35.6093   77.1564   57.5948 H   0  0  0  0  0  0  0  0  0  0  0  0
   36.3995   79.5510   57.4044 H   0  0  0  0  0  0  0  0  0  0  0  0
   38.2232   80.1228   55.8949 H   0  0  0  0  0  0  0  0  0  0  0  0
  1  6  2  0
  2  3  2  0
  2  1  1  0
  3  4  1  0
  4  5  2  0
  5  7  1  0
  6  5  1  0
  7  8  2  0
  7 15  1  0
  8  9  1  0
  9 10  1  0
 10 11  2  0
 12 11  1  0
 13 12  2  0
 14 15  2  0
 14 13  1  0
 15 10  1  0
 16 17  2  0
 16  3  1  0
 18 17  1  0
 19 18  1  0
 19 20  2  0
 20 16  1  0
 21 23  1  0
 21 19  1  0
 22 21  2  0
 23 32  2  0
 24 25  2  0
 24 23  1  0
 25 26  1  0
 26 27  2  0
 27 28  1  0
 28 29  2  0
 30 29  1  0
 31 30  2  0
 32 27  1  0
 32 31  1  0
  1 33  1  0
  2 34  1  0
  8 35  1  0
  9 36  1  0
 11 37  1  0
 12 38  1  0
 13 39  1  0
 14 40  1  0
 17 41  1  0
 25 42  1  0
 28 43  1  0
 29 44  1  0
 30 45  1  0
 31 46  1  0
M  END
>  <Score>  (1) 
-7.34487

$$$$
