
     RDKit          3D

 44 48  0  0  0  0  0  0  0  0999 V2000
   40.8620   82.0570   61.2460 C   0  0  0  0  0  0  0  0  0  0  0  0
   40.6440   82.7490   60.0680 C   0  0  0  0  0  0  0  0  0  0  0  0
   40.3020   82.1430   58.8740 C   0  0  0  0  0  0  0  0  0  0  0  0
   40.1670   80.7800   58.8320 C   0  0  0  0  0  0  0  0  0  0  0  0
   40.3670   80.0260   59.9580 C   0  0  0  0  0  0  0  0  0  0  0  0
   40.2330   78.6670   59.9260 C   0  0  0  0  0  0  0  0  0  0  0  0
   40.4290   77.8660   61.0540 C   0  0  0  0  0  0  0  0  0  0  0  0
   40.7680   78.5430   62.2100 C   0  0  0  0  0  0  0  0  0  0  0  0
   40.8930   79.9090   62.2010 C   0  0  0  0  0  0  0  0  0  0  0  0
   40.7030   80.6920   61.1060 C   0  0  0  0  0  0  0  0  0  0  0  0
   39.8620   77.9310   58.6840 C   0  0  0  0  0  0  0  0  0  0  0  0
   40.2640   76.8190   58.0760 N   0  0  0  0  0  0  0  0  0  0  0  0
   39.6200   76.5710   56.9830 O   0  0  0  0  0  0  0  0  0  0  0  0
   38.7600   77.5100   56.8130 C   0  0  0  0  0  0  0  0  0  0  0  0
   38.8880   78.3530   57.8370 N   0  0  0  0  0  0  0  0  0  0  0  0
   37.7520   77.8540   55.8470 N   0  0  0  0  0  0  0  0  0  0  0  0
   37.4570   79.1780   55.2800 C   0  0  0  0  0  0  0  0  0  0  0  0
   37.0480   79.0110   53.8290 C   0  0  0  0  0  0  0  0  0  0  0  0
   37.7370   77.8710   53.3530 O   0  0  0  0  0  0  0  0  0  0  0  0
   36.9390   76.7890   53.7920 C   0  0  0  0  0  0  0  0  0  0  0  0
   36.8400   76.8360   55.3030 C   0  0  0  0  0  0  0  0  0  0  0  0
   42.5660   84.0010   64.0480 C   0  0  0  0  0  0  0  0  0  0  0  0
   42.4310   83.2750   62.8670 C   0  0  0  0  0  0  0  0  0  0  0  0
   41.2070   82.8040   62.4140 C   0  0  0  0  0  0  0  0  0  0  0  0
   40.1680   83.1310   63.2490 N   0  0  0  0  0  0  0  0  0  0  0  0
   40.2870   83.8270   64.3840 C   0  0  0  0  0  0  0  0  0  0  0  0
   41.4910   84.2550   64.7690 N   0  0  0  0  0  0  0  0  0  0  0  0
   40.7489   83.8439   60.0826 H   0  0  0  0  0  0  0  0  0  0  0  0
   40.1402   82.7470   57.9690 H   0  0  0  0  0  0  0  0  0  0  0  0
   39.8959   80.2874   57.8866 H   0  0  0  0  0  0  0  0  0  0  0  0
   40.3209   76.7717   61.0239 H   0  0  0  0  0  0  0  0  0  0  0  0
   40.9384   77.9839   63.1418 H   0  0  0  0  0  0  0  0  0  0  0  0
   41.1656   80.4048   63.1443 H   0  0  0  0  0  0  0  0  0  0  0  0
   36.6365   79.6465   55.8433 H   0  0  0  0  0  0  0  0  0  0  0  0
   38.3492   79.8182   55.3444 H   0  0  0  0  0  0  0  0  0  0  0  0
   35.9612   78.8583   53.7544 H   0  0  0  0  0  0  0  0  0  0  0  0
   37.2957   79.9048   53.2375 H   0  0  0  0  0  0  0  0  0  0  0  0
   35.9336   76.8694   53.3531 H   0  0  0  0  0  0  0  0  0  0  0  0
   37.3932   75.8380   53.4769 H   0  0  0  0  0  0  0  0  0  0  0  0
   35.8076   77.0839   55.5907 H   0  0  0  0  0  0  0  0  0  0  0  0
   37.1208   75.8530   55.7090 H   0  0  0  0  0  0  0  0  0  0  0  0
   43.5542   84.3572   64.3745 H   0  0  0  0  0  0  0  0  0  0  0  0
   43.3308   83.0667   62.2695 H   0  0  0  0  0  0  0  0  0  0  0  0
   39.3994   84.0453   64.9960 H   0  0  0  0  0  0  0  0  0  0  0  0
  1 24  1  0
  2  1  2  0
  3  2  1  0
  4  3  2  0
  4  5  1  0
  5 10  2  0
  6  5  1  0
  6  7  2  0
  7  8  1  0
  9  8  2  0
 10  1  1  0
 10  9  1  0
 11  6  1  0
 12 11  2  0
 13 12  1  0
 14 13  1  0
 14 15  2  0
 15 11  1  0
 16 14  1  0
 17 16  1  0
 18 17  1  0
 19 20  1  0
 19 18  1  0
 20 21  1  0
 21 16  1  0
 22 27  2  0
 23 22  1  0
 24 23  2  0
 24 25  1  0
 25 26  2  0
 26 27  1  0
  2 28  1  0
  3 29  1  0
  4 30  1  0
  7 31  1  0
  8 32  1  0
  9 33  1  0
 17 34  1  0
 17 35  1  0
 18 36  1  0
 18 37  1  0
 20 38  1  0
 20 39  1  0
 21 40  1  0
 21 41  1  0
 22 42  1  0
 23 43  1  0
 26 44  1  0
M  END
>  <Score>  (1) 
-7.56487

$$$$
