
     RDKit          3D

 50 54  0  0  1  0  0  0  0  0999 V2000
   42.0810   83.1480   58.2410 N   0  0  0  0  0  0  0  0  0  0  0  0
   42.7880   82.8320   59.3520 C   0  0  0  0  0  0  0  0  0  0  0  0
   43.4870   83.7900   60.0180 C   0  0  0  0  0  0  0  0  0  0  0  0
   43.4780   85.1030   59.5600 C   0  0  0  0  0  0  0  0  0  0  0  0
   44.2180   86.0640   60.2850 N   0  0  0  0  0  0  0  0  0  0  0  0
   42.7640   85.4290   58.4370 N   0  0  0  0  0  0  0  0  0  0  0  0
   42.0850   84.4360   57.8100 C   0  0  0  0  0  0  0  0  0  0  0  0
   41.4910   84.8900   56.8110 O   0  0  0  0  0  0  0  0  0  0  0  0
   44.1980   83.3500   61.1810 N   0  0  0  0  0  0  0  0  0  0  0  0
   45.2980   82.4020   61.0730 C   0  0  0  0  0  0  0  0  0  0  0  0
   45.8160   82.1980   62.4490 C   0  0  0  0  0  0  0  0  0  0  0  0
   44.6870   82.6410   63.3340 C   0  0  0  0  0  0  0  0  0  0  0  0
   43.9680   83.7400   62.5470 C   0  0  2  0  0  0  0  0  0  0  0  0
   42.5140   83.6600   62.9440 C   0  0  0  0  0  0  0  0  0  0  0  0
   42.2970   83.8320   64.2830 F   0  0  0  0  0  0  0  0  0  0  0  0
   42.0640   82.4310   62.5410 F   0  0  0  0  0  0  0  0  0  0  0  0
   41.8550   84.6180   62.1800 F   0  0  0  0  0  0  0  0  0  0  0  0
   40.0410   81.7990   57.7470 C   0  0  0  0  0  0  0  0  0  0  0  0
   41.2970   82.3500   57.4020 C   0  0  0  0  0  0  0  0  0  0  0  0
   41.7970   82.0880   56.1400 C   0  0  0  0  0  0  0  0  0  0  0  0
   41.0340   81.3150   55.3240 N   0  0  0  0  0  0  0  0  0  0  0  0
   39.8670   80.8050   55.6460 C   0  0  0  0  0  0  0  0  0  0  0  0
   39.3630   81.0400   56.8520 N   0  0  0  0  0  0  0  0  0  0  0  0
   38.9370   79.9610   54.8770 C   0  0  0  0  0  0  0  0  0  0  0  0
   38.6880   80.1010   53.5520 N   0  0  0  0  0  0  0  0  0  0  0  0
   37.8440   79.3350   52.8590 C   0  0  0  0  0  0  0  0  0  0  0  0
   37.1520   78.3380   53.4220 N   0  0  0  0  0  0  0  0  0  0  0  0
   37.3330   78.1240   54.7340 C   0  0  0  0  0  0  0  0  0  0  0  0
   36.6200   77.0960   55.3140 C   0  0  0  0  0  0  0  0  0  0  0  0
   36.7620   76.8250   56.6560 C   0  0  0  0  0  0  0  0  0  0  0  0
   37.6400   77.6090   57.4150 C   0  0  0  0  0  0  0  0  0  0  0  0
   38.3110   78.6140   56.7520 C   0  0  0  0  0  0  0  0  0  0  0  0
   38.2080   78.9280   55.4210 C   0  0  0  0  0  0  0  0  0  0  0  0
   42.7970   81.7947   59.7179 H   0  0  0  0  0  0  0  0  0  0  0  0
   44.2326   87.0455   59.9729 H   0  0  0  0  0  0  0  0  0  0  0  0
   44.7428   85.7830   61.1255 H   0  0  0  0  0  0  0  0  0  0  0  0
   44.9388   81.4491   60.6571 H   0  0  0  0  0  0  0  0  0  0  0  0
   46.0849   82.7806   60.4041 H   0  0  0  0  0  0  0  0  0  0  0  0
   46.0561   81.1387   62.6229 H   0  0  0  0  0  0  0  0  0  0  0  0
   46.7448   82.7562   62.6378 H   0  0  0  0  0  0  0  0  0  0  0  0
   44.0045   81.8027   63.5374 H   0  0  0  0  0  0  0  0  0  0  0  0
   45.0460   83.0013   64.3093 H   0  0  0  0  0  0  0  0  0  0  0  0
   44.2996   84.7748   62.7180 H   0  0  0  0  0  0  0  0  0  0  0  0
   39.6138   81.9867   58.7431 H   0  0  0  0  0  0  0  0  0  0  0  0
   42.7680   82.4871   55.8117 H   0  0  0  0  0  0  0  0  0  0  0  0
   37.7121   79.5304   51.7846 H   0  0  0  0  0  0  0  0  0  0  0  0
   35.9353   76.4904   54.7020 H   0  0  0  0  0  0  0  0  0  0  0  0
   36.1956   76.0066   57.1244 H   0  0  0  0  0  0  0  0  0  0  0  0
   37.7873   77.4309   58.4905 H   0  0  0  0  0  0  0  0  0  0  0  0
   38.9997   79.2270   57.3520 H   0  0  0  0  0  0  0  0  0  0  0  0
  1  2  1  0
  2  3  2  0
  3  9  1  0
  4  3  1  0
  4  5  1  0
  6  4  2  0
  7  1  1  0
  7  6  1  0
  8  7  2  0
  9 13  1  0
 10  9  1  0
 10 11  1  0
 11 12  1  0
 13 14  1  0
 13 12  1  0
 14 15  1  0
 16 14  1  0
 17 14  1  0
 19 18  2  0
 19  1  1  0
 20 19  1  0
 21 22  1  0
 21 20  2  0
 22 23  2  0
 23 18  1  0
 24 33  1  0
 24 22  1  0
 25 24  2  0
 26 27  2  0
 26 25  1  0
 27 28  1  0
 28 29  1  0
 28 33  2  0
 29 30  2  0
 30 31  1  0
 32 31  2  0
 33 32  1  0
  2 34  1  0
  5 35  1  0
  5 36  1  0
 10 37  1  0
 10 38  1  0
 11 39  1  0
 11 40  1  0
 12 41  1  0
 12 42  1  0
 13 43  1  6
 18 44  1  0
 20 45  1  0
 26 46  1  0
 29 47  1  0
 30 48  1  0
 31 49  1  0
 32 50  1  0
M  END
>  <Score>  (1) 
-7.02496

$$$$
