
     RDKit          3D

 54 59  0  0  1  0  0  0  0  0999 V2000
   40.4480   80.3830   61.2940 N   0  0  0  0  0  0  0  0  0  0  0  0
   41.1060   79.9920   62.4050 C   0  0  0  0  0  0  0  0  0  0  0  0
   41.3970   78.6500   62.3190 N   0  0  0  0  0  0  0  0  0  0  0  0
   40.9270   78.1950   61.1560 C   0  0  0  0  0  0  0  0  0  0  0  0
   40.9790   77.0170   60.4420 C   0  0  2  0  0  0  0  0  0  0  0  0
   40.1240   76.8390   59.3960 N   0  0  0  0  0  0  0  0  0  0  0  0
   39.5780   77.8850   58.7800 C   0  0  0  0  0  0  0  0  0  0  0  0
   39.6910   79.0830   59.3660 N   0  0  0  0  0  0  0  0  0  0  0  0
   40.3400   79.2790   60.5390 C   0  0  0  0  0  0  0  0  0  0  0  0
   38.9220   77.6880   57.5280 N   0  0  0  0  0  0  0  0  0  0  0  0
   38.0410   76.5560   57.4030 C   0  0  0  0  0  0  0  0  0  0  0  0
   36.6720   77.1420   57.1310 C   0  0  0  0  0  0  0  0  0  0  0  0
   36.7430   77.7890   55.7760 C   0  0  0  0  0  0  0  0  0  0  0  0
   37.8100   78.8270   55.6470 C   0  0  0  0  0  0  0  0  0  0  0  0
   39.0800   78.5360   56.3890 C   0  0  0  0  0  0  0  0  0  0  0  0
   41.2990   75.8550   61.2330 N   0  0  0  0  0  0  0  0  0  0  0  0
   42.4000   75.0100   60.9190 C   0  0  0  0  0  0  0  0  0  0  0  0
   43.5700   75.5970   60.6120 N   0  0  0  0  0  0  0  0  0  0  0  0
   44.6760   74.9300   60.3010 C   0  0  0  0  0  0  0  0  0  0  0  0
   44.6110   73.6080   60.2970 N   0  0  0  0  0  0  0  0  0  0  0  0
   43.4990   72.9090   60.5860 C   0  0  0  0  0  0  0  0  0  0  0  0
   43.4730   71.5140   60.5700 C   0  0  0  0  0  0  0  0  0  0  0  0
   42.2480   70.9180   60.8920 C   0  0  0  0  0  0  0  0  0  0  0  0
   41.1250   71.6530   61.2080 C   0  0  0  0  0  0  0  0  0  0  0  0
   41.1670   73.0320   61.2200 C   0  0  0  0  0  0  0  0  0  0  0  0
   42.3640   73.6400   60.9060 C   0  0  0  0  0  0  0  0  0  0  0  0
   40.0180   81.7100   61.0480 C   0  0  0  0  0  0  0  0  0  0  0  0
   40.2520   82.4320   59.8560 C   0  0  0  0  0  0  0  0  0  0  0  0
   39.7760   83.7290   59.7620 C   0  0  0  0  0  0  0  0  0  0  0  0
   39.0980   84.2490   60.8380 N   0  0  0  0  0  0  0  0  0  0  0  0
   38.8990   83.5210   61.9560 C   0  0  0  0  0  0  0  0  0  0  0  0
   39.3570   82.2630   62.0580 N   0  0  0  0  0  0  0  0  0  0  0  0
   41.3693   80.6456   63.2497 H   0  0  0  0  0  0  0  0  0  0  0  0
   41.8803   77.1839   59.8339 H   0  0  0  0  0  0  0  0  0  0  0  0
   39.2630   79.8968   58.9019 H   0  0  0  0  0  0  0  0  0  0  0  0
   38.3570   75.9123   56.5689 H   0  0  0  0  0  0  0  0  0  0  0  0
   38.0465   75.9307   58.3080 H   0  0  0  0  0  0  0  0  0  0  0  0
   35.9118   76.3470   57.1326 H   0  0  0  0  0  0  0  0  0  0  0  0
   36.3922   77.8720   57.9049 H   0  0  0  0  0  0  0  0  0  0  0  0
   36.9331   77.0044   55.0288 H   0  0  0  0  0  0  0  0  0  0  0  0
   35.7827   78.3025   55.6207 H   0  0  0  0  0  0  0  0  0  0  0  0
   38.0560   78.9307   54.5799 H   0  0  0  0  0  0  0  0  0  0  0  0
   37.3988   79.7433   56.0955 H   0  0  0  0  0  0  0  0  0  0  0  0
   39.7800   78.0498   55.6936 H   0  0  0  0  0  0  0  0  0  0  0  0
   39.4484   79.5010   56.7673 H   0  0  0  0  0  0  0  0  0  0  0  0
   40.7132   75.6297   62.0497 H   0  0  0  0  0  0  0  0  0  0  0  0
   45.6103   75.4564   60.0561 H   0  0  0  0  0  0  0  0  0  0  0  0
   44.3627   70.9177   60.3191 H   0  0  0  0  0  0  0  0  0  0  0  0
   42.1786   69.8202   60.8930 H   0  0  0  0  0  0  0  0  0  0  0  0
   40.1862   71.1347   61.4530 H   0  0  0  0  0  0  0  0  0  0  0  0
   40.2760   73.6261   61.4715 H   0  0  0  0  0  0  0  0  0  0  0  0
   40.8008   81.9733   59.0203 H   0  0  0  0  0  0  0  0  0  0  0  0
   39.9361   84.3259   58.8520 H   0  0  0  0  0  0  0  0  0  0  0  0
   38.3514   83.9662   62.7997 H   0  0  0  0  0  0  0  0  0  0  0  0
  1  2  1  0
  3  2  2  0
  4  3  1  0
  5  4  1  0
  5 16  1  0
  6  5  1  0
  7  8  1  0
  7  6  2  0
  8  9  1  0
  9  4  2  0
  9  1  1  0
 10  7  1  0
 11 10  1  0
 12 11  1  0
 13 12  1  0
 14 13  1  0
 14 15  1  0
 15 10  1  0
 17 16  1  0
 18 17  2  0
 19 18  1  0
 20 19  2  0
 20 21  1  0
 21 26  2  0
 22 21  1  0
 22 23  2  0
 23 24  1  0
 24 25  2  0
 26 17  1  0
 26 25  1  0
 27  1  1  0
 27 32  1  0
 28 27  2  0
 29 28  1  0
 29 30  2  0
 30 31  1  0
 31 32  2  0
  2 33  1  0
  5 34  1  6
  8 35  1  0
 11 36  1  0
 11 37  1  0
 12 38  1  0
 12 39  1  0
 13 40  1  0
 13 41  1  0
 14 42  1  0
 14 43  1  0
 15 44  1  0
 15 45  1  0
 16 46  1  0
 19 47  1  0
 22 48  1  0
 23 49  1  0
 24 50  1  0
 25 51  1  0
 28 52  1  0
 29 53  1  0
 31 54  1  0
M  END
>  <Score>  (1) 
-8.23901

$$$$
