
     RDKit          3D

 46 50  0  0  0  0  0  0  0  0999 V2000
   38.9800   83.5070   61.8120 C   0  0  0  0  0  0  0  0  0  0  0  0
   39.5960   84.4330   60.9570 C   0  0  0  0  0  0  0  0  0  0  0  0
   40.7350   84.0140   60.2510 C   0  0  0  0  0  0  0  0  0  0  0  0
   41.1840   82.7460   60.4260 N   0  0  0  0  0  0  0  0  0  0  0  0
   40.5560   81.8750   61.2670 C   0  0  0  0  0  0  0  0  0  0  0  0
   39.4620   82.2620   61.9510 N   0  0  0  0  0  0  0  0  0  0  0  0
   41.0740   80.5200   61.4250 C   0  0  0  0  0  0  0  0  0  0  0  0
   40.2670   79.4470   61.1520 C   0  0  0  0  0  0  0  0  0  0  0  0
   40.7270   78.1430   61.2900 C   0  0  0  0  0  0  0  0  0  0  0  0
   42.0390   78.0260   61.7170 C   0  0  0  0  0  0  0  0  0  0  0  0
   42.8680   79.1060   61.9960 C   0  0  0  0  0  0  0  0  0  0  0  0
   42.3460   80.3350   61.8370 N   0  0  0  0  0  0  0  0  0  0  0  0
   44.2110   78.9300   62.4320 N   0  0  0  0  0  0  0  0  0  0  0  0
   45.1340   79.8880   62.5560 C   0  0  0  0  0  0  0  0  0  0  0  0
   46.4160   79.6240   62.9880 C   0  0  0  0  0  0  0  0  0  0  0  0
   47.4150   80.6930   63.1170 C   0  0  0  0  0  0  0  0  0  0  0  0
   46.7270   78.3120   63.2950 C   0  0  0  0  0  0  0  0  0  0  0  0
   47.9030   78.0750   63.6900 O   0  0  0  0  0  0  0  0  0  0  0  0
   45.8350   77.3180   63.1860 N   0  0  0  0  0  0  0  0  0  0  0  0
   44.6060   77.6730   62.7560 C   0  0  0  0  0  0  0  0  0  0  0  0
   43.7690   76.7250   62.6560 O   0  0  0  0  0  0  0  0  0  0  0  0
   41.3810   84.9730   59.3600 C   0  0  0  0  0  0  0  0  0  0  0  0
   40.9790   85.3800   58.1290 C   0  0  0  0  0  0  0  0  0  0  0  0
   41.8460   86.2830   57.6160 N   0  0  0  0  0  0  0  0  0  0  0  0
   42.8130   86.4480   58.5430 C   0  0  0  0  0  0  0  0  0  0  0  0
   43.9330   87.2660   58.5000 C   0  0  0  0  0  0  0  0  0  0  0  0
   44.8110   87.2780   59.5870 C   0  0  0  0  0  0  0  0  0  0  0  0
   44.5790   86.4970   60.6840 C   0  0  0  0  0  0  0  0  0  0  0  0
   43.4430   85.6960   60.6740 C   0  0  0  0  0  0  0  0  0  0  0  0
   42.5490   85.6490   59.6310 C   0  0  0  0  0  0  0  0  0  0  0  0
   38.0860   83.8065   62.3786 H   0  0  0  0  0  0  0  0  0  0  0  0
   39.2000   85.4530   60.8435 H   0  0  0  0  0  0  0  0  0  0  0  0
   39.2339   79.6213   60.8168 H   0  0  0  0  0  0  0  0  0  0  0  0
   40.0954   77.2682   61.0758 H   0  0  0  0  0  0  0  0  0  0  0  0
   42.4513   77.0140   61.8434 H   0  0  0  0  0  0  0  0  0  0  0  0
   44.8613   80.9236   62.3046 H   0  0  0  0  0  0  0  0  0  0  0  0
   47.6022   80.8933   64.1823 H   0  0  0  0  0  0  0  0  0  0  0  0
   48.3517   80.3799   62.6327 H   0  0  0  0  0  0  0  0  0  0  0  0
   47.0393   81.6064   62.6327 H   0  0  0  0  0  0  0  0  0  0  0  0
   46.0728   76.3426   63.4163 H   0  0  0  0  0  0  0  0  0  0  0  0
   40.0721   85.0242   57.6183 H   0  0  0  0  0  0  0  0  0  0  0  0
   41.7811   86.7511   56.7008 H   0  0  0  0  0  0  0  0  0  0  0  0
   44.1274   87.8976   57.6206 H   0  0  0  0  0  0  0  0  0  0  0  0
   45.7005   87.9246   59.5592 H   0  0  0  0  0  0  0  0  0  0  0  0
   45.2658   86.5020   61.5432 H   0  0  0  0  0  0  0  0  0  0  0  0
   43.2481   85.0628   61.5521 H   0  0  0  0  0  0  0  0  0  0  0  0
  1  6  2  0
  2  1  1  0
  3  4  1  0
  3  2  2  0
  4  5  2  0
  5  7  1  0
  5  6  1  0
  7 12  2  0
  8  9  2  0
  8  7  1  0
  9 10  1  0
 10 11  2  0
 11 13  1  0
 12 11  1  0
 13 14  1  0
 13 20  1  0
 14 15  2  0
 15 16  1  0
 15 17  1  0
 17 18  2  0
 19 17  1  0
 20 19  1  0
 21 20  2  0
 22 30  1  0
 22  3  1  0
 23 22  2  0
 24 23  1  0
 24 25  1  0
 25 30  2  0
 26 25  1  0
 26 27  2  0
 27 28  1  0
 29 28  2  0
 30 29  1  0
  1 31  1  0
  2 32  1  0
  8 33  1  0
  9 34  1  0
 10 35  1  0
 14 36  1  0
 16 37  1  0
 16 38  1  0
 16 39  1  0
 19 40  1  0
 23 41  1  0
 24 42  1  0
 26 43  1  0
 27 44  1  0
 28 45  1  0
 29 46  1  0
M  END
>  <Score>  (1) 
-7.56351

$$$$
