
     RDKit          3D

 51 55  0  0  0  0  0  0  0  0999 V2000
   40.9270   81.6410   56.3210 C   0  0  0  0  0  0  0  0  0  0  0  0
   40.7040   81.3940   57.6730 C   0  0  0  0  0  0  0  0  0  0  0  0
   39.6440   80.5490   58.0030 C   0  0  0  0  0  0  0  0  0  0  0  0
   38.8970   80.0200   56.9900 N   0  0  0  0  0  0  0  0  0  0  0  0
   39.1440   80.2800   55.7190 C   0  0  0  0  0  0  0  0  0  0  0  0
   40.1750   81.1040   55.3680 N   0  0  0  0  0  0  0  0  0  0  0  0
   41.5070   81.9640   58.7630 C   0  0  0  0  0  0  0  0  0  0  0  0
   42.8190   81.9560   59.0640 N   0  0  0  0  0  0  0  0  0  0  0  0
   42.9820   82.6390   60.1790 O   0  0  0  0  0  0  0  0  0  0  0  0
   41.8710   83.0930   60.6260 C   0  0  0  0  0  0  0  0  0  0  0  0
   40.9220   82.6820   59.7510 N   0  0  0  0  0  0  0  0  0  0  0  0
   41.6230   83.8680   61.7860 N   0  0  0  0  0  0  0  0  0  0  0  0
   42.7200   84.5260   62.4580 C   0  0  0  0  0  0  0  0  0  0  0  0
   42.5950   84.3120   63.9590 C   0  0  0  0  0  0  0  0  0  0  0  0
   41.2260   84.5270   64.4290 N   0  0  0  0  0  0  0  0  0  0  0  0
   40.3290   83.5860   63.7780 C   0  0  0  0  0  0  0  0  0  0  0  0
   40.2650   84.0120   62.3170 C   0  0  0  0  0  0  0  0  0  0  0  0
   38.3190   79.6920   54.6650 C   0  0  0  0  0  0  0  0  0  0  0  0
   37.5900   78.5420   54.8720 C   0  0  0  0  0  0  0  0  0  0  0  0
   36.8250   78.0190   53.8510 C   0  0  0  0  0  0  0  0  0  0  0  0
   36.8250   78.6700   52.6800 N   0  0  0  0  0  0  0  0  0  0  0  0
   37.5300   79.8000   52.4520 C   0  0  0  0  0  0  0  0  0  0  0  0
   38.2700   80.2950   53.4540 N   0  0  0  0  0  0  0  0  0  0  0  0
   37.4850   80.4420   51.1830 N   0  0  0  0  0  0  0  0  0  0  0  0
   38.6710   80.9330   50.5040 C   0  0  0  0  0  0  0  0  0  0  0  0
   38.7100   80.2000   49.1740 C   0  0  0  0  0  0  0  0  0  0  0  0
   37.4900   80.2620   48.4380 N   0  0  0  0  0  0  0  0  0  0  0  0
   36.2980   79.9690   49.1600 C   0  0  0  0  0  0  0  0  0  0  0  0
   36.2070   80.6230   50.5220 C   0  0  0  0  0  0  0  0  0  0  0  0
   41.7555   82.3045   56.0324 H   0  0  0  0  0  0  0  0  0  0  0  0
   39.4158   80.3148   59.0533 H   0  0  0  0  0  0  0  0  0  0  0  0
   43.6726   84.1039   62.1053 H   0  0  0  0  0  0  0  0  0  0  0  0
   42.6929   85.6033   62.2371 H   0  0  0  0  0  0  0  0  0  0  0  0
   42.8950   83.2809   64.1973 H   0  0  0  0  0  0  0  0  0  0  0  0
   43.2467   85.0412   64.4626 H   0  0  0  0  0  0  0  0  0  0  0  0
   41.1883   84.3861   65.4486 H   0  0  0  0  0  0  0  0  0  0  0  0
   40.7227   82.5622   63.8611 H   0  0  0  0  0  0  0  0  0  0  0  0
   39.3324   83.5901   64.2437 H   0  0  0  0  0  0  0  0  0  0  0  0
   39.9349   85.0585   62.2396 H   0  0  0  0  0  0  0  0  0  0  0  0
   39.5482   83.3974   61.7527 H   0  0  0  0  0  0  0  0  0  0  0  0
   37.6180   78.0412   55.8510 H   0  0  0  0  0  0  0  0  0  0  0  0
   36.2362   77.1007   53.9927 H   0  0  0  0  0  0  0  0  0  0  0  0
   38.5998   82.0188   50.3426 H   0  0  0  0  0  0  0  0  0  0  0  0
   39.5820   80.7558   51.0945 H   0  0  0  0  0  0  0  0  0  0  0  0
   39.5072   80.6429   48.5589 H   0  0  0  0  0  0  0  0  0  0  0  0
   38.8887   79.1389   49.4022 H   0  0  0  0  0  0  0  0  0  0  0  0
   37.5586   79.5896   47.6608 H   0  0  0  0  0  0  0  0  0  0  0  0
   35.4413   80.3080   48.5591 H   0  0  0  0  0  0  0  0  0  0  0  0
   36.3002   78.8832   49.3361 H   0  0  0  0  0  0  0  0  0  0  0  0
   35.9920   81.6959   50.4091 H   0  0  0  0  0  0  0  0  0  0  0  0
   35.3986   80.1696   51.1144 H   0  0  0  0  0  0  0  0  0  0  0  0
  1  2  2  0
  2  3  1  0
  2  7  1  0
  4  3  2  0
  5  4  1  0
  6  5  2  0
  6  1  1  0
  7  8  2  0
  7 11  1  0
  8  9  1  0
  9 10  1  0
 10 12  1  0
 11 10  2  0
 12 17  1  0
 12 13  1  0
 13 14  1  0
 14 15  1  0
 16 15  1  0
 17 16  1  0
 18 19  2  0
 18  5  1  0
 20 19  1  0
 21 20  2  0
 22 21  1  0
 22 23  2  0
 23 18  1  0
 24 22  1  0
 25 24  1  0
 26 25  1  0
 27 28  1  0
 27 26  1  0
 28 29  1  0
 29 24  1  0
  1 30  1  0
  3 31  1  0
 13 32  1  0
 13 33  1  0
 14 34  1  0
 14 35  1  0
 15 36  1  0
 16 37  1  0
 16 38  1  0
 17 39  1  0
 17 40  1  0
 19 41  1  0
 20 42  1  0
 25 43  1  0
 25 44  1  0
 26 45  1  0
 26 46  1  0
 27 47  1  0
 28 48  1  0
 28 49  1  0
 29 50  1  0
 29 51  1  0
M  END
>  <Score>  (1) 
-7.14797

$$$$
