
     RDKit          3D

 39 43  0  0  0  0  0  0  0  0999 V2000
   39.9390   76.0900   60.0220 C   0  0  0  0  0  0  0  0  0  0  0  0
   39.0620   75.9840   58.9640 C   0  0  0  0  0  0  0  0  0  0  0  0
   38.8650   74.7490   58.4330 C   0  0  0  0  0  0  0  0  0  0  0  0
   39.5330   73.6800   58.9600 N   0  0  0  0  0  0  0  0  0  0  0  0
   40.3740   73.8620   59.9930 C   0  0  0  0  0  0  0  0  0  0  0  0
   40.6050   75.0630   60.5570 N   0  0  0  0  0  0  0  0  0  0  0  0
   41.0220   72.6860   60.4700 N   0  0  0  0  0  0  0  0  0  0  0  0
   41.2230   72.3020   61.7250 C   0  0  0  0  0  0  0  0  0  0  0  0
   41.8780   71.1220   61.7510 N   0  0  0  0  0  0  0  0  0  0  0  0
   42.0830   70.7720   60.4590 C   0  0  0  0  0  0  0  0  0  0  0  0
   42.6820   69.7030   59.8350 C   0  0  0  0  0  0  0  0  0  0  0  0
   43.1910   68.7710   60.5060 O   0  0  0  0  0  0  0  0  0  0  0  0
   42.7470   69.6080   58.4860 N   0  0  0  0  0  0  0  0  0  0  0  0
   42.2130   70.5830   57.7330 C   0  0  0  0  0  0  0  0  0  0  0  0
   42.2060   70.6200   56.3030 N   0  0  0  0  0  0  0  0  0  0  0  0
   41.6200   71.6430   58.3160 N   0  0  0  0  0  0  0  0  0  0  0  0
   41.5470   71.7520   59.6430 C   0  0  0  0  0  0  0  0  0  0  0  0
   40.4420   79.9890   61.1090 C   0  0  0  0  0  0  0  0  0  0  0  0
   40.6460   79.0970   62.1230 C   0  0  0  0  0  0  0  0  0  0  0  0
   40.5030   77.7750   61.8610 C   0  0  0  0  0  0  0  0  0  0  0  0
   40.1650   77.4070   60.6100 C   0  0  0  0  0  0  0  0  0  0  0  0
   40.0330   79.0270   59.7060 S   0  0  0  0  0  0  0  0  0  0  0  0
   40.5380   81.4640   61.1360 C   0  0  0  0  0  0  0  0  0  0  0  0
   41.5830   82.1510   60.5170 C   0  0  0  0  0  0  0  0  0  0  0  0
   41.5370   83.5490   60.6320 C   0  0  0  0  0  0  0  0  0  0  0  0
   40.5150   84.1310   61.3140 N   0  0  0  0  0  0  0  0  0  0  0  0
   39.5280   83.4110   61.8950 C   0  0  0  0  0  0  0  0  0  0  0  0
   39.5510   82.0730   61.7990 N   0  0  0  0  0  0  0  0  0  0  0  0
   38.5409   76.8665   58.5644 H   0  0  0  0  0  0  0  0  0  0  0  0
   38.1749   74.6112   57.5876 H   0  0  0  0  0  0  0  0  0  0  0  0
   40.9023   72.8640   62.6146 H   0  0  0  0  0  0  0  0  0  0  0  0
   43.2010   68.7969   58.0423 H   0  0  0  0  0  0  0  0  0  0  0  0
   42.6359   69.8535   55.7659 H   0  0  0  0  0  0  0  0  0  0  0  0
   41.7710   71.4132   55.8105 H   0  0  0  0  0  0  0  0  0  0  0  0
   40.9203   79.4440   63.1302 H   0  0  0  0  0  0  0  0  0  0  0  0
   40.6587   77.0229   62.6485 H   0  0  0  0  0  0  0  0  0  0  0  0
   42.3880   81.6322   59.9758 H   0  0  0  0  0  0  0  0  0  0  0  0
   42.3217   84.1690   60.1739 H   0  0  0  0  0  0  0  0  0  0  0  0
   38.7166   83.9163   62.4394 H   0  0  0  0  0  0  0  0  0  0  0  0
  1  6  1  0
  1 21  1  0
  2  1  2  0
  3  4  2  0
  3  2  1  0
  4  5  1  0
  5  7  1  0
  5  6  2  0
  7  8  1  0
  8  9  2  0
 10  9  1  0
 11 10  1  0
 11 12  2  0
 13 11  1  0
 14 16  2  0
 14 13  1  0
 15 14  1  0
 16 17  1  0
 17 10  2  0
 17  7  1  0
 18 23  1  0
 18 19  2  0
 20 19  1  0
 21 20  2  0
 22 21  1  0
 22 18  1  0
 23 28  2  0
 24 25  2  0
 24 23  1  0
 25 26  1  0
 26 27  2  0
 28 27  1  0
  2 29  1  0
  3 30  1  0
  8 31  1  0
 13 32  1  0
 15 33  1  0
 15 34  1  0
 19 35  1  0
 20 36  1  0
 24 37  1  0
 25 38  1  0
 27 39  1  0
M  END
>  <Score>  (1) 
-7.09192

$$$$
