
     RDKit          3D

 48 52  0  0  0  0  0  0  0  0999 V2000
   40.9290   81.6420   56.3250 C   0  0  0  0  0  0  0  0  0  0  0  0
   40.7050   81.4060   57.6750 C   0  0  0  0  0  0  0  0  0  0  0  0
   39.6380   80.5730   57.9950 C   0  0  0  0  0  0  0  0  0  0  0  0
   38.8790   80.0420   56.9800 N   0  0  0  0  0  0  0  0  0  0  0  0
   39.1400   80.3040   55.7050 C   0  0  0  0  0  0  0  0  0  0  0  0
   40.1830   81.1180   55.3660 N   0  0  0  0  0  0  0  0  0  0  0  0
   41.5030   81.9630   58.7590 C   0  0  0  0  0  0  0  0  0  0  0  0
   42.8190   81.9370   59.0760 N   0  0  0  0  0  0  0  0  0  0  0  0
   42.9860   82.6210   60.1880 O   0  0  0  0  0  0  0  0  0  0  0  0
   41.8710   83.0970   60.6270 C   0  0  0  0  0  0  0  0  0  0  0  0
   40.9360   82.6920   59.7420 N   0  0  0  0  0  0  0  0  0  0  0  0
   41.6380   83.8770   61.7790 N   0  0  0  0  0  0  0  0  0  0  0  0
   42.7190   84.5530   62.4450 C   0  0  0  0  0  0  0  0  0  0  0  0
   42.6140   84.3220   63.9480 C   0  0  0  0  0  0  0  0  0  0  0  0
   41.2510   84.5160   64.4310 N   0  0  0  0  0  0  0  0  0  0  0  0
   40.3560   83.5620   63.7820 C   0  0  0  0  0  0  0  0  0  0  0  0
   40.2920   84.0110   62.3180 C   0  0  0  0  0  0  0  0  0  0  0  0
   38.3260   79.7320   54.6440 C   0  0  0  0  0  0  0  0  0  0  0  0
   37.6160   78.5730   54.8220 C   0  0  0  0  0  0  0  0  0  0  0  0
   36.8480   78.0370   53.8190 C   0  0  0  0  0  0  0  0  0  0  0  0
   36.8280   78.7020   52.6590 N   0  0  0  0  0  0  0  0  0  0  0  0
   37.5160   79.8560   52.4340 C   0  0  0  0  0  0  0  0  0  0  0  0
   38.2590   80.3430   53.4610 N   0  0  0  0  0  0  0  0  0  0  0  0
   37.4500   80.5160   51.1740 N   0  0  0  0  0  0  0  0  0  0  0  0
   36.3390   80.3530   50.4350 C   0  0  0  0  0  0  0  0  0  0  0  0
   36.3430   81.0220   49.2180 C   0  0  0  0  0  0  0  0  0  0  0  0
   37.4320   81.8030   48.8150 C   0  0  0  0  0  0  0  0  0  0  0  0
   37.3840   82.4770   47.5410 N   0  0  0  0  0  0  0  0  0  0  0  0
   38.5070   81.9070   49.6260 N   0  0  0  0  0  0  0  0  0  0  0  0
   38.5050   81.2600   50.8020 C   0  0  0  0  0  0  0  0  0  0  0  0
   39.5370   81.4030   51.5050 O   0  0  0  0  0  0  0  0  0  0  0  0
   41.7664   82.2956   56.0393 H   0  0  0  0  0  0  0  0  0  0  0  0
   39.4052   80.3427   59.0451 H   0  0  0  0  0  0  0  0  0  0  0  0
   43.6786   84.1585   62.0796 H   0  0  0  0  0  0  0  0  0  0  0  0
   42.6618   85.6313   62.2350 H   0  0  0  0  0  0  0  0  0  0  0  0
   42.9285   83.2922   64.1730 H   0  0  0  0  0  0  0  0  0  0  0  0
   43.2634   85.0524   64.4529 H   0  0  0  0  0  0  0  0  0  0  0  0
   41.2254   84.3701   65.4503 H   0  0  0  0  0  0  0  0  0  0  0  0
   40.7594   82.5413   63.8561 H   0  0  0  0  0  0  0  0  0  0  0  0
   39.3617   83.5425   64.2521 H   0  0  0  0  0  0  0  0  0  0  0  0
   39.9620   85.0585   62.2570 H   0  0  0  0  0  0  0  0  0  0  0  0
   39.5756   83.4008   61.7484 H   0  0  0  0  0  0  0  0  0  0  0  0
   37.6631   78.0595   55.7936 H   0  0  0  0  0  0  0  0  0  0  0  0
   36.2777   77.1073   53.9620 H   0  0  0  0  0  0  0  0  0  0  0  0
   35.4912   79.7367   50.7688 H   0  0  0  0  0  0  0  0  0  0  0  0
   35.4694   80.9359   48.5551 H   0  0  0  0  0  0  0  0  0  0  0  0
   38.1795   83.0546   47.2337 H   0  0  0  0  0  0  0  0  0  0  0  0
   36.5542   82.3808   46.9384 H   0  0  0  0  0  0  0  0  0  0  0  0
  1  2  2  0
  2  3  1  0
  2  7  1  0
  4  3  2  0
  5  4  1  0
  6  5  2  0
  6  1  1  0
  7  8  2  0
  7 11  1  0
  8  9  1  0
  9 10  1  0
 10 12  1  0
 11 10  2  0
 12 17  1  0
 12 13  1  0
 13 14  1  0
 14 15  1  0
 16 15  1  0
 17 16  1  0
 18 19  2  0
 18  5  1  0
 20 19  1  0
 21 20  2  0
 22 21  1  0
 22 23  2  0
 23 18  1  0
 24 22  1  0
 25 24  1  0
 26 25  2  0
 27 26  1  0
 27 29  2  0
 28 27  1  0
 29 30  1  0
 30 24  1  0
 30 31  2  0
  1 32  1  0
  3 33  1  0
 13 34  1  0
 13 35  1  0
 14 36  1  0
 14 37  1  0
 15 38  1  0
 16 39  1  0
 16 40  1  0
 17 41  1  0
 17 42  1  0
 19 43  1  0
 20 44  1  0
 25 45  1  0
 26 46  1  0
 28 47  1  0
 28 48  1  0
M  END
>  <Score>  (1) 
-7.52781

$$$$
