
     RDKit          3D

 44 48  0  0  0  0  0  0  0  0999 V2000
   40.1700   80.4490   57.5990 C   0  0  0  0  0  0  0  0  0  0  0  0
   40.6040   81.6130   57.0060 C   0  0  0  0  0  0  0  0  0  0  0  0
   40.8520   82.7290   57.7940 C   0  0  0  0  0  0  0  0  0  0  0  0
   40.6390   82.5800   59.1420 N   0  0  0  0  0  0  0  0  0  0  0  0
   40.2210   81.4420   59.6750 C   0  0  0  0  0  0  0  0  0  0  0  0
   39.9830   80.3760   58.9310 N   0  0  0  0  0  0  0  0  0  0  0  0
   39.9440   79.3970   56.7910 O   0  0  0  0  0  0  0  0  0  0  0  0
   38.8570   78.6040   56.6200 C   0  0  0  0  0  0  0  0  0  0  0  0
   38.2560   77.7160   57.5030 C   0  0  0  0  0  0  0  0  0  0  0  0
   37.1520   76.9710   57.1970 C   0  0  0  0  0  0  0  0  0  0  0  0
   36.5920   77.0900   55.9570 C   0  0  0  0  0  0  0  0  0  0  0  0
   37.1510   77.9500   55.0600 C   0  0  0  0  0  0  0  0  0  0  0  0
   36.5340   78.0250   53.8160 C   0  0  0  0  0  0  0  0  0  0  0  0
   37.0260   78.8590   52.8620 C   0  0  0  0  0  0  0  0  0  0  0  0
   38.1420   79.6250   53.1460 C   0  0  0  0  0  0  0  0  0  0  0  0
   38.7500   79.5450   54.3830 C   0  0  0  0  0  0  0  0  0  0  0  0
   38.2760   78.7190   55.3530 C   0  0  0  0  0  0  0  0  0  0  0  0
   39.9570   81.2890   61.4370 S   0  0  0  0  0  0  0  0  0  0  0  0
   40.9760   82.4230   62.3560 C   0  0  0  0  0  0  0  0  0  0  0  0
   40.2930   83.5060   62.9130 C   0  0  0  0  0  0  0  0  0  0  0  0
   41.0030   84.4340   63.6400 C   0  0  0  0  0  0  0  0  0  0  0  0
   42.3460   84.2670   63.7930 C   0  0  0  0  0  0  0  0  0  0  0  0
   43.0360   83.1910   63.2410 C   0  0  0  0  0  0  0  0  0  0  0  0
   44.4010   83.0330   63.4050 C   0  0  0  0  0  0  0  0  0  0  0  0
   45.0330   81.9420   62.8330 C   0  0  0  0  0  0  0  0  0  0  0  0
   44.3220   81.0100   62.1020 C   0  0  0  0  0  0  0  0  0  0  0  0
   42.9440   81.1470   61.9240 C   0  0  0  0  0  0  0  0  0  0  0  0
   42.3380   82.2440   62.5050 C   0  0  0  0  0  0  0  0  0  0  0  0
   40.7531   81.6586   55.9171 H   0  0  0  0  0  0  0  0  0  0  0  0
   41.1996   83.6792   57.3624 H   0  0  0  0  0  0  0  0  0  0  0  0
   38.6938   77.6062   58.5061 H   0  0  0  0  0  0  0  0  0  0  0  0
   36.7199   76.2843   57.9398 H   0  0  0  0  0  0  0  0  0  0  0  0
   35.7034   76.5007   55.6866 H   0  0  0  0  0  0  0  0  0  0  0  0
   35.6475   77.4092   53.6039 H   0  0  0  0  0  0  0  0  0  0  0  0
   36.5424   78.9239   51.8761 H   0  0  0  0  0  0  0  0  0  0  0  0
   38.5481   80.3029   52.3808 H   0  0  0  0  0  0  0  0  0  0  0  0
   39.6368   80.1628   54.5880 H   0  0  0  0  0  0  0  0  0  0  0  0
   39.2074   83.6154   62.7733 H   0  0  0  0  0  0  0  0  0  0  0  0
   40.4932   85.2981   64.0910 H   0  0  0  0  0  0  0  0  0  0  0  0
   42.9078   85.0118   64.3758 H   0  0  0  0  0  0  0  0  0  0  0  0
   44.9789   83.7678   63.9848 H   0  0  0  0  0  0  0  0  0  0  0  0
   46.1180   81.8153   62.9626 H   0  0  0  0  0  0  0  0  0  0  0  0
   44.8464   80.1520   61.6561 H   0  0  0  0  0  0  0  0  0  0  0  0
   42.3651   80.4121   61.3453 H   0  0  0  0  0  0  0  0  0  0  0  0
  1  6  1  0
  2  1  2  0
  2  3  1  0
  3  4  2  0
  4  5  1  0
  5 18  1  0
  6  5  2  0
  7  1  1  0
  8  7  1  0
  8  9  2  0
 10  9  1  0
 11 10  2  0
 12 17  2  0
 12 11  1  0
 13 12  1  0
 14 15  1  0
 14 13  2  0
 15 16  2  0
 16 17  1  0
 17  8  1  0
 18 19  1  0
 19 28  1  0
 19 20  2  0
 20 21  1  0
 21 22  2  0
 23 24  2  0
 23 22  1  0
 25 24  1  0
 26 25  2  0
 27 26  1  0
 27 28  2  0
 28 23  1  0
  2 29  1  0
  3 30  1  0
  9 31  1  0
 10 32  1  0
 11 33  1  0
 13 34  1  0
 14 35  1  0
 15 36  1  0
 16 37  1  0
 20 38  1  0
 21 39  1  0
 22 40  1  0
 24 41  1  0
 25 42  1  0
 26 43  1  0
 27 44  1  0
M  END
>  <Score>  (1) 
-7.17247

$$$$
