
     RDKit          3D

 38 42  0  0  0  0  0  0  0  0999 V2000
   39.9490   79.1670   59.1350 C   0  0  0  0  0  0  0  0  0  0  0  0
   39.8300   79.9550   58.0460 C   0  0  0  0  0  0  0  0  0  0  0  0
   39.3860   79.3340   56.9530 N   0  0  0  0  0  0  0  0  0  0  0  0
   39.1990   78.0340   57.3530 C   0  0  0  0  0  0  0  0  0  0  0  0
   39.5420   77.9690   58.6520 N   0  0  0  0  0  0  0  0  0  0  0  0
   39.4310   76.6850   59.3240 C   0  0  0  0  0  0  0  0  0  0  0  0
   38.2350   76.0570   59.5190 N   0  0  0  0  0  0  0  0  0  0  0  0
   38.1440   74.8850   60.1350 C   0  0  0  0  0  0  0  0  0  0  0  0
   39.2290   74.2530   60.5990 N   0  0  0  0  0  0  0  0  0  0  0  0
   40.4560   74.8050   60.4490 C   0  0  0  0  0  0  0  0  0  0  0  0
   41.6060   74.1760   60.9210 C   0  0  0  0  0  0  0  0  0  0  0  0
   42.8570   74.7510   60.7620 C   0  0  0  0  0  0  0  0  0  0  0  0
   42.9590   75.9700   60.1230 C   0  0  0  0  0  0  0  0  0  0  0  0
   41.7910   76.5610   59.6690 C   0  0  0  0  0  0  0  0  0  0  0  0
   40.5390   76.0210   59.8080 C   0  0  0  0  0  0  0  0  0  0  0  0
   40.2920   80.3640   61.3280 N   0  0  0  0  0  0  0  0  0  0  0  0
   40.7310   80.1060   62.5980 N   0  0  0  0  0  0  0  0  0  0  0  0
   41.0770   78.7720   62.5270 C   0  0  0  0  0  0  0  0  0  0  0  0
   40.8570   78.2430   61.2690 C   0  0  0  0  0  0  0  0  0  0  0  0
   40.3350   79.2940   60.4680 C   0  0  0  0  0  0  0  0  0  0  0  0
   39.8820   81.7140   61.1610 C   0  0  0  0  0  0  0  0  0  0  0  0
   40.2590   82.2900   59.9570 C   0  0  0  0  0  0  0  0  0  0  0  0
   39.8980   83.6060   59.6780 C   0  0  0  0  0  0  0  0  0  0  0  0
   39.1700   84.2840   60.6390 N   0  0  0  0  0  0  0  0  0  0  0  0
   38.8090   83.7040   61.8230 C   0  0  0  0  0  0  0  0  0  0  0  0
   39.1540   82.4220   62.1020 N   0  0  0  0  0  0  0  0  0  0  0  0
   40.0798   81.0262   58.0591 H   0  0  0  0  0  0  0  0  0  0  0  0
   38.8373   77.2032   56.7294 H   0  0  0  0  0  0  0  0  0  0  0  0
   37.1547   74.4225   60.2673 H   0  0  0  0  0  0  0  0  0  0  0  0
   41.5195   73.2045   61.4296 H   0  0  0  0  0  0  0  0  0  0  0  0
   43.7563   74.2427   61.1400 H   0  0  0  0  0  0  0  0  0  0  0  0
   43.9351   76.4562   59.9789 H   0  0  0  0  0  0  0  0  0  0  0  0
   41.8745   77.5330   59.1607 H   0  0  0  0  0  0  0  0  0  0  0  0
   41.4809   78.1966   63.3730 H   0  0  0  0  0  0  0  0  0  0  0  0
   41.0490   77.2080   60.9497 H   0  0  0  0  0  0  0  0  0  0  0  0
   40.8407   81.7099   59.2255 H   0  0  0  0  0  0  0  0  0  0  0  0
   40.1809   84.0874   58.7302 H   0  0  0  0  0  0  0  0  0  0  0  0
   38.2318   84.2837   62.5584 H   0  0  0  0  0  0  0  0  0  0  0  0
  1 20  1  0
  2  1  2  0
  3  4  2  0
  3  2  1  0
  4  5  1  0
  5  1  1  0
  5  6  1  0
  6  7  2  0
  6 15  1  0
  7  8  1  0
  8  9  2  0
 10  9  1  0
 10 11  2  0
 12 11  1  0
 13 12  2  0
 14 15  2  0
 14 13  1  0
 15 10  1  0
 16 17  1  0
 18 17  2  0
 19 18  1  0
 20 19  2  0
 20 16  1  0
 21 16  1  0
 21 26  1  0
 22 21  2  0
 23 22  1  0
 23 24  2  0
 24 25  1  0
 25 26  2  0
  2 27  1  0
  4 28  1  0
  8 29  1  0
 11 30  1  0
 12 31  1  0
 13 32  1  0
 14 33  1  0
 18 34  1  0
 19 35  1  0
 22 36  1  0
 23 37  1  0
 25 38  1  0
M  END
>  <Score>  (1) 
-7.06171

$$$$
