
     RDKit          3D

 52 57  0  0  1  0  0  0  0  0999 V2000
   40.7310   82.4560   62.0080 C   0  0  0  0  0  0  0  0  0  0  0  0
   40.4440   82.6520   60.6830 C   0  0  0  0  0  0  0  0  0  0  0  0
   40.1430   81.6230   59.8280 C   0  0  0  0  0  0  0  0  0  0  0  0
   40.1440   80.3860   60.3780 N   0  0  0  0  0  0  0  0  0  0  0  0
   40.4180   80.1780   61.6600 C   0  0  0  0  0  0  0  0  0  0  0  0
   40.7070   81.1890   62.4670 N   0  0  0  0  0  0  0  0  0  0  0  0
   41.0670   83.4480   62.9600 N   0  0  0  0  0  0  0  0  0  0  0  0
   40.3100   83.5780   64.0450 C   0  0  0  0  0  0  0  0  0  0  0  0
   40.8110   84.5730   64.8140 C   0  0  0  0  0  0  0  0  0  0  0  0
   41.9210   85.0740   64.1730 N   0  0  0  0  0  0  0  0  0  0  0  0
   42.0460   84.3640   63.0460 C   0  0  0  0  0  0  0  0  0  0  0  0
   43.0410   84.4990   62.0310 N   0  0  0  0  0  0  0  0  0  0  0  0
   43.8460   85.6480   61.5780 C   0  0  0  0  0  0  0  0  0  0  0  0
   43.4570   85.6110   60.0820 C   0  0  0  0  0  0  0  0  0  0  0  0
   43.2650   84.1090   59.8060 C   0  0  0  0  0  0  0  0  0  0  0  0
   43.5510   83.4980   61.1280 C   0  0  0  0  0  0  0  0  0  0  0  0
   40.4180   78.7740   62.1980 C   0  0  1  0  0  0  0  0  0  0  0  0
   40.5570   77.7070   61.2060 C   0  0  0  0  0  0  0  0  0  0  0  0
   41.6450   78.0100   62.1980 C   0  0  1  0  0  0  0  0  0  0  0  0
   42.9410   78.5410   61.9510 C   0  0  0  0  0  0  0  0  0  0  0  0
   43.2910   79.6300   61.1900 C   0  0  0  0  0  0  0  0  0  0  0  0
   44.5560   80.1500   61.0490 C   0  0  0  0  0  0  0  0  0  0  0  0
   45.6110   79.5690   61.7060 C   0  0  0  0  0  0  0  0  0  0  0  0
   45.3360   78.4720   62.4890 C   0  0  0  0  0  0  0  0  0  0  0  0
   46.4320   77.9370   63.1300 C   0  0  0  0  0  0  0  0  0  0  0  0
   46.2630   76.8420   63.9460 C   0  0  0  0  0  0  0  0  0  0  0  0
   45.0030   76.3060   64.1050 C   0  0  0  0  0  0  0  0  0  0  0  0
   43.9600   76.9000   63.4280 C   0  0  0  0  0  0  0  0  0  0  0  0
   44.0460   77.9920   62.5950 C   0  0  0  0  0  0  0  0  0  0  0  0
   40.4555   83.6786   60.2880 H   0  0  0  0  0  0  0  0  0  0  0  0
   39.9157   81.7916   58.7650 H   0  0  0  0  0  0  0  0  0  0  0  0
   39.4206   82.9748   64.2798 H   0  0  0  0  0  0  0  0  0  0  0  0
   40.4048   84.9183   65.7762 H   0  0  0  0  0  0  0  0  0  0  0  0
   43.5417   86.5867   62.0640 H   0  0  0  0  0  0  0  0  0  0  0  0
   44.9228   85.5978   61.7970 H   0  0  0  0  0  0  0  0  0  0  0  0
   42.5251   86.1673   59.9028 H   0  0  0  0  0  0  0  0  0  0  0  0
   44.2094   86.0771   59.4288 H   0  0  0  0  0  0  0  0  0  0  0  0
   42.2359   83.8930   59.4829 H   0  0  0  0  0  0  0  0  0  0  0  0
   43.9074   83.7267   58.9991 H   0  0  0  0  0  0  0  0  0  0  0  0
   43.0220   82.5413   61.2501 H   0  0  0  0  0  0  0  0  0  0  0  0
   44.6118   83.2539   61.2862 H   0  0  0  0  0  0  0  0  0  0  0  0
   39.6961   79.0217   62.9901 H   0  0  0  0  0  0  0  0  0  0  0  0
   40.6921   77.9527   60.1423 H   0  0  0  0  0  0  0  0  0  0  0  0
   39.9773   76.8169   60.9200 H   0  0  0  0  0  0  0  0  0  0  0  0
   42.2161   77.4052   62.9178 H   0  0  0  0  0  0  0  0  0  0  0  0
   42.4819   80.1340   60.6411 H   0  0  0  0  0  0  0  0  0  0  0  0
   44.7219   81.0303   60.4106 H   0  0  0  0  0  0  0  0  0  0  0  0
   46.6333   79.9636   61.6107 H   0  0  0  0  0  0  0  0  0  0  0  0
   47.4294   78.3796   62.9912 H   0  0  0  0  0  0  0  0  0  0  0  0
   47.1249   76.3987   64.4663 H   0  0  0  0  0  0  0  0  0  0  0  0
   44.8354   75.4320   64.7516 H   0  0  0  0  0  0  0  0  0  0  0  0
   42.9621   76.4585   63.5669 H   0  0  0  0  0  0  0  0  0  0  0  0
  1  6  1  0
  1  7  1  0
  2  1  2  0
  3  4  2  0
  3  2  1  0
  4  5  1  0
  5 17  1  0
  5  6  2  0
  7 11  1  0
  7  8  1  0
  8  9  2  0
 10  9  1  0
 11 10  2  0
 12 11  1  0
 13 12  1  0
 14 13  1  0
 15 14  1  0
 15 16  1  0
 16 12  1  0
 18 19  1  0
 18 17  1  0
 19 17  1  0
 20 19  1  0
 20 29  1  0
 21 20  2  0
 22 21  1  0
 22 23  2  0
 23 24  1  0
 24 29  2  0
 24 25  1  0
 25 26  2  0
 26 27  1  0
 28 27  2  0
 29 28  1  0
  2 30  1  0
  3 31  1  0
  8 32  1  0
  9 33  1  0
 13 34  1  0
 13 35  1  0
 14 36  1  0
 14 37  1  0
 15 38  1  0
 15 39  1  0
 16 40  1  0
 16 41  1  0
 17 42  1  1
 18 43  1  0
 18 44  1  0
 19 45  1  1
 21 46  1  0
 22 47  1  0
 23 48  1  0
 25 49  1  0
 26 50  1  0
 27 51  1  0
 28 52  1  0
M  END
>  <Score>  (1) 
-7.37293

$$$$
