
     RDKit          3D

 49 52  0  0  1  0  0  0  0  0999 V2000
   39.6060   83.5940   60.1160 C   0  0  0  0  0  0  0  0  0  0  0  0
   40.0540   82.2600   60.1310 C   0  0  0  0  0  0  0  0  0  0  0  0
   40.8000   81.8540   61.2440 C   0  0  0  0  0  0  0  0  0  0  0  0
   41.0090   82.7910   62.2010 N   0  0  0  0  0  0  0  0  0  0  0  0
   40.5800   84.0350   62.1750 C   0  0  0  0  0  0  0  0  0  0  0  0
   39.8720   84.4270   61.1090 N   0  0  0  0  0  0  0  0  0  0  0  0
   40.8790   84.8850   63.2830 N   0  0  0  0  0  0  0  0  0  0  0  0
   40.3950   84.4920   64.5780 C   0  0  0  0  0  0  0  0  0  0  0  0
   40.3770   83.2770   64.9660 N   0  0  0  0  0  0  0  0  0  0  0  0
   39.9170   85.5180   65.4640 N   0  0  0  0  0  0  0  0  0  0  0  0
   40.7110   82.4620   64.4690 H   0  0  0  0  0  0  0  0  0  0  0  0
   41.3310   80.5480   61.3850 N   0  0  0  0  0  0  0  0  0  0  0  0
   40.7430   79.4270   62.0790 C   0  0  0  0  0  0  0  0  0  0  0  0
   41.7300   78.3070   61.8880 C   0  0  0  0  0  0  0  0  0  0  0  0
   43.0300   79.0640   61.8470 C   0  0  0  0  0  0  0  0  0  0  0  0
   42.5840   80.1330   60.8320 C   0  0  2  0  0  0  0  0  0  0  0  0
   43.6430   81.1830   60.8330 C   0  0  1  0  0  0  0  0  0  0  0  0
   43.3890   82.1020   59.6720 C   0  0  0  0  0  0  0  0  0  0  0  0
   43.9130   83.4650   59.9940 C   0  0  0  0  0  0  0  0  0  0  0  0
   43.9710   83.4940   61.4940 C   0  0  0  0  0  0  0  0  0  0  0  0
   43.6240   82.1130   61.9760 C   0  0  2  0  0  0  0  0  0  0  0  0
   44.9340   81.7310   62.6840 C   0  0  0  0  0  0  0  0  0  0  0  0
   45.7700   82.3770   63.5160 C   0  0  0  0  0  0  0  0  0  0  0  0
   46.7910   81.5610   63.8440 N   0  0  0  0  0  0  0  0  0  0  0  0
   46.6230   80.3820   63.2290 C   0  0  0  0  0  0  0  0  0  0  0  0
   45.4730   80.4950   62.5140 N   0  0  0  0  0  0  0  0  0  0  0  0
   39.0200   83.9532   59.2572 H   0  0  0  0  0  0  0  0  0  0  0  0
   39.8284   81.5681   59.3062 H   0  0  0  0  0  0  0  0  0  0  0  0
   41.4232   85.7506   63.1583 H   0  0  0  0  0  0  0  0  0  0  0  0
   39.5639   85.2678   66.3987 H   0  0  0  0  0  0  0  0  0  0  0  0
   39.9276   86.5033   65.1642 H   0  0  0  0  0  0  0  0  0  0  0  0
   40.6151   79.6547   63.1475 H   0  0  0  0  0  0  0  0  0  0  0  0
   39.7436   79.1744   61.6951 H   0  0  0  0  0  0  0  0  0  0  0  0
   41.7029   77.5985   62.7290 H   0  0  0  0  0  0  0  0  0  0  0  0
   41.5414   77.6868   60.9993 H   0  0  0  0  0  0  0  0  0  0  0  0
   43.2985   79.4947   62.8229 H   0  0  0  0  0  0  0  0  0  0  0  0
   43.9313   78.4865   61.5938 H   0  0  0  0  0  0  0  0  0  0  0  0
   42.4593   79.8318   59.7814 H   0  0  0  0  0  0  0  0  0  0  0  0
   44.5846   80.6144   60.8307 H   0  0  0  0  0  0  0  0  0  0  0  0
   42.3075   82.1605   59.4799 H   0  0  0  0  0  0  0  0  0  0  0  0
   43.8987   81.7140   58.7778 H   0  0  0  0  0  0  0  0  0  0  0  0
   44.9143   83.6098   59.5622 H   0  0  0  0  0  0  0  0  0  0  0  0
   43.2823   84.2664   59.5817 H   0  0  0  0  0  0  0  0  0  0  0  0
   44.9831   83.7669   61.8274 H   0  0  0  0  0  0  0  0  0  0  0  0
   43.2692   84.2381   61.8989 H   0  0  0  0  0  0  0  0  0  0  0  0
   42.6730   82.0791   62.5277 H   0  0  0  0  0  0  0  0  0  0  0  0
   45.6407   83.4095   63.8728 H   0  0  0  0  0  0  0  0  0  0  0  0
   47.2813   79.5029   63.2905 H   0  0  0  0  0  0  0  0  0  0  0  0
   45.0682   79.7512   61.9277 H   0  0  0  0  0  0  0  0  0  0  0  0
  1  2  2  0
  1  6  1  0
  2  3  1  0
  3 12  1  0
  3  4  2  0
  5  4  1  0
  5  7  1  0
  6  5  2  0
  7  8  1  0
  8  9  2  0
  8 10  1  0
 11  9  1  0
 12 13  1  0
 14 13  1  0
 15 14  1  0
 16 17  1  0
 16 12  1  0
 16 15  1  0
 17 21  1  0
 18 19  1  0
 18 17  1  0
 19 20  1  0
 20 21  1  0
 21 22  1  0
 22 23  2  0
 23 24  1  0
 25 24  2  0
 26 22  1  0
 26 25  1  0
  1 27  1  0
  2 28  1  0
  7 29  1  0
 10 30  1  0
 10 31  1  0
 13 32  1  0
 13 33  1  0
 14 34  1  0
 14 35  1  0
 15 36  1  0
 15 37  1  0
 16 38  1  6
 17 39  1  6
 18 40  1  0
 18 41  1  0
 19 42  1  0
 19 43  1  0
 20 44  1  0
 20 45  1  0
 21 46  1  1
 23 47  1  0
 25 48  1  0
 26 49  1  0
M  END
>  <Score>  (1) 
-7.08247

$$$$
