
     RDKit          3D

 44 47  0  0  0  0  0  0  0  0999 V2000
   40.7797   82.3505   59.1796 C   0  0  0  0  0  0  0  0  0  0  0  0
   39.9281   81.3377   58.7824 C   0  0  0  0  0  0  0  0  0  0  0  0
   40.1523   81.0861   57.4506 C   0  0  0  0  0  0  0  0  0  0  0  0
   41.1325   81.9600   57.0992 C   0  0  0  0  0  0  0  0  0  0  0  0
   41.5088   82.7123   58.1193 O   0  0  0  0  0  0  0  0  0  0  0  0
   39.4900   80.1199   56.6468 C   0  0  0  0  0  0  0  0  0  0  0  0
   39.8596   78.8307   56.3029 C   0  0  0  0  0  0  0  0  0  0  0  0
   39.0581   78.0484   55.4978 C   0  0  0  0  0  0  0  0  0  0  0  0
   37.8609   78.4978   54.9966 C   0  0  0  0  0  0  0  0  0  0  0  0
   37.4762   79.7755   55.3267 C   0  0  0  0  0  0  0  0  0  0  0  0
   38.2733   80.5860   56.1414 C   0  0  0  0  0  0  0  0  0  0  0  0
   39.8628   82.4892   61.4999 C   0  0  0  0  0  0  0  0  0  0  0  0
   40.7864   82.8429   60.5255 C   0  0  0  0  0  0  0  0  0  0  0  0
   41.7921   83.7447   60.8907 C   0  0  0  0  0  0  0  0  0  0  0  0
   41.8369   84.2369   62.1554 N   0  0  0  0  0  0  0  0  0  0  0  0
   40.8903   83.8385   63.0555 C   0  0  0  0  0  0  0  0  0  0  0  0
   39.9257   82.9913   62.7539 N   0  0  0  0  0  0  0  0  0  0  0  0
   40.9457   84.3801   64.4340 C   0  0  0  0  0  0  0  0  0  0  0  0
   40.1338   83.6252   65.2723 F   0  0  0  0  0  0  0  0  0  0  0  0
   40.5491   85.6762   64.5232 F   0  0  0  0  0  0  0  0  0  0  0  0
   42.2390   84.2312   64.8939 F   0  0  0  0  0  0  0  0  0  0  0  0
   41.8142   82.1908   55.8097 C   0  0  0  0  0  0  0  0  0  0  0  0
   43.0976   81.6558   55.8819 F   0  0  0  0  0  0  0  0  0  0  0  0
   41.9416   83.5545   55.5396 F   0  0  0  0  0  0  0  0  0  0  0  0
   41.0641   81.6468   54.7952 F   0  0  0  0  0  0  0  0  0  0  0  0
   39.1880   80.8006   59.3878 H   0  0  0  0  0  0  0  0  0  0  0  0
   40.8126   78.5396   56.7308 H   0  0  0  0  0  0  0  0  0  0  0  0
   39.4791   77.0661   55.3169 H   0  0  0  0  0  0  0  0  0  0  0  0
   37.2859   77.8492   54.3811 H   0  0  0  0  0  0  0  0  0  0  0  0
   36.5298   80.1130   54.9227 H   0  0  0  0  0  0  0  0  0  0  0  0
   37.8505   81.5597   56.3176 H   0  0  0  0  0  0  0  0  0  0  0  0
   39.0886   81.7857   61.1931 H   0  0  0  0  0  0  0  0  0  0  0  0
   42.7596   84.1296   59.9095 N   0  0  0  0  0  0  0  0  0  0  0  0
   44.0570   83.9369   60.2105 C   0  0  0  0  0  0  0  0  0  0  0  0
   44.9655   84.3127   59.2565 C   0  0  0  0  0  0  0  0  0  0  0  0
   44.4821   84.8512   58.0796 C   0  0  0  0  0  0  0  0  0  0  0  0
   45.3464   85.2704   57.0310 N   0  0  0  0  0  0  0  0  0  0  0  0
   43.1695   85.0176   57.8402 N   0  0  0  0  0  0  0  0  0  0  0  0
   42.2544   84.6469   58.7832 C   0  0  0  0  0  0  0  0  0  0  0  0
   41.0309   84.7886   58.5906 O   0  0  0  0  0  0  0  0  0  0  0  0
   44.3461   83.5045   61.1661 H   0  0  0  0  0  0  0  0  0  0  0  0
   46.0249   84.1917   59.4193 H   0  0  0  0  0  0  0  0  0  0  0  0
   46.0248   85.9395   56.6054 H   0  0  0  0  0  0  0  0  0  0  0  0
   45.8419   86.1896   57.2228 H   0  0  0  0  0  0  0  0  0  0  0  0
  1 13  1  0
  2  1  2  0
  3  2  1  0
  4  3  2  0
  4  5  1  0
  5  1  1  0
  6  3  1  0
  7  6  2  0
  8  7  1  0
  9 10  1  0
  9  8  2  0
 10 11  2  0
 11  6  1  0
 12 17  2  0
 13 14  2  0
 13 12  1  0
 14 15  1  0
 15 16  2  0
 16 18  1  0
 17 16  1  0
 18 20  1  0
 18 21  1  0
 18 19  1  0
 22 23  1  0
 22  4  1  0
 24 22  1  0
 25 22  1  0
  2 26  1  0
  7 27  1  0
  8 28  1  0
  9 29  1  0
 10 30  1  0
 11 31  1  0
 12 32  1  0
 33 34  1  0
 34 35  2  0
 35 36  1  0
 36 37  1  0
 36 38  2  0
 38 39  1  0
 39 40  2  0
 39 33  1  0
 34 41  1  0
 35 42  1  0
 37 43  1  0
 37 44  1  0
 14 33  1  0
M  END
>  <Score>  (1) 
-7.35467

$$$$
