
     RDKit          3D

 49 53  0  0  1  0  0  0  0  0999 V2000
   40.1420   81.5990   59.7280 C   0  0  0  0  0  0  0  0  0  0  0  0
   40.3060   82.3070   58.5320 C   0  0  0  0  0  0  0  0  0  0  0  0
   40.6950   83.6740   58.6340 C   0  0  0  0  0  0  0  0  0  0  0  0
   40.8810   84.2080   59.8690 N   0  0  0  0  0  0  0  0  0  0  0  0
   40.6990   83.4420   61.0010 C   0  0  0  0  0  0  0  0  0  0  0  0
   40.3410   82.1790   60.9360 N   0  0  0  0  0  0  0  0  0  0  0  0
   40.0800   81.6310   57.3280 N   0  0  0  0  0  0  0  0  0  0  0  0
   41.0360   81.7740   56.3570 C   0  0  0  0  0  0  0  0  0  0  0  0
   40.6480   81.0010   55.3010 N   0  0  0  0  0  0  0  0  0  0  0  0
   39.4730   80.4500   55.6030 C   0  0  0  0  0  0  0  0  0  0  0  0
   39.1130   80.8430   56.8730 N   0  0  0  0  0  0  0  0  0  0  0  0
   38.7380   79.5970   54.7280 N   0  0  0  0  0  0  0  0  0  0  0  0
   39.0600   78.5940   53.8960 C   0  0  0  0  0  0  0  0  0  0  0  0
   37.9080   78.1320   53.3000 C   0  0  0  0  0  0  0  0  0  0  0  0
   36.8980   78.9030   53.8140 N   0  0  0  0  0  0  0  0  0  0  0  0
   37.4310   79.7890   54.6830 C   0  0  0  0  0  0  0  0  0  0  0  0
   40.9150   84.1100   62.3140 C   0  0  1  0  0  0  0  0  0  0  0  0
   39.9240   83.7110   63.3350 C   0  0  0  0  0  0  0  0  0  0  0  0
   40.5960   84.0930   64.6400 C   0  0  0  0  0  0  0  0  0  0  0  0
   42.0660   84.2670   64.3370 C   0  0  0  0  0  0  0  0  0  0  0  0
   42.2480   83.7280   62.9200 C   0  0  2  0  0  0  0  0  0  0  0  0
   43.3900   84.2430   62.2500 N   0  0  0  0  0  0  0  0  0  0  0  0
   43.6590   85.5120   61.8970 C   0  0  0  0  0  0  0  0  0  0  0  0
   44.8120   85.8920   61.2440 C   0  0  0  0  0  0  0  0  0  0  0  0
   45.7640   84.9500   60.9170 C   0  0  0  0  0  0  0  0  0  0  0  0
   46.9810   85.2490   60.2450 N   0  0  0  0  0  0  0  0  0  0  0  0
   45.4860   83.6820   61.2740 N   0  0  0  0  0  0  0  0  0  0  0  0
   44.3510   83.3330   61.9130 C   0  0  0  0  0  0  0  0  0  0  0  0
   44.2910   82.0820   62.1560 O   0  0  0  0  0  0  0  0  0  0  0  0
   39.8429   80.5413   59.6860 H   0  0  0  0  0  0  0  0  0  0  0  0
   40.8417   84.2845   57.7308 H   0  0  0  0  0  0  0  0  0  0  0  0
   41.1071   82.8275   56.0486 H   0  0  0  0  0  0  0  0  0  0  0  0
   42.0240   81.4649   56.7289 H   0  0  0  0  0  0  0  0  0  0  0  0
   38.2546   80.5757   57.3756 H   0  0  0  0  0  0  0  0  0  0  0  0
   40.0742   78.2062   53.7199 H   0  0  0  0  0  0  0  0  0  0  0  0
   37.8174   77.3170   52.5668 H   0  0  0  0  0  0  0  0  0  0  0  0
   36.8718   80.5430   55.2564 H   0  0  0  0  0  0  0  0  0  0  0  0
   40.8430   85.1830   62.0825 H   0  0  0  0  0  0  0  0  0  0  0  0
   38.9794   84.2589   63.2028 H   0  0  0  0  0  0  0  0  0  0  0  0
   39.6576   82.6450   63.2834 H   0  0  0  0  0  0  0  0  0  0  0  0
   40.1738   85.0340   65.0225 H   0  0  0  0  0  0  0  0  0  0  0  0
   40.4390   83.3202   65.4069 H   0  0  0  0  0  0  0  0  0  0  0  0
   42.3468   85.3295   64.3848 H   0  0  0  0  0  0  0  0  0  0  0  0
   42.7013   83.7386   65.0631 H   0  0  0  0  0  0  0  0  0  0  0  0
   42.4662   82.6517   62.8578 H   0  0  0  0  0  0  0  0  0  0  0  0
   42.9196   86.2886   62.1423 H   0  0  0  0  0  0  0  0  0  0  0  0
   44.9727   86.9485   60.9834 H   0  0  0  0  0  0  0  0  0  0  0  0
   47.6497   84.4954   60.0309 H   0  0  0  0  0  0  0  0  0  0  0  0
   47.1939   86.2192   59.9724 H   0  0  0  0  0  0  0  0  0  0  0  0
  1  6  2  0
  2  3  2  0
  2  1  1  0
  3  4  1  0
  4  5  2  0
  5 17  1  0
  6  5  1  0
  7  2  1  0
  8  7  1  0
  9 10  2  0
  9  8  1  0
 10 11  1  0
 11  7  1  0
 12 10  1  0
 13 12  1  0
 14 15  1  0
 14 13  2  0
 15 16  2  0
 16 12  1  0
 17 21  1  0
 17 18  1  0
 18 19  1  0
 20 19  1  0
 21 20  1  0
 22 21  1  0
 23 22  1  0
 24 23  2  0
 25 24  1  0
 25 27  2  0
 26 25  1  0
 27 28  1  0
 28 29  2  0
 28 22  1  0
  1 30  1  0
  3 31  1  0
  8 32  1  0
  8 33  1  0
 11 34  1  0
 13 35  1  0
 14 36  1  0
 16 37  1  0
 17 38  1  6
 18 39  1  0
 18 40  1  0
 19 41  1  0
 19 42  1  0
 20 43  1  0
 20 44  1  0
 21 45  1  1
 23 46  1  0
 24 47  1  0
 26 48  1  0
 26 49  1  0
M  END
>  <Score>  (1) 
-7.44269

$$$$
