
     RDKit          3D

 41 45  0  0  0  0  0  0  0  0999 V2000
   41.7010   83.4620   61.7020 C   0  0  0  0  0  0  0  0  0  0  0  0
   40.5190   84.1750   61.9180 C   0  0  0  0  0  0  0  0  0  0  0  0
   39.3060   83.5200   62.0470 C   0  0  0  0  0  0  0  0  0  0  0  0
   39.2780   82.1770   61.9610 N   0  0  0  0  0  0  0  0  0  0  0  0
   40.4160   81.4780   61.7530 C   0  0  0  0  0  0  0  0  0  0  0  0
   41.5730   82.1130   61.6290 N   0  0  0  0  0  0  0  0  0  0  0  0
   45.4690   87.3600   57.4920 C   0  0  0  0  0  0  0  0  0  0  0  0
   45.0890   88.6990   57.7550 C   0  0  0  0  0  0  0  0  0  0  0  0
   44.4740   88.9570   58.9650 C   0  0  0  0  0  0  0  0  0  0  0  0
   44.2620   87.9420   59.8350 N   0  0  0  0  0  0  0  0  0  0  0  0
   44.6370   86.6670   59.5560 C   0  0  0  0  0  0  0  0  0  0  0  0
   45.2250   86.4070   58.4040 N   0  0  0  0  0  0  0  0  0  0  0  0
   44.3980   85.6380   60.4930 N   0  0  0  0  0  0  0  0  0  0  0  0
   45.3990   85.1980   61.2830 C   0  0  0  0  0  0  0  0  0  0  0  0
   45.2750   84.2020   62.2260 C   0  0  0  0  0  0  0  0  0  0  0  0
   44.0100   83.6630   62.3160 C   0  0  0  0  0  0  0  0  0  0  0  0
   43.8000   82.7400   63.1570 O   0  0  0  0  0  0  0  0  0  0  0  0
   42.9770   84.0580   61.5600 N   0  0  0  0  0  0  0  0  0  0  0  0
   43.1850   85.0300   60.6690 C   0  0  0  0  0  0  0  0  0  0  0  0
   42.2150   85.4300   59.9300 O   0  0  0  0  0  0  0  0  0  0  0  0
   40.4410   80.0270   61.6520 C   0  0  0  0  0  0  0  0  0  0  0  0
   40.6730   79.2480   62.5840 O   0  0  0  0  0  0  0  0  0  0  0  0
   40.0300   80.6800   57.0570 N   0  0  0  0  0  0  0  0  0  0  0  0
   40.3190   81.8200   57.6940 C   0  0  0  0  0  0  0  0  0  0  0  0
   40.4130   81.5120   59.0000 N   0  0  0  0  0  0  0  0  0  0  0  0
   40.1890   80.2000   59.2040 C   0  0  0  0  0  0  0  0  0  0  0  0
   40.1730   79.4070   60.3520 C   0  0  0  0  0  0  0  0  0  0  0  0
   39.9060   78.0990   60.1800 N   0  0  0  0  0  0  0  0  0  0  0  0
   39.6640   77.5590   58.9700 C   0  0  0  0  0  0  0  0  0  0  0  0
   39.6840   78.3420   57.8770 N   0  0  0  0  0  0  0  0  0  0  0  0
   39.9420   79.6650   57.9430 C   0  0  0  0  0  0  0  0  0  0  0  0
   40.5526   85.2723   61.9865 H   0  0  0  0  0  0  0  0  0  0  0  0
   38.3796   84.0883   62.2171 H   0  0  0  0  0  0  0  0  0  0  0  0
   45.9625   87.1025   56.5432 H   0  0  0  0  0  0  0  0  0  0  0  0
   45.2760   89.5008   57.0255 H   0  0  0  0  0  0  0  0  0  0  0  0
   44.1590   89.9797   59.2194 H   0  0  0  0  0  0  0  0  0  0  0  0
   46.3861   85.6690   61.1654 H   0  0  0  0  0  0  0  0  0  0  0  0
   46.1136   83.8657   62.8534 H   0  0  0  0  0  0  0  0  0  0  0  0
   39.8945   80.5897   56.0400 H   0  0  0  0  0  0  0  0  0  0  0  0
   40.4532   82.8128   57.2398 H   0  0  0  0  0  0  0  0  0  0  0  0
   39.4513   76.4838   58.8765 H   0  0  0  0  0  0  0  0  0  0  0  0
  1  2  2  0
  2  3  1  0
  4  3  2  0
  5  4  1  0
  6  1  1  0
  6  5  2  0
  7  8  2  0
  7 12  1  0
  8  9  1  0
  9 10  2  0
 11 10  1  0
 11 13  1  0
 12 11  2  0
 13 19  1  0
 13 14  1  0
 14 15  2  0
 15 16  1  0
 16 17  2  0
 18  1  1  0
 18 16  1  0
 19 18  1  0
 20 19  2  0
 21  5  1  0
 21 22  2  0
 23 24  1  0
 23 31  1  0
 24 25  2  0
 25 26  1  0
 26 27  2  0
 27 21  1  0
 28 27  1  0
 29 28  2  0
 30 31  2  0
 30 29  1  0
 31 26  1  0
  2 32  1  0
  3 33  1  0
  7 34  1  0
  8 35  1  0
  9 36  1  0
 14 37  1  0
 15 38  1  0
 23 39  1  0
 24 40  1  0
 29 41  1  0
M  END
>  <Score>  (1) 
-7.01274

$$$$
