
     RDKit          3D

 49 53  0  0  1  0  0  0  0  0999 V2000
   39.3540   80.5110   56.9820 C   0  0  0  0  0  0  0  0  0  0  0  0
   39.3660   79.3040   57.3670 C   0  0  0  0  0  0  0  0  0  0  0  0
   37.8270   78.5980   56.4980 S   0  0  0  0  0  0  0  0  0  0  0  0
   37.6130   80.1020   55.5410 C   0  0  1  0  0  0  0  0  0  0  0  0
   38.5550   80.7430   55.9650 N   0  0  0  0  0  0  0  0  0  0  0  0
   37.5620   79.7980   54.0870 C   0  0  0  0  0  0  0  0  0  0  0  0
   37.8110   78.5410   53.5480 C   0  0  0  0  0  0  0  0  0  0  0  0
   37.6560   78.6860   52.1770 C   0  0  0  0  0  0  0  0  0  0  0  0
   37.3190   80.0260   51.9380 C   0  0  0  0  0  0  0  0  0  0  0  0
   37.2910   80.5950   53.1230 O   0  0  0  0  0  0  0  0  0  0  0  0
   37.0410   80.7570   50.7510 N   0  0  0  0  0  0  0  0  0  0  0  0
   35.8710   80.5080   50.0980 C   0  0  0  0  0  0  0  0  0  0  0  0
   35.4590   81.1320   48.9400 C   0  0  0  0  0  0  0  0  0  0  0  0
   34.1470   80.7480   48.3420 C   0  0  0  0  0  0  0  0  0  0  0  0
   36.3200   82.0790   48.4260 C   0  0  0  0  0  0  0  0  0  0  0  0
   35.9740   82.6630   47.3750 O   0  0  0  0  0  0  0  0  0  0  0  0
   37.4720   82.3180   49.0790 N   0  0  0  0  0  0  0  0  0  0  0  0
   37.8450   81.6900   50.2080 C   0  0  0  0  0  0  0  0  0  0  0  0
   38.9270   81.9250   50.8090 O   0  0  0  0  0  0  0  0  0  0  0  0
   40.0100   81.6460   57.4120 O   0  0  0  0  0  0  0  0  0  0  0  0
   41.0350   81.9550   58.1730 C   0  0  0  0  0  0  0  0  0  0  0  0
   41.1650   84.2720   59.2330 N   0  0  0  0  0  0  0  0  0  0  0  0
   41.5370   85.4910   58.7780 C   0  0  0  0  0  0  0  0  0  0  0  0
   41.8580   85.3320   57.4440 C   0  0  0  0  0  0  0  0  0  0  0  0
   41.6800   84.0440   57.1160 N   0  0  0  0  0  0  0  0  0  0  0  0
   41.2620   83.3790   58.1810 C   0  0  0  0  0  0  0  0  0  0  0  0
   41.1060   83.4390   62.8830 C   0  0  0  0  0  0  0  0  0  0  0  0
   41.6070   83.7570   61.5980 C   0  0  0  0  0  0  0  0  0  0  0  0
   40.7480   83.9420   60.5400 C   0  0  0  0  0  0  0  0  0  0  0  0
   39.4680   83.8040   60.8200 N   0  0  0  0  0  0  0  0  0  0  0  0
   38.9630   83.5000   62.0440 C   0  0  0  0  0  0  0  0  0  0  0  0
   39.8070   83.3200   63.0730 N   0  0  0  0  0  0  0  0  0  0  0  0
   40.2814   78.7890   57.0401 H   0  0  0  0  0  0  0  0  0  0  0  0
   39.3515   79.1866   58.4606 H   0  0  0  0  0  0  0  0  0  0  0  0
   36.6737   80.6646   55.6464 H   0  0  0  0  0  0  0  0  0  0  0  0
   38.0755   77.6235   54.0942 H   0  0  0  0  0  0  0  0  0  0  0  0
   37.7751   77.8975   51.4193 H   0  0  0  0  0  0  0  0  0  0  0  0
   35.2022   79.7486   50.5294 H   0  0  0  0  0  0  0  0  0  0  0  0
   33.4257   80.5369   49.1452 H   0  0  0  0  0  0  0  0  0  0  0  0
   33.7718   81.5740   47.7200 H   0  0  0  0  0  0  0  0  0  0  0  0
   34.2763   79.8500   47.7200 H   0  0  0  0  0  0  0  0  0  0  0  0
   38.1089   83.0274   48.6891 H   0  0  0  0  0  0  0  0  0  0  0  0
   40.8351   81.6168   59.2005 H   0  0  0  0  0  0  0  0  0  0  0  0
   41.9314   81.4595   57.7717 H   0  0  0  0  0  0  0  0  0  0  0  0
   41.5761   86.4254   59.3571 H   0  0  0  0  0  0  0  0  0  0  0  0
   42.2014   86.1270   56.7658 H   0  0  0  0  0  0  0  0  0  0  0  0
   41.8006   83.2912   63.7231 H   0  0  0  0  0  0  0  0  0  0  0  0
   42.6916   83.8569   61.4444 H   0  0  0  0  0  0  0  0  0  0  0  0
   37.8771   83.4026   62.1903 H   0  0  0  0  0  0  0  0  0  0  0  0
  1  2  1  0
  1 20  1  0
  3  2  1  0
  4  5  1  0
  4  3  1  0
  5  1  2  0
  6  4  1  0
  7  6  2  0
  8  7  1  0
  9  8  2  0
  9 10  1  0
 10  6  1  0
 11  9  1  0
 12 11  1  0
 13 12  2  0
 14 13  1  0
 15 13  1  0
 15 17  1  0
 16 15  2  0
 17 18  1  0
 18 11  1  0
 18 19  2  0
 20 21  1  0
 21 26  1  0
 22 29  1  0
 23 22  1  0
 24 23  2  0
 25 24  1  0
 25 26  2  0
 26 22  1  0
 27 32  2  0
 28 27  1  0
 29 30  1  0
 29 28  2  0
 30 31  2  0
 31 32  1  0
  2 33  1  0
  2 34  1  0
  4 35  1  1
  7 36  1  0
  8 37  1  0
 12 38  1  0
 14 39  1  0
 14 40  1  0
 14 41  1  0
 17 42  1  0
 21 43  1  0
 21 44  1  0
 23 45  1  0
 24 46  1  0
 27 47  1  0
 28 48  1  0
 31 49  1  0
M  END
>  <Score>  (1) 
-7.0776

$$$$
