
     RDKit          3D

 50 53  0  0  1  0  0  0  0  0999 V2000
   39.6960   83.6210   60.0750 C   0  0  0  0  0  0  0  0  0  0  0  0
   40.0520   82.2600   60.0920 C   0  0  0  0  0  0  0  0  0  0  0  0
   40.7380   81.7970   61.2210 C   0  0  0  0  0  0  0  0  0  0  0  0
   40.9830   82.7090   62.1930 N   0  0  0  0  0  0  0  0  0  0  0  0
   40.6400   83.9810   62.1660 C   0  0  0  0  0  0  0  0  0  0  0  0
   39.9890   84.4270   61.0830 N   0  0  0  0  0  0  0  0  0  0  0  0
   40.9640   84.8010   63.2900 N   0  0  0  0  0  0  0  0  0  0  0  0
   40.4170   84.4310   64.5660 C   0  0  0  0  0  0  0  0  0  0  0  0
   40.3100   83.2150   64.9430 N   0  0  0  0  0  0  0  0  0  0  0  0
   39.9770   85.4750   65.4500 N   0  0  0  0  0  0  0  0  0  0  0  0
   40.6000   82.3840   64.4470 H   0  0  0  0  0  0  0  0  0  0  0  0
   41.1730   80.4560   61.3670 N   0  0  0  0  0  0  0  0  0  0  0  0
   40.4880   79.3740   62.0330 C   0  0  0  0  0  0  0  0  0  0  0  0
   41.3980   78.1890   61.8480 C   0  0  0  0  0  0  0  0  0  0  0  0
   42.7480   78.8580   61.8710 C   0  0  0  0  0  0  0  0  0  0  0  0
   42.4150   79.9610   60.8480 C   0  0  2  0  0  0  0  0  0  0  0  0
   43.5390   80.9370   60.8890 C   0  0  1  0  0  0  0  0  0  0  0  0
   43.2710   81.9980   59.8610 C   0  0  0  0  0  0  0  0  0  0  0  0
   43.9030   83.2820   60.2920 C   0  0  0  0  0  0  0  0  0  0  0  0
   44.0710   83.1310   61.7750 C   0  0  0  0  0  0  0  0  0  0  0  0
   43.6640   81.7270   62.1260 C   0  0  2  0  0  0  0  0  0  0  0  0
   44.9920   81.2050   62.6990 C   0  0  0  0  0  0  0  0  0  0  0  0
   45.9800   81.9380   63.3130 C   0  0  0  0  0  0  0  0  0  0  0  0
   47.1270   81.3700   63.7900 C   0  0  0  0  0  0  0  0  0  0  0  0
   47.2470   80.0270   63.6280 N   0  0  0  0  0  0  0  0  0  0  0  0
   46.2740   79.3140   63.0250 C   0  0  0  0  0  0  0  0  0  0  0  0
   45.1500   79.8890   62.5610 N   0  0  0  0  0  0  0  0  0  0  0  0
   39.1612   84.0250   59.2028 H   0  0  0  0  0  0  0  0  0  0  0  0
   39.8026   81.5900   59.2560 H   0  0  0  0  0  0  0  0  0  0  0  0
   41.5687   85.6287   63.1892 H   0  0  0  0  0  0  0  0  0  0  0  0
   39.5810   85.2374   66.3706 H   0  0  0  0  0  0  0  0  0  0  0  0
   40.0577   86.4609   65.1630 H   0  0  0  0  0  0  0  0  0  0  0  0
   40.3517   79.5978   63.1013 H   0  0  0  0  0  0  0  0  0  0  0  0
   39.4815   79.1991   61.6252 H   0  0  0  0  0  0  0  0  0  0  0  0
   41.2136   77.6838   60.8884 H   0  0  0  0  0  0  0  0  0  0  0  0
   41.2710   77.3973   62.6011 H   0  0  0  0  0  0  0  0  0  0  0  0
   43.0022   79.2631   62.8616 H   0  0  0  0  0  0  0  0  0  0  0  0
   43.6200   78.2243   61.6519 H   0  0  0  0  0  0  0  0  0  0  0  0
   42.3097   79.6753   59.7910 H   0  0  0  0  0  0  0  0  0  0  0  0
   44.4365   80.3155   60.7541 H   0  0  0  0  0  0  0  0  0  0  0  0
   42.1854   82.1409   59.7564 H   0  0  0  0  0  0  0  0  0  0  0  0
   43.6953   81.6872   58.8949 H   0  0  0  0  0  0  0  0  0  0  0  0
   44.8776   83.4209   59.8013 H   0  0  0  0  0  0  0  0  0  0  0  0
   43.2970   84.1601   60.0243 H   0  0  0  0  0  0  0  0  0  0  0  0
   45.1212   83.3004   62.0548 H   0  0  0  0  0  0  0  0  0  0  0  0
   43.4538   83.8639   62.3153 H   0  0  0  0  0  0  0  0  0  0  0  0
   42.7501   81.6764   62.7361 H   0  0  0  0  0  0  0  0  0  0  0  0
   45.8414   83.0235   63.4244 H   0  0  0  0  0  0  0  0  0  0  0  0
   47.9106   81.9677   64.2786 H   0  0  0  0  0  0  0  0  0  0  0  0
   46.4036   78.2279   62.9089 H   0  0  0  0  0  0  0  0  0  0  0  0
  1  2  2  0
  1  6  1  0
  2  3  1  0
  3 12  1  0
  3  4  2  0
  5  4  1  0
  5  7  1  0
  6  5  2  0
  7  8  1  0
  8  9  2  0
  8 10  1  0
 11  9  1  0
 12 13  1  0
 14 15  1  0
 14 13  1  0
 16 17  1  0
 16 12  1  0
 16 15  1  0
 17 21  1  0
 18 19  1  0
 18 17  1  0
 19 20  1  0
 20 21  1  0
 21 22  1  0
 22 23  2  0
 23 24  1  0
 25 24  2  0
 26 25  1  0
 27 22  1  0
 27 26  2  0
  1 28  1  0
  2 29  1  0
  7 30  1  0
 10 31  1  0
 10 32  1  0
 13 33  1  0
 13 34  1  0
 14 35  1  0
 14 36  1  0
 15 37  1  0
 15 38  1  0
 16 39  1  6
 17 40  1  6
 18 41  1  0
 18 42  1  0
 19 43  1  0
 19 44  1  0
 20 45  1  0
 20 46  1  0
 21 47  1  1
 23 48  1  0
 24 49  1  0
 26 50  1  0
M  END
>  <Score>  (1) 
-7.23137

$$$$
