
     RDKit          3D

 45 49  0  0  1  0  0  0  0  0999 V2000
   41.1680   77.8160   61.0440 C   0  0  0  0  0  0  0  0  0  0  0  0
   40.8680   77.8020   59.6690 C   0  0  0  0  0  0  0  0  0  0  0  0
   40.3080   78.9270   59.1220 C   0  0  0  0  0  0  0  0  0  0  0  0
   40.0750   80.0100   59.9630 N   0  0  0  0  0  0  0  0  0  0  0  0
   40.3870   79.9610   61.2820 C   0  0  0  0  0  0  0  0  0  0  0  0
   40.9190   78.8880   61.8000 N   0  0  0  0  0  0  0  0  0  0  0  0
   39.9830   78.9540   57.7230 N   0  0  0  0  0  0  0  0  0  0  0  0
   40.7130   79.4640   56.7060 C   0  0  0  0  0  0  0  0  0  0  0  0
   40.0640   79.2730   55.5390 N   0  0  0  0  0  0  0  0  0  0  0  0
   38.9020   78.6280   55.8390 C   0  0  0  0  0  0  0  0  0  0  0  0
   37.9190   78.2210   54.9760 C   0  0  0  0  0  0  0  0  0  0  0  0
   37.9800   78.4060   53.7530 O   0  0  0  0  0  0  0  0  0  0  0  0
   36.8620   77.5940   55.5590 N   0  0  0  0  0  0  0  0  0  0  0  0
   36.8060   77.3980   56.8910 C   0  0  0  0  0  0  0  0  0  0  0  0
   35.6740   76.7320   57.4480 N   0  0  0  0  0  0  0  0  0  0  0  0
   37.7860   77.8040   57.7430 N   0  0  0  0  0  0  0  0  0  0  0  0
   38.8580   78.4320   57.2220 C   0  0  0  0  0  0  0  0  0  0  0  0
   42.0240   80.1150   56.9530 C   0  0  0  0  0  0  0  0  0  0  0  0
   42.6430   80.4660   55.7690 F   0  0  0  0  0  0  0  0  0  0  0  0
   42.9200   79.2610   57.5960 F   0  0  0  0  0  0  0  0  0  0  0  0
   41.8850   81.2120   57.7540 F   0  0  0  0  0  0  0  0  0  0  0  0
   39.9530   81.3040   61.5640 C   0  0  0  0  0  0  0  0  0  0  0  0
   39.5770   82.4670   61.8080 N   0  0  0  0  0  0  0  0  0  0  0  0
   38.9590   83.4740   61.9610 C   0  0  0  0  0  0  0  0  0  0  0  0
   40.1350   83.9920   62.3310 N   0  0  0  0  0  0  0  0  0  0  0  0
   41.2950   83.2620   62.3560 C   0  0  0  0  0  0  0  0  0  0  0  0
   42.4480   84.0030   62.7850 C   0  0  0  0  0  0  0  0  0  0  0  0
   43.6070   83.2760   62.8180 C   0  0  0  0  0  0  0  0  0  0  0  0
   43.7530   81.9560   62.4890 C   0  0  0  0  0  0  0  0  0  0  0  0
   42.5550   81.4080   62.1040 C   0  0  0  0  0  0  0  0  0  0  0  0
   41.2230   81.8850   61.9680 C   0  0  0  0  0  0  0  0  0  0  0  0
   41.6173   76.9245   61.5058 H   0  0  0  0  0  0  0  0  0  0  0  0
   41.0766   76.9153   59.0523 H   0  0  0  0  0  0  0  0  0  0  0  0
   36.0864   77.2613   54.9686 H   0  0  0  0  0  0  0  0  0  0  0  0
   35.6174   76.5751   58.4644 H   0  0  0  0  0  0  0  0  0  0  0  0
   34.9133   76.4080   56.8337 H   0  0  0  0  0  0  0  0  0  0  0  0
   40.7455   81.6973   60.9104 H   0  0  0  0  0  0  0  0  0  0  0  0
   39.9480   82.4630   62.7688 H   0  0  0  0  0  0  0  0  0  0  0  0
   38.5246   83.9020   61.0455 H   0  0  0  0  0  0  0  0  0  0  0  0
   38.0516   83.5362   62.5797 H   0  0  0  0  0  0  0  0  0  0  0  0
   40.1708   84.9830   62.6094 H   0  0  0  0  0  0  0  0  0  0  0  0
   42.4033   85.0661   63.0638 H   0  0  0  0  0  0  0  0  0  0  0  0
   44.5140   83.8073   63.1422 H   0  0  0  0  0  0  0  0  0  0  0  0
   44.7051   81.4064   62.5279 H   0  0  0  0  0  0  0  0  0  0  0  0
   42.6480   80.3450   61.8367 H   0  0  0  0  0  0  0  0  0  0  0  0
  1  6  2  0
  2  1  1  0
  3  2  2  0
  3  4  1  0
  4  5  2  0
  5  6  1  0
  7  3  1  0
  8 18  1  0
  8  7  1  0
  9 10  1  0
  9  8  2  0
 10 17  2  0
 11 13  1  0
 11 10  1  0
 12 11  2  0
 13 14  1  0
 14 15  1  0
 14 16  2  0
 17  7  1  0
 17 16  1  0
 18 20  1  0
 18 21  1  0
 19 18  1  0
 22  5  1  0
 22 23  1  0
 22 31  1  0
 23 24  1  0
 24 25  1  0
 25 26  1  0
 26 27  2  0
 27 28  1  0
 29 28  2  0
 30 29  1  0
 31 30  2  0
 31 26  1  0
  1 32  1  0
  2 33  1  0
 13 34  1  0
 15 35  1  0
 15 36  1  0
 22 37  1  0
 23 38  1  0
 24 39  1  0
 24 40  1  0
 25 41  1  0
 27 42  1  0
 28 43  1  0
 29 44  1  0
 30 45  1  0
M  END
>  <Score>  (1) 
-7.07314

$$$$
