
     RDKit          3D

 50 54  0  0  1  0  0  0  0  0999 V2000
   41.3230   79.6480   62.0700 C   0  0  0  0  0  0  0  0  0  0  0  0
   41.5020   78.2400   61.5680 C   0  0  0  0  0  0  0  0  0  0  0  0
   42.6940   77.6050   61.7240 C   0  0  0  0  0  0  0  0  0  0  0  0
   42.8020   76.3130   61.2670 C   0  0  0  0  0  0  0  0  0  0  0  0
   41.7650   75.7200   60.6930 N   0  0  0  0  0  0  0  0  0  0  0  0
   40.5900   76.3940   60.5550 C   0  0  0  0  0  0  0  0  0  0  0  0
   40.4810   77.6340   60.9930 N   0  0  0  0  0  0  0  0  0  0  0  0
   39.4220   75.7860   59.9120 C   0  0  1  0  0  0  0  0  0  0  0  0
   38.3620   75.5650   60.6210 O   0  0  0  0  0  0  0  0  0  0  0  0
   39.1260   75.3190   58.5470 C   0  0  0  0  0  0  0  0  0  0  0  0
   39.5450   74.1110   58.2110 N   0  0  0  0  0  0  0  0  0  0  0  0
   39.2840   73.6490   56.9520 C   0  0  0  0  0  0  0  0  0  0  0  0
   38.6190   74.3480   56.0100 N   0  0  0  0  0  0  0  0  0  0  0  0
   38.1690   75.5940   56.3150 C   0  0  0  0  0  0  0  0  0  0  0  0
   37.4710   76.3290   55.3970 C   0  0  0  0  0  0  0  0  0  0  0  0
   36.9940   77.5810   55.7190 C   0  0  0  0  0  0  0  0  0  0  0  0
   37.2500   78.0640   57.0080 C   0  0  0  0  0  0  0  0  0  0  0  0
   37.9590   77.2730   57.8760 C   0  0  0  0  0  0  0  0  0  0  0  0
   38.4460   76.0230   57.5770 C   0  0  0  0  0  0  0  0  0  0  0  0
   40.0570   80.2700   61.5140 C   0  0  0  0  0  0  0  0  0  0  0  0
   40.2360   81.7350   61.6370 C   0  0  0  0  0  0  0  0  0  0  0  0
   40.1710   82.5900   60.5020 C   0  0  0  0  0  0  0  0  0  0  0  0
   40.3490   83.9260   60.7210 C   0  0  0  0  0  0  0  0  0  0  0  0
   40.5770   84.3580   62.0000 N   0  0  0  0  0  0  0  0  0  0  0  0
   40.6320   83.5250   63.0550 C   0  0  0  0  0  0  0  0  0  0  0  0
   40.4600   82.2100   62.8670 N   0  0  0  0  0  0  0  0  0  0  0  0
   40.2920   84.8280   59.5980 C   0  0  0  0  0  0  0  0  0  0  0  0
   41.3630   84.9940   58.7480 C   0  0  0  0  0  0  0  0  0  0  0  0
   41.1980   85.8860   57.7050 C   0  0  0  0  0  0  0  0  0  0  0  0
   40.0300   86.5720   57.5240 N   0  0  0  0  0  0  0  0  0  0  0  0
   39.0010   86.3790   58.3860 C   0  0  0  0  0  0  0  0  0  0  0  0
   39.1440   85.5070   59.4150 N   0  0  0  0  0  0  0  0  0  0  0  0
   41.2632   79.6328   63.1683 H   0  0  0  0  0  0  0  0  0  0  0  0
   42.1822   80.2489   61.7374 H   0  0  0  0  0  0  0  0  0  0  0  0
   43.5466   78.1100   62.2016 H   0  0  0  0  0  0  0  0  0  0  0  0
   43.7520   75.7697   61.3781 H   0  0  0  0  0  0  0  0  0  0  0  0
   39.8017   74.7858   60.1680 H   0  0  0  0  0  0  0  0  0  0  0  0
   38.5923   75.6130   61.5826 H   0  0  0  0  0  0  0  0  0  0  0  0
   39.6394   72.6415   56.6898 H   0  0  0  0  0  0  0  0  0  0  0  0
   37.2888   75.9174   54.3933 H   0  0  0  0  0  0  0  0  0  0  0  0
   36.4313   78.1805   54.9883 H   0  0  0  0  0  0  0  0  0  0  0  0
   36.8904   79.0563   57.3180 H   0  0  0  0  0  0  0  0  0  0  0  0
   38.1518   77.6678   58.8845 H   0  0  0  0  0  0  0  0  0  0  0  0
   39.1824   79.9414   62.0947 H   0  0  0  0  0  0  0  0  0  0  0  0
   39.8852   79.9706   60.4696 H   0  0  0  0  0  0  0  0  0  0  0  0
   39.9857   82.1927   59.4931 H   0  0  0  0  0  0  0  0  0  0  0  0
   40.8168   83.9209   64.0645 H   0  0  0  0  0  0  0  0  0  0  0  0
   42.3042   84.4433   58.8922 H   0  0  0  0  0  0  0  0  0  0  0  0
   42.0286   86.0479   57.0023 H   0  0  0  0  0  0  0  0  0  0  0  0
   38.0563   86.9262   58.2515 H   0  0  0  0  0  0  0  0  0  0  0  0
  2  3  2  0
  2  1  1  0
  4  3  1  0
  5  4  2  0
  6  5  1  0
  6  7  2  0
  7  2  1  0
  8  6  1  0
  8  9  1  0
 10  8  1  0
 11 10  2  0
 12 11  1  0
 13 14  1  0
 13 12  2  0
 14 19  2  0
 15 16  2  0
 15 14  1  0
 16 17  1  0
 17 18  2  0
 19 18  1  0
 19 10  1  0
 20 21  1  0
 20  1  1  0
 21 26  2  0
 22 23  2  0
 22 21  1  0
 23 24  1  0
 24 25  2  0
 26 25  1  0
 27 23  1  0
 28 27  2  0
 29 28  1  0
 30 29  2  0
 30 31  1  0
 31 32  2  0
 32 27  1  0
  1 33  1  0
  1 34  1  0
  3 35  1  0
  4 36  1  0
  8 37  1  1
  9 38  1  0
 12 39  1  0
 15 40  1  0
 16 41  1  0
 17 42  1  0
 18 43  1  0
 20 44  1  0
 20 45  1  0
 22 46  1  0
 25 47  1  0
 28 48  1  0
 29 49  1  0
 31 50  1  0
M  END
>  <Score>  (1) 
-7.73101

$$$$
