
     RDKit          3D

 53 57  0  0  0  0  0  0  0  0999 V2000
   43.0950   85.1300   59.3730 C   0  0  0  0  0  0  0  0  0  0  0  0
   43.4190   86.3380   59.3160 O   0  0  0  0  0  0  0  0  0  0  0  0
   42.7510   84.4920   63.0320 C   0  0  0  0  0  0  0  0  0  0  0  0
   43.0050   85.1670   61.8320 C   0  0  0  0  0  0  0  0  0  0  0  0
   42.8470   84.4840   60.6480 C   0  0  0  0  0  0  0  0  0  0  0  0
   42.4550   83.1990   60.7070 N   0  0  0  0  0  0  0  0  0  0  0  0
   42.2100   82.5510   61.8710 C   0  0  0  0  0  0  0  0  0  0  0  0
   42.3600   83.2020   63.0220 N   0  0  0  0  0  0  0  0  0  0  0  0
   41.7950   81.1880   61.9080 N   0  0  0  0  0  0  0  0  0  0  0  0
   42.7430   80.2700   61.8620 C   0  0  0  0  0  0  0  0  0  0  0  0
   42.3360   78.9370   61.8970 C   0  0  0  0  0  0  0  0  0  0  0  0
   40.9940   78.6770   61.9760 C   0  0  0  0  0  0  0  0  0  0  0  0
   40.4470   77.3560   62.0200 N   0  0  0  0  0  0  0  0  0  0  0  0
   40.0480   79.6580   62.0220 N   0  0  0  0  0  0  0  0  0  0  0  0
   40.4520   80.9670   61.9870 C   0  0  0  0  0  0  0  0  0  0  0  0
   39.6390   81.9540   62.0250 O   0  0  0  0  0  0  0  0  0  0  0  0
   42.9660   84.3610   58.1320 C   0  0  0  0  0  0  0  0  0  0  0  0
   43.7840   84.2500   57.0230 C   0  0  0  0  0  0  0  0  0  0  0  0
   43.3980   83.4500   56.0140 C   0  0  0  0  0  0  0  0  0  0  0  0
   42.2260   82.7540   56.0610 C   0  0  0  0  0  0  0  0  0  0  0  0
   41.5820   83.2940   57.7480 S   0  0  0  0  0  0  0  0  0  0  0  0
   41.5420   81.8830   55.2500 C   0  0  0  0  0  0  0  0  0  0  0  0
   41.9960   81.5390   53.9770 C   0  0  0  0  0  0  0  0  0  0  0  0
   41.2760   80.6490   53.1790 C   0  0  0  0  0  0  0  0  0  0  0  0
   40.1170   80.1180   53.6640 N   0  0  0  0  0  0  0  0  0  0  0  0
   39.6870   80.4520   54.8840 C   0  0  0  0  0  0  0  0  0  0  0  0
   40.3940   81.3050   55.6280 N   0  0  0  0  0  0  0  0  0  0  0  0
   38.4700   79.8580   55.3230 N   0  0  0  0  0  0  0  0  0  0  0  0
   37.3420   79.7970   54.4440 C   0  0  0  0  0  0  0  0  0  0  0  0
   37.1070   78.3420   54.0780 C   0  0  0  0  0  0  0  0  0  0  0  0
   37.7280   77.4230   55.1170 C   0  0  0  0  0  0  0  0  0  0  0  0
   37.5300   77.9520   56.5230 C   0  0  0  0  0  0  0  0  0  0  0  0
   38.2690   79.2870   56.6390 C   0  0  0  0  0  0  0  0  0  0  0  0
   42.8714   85.0184   63.9903 H   0  0  0  0  0  0  0  0  0  0  0  0
   43.3237   86.2198   61.8356 H   0  0  0  0  0  0  0  0  0  0  0  0
   43.8063   80.5447   61.7989 H   0  0  0  0  0  0  0  0  0  0  0  0
   43.0707   78.1190   61.8622 H   0  0  0  0  0  0  0  0  0  0  0  0
   39.4274   77.2225   62.0794 H   0  0  0  0  0  0  0  0  0  0  0  0
   41.0727   76.5383   61.9923 H   0  0  0  0  0  0  0  0  0  0  0  0
   44.7319   84.8053   56.9674 H   0  0  0  0  0  0  0  0  0  0  0  0
   44.0434   83.3543   55.1284 H   0  0  0  0  0  0  0  0  0  0  0  0
   42.9323   81.9742   53.5976 H   0  0  0  0  0  0  0  0  0  0  0  0
   41.6372   80.3801   52.1754 H   0  0  0  0  0  0  0  0  0  0  0  0
   36.4531   80.2025   54.9494 H   0  0  0  0  0  0  0  0  0  0  0  0
   37.5321   80.3918   53.5384 H   0  0  0  0  0  0  0  0  0  0  0  0
   36.0247   78.1520   54.0277 H   0  0  0  0  0  0  0  0  0  0  0  0
   37.5738   78.1415   53.1023 H   0  0  0  0  0  0  0  0  0  0  0  0
   37.2599   76.4305   55.0403 H   0  0  0  0  0  0  0  0  0  0  0  0
   38.8089   77.3652   54.9214 H   0  0  0  0  0  0  0  0  0  0  0  0
   36.4577   78.1017   56.7171 H   0  0  0  0  0  0  0  0  0  0  0  0
   37.9231   77.2345   57.2582 H   0  0  0  0  0  0  0  0  0  0  0  0
   39.2456   79.1224   57.1177 H   0  0  0  0  0  0  0  0  0  0  0  0
   37.6684   79.9807   57.2457 H   0  0  0  0  0  0  0  0  0  0  0  0
  1  5  1  0
  2  1  2  0
  4  3  2  0
  5  6  2  0
  5  4  1  0
  6  7  1  0
  7  9  1  0
  7  8  2  0
  8  3  1  0
  9 15  1  0
 10 11  2  0
 10  9  1  0
 11 12  1  0
 12 13  1  0
 12 14  2  0
 15 14  1  0
 15 16  2  0
 17  1  1  0
 18 17  2  0
 19 20  2  0
 19 18  1  0
 20 21  1  0
 21 17  1  0
 22 27  1  0
 22 20  1  0
 23 22  2  0
 24 25  2  0
 24 23  1  0
 25 26  1  0
 26 28  1  0
 26 27  2  0
 28 33  1  0
 29 28  1  0
 30 29  1  0
 30 31  1  0
 31 32  1  0
 32 33  1  0
  3 34  1  0
  4 35  1  0
 10 36  1  0
 11 37  1  0
 13 38  1  0
 13 39  1  0
 18 40  1  0
 19 41  1  0
 23 42  1  0
 24 43  1  0
 29 44  1  0
 29 45  1  0
 30 46  1  0
 30 47  1  0
 31 48  1  0
 31 49  1  0
 32 50  1  0
 32 51  1  0
 33 52  1  0
 33 53  1  0
M  END
>  <Score>  (1) 
-7.31911

$$$$
