
     RDKit          3D

 37 40  0  0  0  0  0  0  0  0999 V2000
   39.9750   82.2700   60.4030 C   0  0  0  0  0  0  0  0  0  0  0  0
   40.4560   83.3060   59.5430 C   0  0  0  0  0  0  0  0  0  0  0  0
   40.1420   84.6260   59.8480 C   0  0  0  0  0  0  0  0  0  0  0  0
   39.3680   84.8480   60.9960 N   0  0  0  0  0  0  0  0  0  0  0  0
   38.9280   83.8130   61.8000 C   0  0  0  0  0  0  0  0  0  0  0  0
   39.2140   82.5080   61.5280 N   0  0  0  0  0  0  0  0  0  0  0  0
   40.3250   80.9580   60.0260 N   0  0  0  0  0  0  0  0  0  0  0  0
   40.7010   80.5320   58.8190 C   0  0  0  0  0  0  0  0  0  0  0  0
   41.0030   79.2370   58.8360 N   0  0  0  0  0  0  0  0  0  0  0  0
   40.8070   78.8050   60.1050 C   0  0  0  0  0  0  0  0  0  0  0  0
   40.9490   77.5390   60.6360 C   0  0  0  0  0  0  0  0  0  0  0  0
   41.3520   76.6030   59.8770 O   0  0  0  0  0  0  0  0  0  0  0  0
   40.6510   77.3730   61.9350 N   0  0  0  0  0  0  0  0  0  0  0  0
   40.2380   78.4120   62.6540 C   0  0  0  0  0  0  0  0  0  0  0  0
   39.9400   78.0960   63.9770 N   0  0  0  0  0  0  0  0  0  0  0  0
   40.0860   79.6710   62.1760 N   0  0  0  0  0  0  0  0  0  0  0  0
   40.3740   79.9050   60.8590 C   0  0  0  0  0  0  0  0  0  0  0  0
   40.7600   81.1570   57.4840 C   0  0  0  0  0  0  0  0  0  0  0  0
   39.7790   80.5310   56.5470 N   0  0  0  0  0  0  0  0  0  0  0  0
   38.7710   79.9460   57.2190 C   0  0  0  0  0  0  0  0  0  0  0  0
   37.7610   79.3110   56.5240 C   0  0  0  0  0  0  0  0  0  0  0  0
   37.8630   79.3220   55.1290 C   0  0  0  0  0  0  0  0  0  0  0  0
   37.0040   78.7760   54.3760 O   0  0  0  0  0  0  0  0  0  0  0  0
   38.9040   79.9280   54.5050 N   0  0  0  0  0  0  0  0  0  0  0  0
   39.8710   80.5370   55.2040 C   0  0  0  0  0  0  0  0  0  0  0  0
   40.8750   81.1250   54.7230 O   0  0  0  0  0  0  0  0  0  0  0  0
   41.0623   83.0638   58.6577 H   0  0  0  0  0  0  0  0  0  0  0  0
   40.4855   85.4588   59.2168 H   0  0  0  0  0  0  0  0  0  0  0  0
   38.3265   84.0505   62.6898 H   0  0  0  0  0  0  0  0  0  0  0  0
   40.7421   76.4448   62.3721 H   0  0  0  0  0  0  0  0  0  0  0  0
   39.6110   78.8301   64.6203 H   0  0  0  0  0  0  0  0  0  0  0  0
   40.0485   77.1282   64.3123 H   0  0  0  0  0  0  0  0  0  0  0  0
   40.5304   82.2285   57.5797 H   0  0  0  0  0  0  0  0  0  0  0  0
   41.7712   81.0102   57.0766 H   0  0  0  0  0  0  0  0  0  0  0  0
   38.7515   79.9735   58.3185 H   0  0  0  0  0  0  0  0  0  0  0  0
   36.9211   78.8226   57.0397 H   0  0  0  0  0  0  0  0  0  0  0  0
   38.9517   79.9197   53.4761 H   0  0  0  0  0  0  0  0  0  0  0  0
  1  6  2  0
  2  3  2  0
  2  1  1  0
  3  4  1  0
  4  5  2  0
  6  5  1  0
  7  1  1  0
  7 17  1  0
  8  9  2  0
  8  7  1  0
  9 10  1  0
 10 11  1  0
 10 17  2  0
 11 13  1  0
 12 11  2  0
 13 14  1  0
 14 15  1  0
 16 14  2  0
 17 16  1  0
 18  8  1  0
 19 20  1  0
 19 18  1  0
 21 20  2  0
 22 21  1  0
 23 22  2  0
 24 22  1  0
 24 25  1  0
 25 19  1  0
 26 25  2  0
  2 27  1  0
  3 28  1  0
  5 29  1  0
 13 30  1  0
 15 31  1  0
 15 32  1  0
 18 33  1  0
 18 34  1  0
 20 35  1  0
 21 36  1  0
 24 37  1  0
M  END
>  <Score>  (1) 
-7.27003

$$$$
