
     RDKit          3D

 45 49  0  0  1  0  0  0  0  0999 V2000
   40.5050   80.4310   61.1740 N   0  0  0  0  0  0  0  0  0  0  0  0
   41.2230   80.0150   62.2430 C   0  0  0  0  0  0  0  0  0  0  0  0
   41.5390   78.6920   62.1010 N   0  0  0  0  0  0  0  0  0  0  0  0
   41.0250   78.2590   60.9430 C   0  0  0  0  0  0  0  0  0  0  0  0
   41.0690   77.1030   60.1920 C   0  0  2  0  0  0  0  0  0  0  0  0
   40.1740   76.9400   59.1780 N   0  0  0  0  0  0  0  0  0  0  0  0
   39.5780   77.9890   58.6230 C   0  0  0  0  0  0  0  0  0  0  0  0
   39.6900   79.1730   59.2390 N   0  0  0  0  0  0  0  0  0  0  0  0
   40.3890   79.3460   60.3910 C   0  0  0  0  0  0  0  0  0  0  0  0
   38.8700   77.8200   57.3980 N   0  0  0  0  0  0  0  0  0  0  0  0
   38.0030   76.6730   57.2780 C   0  0  0  0  0  0  0  0  0  0  0  0
   36.6200   77.2400   57.0690 C   0  0  0  0  0  0  0  0  0  0  0  0
   36.6240   77.9400   55.7360 C   0  0  0  0  0  0  0  0  0  0  0  0
   37.6660   78.9990   55.5950 C   0  0  0  0  0  0  0  0  0  0  0  0
   38.9550   78.7000   56.2770 C   0  0  0  0  0  0  0  0  0  0  0  0
   40.0330   81.7520   60.9920 C   0  0  0  0  0  0  0  0  0  0  0  0
   40.2230   82.5310   59.8310 C   0  0  0  0  0  0  0  0  0  0  0  0
   39.7100   83.8170   59.8050 C   0  0  0  0  0  0  0  0  0  0  0  0
   39.0450   84.2730   60.9010 N   0  0  0  0  0  0  0  0  0  0  0  0
   38.8830   83.4930   61.9990 C   0  0  0  0  0  0  0  0  0  0  0  0
   39.3770   82.2420   62.0350 N   0  0  0  0  0  0  0  0  0  0  0  0
   41.4400   75.9250   60.9270 N   0  0  0  0  0  0  0  0  0  0  0  0
   40.8510   74.6420   60.8010 C   0  0  0  0  0  0  0  0  0  0  0  0
   39.7610   73.9960   60.3540 N   0  0  0  0  0  0  0  0  0  0  0  0
   39.8910   72.7060   60.5680 O   0  0  0  0  0  0  0  0  0  0  0  0
   41.0550   72.4570   61.1550 C   0  0  0  0  0  0  0  0  0  0  0  0
   41.6650   73.6700   61.3050 N   0  0  0  0  0  0  0  0  0  0  0  0
   41.5093   80.6459   63.0974 H   0  0  0  0  0  0  0  0  0  0  0  0
   41.9446   77.3086   59.5587 H   0  0  0  0  0  0  0  0  0  0  0  0
   39.2244   79.9905   58.8197 H   0  0  0  0  0  0  0  0  0  0  0  0
   38.2996   76.0539   56.4185 H   0  0  0  0  0  0  0  0  0  0  0  0
   38.0516   76.0271   58.1671 H   0  0  0  0  0  0  0  0  0  0  0  0
   35.8764   76.4294   57.0670 H   0  0  0  0  0  0  0  0  0  0  0  0
   36.3577   77.9389   57.8769 H   0  0  0  0  0  0  0  0  0  0  0  0
   36.7924   77.1862   54.9528 H   0  0  0  0  0  0  0  0  0  0  0  0
   35.6510   78.4451   55.6456 H   0  0  0  0  0  0  0  0  0  0  0  0
   37.8700   79.1380   54.5231 H   0  0  0  0  0  0  0  0  0  0  0  0
   37.2605   79.8995   56.0795 H   0  0  0  0  0  0  0  0  0  0  0  0
   39.6306   78.2434   55.5387 H   0  0  0  0  0  0  0  0  0  0  0  0
   39.3149   79.6603   56.6748 H   0  0  0  0  0  0  0  0  0  0  0  0
   40.7669   82.1255   58.9651 H   0  0  0  0  0  0  0  0  0  0  0  0
   39.8372   84.4555   58.9183 H   0  0  0  0  0  0  0  0  0  0  0  0
   38.3410   83.8882   62.8708 H   0  0  0  0  0  0  0  0  0  0  0  0
   42.2056   76.0222   61.6092 H   0  0  0  0  0  0  0  0  0  0  0  0
   41.4479   71.4754   61.4584 H   0  0  0  0  0  0  0  0  0  0  0  0
  1  2  1  0
  3  2  2  0
  4  3  1  0
  5 22  1  0
  5  4  1  0
  6  5  1  0
  7  6  2  0
  7  8  1  0
  8  9  1  0
  9  4  2  0
  9  1  1  0
 10  7  1  0
 11 10  1  0
 12 11  1  0
 13 12  1  0
 14 13  1  0
 14 15  1  0
 15 10  1  0
 16  1  1  0
 16 21  1  0
 17 16  2  0
 18 17  1  0
 18 19  2  0
 19 20  1  0
 20 21  2  0
 23 22  1  0
 23 27  1  0
 24 25  1  0
 24 23  2  0
 25 26  1  0
 26 27  2  0
  2 28  1  0
  5 29  1  6
  8 30  1  0
 11 31  1  0
 11 32  1  0
 12 33  1  0
 12 34  1  0
 13 35  1  0
 13 36  1  0
 14 37  1  0
 14 38  1  0
 15 39  1  0
 15 40  1  0
 17 41  1  0
 18 42  1  0
 20 43  1  0
 22 44  1  0
 26 45  1  0
M  END
>  <Score>  (1) 
-7.59794

$$$$
