
     RDKit          3D

 42 46  0  0  0  0  0  0  0  0999 V2000
   40.5580   80.6680   60.1030 C   0  0  0  0  0  0  0  0  0  0  0  0
   41.5910   80.0090   60.7350 C   0  0  0  0  0  0  0  0  0  0  0  0
   41.7950   78.6870   60.3960 C   0  0  0  0  0  0  0  0  0  0  0  0
   40.9970   78.0890   59.4760 N   0  0  0  0  0  0  0  0  0  0  0  0
   39.9810   78.7580   58.8610 C   0  0  0  0  0  0  0  0  0  0  0  0
   39.7960   80.0530   59.2060 N   0  0  0  0  0  0  0  0  0  0  0  0
   40.3170   82.0540   60.4550 C   0  0  0  0  0  0  0  0  0  0  0  0
   39.4690   82.3770   61.5170 C   0  0  0  0  0  0  0  0  0  0  0  0
   39.3050   83.6990   61.7700 C   0  0  0  0  0  0  0  0  0  0  0  0
   39.8990   84.6850   61.0710 N   0  0  0  0  0  0  0  0  0  0  0  0
   40.7220   84.3490   60.0390 C   0  0  0  0  0  0  0  0  0  0  0  0
   40.9000   83.0460   59.7690 N   0  0  0  0  0  0  0  0  0  0  0  0
   41.4110   85.2870   59.2210 N   0  0  0  0  0  0  0  0  0  0  0  0
   40.8710   85.7990   58.0790 C   0  0  0  0  0  0  0  0  0  0  0  0
   41.7160   86.6540   57.5000 N   0  0  0  0  0  0  0  0  0  0  0  0
   42.8180   86.6840   58.2940 C   0  0  0  0  0  0  0  0  0  0  0  0
   42.6190   85.8460   59.3410 N   0  0  0  0  0  0  0  0  0  0  0  0
   39.2440   77.9500   57.9130 C   0  0  0  0  0  0  0  0  0  0  0  0
   39.1540   76.5820   58.0500 C   0  0  0  0  0  0  0  0  0  0  0  0
   38.4740   75.7570   57.1920 C   0  0  0  0  0  0  0  0  0  0  0  0
   37.8160   76.2710   56.1030 C   0  0  0  0  0  0  0  0  0  0  0  0
   37.8690   77.6290   55.9140 C   0  0  0  0  0  0  0  0  0  0  0  0
   37.2070   78.1410   54.8200 C   0  0  0  0  0  0  0  0  0  0  0  0
   37.2100   79.4830   54.5590 C   0  0  0  0  0  0  0  0  0  0  0  0
   37.9080   80.2920   55.4470 C   0  0  0  0  0  0  0  0  0  0  0  0
   38.5550   79.7380   56.5270 C   0  0  0  0  0  0  0  0  0  0  0  0
   38.5660   78.4020   56.8080 C   0  0  0  0  0  0  0  0  0  0  0  0
   42.2253   80.5153   61.4775 H   0  0  0  0  0  0  0  0  0  0  0  0
   42.6061   78.1169   60.8726 H   0  0  0  0  0  0  0  0  0  0  0  0
   38.9634   81.6035   62.1137 H   0  0  0  0  0  0  0  0  0  0  0  0
   38.6432   83.9849   62.6009 H   0  0  0  0  0  0  0  0  0  0  0  0
   40.6550   84.9764   57.3813 H   0  0  0  0  0  0  0  0  0  0  0  0
   39.9453   86.3352   58.3350 H   0  0  0  0  0  0  0  0  0  0  0  0
   43.7206   87.2872   58.1170 H   0  0  0  0  0  0  0  0  0  0  0  0
   43.2886   85.6693   60.1034 H   0  0  0  0  0  0  0  0  0  0  0  0
   39.6636   76.1193   58.9081 H   0  0  0  0  0  0  0  0  0  0  0  0
   38.4556   74.6730   57.3782 H   0  0  0  0  0  0  0  0  0  0  0  0
   37.2668   75.6190   55.4078 H   0  0  0  0  0  0  0  0  0  0  0  0
   36.6675   77.4595   54.1458 H   0  0  0  0  0  0  0  0  0  0  0  0
   36.6851   79.9021   53.6879 H   0  0  0  0  0  0  0  0  0  0  0  0
   37.9433   81.3795   55.2858 H   0  0  0  0  0  0  0  0  0  0  0  0
   39.0968   80.4128   57.2060 H   0  0  0  0  0  0  0  0  0  0  0  0
  1  7  1  0
  1  2  2  0
  3  2  1  0
  4  3  2  0
  5  6  2  0
  5  4  1  0
  6  1  1  0
  7  8  2  0
  8  9  1  0
 10  9  2  0
 11 10  1  0
 12 11  2  0
 12  7  1  0
 13 17  1  0
 13 11  1  0
 14 13  1  0
 15 14  1  0
 15 16  2  0
 16 17  1  0
 18 19  2  0
 18  5  1  0
 20 19  1  0
 21 20  2  0
 22 21  1  0
 22 27  2  0
 23 22  1  0
 24 23  2  0
 24 25  1  0
 25 26  2  0
 26 27  1  0
 27 18  1  0
  2 28  1  0
  3 29  1  0
  8 30  1  0
  9 31  1  0
 14 32  1  0
 14 33  1  0
 16 34  1  0
 17 35  1  0
 19 36  1  0
 20 37  1  0
 21 38  1  0
 23 39  1  0
 24 40  1  0
 25 41  1  0
 26 42  1  0
M  END
>  <Score>  (1) 
-7.09047

$$$$
