
     RDKit          3D

 52 57  0  0  0  0  0  0  0  0999 V2000
   38.9490   76.1430   60.2710 C   0  0  0  0  0  0  0  0  0  0  0  0
   38.8740   75.8360   58.8150 C   0  0  0  0  0  0  0  0  0  0  0  0
   39.0780   74.5660   58.3260 C   0  0  0  0  0  0  0  0  0  0  0  0
   39.0010   74.3200   56.9600 C   0  0  0  0  0  0  0  0  0  0  0  0
   38.7160   75.4270   56.2200 C   0  0  0  0  0  0  0  0  0  0  0  0
   38.5110   76.6980   56.6870 C   0  0  0  0  0  0  0  0  0  0  0  0
   38.5970   76.8810   58.0230 N   0  0  0  0  0  0  0  0  0  0  0  0
   38.2180   77.7880   55.8200 N   0  0  0  0  0  0  0  0  0  0  0  0
   37.6100   78.8960   56.2760 C   0  0  0  0  0  0  0  0  0  0  0  0
   37.4430   79.7820   55.2650 N   0  0  0  0  0  0  0  0  0  0  0  0
   37.9540   79.2220   54.1570 C   0  0  0  0  0  0  0  0  0  0  0  0
   38.0910   79.6010   52.8290 C   0  0  0  0  0  0  0  0  0  0  0  0
   37.6630   80.7240   52.4800 O   0  0  0  0  0  0  0  0  0  0  0  0
   38.6790   78.7620   51.9300 N   0  0  0  0  0  0  0  0  0  0  0  0
   39.1370   77.5530   52.3160 C   0  0  0  0  0  0  0  0  0  0  0  0
   39.7610   76.6270   51.4350 N   0  0  0  0  0  0  0  0  0  0  0  0
   39.0120   77.1650   53.6180 N   0  0  0  0  0  0  0  0  0  0  0  0
   38.4290   77.9940   54.5070 C   0  0  0  0  0  0  0  0  0  0  0  0
   40.3610   76.3280   60.7010 C   0  0  0  0  0  0  0  0  0  0  0  0
   40.5360   80.0200   60.7680 C   0  0  0  0  0  0  0  0  0  0  0  0
   41.7370   80.2440   61.4490 C   0  0  0  0  0  0  0  0  0  0  0  0
   42.4400   79.1010   61.8600 C   0  0  0  0  0  0  0  0  0  0  0  0
   41.9330   77.8860   61.5830 N   0  0  0  0  0  0  0  0  0  0  0  0
   40.7860   77.7030   60.9310 C   0  0  0  0  0  0  0  0  0  0  0  0
   40.0960   78.7630   60.5300 N   0  0  0  0  0  0  0  0  0  0  0  0
   42.2170   81.5270   61.7100 N   0  0  0  0  0  0  0  0  0  0  0  0
   43.2810   82.0720   61.0820 C   0  0  0  0  0  0  0  0  0  0  0  0
   43.5010   83.3160   61.5480 N   0  0  0  0  0  0  0  0  0  0  0  0
   42.5760   83.5770   62.4810 C   0  0  0  0  0  0  0  0  0  0  0  0
   42.3110   84.6650   63.2880 C   0  0  0  0  0  0  0  0  0  0  0  0
   41.2530   84.5760   64.1250 N   0  0  0  0  0  0  0  0  0  0  0  0
   40.4890   83.5120   64.2200 C   0  0  0  0  0  0  0  0  0  0  0  0
   40.7630   82.4610   63.4400 N   0  0  0  0  0  0  0  0  0  0  0  0
   41.7940   82.4380   62.5530 C   0  0  0  0  0  0  0  0  0  0  0  0
   38.5056   75.3112   60.8380 H   0  0  0  0  0  0  0  0  0  0  0  0
   38.3974   77.0751   60.4631 H   0  0  0  0  0  0  0  0  0  0  0  0
   39.3030   73.7419   59.0190 H   0  0  0  0  0  0  0  0  0  0  0  0
   39.1558   73.3245   56.5183 H   0  0  0  0  0  0  0  0  0  0  0  0
   38.6426   75.2853   55.1316 H   0  0  0  0  0  0  0  0  0  0  0  0
   37.2943   79.0596   57.3170 H   0  0  0  0  0  0  0  0  0  0  0  0
   38.7746   79.0537   50.9468 H   0  0  0  0  0  0  0  0  0  0  0  0
   40.0898   75.7183   51.7915 H   0  0  0  0  0  0  0  0  0  0  0  0
   39.8841   76.8651   50.4405 H   0  0  0  0  0  0  0  0  0  0  0  0
   40.5024   75.7711   61.6390 H   0  0  0  0  0  0  0  0  0  0  0  0
   40.9750   75.9650   59.8636 H   0  0  0  0  0  0  0  0  0  0  0  0
   39.9410   80.8777   60.4212 H   0  0  0  0  0  0  0  0  0  0  0  0
   43.3927   79.1972   62.4013 H   0  0  0  0  0  0  0  0  0  0  0  0
   43.8793   81.5736   60.3050 H   0  0  0  0  0  0  0  0  0  0  0  0
   43.2046   84.8444   63.9038 H   0  0  0  0  0  0  0  0  0  0  0  0
   42.0508   85.4753   62.5911 H   0  0  0  0  0  0  0  0  0  0  0  0
   39.6443   83.4860   64.9241 H   0  0  0  0  0  0  0  0  0  0  0  0
   40.1632   81.6270   63.5146 H   0  0  0  0  0  0  0  0  0  0  0  0
  1 19  1  0
  2  1  1  0
  3  2  2  0
  4  3  1  0
  5  6  1  0
  5  4  2  0
  6  7  2  0
  7  2  1  0
  8  9  1  0
  8  6  1  0
 10  9  2  0
 11 18  2  0
 11 10  1  0
 12 11  1  0
 13 12  2  0
 14 15  1  0
 14 12  1  0
 15 17  2  0
 16 15  1  0
 17 18  1  0
 18  8  1  0
 19 24  1  0
 20 21  2  0
 21 26  1  0
 21 22  1  0
 23 22  2  0
 24 23  1  0
 25 20  1  0
 25 24  2  0
 26 34  1  0
 27 28  2  0
 27 26  1  0
 28 29  1  0
 29 34  2  0
 29 30  1  0
 30 31  1  0
 31 32  2  0
 33 32  1  0
 34 33  1  0
  1 35  1  0
  1 36  1  0
  3 37  1  0
  4 38  1  0
  5 39  1  0
  9 40  1  0
 14 41  1  0
 16 42  1  0
 16 43  1  0
 19 44  1  0
 19 45  1  0
 20 46  1  0
 22 47  1  0
 27 48  1  0
 30 49  1  0
 30 50  1  0
 32 51  1  0
 33 52  1  0
M  END
>  <Score>  (1) 
-7.83384

$$$$
