
     RDKit          3D

 39 41  0  0  0  0  0  0  0  0999 V2000
   41.1360   81.4670   60.1860 C   0  0  0  0  0  0  0  0  0  0  0  0
   42.3020   81.1900   60.9500 C   0  0  0  0  0  0  0  0  0  0  0  0
   42.6490   79.8730   61.2670 C   0  0  0  0  0  0  0  0  0  0  0  0
   41.8380   78.8970   60.8220 N   0  0  0  0  0  0  0  0  0  0  0  0
   40.7240   79.1550   60.0930 C   0  0  0  0  0  0  0  0  0  0  0  0
   40.4320   80.4190   59.8130 N   0  0  0  0  0  0  0  0  0  0  0  0
   39.8720   78.1250   59.6230 N   0  0  0  0  0  0  0  0  0  0  0  0
   39.3360   78.3070   58.3940 C   0  0  0  0  0  0  0  0  0  0  0  0
   38.5440   77.1640   58.1700 C   0  0  0  0  0  0  0  0  0  0  0  0
   38.6160   76.3570   59.2190 N   0  0  0  0  0  0  0  0  0  0  0  0
   39.4360   76.9620   60.1050 C   0  0  0  0  0  0  0  0  0  0  0  0
   39.8460   76.5070   61.3990 N   0  0  0  0  0  0  0  0  0  0  0  0
   40.7360   82.8080   59.8330 C   0  0  0  0  0  0  0  0  0  0  0  0
   41.2080   83.2910   58.6220 C   0  0  0  0  0  0  0  0  0  0  0  0
   40.8830   84.5650   58.1880 C   0  0  0  0  0  0  0  0  0  0  0  0
   40.0940   85.3130   58.9890 C   0  0  0  0  0  0  0  0  0  0  0  0
   39.6100   84.8780   60.1850 C   0  0  0  0  0  0  0  0  0  0  0  0
   39.9350   83.5940   60.6240 C   0  0  0  0  0  0  0  0  0  0  0  0
   39.3990   83.1720   61.9020 C   0  0  0  0  0  0  0  0  0  0  0  0
   38.2330   83.0190   62.2790 O   0  0  0  0  0  0  0  0  0  0  0  0
   40.1520   82.8450   63.0000 O   0  0  0  0  0  0  0  0  0  0  0  0
   40.9120   83.5920   63.8330 C   0  0  0  0  0  0  0  0  0  0  0  0
   42.1880   84.1510   63.4100 N   0  0  0  0  0  0  0  0  0  0  0  0
   40.4060   83.7430   64.9760 O   0  0  0  0  0  0  0  0  0  0  0  0
   37.7280   76.8560   56.9570 C   0  0  0  0  0  0  0  0  0  0  0  0
   38.1220   77.6300   55.8730 F   0  0  0  0  0  0  0  0  0  0  0  0
   36.4020   76.9630   57.2550 F   0  0  0  0  0  0  0  0  0  0  0  0
   37.9270   75.5360   56.5430 F   0  0  0  0  0  0  0  0  0  0  0  0
   42.9372   82.0191   61.2951 H   0  0  0  0  0  0  0  0  0  0  0  0
   43.5491   79.6446   61.8566 H   0  0  0  0  0  0  0  0  0  0  0  0
   39.4861   79.1612   57.7174 H   0  0  0  0  0  0  0  0  0  0  0  0
   39.5022   75.6060   61.7609 H   0  0  0  0  0  0  0  0  0  0  0  0
   40.4848   77.0806   61.9681 H   0  0  0  0  0  0  0  0  0  0  0  0
   41.8499   82.6528   57.9970 H   0  0  0  0  0  0  0  0  0  0  0  0
   41.2533   84.9530   57.2276 H   0  0  0  0  0  0  0  0  0  0  0  0
   39.8282   86.3277   58.6576 H   0  0  0  0  0  0  0  0  0  0  0  0
   38.9707   85.5307   60.7976 H   0  0  0  0  0  0  0  0  0  0  0  0
   42.7455   84.7162   64.0662 H   0  0  0  0  0  0  0  0  0  0  0  0
   42.5332   83.9813   62.4545 H   0  0  0  0  0  0  0  0  0  0  0  0
  1  2  2  0
  2  3  1  0
  4  3  2  0
  5  4  1  0
  6  5  2  0
  6  1  1  0
  7  5  1  0
  7 11  1  0
  8  7  1  0
  9  8  2  0
  9 10  1  0
 10 11  2  0
 11 12  1  0
 13  1  1  0
 13 18  1  0
 14 13  2  0
 15 14  1  0
 15 16  2  0
 16 17  1  0
 17 18  2  0
 18 19  1  0
 19 20  2  0
 19 21  1  0
 21 22  1  0
 22 24  2  0
 23 22  1  0
 25 27  1  0
 25  9  1  0
 26 25  1  0
 28 25  1  0
  2 29  1  0
  3 30  1  0
  8 31  1  0
 12 32  1  0
 12 33  1  0
 14 34  1  0
 15 35  1  0
 16 36  1  0
 17 37  1  0
 23 38  1  0
 23 39  1  0
M  END
>  <Score>  (1) 
-7.30098

$$$$
