
     RDKit          3D

 51 56  0  0  0  0  0  0  0  0999 V2000
   43.3520   78.6400   61.0080 C   0  0  0  0  0  0  0  0  0  0  0  0
   42.9600   79.8600   61.6210 C   0  0  0  0  0  0  0  0  0  0  0  0
   41.6090   80.1380   61.7230 C   0  0  0  0  0  0  0  0  0  0  0  0
   40.7480   79.2200   61.2280 N   0  0  0  0  0  0  0  0  0  0  0  0
   41.0900   78.0920   60.6600 C   0  0  0  0  0  0  0  0  0  0  0  0
   42.4070   77.7970   60.5480 N   0  0  0  0  0  0  0  0  0  0  0  0
   40.0150   77.2540   60.2050 N   0  0  0  0  0  0  0  0  0  0  0  0
   39.7740   76.1660   60.9570 N   0  0  0  0  0  0  0  0  0  0  0  0
   38.7380   75.4890   60.3870 C   0  0  0  0  0  0  0  0  0  0  0  0
   38.3770   76.2180   59.2680 C   0  0  0  0  0  0  0  0  0  0  0  0
   39.2010   77.3490   59.1560 C   0  0  0  0  0  0  0  0  0  0  0  0
   39.1790   78.3490   58.1240 C   0  0  0  0  0  0  0  0  0  0  0  0
   39.9130   79.5140   58.0910 C   0  0  0  0  0  0  0  0  0  0  0  0
   39.8900   80.4510   57.0850 C   0  0  0  0  0  0  0  0  0  0  0  0
   39.0810   80.2500   56.0010 C   0  0  0  0  0  0  0  0  0  0  0  0
   38.3140   79.1070   55.9610 C   0  0  0  0  0  0  0  0  0  0  0  0
   37.5240   78.9570   54.8410 C   0  0  0  0  0  0  0  0  0  0  0  0
   36.7340   77.8330   54.7220 C   0  0  0  0  0  0  0  0  0  0  0  0
   36.7530   76.8870   55.7290 C   0  0  0  0  0  0  0  0  0  0  0  0
   37.5610   77.1030   56.8100 C   0  0  0  0  0  0  0  0  0  0  0  0
   38.3700   78.1940   56.9920 C   0  0  0  0  0  0  0  0  0  0  0  0
   40.9890   81.6510   62.4690 S   0  0  0  0  0  0  0  0  0  0  0  0
   44.0090   84.0050   62.8030 N   0  0  0  0  0  0  0  0  0  0  0  0
   43.2860   82.9230   63.0590 N   0  0  0  0  0  0  0  0  0  0  0  0
   42.1680   82.9880   62.3280 C   0  0  0  0  0  0  0  0  0  0  0  0
   42.1610   84.1610   61.5640 C   0  0  0  0  0  0  0  0  0  0  0  0
   43.3330   84.7600   61.8960 C   0  0  0  0  0  0  0  0  0  0  0  0
   43.7020   86.0220   61.3060 N   0  0  0  0  0  0  0  0  0  0  0  0
   44.1020   87.0950   61.9700 N   0  0  0  0  0  0  0  0  0  0  0  0
   44.3690   88.0980   61.1430 C   0  0  0  0  0  0  0  0  0  0  0  0
   44.1250   87.6430   59.8780 C   0  0  0  0  0  0  0  0  0  0  0  0
   43.6990   86.3150   60.0010 C   0  0  0  0  0  0  0  0  0  0  0  0
   43.3600   85.5570   58.7810 C   0  0  0  0  0  0  0  0  0  0  0  0
   43.9330   84.2980   58.7220 F   0  0  0  0  0  0  0  0  0  0  0  0
   43.9180   86.1920   57.6420 F   0  0  0  0  0  0  0  0  0  0  0  0
   42.0110   85.5800   58.5080 F   0  0  0  0  0  0  0  0  0  0  0  0
   44.4177   78.3858   60.9097 H   0  0  0  0  0  0  0  0  0  0  0  0
   43.7117   80.5655   62.0047 H   0  0  0  0  0  0  0  0  0  0  0  0
   38.2818   74.5538   60.7437 H   0  0  0  0  0  0  0  0  0  0  0  0
   37.5677   75.9520   58.5721 H   0  0  0  0  0  0  0  0  0  0  0  0
   40.5767   79.7125   58.9455 H   0  0  0  0  0  0  0  0  0  0  0  0
   40.5160   81.3531   57.1515 H   0  0  0  0  0  0  0  0  0  0  0  0
   39.0438   80.9829   55.1816 H   0  0  0  0  0  0  0  0  0  0  0  0
   37.5239   79.7240   54.0525 H   0  0  0  0  0  0  0  0  0  0  0  0
   36.0968   77.6913   53.8366 H   0  0  0  0  0  0  0  0  0  0  0  0
   36.1324   75.9813   55.6622 H   0  0  0  0  0  0  0  0  0  0  0  0
   37.5620   76.3373   57.5997 H   0  0  0  0  0  0  0  0  0  0  0  0
   44.9232   84.2337   63.2187 H   0  0  0  0  0  0  0  0  0  0  0  0
   41.3903   84.5130   60.8625 H   0  0  0  0  0  0  0  0  0  0  0  0
   44.7194   89.1026   61.4223 H   0  0  0  0  0  0  0  0  0  0  0  0
   44.2409   88.2107   58.9430 H   0  0  0  0  0  0  0  0  0  0  0  0
  1  2  2  0
  2  3  1  0
  3 22  1  0
  4  3  2  0
  5  4  1  0
  6  5  2  0
  6  1  1  0
  7  5  1  0
  7  8  1  0
  9  8  2  0
 10  9  1  0
 11 10  2  0
 11  7  1  0
 12 11  1  0
 13 12  2  0
 14 13  1  0
 15 14  2  0
 16 15  1  0
 16 21  2  0
 17 16  1  0
 18 17  2  0
 18 19  1  0
 19 20  2  0
 20 21  1  0
 21 12  1  0
 23 24  1  0
 25 22  1  0
 25 24  2  0
 26 27  2  0
 26 25  1  0
 27 23  1  0
 28 27  1  0
 28 29  1  0
 30 29  2  0
 31 32  2  0
 31 30  1  0
 32 28  1  0
 33 32  1  0
 34 33  1  0
 35 33  1  0
 36 33  1  0
  1 37  1  0
  2 38  1  0
  9 39  1  0
 10 40  1  0
 13 41  1  0
 14 42  1  0
 15 43  1  0
 17 44  1  0
 18 45  1  0
 19 46  1  0
 20 47  1  0
 23 48  1  0
 26 49  1  0
 30 50  1  0
 31 51  1  0
M  END
>  <Score>  (1) 
-7.99858

$$$$
