
     RDKit          3D

 44 48  0  0  0  0  0  0  0  0999 V2000
   39.9140   82.1930   60.3660 C   0  0  0  0  0  0  0  0  0  0  0  0
   40.3570   83.1670   59.4180 C   0  0  0  0  0  0  0  0  0  0  0  0
   40.1160   84.5070   59.6850 C   0  0  0  0  0  0  0  0  0  0  0  0
   39.4460   84.8130   60.8880 N   0  0  0  0  0  0  0  0  0  0  0  0
   39.0390   83.8420   61.7740 C   0  0  0  0  0  0  0  0  0  0  0  0
   39.2570   82.5140   61.5450 N   0  0  0  0  0  0  0  0  0  0  0  0
   40.1810   80.8600   60.0030 N   0  0  0  0  0  0  0  0  0  0  0  0
   40.4190   80.3730   58.8020 C   0  0  0  0  0  0  0  0  0  0  0  0
   40.6480   79.0530   58.8580 N   0  0  0  0  0  0  0  0  0  0  0  0
   40.5490   78.6780   60.1390 C   0  0  0  0  0  0  0  0  0  0  0  0
   40.6620   77.4310   60.7150 C   0  0  0  0  0  0  0  0  0  0  0  0
   40.9440   76.4370   59.9710 O   0  0  0  0  0  0  0  0  0  0  0  0
   40.4720   77.3260   62.0290 N   0  0  0  0  0  0  0  0  0  0  0  0
   40.1810   78.4210   62.7440 C   0  0  0  0  0  0  0  0  0  0  0  0
   39.9780   78.1450   64.0930 N   0  0  0  0  0  0  0  0  0  0  0  0
   40.0660   79.6610   62.2110 N   0  0  0  0  0  0  0  0  0  0  0  0
   40.2480   79.8330   60.8800 C   0  0  0  0  0  0  0  0  0  0  0  0
   40.4070   80.9060   57.4640 C   0  0  0  0  0  0  0  0  0  0  0  0
   40.8610   79.9380   56.3860 C   0  0  0  0  0  0  0  0  0  0  0  0
   42.1450   79.4240   56.2330 C   0  0  0  0  0  0  0  0  0  0  0  0
   42.2460   78.5970   55.2030 N   0  0  0  0  0  0  0  0  0  0  0  0
   41.0320   78.5570   54.6710 C   0  0  0  0  0  0  0  0  0  0  0  0
   40.5590   77.8480   53.5860 C   0  0  0  0  0  0  0  0  0  0  0  0
   39.2400   77.9490   53.2100 C   0  0  0  0  0  0  0  0  0  0  0  0
   38.3960   78.7690   53.9300 C   0  0  0  0  0  0  0  0  0  0  0  0
   38.8020   79.5160   55.0360 C   0  0  0  0  0  0  0  0  0  0  0  0
   40.1500   79.3610   55.3580 C   0  0  0  0  0  0  0  0  0  0  0  0
   37.8370   80.3470   55.7440 C   0  0  0  0  0  0  0  0  0  0  0  0
   36.7140   80.7720   55.1890 F   0  0  0  0  0  0  0  0  0  0  0  0
   38.3690   81.0740   56.8170 F   0  0  0  0  0  0  0  0  0  0  0  0
   37.1540   79.4010   56.5990 F   0  0  0  0  0  0  0  0  0  0  0  0
   40.8769   82.8611   58.4981 H   0  0  0  0  0  0  0  0  0  0  0  0
   40.4338   85.2969   58.9885 H   0  0  0  0  0  0  0  0  0  0  0  0
   38.5216   84.1455   62.6960 H   0  0  0  0  0  0  0  0  0  0  0  0
   40.5483   76.4093   62.4923 H   0  0  0  0  0  0  0  0  0  0  0  0
   39.7474   78.9077   64.7457 H   0  0  0  0  0  0  0  0  0  0  0  0
   40.0584   77.1781   64.4386 H   0  0  0  0  0  0  0  0  0  0  0  0
   39.3789   81.2198   57.2304 H   0  0  0  0  0  0  0  0  0  0  0  0
   41.1282   81.7365   57.4564 H   0  0  0  0  0  0  0  0  0  0  0  0
   42.9856   79.6771   56.8959 H   0  0  0  0  0  0  0  0  0  0  0  0
   43.0862   78.0937   54.8842 H   0  0  0  0  0  0  0  0  0  0  0  0
   41.2410   77.1980   53.0183 H   0  0  0  0  0  0  0  0  0  0  0  0
   38.8626   77.3828   52.3457 H   0  0  0  0  0  0  0  0  0  0  0  0
   37.3445   78.8376   53.6145 H   0  0  0  0  0  0  0  0  0  0  0  0
  1  6  2  0
  2  3  2  0
  2  1  1  0
  3  4  1  0
  4  5  2  0
  6  5  1  0
  7  1  1  0
  7 17  1  0
  8  9  2  0
  8  7  1  0
  9 10  1  0
 10 11  1  0
 10 17  2  0
 11 13  1  0
 12 11  2  0
 13 14  1  0
 14 15  1  0
 16 14  2  0
 17 16  1  0
 18  8  1  0
 19 18  1  0
 20 19  2  0
 21 20  1  0
 22 21  1  0
 22 27  2  0
 23 22  1  0
 24 23  2  0
 24 25  1  0
 25 26  2  0
 26 27  1  0
 26 28  1  0
 27 19  1  0
 28 31  1  0
 28 30  1  0
 29 28  1  0
  2 32  1  0
  3 33  1  0
  5 34  1  0
 13 35  1  0
 15 36  1  0
 15 37  1  0
 18 38  1  0
 18 39  1  0
 20 40  1  0
 21 41  1  0
 23 42  1  0
 24 43  1  0
 25 44  1  0
M  END
>  <Score>  (1) 
-7.49857

$$$$
