
     RDKit          3D

 42 46  0  0  1  0  0  0  0  0999 V2000
   42.7760   86.6790   58.4000 C   0  0  0  0  0  0  0  0  0  0  0  0
   43.0450   86.2120   59.7110 C   0  0  0  0  0  0  0  0  0  0  0  0
   44.0400   86.8310   60.4190 C   0  0  0  0  0  0  0  0  0  0  0  0
   44.7110   87.8670   59.8070 N   0  0  0  0  0  0  0  0  0  0  0  0
   44.4370   88.2820   58.5780 C   0  0  0  0  0  0  0  0  0  0  0  0
   43.4620   87.6860   57.8630 N   0  0  0  0  0  0  0  0  0  0  0  0
   45.1680   89.3550   58.0060 N   0  0  0  0  0  0  0  0  0  0  0  0
   46.2710   89.1140   57.2530 C   0  0  0  0  0  0  0  0  0  0  0  0
   46.7560   90.3510   56.8400 C   0  0  0  0  0  0  0  0  0  0  0  0
   45.9360   91.3150   57.3510 N   0  0  0  0  0  0  0  0  0  0  0  0
   44.9700   90.6810   58.0620 C   0  0  0  0  0  0  0  0  0  0  0  0
   43.8430   91.1690   58.8170 N   0  0  0  0  0  0  0  0  0  0  0  0
   43.0390   91.9440   58.0630 C   0  0  0  0  0  0  0  0  0  0  0  0
   41.9100   92.5060   58.5970 C   0  0  0  0  0  0  0  0  0  0  0  0
   41.6240   92.2570   59.9150 C   0  0  0  0  0  0  0  0  0  0  0  0
   40.6090   92.7310   60.4920 O   0  0  0  0  0  0  0  0  0  0  0  0
   42.4470   91.4860   60.6220 N   0  0  0  0  0  0  0  0  0  0  0  0
   43.5570   90.9300   60.1090 C   0  0  0  0  0  0  0  0  0  0  0  0
   44.3850   90.1930   60.7010 O   0  0  0  0  0  0  0  0  0  0  0  0
   42.2270   85.1200   60.1840 N   0  0  0  0  0  0  0  0  0  0  0  0
   41.3880   84.3770   59.4410 C   0  0  0  0  0  0  0  0  0  0  0  0
   40.7770   83.4720   60.2460 N   0  0  0  0  0  0  0  0  0  0  0  0
   41.2130   83.6310   61.4880 C   0  0  0  0  0  0  0  0  0  0  0  0
   40.9450   83.0820   62.7130 C   0  0  2  0  0  0  0  0  0  0  0  0
   41.6870   83.3930   63.7960 N   0  0  0  0  0  0  0  0  0  0  0  0
   42.5950   84.4020   63.7650 C   0  0  0  0  0  0  0  0  0  0  0  0
   42.8050   85.0300   62.5990 N   0  0  0  0  0  0  0  0  0  0  0  0
   42.1310   84.6630   61.4650 C   0  0  0  0  0  0  0  0  0  0  0  0
   40.4950   81.7070   62.7320 N   0  0  0  0  0  0  0  0  0  0  0  0
   41.9809   86.1976   57.8117 H   0  0  0  0  0  0  0  0  0  0  0  0
   44.2947   86.5124   61.4406 H   0  0  0  0  0  0  0  0  0  0  0  0
   46.6995   88.1293   57.0148 H   0  0  0  0  0  0  0  0  0  0  0  0
   47.6433   90.5218   56.2127 H   0  0  0  0  0  0  0  0  0  0  0  0
   43.2919   92.1271   57.0082 H   0  0  0  0  0  0  0  0  0  0  0  0
   41.2507   93.1397   57.9856 H   0  0  0  0  0  0  0  0  0  0  0  0
   42.2217   91.3069   61.6110 H   0  0  0  0  0  0  0  0  0  0  0  0
   41.2241   84.4852   58.3587 H   0  0  0  0  0  0  0  0  0  0  0  0
   40.0673   83.7255   62.8725 H   0  0  0  0  0  0  0  0  0  0  0  0
   43.1435   84.6963   64.6719 H   0  0  0  0  0  0  0  0  0  0  0  0
   43.4853   85.8021   62.5556 H   0  0  0  0  0  0  0  0  0  0  0  0
   40.3922   81.3928   63.7075 H   0  0  0  0  0  0  0  0  0  0  0  0
   39.5870   81.6362   62.2510 H   0  0  0  0  0  0  0  0  0  0  0  0
  1  2  2  0
  2 20  1  0
  2  3  1  0
  4  3  2  0
  5  4  1  0
  6  1  1  0
  6  5  2  0
  7 11  1  0
  7  5  1  0
  8  7  1  0
  9  8  2  0
  9 10  1  0
 10 11  2  0
 11 12  1  0
 12 18  1  0
 13 14  2  0
 13 12  1  0
 14 15  1  0
 15 16  2  0
 15 17  1  0
 18 17  1  0
 18 19  2  0
 20 28  1  0
 21 20  1  0
 21 22  2  0
 22 23  1  0
 23 24  1  0
 24 29  1  0
 24 25  1  0
 26 25  2  0
 27 26  1  0
 28 23  2  0
 28 27  1  0
  1 30  1  0
  3 31  1  0
  8 32  1  0
  9 33  1  0
 13 34  1  0
 14 35  1  0
 17 36  1  0
 21 37  1  0
 24 38  1  1
 26 39  1  0
 27 40  1  0
 29 41  1  0
 29 42  1  0
M  END
>  <Score>  (1) 
-7.07982

$$$$
