
     RDKit          3D

 46 49  0  0  0  0  0  0  0  0999 V2000
   41.2190   84.2520   61.3940 C   0  0  0  0  0  0  0  0  0  0  0  0
   40.4380   84.5620   60.3000 C   0  0  0  0  0  0  0  0  0  0  0  0
   39.1440   84.3780   60.6520 N   0  0  0  0  0  0  0  0  0  0  0  0
   39.0710   83.9700   61.9020 C   0  0  0  0  0  0  0  0  0  0  0  0
   40.3540   83.8900   62.3650 N   0  0  0  0  0  0  0  0  0  0  0  0
   37.9120   83.6630   62.6570 N   0  0  0  0  0  0  0  0  0  0  0  0
   44.6300   85.5630   61.4430 C   0  0  0  0  0  0  0  0  0  0  0  0
   45.4020   84.3880   61.5400 C   0  0  0  0  0  0  0  0  0  0  0  0
   44.7390   83.1760   61.5870 C   0  0  0  0  0  0  0  0  0  0  0  0
   43.3730   83.2110   61.5350 N   0  0  0  0  0  0  0  0  0  0  0  0
   42.6660   84.3190   61.4440 C   0  0  0  0  0  0  0  0  0  0  0  0
   43.2870   85.5120   61.3960 N   0  0  0  0  0  0  0  0  0  0  0  0
   45.4220   81.9110   61.6860 C   0  0  0  0  0  0  0  0  0  0  0  0
   45.0710   80.9290   62.5970 C   0  0  0  0  0  0  0  0  0  0  0  0
   45.7160   79.7190   62.7000 C   0  0  0  0  0  0  0  0  0  0  0  0
   46.7570   79.4960   61.8470 C   0  0  0  0  0  0  0  0  0  0  0  0
   47.1780   80.4290   60.8980 C   0  0  0  0  0  0  0  0  0  0  0  0
   46.4780   81.6250   60.8560 C   0  0  0  0  0  0  0  0  0  0  0  0
   40.7770   83.4890   63.6850 C   0  0  0  0  0  0  0  0  0  0  0  0
   40.8690   82.1310   63.7290 F   0  0  0  0  0  0  0  0  0  0  0  0
   39.8540   83.8870   64.6480 F   0  0  0  0  0  0  0  0  0  0  0  0
   41.9650   84.1410   64.0690 F   0  0  0  0  0  0  0  0  0  0  0  0
   40.9740   85.0120   58.9810 C   0  0  0  0  0  0  0  0  0  0  0  0
   41.1440   83.9300   58.0330 N   0  0  0  0  0  0  0  0  0  0  0  0
   40.7900   82.6390   58.1160 C   0  0  0  0  0  0  0  0  0  0  0  0
   41.0790   81.7890   57.0550 C   0  0  0  0  0  0  0  0  0  0  0  0
   41.7190   82.1960   55.9020 C   0  0  0  0  0  0  0  0  0  0  0  0
   41.9920   81.2730   54.8370 N   0  0  0  0  0  0  0  0  0  0  0  0
   42.0780   83.5140   55.8240 N   0  0  0  0  0  0  0  0  0  0  0  0
   41.7780   84.3210   56.8870 C   0  0  0  0  0  0  0  0  0  0  0  0
   42.1740   85.5140   56.6650 O   0  0  0  0  0  0  0  0  0  0  0  0
   38.0018   83.3518   63.6348 H   0  0  0  0  0  0  0  0  0  0  0  0
   36.9797   83.7510   62.2281 H   0  0  0  0  0  0  0  0  0  0  0  0
   45.1351   86.5395   61.4050 H   0  0  0  0  0  0  0  0  0  0  0  0
   46.5004   84.4340   61.5772 H   0  0  0  0  0  0  0  0  0  0  0  0
   44.2290   81.1280   63.2763 H   0  0  0  0  0  0  0  0  0  0  0  0
   45.4062   78.9641   63.4377 H   0  0  0  0  0  0  0  0  0  0  0  0
   47.2897   78.5357   61.9100 H   0  0  0  0  0  0  0  0  0  0  0  0
   48.0200   80.2262   60.2198 H   0  0  0  0  0  0  0  0  0  0  0  0
   46.7841   82.3834   60.1204 H   0  0  0  0  0  0  0  0  0  0  0  0
   40.2756   85.7456   58.5521 H   0  0  0  0  0  0  0  0  0  0  0  0
   41.9687   85.4448   59.1637 H   0  0  0  0  0  0  0  0  0  0  0  0
   40.2778   82.2580   59.0118 H   0  0  0  0  0  0  0  0  0  0  0  0
   40.7811   80.7334   57.1389 H   0  0  0  0  0  0  0  0  0  0  0  0
   42.4708   81.5972   53.9846 H   0  0  0  0  0  0  0  0  0  0  0  0
   41.7090   80.2866   54.9252 H   0  0  0  0  0  0  0  0  0  0  0  0
  1 11  1  0
  1  5  1  0
  2  3  1  0
  2  1  2  0
  3  4  2  0
  4  5  1  0
  4  6  1  0
  5 19  1  0
  7  8  2  0
  8  9  1  0
  9 13  1  0
 10  9  2  0
 11 10  1  0
 12  7  1  0
 12 11  2  0
 13 14  2  0
 14 15  1  0
 16 15  2  0
 17 16  1  0
 18 17  2  0
 18 13  1  0
 19 20  1  0
 19 22  1  0
 19 21  1  0
 23  2  1  0
 24 25  1  0
 24 23  1  0
 26 25  2  0
 27 26  1  0
 28 27  1  0
 29 27  2  0
 29 30  1  0
 30 24  1  0
 31 30  2  0
  6 32  1  0
  6 33  1  0
  7 34  1  0
  8 35  1  0
 14 36  1  0
 15 37  1  0
 16 38  1  0
 17 39  1  0
 18 40  1  0
 23 41  1  0
 23 42  1  0
 25 43  1  0
 26 44  1  0
 28 45  1  0
 28 46  1  0
M  END
>  <Score>  (1) 
-7.12726

$$$$
