
     RDKit          3D

 45 49  0  0  0  0  0  0  0  0999 V2000
   41.6690   81.4070   60.5120 C   0  0  0  0  0  0  0  0  0  0  0  0
   41.1210   82.1170   59.4660 C   0  0  0  0  0  0  0  0  0  0  0  0
   40.2570   81.5680   58.5310 C   0  0  0  0  0  0  0  0  0  0  0  0
   39.9270   80.2360   58.6550 C   0  0  0  0  0  0  0  0  0  0  0  0
   40.4330   79.4790   59.6630 C   0  0  0  0  0  0  0  0  0  0  0  0
   40.0970   78.1670   59.7690 C   0  0  0  0  0  0  0  0  0  0  0  0
   40.5920   77.3460   60.7890 C   0  0  0  0  0  0  0  0  0  0  0  0
   41.4500   77.9570   61.6890 C   0  0  0  0  0  0  0  0  0  0  0  0
   41.7600   79.2860   61.5390 C   0  0  0  0  0  0  0  0  0  0  0  0
   41.2760   80.0850   60.5450 C   0  0  0  0  0  0  0  0  0  0  0  0
   44.6260   82.9420   62.3670 C   0  0  0  0  0  0  0  0  0  0  0  0
   43.9510   82.2160   61.3920 C   0  0  0  0  0  0  0  0  0  0  0  0
   42.5460   82.0920   61.4040 C   0  0  0  0  0  0  0  0  0  0  0  0
   41.9440   82.7460   62.4500 N   0  0  0  0  0  0  0  0  0  0  0  0
   42.6170   83.4410   63.3780 C   0  0  0  0  0  0  0  0  0  0  0  0
   43.9460   83.5310   63.3280 N   0  0  0  0  0  0  0  0  0  0  0  0
   41.8860   84.0830   64.4240 N   0  0  0  0  0  0  0  0  0  0  0  0
   40.4820   84.2540   64.2990 C   0  0  0  0  0  0  0  0  0  0  0  0
   39.8190   83.7470   63.3180 N   0  0  0  0  0  0  0  0  0  0  0  0
   39.8570   85.0180   65.3230 N   0  0  0  0  0  0  0  0  0  0  0  0
   38.7940   83.9120   63.2920 H   0  0  0  0  0  0  0  0  0  0  0  0
   39.1790   77.4970   58.8340 C   0  0  0  0  0  0  0  0  0  0  0  0
   38.2760   76.4870   58.9070 N   0  0  0  0  0  0  0  0  0  0  0  0
   37.6960   76.2580   57.7770 O   0  0  0  0  0  0  0  0  0  0  0  0
   38.1580   77.0750   56.8890 C   0  0  0  0  0  0  0  0  0  0  0  0
   39.0360   77.7980   57.5530 N   0  0  0  0  0  0  0  0  0  0  0  0
   37.8990   77.2810   55.5140 N   0  0  0  0  0  0  0  0  0  0  0  0
   36.6200   77.2170   55.1370 C   0  0  0  0  0  0  0  0  0  0  0  0
   36.5860   77.4440   53.7530 C   0  0  0  0  0  0  0  0  0  0  0  0
   37.8440   77.6340   53.3490 N   0  0  0  0  0  0  0  0  0  0  0  0
   38.6690   77.5370   54.4290 C   0  0  0  0  0  0  0  0  0  0  0  0
   41.3841   83.1805   59.3671 H   0  0  0  0  0  0  0  0  0  0  0  0
   39.8465   82.1786   57.7132 H   0  0  0  0  0  0  0  0  0  0  0  0
   39.2425   79.7781   57.9257 H   0  0  0  0  0  0  0  0  0  0  0  0
   40.3174   76.2840   60.8707 H   0  0  0  0  0  0  0  0  0  0  0  0
   41.8810   77.3797   62.5202 H   0  0  0  0  0  0  0  0  0  0  0  0
   42.4459   79.7376   62.2708 H   0  0  0  0  0  0  0  0  0  0  0  0
   45.7225   83.0237   62.3355 H   0  0  0  0  0  0  0  0  0  0  0  0
   44.5264   81.7267   60.5923 H   0  0  0  0  0  0  0  0  0  0  0  0
   42.3753   84.4204   65.2652 H   0  0  0  0  0  0  0  0  0  0  0  0
   38.8405   85.1820   65.2956 H   0  0  0  0  0  0  0  0  0  0  0  0
   40.4209   85.4073   66.0920 H   0  0  0  0  0  0  0  0  0  0  0  0
   35.7555   77.0228   55.7888 H   0  0  0  0  0  0  0  0  0  0  0  0
   35.6881   77.4621   53.1178 H   0  0  0  0  0  0  0  0  0  0  0  0
   39.7635   77.6468   54.4214 H   0  0  0  0  0  0  0  0  0  0  0  0
  1 10  1  0
  1 13  1  0
  2  1  2  0
  3  4  2  0
  3  2  1  0
  4  5  1  0
  5  6  1  0
  5 10  2  0
  6  7  2  0
  7  8  1  0
  9  8  2  0
 10  9  1  0
 11 16  2  0
 12 13  2  0
 12 11  1  0
 13 14  1  0
 14 15  2  0
 15 17  1  0
 16 15  1  0
 18 17  1  0
 18 20  1  0
 19 18  2  0
 21 19  1  0
 22 23  2  0
 22  6  1  0
 24 23  1  0
 25 26  2  0
 25 24  1  0
 26 22  1  0
 27 25  1  0
 28 27  1  0
 29 28  2  0
 30 29  1  0
 30 31  2  0
 31 27  1  0
  2 32  1  0
  3 33  1  0
  4 34  1  0
  7 35  1  0
  8 36  1  0
  9 37  1  0
 11 38  1  0
 12 39  1  0
 17 40  1  0
 20 41  1  0
 20 42  1  0
 28 43  1  0
 29 44  1  0
 31 45  1  0
M  END
>  <Score>  (1) 
-8.22593

$$$$
