
     RDKit          3D

 43 47  0  0  0  0  0  0  0  0999 V2000
   41.7210   82.1050   62.3220 C   0  0  0  0  0  0  0  0  0  0  0  0
   42.4490   83.0480   61.6080 C   0  0  0  0  0  0  0  0  0  0  0  0
   42.3930   84.4050   62.0160 C   0  0  0  0  0  0  0  0  0  0  0  0
   41.6180   84.7040   63.0990 N   0  0  0  0  0  0  0  0  0  0  0  0
   40.9400   83.7490   63.7450 C   0  0  0  0  0  0  0  0  0  0  0  0
   40.9820   82.4720   63.3760 N   0  0  0  0  0  0  0  0  0  0  0  0
   40.1570   84.1770   64.8690 N   0  0  0  0  0  0  0  0  0  0  0  0
   41.7560   80.7350   61.9400 N   0  0  0  0  0  0  0  0  0  0  0  0
   42.4430   79.7530   62.5680 C   0  0  0  0  0  0  0  0  0  0  0  0
   42.3820   78.4690   62.0840 C   0  0  0  0  0  0  0  0  0  0  0  0
   41.6170   78.1730   60.9540 C   0  0  0  0  0  0  0  0  0  0  0  0
   41.5900   76.9780   60.5420 O   0  0  0  0  0  0  0  0  0  0  0  0
   40.9620   79.1830   60.3800 N   0  0  0  0  0  0  0  0  0  0  0  0
   41.0200   80.4490   60.8530 C   0  0  0  0  0  0  0  0  0  0  0  0
   40.3350   81.2580   60.1740 O   0  0  0  0  0  0  0  0  0  0  0  0
   40.2040   78.8080   59.2320 C   0  0  0  0  0  0  0  0  0  0  0  0
   40.1020   79.5510   58.0910 N   0  0  0  0  0  0  0  0  0  0  0  0
   39.3770   79.1470   57.0490 C   0  0  0  0  0  0  0  0  0  0  0  0
   38.7200   77.9860   57.0940 N   0  0  0  0  0  0  0  0  0  0  0  0
   38.7480   77.1730   58.1660 C   0  0  0  0  0  0  0  0  0  0  0  0
   38.0930   75.9680   58.2700 C   0  0  0  0  0  0  0  0  0  0  0  0
   38.1580   75.1750   59.3960 C   0  0  0  0  0  0  0  0  0  0  0  0
   38.9200   75.6110   60.4730 C   0  0  0  0  0  0  0  0  0  0  0  0
   39.5740   76.8220   60.3620 C   0  0  0  0  0  0  0  0  0  0  0  0
   39.5140   77.6160   59.2460 C   0  0  0  0  0  0  0  0  0  0  0  0
   43.0980   85.4330   61.3540 N   0  0  0  0  0  0  0  0  0  0  0  0
   42.7840   85.5440   60.0670 N   0  0  0  0  0  0  0  0  0  0  0  0
   43.4840   86.5320   59.5050 C   0  0  0  0  0  0  0  0  0  0  0  0
   44.2770   87.0610   60.5060 C   0  0  0  0  0  0  0  0  0  0  0  0
   44.0170   86.3560   61.6550 C   0  0  0  0  0  0  0  0  0  0  0  0
   43.0576   82.7479   60.7423 H   0  0  0  0  0  0  0  0  0  0  0  0
   39.6117   83.4896   65.4085 H   0  0  0  0  0  0  0  0  0  0  0  0
   40.1403   85.1716   65.1362 H   0  0  0  0  0  0  0  0  0  0  0  0
   43.0458   79.9812   63.4594 H   0  0  0  0  0  0  0  0  0  0  0  0
   42.9401   77.6677   62.5905 H   0  0  0  0  0  0  0  0  0  0  0  0
   39.3195   79.7735   56.1467 H   0  0  0  0  0  0  0  0  0  0  0  0
   37.4907   75.6217   57.4172 H   0  0  0  0  0  0  0  0  0  0  0  0
   37.6182   74.2176   59.4408 H   0  0  0  0  0  0  0  0  0  0  0  0
   39.0001   75.0077   61.3893 H   0  0  0  0  0  0  0  0  0  0  0  0
   40.1757   77.1684   61.2152 H   0  0  0  0  0  0  0  0  0  0  0  0
   43.4388   86.8595   58.4558 H   0  0  0  0  0  0  0  0  0  0  0  0
   44.9869   87.8947   60.4011 H   0  0  0  0  0  0  0  0  0  0  0  0
   44.4788   86.5201   62.6398 H   0  0  0  0  0  0  0  0  0  0  0  0
  1  6  2  0
  2  3  2  0
  2  1  1  0
  3  4  1  0
  4  5  2  0
  5  7  1  0
  6  5  1  0
  8  1  1  0
  8  9  1  0
 10  9  2  0
 11 10  1  0
 12 11  2  0
 13 14  1  0
 13 11  1  0
 14  8  1  0
 15 14  2  0
 16 25  1  0
 16 13  1  0
 17 16  2  0
 18 19  2  0
 18 17  1  0
 19 20  1  0
 20 21  1  0
 20 25  2  0
 21 22  2  0
 22 23  1  0
 24 23  2  0
 25 24  1  0
 26 30  1  0
 26  3  1  0
 27 26  1  0
 28 27  2  0
 28 29  1  0
 29 30  2  0
  2 31  1  0
  7 32  1  0
  7 33  1  0
  9 34  1  0
 10 35  1  0
 18 36  1  0
 21 37  1  0
 22 38  1  0
 23 39  1  0
 24 40  1  0
 28 41  1  0
 29 42  1  0
 30 43  1  0
M  END
>  <Score>  (1) 
-7.80101

$$$$
