
     RDKit          3D

 37 40  0  0  0  0  0  0  0  0999 V2000
   44.5180   86.0850   61.0430 C   0  0  0  0  0  0  0  0  0  0  0  0
   45.3880   85.0260   61.3680 C   0  0  0  0  0  0  0  0  0  0  0  0
   44.8450   83.7870   61.6260 C   0  0  0  0  0  0  0  0  0  0  0  0
   43.4790   83.6580   61.5490 N   0  0  0  0  0  0  0  0  0  0  0  0
   42.6780   84.6640   61.2420 C   0  0  0  0  0  0  0  0  0  0  0  0
   43.1820   85.8980   60.9830 N   0  0  0  0  0  0  0  0  0  0  0  0
   45.6450   82.6360   61.9670 C   0  0  0  0  0  0  0  0  0  0  0  0
   46.0970   82.3840   63.2550 C   0  0  0  0  0  0  0  0  0  0  0  0
   46.8660   81.2910   63.6150 C   0  0  0  0  0  0  0  0  0  0  0  0
   47.1820   80.4140   62.5820 C   0  0  0  0  0  0  0  0  0  0  0  0
   46.7710   80.6000   61.2880 C   0  0  0  0  0  0  0  0  0  0  0  0
   46.0100   81.7140   61.0230 C   0  0  0  0  0  0  0  0  0  0  0  0
   41.2450   84.4490   61.1820 C   0  0  0  0  0  0  0  0  0  0  0  0
   40.4370   84.5540   60.0800 C   0  0  0  0  0  0  0  0  0  0  0  0
   39.1650   84.2770   60.4380 N   0  0  0  0  0  0  0  0  0  0  0  0
   39.1480   83.9990   61.7370 C   0  0  0  0  0  0  0  0  0  0  0  0
   40.4110   84.1040   62.1920 N   0  0  0  0  0  0  0  0  0  0  0  0
   38.0000   83.6520   62.5150 N   0  0  0  0  0  0  0  0  0  0  0  0
   40.8880   84.9080   58.7390 C   0  0  0  0  0  0  0  0  0  0  0  0
   40.7470   86.0550   58.0470 N   0  0  0  0  0  0  0  0  0  0  0  0
   41.3030   85.9530   56.8730 O   0  0  0  0  0  0  0  0  0  0  0  0
   41.8280   84.7500   56.7390 C   0  0  0  0  0  0  0  0  0  0  0  0
   41.5690   84.1100   57.8950 N   0  0  0  0  0  0  0  0  0  0  0  0
   40.8480   83.8850   63.5560 C   0  0  0  0  0  0  0  0  0  0  0  0
   41.3250   82.6040   63.6760 F   0  0  0  0  0  0  0  0  0  0  0  0
   39.7990   84.0340   64.4520 F   0  0  0  0  0  0  0  0  0  0  0  0
   41.7830   84.8510   63.9600 F   0  0  0  0  0  0  0  0  0  0  0  0
   44.9341   87.0817   60.8344 H   0  0  0  0  0  0  0  0  0  0  0  0
   46.4755   85.1849   61.4146 H   0  0  0  0  0  0  0  0  0  0  0  0
   45.8256   83.1018   64.0431 H   0  0  0  0  0  0  0  0  0  0  0  0
   47.2047   81.1266   64.6486 H   0  0  0  0  0  0  0  0  0  0  0  0
   47.7913   79.5284   62.8154 H   0  0  0  0  0  0  0  0  0  0  0  0
   47.0389   79.8874   60.4940 H   0  0  0  0  0  0  0  0  0  0  0  0
   45.6735   81.8745   59.9881 H   0  0  0  0  0  0  0  0  0  0  0  0
   38.1001   83.4547   63.5210 H   0  0  0  0  0  0  0  0  0  0  0  0
   37.0728   83.5993   62.0696 H   0  0  0  0  0  0  0  0  0  0  0  0
   42.3652   84.3527   55.8652 H   0  0  0  0  0  0  0  0  0  0  0  0
  1  2  2  0
  2  3  1  0
  3  7  1  0
  4  3  2  0
  5  4  1  0
  6  1  1  0
  6  5  2  0
  7  8  2  0
  8  9  1  0
 10  9  2  0
 11 10  1  0
 12 11  2  0
 12  7  1  0
 13  5  1  0
 13 17  1  0
 14 15  1  0
 14 13  2  0
 15 16  2  0
 16 17  1  0
 16 18  1  0
 17 24  1  0
 19 14  1  0
 20 19  2  0
 21 20  1  0
 22 21  1  0
 22 23  2  0
 23 19  1  0
 24 25  1  0
 24 27  1  0
 24 26  1  0
  1 28  1  0
  2 29  1  0
  8 30  1  0
  9 31  1  0
 10 32  1  0
 11 33  1  0
 12 34  1  0
 18 35  1  0
 18 36  1  0
 22 37  1  0
M  END
>  <Score>  (1) 
-7.21393

$$$$
