
     RDKit          3D

 40 44  0  0  0  0  0  0  0  0999 V2000
   40.0530   82.6590   59.7530 C   0  0  0  0  0  0  0  0  0  0  0  0
   39.9720   83.7750   58.9110 C   0  0  0  0  0  0  0  0  0  0  0  0
   39.5190   84.9870   59.4320 C   0  0  0  0  0  0  0  0  0  0  0  0
   39.1700   85.0220   60.7660 N   0  0  0  0  0  0  0  0  0  0  0  0
   39.2610   83.9260   61.5400 C   0  0  0  0  0  0  0  0  0  0  0  0
   39.6990   82.7480   61.0470 N   0  0  0  0  0  0  0  0  0  0  0  0
   40.5220   81.4570   59.1600 N   0  0  0  0  0  0  0  0  0  0  0  0
   40.8880   81.2870   57.8760 C   0  0  0  0  0  0  0  0  0  0  0  0
   41.2810   80.0190   57.6600 N   0  0  0  0  0  0  0  0  0  0  0  0
   41.1590   79.3750   58.8380 C   0  0  0  0  0  0  0  0  0  0  0  0
   41.4270   78.0580   59.1740 C   0  0  0  0  0  0  0  0  0  0  0  0
   41.8600   77.2950   58.2570 O   0  0  0  0  0  0  0  0  0  0  0  0
   41.2140   77.6700   60.4410 N   0  0  0  0  0  0  0  0  0  0  0  0
   40.7550   78.5420   61.3440 C   0  0  0  0  0  0  0  0  0  0  0  0
   40.5850   77.9740   62.6370 N   0  0  0  0  0  0  0  0  0  0  0  0
   40.4870   79.8280   61.0450 N   0  0  0  0  0  0  0  0  0  0  0  0
   40.6820   80.2770   59.7830 C   0  0  0  0  0  0  0  0  0  0  0  0
   41.5170   76.3020   60.6930 C   0  0  0  0  0  0  0  0  0  0  0  0
   42.7590   75.8060   61.0350 C   0  0  0  0  0  0  0  0  0  0  0  0
   42.8960   74.4510   61.2500 C   0  0  0  0  0  0  0  0  0  0  0  0
   41.8490   73.5490   61.1400 C   0  0  0  0  0  0  0  0  0  0  0  0
   40.6140   74.1040   60.7920 C   0  0  0  0  0  0  0  0  0  0  0  0
   39.5470   73.2300   60.6750 C   0  0  0  0  0  0  0  0  0  0  0  0
   38.2970   73.7150   60.3320 C   0  0  0  0  0  0  0  0  0  0  0  0
   38.0700   75.0760   60.0980 C   0  0  0  0  0  0  0  0  0  0  0  0
   39.1700   75.8810   60.2320 C   0  0  0  0  0  0  0  0  0  0  0  0
   40.4330   75.4550   60.5690 C   0  0  0  0  0  0  0  0  0  0  0  0
   40.2618   83.6969   57.8527 H   0  0  0  0  0  0  0  0  0  0  0  0
   39.4427   85.8844   58.8005 H   0  0  0  0  0  0  0  0  0  0  0  0
   38.9719   83.9909   62.5993 H   0  0  0  0  0  0  0  0  0  0  0  0
   40.8684   82.0758   57.1095 H   0  0  0  0  0  0  0  0  0  0  0  0
   40.2359   78.5547   63.4128 H   0  0  0  0  0  0  0  0  0  0  0  0
   40.8110   76.9820   62.7975 H   0  0  0  0  0  0  0  0  0  0  0  0
   43.6233   76.4792   61.1341 H   0  0  0  0  0  0  0  0  0  0  0  0
   43.8891   74.0650   61.5234 H   0  0  0  0  0  0  0  0  0  0  0  0
   41.9809   72.4710   61.3145 H   0  0  0  0  0  0  0  0  0  0  0  0
   39.6920   72.1544   60.8539 H   0  0  0  0  0  0  0  0  0  0  0  0
   37.4574   73.0102   60.2406 H   0  0  0  0  0  0  0  0  0  0  0  0
   37.0799   75.4706   59.8262 H   0  0  0  0  0  0  0  0  0  0  0  0
   39.0314   76.9578   60.0553 H   0  0  0  0  0  0  0  0  0  0  0  0
  1  6  2  0
  2  3  2  0
  2  1  1  0
  3  4  1  0
  4  5  2  0
  6  5  1  0
  7  1  1  0
  7 17  1  0
  8  7  1  0
  9  8  2  0
  9 10  1  0
 10 11  1  0
 10 17  2  0
 11 13  1  0
 12 11  2  0
 13 18  1  0
 13 14  1  0
 14 15  1  0
 16 14  2  0
 17 16  1  0
 18 19  2  0
 19 20  1  0
 21 20  2  0
 22 21  1  0
 23 22  2  0
 24 23  1  0
 25 26  1  0
 25 24  2  0
 26 27  2  0
 27 18  1  0
 27 22  1  0
  2 28  1  0
  3 29  1  0
  5 30  1  0
  8 31  1  0
 15 32  1  0
 15 33  1  0
 19 34  1  0
 20 35  1  0
 21 36  1  0
 23 37  1  0
 24 38  1  0
 25 39  1  0
 26 40  1  0
M  END
>  <Score>  (1) 
-7.49983

$$$$
