
     RDKit          3D

 44 48  0  0  0  0  0  0  0  0999 V2000
   38.9800   83.5080   61.8260 C   0  0  0  0  0  0  0  0  0  0  0  0
   39.5960   84.4310   60.9660 C   0  0  0  0  0  0  0  0  0  0  0  0
   40.7420   84.0030   60.2580 C   0  0  0  0  0  0  0  0  0  0  0  0
   41.1710   82.7450   60.4470 N   0  0  0  0  0  0  0  0  0  0  0  0
   40.5500   81.8650   61.2930 C   0  0  0  0  0  0  0  0  0  0  0  0
   39.4550   82.2600   61.9760 N   0  0  0  0  0  0  0  0  0  0  0  0
   41.0600   80.5100   61.4610 C   0  0  0  0  0  0  0  0  0  0  0  0
   40.2400   79.4370   61.2370 C   0  0  0  0  0  0  0  0  0  0  0  0
   40.7130   78.1340   61.3920 C   0  0  0  0  0  0  0  0  0  0  0  0
   42.0300   78.0260   61.7800 C   0  0  0  0  0  0  0  0  0  0  0  0
   42.8780   79.1090   62.0130 C   0  0  0  0  0  0  0  0  0  0  0  0
   42.3520   80.3350   61.8420 N   0  0  0  0  0  0  0  0  0  0  0  0
   44.2210   78.9400   62.4090 N   0  0  0  0  0  0  0  0  0  0  0  0
   45.1240   79.9140   62.4590 C   0  0  0  0  0  0  0  0  0  0  0  0
   46.4200   79.6150   62.8670 C   0  0  0  0  0  0  0  0  0  0  0  0
   46.8060   78.3200   63.2280 C   0  0  0  0  0  0  0  0  0  0  0  0
   48.1420   78.1170   63.6280 N   0  0  0  0  0  0  0  0  0  0  0  0
   45.8650   77.3820   63.1600 N   0  0  0  0  0  0  0  0  0  0  0  0
   44.6320   77.6910   62.7660 C   0  0  0  0  0  0  0  0  0  0  0  0
   43.7960   76.7460   62.7290 O   0  0  0  0  0  0  0  0  0  0  0  0
   41.3830   84.9430   59.3730 C   0  0  0  0  0  0  0  0  0  0  0  0
   40.9890   85.3410   58.1240 C   0  0  0  0  0  0  0  0  0  0  0  0
   41.8520   86.2370   57.6160 N   0  0  0  0  0  0  0  0  0  0  0  0
   42.8190   86.4200   58.5490 C   0  0  0  0  0  0  0  0  0  0  0  0
   43.9260   87.2410   58.5000 C   0  0  0  0  0  0  0  0  0  0  0  0
   44.8030   87.2790   59.5860 C   0  0  0  0  0  0  0  0  0  0  0  0
   44.5640   86.4990   60.7040 C   0  0  0  0  0  0  0  0  0  0  0  0
   43.4360   85.7020   60.6810 C   0  0  0  0  0  0  0  0  0  0  0  0
   42.5330   85.6290   59.6270 C   0  0  0  0  0  0  0  0  0  0  0  0
   38.0869   83.8138   62.3907 H   0  0  0  0  0  0  0  0  0  0  0  0
   39.2009   85.4507   60.8474 H   0  0  0  0  0  0  0  0  0  0  0  0
   39.1966   79.6042   60.9314 H   0  0  0  0  0  0  0  0  0  0  0  0
   40.0778   77.2533   61.2164 H   0  0  0  0  0  0  0  0  0  0  0  0
   42.4421   77.0152   61.9157 H   0  0  0  0  0  0  0  0  0  0  0  0
   44.8503   80.9426   62.1815 H   0  0  0  0  0  0  0  0  0  0  0  0
   47.1652   80.4231   62.9070 H   0  0  0  0  0  0  0  0  0  0  0  0
   48.4607   77.1762   63.9006 H   0  0  0  0  0  0  0  0  0  0  0  0
   48.7997   78.9094   63.6478 H   0  0  0  0  0  0  0  0  0  0  0  0
   40.0889   84.9771   57.6068 H   0  0  0  0  0  0  0  0  0  0  0  0
   41.7909   86.6960   56.6960 H   0  0  0  0  0  0  0  0  0  0  0  0
   44.1167   87.8614   57.6119 H   0  0  0  0  0  0  0  0  0  0  0  0
   45.6877   87.9318   59.5527 H   0  0  0  0  0  0  0  0  0  0  0  0
   45.2410   86.5131   61.5709 H   0  0  0  0  0  0  0  0  0  0  0  0
   43.2372   85.0774   61.5644 H   0  0  0  0  0  0  0  0  0  0  0  0
  1  6  2  0
  2  1  1  0
  3  4  1  0
  3  2  2  0
  4  5  2  0
  5  7  1  0
  5  6  1  0
  7 12  2  0
  8  9  2  0
  8  7  1  0
  9 10  1  0
 10 11  2  0
 11 13  1  0
 12 11  1  0
 13 14  1  0
 13 19  1  0
 14 15  2  0
 15 16  1  0
 16 17  1  0
 18 16  2  0
 19 18  1  0
 20 19  2  0
 21 29  1  0
 21  3  1  0
 22 21  2  0
 23 22  1  0
 23 24  1  0
 24 29  2  0
 25 24  1  0
 25 26  2  0
 26 27  1  0
 28 27  2  0
 29 28  1  0
  1 30  1  0
  2 31  1  0
  8 32  1  0
  9 33  1  0
 10 34  1  0
 14 35  1  0
 15 36  1  0
 17 37  1  0
 17 38  1  0
 22 39  1  0
 23 40  1  0
 25 41  1  0
 26 42  1  0
 27 43  1  0
 28 44  1  0
M  END
>  <Score>  (1) 
-7.43665

$$$$
