
     RDKit          3D

 48 52  0  0  1  0  0  0  0  0999 V2000
   41.5930   76.6060   60.4070 C   0  0  0  0  0  0  0  0  0  0  0  0
   40.9250   76.0680   59.3180 C   0  0  0  0  0  0  0  0  0  0  0  0
   41.3070   74.8220   58.9180 C   0  0  0  0  0  0  0  0  0  0  0  0
   42.3080   74.1870   59.5980 N   0  0  0  0  0  0  0  0  0  0  0  0
   42.8980   74.7700   60.6270 C   0  0  0  0  0  0  0  0  0  0  0  0
   42.5740   75.9970   61.0800 N   0  0  0  0  0  0  0  0  0  0  0  0
   40.4220   80.4490   61.1140 C   0  0  0  0  0  0  0  0  0  0  0  0
   40.7760   79.7640   62.2320 C   0  0  0  0  0  0  0  0  0  0  0  0
   41.1810   78.4760   62.1010 C   0  0  0  0  0  0  0  0  0  0  0  0
   41.2130   77.9430   60.8700 C   0  0  0  0  0  0  0  0  0  0  0  0
   40.6350   79.3270   59.7910 S   0  0  0  0  0  0  0  0  0  0  0  0
   39.9500   81.8480   60.9800 C   0  0  0  0  0  0  0  0  0  0  0  0
   40.1550   82.5990   59.8320 C   0  0  0  0  0  0  0  0  0  0  0  0
   39.6620   83.9030   59.8380 C   0  0  0  0  0  0  0  0  0  0  0  0
   39.0210   84.3550   60.9450 N   0  0  0  0  0  0  0  0  0  0  0  0
   38.8440   83.5780   62.0510 C   0  0  0  0  0  0  0  0  0  0  0  0
   39.3170   82.3300   62.0460 N   0  0  0  0  0  0  0  0  0  0  0  0
   43.9690   73.9930   61.2920 C   0  0  1  0  0  0  0  0  0  0  0  0
   43.6120   73.6610   62.7330 C   0  0  0  0  0  0  0  0  0  0  0  0
   44.3110   72.7830   60.4960 C   0  0  0  0  0  0  0  0  0  0  0  0
   43.4770   71.6510   60.5530 N   0  0  0  0  0  0  0  0  0  0  0  0
   43.0730   71.3660   61.8250 C   0  0  0  0  0  0  0  0  0  0  0  0
   42.2180   70.3100   61.9220 N   0  0  0  0  0  0  0  0  0  0  0  0
   42.0310   69.8540   60.6720 C   0  0  0  0  0  0  0  0  0  0  0  0
   41.3620   68.8640   59.9980 C   0  0  0  0  0  0  0  0  0  0  0  0
   40.6470   68.0950   60.7160 O   0  0  0  0  0  0  0  0  0  0  0  0
   41.4350   68.6870   58.6680 N   0  0  0  0  0  0  0  0  0  0  0  0
   42.2060   69.5280   57.9620 C   0  0  0  0  0  0  0  0  0  0  0  0
   42.3090   69.3680   56.5350 N   0  0  0  0  0  0  0  0  0  0  0  0
   42.8660   70.4990   58.5830 N   0  0  0  0  0  0  0  0  0  0  0  0
   42.8060   70.6920   59.9060 C   0  0  0  0  0  0  0  0  0  0  0  0
   40.1256   76.6197   58.8017 H   0  0  0  0  0  0  0  0  0  0  0  0
   40.8173   74.3355   58.0615 H   0  0  0  0  0  0  0  0  0  0  0  0
   40.7352   80.2428   63.2215 H   0  0  0  0  0  0  0  0  0  0  0  0
   41.4753   77.8843   62.9804 H   0  0  0  0  0  0  0  0  0  0  0  0
   40.6812   82.1856   58.9589 H   0  0  0  0  0  0  0  0  0  0  0  0
   39.7905   84.5540   58.9606 H   0  0  0  0  0  0  0  0  0  0  0  0
   38.3197   83.9733   62.9335 H   0  0  0  0  0  0  0  0  0  0  0  0
   44.8711   74.6207   61.3375 H   0  0  0  0  0  0  0  0  0  0  0  0
   44.2453   74.2500   63.4127 H   0  0  0  0  0  0  0  0  0  0  0  0
   42.5546   73.9042   62.9141 H   0  0  0  0  0  0  0  0  0  0  0  0
   43.7779   72.5888   62.9141 H   0  0  0  0  0  0  0  0  0  0  0  0
   45.3105   72.4592   60.8217 H   0  0  0  0  0  0  0  0  0  0  0  0
   44.2081   73.1242   59.4553 H   0  0  0  0  0  0  0  0  0  0  0  0
   43.4100   71.9415   62.6998 H   0  0  0  0  0  0  0  0  0  0  0  0
   40.9147   67.9285   58.2044 H   0  0  0  0  0  0  0  0  0  0  0  0
   41.7931   68.6117   56.0630 H   0  0  0  0  0  0  0  0  0  0  0  0
   42.8986   70.0098   55.9860 H   0  0  0  0  0  0  0  0  0  0  0  0
  1 10  1  0
  1  6  1  0
  2  1  2  0
  3  2  1  0
  3  4  2  0
  4  5  1  0
  5  6  2  0
  5 18  1  0
  7  8  2  0
  9  8  1  0
 10  9  2  0
 11 10  1  0
 11  7  1  0
 12  7  1  0
 12 17  2  0
 13 14  2  0
 13 12  1  0
 14 15  1  0
 15 16  2  0
 17 16  1  0
 18 19  1  0
 20 21  1  0
 20 18  1  0
 21 22  1  0
 22 23  2  0
 24 23  1  0
 25 24  1  0
 25 26  2  0
 27 25  1  0
 28 30  2  0
 28 27  1  0
 29 28  1  0
 30 31  1  0
 31 21  1  0
 31 24  2  0
  2 32  1  0
  3 33  1  0
  8 34  1  0
  9 35  1  0
 13 36  1  0
 14 37  1  0
 16 38  1  0
 18 39  1  1
 19 40  1  0
 19 41  1  0
 19 42  1  0
 20 43  1  0
 20 44  1  0
 22 45  1  0
 27 46  1  0
 29 47  1  0
 29 48  1  0
M  END
>  <Score>  (1) 
-7.34755

$$$$
