
     RDKit          3D

 41 44  0  0  0  0  0  0  0  0999 V2000
   38.8350   79.8560   57.5650 O   0  0  0  0  0  0  0  0  0  0  0  0
   38.3360   78.7730   56.9030 C   0  0  0  0  0  0  0  0  0  0  0  0
   38.1390   77.4730   57.2240 C   0  0  0  0  0  0  0  0  0  0  0  0
   37.5940   76.8880   56.0900 C   0  0  0  0  0  0  0  0  0  0  0  0
   37.4840   77.8390   55.1410 C   0  0  0  0  0  0  0  0  0  0  0  0
   37.9310   78.9320   55.6630 O   0  0  0  0  0  0  0  0  0  0  0  0
   38.4780   76.7550   58.4060 C   0  0  0  0  0  0  0  0  0  0  0  0
   39.8900   76.3630   58.3040 C   0  0  0  0  0  0  0  0  0  0  0  0
   40.8180   75.7550   59.1740 C   0  0  0  0  0  0  0  0  0  0  0  0
   40.3130   75.4350   60.4300 C   0  0  0  0  0  0  0  0  0  0  0  0
   39.0230   75.7760   60.5680 C   0  0  0  0  0  0  0  0  0  0  0  0
   38.5810   76.3000   59.5320 N   0  0  0  0  0  0  0  0  0  0  0  0
   36.9460   77.6280   53.7710 C   0  0  0  0  0  0  0  0  0  0  0  0
   37.0750   78.7520   53.0080 F   0  0  0  0  0  0  0  0  0  0  0  0
   35.6540   77.1470   53.7790 F   0  0  0  0  0  0  0  0  0  0  0  0
   37.7050   76.6420   53.1320 F   0  0  0  0  0  0  0  0  0  0  0  0
   37.2110   75.5040   56.0580 N   0  0  0  0  0  0  0  0  0  0  0  0
   40.0930   79.9960   58.1190 C   0  0  0  0  0  0  0  0  0  0  0  0
   40.9710   79.9270   57.2160 O   0  0  0  0  0  0  0  0  0  0  0  0
   40.7210   81.3140   61.3150 C   0  0  0  0  0  0  0  0  0  0  0  0
   40.6290   79.9700   61.7150 C   0  0  0  0  0  0  0  0  0  0  0  0
   40.3790   79.2830   60.5290 C   0  0  0  0  0  0  0  0  0  0  0  0
   40.3240   80.1890   59.5050 C   0  0  0  0  0  0  0  0  0  0  0  0
   40.5320   81.3560   60.0330 O   0  0  0  0  0  0  0  0  0  0  0  0
   40.5110   83.8010   64.0400 C   0  0  0  0  0  0  0  0  0  0  0  0
   41.8420   84.2110   64.1280 C   0  0  0  0  0  0  0  0  0  0  0  0
   42.7530   83.6410   63.2710 C   0  0  0  0  0  0  0  0  0  0  0  0
   42.2690   82.7120   62.3990 N   0  0  0  0  0  0  0  0  0  0  0  0
   40.9910   82.3310   62.3260 C   0  0  0  0  0  0  0  0  0  0  0  0
   40.1260   82.8850   63.1550 N   0  0  0  0  0  0  0  0  0  0  0  0
   40.3239   76.5984   57.3210 H   0  0  0  0  0  0  0  0  0  0  0  0
   41.8587   75.5500   58.8827 H   0  0  0  0  0  0  0  0  0  0  0  0
   40.9060   74.9553   61.2226 H   0  0  0  0  0  0  0  0  0  0  0  0
   38.4323   75.6126   61.4814 H   0  0  0  0  0  0  0  0  0  0  0  0
   36.8091   75.1006   55.1997 H   0  0  0  0  0  0  0  0  0  0  0  0
   37.3383   74.9150   56.8933 H   0  0  0  0  0  0  0  0  0  0  0  0
   40.7308   79.5564   62.7292 H   0  0  0  0  0  0  0  0  0  0  0  0
   40.2479   78.1952   60.4321 H   0  0  0  0  0  0  0  0  0  0  0  0
   39.7649   84.2441   64.7160 H   0  0  0  0  0  0  0  0  0  0  0  0
   42.1532   84.9687   64.8622 H   0  0  0  0  0  0  0  0  0  0  0  0
   43.8169   83.9200   63.2880 H   0  0  0  0  0  0  0  0  0  0  0  0
  1 18  1  0
  2  3  2  0
  2  1  1  0
  3  7  1  0
  4  3  1  0
  5  6  1  0
  5  4  2  0
  6  2  1  0
  7 12  1  0
  8  7  2  0
  8  9  1  0
  9 10  2  0
 10 11  1  0
 12 11  2  0
 13 15  1  0
 13  5  1  0
 14 13  1  0
 16 13  1  0
 17  4  1  0
 18 23  1  0
 19 18  2  0
 20 21  2  0
 20 29  1  0
 22 21  1  0
 23 24  1  0
 23 22  2  0
 24 20  1  0
 25 26  2  0
 27 26  1  0
 28 27  2  0
 29 28  1  0
 29 30  2  0
 30 25  1  0
  8 31  1  0
  9 32  1  0
 10 33  1  0
 11 34  1  0
 17 35  1  0
 17 36  1  0
 21 37  1  0
 22 38  1  0
 25 39  1  0
 26 40  1  0
 27 41  1  0
M  END
>  <Score>  (1) 
-7.01099

$$$$
