
     RDKit          3D

 39 43  0  0  0  0  0  0  0  0999 V2000
   41.2810   84.0010   64.0300 C   0  0  0  0  0  0  0  0  0  0  0  0
   40.8540   82.7380   63.6420 C   0  0  0  0  0  0  0  0  0  0  0  0
   41.1910   82.3270   62.3400 C   0  0  0  0  0  0  0  0  0  0  0  0
   41.8980   83.1500   61.5310 N   0  0  0  0  0  0  0  0  0  0  0  0
   42.2970   84.3750   61.9450 C   0  0  0  0  0  0  0  0  0  0  0  0
   41.9780   84.7810   63.1980 N   0  0  0  0  0  0  0  0  0  0  0  0
   40.8190   81.0350   61.7800 C   0  0  0  0  0  0  0  0  0  0  0  0
   40.5690   79.9140   62.4920 N   0  0  0  0  0  0  0  0  0  0  0  0
   40.2640   78.9290   61.7020 O   0  0  0  0  0  0  0  0  0  0  0  0
   40.3050   79.3710   60.4560 C   0  0  0  0  0  0  0  0  0  0  0  0
   40.6480   80.6810   60.4760 N   0  0  0  0  0  0  0  0  0  0  0  0
   40.0690   78.7600   59.1810 N   0  0  0  0  0  0  0  0  0  0  0  0
   40.3630   79.2340   57.9590 C   0  0  0  0  0  0  0  0  0  0  0  0
   39.9590   78.3250   57.0610 N   0  0  0  0  0  0  0  0  0  0  0  0
   39.4110   77.2770   57.6970 C   0  0  0  0  0  0  0  0  0  0  0  0
   38.8660   76.1200   57.2140 C   0  0  0  0  0  0  0  0  0  0  0  0
   38.8350   75.9290   55.9680 O   0  0  0  0  0  0  0  0  0  0  0  0
   38.3620   75.1790   58.0110 N   0  0  0  0  0  0  0  0  0  0  0  0
   38.4360   75.4630   59.3290 C   0  0  0  0  0  0  0  0  0  0  0  0
   37.9480   74.5730   60.3320 N   0  0  0  0  0  0  0  0  0  0  0  0
   38.9630   76.5890   59.8910 N   0  0  0  0  0  0  0  0  0  0  0  0
   39.4750   77.5450   59.0690 C   0  0  0  0  0  0  0  0  0  0  0  0
   43.0540   85.2580   61.0790 C   0  0  0  0  0  0  0  0  0  0  0  0
   44.1430   85.9400   61.6020 C   0  0  0  0  0  0  0  0  0  0  0  0
   44.8850   86.7820   60.8250 C   0  0  0  0  0  0  0  0  0  0  0  0
   44.5780   86.9750   59.5100 C   0  0  0  0  0  0  0  0  0  0  0  0
   43.4930   86.2950   58.9810 C   0  0  0  0  0  0  0  0  0  0  0  0
   42.7450   85.4560   59.7460 C   0  0  0  0  0  0  0  0  0  0  0  0
   41.0415   84.3660   65.0397 H   0  0  0  0  0  0  0  0  0  0  0  0
   40.2797   82.0900   64.3205 H   0  0  0  0  0  0  0  0  0  0  0  0
   40.8482   80.1956   57.7355 H   0  0  0  0  0  0  0  0  0  0  0  0
   37.9497   74.3063   57.6513 H   0  0  0  0  0  0  0  0  0  0  0  0
   38.0236   74.8274   61.3272 H   0  0  0  0  0  0  0  0  0  0  0  0
   37.5202   73.6762   60.0608 H   0  0  0  0  0  0  0  0  0  0  0  0
   44.4127   85.8001   62.6592 H   0  0  0  0  0  0  0  0  0  0  0  0
   45.7423   87.3122   61.2653 H   0  0  0  0  0  0  0  0  0  0  0  0
   45.1770   87.6537   58.8851 H   0  0  0  0  0  0  0  0  0  0  0  0
   43.2317   86.4366   57.9219 H   0  0  0  0  0  0  0  0  0  0  0  0
   41.8872   84.9306   59.3008 H   0  0  0  0  0  0  0  0  0  0  0  0
  2  1  2  0
  3  2  1  0
  4  5  1  0
  4  3  2  0
  5  6  2  0
  6  1  1  0
  7  3  1  0
  7  8  2  0
  9  8  1  0
 10 11  2  0
 10  9  1  0
 11  7  1  0
 12 10  1  0
 13 12  1  0
 14 15  1  0
 14 13  2  0
 15 22  2  0
 16 15  1  0
 16 18  1  0
 17 16  2  0
 18 19  1  0
 19 21  2  0
 19 20  1  0
 22 12  1  0
 22 21  1  0
 23 24  2  0
 23  5  1  0
 25 24  1  0
 26 25  2  0
 27 26  1  0
 27 28  2  0
 28 23  1  0
  1 29  1  0
  2 30  1  0
 13 31  1  0
 18 32  1  0
 20 33  1  0
 20 34  1  0
 24 35  1  0
 25 36  1  0
 26 37  1  0
 27 38  1  0
 28 39  1  0
M  END
>  <Score>  (1) 
-7.63273

$$$$
