
     RDKit          3D

 54 59  0  0  1  0  0  0  0  0999 V2000
   44.3620   82.2920   62.2120 C   0  0  2  0  0  0  0  0  0  0  0  0
   43.0170   84.0040   60.8540 N   0  0  0  0  0  0  0  0  0  0  0  0
   44.1700   83.4190   61.2550 C   0  0  0  0  0  0  0  0  0  0  0  0
   45.2140   84.0290   60.6380 N   0  0  0  0  0  0  0  0  0  0  0  0
   44.7350   84.9710   59.8700 C   0  0  0  0  0  0  0  0  0  0  0  0
   45.2330   85.9450   58.9930 C   0  0  0  0  0  0  0  0  0  0  0  0
   44.4140   86.7760   58.3420 N   0  0  0  0  0  0  0  0  0  0  0  0
   43.0850   86.7180   58.5080 C   0  0  0  0  0  0  0  0  0  0  0  0
   42.5610   85.8070   59.3410 N   0  0  0  0  0  0  0  0  0  0  0  0
   43.3650   84.9620   60.0000 C   0  0  0  0  0  0  0  0  0  0  0  0
   41.7800   83.5390   61.3630 C   0  0  0  0  0  0  0  0  0  0  0  0
   41.1350   82.5370   60.6000 C   0  0  0  0  0  0  0  0  0  0  0  0
   39.8960   82.0260   61.0480 C   0  0  0  0  0  0  0  0  0  0  0  0
   39.3810   82.5310   62.2070 N   0  0  0  0  0  0  0  0  0  0  0  0
   40.0280   83.4920   62.9110 C   0  0  0  0  0  0  0  0  0  0  0  0
   41.2110   83.9690   62.4670 N   0  0  0  0  0  0  0  0  0  0  0  0
   45.0670   82.6910   63.4500 C   0  0  0  0  0  0  0  0  0  0  0  0
   45.1190   81.1460   61.5670 C   0  0  0  0  0  0  0  0  0  0  0  0
   44.5540   79.8290   61.8500 C   0  0  0  0  0  0  0  0  0  0  0  0
   45.4100   78.9700   62.5260 C   0  0  0  0  0  0  0  0  0  0  0  0
   45.0620   77.6890   62.8780 C   0  0  0  0  0  0  0  0  0  0  0  0
   43.7960   77.2410   62.5370 C   0  0  0  0  0  0  0  0  0  0  0  0
   42.9950   78.1430   61.8650 C   0  0  0  0  0  0  0  0  0  0  0  0
   43.3550   79.3970   61.5300 N   0  0  0  0  0  0  0  0  0  0  0  0
   41.6900   77.6430   61.5290 N   0  0  0  0  0  0  0  0  0  0  0  0
   40.4740   78.1140   61.8580 C   0  0  0  0  0  0  0  0  0  0  0  0
   39.5120   77.3410   61.3330 N   0  0  0  0  0  0  0  0  0  0  0  0
   40.1100   76.3540   60.6550 C   0  0  0  0  0  0  0  0  0  0  0  0
   39.6030   75.2860   59.9270 C   0  0  0  0  0  0  0  0  0  0  0  0
   40.4940   74.4390   59.3440 N   0  0  0  0  0  0  0  0  0  0  0  0
   41.8290   74.6180   59.4600 C   0  0  0  0  0  0  0  0  0  0  0  0
   42.2690   75.6540   60.1670 N   0  0  0  0  0  0  0  0  0  0  0  0
   41.4710   76.5450   60.7800 C   0  0  0  0  0  0  0  0  0  0  0  0
   38.1870   75.1000   59.8050 N   0  0  0  0  0  0  0  0  0  0  0  0
   43.3476   81.9681   62.4878 H   0  0  0  0  0  0  0  0  0  0  0  0
   45.9131   86.5769   59.5831 H   0  0  0  0  0  0  0  0  0  0  0  0
   45.6556   85.3390   58.1780 H   0  0  0  0  0  0  0  0  0  0  0  0
   42.4285   87.4133   57.9644 H   0  0  0  0  0  0  0  0  0  0  0  0
   41.5409   85.7570   59.4741 H   0  0  0  0  0  0  0  0  0  0  0  0
   41.5911   82.1615   59.6721 H   0  0  0  0  0  0  0  0  0  0  0  0
   39.3642   81.2472   60.4817 H   0  0  0  0  0  0  0  0  0  0  0  0
   39.5905   83.8824   63.8417 H   0  0  0  0  0  0  0  0  0  0  0  0
   44.4865   82.3624   64.3247 H   0  0  0  0  0  0  0  0  0  0  0  0
   46.0617   82.2220   63.4729 H   0  0  0  0  0  0  0  0  0  0  0  0
   45.1770   83.7852   63.4729 H   0  0  0  0  0  0  0  0  0  0  0  0
   46.1552   81.1647   61.9356 H   0  0  0  0  0  0  0  0  0  0  0  0
   45.0547   81.2936   60.4788 H   0  0  0  0  0  0  0  0  0  0  0  0
   46.4139   79.3324   62.7921 H   0  0  0  0  0  0  0  0  0  0  0  0
   45.7675   77.0378   63.4148 H   0  0  0  0  0  0  0  0  0  0  0  0
   43.4496   76.2273   62.7867 H   0  0  0  0  0  0  0  0  0  0  0  0
   40.2936   79.0086   62.4721 H   0  0  0  0  0  0  0  0  0  0  0  0
   42.5342   73.9230   58.9808 H   0  0  0  0  0  0  0  0  0  0  0  0
   37.8166   74.3059   59.2636 H   0  0  0  0  0  0  0  0  0  0  0  0
   37.5398   75.7605   60.2587 H   0  0  0  0  0  0  0  0  0  0  0  0
  1 17  1  0
  2  3  1  0
  2 11  1  0
  3  1  1  0
  4  3  2  0
  5 10  2  0
  5  4  1  0
  6  5  1  0
  7  8  2  0
  7  6  1  0
  8  9  1  0
  9 10  1  0
 10  2  1  0
 11 16  2  0
 12 13  2  0
 12 11  1  0
 13 14  1  0
 14 15  2  0
 16 15  1  0
 18 19  1  0
 18  1  1  0
 19 20  2  0
 20 21  1  0
 22 21  2  0
 23 22  1  0
 24 19  1  0
 24 23  2  0
 25 26  1  0
 25 23  1  0
 27 26  2  0
 28 33  2  0
 28 27  1  0
 29 28  1  0
 30 31  1  0
 30 29  2  0
 31 32  2  0
 32 33  1  0
 33 25  1  0
 34 29  1  0
  1 35  1  1
  6 36  1  0
  6 37  1  0
  8 38  1  0
  9 39  1  0
 12 40  1  0
 13 41  1  0
 15 42  1  0
 17 43  1  0
 17 44  1  0
 17 45  1  0
 18 46  1  0
 18 47  1  0
 20 48  1  0
 21 49  1  0
 22 50  1  0
 26 51  1  0
 31 52  1  0
 34 53  1  0
 34 54  1  0
M  END
>  <Score>  (1) 
-7.21109

$$$$
