
     RDKit          3D

 57 62  0  0  0  0  0  0  0  0999 V2000
   41.5740   81.0610   57.1850 N   0  0  0  0  0  0  0  0  0  0  0  0
   40.5400   80.4440   57.7370 N   0  0  0  0  0  0  0  0  0  0  0  0
   40.7200   79.1190   57.7310 C   0  0  0  0  0  0  0  0  0  0  0  0
   41.9570   78.9520   57.1280 C   0  0  0  0  0  0  0  0  0  0  0  0
   42.4950   80.1750   56.7830 C   0  0  0  0  0  0  0  0  0  0  0  0
   39.8340   78.0650   58.2390 C   0  0  0  0  0  0  0  0  0  0  0  0
   40.1120   77.4300   59.4350 C   0  0  0  0  0  0  0  0  0  0  0  0
   39.2320   76.4670   59.8250 C   0  0  0  0  0  0  0  0  0  0  0  0
   38.0940   76.0900   59.1060 C   0  0  0  0  0  0  0  0  0  0  0  0
   37.8800   76.7640   57.9270 C   0  0  0  0  0  0  0  0  0  0  0  0
   38.7230   77.7360   57.4860 C   0  0  0  0  0  0  0  0  0  0  0  0
   38.3970   78.3790   56.2330 N   0  0  0  0  0  0  0  0  0  0  0  0
   37.5680   79.4480   56.4100 C   0  0  0  0  0  0  0  0  0  0  0  0
   37.1220   80.2130   55.3670 C   0  0  0  0  0  0  0  0  0  0  0  0
   37.5480   79.8630   54.0880 C   0  0  0  0  0  0  0  0  0  0  0  0
   37.1660   80.5660   52.9140 N   0  0  0  0  0  0  0  0  0  0  0  0
   38.3560   78.8130   53.9680 N   0  0  0  0  0  0  0  0  0  0  0  0
   38.7770   78.0830   54.9980 C   0  0  0  0  0  0  0  0  0  0  0  0
   39.5330   77.0870   54.9610 O   0  0  0  0  0  0  0  0  0  0  0  0
   42.2640   84.4110   55.8090 C   0  0  0  0  0  0  0  0  0  0  0  0
   42.1920   83.0240   55.8890 C   0  0  0  0  0  0  0  0  0  0  0  0
   41.6700   82.4840   57.0470 C   0  0  0  0  0  0  0  0  0  0  0  0
   41.2610   83.3170   58.0270 N   0  0  0  0  0  0  0  0  0  0  0  0
   41.3560   84.6610   57.8920 C   0  0  0  0  0  0  0  0  0  0  0  0
   41.8610   85.1970   56.7750 N   0  0  0  0  0  0  0  0  0  0  0  0
   40.8640   85.4650   59.0550 C   0  0  0  0  0  0  0  0  0  0  0  0
   40.7120   84.7050   60.2900 C   0  0  0  0  0  0  0  0  0  0  0  0
   39.3970   84.3240   60.5900 C   0  0  0  0  0  0  0  0  0  0  0  0
   39.0380   83.5770   61.6920 C   0  0  0  0  0  0  0  0  0  0  0  0
   40.0360   83.1680   62.5740 C   0  0  0  0  0  0  0  0  0  0  0  0
   41.3380   83.5310   62.2990 C   0  0  0  0  0  0  0  0  0  0  0  0
   42.3530   83.1500   63.1550 C   0  0  0  0  0  0  0  0  0  0  0  0
   43.6840   83.5080   62.9140 C   0  0  0  0  0  0  0  0  0  0  0  0
   43.9460   84.2690   61.7690 C   0  0  0  0  0  0  0  0  0  0  0  0
   42.9370   84.6510   60.9120 C   0  0  0  0  0  0  0  0  0  0  0  0
   41.6630   84.2790   61.1880 C   0  0  0  0  0  0  0  0  0  0  0  0
   42.4417   77.9808   56.9496 H   0  0  0  0  0  0  0  0  0  0  0  0
   43.4582   80.3761   56.2912 H   0  0  0  0  0  0  0  0  0  0  0  0
   40.9950   77.6883   60.0380 H   0  0  0  0  0  0  0  0  0  0  0  0
   39.4309   75.9482   60.7744 H   0  0  0  0  0  0  0  0  0  0  0  0
   37.4123   75.3032   59.4614 H   0  0  0  0  0  0  0  0  0  0  0  0
   36.9984   76.5089   57.3207 H   0  0  0  0  0  0  0  0  0  0  0  0
   37.2459   79.7046   57.4300 H   0  0  0  0  0  0  0  0  0  0  0  0
   36.4533   81.0707   55.5321 H   0  0  0  0  0  0  0  0  0  0  0  0
   37.5137   80.2596   51.9942 H   0  0  0  0  0  0  0  0  0  0  0  0
   36.5414   81.3821   52.9827 H   0  0  0  0  0  0  0  0  0  0  0  0
   42.6766   84.8659   54.8964 H   0  0  0  0  0  0  0  0  0  0  0  0
   42.5369   82.3841   55.0634 H   0  0  0  0  0  0  0  0  0  0  0  0
   41.5802   86.2796   59.2380 H   0  0  0  0  0  0  0  0  0  0  0  0
   39.8618   85.8288   58.7843 H   0  0  0  0  0  0  0  0  0  0  0  0
   38.5997   84.6414   59.9018 H   0  0  0  0  0  0  0  0  0  0  0  0
   37.9861   83.3097   61.8710 H   0  0  0  0  0  0  0  0  0  0  0  0
   39.7922   82.5717   63.4656 H   0  0  0  0  0  0  0  0  0  0  0  0
   42.1096   82.5521   64.0456 H   0  0  0  0  0  0  0  0  0  0  0  0
   44.4913   83.2038   63.5964 H   0  0  0  0  0  0  0  0  0  0  0  0
   44.9810   84.5690   61.5482 H   0  0  0  0  0  0  0  0  0  0  0  0
   43.1620   85.2492   60.0167 H   0  0  0  0  0  0  0  0  0  0  0  0
  1  2  1  0
  3  2  2  0
  3  6  1  0
  4  3  1  0
  5  4  2  0
  5  1  1  0
  6  7  2  0
  7  8  1  0
  9  8  2  0
 10  9  1  0
 11 10  2  0
 11  6  1  0
 12 13  1  0
 12 11  1  0
 14 13  2  0
 15 14  1  0
 16 15  1  0
 17 15  2  0
 17 18  1  0
 18 12  1  0
 19 18  2  0
 20 21  2  0
 20 25  1  0
 21 22  1  0
 22  1  1  0
 22 23  2  0
 24 23  1  0
 24 26  1  0
 25 24  2  0
 26 27  1  0
 27 28  2  0
 27 36  1  0
 28 29  1  0
 29 30  2  0
 31 30  1  0
 31 32  2  0
 33 32  1  0
 34 33  2  0
 35 36  2  0
 35 34  1  0
 36 31  1  0
  4 37  1  0
  5 38  1  0
  7 39  1  0
  8 40  1  0
  9 41  1  0
 10 42  1  0
 13 43  1  0
 14 44  1  0
 16 45  1  0
 16 46  1  0
 20 47  1  0
 21 48  1  0
 26 49  1  0
 26 50  1  0
 28 51  1  0
 29 52  1  0
 30 53  1  0
 32 54  1  0
 33 55  1  0
 34 56  1  0
 35 57  1  0
M  END
>  <Score>  (1) 
-8.12652

$$$$
