
     RDKit          3D

 42 46  0  0  0  0  0  0  0  0999 V2000
   40.8790   82.0680   61.2910 C   0  0  0  0  0  0  0  0  0  0  0  0
   40.4390   82.7240   60.1480 C   0  0  0  0  0  0  0  0  0  0  0  0
   40.1190   82.0780   58.9710 C   0  0  0  0  0  0  0  0  0  0  0  0
   40.2330   80.7100   58.8980 C   0  0  0  0  0  0  0  0  0  0  0  0
   40.6640   79.9950   59.9950 C   0  0  0  0  0  0  0  0  0  0  0  0
   40.7880   78.6320   59.9340 C   0  0  0  0  0  0  0  0  0  0  0  0
   41.2250   77.8800   61.0130 C   0  0  0  0  0  0  0  0  0  0  0  0
   41.5280   78.5970   62.1540 C   0  0  0  0  0  0  0  0  0  0  0  0
   41.3930   79.9620   62.1870 C   0  0  0  0  0  0  0  0  0  0  0  0
   40.9580   80.7110   61.1140 C   0  0  0  0  0  0  0  0  0  0  0  0
   41.3400   76.4400   60.8480 C   0  0  0  0  0  0  0  0  0  0  0  0
   42.6770   76.0410   60.9560 C   0  0  0  0  0  0  0  0  0  0  0  0
   43.0190   74.6880   60.8560 C   0  0  0  0  0  0  0  0  0  0  0  0
   42.0110   73.7650   60.6500 C   0  0  0  0  0  0  0  0  0  0  0  0
   40.7070   74.1530   60.5450 C   0  0  0  0  0  0  0  0  0  0  0  0
   39.6370   73.2880   60.3320 C   0  0  0  0  0  0  0  0  0  0  0  0
   38.3370   73.7780   60.2300 C   0  0  0  0  0  0  0  0  0  0  0  0
   38.0430   75.1390   60.3350 C   0  0  0  0  0  0  0  0  0  0  0  0
   39.1180   75.9810   60.5470 C   0  0  0  0  0  0  0  0  0  0  0  0
   40.3750   75.4780   60.6430 C   0  0  0  0  0  0  0  0  0  0  0  0
   42.4750   84.1860   64.0350 C   0  0  0  0  0  0  0  0  0  0  0  0
   42.3700   83.4400   62.8620 C   0  0  0  0  0  0  0  0  0  0  0  0
   41.1710   82.8640   62.4450 C   0  0  0  0  0  0  0  0  0  0  0  0
   40.1340   83.1120   63.2980 N   0  0  0  0  0  0  0  0  0  0  0  0
   40.2210   83.8240   64.4230 C   0  0  0  0  0  0  0  0  0  0  0  0
   41.3830   84.3490   64.7750 N   0  0  0  0  0  0  0  0  0  0  0  0
   40.3402   83.8190   60.1830 H   0  0  0  0  0  0  0  0  0  0  0  0
   39.7755   82.6531   58.0985 H   0  0  0  0  0  0  0  0  0  0  0  0
   39.9804   80.1860   57.9644 H   0  0  0  0  0  0  0  0  0  0  0  0
   40.5319   78.1168   58.9964 H   0  0  0  0  0  0  0  0  0  0  0  0
   41.8828   78.0658   63.0495 H   0  0  0  0  0  0  0  0  0  0  0  0
   41.6454   80.4873   63.1199 H   0  0  0  0  0  0  0  0  0  0  0  0
   43.4620   76.7939   61.1201 H   0  0  0  0  0  0  0  0  0  0  0  0
   44.0674   74.3658   60.9395 H   0  0  0  0  0  0  0  0  0  0  0  0
   42.2647   72.6977   60.5692 H   0  0  0  0  0  0  0  0  0  0  0  0
   39.8200   72.2070   60.2434 H   0  0  0  0  0  0  0  0  0  0  0  0
   37.5137   73.0683   60.0609 H   0  0  0  0  0  0  0  0  0  0  0  0
   37.0141   75.5193   60.2536 H   0  0  0  0  0  0  0  0  0  0  0  0
   38.9541   77.0649   60.6385 H   0  0  0  0  0  0  0  0  0  0  0  0
   43.4353   84.6276   64.3398 H   0  0  0  0  0  0  0  0  0  0  0  0
   43.2677   83.3005   62.2417 H   0  0  0  0  0  0  0  0  0  0  0  0
   39.3322   83.9735   65.0537 H   0  0  0  0  0  0  0  0  0  0  0  0
  1 23  1  0
  2  1  2  0
  3  2  1  0
  4  3  2  0
  4  5  1  0
  5 10  2  0
  6  5  1  0
  6  7  2  0
  7  8  1  0
  8  9  2  0
 10  1  1  0
 10  9  1  0
 11 12  2  0
 11  7  1  0
 13 12  1  0
 14 13  2  0
 15 20  2  0
 15 14  1  0
 16 15  1  0
 17 16  2  0
 17 18  1  0
 18 19  2  0
 19 20  1  0
 20 11  1  0
 21 26  2  0
 22 21  1  0
 23 22  2  0
 23 24  1  0
 24 25  2  0
 25 26  1  0
  2 27  1  0
  3 28  1  0
  4 29  1  0
  6 30  1  0
  8 31  1  0
  9 32  1  0
 12 33  1  0
 13 34  1  0
 14 35  1  0
 16 36  1  0
 17 37  1  0
 18 38  1  0
 19 39  1  0
 21 40  1  0
 22 41  1  0
 25 42  1  0
M  END
>  <Score>  (1) 
-7.48243

$$$$
