
     RDKit          3D

 54 59  0  0  0  0  0  0  0  0999 V2000
   40.2880   76.0830   60.8970 C   0  0  0  0  0  0  0  0  0  0  0  0
   40.4530   79.7550   60.4930 C   0  0  0  0  0  0  0  0  0  0  0  0
   41.5500   80.0820   61.3030 C   0  0  0  0  0  0  0  0  0  0  0  0
   42.1830   79.0320   61.9520 C   0  0  0  0  0  0  0  0  0  0  0  0
   41.7120   77.7810   61.7660 N   0  0  0  0  0  0  0  0  0  0  0  0
   40.6690   77.4960   60.9910 C   0  0  0  0  0  0  0  0  0  0  0  0
   40.0340   78.4760   60.3510 N   0  0  0  0  0  0  0  0  0  0  0  0
   41.9830   81.4050   61.4440 N   0  0  0  0  0  0  0  0  0  0  0  0
   42.8940   81.9880   60.6150 C   0  0  0  0  0  0  0  0  0  0  0  0
   43.1080   83.2570   60.9990 N   0  0  0  0  0  0  0  0  0  0  0  0
   42.3480   83.5030   62.0670 C   0  0  0  0  0  0  0  0  0  0  0  0
   42.1590   84.6070   62.8740 C   0  0  0  0  0  0  0  0  0  0  0  0
   41.2680   84.4900   63.8840 N   0  0  0  0  0  0  0  0  0  0  0  0
   40.6010   83.3890   64.1460 C   0  0  0  0  0  0  0  0  0  0  0  0
   40.7990   82.3200   63.3670 N   0  0  0  0  0  0  0  0  0  0  0  0
   41.6550   82.3280   62.3220 C   0  0  0  0  0  0  0  0  0  0  0  0
   38.9160   75.8210   60.3810 C   0  0  0  0  0  0  0  0  0  0  0  0
   38.9900   75.2490   59.0100 C   0  0  0  0  0  0  0  0  0  0  0  0
   39.5490   74.0300   58.7560 C   0  0  0  0  0  0  0  0  0  0  0  0
   39.5900   73.5510   57.4400 C   0  0  0  0  0  0  0  0  0  0  0  0
   39.0450   74.3900   56.5230 C   0  0  0  0  0  0  0  0  0  0  0  0
   38.4810   75.6060   56.7520 C   0  0  0  0  0  0  0  0  0  0  0  0
   38.4700   76.0220   58.0480 N   0  0  0  0  0  0  0  0  0  0  0  0
   37.9470   76.5820   55.8270 C   0  0  0  0  0  0  0  0  0  0  0  0
   37.2440   76.1140   54.7030 C   0  0  0  0  0  0  0  0  0  0  0  0
   36.6880   76.8850   53.7290 C   0  0  0  0  0  0  0  0  0  0  0  0
   36.8050   78.2360   53.8180 C   0  0  0  0  0  0  0  0  0  0  0  0
   37.4710   78.7810   54.8680 C   0  0  0  0  0  0  0  0  0  0  0  0
   37.6500   80.1430   54.9860 C   0  0  0  0  0  0  0  0  0  0  0  0
   38.3670   80.7190   56.0400 C   0  0  0  0  0  0  0  0  0  0  0  0
   38.9120   79.8700   56.9930 C   0  0  0  0  0  0  0  0  0  0  0  0
   38.7110   78.5200   56.8410 C   0  0  0  0  0  0  0  0  0  0  0  0
   38.0070   77.9490   55.8150 C   0  0  0  0  0  0  0  0  0  0  0  0
   41.0030   75.5832   60.2270 H   0  0  0  0  0  0  0  0  0  0  0  0
   40.3013   75.6979   61.9273 H   0  0  0  0  0  0  0  0  0  0  0  0
   39.9206   80.5569   59.9605 H   0  0  0  0  0  0  0  0  0  0  0  0
   43.0499   79.2150   62.6040 H   0  0  0  0  0  0  0  0  0  0  0  0
   43.3803   81.4941   59.7609 H   0  0  0  0  0  0  0  0  0  0  0  0
   43.1321   84.8616   63.3193 H   0  0  0  0  0  0  0  0  0  0  0  0
   41.7345   85.3739   62.2095 H   0  0  0  0  0  0  0  0  0  0  0  0
   39.8946   83.3472   64.9882 H   0  0  0  0  0  0  0  0  0  0  0  0
   40.2777   81.4557   63.5722 H   0  0  0  0  0  0  0  0  0  0  0  0
   38.4063   75.1085   61.0462 H   0  0  0  0  0  0  0  0  0  0  0  0
   38.3552   76.7668   60.3484 H   0  0  0  0  0  0  0  0  0  0  0  0
   39.9641   73.4284   59.5781 H   0  0  0  0  0  0  0  0  0  0  0  0
   40.0269   72.5775   57.1727 H   0  0  0  0  0  0  0  0  0  0  0  0
   39.0613   74.0482   55.4776 H   0  0  0  0  0  0  0  0  0  0  0  0
   37.1331   75.0243   54.6015 H   0  0  0  0  0  0  0  0  0  0  0  0
   36.1539   76.4232   52.8855 H   0  0  0  0  0  0  0  0  0  0  0  0
   36.3636   78.8828   53.0454 H   0  0  0  0  0  0  0  0  0  0  0  0
   37.2121   80.8021   54.2219 H   0  0  0  0  0  0  0  0  0  0  0  0
   38.4947   81.8092   56.1111 H   0  0  0  0  0  0  0  0  0  0  0  0
   39.4868   80.2659   57.8432 H   0  0  0  0  0  0  0  0  0  0  0  0
   39.1464   77.8501   57.5971 H   0  0  0  0  0  0  0  0  0  0  0  0
  1  6  1  0
  2  3  2  0
  3  8  1  0
  3  4  1  0
  5  4  2  0
  6  5  1  0
  7  2  1  0
  7  6  2  0
  8 16  1  0
  9 10  2  0
  9  8  1  0
 10 11  1  0
 11 16  2  0
 11 12  1  0
 12 13  1  0
 13 14  2  0
 15 14  1  0
 16 15  1  0
 17  1  1  0
 18 17  1  0
 19 18  2  0
 20 19  1  0
 21 22  1  0
 21 20  2  0
 22 23  2  0
 23 18  1  0
 24 22  1  0
 25 24  2  0
 26 27  2  0
 26 25  1  0
 27 28  1  0
 28 29  1  0
 28 33  2  0
 29 30  2  0
 30 31  1  0
 32 31  2  0
 33 24  1  0
 33 32  1  0
  1 34  1  0
  1 35  1  0
  2 36  1  0
  4 37  1  0
  9 38  1  0
 12 39  1  0
 12 40  1  0
 14 41  1  0
 15 42  1  0
 17 43  1  0
 17 44  1  0
 19 45  1  0
 20 46  1  0
 21 47  1  0
 25 48  1  0
 26 49  1  0
 27 50  1  0
 29 51  1  0
 30 52  1  0
 31 53  1  0
 32 54  1  0
M  END
>  <Score>  (1) 
-7.80587

$$$$
