
     RDKit          3D

 43 46  0  0  0  0  0  0  0  0999 V2000
   41.1950   81.5990   60.3520 C   0  0  0  0  0  0  0  0  0  0  0  0
   42.3350   81.3840   61.1770 C   0  0  0  0  0  0  0  0  0  0  0  0
   42.6960   80.0820   61.5500 C   0  0  0  0  0  0  0  0  0  0  0  0
   41.9260   79.0870   61.0950 N   0  0  0  0  0  0  0  0  0  0  0  0
   40.8410   79.2890   60.3100 C   0  0  0  0  0  0  0  0  0  0  0  0
   40.5410   80.5290   59.9860 N   0  0  0  0  0  0  0  0  0  0  0  0
   40.0390   78.2070   59.8420 N   0  0  0  0  0  0  0  0  0  0  0  0
   39.5600   78.3540   58.5750 C   0  0  0  0  0  0  0  0  0  0  0  0
   38.8130   77.1780   58.3460 C   0  0  0  0  0  0  0  0  0  0  0  0
   38.8650   76.3940   59.4390 N   0  0  0  0  0  0  0  0  0  0  0  0
   39.6170   77.0420   60.3340 C   0  0  0  0  0  0  0  0  0  0  0  0
   39.9880   76.6520   61.6580 N   0  0  0  0  0  0  0  0  0  0  0  0
   40.7750   82.9310   59.9350 C   0  0  0  0  0  0  0  0  0  0  0  0
   41.2880   83.3780   58.7320 C   0  0  0  0  0  0  0  0  0  0  0  0
   40.9490   84.6350   58.2460 C   0  0  0  0  0  0  0  0  0  0  0  0
   40.1140   85.3880   58.9810 C   0  0  0  0  0  0  0  0  0  0  0  0
   39.5840   84.9810   60.1780 C   0  0  0  0  0  0  0  0  0  0  0  0
   39.9270   83.7170   60.6650 C   0  0  0  0  0  0  0  0  0  0  0  0
   39.3380   83.3220   61.9490 C   0  0  0  0  0  0  0  0  0  0  0  0
   38.1640   83.2230   62.2880 O   0  0  0  0  0  0  0  0  0  0  0  0
   40.0690   82.9740   63.0550 O   0  0  0  0  0  0  0  0  0  0  0  0
   40.8410   83.6900   63.8940 C   0  0  0  0  0  0  0  0  0  0  0  0
   42.0980   84.2680   63.4790 N   0  0  0  0  0  0  0  0  0  0  0  0
   40.3730   83.8020   65.0490 O   0  0  0  0  0  0  0  0  0  0  0  0
   38.1150   76.9000   57.1110 N   0  0  0  0  0  0  0  0  0  0  0  0
   37.0910   77.6730   56.7410 N   0  0  0  0  0  0  0  0  0  0  0  0
   36.6110   77.2040   55.5530 C   0  0  0  0  0  0  0  0  0  0  0  0
   37.4120   76.1020   55.2370 C   0  0  0  0  0  0  0  0  0  0  0  0
   38.3690   75.9120   56.2330 C   0  0  0  0  0  0  0  0  0  0  0  0
   42.9331   82.2403   61.5220 H   0  0  0  0  0  0  0  0  0  0  0  0
   43.5714   79.8874   62.1870 H   0  0  0  0  0  0  0  0  0  0  0  0
   39.7191   79.1973   57.8869 H   0  0  0  0  0  0  0  0  0  0  0  0
   39.6630   75.7523   62.0400 H   0  0  0  0  0  0  0  0  0  0  0  0
   40.5803   77.2706   62.2302 H   0  0  0  0  0  0  0  0  0  0  0  0
   41.9690   82.7346   58.1555 H   0  0  0  0  0  0  0  0  0  0  0  0
   41.3515   85.0016   57.2902 H   0  0  0  0  0  0  0  0  0  0  0  0
   39.8410   86.3840   58.6023 H   0  0  0  0  0  0  0  0  0  0  0  0
   38.9035   85.6352   60.7428 H   0  0  0  0  0  0  0  0  0  0  0  0
   42.6619   84.8099   64.1493 H   0  0  0  0  0  0  0  0  0  0  0  0
   42.4305   84.1382   62.5128 H   0  0  0  0  0  0  0  0  0  0  0  0
   35.7716   77.6073   54.9676 H   0  0  0  0  0  0  0  0  0  0  0  0
   37.3033   75.4785   54.3373 H   0  0  0  0  0  0  0  0  0  0  0  0
   39.1480   75.1373   56.2882 H   0  0  0  0  0  0  0  0  0  0  0  0
  1  2  2  0
  2  3  1  0
  4  3  2  0
  5  4  1  0
  6  5  2  0
  6  1  1  0
  7  5  1  0
  7 11  1  0
  8  7  1  0
  9  8  2  0
  9 10  1  0
 10 11  2  0
 11 12  1  0
 13  1  1  0
 13 18  1  0
 14 13  2  0
 15 14  1  0
 15 16  2  0
 16 17  1  0
 17 18  2  0
 18 19  1  0
 19 20  2  0
 19 21  1  0
 21 22  1  0
 22 24  2  0
 23 22  1  0
 25  9  1  0
 26 25  1  0
 27 26  2  0
 28 27  1  0
 28 29  2  0
 29 25  1  0
  2 30  1  0
  3 31  1  0
  8 32  1  0
 12 33  1  0
 12 34  1  0
 14 35  1  0
 15 36  1  0
 16 37  1  0
 17 38  1  0
 23 39  1  0
 23 40  1  0
 27 41  1  0
 28 42  1  0
 29 43  1  0
M  END
>  <Score>  (1) 
-7.62852

$$$$
