
     RDKit          3D

 42 45  0  0  1  0  0  0  0  0999 V2000
   39.4300   79.5620   56.6250 N   0  0  0  0  0  0  0  0  0  0  0  0
   38.7820   78.7100   57.5920 C   0  0  0  0  0  0  0  0  0  0  0  0
   37.6840   78.0090   56.8870 C   0  0  1  0  0  0  0  0  0  0  0  0
   37.9340   78.2030   55.4080 C   0  0  0  0  0  0  0  0  0  0  0  0
   39.2380   78.9480   55.3160 C   0  0  0  0  0  0  0  0  0  0  0  0
   40.1170   80.7800   56.8260 C   0  0  0  0  0  0  0  0  0  0  0  0
   40.9790   81.2810   55.8620 C   0  0  0  0  0  0  0  0  0  0  0  0
   41.6200   82.5050   56.1240 C   0  0  0  0  0  0  0  0  0  0  0  0
   41.3620   83.1200   57.2910 N   0  0  0  0  0  0  0  0  0  0  0  0
   40.5200   82.6190   58.2180 C   0  0  0  0  0  0  0  0  0  0  0  0
   39.8920   81.4490   57.9960 N   0  0  0  0  0  0  0  0  0  0  0  0
   40.2260   83.2430   59.4610 N   0  0  0  0  0  0  0  0  0  0  0  0
   39.4310   84.3230   59.6700 C   0  0  0  0  0  0  0  0  0  0  0  0
   39.4080   84.6070   61.0040 N   0  0  0  0  0  0  0  0  0  0  0  0
   40.1780   83.7250   61.6640 C   0  0  0  0  0  0  0  0  0  0  0  0
   40.5200   83.5280   62.9720 C   0  0  0  0  0  0  0  0  0  0  0  0
   41.3480   82.5110   63.3320 N   0  0  0  0  0  0  0  0  0  0  0  0
   41.8340   81.6900   62.3590 C   0  0  0  0  0  0  0  0  0  0  0  0
   41.5030   81.8780   61.0770 N   0  0  0  0  0  0  0  0  0  0  0  0
   40.6840   82.8770   60.6920 C   0  0  0  0  0  0  0  0  0  0  0  0
   37.4850   76.6380   57.2650 N   0  0  0  0  0  0  0  0  0  0  0  0
   38.5730   75.7460   57.5300 C   0  0  0  0  0  0  0  0  0  0  0  0
   39.7420   76.0590   57.0610 N   0  0  0  0  0  0  0  0  0  0  0  0
   38.3990   74.5210   58.2880 N   0  0  0  0  0  0  0  0  0  0  0  0
   40.5940   75.5420   57.2930 H   0  0  0  0  0  0  0  0  0  0  0  0
   39.9870   84.4120   63.9430 N   0  0  0  0  0  0  0  0  0  0  0  0
   39.5002   77.9796   57.9928 H   0  0  0  0  0  0  0  0  0  0  0  0
   38.3929   79.2995   58.4352 H   0  0  0  0  0  0  0  0  0  0  0  0
   36.7222   78.4513   57.1859 H   0  0  0  0  0  0  0  0  0  0  0  0
   38.0101   77.2303   54.9000 H   0  0  0  0  0  0  0  0  0  0  0  0
   37.1140   78.7536   54.9239 H   0  0  0  0  0  0  0  0  0  0  0  0
   40.0619   78.2544   55.0923 H   0  0  0  0  0  0  0  0  0  0  0  0
   39.2231   79.6984   54.5118 H   0  0  0  0  0  0  0  0  0  0  0  0
   41.1558   80.7380   54.9219 H   0  0  0  0  0  0  0  0  0  0  0  0
   42.3137   82.9471   55.3937 H   0  0  0  0  0  0  0  0  0  0  0  0
   38.8920   84.8797   58.8893 H   0  0  0  0  0  0  0  0  0  0  0  0
   42.5064   80.8631   62.6312 H   0  0  0  0  0  0  0  0  0  0  0  0
   36.5219   76.2825   57.3487 H   0  0  0  0  0  0  0  0  0  0  0  0
   39.2047   73.9027   58.4595 H   0  0  0  0  0  0  0  0  0  0  0  0
   37.4698   74.2698   58.6545 H   0  0  0  0  0  0  0  0  0  0  0  0
   40.2261   84.2896   64.9374 H   0  0  0  0  0  0  0  0  0  0  0  0
   39.3605   85.1769   63.6544 H   0  0  0  0  0  0  0  0  0  0  0  0
  1  6  1  0
  1  2  1  0
  3 21  1  0
  3  2  1  0
  4  3  1  0
  5  4  1  0
  5  1  1  0
  6 11  2  0
  7  8  2  0
  7  6  1  0
  8  9  1  0
  9 10  2  0
 10 12  1  0
 11 10  1  0
 12 13  1  0
 12 20  1  0
 13 14  2  0
 14 15  1  0
 15 16  2  0
 16 17  1  0
 16 26  1  0
 18 17  2  0
 19 18  1  0
 20 19  2  0
 20 15  1  0
 21 22  1  0
 22 24  1  0
 23 25  1  0
 23 22  2  0
  2 27  1  0
  2 28  1  0
  3 29  1  1
  4 30  1  0
  4 31  1  0
  5 32  1  0
  5 33  1  0
  7 34  1  0
  8 35  1  0
 13 36  1  0
 18 37  1  0
 21 38  1  0
 24 39  1  0
 24 40  1  0
 26 41  1  0
 26 42  1  0
M  END
>  <Score>  (1) 
-7.10928

$$$$
