
     RDKit          3D

 37 40  0  0  0  0  0  0  0  0999 V2000
   40.5120   81.2250   58.6140 C   0  0  0  0  0  0  0  0  0  0  0  0
   40.7730   82.0280   57.4990 C   0  0  0  0  0  0  0  0  0  0  0  0
   41.3280   83.2860   57.7910 C   0  0  0  0  0  0  0  0  0  0  0  0
   41.5730   83.6460   59.0700 N   0  0  0  0  0  0  0  0  0  0  0  0
   41.2900   82.8030   60.1210 C   0  0  0  0  0  0  0  0  0  0  0  0
   40.7690   81.6110   59.8810 N   0  0  0  0  0  0  0  0  0  0  0  0
   39.9220   79.8980   58.3710 C   0  0  0  0  0  0  0  0  0  0  0  0
   39.2020   79.5080   57.2460 C   0  0  0  0  0  0  0  0  0  0  0  0
   38.8330   78.2290   57.4070 N   0  0  0  0  0  0  0  0  0  0  0  0
   39.3050   77.7940   58.6150 C   0  0  0  0  0  0  0  0  0  0  0  0
   39.9590   78.8310   59.1690 N   0  0  0  0  0  0  0  0  0  0  0  0
   39.1150   76.4960   59.1360 N   0  0  0  0  0  0  0  0  0  0  0  0
   38.9090   76.2450   60.4320 N   0  0  0  0  0  0  0  0  0  0  0  0
   38.7660   74.8720   60.5520 C   0  0  0  0  0  0  0  0  0  0  0  0
   38.8880   74.3170   59.3230 C   0  0  0  0  0  0  0  0  0  0  0  0
   39.1040   75.3580   58.4600 C   0  0  0  0  0  0  0  0  0  0  0  0
   41.5620   83.2150   61.4860 C   0  0  0  0  0  0  0  0  0  0  0  0
   42.7970   83.1070   62.0670 C   0  0  0  0  0  0  0  0  0  0  0  0
   43.0240   83.5090   63.3800 C   0  0  0  0  0  0  0  0  0  0  0  0
   42.0020   84.0340   64.1400 C   0  0  0  0  0  0  0  0  0  0  0  0
   40.7600   84.1530   63.5860 C   0  0  0  0  0  0  0  0  0  0  0  0
   40.5930   83.7400   62.2840 C   0  0  0  0  0  0  0  0  0  0  0  0
   39.2250   83.9680   61.8740 C   0  0  0  0  0  0  0  0  0  0  0  0
   38.7650   84.5350   60.8650 O   0  0  0  0  0  0  0  0  0  0  0  0
   37.9060   83.8160   62.1330 O   0  0  0  0  0  0  0  0  0  0  0  0
   40.5600   81.6998   56.4709 H   0  0  0  0  0  0  0  0  0  0  0  0
   41.5644   83.9820   56.9727 H   0  0  0  0  0  0  0  0  0  0  0  0
   38.9747   80.1400   56.3748 H   0  0  0  0  0  0  0  0  0  0  0  0
   40.4257   78.8040   60.0868 H   0  0  0  0  0  0  0  0  0  0  0  0
   38.5839   74.3247   61.4886 H   0  0  0  0  0  0  0  0  0  0  0  0
   38.8262   73.2484   59.0696 H   0  0  0  0  0  0  0  0  0  0  0  0
   39.2463   75.2632   57.3734 H   0  0  0  0  0  0  0  0  0  0  0  0
   43.6307   82.6921   61.4814 H   0  0  0  0  0  0  0  0  0  0  0  0
   44.0291   83.4065   63.8150 H   0  0  0  0  0  0  0  0  0  0  0  0
   42.1839   84.3524   65.1771 H   0  0  0  0  0  0  0  0  0  0  0  0
   39.9190   84.5661   64.1623 H   0  0  0  0  0  0  0  0  0  0  0  0
   37.2330   84.1729   61.5007 H   0  0  0  0  0  0  0  0  0  0  0  0
  1  6  2  0
  2  3  2  0
  2  1  1  0
  3  4  1  0
  4  5  2  0
  5 17  1  0
  6  5  1  0
  7  1  1  0
  7 11  1  0
  8  9  1  0
  8  7  2  0
  9 10  2  0
 10 12  1  0
 10 11  1  0
 12 13  1  0
 13 14  2  0
 15 14  1  0
 16 12  1  0
 16 15  2  0
 17 18  2  0
 17 22  1  0
 18 19  1  0
 19 20  2  0
 21 20  1  0
 22 21  2  0
 23 25  1  0
 23 22  1  0
 24 23  2  0
  2 26  1  0
  3 27  1  0
  8 28  1  0
 11 29  1  0
 14 30  1  0
 15 31  1  0
 16 32  1  0
 18 33  1  0
 19 34  1  0
 20 35  1  0
 21 36  1  0
 25 37  1  0
M  END
>  <Score>  (1) 
-7.37665

$$$$
