
     RDKit          3D

 40 44  0  0  0  0  0  0  0  0999 V2000
   40.2490   80.6900   60.2570 C   0  0  0  0  0  0  0  0  0  0  0  0
   40.6410   79.7760   61.2340 C   0  0  0  0  0  0  0  0  0  0  0  0
   40.7360   78.4420   60.8930 C   0  0  0  0  0  0  0  0  0  0  0  0
   40.4460   78.0620   59.6200 N   0  0  0  0  0  0  0  0  0  0  0  0
   40.0650   78.9730   58.6770 C   0  0  0  0  0  0  0  0  0  0  0  0
   39.9650   80.3010   58.9980 N   0  0  0  0  0  0  0  0  0  0  0  0
   39.7550   78.6100   57.3380 N   0  0  0  0  0  0  0  0  0  0  0  0
   40.5280   78.7140   56.2260 C   0  0  0  0  0  0  0  0  0  0  0  0
   39.8890   78.2670   55.1360 N   0  0  0  0  0  0  0  0  0  0  0  0
   38.6750   77.8650   55.5630 C   0  0  0  0  0  0  0  0  0  0  0  0
   37.6380   77.3230   54.8230 C   0  0  0  0  0  0  0  0  0  0  0  0
   37.7270   77.1330   53.5750 O   0  0  0  0  0  0  0  0  0  0  0  0
   36.4960   76.9860   55.4490 N   0  0  0  0  0  0  0  0  0  0  0  0
   36.4280   77.1980   56.7740 C   0  0  0  0  0  0  0  0  0  0  0  0
   35.2720   76.8780   57.5260 N   0  0  0  0  0  0  0  0  0  0  0  0
   37.4460   77.7300   57.5010 N   0  0  0  0  0  0  0  0  0  0  0  0
   38.6060   78.0820   56.9220 C   0  0  0  0  0  0  0  0  0  0  0  0
   40.1590   82.0790   60.6440 C   0  0  0  0  0  0  0  0  0  0  0  0
   39.4660   82.4550   61.7870 C   0  0  0  0  0  0  0  0  0  0  0  0
   39.4470   83.7950   62.0540 C   0  0  0  0  0  0  0  0  0  0  0  0
   40.0390   84.7350   61.3050 N   0  0  0  0  0  0  0  0  0  0  0  0
   40.7200   84.3370   60.1800 C   0  0  0  0  0  0  0  0  0  0  0  0
   40.7510   83.0270   59.8980 N   0  0  0  0  0  0  0  0  0  0  0  0
   41.3960   85.2210   59.2910 N   0  0  0  0  0  0  0  0  0  0  0  0
   40.7830   85.7790   58.2190 C   0  0  0  0  0  0  0  0  0  0  0  0
   41.6150   86.5680   57.5390 N   0  0  0  0  0  0  0  0  0  0  0  0
   42.7920   86.5000   58.2100 C   0  0  0  0  0  0  0  0  0  0  0  0
   42.6410   85.6820   59.2660 N   0  0  0  0  0  0  0  0  0  0  0  0
   40.8700   80.1114   62.2563 H   0  0  0  0  0  0  0  0  0  0  0  0
   41.0423   77.6960   61.6411 H   0  0  0  0  0  0  0  0  0  0  0  0
   41.5521   79.1155   56.2207 H   0  0  0  0  0  0  0  0  0  0  0  0
   35.7030   76.5804   54.9317 H   0  0  0  0  0  0  0  0  0  0  0  0
   35.2529   77.0534   58.5408 H   0  0  0  0  0  0  0  0  0  0  0  0
   34.4501   76.4698   57.0583 H   0  0  0  0  0  0  0  0  0  0  0  0
   38.9647   81.7216   62.4356 H   0  0  0  0  0  0  0  0  0  0  0  0
   38.9047   84.1270   62.9516 H   0  0  0  0  0  0  0  0  0  0  0  0
   40.4254   84.9787   57.5545 H   0  0  0  0  0  0  0  0  0  0  0  0
   39.9432   86.3909   58.5801 H   0  0  0  0  0  0  0  0  0  0  0  0
   43.7175   87.0273   57.9353 H   0  0  0  0  0  0  0  0  0  0  0  0
   43.3761   85.4492   59.9489 H   0  0  0  0  0  0  0  0  0  0  0  0
  1 18  1  0
  1  2  2  0
  3  2  1  0
  4  3  2  0
  5  6  2  0
  5  4  1  0
  6  1  1  0
  7  5  1  0
  8  7  1  0
  9 10  1  0
  9  8  2  0
 10 17  2  0
 11 13  1  0
 11 10  1  0
 12 11  2  0
 13 14  1  0
 14 16  2  0
 14 15  1  0
 17  7  1  0
 17 16  1  0
 18 19  2  0
 19 20  1  0
 21 20  2  0
 22 21  1  0
 23 22  2  0
 23 18  1  0
 24 22  1  0
 25 24  1  0
 26 27  2  0
 26 25  1  0
 27 28  1  0
 28 24  1  0
  2 29  1  0
  3 30  1  0
  8 31  1  0
 13 32  1  0
 15 33  1  0
 15 34  1  0
 19 35  1  0
 20 36  1  0
 25 37  1  0
 25 38  1  0
 27 39  1  0
 28 40  1  0
M  END
>  <Score>  (1) 
-7.95321

$$$$
