
     RDKit          3D

 49 52  0  0  1  0  0  0  0  0999 V2000
   39.7750   76.9410   58.4190 O   0  0  0  0  0  0  0  0  0  0  0  0
   37.4890   76.6930   58.0440 N   0  0  0  0  0  0  0  0  0  0  0  0
   36.4170   77.2500   57.3060 C   0  0  0  0  0  0  0  0  0  0  0  0
   37.0260   78.4120   56.5370 C   0  0  0  0  0  0  0  0  0  0  0  0
   38.3420   78.5870   57.2700 C   0  0  0  0  0  0  0  0  0  0  0  0
   38.7160   77.1290   57.5280 C   0  0  1  0  0  0  0  0  0  0  0  0
   39.1680   76.6500   56.2520 N   0  0  0  0  0  0  0  0  0  0  0  0
   39.7140   77.4300   55.3080 C   0  0  0  0  0  0  0  0  0  0  0  0
   40.1440   76.9600   54.0870 C   0  0  0  0  0  0  0  0  0  0  0  0
   40.7480   77.8510   53.0530 C   0  0  0  0  0  0  0  0  0  0  0  0
   40.0290   75.6220   53.7730 C   0  0  0  0  0  0  0  0  0  0  0  0
   40.4240   75.2010   52.6560 O   0  0  0  0  0  0  0  0  0  0  0  0
   39.4810   74.8370   54.7210 N   0  0  0  0  0  0  0  0  0  0  0  0
   39.0760   75.3710   55.9100 C   0  0  0  0  0  0  0  0  0  0  0  0
   38.5980   74.4940   56.6570 O   0  0  0  0  0  0  0  0  0  0  0  0
   39.6500   77.2430   59.7550 C   0  0  0  0  0  0  0  0  0  0  0  0
   38.9340   76.4620   60.4330 O   0  0  0  0  0  0  0  0  0  0  0  0
   40.5040   80.5800   60.9900 N   0  0  0  0  0  0  0  0  0  0  0  0
   39.8230   79.6270   60.3290 C   0  0  0  0  0  0  0  0  0  0  0  0
   40.2660   78.3600   60.4250 C   0  0  0  0  0  0  0  0  0  0  0  0
   41.3850   78.1030   61.1920 C   0  0  0  0  0  0  0  0  0  0  0  0
   41.9210   76.8050   61.3630 N   0  0  0  0  0  0  0  0  0  0  0  0
   42.0470   79.0980   61.8480 N   0  0  0  0  0  0  0  0  0  0  0  0
   41.6000   80.3900   61.7510 C   0  0  0  0  0  0  0  0  0  0  0  0
   42.1630   81.3510   62.3290 O   0  0  0  0  0  0  0  0  0  0  0  0
   40.0280   81.9180   60.8610 C   0  0  0  0  0  0  0  0  0  0  0  0
   40.2430   82.6720   59.6990 C   0  0  0  0  0  0  0  0  0  0  0  0
   39.7240   83.9870   59.6910 C   0  0  0  0  0  0  0  0  0  0  0  0
   39.0620   84.4170   60.8040 N   0  0  0  0  0  0  0  0  0  0  0  0
   38.8860   83.6480   61.8920 C   0  0  0  0  0  0  0  0  0  0  0  0
   39.3750   82.3850   61.9220 N   0  0  0  0  0  0  0  0  0  0  0  0
   37.4116   76.9859   59.0284 H   0  0  0  0  0  0  0  0  0  0  0  0
   35.9977   76.5058   56.6129 H   0  0  0  0  0  0  0  0  0  0  0  0
   35.5928   77.5746   57.9582 H   0  0  0  0  0  0  0  0  0  0  0  0
   36.4013   79.3146   56.6076 H   0  0  0  0  0  0  0  0  0  0  0  0
   37.1293   78.2356   55.4561 H   0  0  0  0  0  0  0  0  0  0  0  0
   39.0911   79.0932   56.6434 H   0  0  0  0  0  0  0  0  0  0  0  0
   38.2825   79.2108   58.1741 H   0  0  0  0  0  0  0  0  0  0  0  0
   39.8245   78.5036   55.5203 H   0  0  0  0  0  0  0  0  0  0  0  0
   41.2995   78.6646   53.5469 H   0  0  0  0  0  0  0  0  0  0  0  0
   41.4382   77.2686   52.4250 H   0  0  0  0  0  0  0  0  0  0  0  0
   39.9514   78.2765   52.4250 H   0  0  0  0  0  0  0  0  0  0  0  0
   39.3670   73.8281   54.5475 H   0  0  0  0  0  0  0  0  0  0  0  0
   38.9341   79.8748   59.7303 H   0  0  0  0  0  0  0  0  0  0  0  0
   42.7586   76.6664   61.9461 H   0  0  0  0  0  0  0  0  0  0  0  0
   41.4736   75.9985   60.9044 H   0  0  0  0  0  0  0  0  0  0  0  0
   40.7883   82.2611   58.8365 H   0  0  0  0  0  0  0  0  0  0  0  0
   39.8497   84.6420   58.8163 H   0  0  0  0  0  0  0  0  0  0  0  0
   38.3426   84.0458   62.7618 H   0  0  0  0  0  0  0  0  0  0  0  0
  1 16  1  0
  3  2  1  0
  4  5  1  0
  4  3  1  0
  5  6  1  0
  6  2  1  0
  6  1  1  1
  7  6  1  0
  8  7  1  0
  9  8  2  0
 10  9  1  0
 11  9  1  0
 11 13  1  0
 12 11  2  0
 13 14  1  0
 14  7  1  0
 14 15  2  0
 16 20  1  0
 16 17  2  0
 18 24  1  0
 19 20  2  0
 19 18  1  0
 20 21  1  0
 21 22  1  0
 21 23  2  0
 24 23  1  0
 24 25  2  0
 26 18  1  0
 26 31  1  0
 27 26  2  0
 28 27  1  0
 28 29  2  0
 29 30  1  0
 30 31  2  0
  2 32  1  0
  3 33  1  0
  3 34  1  0
  4 35  1  0
  4 36  1  0
  5 37  1  0
  5 38  1  0
  8 39  1  0
 10 40  1  0
 10 41  1  0
 10 42  1  0
 13 43  1  0
 19 44  1  0
 22 45  1  0
 22 46  1  0
 27 47  1  0
 28 48  1  0
 30 49  1  0
M  END
>  <Score>  (1) 
-7.50332

$$$$
