
     RDKit          3D

 51 56  0  0  0  0  0  0  0  0999 V2000
   40.9360   81.6030   56.2060 C   0  0  0  0  0  0  0  0  0  0  0  0
   40.6710   81.3810   57.5520 C   0  0  0  0  0  0  0  0  0  0  0  0
   39.5660   80.5900   57.8690 C   0  0  0  0  0  0  0  0  0  0  0  0
   38.8310   80.0960   56.8220 N   0  0  0  0  0  0  0  0  0  0  0  0
   39.1240   80.3340   55.5600 C   0  0  0  0  0  0  0  0  0  0  0  0
   40.1900   81.0990   55.2400 N   0  0  0  0  0  0  0  0  0  0  0  0
   41.4670   81.9180   58.6550 C   0  0  0  0  0  0  0  0  0  0  0  0
   42.7820   81.8410   58.9950 N   0  0  0  0  0  0  0  0  0  0  0  0
   42.9590   82.5230   60.1060 O   0  0  0  0  0  0  0  0  0  0  0  0
   41.8540   83.0430   60.5220 C   0  0  0  0  0  0  0  0  0  0  0  0
   40.9150   82.6730   59.6250 N   0  0  0  0  0  0  0  0  0  0  0  0
   41.6380   83.8350   61.6650 N   0  0  0  0  0  0  0  0  0  0  0  0
   42.7570   84.4210   62.3700 C   0  0  0  0  0  0  0  0  0  0  0  0
   42.5630   84.2390   63.8570 C   0  0  0  0  0  0  0  0  0  0  0  0
   41.2060   84.5690   64.2800 N   0  0  0  0  0  0  0  0  0  0  0  0
   40.2730   83.6700   63.6130 C   0  0  0  0  0  0  0  0  0  0  0  0
   40.2870   84.0740   62.1520 C   0  0  0  0  0  0  0  0  0  0  0  0
   38.2960   79.7760   54.4810 C   0  0  0  0  0  0  0  0  0  0  0  0
   37.5440   78.6300   54.6780 C   0  0  0  0  0  0  0  0  0  0  0  0
   36.7820   78.1440   53.6280 C   0  0  0  0  0  0  0  0  0  0  0  0
   36.8130   78.8200   52.4650 N   0  0  0  0  0  0  0  0  0  0  0  0
   37.5370   79.9310   52.2610 C   0  0  0  0  0  0  0  0  0  0  0  0
   38.2800   80.3980   53.2910 N   0  0  0  0  0  0  0  0  0  0  0  0
   37.5660   80.6580   50.9970 C   0  0  0  0  0  0  0  0  0  0  0  0
   38.6150   81.3110   50.4110 C   0  0  0  0  0  0  0  0  0  0  0  0
   38.2570   81.8660   49.2410 N   0  0  0  0  0  0  0  0  0  0  0  0
   36.9410   81.5570   49.0790 C   0  0  0  0  0  0  0  0  0  0  0  0
   36.1210   81.9120   48.0130 C   0  0  0  0  0  0  0  0  0  0  0  0
   34.7820   81.5050   48.0100 C   0  0  0  0  0  0  0  0  0  0  0  0
   34.3660   80.7680   49.0840 C   0  0  0  0  0  0  0  0  0  0  0  0
   35.1470   80.3990   50.1540 C   0  0  0  0  0  0  0  0  0  0  0  0
   36.4710   80.8080   50.1440 C   0  0  0  0  0  0  0  0  0  0  0  0
   41.8024   82.2238   55.9342 H   0  0  0  0  0  0  0  0  0  0  0  0
   39.2963   80.3723   58.9130 H   0  0  0  0  0  0  0  0  0  0  0  0
   43.6880   83.9252   62.0578 H   0  0  0  0  0  0  0  0  0  0  0  0
   42.8182   85.4940   62.1357 H   0  0  0  0  0  0  0  0  0  0  0  0
   42.7694   83.1899   64.1155 H   0  0  0  0  0  0  0  0  0  0  0  0
   43.2534   84.9218   64.3738 H   0  0  0  0  0  0  0  0  0  0  0  0
   41.1249   84.4567   65.3006 H   0  0  0  0  0  0  0  0  0  0  0  0
   40.6000   82.6257   63.7253 H   0  0  0  0  0  0  0  0  0  0  0  0
   39.2633   83.7403   64.0439 H   0  0  0  0  0  0  0  0  0  0  0  0
   40.0303   85.1388   62.0506 H   0  0  0  0  0  0  0  0  0  0  0  0
   39.5502   83.4963   61.5746 H   0  0  0  0  0  0  0  0  0  0  0  0
   37.5515   78.1152   55.6501 H   0  0  0  0  0  0  0  0  0  0  0  0
   36.1719   77.2357   53.7413 H   0  0  0  0  0  0  0  0  0  0  0  0
   39.6246   81.3739   50.8431 H   0  0  0  0  0  0  0  0  0  0  0  0
   38.8528   82.4106   48.6012 H   0  0  0  0  0  0  0  0  0  0  0  0
   36.5216   82.5076   47.1794 H   0  0  0  0  0  0  0  0  0  0  0  0
   34.1000   81.7644   47.1868 H   0  0  0  0  0  0  0  0  0  0  0  0
   33.3155   80.4420   49.0929 H   0  0  0  0  0  0  0  0  0  0  0  0
   34.7377   79.8038   50.9836 H   0  0  0  0  0  0  0  0  0  0  0  0
  1  2  2  0
  2  3  1  0
  2  7  1  0
  4  3  2  0
  5  4  1  0
  6  5  2  0
  6  1  1  0
  7  8  2  0
  7 11  1  0
  8  9  1  0
  9 10  1  0
 10 12  1  0
 11 10  2  0
 12 17  1  0
 12 13  1  0
 13 14  1  0
 14 15  1  0
 16 15  1  0
 17 16  1  0
 18 19  2  0
 18  5  1  0
 20 19  1  0
 21 20  2  0
 22 21  1  0
 22 23  2  0
 23 18  1  0
 24 22  1  0
 25 24  2  0
 26 25  1  0
 27 26  1  0
 27 32  2  0
 28 27  1  0
 29 28  2  0
 29 30  1  0
 30 31  2  0
 32 31  1  0
 32 24  1  0
  1 33  1  0
  3 34  1  0
 13 35  1  0
 13 36  1  0
 14 37  1  0
 14 38  1  0
 15 39  1  0
 16 40  1  0
 16 41  1  0
 17 42  1  0
 17 43  1  0
 19 44  1  0
 20 45  1  0
 25 46  1  0
 26 47  1  0
 28 48  1  0
 29 49  1  0
 30 50  1  0
 31 51  1  0
M  END
>  <Score>  (1) 
-7.83015

$$$$
