
     RDKit          3D

 47 49  0  0  1  0  0  0  0  0999 V2000
   41.7700   81.7230   58.2570 C   0  0  1  0  0  0  0  0  0  0  0  0
   42.5750   80.5360   58.5070 C   0  0  0  0  0  0  0  0  0  0  0  0
   41.8380   79.2460   58.6440 C   0  0  0  0  0  0  0  0  0  0  0  0
   40.6620   79.0660   57.7480 C   0  0  2  0  0  0  0  0  0  0  0  0
   39.8730   80.2670   57.4020 C   0  0  0  0  0  0  0  0  0  0  0  0
   40.6020   81.5350   57.3250 C   0  0  0  0  0  0  0  0  0  0  0  0
   41.6920   82.0960   60.7180 C   0  0  0  0  0  0  0  0  0  0  0  0
   41.3600   82.4820   59.4490 C   0  0  0  0  0  0  0  0  0  0  0  0
   40.6050   83.6390   59.3710 C   0  0  0  0  0  0  0  0  0  0  0  0
   40.2580   84.2850   60.5050 N   0  0  0  0  0  0  0  0  0  0  0  0
   40.6030   83.8750   61.7270 C   0  0  0  0  0  0  0  0  0  0  0  0
   41.3340   82.7580   61.8390 N   0  0  0  0  0  0  0  0  0  0  0  0
   40.1590   84.6620   62.8310 N   0  0  0  0  0  0  0  0  0  0  0  0
   40.9620   84.6990   64.0120 C   0  0  0  0  0  0  0  0  0  0  0  0
   42.2360   84.7500   63.9440 N   0  0  0  0  0  0  0  0  0  0  0  0
   40.3280   84.6840   65.3040 N   0  0  0  0  0  0  0  0  0  0  0  0
   42.7710   84.7670   63.0760 H   0  0  0  0  0  0  0  0  0  0  0  0
   39.7940   78.0450   58.2680 N   0  0  0  0  0  0  0  0  0  0  0  0
   39.8830   77.4240   59.4610 C   0  0  0  0  0  0  0  0  0  0  0  0
   38.8670   76.5040   59.6010 C   0  0  0  0  0  0  0  0  0  0  0  0
   38.1560   76.5660   58.4840 N   0  0  0  0  0  0  0  0  0  0  0  0
   38.7230   77.5050   57.6750 C   0  0  0  0  0  0  0  0  0  0  0  0
   38.1150   77.6930   56.4210 N   0  0  0  0  0  0  0  0  0  0  0  0
   36.7490   77.2430   56.1470 C   0  0  0  0  0  0  0  0  0  0  0  0
   35.9360   77.0140   57.1710 N   0  0  0  0  0  0  0  0  0  0  0  0
   36.2240   77.0180   54.8140 N   0  0  0  0  0  0  0  0  0  0  0  0
   34.9830   76.6650   56.9600 H   0  0  0  0  0  0  0  0  0  0  0  0
   42.5048   82.3450   57.7249 H   0  0  0  0  0  0  0  0  0  0  0  0
   43.2815   80.4296   57.6706 H   0  0  0  0  0  0  0  0  0  0  0  0
   43.0465   80.7062   59.4861 H   0  0  0  0  0  0  0  0  0  0  0  0
   42.5464   78.4304   58.4370 H   0  0  0  0  0  0  0  0  0  0  0  0
   41.4337   79.2434   59.6670 H   0  0  0  0  0  0  0  0  0  0  0  0
   41.1187   78.7732   56.7911 H   0  0  0  0  0  0  0  0  0  0  0  0
   39.4092   80.0894   56.4205 H   0  0  0  0  0  0  0  0  0  0  0  0
   39.1614   80.3933   58.2313 H   0  0  0  0  0  0  0  0  0  0  0  0
   40.9810   81.6353   56.2973 H   0  0  0  0  0  0  0  0  0  0  0  0
   39.8716   82.2975   57.6335 H   0  0  0  0  0  0  0  0  0  0  0  0
   42.2929   81.1820   60.8338 H   0  0  0  0  0  0  0  0  0  0  0  0
   40.2897   84.0298   58.3923 H   0  0  0  0  0  0  0  0  0  0  0  0
   39.2778   85.1925   62.7777 H   0  0  0  0  0  0  0  0  0  0  0  0
   40.9013   84.7105   66.1593 H   0  0  0  0  0  0  0  0  0  0  0  0
   39.3010   84.6468   65.3733 H   0  0  0  0  0  0  0  0  0  0  0  0
   40.6575   77.6236   60.2162 H   0  0  0  0  0  0  0  0  0  0  0  0
   38.6829   75.8496   60.4658 H   0  0  0  0  0  0  0  0  0  0  0  0
   38.6464   78.1612   55.6731 H   0  0  0  0  0  0  0  0  0  0  0  0
   35.2519   76.7008   54.6901 H   0  0  0  0  0  0  0  0  0  0  0  0
   36.8232   77.1754   53.9911 H   0  0  0  0  0  0  0  0  0  0  0  0
  1  2  1  0
  1  8  1  0
  2  3  1  0
  4 18  1  0
  4  3  1  0
  5  4  1  0
  6  5  1  0
  6  1  1  0
  7 12  2  0
  8  7  1  0
  9  8  2  0
  9 10  1  0
 10 11  2  0
 11 12  1  0
 11 13  1  0
 13 14  1  0
 14 16  1  0
 15 14  2  0
 17 15  1  0
 18 19  1  0
 19 20  2  0
 21 20  1  0
 22 18  1  0
 22 21  2  0
 23 22  1  0
 24 23  1  0
 24 25  2  0
 26 24  1  0
 27 25  1  0
  1 28  1  6
  2 29  1  0
  2 30  1  0
  3 31  1  0
  3 32  1  0
  4 33  1  6
  5 34  1  0
  5 35  1  0
  6 36  1  0
  6 37  1  0
  7 38  1  0
  9 39  1  0
 13 40  1  0
 16 41  1  0
 16 42  1  0
 19 43  1  0
 20 44  1  0
 23 45  1  0
 26 46  1  0
 26 47  1  0
M  END
>  <Score>  (1) 
-7.04288

$$$$
