
     RDKit          3D

 38 42  0  0  0  0  0  0  0  0999 V2000
   41.4710   81.8870   55.7720 C   0  0  0  0  0  0  0  0  0  0  0  0
   40.6880   80.7310   55.6120 C   0  0  0  0  0  0  0  0  0  0  0  0
   39.8010   80.3880   56.6190 C   0  0  0  0  0  0  0  0  0  0  0  0
   39.7440   81.2050   57.7190 N   0  0  0  0  0  0  0  0  0  0  0  0
   40.5080   82.3030   57.8390 C   0  0  0  0  0  0  0  0  0  0  0  0
   41.3630   82.6520   56.8870 N   0  0  0  0  0  0  0  0  0  0  0  0
   40.3700   83.1000   59.0410 C   0  0  0  0  0  0  0  0  0  0  0  0
   39.7260   84.3360   59.1430 C   0  0  0  0  0  0  0  0  0  0  0  0
   39.7920   84.7780   60.3920 N   0  0  0  0  0  0  0  0  0  0  0  0
   40.4670   83.8630   61.1290 C   0  0  0  0  0  0  0  0  0  0  0  0
   40.8140   82.8480   60.3020 N   0  0  0  0  0  0  0  0  0  0  0  0
   40.7460   83.9780   62.5260 N   0  0  0  0  0  0  0  0  0  0  0  0
   39.9870   83.5210   63.4950 N   0  0  0  0  0  0  0  0  0  0  0  0
   40.5490   83.8030   64.6930 C   0  0  0  0  0  0  0  0  0  0  0  0
   41.7060   84.4620   64.4610 C   0  0  0  0  0  0  0  0  0  0  0  0
   41.8220   84.5670   63.0860 C   0  0  0  0  0  0  0  0  0  0  0  0
   38.9610   79.2000   56.5130 C   0  0  0  0  0  0  0  0  0  0  0  0
   38.8830   78.2080   57.4690 C   0  0  0  0  0  0  0  0  0  0  0  0
   37.9880   77.3180   56.9460 N   0  0  0  0  0  0  0  0  0  0  0  0
   37.5390   77.7270   55.7420 C   0  0  0  0  0  0  0  0  0  0  0  0
   36.6300   77.1100   54.8960 C   0  0  0  0  0  0  0  0  0  0  0  0
   36.3260   77.7420   53.6940 C   0  0  0  0  0  0  0  0  0  0  0  0
   36.9420   78.9600   53.3930 C   0  0  0  0  0  0  0  0  0  0  0  0
   37.8380   79.5400   54.2580 C   0  0  0  0  0  0  0  0  0  0  0  0
   38.1420   78.9310   55.4350 C   0  0  0  0  0  0  0  0  0  0  0  0
   42.1808   82.1753   54.9827 H   0  0  0  0  0  0  0  0  0  0  0  0
   40.7776   80.1122   54.7070 H   0  0  0  0  0  0  0  0  0  0  0  0
   39.2370   84.8640   58.3111 H   0  0  0  0  0  0  0  0  0  0  0  0
   41.3377   82.0079   60.5864 H   0  0  0  0  0  0  0  0  0  0  0  0
   40.1378   83.5425   65.6794 H   0  0  0  0  0  0  0  0  0  0  0  0
   42.4135   84.8392   65.2141 H   0  0  0  0  0  0  0  0  0  0  0  0
   42.6492   85.0480   62.5435 H   0  0  0  0  0  0  0  0  0  0  0  0
   39.4171   78.1478   58.4288 H   0  0  0  0  0  0  0  0  0  0  0  0
   37.6942   76.4473   57.4112 H   0  0  0  0  0  0  0  0  0  0  0  0
   36.1638   76.1511   55.1665 H   0  0  0  0  0  0  0  0  0  0  0  0
   35.6112   77.2895   52.9909 H   0  0  0  0  0  0  0  0  0  0  0  0
   36.7047   79.4642   52.4446 H   0  0  0  0  0  0  0  0  0  0  0  0
   38.3103   80.4988   53.9979 H   0  0  0  0  0  0  0  0  0  0  0  0
  1  6  2  0
  2  1  1  0
  2  3  2  0
  3  4  1  0
  4  5  2  0
  5  7  1  0
  6  5  1  0
  7  8  2  0
  7 11  1  0
  8  9  1  0
  9 10  2  0
 10 12  1  0
 11 10  1  0
 12 16  1  0
 12 13  1  0
 13 14  2  0
 15 14  1  0
 16 15  2  0
 17  3  1  0
 17 18  2  0
 19 18  1  0
 20 19  1  0
 21 20  2  0
 22 21  1  0
 23 22  2  0
 23 24  1  0
 24 25  2  0
 25 20  1  0
 25 17  1  0
  1 26  1  0
  2 27  1  0
  8 28  1  0
 11 29  1  0
 14 30  1  0
 15 31  1  0
 16 32  1  0
 18 33  1  0
 19 34  1  0
 21 35  1  0
 22 36  1  0
 23 37  1  0
 24 38  1  0
M  END
>  <Score>  (1) 
-7.02523

$$$$
