
     RDKit          3D

 39 41  0  0  1  0  0  0  0  0999 V2000
   40.1810   78.5330   59.7730 N   0  0  0  0  0  0  0  0  0  0  0  0
   40.4230   77.6030   60.8440 C   0  0  0  0  0  0  0  0  0  0  0  0
   39.4450   76.4990   60.6930 C   0  0  1  0  0  0  0  0  0  0  0  0
   38.8800   76.6240   59.2940 C   0  0  0  0  0  0  0  0  0  0  0  0
   39.6140   77.7740   58.6670 C   0  0  0  0  0  0  0  0  0  0  0  0
   40.4040   79.9340   59.7320 C   0  0  0  0  0  0  0  0  0  0  0  0
   40.4890   80.6060   58.5200 C   0  0  0  0  0  0  0  0  0  0  0  0
   40.6990   81.9950   58.5640 C   0  0  0  0  0  0  0  0  0  0  0  0
   40.8050   82.5890   59.7650 N   0  0  0  0  0  0  0  0  0  0  0  0
   40.7210   81.9210   60.9310 C   0  0  0  0  0  0  0  0  0  0  0  0
   40.5180   80.5750   60.9330 N   0  0  0  0  0  0  0  0  0  0  0  0
   40.8550   82.7070   62.0940 N   0  0  0  0  0  0  0  0  0  0  0  0
   42.0890   82.8870   62.6020 C   0  0  0  0  0  0  0  0  0  0  0  0
   42.2310   83.6550   63.7380 C   0  0  0  0  0  0  0  0  0  0  0  0
   41.1240   84.2210   64.3340 C   0  0  0  0  0  0  0  0  0  0  0  0
   41.1900   84.9300   65.3730 O   0  0  0  0  0  0  0  0  0  0  0  0
   39.9350   83.9870   63.7580 N   0  0  0  0  0  0  0  0  0  0  0  0
   39.7380   83.2520   62.6580 C   0  0  0  0  0  0  0  0  0  0  0  0
   38.5820   83.0880   62.1880 O   0  0  0  0  0  0  0  0  0  0  0  0
   39.9570   75.1850   60.9940 N   0  0  0  0  0  0  0  0  0  0  0  0
   41.3010   74.7990   60.7280 C   0  0  0  0  0  0  0  0  0  0  0  0
   41.9740   75.4990   59.8610 N   0  0  0  0  0  0  0  0  0  0  0  0
   41.9190   73.6650   61.3860 N   0  0  0  0  0  0  0  0  0  0  0  0
   42.9740   75.3670   59.6930 H   0  0  0  0  0  0  0  0  0  0  0  0
   41.4484   77.2102   60.7780 H   0  0  0  0  0  0  0  0  0  0  0  0
   40.3104   78.0944   61.8217 H   0  0  0  0  0  0  0  0  0  0  0  0
   38.6535   76.6027   61.4499 H   0  0  0  0  0  0  0  0  0  0  0  0
   39.0554   75.6994   58.7244 H   0  0  0  0  0  0  0  0  0  0  0  0
   37.7929   76.7913   59.3061 H   0  0  0  0  0  0  0  0  0  0  0  0
   40.4125   77.4045   58.0068 H   0  0  0  0  0  0  0  0  0  0  0  0
   38.9455   78.3937   58.0513 H   0  0  0  0  0  0  0  0  0  0  0  0
   40.3956   80.0722   57.5628 H   0  0  0  0  0  0  0  0  0  0  0  0
   40.7748   82.5823   57.6370 H   0  0  0  0  0  0  0  0  0  0  0  0
   42.9661   82.4304   62.1202 H   0  0  0  0  0  0  0  0  0  0  0  0
   43.2297   83.8166   64.1699 H   0  0  0  0  0  0  0  0  0  0  0  0
   39.1052   84.4083   64.1995 H   0  0  0  0  0  0  0  0  0  0  0  0
   39.3220   74.4952   61.4204 H   0  0  0  0  0  0  0  0  0  0  0  0
   42.8941   73.4129   61.1702 H   0  0  0  0  0  0  0  0  0  0  0  0
   41.3831   73.1112   62.0694 H   0  0  0  0  0  0  0  0  0  0  0  0
  1  2  1  0
  3  2  1  0
  3 20  1  0
  4  3  1  0
  5  4  1  0
  5  1  1  0
  6  1  1  0
  6 11  2  0
  7  8  2  0
  7  6  1  0
  8  9  1  0
  9 10  2  0
 10 11  1  0
 10 12  1  0
 12 13  1  0
 12 18  1  0
 13 14  2  0
 14 15  1  0
 15 16  2  0
 17 15  1  0
 18 17  1  0
 19 18  2  0
 21 20  1  0
 21 23  1  0
 22 21  2  0
 24 22  1  0
  2 25  1  0
  2 26  1  0
  3 27  1  1
  4 28  1  0
  4 29  1  0
  5 30  1  0
  5 31  1  0
  7 32  1  0
  8 33  1  0
 13 34  1  0
 14 35  1  0
 17 36  1  0
 20 37  1  0
 23 38  1  0
 23 39  1  0
M  END
>  <Score>  (1) 
-7.04385

$$$$
