
     RDKit          3D

 54 58  0  0  0  0  0  0  0  0999 V2000
   40.5710   80.0240   60.6760 C   0  0  0  0  0  0  0  0  0  0  0  0
   41.7600   80.2490   61.3920 C   0  0  0  0  0  0  0  0  0  0  0  0
   42.4620   79.1130   61.8250 C   0  0  0  0  0  0  0  0  0  0  0  0
   41.9630   77.8990   61.5340 N   0  0  0  0  0  0  0  0  0  0  0  0
   40.8320   77.7080   60.8520 C   0  0  0  0  0  0  0  0  0  0  0  0
   40.1430   78.7590   60.4290 N   0  0  0  0  0  0  0  0  0  0  0  0
   42.2310   81.5330   61.6660 N   0  0  0  0  0  0  0  0  0  0  0  0
   43.2860   82.0970   61.0460 C   0  0  0  0  0  0  0  0  0  0  0  0
   43.4900   83.3440   61.5360 N   0  0  0  0  0  0  0  0  0  0  0  0
   42.5580   83.5740   62.4740 C   0  0  0  0  0  0  0  0  0  0  0  0
   42.3060   84.6450   63.2950 C   0  0  0  0  0  0  0  0  0  0  0  0
   41.2200   84.5410   64.1180 N   0  0  0  0  0  0  0  0  0  0  0  0
   40.4630   83.4590   64.1910 C   0  0  0  0  0  0  0  0  0  0  0  0
   40.7730   82.4450   63.4010 N   0  0  0  0  0  0  0  0  0  0  0  0
   41.7910   82.4280   62.5290 C   0  0  0  0  0  0  0  0  0  0  0  0
   40.4220   76.3240   60.6150 C   0  0  0  0  0  0  0  0  0  0  0  0
   38.9680   76.1110   60.3690 C   0  0  0  0  0  0  0  0  0  0  0  0
   38.7050   75.8680   58.9360 C   0  0  0  0  0  0  0  0  0  0  0  0
   39.1580   74.7420   58.2910 C   0  0  0  0  0  0  0  0  0  0  0  0
   38.8690   74.5780   56.9220 C   0  0  0  0  0  0  0  0  0  0  0  0
   38.1450   75.5870   56.3630 C   0  0  0  0  0  0  0  0  0  0  0  0
   37.7010   76.7010   57.0150 C   0  0  0  0  0  0  0  0  0  0  0  0
   37.9890   76.8370   58.3210 N   0  0  0  0  0  0  0  0  0  0  0  0
   36.9020   77.7970   56.3570 C   0  0  0  0  0  0  0  0  0  0  0  0
   37.5580   79.1480   56.6510 C   0  0  0  0  0  0  0  0  0  0  0  0
   37.2030   80.1140   55.5220 C   0  0  0  0  0  0  0  0  0  0  0  0
   38.0260   79.8070   54.2770 C   0  0  0  0  0  0  0  0  0  0  0  0
   38.1780   78.2910   54.2590 C   0  0  0  0  0  0  0  0  0  0  0  0
   36.9900   77.5930   54.8800 C   0  0  0  0  0  0  0  0  0  0  0  0
   39.9827   80.8796   60.3129 H   0  0  0  0  0  0  0  0  0  0  0  0
   43.4002   79.2140   62.3903 H   0  0  0  0  0  0  0  0  0  0  0  0
   43.8900   81.6180   60.2613 H   0  0  0  0  0  0  0  0  0  0  0  0
   43.1923   84.7958   63.9289 H   0  0  0  0  0  0  0  0  0  0  0  0
   42.0794   85.4826   62.6190 H   0  0  0  0  0  0  0  0  0  0  0  0
   39.6088   83.4047   64.8820 H   0  0  0  0  0  0  0  0  0  0  0  0
   40.1855   81.6010   63.4603 H   0  0  0  0  0  0  0  0  0  0  0  0
   40.9705   75.9555   59.7356 H   0  0  0  0  0  0  0  0  0  0  0  0
   40.6501   75.7818   61.5445 H   0  0  0  0  0  0  0  0  0  0  0  0
   38.6283   75.2409   60.9499 H   0  0  0  0  0  0  0  0  0  0  0  0
   38.4236   77.0157   60.6773 H   0  0  0  0  0  0  0  0  0  0  0  0
   39.7369   73.9811   58.8350 H   0  0  0  0  0  0  0  0  0  0  0  0
   39.2029   73.7011   56.3479 H   0  0  0  0  0  0  0  0  0  0  0  0
   37.8969   75.4965   55.2952 H   0  0  0  0  0  0  0  0  0  0  0  0
   35.8652   77.7774   56.7241 H   0  0  0  0  0  0  0  0  0  0  0  0
   37.1843   79.5418   57.6077 H   0  0  0  0  0  0  0  0  0  0  0  0
   38.6497   79.0307   56.7180 H   0  0  0  0  0  0  0  0  0  0  0  0
   36.1340   80.0138   55.2828 H   0  0  0  0  0  0  0  0  0  0  0  0
   37.4242   81.1404   55.8499 H   0  0  0  0  0  0  0  0  0  0  0  0
   37.5017   80.1524   53.3738 H   0  0  0  0  0  0  0  0  0  0  0  0
   39.0007   80.3166   54.2938 H   0  0  0  0  0  0  0  0  0  0  0  0
   38.2801   77.9571   53.2159 H   0  0  0  0  0  0  0  0  0  0  0  0
   39.0693   78.0329   54.8498 H   0  0  0  0  0  0  0  0  0  0  0  0
   36.0720   77.9835   54.4166 H   0  0  0  0  0  0  0  0  0  0  0  0
   37.1116   76.5142   54.7027 H   0  0  0  0  0  0  0  0  0  0  0  0
  1  2  2  0
  2  7  1  0
  2  3  1  0
  4  3  2  0
  5  4  1  0
  6  1  1  0
  6  5  2  0
  7 15  1  0
  8  9  2  0
  8  7  1  0
  9 10  1  0
 10 15  2  0
 10 11  1  0
 11 12  1  0
 12 13  2  0
 14 13  1  0
 15 14  1  0
 16  5  1  0
 17 16  1  0
 18 17  1  0
 19 18  2  0
 20 19  1  0
 21 20  2  0
 21 22  1  0
 22 23  2  0
 23 18  1  0
 24 25  1  0
 24 22  1  0
 26 25  1  0
 27 26  1  0
 28 27  1  0
 28 29  1  0
 29 24  1  0
  1 30  1  0
  3 31  1  0
  8 32  1  0
 11 33  1  0
 11 34  1  0
 13 35  1  0
 14 36  1  0
 16 37  1  0
 16 38  1  0
 17 39  1  0
 17 40  1  0
 19 41  1  0
 20 42  1  0
 21 43  1  0
 24 44  1  0
 25 45  1  0
 25 46  1  0
 26 47  1  0
 26 48  1  0
 27 49  1  0
 27 50  1  0
 28 51  1  0
 28 52  1  0
 29 53  1  0
 29 54  1  0
M  END
>  <Score>  (1) 
-7.41929

$$$$
