
     RDKit          3D

 39 43  0  0  0  0  0  0  0  0999 V2000
   40.2990   80.5870   60.2040 C   0  0  0  0  0  0  0  0  0  0  0  0
   40.8020   79.7190   61.1690 C   0  0  0  0  0  0  0  0  0  0  0  0
   40.9720   78.3780   60.8240 C   0  0  0  0  0  0  0  0  0  0  0  0
   40.6410   77.9800   59.5660 N   0  0  0  0  0  0  0  0  0  0  0  0
   40.1530   78.8440   58.6430 C   0  0  0  0  0  0  0  0  0  0  0  0
   39.9850   80.1570   58.9770 N   0  0  0  0  0  0  0  0  0  0  0  0
   39.8010   78.4470   57.3230 N   0  0  0  0  0  0  0  0  0  0  0  0
   40.6330   78.4740   56.2710 C   0  0  0  0  0  0  0  0  0  0  0  0
   40.0170   78.0420   55.1690 N   0  0  0  0  0  0  0  0  0  0  0  0
   38.7610   77.7270   55.5110 C   0  0  0  0  0  0  0  0  0  0  0  0
   37.7110   77.2400   54.7790 C   0  0  0  0  0  0  0  0  0  0  0  0
   36.5500   77.0220   55.4300 N   0  0  0  0  0  0  0  0  0  0  0  0
   36.4030   77.2630   56.7460 C   0  0  0  0  0  0  0  0  0  0  0  0
   37.4410   77.7490   57.4900 N   0  0  0  0  0  0  0  0  0  0  0  0
   38.6340   77.9860   56.8770 C   0  0  0  0  0  0  0  0  0  0  0  0
   40.1320   81.9770   60.5850 C   0  0  0  0  0  0  0  0  0  0  0  0
   39.3790   82.3220   61.6930 C   0  0  0  0  0  0  0  0  0  0  0  0
   39.2980   83.6590   61.9420 C   0  0  0  0  0  0  0  0  0  0  0  0
   39.8780   84.6190   61.2130 N   0  0  0  0  0  0  0  0  0  0  0  0
   40.6210   84.2500   60.1160 C   0  0  0  0  0  0  0  0  0  0  0  0
   40.7190   82.9470   59.8450 N   0  0  0  0  0  0  0  0  0  0  0  0
   41.2930   85.1600   59.2510 N   0  0  0  0  0  0  0  0  0  0  0  0
   40.6920   85.6870   58.1430 C   0  0  0  0  0  0  0  0  0  0  0  0
   41.5310   86.5090   57.5030 N   0  0  0  0  0  0  0  0  0  0  0  0
   42.6790   86.5000   58.2220 C   0  0  0  0  0  0  0  0  0  0  0  0
   42.5180   85.6760   59.2800 N   0  0  0  0  0  0  0  0  0  0  0  0
   37.9030   76.9980   53.3990 N   0  0  0  0  0  0  0  0  0  0  0  0
   41.0584   80.0805   62.1758 H   0  0  0  0  0  0  0  0  0  0  0  0
   41.3660   77.6566   61.5549 H   0  0  0  0  0  0  0  0  0  0  0  0
   41.6806   78.8070   56.3114 H   0  0  0  0  0  0  0  0  0  0  0  0
   35.4345   77.0661   57.2290 H   0  0  0  0  0  0  0  0  0  0  0  0
   38.8823   81.5722   62.3263 H   0  0  0  0  0  0  0  0  0  0  0  0
   38.7070   83.9751   62.8143 H   0  0  0  0  0  0  0  0  0  0  0  0
   40.3988   84.8704   57.4669 H   0  0  0  0  0  0  0  0  0  0  0  0
   39.8044   86.2565   58.4558 H   0  0  0  0  0  0  0  0  0  0  0  0
   43.5900   87.0687   57.9840 H   0  0  0  0  0  0  0  0  0  0  0  0
   43.2315   85.4786   59.9961 H   0  0  0  0  0  0  0  0  0  0  0  0
   38.8179   77.1871   52.9654 H   0  0  0  0  0  0  0  0  0  0  0  0
   37.1279   76.6326   52.8275 H   0  0  0  0  0  0  0  0  0  0  0  0
  1 16  1  0
  1  2  2  0
  3  2  1  0
  4  3  2  0
  5  6  2  0
  5  4  1  0
  6  1  1  0
  7  5  1  0
  8  7  1  0
  9 10  1  0
  9  8  2  0
 10 15  2  0
 11 12  2  0
 11 10  1  0
 12 13  1  0
 13 14  2  0
 15  7  1  0
 15 14  1  0
 16 17  2  0
 17 18  1  0
 19 18  2  0
 20 19  1  0
 21 20  2  0
 21 16  1  0
 22 26  1  0
 22 20  1  0
 23 22  1  0
 24 23  1  0
 24 25  2  0
 25 26  1  0
 27 11  1  0
  2 28  1  0
  3 29  1  0
  8 30  1  0
 13 31  1  0
 17 32  1  0
 18 33  1  0
 23 34  1  0
 23 35  1  0
 25 36  1  0
 26 37  1  0
 27 38  1  0
 27 39  1  0
M  END
>  <Score>  (1) 
-7.12868

$$$$
