
     RDKit          3D

 39 43  0  0  1  0  0  0  0  0999 V2000
   40.6810   80.7550   61.3000 N   0  0  0  0  0  0  0  0  0  0  0  0
   41.3240   80.4310   62.4350 C   0  0  0  0  0  0  0  0  0  0  0  0
   41.7190   79.1310   62.3790 N   0  0  0  0  0  0  0  0  0  0  0  0
   41.3310   78.6130   61.2100 C   0  0  0  0  0  0  0  0  0  0  0  0
   41.4140   77.4060   60.5580 C   0  0  1  0  0  0  0  0  0  0  0  0
   40.8840   77.2380   59.3270 N   0  0  0  0  0  0  0  0  0  0  0  0
   40.2470   78.2450   58.6720 C   0  0  0  0  0  0  0  0  0  0  0  0
   40.1800   79.4090   59.3260 N   0  0  0  0  0  0  0  0  0  0  0  0
   40.6850   79.6430   60.5500 C   0  0  0  0  0  0  0  0  0  0  0  0
   39.6980   78.0410   57.3750 N   0  0  0  0  0  0  0  0  0  0  0  0
   40.4990   78.1880   56.2790 C   0  0  0  0  0  0  0  0  0  0  0  0
   39.8070   77.9560   55.1540 N   0  0  0  0  0  0  0  0  0  0  0  0
   38.5630   77.6610   55.5190 C   0  0  0  0  0  0  0  0  0  0  0  0
   37.3910   77.3320   54.8890 C   0  0  0  0  0  0  0  0  0  0  0  0
   37.4060   77.2720   53.6210 O   0  0  0  0  0  0  0  0  0  0  0  0
   36.2790   77.0870   55.5970 N   0  0  0  0  0  0  0  0  0  0  0  0
   36.2450   77.1470   56.9570 C   0  0  0  0  0  0  0  0  0  0  0  0
   34.9920   76.8600   57.5650 N   0  0  0  0  0  0  0  0  0  0  0  0
   37.3760   77.4670   57.6490 N   0  0  0  0  0  0  0  0  0  0  0  0
   38.4840   77.7100   56.8950 C   0  0  0  0  0  0  0  0  0  0  0  0
   40.1360   82.0450   61.0380 C   0  0  0  0  0  0  0  0  0  0  0  0
   40.3090   82.7830   59.8670 C   0  0  0  0  0  0  0  0  0  0  0  0
   39.7050   84.0330   59.7710 C   0  0  0  0  0  0  0  0  0  0  0  0
   38.9700   84.4860   60.8260 N   0  0  0  0  0  0  0  0  0  0  0  0
   38.8220   83.7510   61.9420 C   0  0  0  0  0  0  0  0  0  0  0  0
   39.4000   82.5390   62.0500 N   0  0  0  0  0  0  0  0  0  0  0  0
   42.0660   76.3420   61.2050 N   0  0  0  0  0  0  0  0  0  0  0  0
   41.5032   81.1127   63.2795 H   0  0  0  0  0  0  0  0  0  0  0  0
   40.4601   77.0963   61.0099 H   0  0  0  0  0  0  0  0  0  0  0  0
   39.7027   80.1901   58.8539 H   0  0  0  0  0  0  0  0  0  0  0  0
   41.5645   78.4592   56.3140 H   0  0  0  0  0  0  0  0  0  0  0  0
   35.4152   76.8435   55.0915 H   0  0  0  0  0  0  0  0  0  0  0  0
   34.8987   76.8881   58.5904 H   0  0  0  0  0  0  0  0  0  0  0  0
   34.1777   76.6240   56.9800 H   0  0  0  0  0  0  0  0  0  0  0  0
   40.9105   82.3850   59.0365 H   0  0  0  0  0  0  0  0  0  0  0  0
   39.8183   84.6429   58.8626 H   0  0  0  0  0  0  0  0  0  0  0  0
   38.2222   84.1437   62.7763 H   0  0  0  0  0  0  0  0  0  0  0  0
   41.9917   76.4632   62.2251 H   0  0  0  0  0  0  0  0  0  0  0  0
   41.6250   75.4521   60.9320 H   0  0  0  0  0  0  0  0  0  0  0  0
  1  2  1  0
  3  2  2  0
  4  3  1  0
  5 27  1  0
  5  4  1  0
  6  5  1  0
  7  8  1  0
  7  6  2  0
  8  9  1  0
  9  4  2  0
  9  1  1  0
 10  7  1  0
 11 10  1  0
 12 13  1  0
 12 11  2  0
 13 20  2  0
 14 13  1  0
 14 16  1  0
 15 14  2  0
 16 17  1  0
 17 18  1  0
 17 19  2  0
 20 10  1  0
 20 19  1  0
 21  1  1  0
 21 26  1  0
 22 21  2  0
 23 22  1  0
 23 24  2  0
 24 25  1  0
 25 26  2  0
  2 28  1  0
  5 29  1  1
  8 30  1  0
 11 31  1  0
 16 32  1  0
 18 33  1  0
 18 34  1  0
 22 35  1  0
 23 36  1  0
 25 37  1  0
 27 38  1  0
 27 39  1  0
M  END
>  <Score>  (1) 
-7.87907

$$$$
