
     RDKit          3D

 43 46  0  0  1  0  0  0  0  0999 V2000
   41.0440   81.8250   58.8670 C   0  0  1  0  0  0  0  0  0  0  0  0
   41.7920   80.6220   59.2770 C   0  0  0  0  0  0  0  0  0  0  0  0
   41.1040   79.3180   59.0780 C   0  0  0  0  0  0  0  0  0  0  0  0
   40.2560   79.2180   57.8580 C   0  0  2  0  0  0  0  0  0  0  0  0
   39.5090   80.4210   57.4260 C   0  0  0  0  0  0  0  0  0  0  0  0
   40.2360   81.6840   57.6130 C   0  0  0  0  0  0  0  0  0  0  0  0
   39.3200   78.1240   58.0470 N   0  0  0  0  0  0  0  0  0  0  0  0
   39.2190   77.2470   59.0540 C   0  0  0  0  0  0  0  0  0  0  0  0
   38.1730   76.3600   58.8350 C   0  0  0  0  0  0  0  0  0  0  0  0
   37.6340   76.7170   57.6610 N   0  0  0  0  0  0  0  0  0  0  0  0
   38.3230   77.7640   57.2040 C   0  0  0  0  0  0  0  0  0  0  0  0
   37.8720   78.2630   55.9530 N   0  0  0  0  0  0  0  0  0  0  0  0
   37.8060   79.5730   55.5640 C   0  0  0  0  0  0  0  0  0  0  0  0
   37.3250   79.8860   54.3090 C   0  0  0  0  0  0  0  0  0  0  0  0
   36.9010   78.9270   53.4120 C   0  0  0  0  0  0  0  0  0  0  0  0
   36.4670   79.2770   52.2710 O   0  0  0  0  0  0  0  0  0  0  0  0
   36.9700   77.6640   53.8050 N   0  0  0  0  0  0  0  0  0  0  0  0
   37.4330   77.3730   55.0100 C   0  0  0  0  0  0  0  0  0  0  0  0
   37.4740   76.1360   55.3230 O   0  0  0  0  0  0  0  0  0  0  0  0
   40.0630   81.8440   61.1550 C   0  0  0  0  0  0  0  0  0  0  0  0
   40.2790   82.4800   59.9520 C   0  0  0  0  0  0  0  0  0  0  0  0
   39.7380   83.7540   59.8310 C   0  0  0  0  0  0  0  0  0  0  0  0
   39.0540   84.2790   60.8590 N   0  0  0  0  0  0  0  0  0  0  0  0
   38.8630   83.6340   62.0150 C   0  0  0  0  0  0  0  0  0  0  0  0
   39.3740   82.3800   62.1890 N   0  0  0  0  0  0  0  0  0  0  0  0
   41.8580   82.5183   58.6088 H   0  0  0  0  0  0  0  0  0  0  0  0
   42.7291   80.5977   58.7014 H   0  0  0  0  0  0  0  0  0  0  0  0
   41.9289   80.7183   60.3642 H   0  0  0  0  0  0  0  0  0  0  0  0
   41.8739   78.5344   59.0203 H   0  0  0  0  0  0  0  0  0  0  0  0
   40.4187   79.2059   59.9311 H   0  0  0  0  0  0  0  0  0  0  0  0
   40.9759   79.0611   57.0413 H   0  0  0  0  0  0  0  0  0  0  0  0
   38.5747   80.4725   58.0044 H   0  0  0  0  0  0  0  0  0  0  0  0
   39.3373   80.3136   56.3448 H   0  0  0  0  0  0  0  0  0  0  0  0
   40.9222   81.8011   56.7613 H   0  0  0  0  0  0  0  0  0  0  0  0
   39.4547   82.4546   57.6886 H   0  0  0  0  0  0  0  0  0  0  0  0
   39.8761   77.2313   59.9360 H   0  0  0  0  0  0  0  0  0  0  0  0
   37.8533   75.5356   59.4893 H   0  0  0  0  0  0  0  0  0  0  0  0
   38.1339   80.3709   56.2466 H   0  0  0  0  0  0  0  0  0  0  0  0
   37.2776   80.9439   54.0113 H   0  0  0  0  0  0  0  0  0  0  0  0
   36.6639   76.9098   53.1739 H   0  0  0  0  0  0  0  0  0  0  0  0
   40.4782   80.8335   61.2834 H   0  0  0  0  0  0  0  0  0  0  0  0
   39.8692   84.3269   58.9011 H   0  0  0  0  0  0  0  0  0  0  0  0
   38.2944   84.1137   62.8253 H   0  0  0  0  0  0  0  0  0  0  0  0
  1  2  1  0
  1 21  1  0
  3  2  1  0
  4  7  1  0
  4  3  1  0
  5  6  1  0
  5  4  1  0
  6  1  1  0
  7  8  1  0
  9  8  2  0
 10  9  1  0
 11 10  2  0
 11  7  1  0
 12 11  1  0
 13 12  1  0
 14 13  2  0
 15 17  1  0
 15 14  1  0
 16 15  2  0
 17 18  1  0
 18 19  2  0
 18 12  1  0
 20 25  2  0
 21 20  1  0
 22 21  2  0
 22 23  1  0
 23 24  2  0
 24 25  1  0
  1 26  1  6
  2 27  1  0
  2 28  1  0
  3 29  1  0
  3 30  1  0
  4 31  1  6
  5 32  1  0
  5 33  1  0
  6 34  1  0
  6 35  1  0
  8 36  1  0
  9 37  1  0
 13 38  1  0
 14 39  1  0
 17 40  1  0
 20 41  1  0
 22 42  1  0
 24 43  1  0
M  END
>  <Score>  (1) 
-7.36788

$$$$
