
     RDKit          3D

 50 54  0  0  0  0  0  0  0  0999 V2000
   42.9710   85.1770   59.5150 C   0  0  0  0  0  0  0  0  0  0  0  0
   43.1860   86.4120   59.5040 O   0  0  0  0  0  0  0  0  0  0  0  0
   42.6070   84.3880   63.1520 C   0  0  0  0  0  0  0  0  0  0  0  0
   42.8550   85.1230   61.9780 C   0  0  0  0  0  0  0  0  0  0  0  0
   42.7300   84.4850   60.7730 C   0  0  0  0  0  0  0  0  0  0  0  0
   42.3750   83.1840   60.7770 N   0  0  0  0  0  0  0  0  0  0  0  0
   42.1370   82.4840   61.9100 C   0  0  0  0  0  0  0  0  0  0  0  0
   42.2550   83.0940   63.0850 N   0  0  0  0  0  0  0  0  0  0  0  0
   41.7610   81.1090   61.8910 N   0  0  0  0  0  0  0  0  0  0  0  0
   42.7420   80.2180   61.8230 C   0  0  0  0  0  0  0  0  0  0  0  0
   42.3800   78.8790   61.8040 C   0  0  0  0  0  0  0  0  0  0  0  0
   41.0360   78.5750   61.8590 C   0  0  0  0  0  0  0  0  0  0  0  0
   40.5420   77.2320   61.8450 N   0  0  0  0  0  0  0  0  0  0  0  0
   40.0580   79.5250   61.9280 N   0  0  0  0  0  0  0  0  0  0  0  0
   40.4280   80.8410   61.9460 C   0  0  0  0  0  0  0  0  0  0  0  0
   39.5820   81.8030   62.0100 O   0  0  0  0  0  0  0  0  0  0  0  0
   42.9620   84.4360   58.2550 C   0  0  0  0  0  0  0  0  0  0  0  0
   43.9120   84.2800   57.2620 C   0  0  0  0  0  0  0  0  0  0  0  0
   43.6060   83.5190   56.1970 C   0  0  0  0  0  0  0  0  0  0  0  0
   42.3950   82.9050   56.0750 C   0  0  0  0  0  0  0  0  0  0  0  0
   41.5650   83.4680   57.6730 S   0  0  0  0  0  0  0  0  0  0  0  0
   41.7700   82.0910   55.1640 C   0  0  0  0  0  0  0  0  0  0  0  0
   42.2030   81.9930   53.8360 C   0  0  0  0  0  0  0  0  0  0  0  0
   41.5450   81.1550   52.9370 C   0  0  0  0  0  0  0  0  0  0  0  0
   40.4710   80.4330   53.3690 N   0  0  0  0  0  0  0  0  0  0  0  0
   40.0640   80.5360   54.6460 C   0  0  0  0  0  0  0  0  0  0  0  0
   40.7040   81.3390   55.4920 N   0  0  0  0  0  0  0  0  0  0  0  0
   38.9340   79.7640   55.0730 N   0  0  0  0  0  0  0  0  0  0  0  0
   37.6070   80.2860   55.3140 C   0  0  0  0  0  0  0  0  0  0  0  0
   37.1690   79.4550   56.5140 C   0  0  0  0  0  0  0  0  0  0  0  0
   37.6880   78.0850   56.1160 C   0  0  0  0  0  0  0  0  0  0  0  0
   38.9480   78.3380   55.3300 C   0  0  0  0  0  0  0  0  0  0  0  0
   42.7023   84.8774   64.1325 H   0  0  0  0  0  0  0  0  0  0  0  0
   43.1421   86.1837   62.0271 H   0  0  0  0  0  0  0  0  0  0  0  0
   43.7967   80.5278   61.7834 H   0  0  0  0  0  0  0  0  0  0  0  0
   43.1400   78.0858   61.7469 H   0  0  0  0  0  0  0  0  0  0  0  0
   39.5281   77.0557   61.8880 H   0  0  0  0  0  0  0  0  0  0  0  0
   41.2003   76.4416   61.7920 H   0  0  0  0  0  0  0  0  0  0  0  0
   44.8950   84.7673   57.3419 H   0  0  0  0  0  0  0  0  0  0  0  0
   44.3541   83.3880   55.4013 H   0  0  0  0  0  0  0  0  0  0  0  0
   43.0691   82.5818   53.4995 H   0  0  0  0  0  0  0  0  0  0  0  0
   41.8868   81.0770   51.8944 H   0  0  0  0  0  0  0  0  0  0  0  0
   37.6347   81.3586   55.5562 H   0  0  0  0  0  0  0  0  0  0  0  0
   36.9323   80.2151   54.4481 H   0  0  0  0  0  0  0  0  0  0  0  0
   37.6360   79.8102   57.4445 H   0  0  0  0  0  0  0  0  0  0  0  0
   36.0895   79.4901   56.7227 H   0  0  0  0  0  0  0  0  0  0  0  0
   37.9083   77.4838   57.0104 H   0  0  0  0  0  0  0  0  0  0  0  0
   36.9469   77.5263   55.5256 H   0  0  0  0  0  0  0  0  0  0  0  0
   38.9380   77.7726   54.3865 H   0  0  0  0  0  0  0  0  0  0  0  0
   39.8506   78.0191   55.8718 H   0  0  0  0  0  0  0  0  0  0  0  0
  1  5  1  0
  2  1  2  0
  4  3  2  0
  5  6  2  0
  5  4  1  0
  6  7  1  0
  7  8  2  0
  8  3  1  0
  9  7  1  0
  9 15  1  0
 10  9  1  0
 11 10  2  0
 11 12  1  0
 12 14  2  0
 13 12  1  0
 14 15  1  0
 15 16  2  0
 17  1  1  0
 18 17  2  0
 19 18  1  0
 20 19  2  0
 20 21  1  0
 21 17  1  0
 22 27  1  0
 22 20  1  0
 23 22  2  0
 24 25  2  0
 24 23  1  0
 25 26  1  0
 26 28  1  0
 26 27  2  0
 28 29  1  0
 28 32  1  0
 29 30  1  0
 31 30  1  0
 32 31  1  0
  3 33  1  0
  4 34  1  0
 10 35  1  0
 11 36  1  0
 13 37  1  0
 13 38  1  0
 18 39  1  0
 19 40  1  0
 23 41  1  0
 24 42  1  0
 29 43  1  0
 29 44  1  0
 30 45  1  0
 30 46  1  0
 31 47  1  0
 31 48  1  0
 32 49  1  0
 32 50  1  0
M  END
>  <Score>  (1) 
-7.1853

$$$$
