
     RDKit          3D

 40 43  0  0  0  0  0  0  0  0999 V2000
   40.9860   78.7580   60.6210 C   0  0  0  0  0  0  0  0  0  0  0  0
   40.6280   77.5710   61.2480 C   0  0  0  0  0  0  0  0  0  0  0  0
   39.7200   76.8740   60.4880 C   0  0  0  0  0  0  0  0  0  0  0  0
   39.5590   77.7040   59.3860 C   0  0  0  0  0  0  0  0  0  0  0  0
   40.3050   78.7800   59.5010 O   0  0  0  0  0  0  0  0  0  0  0  0
   38.7030   77.4620   58.2510 N   0  0  0  0  0  0  0  0  0  0  0  0
   37.7610   76.5460   57.9270 C   0  0  0  0  0  0  0  0  0  0  0  0
   37.2950   76.8390   56.7020 N   0  0  0  0  0  0  0  0  0  0  0  0
   37.9410   77.9400   56.2540 C   0  0  0  0  0  0  0  0  0  0  0  0
   37.7750   78.5880   55.0430 C   0  0  0  0  0  0  0  0  0  0  0  0
   36.9650   78.2320   54.1490 O   0  0  0  0  0  0  0  0  0  0  0  0
   38.5210   79.6780   54.7820 N   0  0  0  0  0  0  0  0  0  0  0  0
   39.3930   80.0710   55.7290 C   0  0  0  0  0  0  0  0  0  0  0  0
   40.2840   81.1950   55.6700 N   0  0  0  0  0  0  0  0  0  0  0  0
   39.5270   79.4170   56.8930 N   0  0  0  0  0  0  0  0  0  0  0  0
   38.8180   78.3240   57.2230 C   0  0  0  0  0  0  0  0  0  0  0  0
   43.1980   79.2860   61.6840 C   0  0  0  0  0  0  0  0  0  0  0  0
   41.9340   79.6860   61.2110 C   0  0  0  0  0  0  0  0  0  0  0  0
   41.5900   81.0200   61.3180 C   0  0  0  0  0  0  0  0  0  0  0  0
   42.5000   81.8920   61.8810 N   0  0  0  0  0  0  0  0  0  0  0  0
   43.6960   81.4540   62.3160 C   0  0  0  0  0  0  0  0  0  0  0  0
   44.0440   80.1590   62.2190 N   0  0  0  0  0  0  0  0  0  0  0  0
   44.5710   82.5170   62.9000 C   0  0  0  0  0  0  0  0  0  0  0  0
   45.5790   81.9160   63.6870 F   0  0  0  0  0  0  0  0  0  0  0  0
   43.8790   83.3460   63.7610 F   0  0  0  0  0  0  0  0  0  0  0  0
   45.1230   83.2450   61.8920 F   0  0  0  0  0  0  0  0  0  0  0  0
   40.3290   81.5720   60.8740 C   0  0  0  0  0  0  0  0  0  0  0  0
   40.0910   81.7270   59.6460 O   0  0  0  0  0  0  0  0  0  0  0  0
   39.3610   81.9380   61.8000 O   0  0  0  0  0  0  0  0  0  0  0  0
   39.2420   83.2750   62.2490 C   0  0  0  0  0  0  0  0  0  0  0  0
   39.9090   83.3880   63.4560 F   0  0  0  0  0  0  0  0  0  0  0  0
   40.0150   84.0270   61.3460 F   0  0  0  0  0  0  0  0  0  0  0  0
   37.9860   83.7690   62.2450 F   0  0  0  0  0  0  0  0  0  0  0  0
   41.0182   77.2351   62.2201 H   0  0  0  0  0  0  0  0  0  0  0  0
   39.2424   75.9057   60.6986 H   0  0  0  0  0  0  0  0  0  0  0  0
   37.4336   75.7065   58.5580 H   0  0  0  0  0  0  0  0  0  0  0  0
   38.4281   80.1905   53.8934 H   0  0  0  0  0  0  0  0  0  0  0  0
   40.9100   81.3981   56.4623 H   0  0  0  0  0  0  0  0  0  0  0  0
   40.2973   81.7984   54.8354 H   0  0  0  0  0  0  0  0  0  0  0  0
   43.4912   78.2284   61.6090 H   0  0  0  0  0  0  0  0  0  0  0  0
  1 18  1  0
  1  2  2  0
  3  2  1  0
  4  5  1  0
  4  3  2  0
  5  1  1  0
  6  4  1  0
  7  6  1  0
  8  7  2  0
  9  8  1  0
  9 16  2  0
 10  9  1  0
 11 10  2  0
 12 10  1  0
 12 13  1  0
 13 15  2  0
 14 13  1  0
 15 16  1  0
 16  6  1  0
 17 22  2  0
 18 19  2  0
 18 17  1  0
 19 20  1  0
 20 21  2  0
 21 23  1  0
 22 21  1  0
 23 24  1  0
 23 25  1  0
 26 23  1  0
 27 19  1  0
 27 29  1  0
 28 27  2  0
 29 30  1  0
 30 31  1  0
 32 30  1  0
 33 30  1  0
  2 34  1  0
  3 35  1  0
  7 36  1  0
 12 37  1  0
 14 38  1  0
 14 39  1  0
 17 40  1  0
M  END
>  <Score>  (1) 
-7.27272

$$$$
