
     RDKit          3D

 53 57  0  0  0  0  0  0  0  0999 V2000
   44.6960   87.0430   61.0720 C   0  0  0  0  0  0  0  0  0  0  0  0
   43.8830   87.0020   59.9040 C   0  0  0  0  0  0  0  0  0  0  0  0
   43.4110   85.8260   59.4260 C   0  0  0  0  0  0  0  0  0  0  0  0
   43.7280   84.7090   60.0740 N   0  0  0  0  0  0  0  0  0  0  0  0
   44.4980   84.6850   61.1930 C   0  0  0  0  0  0  0  0  0  0  0  0
   44.9710   85.8500   61.6750 N   0  0  0  0  0  0  0  0  0  0  0  0
   44.7840   83.4240   61.8240 C   0  0  0  0  0  0  0  0  0  0  0  0
   45.7670   83.3600   62.7840 C   0  0  0  0  0  0  0  0  0  0  0  0
   45.9330   82.0800   63.3350 C   0  0  0  0  0  0  0  0  0  0  0  0
   45.1970   81.0000   62.9630 N   0  0  0  0  0  0  0  0  0  0  0  0
   44.2540   81.1480   62.0170 C   0  0  0  0  0  0  0  0  0  0  0  0
   44.0440   82.3460   61.4480 N   0  0  0  0  0  0  0  0  0  0  0  0
   43.5350   79.9640   61.6930 N   0  0  0  0  0  0  0  0  0  0  0  0
   42.3950   79.7750   61.0130 C   0  0  0  0  0  0  0  0  0  0  0  0
   42.0840   78.4640   60.9510 N   0  0  0  0  0  0  0  0  0  0  0  0
   43.0370   77.7820   61.6040 C   0  0  0  0  0  0  0  0  0  0  0  0
   43.1350   76.4220   61.7990 C   0  0  0  0  0  0  0  0  0  0  0  0
   44.2050   75.9540   62.5020 N   0  0  0  0  0  0  0  0  0  0  0  0
   45.0920   76.8680   62.9560 C   0  0  0  0  0  0  0  0  0  0  0  0
   44.9740   78.2100   62.7500 N   0  0  0  0  0  0  0  0  0  0  0  0
   43.9370   78.7210   62.0630 C   0  0  0  0  0  0  0  0  0  0  0  0
   42.5960   85.9260   58.2220 C   0  0  0  0  0  0  0  0  0  0  0  0
   41.8240   84.6930   57.9740 C   0  0  0  0  0  0  0  0  0  0  0  0
   40.9110   84.3670   59.1120 C   0  0  0  0  0  0  0  0  0  0  0  0
   39.8310   85.1180   59.4570 C   0  0  0  0  0  0  0  0  0  0  0  0
   39.2330   84.5170   60.5450 C   0  0  0  0  0  0  0  0  0  0  0  0
   39.9860   83.4680   60.7690 C   0  0  0  0  0  0  0  0  0  0  0  0
   40.9450   83.3950   59.9370 O   0  0  0  0  0  0  0  0  0  0  0  0
   39.8020   82.4700   61.8330 C   0  0  0  0  0  0  0  0  0  0  0  0
   39.3790   81.3390   61.7460 O   0  0  0  0  0  0  0  0  0  0  0  0
   40.1460   82.8210   63.1360 O   0  0  0  0  0  0  0  0  0  0  0  0
   41.2670   83.2210   63.6800 C   0  0  0  0  0  0  0  0  0  0  0  0
   41.0660   84.6800   64.2050 C   0  0  0  0  0  0  0  0  0  0  0  0
   40.1200   84.6730   65.2970 N   0  0  0  0  0  0  0  0  0  0  0  0
   45.0844   87.9921   61.4699 H   0  0  0  0  0  0  0  0  0  0  0  0
   43.6348   87.9383   59.3827 H   0  0  0  0  0  0  0  0  0  0  0  0
   46.3663   84.2299   63.0908 H   0  0  0  0  0  0  0  0  0  0  0  0
   46.7010   81.9435   64.1106 H   0  0  0  0  0  0  0  0  0  0  0  0
   41.7942   80.5807   60.5659 H   0  0  0  0  0  0  0  0  0  0  0  0
   42.3739   75.7353   61.4001 H   0  0  0  0  0  0  0  0  0  0  0  0
   45.9609   76.5068   63.5257 H   0  0  0  0  0  0  0  0  0  0  0  0
   41.8958   86.7667   58.3357 H   0  0  0  0  0  0  0  0  0  0  0  0
   43.2701   86.0830   57.3670 H   0  0  0  0  0  0  0  0  0  0  0  0
   41.2223   84.8276   57.0630 H   0  0  0  0  0  0  0  0  0  0  0  0
   42.5363   83.8625   57.8605 H   0  0  0  0  0  0  0  0  0  0  0  0
   39.4948   86.0390   58.9582 H   0  0  0  0  0  0  0  0  0  0  0  0
   38.3368   84.8412   61.0943 H   0  0  0  0  0  0  0  0  0  0  0  0
   41.5315   82.5579   64.5169 H   0  0  0  0  0  0  0  0  0  0  0  0
   42.0786   83.1941   62.9380 H   0  0  0  0  0  0  0  0  0  0  0  0
   42.0289   85.0790   64.5566 H   0  0  0  0  0  0  0  0  0  0  0  0
   40.6819   85.3128   63.3913 H   0  0  0  0  0  0  0  0  0  0  0  0
   40.6291   84.6768   66.1924 H   0  0  0  0  0  0  0  0  0  0  0  0
   39.5220   85.5096   65.2386 H   0  0  0  0  0  0  0  0  0  0  0  0
  1  6  2  0
  2  1  1  0
  3  2  2  0
  3  4  1  0
  4  5  2  0
  5  6  1  0
  5  7  1  0
  7  8  2  0
  8  9  1  0
 10  9  2  0
 11 10  1  0
 12  7  1  0
 12 11  2  0
 13 11  1  0
 13 21  1  0
 14 13  1  0
 15 14  2  0
 15 16  1  0
 16 17  2  0
 16 21  1  0
 17 18  1  0
 18 19  2  0
 20 19  1  0
 21 20  2  0
 22  3  1  0
 23 22  1  0
 23 24  1  0
 24 25  2  0
 24 28  1  0
 25 26  1  0
 26 27  2  0
 27 29  1  0
 28 27  1  0
 29 31  1  0
 30 29  2  0
 31 32  1  0
 32 33  1  0
 33 34  1  0
  1 35  1  0
  2 36  1  0
  8 37  1  0
  9 38  1  0
 14 39  1  0
 17 40  1  0
 19 41  1  0
 22 42  1  0
 22 43  1  0
 23 44  1  0
 23 45  1  0
 25 46  1  0
 26 47  1  0
 32 48  1  0
 32 49  1  0
 33 50  1  0
 33 51  1  0
 34 52  1  0
 34 53  1  0
M  END
>  <Score>  (1) 
-7.01172

$$$$
