
     RDKit          3D

 48 52  0  0  0  0  0  0  0  0999 V2000
   40.4210   76.2950   60.7210 C   0  0  0  0  0  0  0  0  0  0  0  0
   40.5570   79.9950   60.7880 C   0  0  0  0  0  0  0  0  0  0  0  0
   41.7600   80.2260   61.4650 C   0  0  0  0  0  0  0  0  0  0  0  0
   42.4800   79.0990   61.8740 C   0  0  0  0  0  0  0  0  0  0  0  0
   41.9800   77.8790   61.5960 N   0  0  0  0  0  0  0  0  0  0  0  0
   40.8310   77.6840   60.9490 C   0  0  0  0  0  0  0  0  0  0  0  0
   40.1230   78.7370   60.5470 N   0  0  0  0  0  0  0  0  0  0  0  0
   42.2170   81.5200   61.7150 N   0  0  0  0  0  0  0  0  0  0  0  0
   43.2740   82.0800   61.0620 C   0  0  0  0  0  0  0  0  0  0  0  0
   43.4700   83.3410   61.5250 N   0  0  0  0  0  0  0  0  0  0  0  0
   42.5470   83.5830   62.4640 C   0  0  0  0  0  0  0  0  0  0  0  0
   42.2920   84.6750   63.2550 C   0  0  0  0  0  0  0  0  0  0  0  0
   41.2410   84.5750   64.1000 N   0  0  0  0  0  0  0  0  0  0  0  0
   40.4930   83.5010   64.2160 C   0  0  0  0  0  0  0  0  0  0  0  0
   40.7750   82.4440   63.4450 N   0  0  0  0  0  0  0  0  0  0  0  0
   41.7810   82.4330   62.5590 C   0  0  0  0  0  0  0  0  0  0  0  0
   38.9860   76.0950   60.3660 C   0  0  0  0  0  0  0  0  0  0  0  0
   38.8330   75.7670   58.9270 C   0  0  0  0  0  0  0  0  0  0  0  0
   39.0530   74.4940   58.4520 C   0  0  0  0  0  0  0  0  0  0  0  0
   38.8870   74.2580   57.0720 C   0  0  0  0  0  0  0  0  0  0  0  0
   38.5140   75.3630   56.3380 C   0  0  0  0  0  0  0  0  0  0  0  0
   38.3010   76.6170   56.8320 C   0  0  0  0  0  0  0  0  0  0  0  0
   38.4720   76.7980   58.1670 N   0  0  0  0  0  0  0  0  0  0  0  0
   37.9050   77.7540   56.0090 C   0  0  0  0  0  0  0  0  0  0  0  0
   37.5740   77.6480   54.6770 C   0  0  0  0  0  0  0  0  0  0  0  0
   37.2080   78.7480   53.9470 C   0  0  0  0  0  0  0  0  0  0  0  0
   37.1500   80.0130   54.4920 C   0  0  0  0  0  0  0  0  0  0  0  0
   37.4800   80.1330   55.8260 C   0  0  0  0  0  0  0  0  0  0  0  0
   37.8460   79.0190   56.5500 C   0  0  0  0  0  0  0  0  0  0  0  0
   41.0318   75.8927   59.8994 H   0  0  0  0  0  0  0  0  0  0  0  0
   40.5679   75.7773   61.6804 H   0  0  0  0  0  0  0  0  0  0  0  0
   39.9551   80.8501   60.4466 H   0  0  0  0  0  0  0  0  0  0  0  0
   43.4340   79.2062   62.4111 H   0  0  0  0  0  0  0  0  0  0  0  0
   43.8739   81.5877   60.2824 H   0  0  0  0  0  0  0  0  0  0  0  0
   43.1904   84.8666   63.8601 H   0  0  0  0  0  0  0  0  0  0  0  0
   42.0297   85.4847   62.5582 H   0  0  0  0  0  0  0  0  0  0  0  0
   39.6559   83.4714   64.9290 H   0  0  0  0  0  0  0  0  0  0  0  0
   40.1920   81.5998   63.5366 H   0  0  0  0  0  0  0  0  0  0  0  0
   38.5785   75.2695   60.9681 H   0  0  0  0  0  0  0  0  0  0  0  0
   38.4416   77.0284   60.5716 H   0  0  0  0  0  0  0  0  0  0  0  0
   39.3506   73.6818   59.1315 H   0  0  0  0  0  0  0  0  0  0  0  0
   39.0431   73.2689   56.6167 H   0  0  0  0  0  0  0  0  0  0  0  0
   38.3754   75.2214   55.2560 H   0  0  0  0  0  0  0  0  0  0  0  0
   37.6039   76.6622   54.1899 H   0  0  0  0  0  0  0  0  0  0  0  0
   36.9506   78.6169   52.8856 H   0  0  0  0  0  0  0  0  0  0  0  0
   36.8544   80.8858   53.8912 H   0  0  0  0  0  0  0  0  0  0  0  0
   37.4510   81.1192   56.3125 H   0  0  0  0  0  0  0  0  0  0  0  0
   38.1036   79.1465   57.6118 H   0  0  0  0  0  0  0  0  0  0  0  0
  1  6  1  0
  2  3  2  0
  3  8  1  0
  3  4  1  0
  5  4  2  0
  6  5  1  0
  7  2  1  0
  7  6  2  0
  8 16  1  0
  9 10  2  0
  9  8  1  0
 10 11  1  0
 11 16  2  0
 11 12  1  0
 12 13  1  0
 13 14  2  0
 15 14  1  0
 16 15  1  0
 17  1  1  0
 18 17  1  0
 19 18  2  0
 20 19  1  0
 21 22  1  0
 21 20  2  0
 22 23  2  0
 23 18  1  0
 24 29  1  0
 24 22  1  0
 25 24  2  0
 26 27  2  0
 26 25  1  0
 27 28  1  0
 28 29  2  0
  1 30  1  0
  1 31  1  0
  2 32  1  0
  4 33  1  0
  9 34  1  0
 12 35  1  0
 12 36  1  0
 14 37  1  0
 15 38  1  0
 17 39  1  0
 17 40  1  0
 19 41  1  0
 20 42  1  0
 21 43  1  0
 25 44  1  0
 26 45  1  0
 27 46  1  0
 28 47  1  0
 29 48  1  0
M  END
>  <Score>  (1) 
-7.29526

$$$$
