
     RDKit          3D

 48 52  0  0  1  0  0  0  0  0999 V2000
   40.3490   80.4900   60.9540 C   0  0  2  0  0  0  0  0  0  0  0  0
   39.8730   81.8940   60.9190 C   0  0  0  0  0  0  0  0  0  0  0  0
   40.0490   82.6540   59.7190 C   0  0  0  0  0  0  0  0  0  0  0  0
   39.6270   83.9780   59.6500 C   0  0  0  0  0  0  0  0  0  0  0  0
   39.0450   84.4730   60.8010 N   0  0  0  0  0  0  0  0  0  0  0  0
   38.8900   83.7390   61.9190 C   0  0  0  0  0  0  0  0  0  0  0  0
   39.3000   82.4510   61.9860 N   0  0  0  0  0  0  0  0  0  0  0  0
   41.4430   80.3550   62.0430 C   0  0  0  0  0  0  0  0  0  0  0  0
   42.5610   81.2240   61.8380 N   0  0  0  0  0  0  0  0  0  0  0  0
   43.8170   80.7920   61.6610 C   0  0  0  0  0  0  0  0  0  0  0  0
   44.6380   81.8600   61.5500 N   0  0  0  0  0  0  0  0  0  0  0  0
   43.8520   82.9710   61.6420 C   0  0  0  0  0  0  0  0  0  0  0  0
   42.5780   82.5630   61.8540 N   0  0  0  0  0  0  0  0  0  0  0  0
   44.2060   84.3500   61.5460 N   0  0  0  0  0  0  0  0  0  0  0  0
   43.3800   85.3520   61.7170 N   0  0  0  0  0  0  0  0  0  0  0  0
   44.0110   86.5310   61.5630 C   0  0  0  0  0  0  0  0  0  0  0  0
   45.3080   86.2080   61.2810 C   0  0  0  0  0  0  0  0  0  0  0  0
   45.4260   84.8570   61.2710 C   0  0  0  0  0  0  0  0  0  0  0  0
   40.8790   80.0310   59.6560 C   0  0  0  0  0  0  0  0  0  0  0  0
   40.0010   78.9460   59.1470 C   0  0  0  0  0  0  0  0  0  0  0  0
   39.9210   77.7850   59.8420 N   0  0  0  0  0  0  0  0  0  0  0  0
   39.1750   76.7620   59.4190 C   0  0  0  0  0  0  0  0  0  0  0  0
   38.4930   76.9020   58.2740 N   0  0  0  0  0  0  0  0  0  0  0  0
   38.5040   78.0080   57.5140 C   0  0  0  0  0  0  0  0  0  0  0  0
   37.7640   78.1140   56.3390 C   0  0  0  0  0  0  0  0  0  0  0  0
   37.8160   79.2940   55.6230 C   0  0  0  0  0  0  0  0  0  0  0  0
   38.5930   80.3650   56.0600 C   0  0  0  0  0  0  0  0  0  0  0  0
   39.2930   80.1870   57.2240 C   0  0  0  0  0  0  0  0  0  0  0  0
   39.2850   79.0480   57.9780 C   0  0  0  0  0  0  0  0  0  0  0  0
   39.4836   79.8522   61.1873 H   0  0  0  0  0  0  0  0  0  0  0  0
   40.5225   82.1868   58.8429 H   0  0  0  0  0  0  0  0  0  0  0  0
   39.7483   84.5879   58.7426 H   0  0  0  0  0  0  0  0  0  0  0  0
   38.4181   84.1979   62.8004 H   0  0  0  0  0  0  0  0  0  0  0  0
   40.9937   80.5897   63.0192 H   0  0  0  0  0  0  0  0  0  0  0  0
   41.8216   79.3233   61.9960 H   0  0  0  0  0  0  0  0  0  0  0  0
   44.1217   80.1806   62.5232 H   0  0  0  0  0  0  0  0  0  0  0  0
   43.8750   80.1820   60.7475 H   0  0  0  0  0  0  0  0  0  0  0  0
   41.7637   83.1761   62.0018 H   0  0  0  0  0  0  0  0  0  0  0  0
   43.5759   87.5378   61.6463 H   0  0  0  0  0  0  0  0  0  0  0  0
   46.1213   86.9244   61.0933 H   0  0  0  0  0  0  0  0  0  0  0  0
   46.3435   84.2826   61.0755 H   0  0  0  0  0  0  0  0  0  0  0  0
   40.8877   80.8675   58.9417 H   0  0  0  0  0  0  0  0  0  0  0  0
   41.9069   79.6588   59.7783 H   0  0  0  0  0  0  0  0  0  0  0  0
   39.1214   75.8271   59.9961 H   0  0  0  0  0  0  0  0  0  0  0  0
   37.1488   77.2727   55.9873 H   0  0  0  0  0  0  0  0  0  0  0  0
   37.2352   79.3898   54.6937 H   0  0  0  0  0  0  0  0  0  0  0  0
   38.6420   81.3087   55.4969 H   0  0  0  0  0  0  0  0  0  0  0  0
   39.9092   81.0262   57.5790 H   0  0  0  0  0  0  0  0  0  0  0  0
  1  8  1  0
  2  1  1  0
  2  7  1  0
  3  2  2  0
  4  3  1  0
  4  5  2  0
  5  6  1  0
  6  7  2  0
  9 13  1  0
  9  8  1  0
 10  9  1  0
 11 12  2  0
 11 10  1  0
 12 13  1  0
 14 12  1  0
 14 15  1  0
 16 15  2  0
 17 16  1  0
 18 17  2  0
 18 14  1  0
 19  1  1  0
 20 19  1  0
 20 21  2  0
 22 21  1  0
 23 22  2  0
 24 29  2  0
 24 23  1  0
 25 24  1  0
 26 27  1  0
 26 25  2  0
 27 28  2  0
 28 29  1  0
 29 20  1  0
  1 30  1  1
  3 31  1  0
  4 32  1  0
  6 33  1  0
  8 34  1  0
  8 35  1  0
 10 36  1  0
 10 37  1  0
 13 38  1  0
 16 39  1  0
 17 40  1  0
 18 41  1  0
 19 42  1  0
 19 43  1  0
 22 44  1  0
 25 45  1  0
 26 46  1  0
 27 47  1  0
 28 48  1  0
M  END
>  <Score>  (1) 
-7.13169

$$$$
