
     RDKit          3D

 45 50  0  0  0  0  0  0  0  0999 V2000
   41.9310   83.9310   60.8980 C   0  0  0  0  0  0  0  0  0  0  0  0
   40.5600   84.1020   60.8790 C   0  0  0  0  0  0  0  0  0  0  0  0
   39.6610   83.0850   61.0870 C   0  0  0  0  0  0  0  0  0  0  0  0
   40.1360   81.8150   61.3320 C   0  0  0  0  0  0  0  0  0  0  0  0
   41.4790   81.5640   61.3670 C   0  0  0  0  0  0  0  0  0  0  0  0
   41.9590   80.3140   61.6070 C   0  0  0  0  0  0  0  0  0  0  0  0
   43.3230   80.0300   61.6470 C   0  0  0  0  0  0  0  0  0  0  0  0
   44.1690   81.1020   61.4280 C   0  0  0  0  0  0  0  0  0  0  0  0
   43.6480   82.3470   61.1900 C   0  0  0  0  0  0  0  0  0  0  0  0
   42.3070   82.6330   61.1490 C   0  0  0  0  0  0  0  0  0  0  0  0
   43.8600   86.8930   59.4680 C   0  0  0  0  0  0  0  0  0  0  0  0
   43.0230   85.7820   59.4920 C   0  0  0  0  0  0  0  0  0  0  0  0
   42.7530   85.0780   60.6680 C   0  0  0  0  0  0  0  0  0  0  0  0
   43.3940   85.5970   61.7640 N   0  0  0  0  0  0  0  0  0  0  0  0
   44.1980   86.6630   61.7400 C   0  0  0  0  0  0  0  0  0  0  0  0
   44.4220   87.2990   60.5940 N   0  0  0  0  0  0  0  0  0  0  0  0
   41.0580   79.1580   61.8460 C   0  0  0  0  0  0  0  0  0  0  0  0
   40.3100   78.7000   62.8480 N   0  0  0  0  0  0  0  0  0  0  0  0
   39.6800   77.6140   62.5730 O   0  0  0  0  0  0  0  0  0  0  0  0
   39.9720   77.2830   61.3690 C   0  0  0  0  0  0  0  0  0  0  0  0
   40.8060   78.2070   60.9110 N   0  0  0  0  0  0  0  0  0  0  0  0
   39.5520   76.1440   60.5230 C   0  0  0  0  0  0  0  0  0  0  0  0
   38.4500   76.0140   59.6820 C   0  0  0  0  0  0  0  0  0  0  0  0
   38.4730   74.8050   59.1140 N   0  0  0  0  0  0  0  0  0  0  0  0
   39.5490   74.1270   59.5500 C   0  0  0  0  0  0  0  0  0  0  0  0
   39.9200   72.8590   59.2000 C   0  0  0  0  0  0  0  0  0  0  0  0
   41.0750   72.3590   59.7770 C   0  0  0  0  0  0  0  0  0  0  0  0
   41.8090   73.1200   60.6620 C   0  0  0  0  0  0  0  0  0  0  0  0
   41.3880   74.4130   60.9880 C   0  0  0  0  0  0  0  0  0  0  0  0
   40.2420   74.9410   60.4320 C   0  0  0  0  0  0  0  0  0  0  0  0
   40.1660   85.1108   60.6862 H   0  0  0  0  0  0  0  0  0  0  0  0
   38.5790   83.2811   61.0585 H   0  0  0  0  0  0  0  0  0  0  0  0
   39.4253   80.9927   61.5016 H   0  0  0  0  0  0  0  0  0  0  0  0
   43.7031   79.0161   61.8407 H   0  0  0  0  0  0  0  0  0  0  0  0
   45.2591   80.9554   61.4448 H   0  0  0  0  0  0  0  0  0  0  0  0
   44.3535   83.1737   61.0202 H   0  0  0  0  0  0  0  0  0  0  0  0
   44.0517   87.4264   58.5253 H   0  0  0  0  0  0  0  0  0  0  0  0
   42.5581   85.4466   58.5532 H   0  0  0  0  0  0  0  0  0  0  0  0
   44.6743   87.0145   62.6671 H   0  0  0  0  0  0  0  0  0  0  0  0
   37.6829   76.7839   59.5123 H   0  0  0  0  0  0  0  0  0  0  0  0
   37.7750   74.4479   58.4460 H   0  0  0  0  0  0  0  0  0  0  0  0
   39.3272   72.2621   58.4913 H   0  0  0  0  0  0  0  0  0  0  0  0
   41.4112   71.3421   59.5263 H   0  0  0  0  0  0  0  0  0  0  0  0
   42.7255   72.7101   61.1115 H   0  0  0  0  0  0  0  0  0  0  0  0
   41.9772   75.0151   61.6953 H   0  0  0  0  0  0  0  0  0  0  0  0
  1 10  1  0
  2  1  2  0
  2  3  1  0
  3  4  2  0
  4  5  1  0
  5  6  2  0
  6  7  1  0
  6 17  1  0
  8  7  2  0
  9  8  1  0
 10  9  2  0
 10  5  1  0
 11 12  2  0
 11 16  1  0
 12 13  1  0
 13  1  1  0
 13 14  2  0
 15 14  1  0
 16 15  2  0
 17 18  2  0
 19 18  1  0
 20 19  1  0
 21 20  2  0
 21 17  1  0
 22 20  1  0
 23 22  2  0
 24 25  1  0
 24 23  1  0
 25 30  2  0
 26 25  1  0
 26 27  2  0
 27 28  1  0
 28 29  2  0
 30 22  1  0
 30 29  1  0
  2 31  1  0
  3 32  1  0
  4 33  1  0
  7 34  1  0
  8 35  1  0
  9 36  1  0
 11 37  1  0
 12 38  1  0
 15 39  1  0
 23 40  1  0
 24 41  1  0
 26 42  1  0
 27 43  1  0
 28 44  1  0
 29 45  1  0
M  END
>  <Score>  (1) 
-7.18688

$$$$
