
     RDKit          3D

 51 55  0  0  0  0  0  0  0  0999 V2000
   42.9990   85.1880   59.5440 C   0  0  0  0  0  0  0  0  0  0  0  0
   43.2740   86.4140   59.5310 O   0  0  0  0  0  0  0  0  0  0  0  0
   42.6000   84.4210   63.1780 C   0  0  0  0  0  0  0  0  0  0  0  0
   42.8610   85.1470   62.0040 C   0  0  0  0  0  0  0  0  0  0  0  0
   42.7450   84.5010   60.8020 C   0  0  0  0  0  0  0  0  0  0  0  0
   42.3880   83.2050   60.8040 N   0  0  0  0  0  0  0  0  0  0  0  0
   42.1380   82.5100   61.9390 C   0  0  0  0  0  0  0  0  0  0  0  0
   42.2460   83.1240   63.1130 N   0  0  0  0  0  0  0  0  0  0  0  0
   41.7590   81.1340   61.9220 N   0  0  0  0  0  0  0  0  0  0  0  0
   42.7390   80.2450   61.8670 C   0  0  0  0  0  0  0  0  0  0  0  0
   42.3690   78.9040   61.8500 C   0  0  0  0  0  0  0  0  0  0  0  0
   41.0260   78.6030   61.8930 C   0  0  0  0  0  0  0  0  0  0  0  0
   40.5290   77.2640   61.8810 N   0  0  0  0  0  0  0  0  0  0  0  0
   40.0560   79.5520   61.9490 N   0  0  0  0  0  0  0  0  0  0  0  0
   40.4220   80.8730   61.9650 C   0  0  0  0  0  0  0  0  0  0  0  0
   39.5800   81.8340   62.0170 O   0  0  0  0  0  0  0  0  0  0  0  0
   42.9360   84.4570   58.2790 C   0  0  0  0  0  0  0  0  0  0  0  0
   43.7920   84.3890   57.1970 C   0  0  0  0  0  0  0  0  0  0  0  0
   43.4560   83.6100   56.1540 C   0  0  0  0  0  0  0  0  0  0  0  0
   42.2970   82.8940   56.1430 C   0  0  0  0  0  0  0  0  0  0  0  0
   41.5860   83.3760   57.8150 S   0  0  0  0  0  0  0  0  0  0  0  0
   41.6560   82.0320   55.2850 C   0  0  0  0  0  0  0  0  0  0  0  0
   42.0870   81.8370   53.9680 C   0  0  0  0  0  0  0  0  0  0  0  0
   41.4110   80.9520   53.1280 C   0  0  0  0  0  0  0  0  0  0  0  0
   40.3340   80.2840   53.5990 N   0  0  0  0  0  0  0  0  0  0  0  0
   39.9230   80.4740   54.8670 C   0  0  0  0  0  0  0  0  0  0  0  0
   40.5750   81.3210   55.6610 N   0  0  0  0  0  0  0  0  0  0  0  0
   38.7840   79.7530   55.3290 N   0  0  0  0  0  0  0  0  0  0  0  0
   37.7260   79.3610   54.4450 C   0  0  0  0  0  0  0  0  0  0  0  0
   37.1190   78.0290   54.7750 C   0  0  0  0  0  0  0  0  0  0  0  0
   37.0400   77.7920   56.1410 O   0  0  0  0  0  0  0  0  0  0  0  0
   38.2860   77.9120   56.7610 C   0  0  0  0  0  0  0  0  0  0  0  0
   38.6530   79.3820   56.7250 C   0  0  0  0  0  0  0  0  0  0  0  0
   42.6855   84.9157   64.1568 H   0  0  0  0  0  0  0  0  0  0  0  0
   43.1511   86.2071   62.0490 H   0  0  0  0  0  0  0  0  0  0  0  0
   43.7948   80.5521   61.8362 H   0  0  0  0  0  0  0  0  0  0  0  0
   43.1267   78.1079   61.8036 H   0  0  0  0  0  0  0  0  0  0  0  0
   39.5142   77.0910   61.9147 H   0  0  0  0  0  0  0  0  0  0  0  0
   41.1854   76.4714   61.8386 H   0  0  0  0  0  0  0  0  0  0  0  0
   44.7312   84.9616   57.1889 H   0  0  0  0  0  0  0  0  0  0  0  0
   44.1329   83.5493   55.2891 H   0  0  0  0  0  0  0  0  0  0  0  0
   42.9640   82.3848   53.5929 H   0  0  0  0  0  0  0  0  0  0  0  0
   41.7507   80.7992   52.0930 H   0  0  0  0  0  0  0  0  0  0  0  0
   38.1287   79.3141   53.4225 H   0  0  0  0  0  0  0  0  0  0  0  0
   36.9277   80.1103   54.5510 H   0  0  0  0  0  0  0  0  0  0  0  0
   36.1036   77.9925   54.3536 H   0  0  0  0  0  0  0  0  0  0  0  0
   37.7706   77.2547   54.3439 H   0  0  0  0  0  0  0  0  0  0  0  0
   38.2263   77.5620   57.8021 H   0  0  0  0  0  0  0  0  0  0  0  0
   39.0436   77.3032   56.2458 H   0  0  0  0  0  0  0  0  0  0  0  0
   39.6053   79.5465   57.2504 H   0  0  0  0  0  0  0  0  0  0  0  0
   37.8834   79.9907   57.2221 H   0  0  0  0  0  0  0  0  0  0  0  0
  1  5  1  0
  2  1  2  0
  4  3  2  0
  5  6  2  0
  5  4  1  0
  6  7  1  0
  7  8  2  0
  8  3  1  0
  9  7  1  0
  9 15  1  0
 10  9  1  0
 11 10  2  0
 11 12  1  0
 12 14  2  0
 13 12  1  0
 14 15  1  0
 15 16  2  0
 17  1  1  0
 18 17  2  0
 19 18  1  0
 20 19  2  0
 20 21  1  0
 21 17  1  0
 22 27  1  0
 22 20  1  0
 23 22  2  0
 24 25  2  0
 24 23  1  0
 25 26  1  0
 26 28  1  0
 26 27  2  0
 28 33  1  0
 29 30  1  0
 29 28  1  0
 30 31  1  0
 31 32  1  0
 33 32  1  0
  3 34  1  0
  4 35  1  0
 10 36  1  0
 11 37  1  0
 13 38  1  0
 13 39  1  0
 18 40  1  0
 19 41  1  0
 23 42  1  0
 24 43  1  0
 29 44  1  0
 29 45  1  0
 30 46  1  0
 30 47  1  0
 32 48  1  0
 32 49  1  0
 33 50  1  0
 33 51  1  0
M  END
>  <Score>  (1) 
-7.19041

$$$$
