
     RDKit          3D

 40 44  0  0  0  0  0  0  0  0999 V2000
   40.8450   83.1840   63.7160 C   0  0  0  0  0  0  0  0  0  0  0  0
   41.6920   84.2350   63.2650 C   0  0  0  0  0  0  0  0  0  0  0  0
   42.0640   84.1780   61.9390 C   0  0  0  0  0  0  0  0  0  0  0  0
   41.5920   83.1420   61.2050 N   0  0  0  0  0  0  0  0  0  0  0  0
   40.8020   82.1640   61.6310 C   0  0  0  0  0  0  0  0  0  0  0  0
   40.4290   82.1950   62.9070 N   0  0  0  0  0  0  0  0  0  0  0  0
   42.9160   85.1980   61.4190 N   0  0  0  0  0  0  0  0  0  0  0  0
   43.9230   85.8670   62.0670 C   0  0  0  0  0  0  0  0  0  0  0  0
   44.4870   86.7670   61.2240 N   0  0  0  0  0  0  0  0  0  0  0  0
   43.8300   86.6630   60.0350 C   0  0  0  0  0  0  0  0  0  0  0  0
   44.0480   87.3740   58.8730 C   0  0  0  0  0  0  0  0  0  0  0  0
   44.9320   88.2440   58.8010 O   0  0  0  0  0  0  0  0  0  0  0  0
   43.2470   87.0610   57.8480 N   0  0  0  0  0  0  0  0  0  0  0  0
   42.2930   86.1140   57.9510 C   0  0  0  0  0  0  0  0  0  0  0  0
   41.4600   85.8130   56.8250 N   0  0  0  0  0  0  0  0  0  0  0  0
   42.0680   85.4070   59.0910 N   0  0  0  0  0  0  0  0  0  0  0  0
   42.8460   85.6780   60.1600 C   0  0  0  0  0  0  0  0  0  0  0  0
   40.5010   81.2230   60.5600 C   0  0  0  0  0  0  0  0  0  0  0  0
   40.2620   81.6230   59.2620 C   0  0  0  0  0  0  0  0  0  0  0  0
   39.9750   80.7650   58.2300 C   0  0  0  0  0  0  0  0  0  0  0  0
   39.9090   79.4130   58.4480 C   0  0  0  0  0  0  0  0  0  0  0  0
   40.1350   78.9660   59.7100 C   0  0  0  0  0  0  0  0  0  0  0  0
   40.0620   77.6000   59.9100 C   0  0  0  0  0  0  0  0  0  0  0  0
   40.2750   77.0580   61.1510 C   0  0  0  0  0  0  0  0  0  0  0  0
   40.5650   77.9570   62.1830 C   0  0  0  0  0  0  0  0  0  0  0  0
   40.6290   79.3060   61.9420 C   0  0  0  0  0  0  0  0  0  0  0  0
   40.4200   79.8570   60.7180 C   0  0  0  0  0  0  0  0  0  0  0  0
   40.5186   83.1812   64.7664 H   0  0  0  0  0  0  0  0  0  0  0  0
   42.0286   85.0419   63.9325 H   0  0  0  0  0  0  0  0  0  0  0  0
   44.2266   85.6991   63.1109 H   0  0  0  0  0  0  0  0  0  0  0  0
   43.3627   87.5584   56.9535 H   0  0  0  0  0  0  0  0  0  0  0  0
   40.7308   85.0897   56.9026 H   0  0  0  0  0  0  0  0  0  0  0  0
   41.5903   86.3199   55.9379 H   0  0  0  0  0  0  0  0  0  0  0  0
   40.3041   82.6994   59.0394 H   0  0  0  0  0  0  0  0  0  0  0  0
   39.7967   81.1648   57.2209 H   0  0  0  0  0  0  0  0  0  0  0  0
   39.6809   78.7148   57.6291 H   0  0  0  0  0  0  0  0  0  0  0  0
   39.8299   76.9391   59.0619 H   0  0  0  0  0  0  0  0  0  0  0  0
   40.2208   75.9734   61.3262 H   0  0  0  0  0  0  0  0  0  0  0  0
   40.7438   77.5776   63.1999 H   0  0  0  0  0  0  0  0  0  0  0  0
   40.8615   79.9759   62.7830 H   0  0  0  0  0  0  0  0  0  0  0  0
  2  1  2  0
  3  2  1  0
  4  5  1  0
  4  3  2  0
  5  6  2  0
  6  1  1  0
  7  3  1  0
  7  8  1  0
  9  8  2  0
 10 17  2  0
 10  9  1  0
 11 10  1  0
 12 11  2  0
 13 14  1  0
 13 11  1  0
 14 16  2  0
 15 14  1  0
 16 17  1  0
 17  7  1  0
 18 27  1  0
 18  5  1  0
 19 18  2  0
 20 21  2  0
 20 19  1  0
 21 22  1  0
 22 23  1  0
 22 27  2  0
 23 24  2  0
 24 25  1  0
 26 25  2  0
 27 26  1  0
  1 28  1  0
  2 29  1  0
  8 30  1  0
 13 31  1  0
 15 32  1  0
 15 33  1  0
 19 34  1  0
 20 35  1  0
 21 36  1  0
 23 37  1  0
 24 38  1  0
 25 39  1  0
 26 40  1  0
M  END
>  <Score>  (1) 
-7.606

$$$$
