
     RDKit          3D

 44 47  0  0  0  0  0  0  0  0999 V2000
   40.9310   81.2410   61.5020 C   0  0  0  0  0  0  0  0  0  0  0  0
   41.6350   81.9750   60.5250 C   0  0  0  0  0  0  0  0  0  0  0  0
   41.6970   83.3820   60.7560 C   0  0  0  0  0  0  0  0  0  0  0  0
   41.1080   83.9050   61.8310 N   0  0  0  0  0  0  0  0  0  0  0  0
   40.4360   83.1540   62.7380 C   0  0  0  0  0  0  0  0  0  0  0  0
   40.3560   81.8280   62.5630 N   0  0  0  0  0  0  0  0  0  0  0  0
   39.8060   83.7530   63.8760 N   0  0  0  0  0  0  0  0  0  0  0  0
   40.5820   84.5180   64.7830 C   0  0  0  0  0  0  0  0  0  0  0  0
   41.8220   84.2110   64.9430 N   0  0  0  0  0  0  0  0  0  0  0  0
   39.9670   85.5910   65.4840 N   0  0  0  0  0  0  0  0  0  0  0  0
   42.3810   84.7630   65.6230 H   0  0  0  0  0  0  0  0  0  0  0  0
   42.2560   81.4870   59.3420 C   0  0  0  0  0  0  0  0  0  0  0  0
   43.6020   81.3000   59.4740 C   0  0  0  0  0  0  0  0  0  0  0  0
   44.3950   80.7410   58.5110 C   0  0  0  0  0  0  0  0  0  0  0  0
   43.8320   80.3410   57.3480 C   0  0  0  0  0  0  0  0  0  0  0  0
   42.4540   80.5160   57.1670 C   0  0  0  0  0  0  0  0  0  0  0  0
   41.7970   80.1570   55.9920 C   0  0  0  0  0  0  0  0  0  0  0  0
   40.4450   80.3920   55.8790 C   0  0  0  0  0  0  0  0  0  0  0  0
   39.7180   80.9640   56.8720 C   0  0  0  0  0  0  0  0  0  0  0  0
   40.3870   81.3140   58.0330 C   0  0  0  0  0  0  0  0  0  0  0  0
   41.7150   81.0830   58.1600 C   0  0  0  0  0  0  0  0  0  0  0  0
   42.1810   84.4900   60.0280 N   0  0  0  0  0  0  0  0  0  0  0  0
   43.4140   85.0240   60.3090 C   0  0  0  0  0  0  0  0  0  0  0  0
   43.8190   86.1440   59.5860 C   0  0  0  0  0  0  0  0  0  0  0  0
   43.0100   86.7020   58.6180 C   0  0  0  0  0  0  0  0  0  0  0  0
   43.4550   87.8570   57.8890 N   0  0  0  0  0  0  0  0  0  0  0  0
   41.8210   86.1380   58.3890 N   0  0  0  0  0  0  0  0  0  0  0  0
   41.3840   85.0560   59.0600 C   0  0  0  0  0  0  0  0  0  0  0  0
   40.2560   84.6390   58.7440 O   0  0  0  0  0  0  0  0  0  0  0  0
   40.8504   80.1496   61.3905 H   0  0  0  0  0  0  0  0  0  0  0  0
   38.7959   83.6289   64.0345 H   0  0  0  0  0  0  0  0  0  0  0  0
   40.5174   86.1561   66.1463 H   0  0  0  0  0  0  0  0  0  0  0  0
   38.9710   85.8033   65.3296 H   0  0  0  0  0  0  0  0  0  0  0  0
   44.0777   81.6188   60.4132 H   0  0  0  0  0  0  0  0  0  0  0  0
   45.4751   80.6183   58.6794 H   0  0  0  0  0  0  0  0  0  0  0  0
   44.4462   79.8857   56.5572 H   0  0  0  0  0  0  0  0  0  0  0  0
   42.3519   79.6913   55.1643 H   0  0  0  0  0  0  0  0  0  0  0  0
   39.9344   80.1050   54.9479 H   0  0  0  0  0  0  0  0  0  0  0  0
   38.6385   81.1428   56.7590 H   0  0  0  0  0  0  0  0  0  0  0  0
   39.8342   81.7841   58.8597 H   0  0  0  0  0  0  0  0  0  0  0  0
   44.0616   84.5818   61.0804 H   0  0  0  0  0  0  0  0  0  0  0  0
   44.8026   86.5918   59.7910 H   0  0  0  0  0  0  0  0  0  0  0  0
   42.8512   88.2739   57.1661 H   0  0  0  0  0  0  0  0  0  0  0  0
   44.3779   88.2683   58.0891 H   0  0  0  0  0  0  0  0  0  0  0  0
  1  6  2  0
  2  3  2  0
  2  1  1  0
  3  4  1  0
  4  5  2  0
  5  7  1  0
  6  5  1  0
  7  8  1  0
  8  9  2  0
  8 10  1  0
  9 11  1  0
 12 13  2  0
 12  2  1  0
 14 13  1  0
 15 14  2  0
 16 15  1  0
 16 21  2  0
 17 16  1  0
 18 17  2  0
 18 19  1  0
 19 20  2  0
 20 21  1  0
 21 12  1  0
 22 23  1  0
 22  3  1  0
 24 23  2  0
 25 24  1  0
 26 25  1  0
 27 25  2  0
 27 28  1  0
 28 22  1  0
 29 28  2  0
  1 30  1  0
  7 31  1  0
 10 32  1  0
 10 33  1  0
 13 34  1  0
 14 35  1  0
 15 36  1  0
 17 37  1  0
 18 38  1  0
 19 39  1  0
 20 40  1  0
 23 41  1  0
 24 42  1  0
 26 43  1  0
 26 44  1  0
M  END
>  <Score>  (1) 
-7.32685

$$$$
