
     RDKit          3D

 38 41  0  0  0  0  0  0  0  0999 V2000
   40.5390   78.8240   60.5350 C   0  0  0  0  0  0  0  0  0  0  0  0
   40.2170   77.7580   61.4110 C   0  0  0  0  0  0  0  0  0  0  0  0
   39.6450   76.5870   60.9260 C   0  0  0  0  0  0  0  0  0  0  0  0
   39.4280   76.5480   59.5900 N   0  0  0  0  0  0  0  0  0  0  0  0
   39.7280   77.5470   58.7610 C   0  0  0  0  0  0  0  0  0  0  0  0
   40.2750   78.6580   59.2450 N   0  0  0  0  0  0  0  0  0  0  0  0
   39.4940   77.4910   57.3540 N   0  0  0  0  0  0  0  0  0  0  0  0
   40.1040   76.6910   56.4580 C   0  0  0  0  0  0  0  0  0  0  0  0
   39.6060   76.9370   55.2360 N   0  0  0  0  0  0  0  0  0  0  0  0
   38.6800   77.8980   55.3680 C   0  0  0  0  0  0  0  0  0  0  0  0
   38.6270   78.2220   56.6690 N   0  0  0  0  0  0  0  0  0  0  0  0
   37.9080   78.4560   54.3120 N   0  0  0  0  0  0  0  0  0  0  0  0
   38.5330   79.4510   53.6270 C   0  0  0  0  0  0  0  0  0  0  0  0
   37.6560   79.8860   52.6380 C   0  0  0  0  0  0  0  0  0  0  0  0
   36.5550   79.1580   52.7530 N   0  0  0  0  0  0  0  0  0  0  0  0
   36.6930   78.2890   53.7600 C   0  0  0  0  0  0  0  0  0  0  0  0
   41.1450   80.0540   61.0790 C   0  0  0  0  0  0  0  0  0  0  0  0
   42.2810   80.6350   60.5520 C   0  0  0  0  0  0  0  0  0  0  0  0
   42.5770   82.0280   61.5290 S   0  0  0  0  0  0  0  0  0  0  0  0
   41.0970   81.7330   62.6270 C   0  0  0  0  0  0  0  0  0  0  0  0
   40.6070   80.6230   62.0840 N   0  0  0  0  0  0  0  0  0  0  0  0
   40.7520   82.5850   63.7090 N   0  0  0  0  0  0  0  0  0  0  0  0
   40.1560   83.8230   63.4290 C   0  0  0  0  0  0  0  0  0  0  0  0
   39.6700   84.1100   62.2920 N   0  0  0  0  0  0  0  0  0  0  0  0
   40.1490   84.7360   64.5640 N   0  0  0  0  0  0  0  0  0  0  0  0
   39.2450   85.0300   62.0780 H   0  0  0  0  0  0  0  0  0  0  0  0
   40.4218   77.8578   62.4871 H   0  0  0  0  0  0  0  0  0  0  0  0
   39.3853   75.7459   61.5857 H   0  0  0  0  0  0  0  0  0  0  0  0
   41.1855   76.8917   56.4618 H   0  0  0  0  0  0  0  0  0  0  0  0
   39.9291   75.6379   56.7234 H   0  0  0  0  0  0  0  0  0  0  0  0
   38.0039   78.9343   57.0754 H   0  0  0  0  0  0  0  0  0  0  0  0
   39.5440   79.8397   53.8191 H   0  0  0  0  0  0  0  0  0  0  0  0
   37.8414   80.6819   51.9017 H   0  0  0  0  0  0  0  0  0  0  0  0
   35.9373   77.5581   54.0835 H   0  0  0  0  0  0  0  0  0  0  0  0
   42.8719   80.2851   59.6927 H   0  0  0  0  0  0  0  0  0  0  0  0
   40.9360   82.2992   64.6813 H   0  0  0  0  0  0  0  0  0  0  0  0
   39.7348   85.6741   64.4678 H   0  0  0  0  0  0  0  0  0  0  0  0
   40.5583   84.4435   65.4628 H   0  0  0  0  0  0  0  0  0  0  0  0
  1 17  1  0
  1  2  2  0
  3  2  1  0
  4  3  2  0
  5  6  2  0
  5  4  1  0
  6  1  1  0
  7  5  1  0
  8  7  1  0
  9 10  2  0
  9  8  1  0
 10 11  1  0
 11  7  1  0
 12 10  1  0
 13 12  1  0
 14 15  1  0
 14 13  2  0
 15 16  2  0
 16 12  1  0
 17 21  1  0
 18 17  2  0
 18 19  1  0
 19 20  1  0
 20 22  1  0
 21 20  2  0
 23 22  1  0
 23 25  1  0
 24 23  2  0
 26 24  1  0
  2 27  1  0
  3 28  1  0
  8 29  1  0
  8 30  1  0
 11 31  1  0
 13 32  1  0
 14 33  1  0
 16 34  1  0
 18 35  1  0
 22 36  1  0
 25 37  1  0
 25 38  1  0
M  END
>  <Score>  (1) 
-7.08693

$$$$
