
     RDKit          3D

 47 51  0  0  0  0  0  0  0  0999 V2000
   39.8570   82.2500   60.3540 C   0  0  0  0  0  0  0  0  0  0  0  0
   40.2150   83.2080   59.3700 C   0  0  0  0  0  0  0  0  0  0  0  0
   39.9680   84.5520   59.6450 C   0  0  0  0  0  0  0  0  0  0  0  0
   39.3850   84.8600   60.8790 N   0  0  0  0  0  0  0  0  0  0  0  0
   39.0560   83.8900   61.8050 C   0  0  0  0  0  0  0  0  0  0  0  0
   39.2800   82.5680   61.5710 N   0  0  0  0  0  0  0  0  0  0  0  0
   40.1260   80.9070   59.9950 N   0  0  0  0  0  0  0  0  0  0  0  0
   40.2990   80.4060   58.7880 C   0  0  0  0  0  0  0  0  0  0  0  0
   40.5600   79.0920   58.8460 N   0  0  0  0  0  0  0  0  0  0  0  0
   40.5500   78.7330   60.1400 C   0  0  0  0  0  0  0  0  0  0  0  0
   40.7290   77.4990   60.7170 C   0  0  0  0  0  0  0  0  0  0  0  0
   40.9840   76.5000   59.9680 O   0  0  0  0  0  0  0  0  0  0  0  0
   40.6250   77.4140   62.0560 N   0  0  0  0  0  0  0  0  0  0  0  0
   40.3570   78.5070   62.7580 C   0  0  0  0  0  0  0  0  0  0  0  0
   40.2370   78.2420   64.1190 N   0  0  0  0  0  0  0  0  0  0  0  0
   40.1780   79.7410   62.2310 N   0  0  0  0  0  0  0  0  0  0  0  0
   40.2710   79.8950   60.8810 C   0  0  0  0  0  0  0  0  0  0  0  0
   40.2040   80.9280   57.4400 C   0  0  0  0  0  0  0  0  0  0  0  0
   40.7140   79.9740   56.3680 C   0  0  0  0  0  0  0  0  0  0  0  0
   42.0420   79.8240   55.9870 C   0  0  0  0  0  0  0  0  0  0  0  0
   42.1970   78.9200   55.0190 N   0  0  0  0  0  0  0  0  0  0  0  0
   40.9820   78.4780   54.7630 C   0  0  0  0  0  0  0  0  0  0  0  0
   40.5400   77.5260   53.8560 C   0  0  0  0  0  0  0  0  0  0  0  0
   39.1890   77.2090   53.7610 C   0  0  0  0  0  0  0  0  0  0  0  0
   38.2910   77.8530   54.5800 C   0  0  0  0  0  0  0  0  0  0  0  0
   38.6750   78.8190   55.5130 C   0  0  0  0  0  0  0  0  0  0  0  0
   40.0370   79.0890   55.5590 C   0  0  0  0  0  0  0  0  0  0  0  0
   37.6740   79.4610   56.3610 C   0  0  0  0  0  0  0  0  0  0  0  0
   37.1120   80.6570   55.5440 C   0  0  0  0  0  0  0  0  0  0  0  0
   40.6736   82.8992   58.4190 H   0  0  0  0  0  0  0  0  0  0  0  0
   40.2215   85.3396   58.9202 H   0  0  0  0  0  0  0  0  0  0  0  0
   38.6000   84.1942   62.7587 H   0  0  0  0  0  0  0  0  0  0  0  0
   40.7523   76.5090   62.5311 H   0  0  0  0  0  0  0  0  0  0  0  0
   40.0293   79.0073   64.7763 H   0  0  0  0  0  0  0  0  0  0  0  0
   40.3559   77.2806   64.4689 H   0  0  0  0  0  0  0  0  0  0  0  0
   39.1478   81.1518   57.2295 H   0  0  0  0  0  0  0  0  0  0  0  0
   40.8431   81.8224   57.3997 H   0  0  0  0  0  0  0  0  0  0  0  0
   42.8733   80.3885   56.4344 H   0  0  0  0  0  0  0  0  0  0  0  0
   43.0766   78.6297   54.5685 H   0  0  0  0  0  0  0  0  0  0  0  0
   41.2656   77.0164   53.2050 H   0  0  0  0  0  0  0  0  0  0  0  0
   38.8433   76.4532   53.0404 H   0  0  0  0  0  0  0  0  0  0  0  0
   37.2246   77.5963   54.4967 H   0  0  0  0  0  0  0  0  0  0  0  0
   36.8680   78.7523   56.6020 H   0  0  0  0  0  0  0  0  0  0  0  0
   38.1125   79.7976   57.3120 H   0  0  0  0  0  0  0  0  0  0  0  0
   36.7474   81.4329   56.2333 H   0  0  0  0  0  0  0  0  0  0  0  0
   37.9082   81.0744   54.9101 H   0  0  0  0  0  0  0  0  0  0  0  0
   36.2825   80.3105   54.9101 H   0  0  0  0  0  0  0  0  0  0  0  0
  1  6  2  0
  2  3  2  0
  2  1  1  0
  3  4  1  0
  4  5  2  0
  6  5  1  0
  7  1  1  0
  7 17  1  0
  8  9  2  0
  8  7  1  0
  9 10  1  0
 10 11  1  0
 10 17  2  0
 11 13  1  0
 12 11  2  0
 13 14  1  0
 14 15  1  0
 16 14  2  0
 17 16  1  0
 18  8  1  0
 19 18  1  0
 20 19  2  0
 21 20  1  0
 22 21  1  0
 22 27  2  0
 23 22  1  0
 24 23  2  0
 24 25  1  0
 25 26  2  0
 26 27  1  0
 26 28  1  0
 27 19  1  0
 29 28  1  0
  2 30  1  0
  3 31  1  0
  5 32  1  0
 13 33  1  0
 15 34  1  0
 15 35  1  0
 18 36  1  0
 18 37  1  0
 20 38  1  0
 21 39  1  0
 23 40  1  0
 24 41  1  0
 25 42  1  0
 28 43  1  0
 28 44  1  0
 29 45  1  0
 29 46  1  0
 29 47  1  0
M  END
>  <Score>  (1) 
-7.28998

$$$$
