
     RDKit          3D

 43 46  0  0  0  0  0  0  0  0999 V2000
   41.1710   81.5250   60.2650 C   0  0  0  0  0  0  0  0  0  0  0  0
   42.3140   81.2530   61.0430 C   0  0  0  0  0  0  0  0  0  0  0  0
   42.6640   79.9420   61.3730 C   0  0  0  0  0  0  0  0  0  0  0  0
   41.8620   78.9610   60.9150 N   0  0  0  0  0  0  0  0  0  0  0  0
   40.7720   79.2220   60.1720 C   0  0  0  0  0  0  0  0  0  0  0  0
   40.4850   80.4780   59.8870 N   0  0  0  0  0  0  0  0  0  0  0  0
   39.9260   78.1760   59.6880 N   0  0  0  0  0  0  0  0  0  0  0  0
   39.4080   78.3670   58.4310 C   0  0  0  0  0  0  0  0  0  0  0  0
   38.6330   77.2160   58.2100 C   0  0  0  0  0  0  0  0  0  0  0  0
   38.6910   76.4030   59.2640 N   0  0  0  0  0  0  0  0  0  0  0  0
   39.4880   77.0030   60.1660 C   0  0  0  0  0  0  0  0  0  0  0  0
   39.8820   76.5710   61.4550 N   0  0  0  0  0  0  0  0  0  0  0  0
   40.7700   82.8720   59.8990 C   0  0  0  0  0  0  0  0  0  0  0  0
   41.2740   83.3470   58.6890 C   0  0  0  0  0  0  0  0  0  0  0  0
   40.9470   84.6250   58.2540 C   0  0  0  0  0  0  0  0  0  0  0  0
   40.1380   85.3730   59.0320 C   0  0  0  0  0  0  0  0  0  0  0  0
   39.6290   84.9340   60.2210 C   0  0  0  0  0  0  0  0  0  0  0  0
   39.9550   83.6500   60.6640 C   0  0  0  0  0  0  0  0  0  0  0  0
   39.3840   83.2330   61.9400 C   0  0  0  0  0  0  0  0  0  0  0  0
   38.2180   83.1120   62.2860 O   0  0  0  0  0  0  0  0  0  0  0  0
   40.1160   82.8870   63.0370 O   0  0  0  0  0  0  0  0  0  0  0  0
   40.8920   83.6030   63.8750 C   0  0  0  0  0  0  0  0  0  0  0  0
   42.1820   84.1260   63.4800 N   0  0  0  0  0  0  0  0  0  0  0  0
   40.3950   83.7700   65.0180 O   0  0  0  0  0  0  0  0  0  0  0  0
   37.8580   76.9660   56.9500 C   0  0  0  0  0  0  0  0  0  0  0  0
   37.2400   78.1940   56.2710 C   0  0  0  0  0  0  0  0  0  0  0  0
   36.3420   77.2570   56.9870 C   0  0  0  0  0  0  0  0  0  0  0  0
   42.9400   82.0859   61.3957 H   0  0  0  0  0  0  0  0  0  0  0  0
   43.5544   79.7202   61.9796 H   0  0  0  0  0  0  0  0  0  0  0  0
   39.5633   79.2210   57.7553 H   0  0  0  0  0  0  0  0  0  0  0  0
   39.5448   75.6694   61.8214 H   0  0  0  0  0  0  0  0  0  0  0  0
   40.5059   77.1583   62.0266 H   0  0  0  0  0  0  0  0  0  0  0  0
   41.9307   82.7096   58.0787 H   0  0  0  0  0  0  0  0  0  0  0  0
   41.3366   85.0158   57.3024 H   0  0  0  0  0  0  0  0  0  0  0  0
   39.8754   86.3858   58.6924 H   0  0  0  0  0  0  0  0  0  0  0  0
   38.9724   85.5817   60.8205 H   0  0  0  0  0  0  0  0  0  0  0  0
   42.7449   84.6687   64.1504 H   0  0  0  0  0  0  0  0  0  0  0  0
   42.5374   83.9556   62.5284 H   0  0  0  0  0  0  0  0  0  0  0  0
   38.4923   76.1215   56.6425 H   0  0  0  0  0  0  0  0  0  0  0  0
   37.4242   79.1965   56.6845 H   0  0  0  0  0  0  0  0  0  0  0  0
   37.2677   78.6030   55.2502 H   0  0  0  0  0  0  0  0  0  0  0  0
   35.6482   76.6208   56.4179 H   0  0  0  0  0  0  0  0  0  0  0  0
   35.5945   77.3622   57.7872 H   0  0  0  0  0  0  0  0  0  0  0  0
  1  2  2  0
  2  3  1  0
  4  3  2  0
  5  4  1  0
  6  5  2  0
  6  1  1  0
  7 11  1  0
  7  5  1  0
  8  7  1  0
  9  8  2  0
  9 10  1  0
 10 11  2  0
 11 12  1  0
 13  1  1  0
 13 18  1  0
 14 13  2  0
 15 14  1  0
 15 16  2  0
 16 17  1  0
 17 18  2  0
 18 19  1  0
 19 20  2  0
 19 21  1  0
 21 22  1  0
 22 24  2  0
 23 22  1  0
 25 27  1  0
 25  9  1  0
 26 25  1  0
 26 27  1  0
  2 28  1  0
  3 29  1  0
  8 30  1  0
 12 31  1  0
 12 32  1  0
 14 33  1  0
 15 34  1  0
 16 35  1  0
 17 36  1  0
 23 37  1  0
 23 38  1  0
 25 39  1  0
 26 40  1  0
 26 41  1  0
 27 42  1  0
 27 43  1  0
M  END
>  <Score>  (1) 
-7.48643

$$$$
