
     RDKit          3D

 46 50  0  0  0  0  0  0  0  0999 V2000
   42.2800   84.7250   57.0800 C   0  0  0  0  0  0  0  0  0  0  0  0
   41.7070   83.4760   56.6760 C   0  0  0  0  0  0  0  0  0  0  0  0
   41.4670   82.5330   57.6550 C   0  0  0  0  0  0  0  0  0  0  0  0
   41.7930   82.8680   58.9130 N   0  0  0  0  0  0  0  0  0  0  0  0
   42.3250   84.0230   59.3040 C   0  0  0  0  0  0  0  0  0  0  0  0
   42.5680   84.9520   58.3740 N   0  0  0  0  0  0  0  0  0  0  0  0
   42.6560   84.3240   60.6820 C   0  0  0  0  0  0  0  0  0  0  0  0
   43.8200   84.8640   61.1970 C   0  0  0  0  0  0  0  0  0  0  0  0
   43.7610   85.0010   62.5320 N   0  0  0  0  0  0  0  0  0  0  0  0
   42.5550   84.5490   62.8850 C   0  0  0  0  0  0  0  0  0  0  0  0
   41.9070   84.4350   64.1400 C   0  0  0  0  0  0  0  0  0  0  0  0
   40.6300   83.9170   64.1840 C   0  0  0  0  0  0  0  0  0  0  0  0
   39.9340   83.4980   63.0790 C   0  0  0  0  0  0  0  0  0  0  0  0
   40.5730   83.6120   61.8550 C   0  0  0  0  0  0  0  0  0  0  0  0
   41.8530   84.1280   61.7810 C   0  0  0  0  0  0  0  0  0  0  0  0
   40.8780   81.2240   57.3140 C   0  0  0  0  0  0  0  0  0  0  0  0
   41.7100   80.0930   57.2190 C   0  0  0  0  0  0  0  0  0  0  0  0
   40.5290   78.7320   56.7800 S   0  0  0  0  0  0  0  0  0  0  0  0
   39.1050   79.9840   56.8100 C   0  0  0  0  0  0  0  0  0  0  0  0
   39.6240   80.9380   57.0710 N   0  0  0  0  0  0  0  0  0  0  0  0
   37.6680   79.5630   56.5140 C   0  0  0  0  0  0  0  0  0  0  0  0
   37.3490   79.8360   55.0650 C   0  0  0  0  0  0  0  0  0  0  0  0
   37.5990   78.6390   54.1750 C   0  0  0  0  0  0  0  0  0  0  0  0
   36.8370   77.4180   54.5710 C   0  0  0  0  0  0  0  0  0  0  0  0
   36.5310   77.3600   56.0460 C   0  0  0  0  0  0  0  0  0  0  0  0
   37.5310   78.1150   56.8760 C   0  0  0  0  0  0  0  0  0  0  0  0
   42.4854   85.5018   56.3288 H   0  0  0  0  0  0  0  0  0  0  0  0
   41.4664   83.2751   55.6216 H   0  0  0  0  0  0  0  0  0  0  0  0
   44.6901   85.1475   60.5866 H   0  0  0  0  0  0  0  0  0  0  0  0
   44.4923   85.3759   63.1529 H   0  0  0  0  0  0  0  0  0  0  0  0
   42.4138   84.7541   65.0627 H   0  0  0  0  0  0  0  0  0  0  0  0
   40.1395   83.8348   65.1652 H   0  0  0  0  0  0  0  0  0  0  0  0
   38.9156   83.0903   63.1608 H   0  0  0  0  0  0  0  0  0  0  0  0
   40.0589   83.2902   60.9373 H   0  0  0  0  0  0  0  0  0  0  0  0
   42.7980   80.0311   57.3689 H   0  0  0  0  0  0  0  0  0  0  0  0
   36.9446   80.1400   57.1088 H   0  0  0  0  0  0  0  0  0  0  0  0
   36.2887   80.1179   54.9855 H   0  0  0  0  0  0  0  0  0  0  0  0
   38.0125   80.6453   54.7263 H   0  0  0  0  0  0  0  0  0  0  0  0
   38.6727   78.4022   54.2073 H   0  0  0  0  0  0  0  0  0  0  0  0
   37.2561   78.9150   53.1669 H   0  0  0  0  0  0  0  0  0  0  0  0
   35.8872   77.4037   54.0163 H   0  0  0  0  0  0  0  0  0  0  0  0
   37.4677   76.5485   54.3341 H   0  0  0  0  0  0  0  0  0  0  0  0
   35.5342   77.7930   56.2159 H   0  0  0  0  0  0  0  0  0  0  0  0
   36.5738   76.3046   56.3529 H   0  0  0  0  0  0  0  0  0  0  0  0
   38.5130   77.6350   56.7526 H   0  0  0  0  0  0  0  0  0  0  0  0
   37.1660   78.0836   57.9132 H   0  0  0  0  0  0  0  0  0  0  0  0
  1  6  2  0
  2  1  1  0
  2  3  2  0
  3  4  1  0
  4  5  2  0
  5  7  1  0
  6  5  1  0
  7  8  2  0
  7 15  1  0
  8  9  1  0
  9 10  1  0
 10 11  2  0
 11 12  1  0
 13 12  2  0
 14 13  1  0
 15 14  2  0
 15 10  1  0
 16  3  1  0
 17 16  2  0
 18 19  1  0
 18 17  1  0
 19 20  2  0
 20 16  1  0
 21 19  1  0
 21 26  1  0
 22 21  1  0
 23 24  1  0
 23 22  1  0
 24 25  1  0
 25 26  1  0
  1 27  1  0
  2 28  1  0
  8 29  1  0
  9 30  1  0
 11 31  1  0
 12 32  1  0
 13 33  1  0
 14 34  1  0
 17 35  1  0
 21 36  1  0
 22 37  1  0
 22 38  1  0
 23 39  1  0
 23 40  1  0
 24 41  1  0
 24 42  1  0
 25 43  1  0
 25 44  1  0
 26 45  1  0
 26 46  1  0
M  END
>  <Score>  (1) 
-7.03156

$$$$
