
     RDKit          3D

 45 49  0  0  0  0  0  0  0  0999 V2000
   40.9930   81.7260   56.4270 C   0  0  0  0  0  0  0  0  0  0  0  0
   40.7760   81.4800   57.7820 C   0  0  0  0  0  0  0  0  0  0  0  0
   39.7470   80.6170   58.1270 C   0  0  0  0  0  0  0  0  0  0  0  0
   39.0070   80.0600   57.1110 N   0  0  0  0  0  0  0  0  0  0  0  0
   39.2520   80.3240   55.8270 C   0  0  0  0  0  0  0  0  0  0  0  0
   40.2570   81.1680   55.4780 N   0  0  0  0  0  0  0  0  0  0  0  0
   41.5660   82.0770   58.8670 C   0  0  0  0  0  0  0  0  0  0  0  0
   42.8990   82.1910   59.1110 N   0  0  0  0  0  0  0  0  0  0  0  0
   43.0390   82.8290   60.2540 O   0  0  0  0  0  0  0  0  0  0  0  0
   41.9130   83.1390   60.7740 C   0  0  0  0  0  0  0  0  0  0  0  0
   40.9670   82.6760   59.9200 N   0  0  0  0  0  0  0  0  0  0  0  0
   41.6390   83.8220   61.9830 N   0  0  0  0  0  0  0  0  0  0  0  0
   42.6810   84.5740   62.6420 C   0  0  0  0  0  0  0  0  0  0  0  0
   42.6580   84.2750   64.1200 C   0  0  0  0  0  0  0  0  0  0  0  0
   41.3070   84.3120   64.6690 N   0  0  0  0  0  0  0  0  0  0  0  0
   40.4970   83.2820   64.0140 C   0  0  0  0  0  0  0  0  0  0  0  0
   40.3140   83.7820   62.5830 C   0  0  0  0  0  0  0  0  0  0  0  0
   38.4450   79.7120   54.7820 C   0  0  0  0  0  0  0  0  0  0  0  0
   37.8490   78.4900   54.9340 C   0  0  0  0  0  0  0  0  0  0  0  0
   37.0880   77.9270   53.9320 C   0  0  0  0  0  0  0  0  0  0  0  0
   36.9650   78.6410   52.8020 N   0  0  0  0  0  0  0  0  0  0  0  0
   37.5370   79.8470   52.6150 C   0  0  0  0  0  0  0  0  0  0  0  0
   38.2700   80.3590   53.6170 N   0  0  0  0  0  0  0  0  0  0  0  0
   37.3780   80.5880   51.3710 C   0  0  0  0  0  0  0  0  0  0  0  0
   36.7000   80.0260   50.3180 C   0  0  0  0  0  0  0  0  0  0  0  0
   36.5180   80.6840   49.1130 C   0  0  0  0  0  0  0  0  0  0  0  0
   37.0300   81.9320   48.9710 N   0  0  0  0  0  0  0  0  0  0  0  0
   37.6960   82.4710   50.0220 C   0  0  0  0  0  0  0  0  0  0  0  0
   37.8730   81.8260   51.1980 N   0  0  0  0  0  0  0  0  0  0  0  0
   41.8051   82.4084   56.1356 H   0  0  0  0  0  0  0  0  0  0  0  0
   39.5297   80.3854   59.1801 H   0  0  0  0  0  0  0  0  0  0  0  0
   43.6584   84.2892   62.2253 H   0  0  0  0  0  0  0  0  0  0  0  0
   42.5141   85.6495   62.4826 H   0  0  0  0  0  0  0  0  0  0  0  0
   43.0801   83.2728   64.2852 H   0  0  0  0  0  0  0  0  0  0  0  0
   43.2510   85.0484   64.6301 H   0  0  0  0  0  0  0  0  0  0  0  0
   41.3412   84.1316   65.6825 H   0  0  0  0  0  0  0  0  0  0  0  0
   41.0198   82.3142   64.0225 H   0  0  0  0  0  0  0  0  0  0  0  0
   39.5358   83.1225   64.5244 H   0  0  0  0  0  0  0  0  0  0  0  0
   39.8687   84.7878   62.5866 H   0  0  0  0  0  0  0  0  0  0  0  0
   39.6417   83.1218   62.0154 H   0  0  0  0  0  0  0  0  0  0  0  0
   37.9803   77.9431   55.8793 H   0  0  0  0  0  0  0  0  0  0  0  0
   36.6071   76.9450   54.0520 H   0  0  0  0  0  0  0  0  0  0  0  0
   36.2853   79.0140   50.4358 H   0  0  0  0  0  0  0  0  0  0  0  0
   35.9698   80.2047   48.2885 H   0  0  0  0  0  0  0  0  0  0  0  0
   38.1131   83.4830   49.9130 H   0  0  0  0  0  0  0  0  0  0  0  0
  1  2  2  0
  2  3  1  0
  2  7  1  0
  4  3  2  0
  5  4  1  0
  6  5  2  0
  6  1  1  0
  7  8  2  0
  7 11  1  0
  8  9  1  0
  9 10  1  0
 10 12  1  0
 11 10  2  0
 12 17  1  0
 12 13  1  0
 13 14  1  0
 14 15  1  0
 16 15  1  0
 17 16  1  0
 18 19  2  0
 18  5  1  0
 20 19  1  0
 21 20  2  0
 22 21  1  0
 22 23  2  0
 23 18  1  0
 24 22  1  0
 25 24  2  0
 26 25  1  0
 27 26  2  0
 27 28  1  0
 28 29  2  0
 29 24  1  0
  1 30  1  0
  3 31  1  0
 13 32  1  0
 13 33  1  0
 14 34  1  0
 14 35  1  0
 15 36  1  0
 16 37  1  0
 16 38  1  0
 17 39  1  0
 17 40  1  0
 19 41  1  0
 20 42  1  0
 25 43  1  0
 26 44  1  0
 28 45  1  0
M  END
>  <Score>  (1) 
-7.04251

$$$$
