
     RDKit          3D

 44 47  0  0  0  0  0  0  0  0999 V2000
   40.8680   81.7120   56.3710 C   0  0  0  0  0  0  0  0  0  0  0  0
   40.6790   81.5010   57.7340 C   0  0  0  0  0  0  0  0  0  0  0  0
   39.6850   80.6060   58.1060 C   0  0  0  0  0  0  0  0  0  0  0  0
   38.9630   79.9960   57.1210 N   0  0  0  0  0  0  0  0  0  0  0  0
   39.1800   80.2280   55.8260 C   0  0  0  0  0  0  0  0  0  0  0  0
   40.1450   81.0970   55.4470 N   0  0  0  0  0  0  0  0  0  0  0  0
   41.4550   82.1580   58.7840 C   0  0  0  0  0  0  0  0  0  0  0  0
   42.7830   82.4040   58.9670 N   0  0  0  0  0  0  0  0  0  0  0  0
   42.9200   83.0400   60.1090 O   0  0  0  0  0  0  0  0  0  0  0  0
   41.7830   83.2310   60.6900 C   0  0  0  0  0  0  0  0  0  0  0  0
   40.8710   82.6830   59.8690 N   0  0  0  0  0  0  0  0  0  0  0  0
   41.5260   83.8700   61.9150 N   0  0  0  0  0  0  0  0  0  0  0  0
   42.5160   84.7080   62.5470 C   0  0  0  0  0  0  0  0  0  0  0  0
   42.6120   84.3610   64.0210 C   0  0  0  0  0  0  0  0  0  0  0  0
   41.2950   84.2580   64.6290 N   0  0  0  0  0  0  0  0  0  0  0  0
   40.5420   83.1870   63.9920 C   0  0  0  0  0  0  0  0  0  0  0  0
   40.2400   83.6930   62.5770 C   0  0  0  0  0  0  0  0  0  0  0  0
   38.3680   79.5390   54.8230 C   0  0  0  0  0  0  0  0  0  0  0  0
   37.6090   78.4370   55.1030 C   0  0  0  0  0  0  0  0  0  0  0  0
   36.8720   77.8470   54.0980 C   0  0  0  0  0  0  0  0  0  0  0  0
   36.9430   78.3980   52.8670 N   0  0  0  0  0  0  0  0  0  0  0  0
   37.6790   79.4800   52.5550 C   0  0  0  0  0  0  0  0  0  0  0  0
   38.3670   80.0020   53.5740 N   0  0  0  0  0  0  0  0  0  0  0  0
   37.6610   79.9640   51.2190 N   0  0  0  0  0  0  0  0  0  0  0  0
   36.4300   80.0830   50.5440 C   0  0  0  0  0  0  0  0  0  0  0  0
   35.3640   80.4900   51.1340 N   0  0  0  0  0  0  0  0  0  0  0  0
   36.3500   79.7430   49.1440 N   0  0  0  0  0  0  0  0  0  0  0  0
   35.3830   80.7450   52.1350 H   0  0  0  0  0  0  0  0  0  0  0  0
   41.6483   82.4171   56.0487 H   0  0  0  0  0  0  0  0  0  0  0  0
   39.4845   80.3940   59.1666 H   0  0  0  0  0  0  0  0  0  0  0  0
   43.4929   84.5449   62.0683 H   0  0  0  0  0  0  0  0  0  0  0  0
   42.2239   85.7630   62.4388 H   0  0  0  0  0  0  0  0  0  0  0  0
   43.1322   83.3978   64.1287 H   0  0  0  0  0  0  0  0  0  0  0  0
   43.1664   85.1632   64.5300 H   0  0  0  0  0  0  0  0  0  0  0  0
   41.3968   84.0543   65.6335 H   0  0  0  0  0  0  0  0  0  0  0  0
   41.1411   82.2653   63.9522 H   0  0  0  0  0  0  0  0  0  0  0  0
   39.6233   82.9450   64.5464 H   0  0  0  0  0  0  0  0  0  0  0  0
   39.7019   84.6513   62.6234 H   0  0  0  0  0  0  0  0  0  0  0  0
   39.6058   82.9813   62.0281 H   0  0  0  0  0  0  0  0  0  0  0  0
   37.5864   78.0241   56.1223 H   0  0  0  0  0  0  0  0  0  0  0  0
   36.2496   76.9609   54.2916 H   0  0  0  0  0  0  0  0  0  0  0  0
   38.5393   80.2253   50.7487 H   0  0  0  0  0  0  0  0  0  0  0  0
   37.1889   79.4139   48.6452 H   0  0  0  0  0  0  0  0  0  0  0  0
   35.4540   79.8294   48.6434 H   0  0  0  0  0  0  0  0  0  0  0  0
  1  2  2  0
  2  3  1  0
  2  7  1  0
  4  3  2  0
  5  4  1  0
  6  5  2  0
  6  1  1  0
  7  8  2  0
  7 11  1  0
  8  9  1  0
  9 10  1  0
 10 12  1  0
 11 10  2  0
 12 13  1  0
 12 17  1  0
 13 14  1  0
 14 15  1  0
 16 15  1  0
 17 16  1  0
 18 19  2  0
 18  5  1  0
 20 19  1  0
 21 20  2  0
 22 21  1  0
 22 23  2  0
 23 18  1  0
 24 22  1  0
 25 26  2  0
 25 24  1  0
 26 28  1  0
 27 25  1  0
  1 29  1  0
  3 30  1  0
 13 31  1  0
 13 32  1  0
 14 33  1  0
 14 34  1  0
 15 35  1  0
 16 36  1  0
 16 37  1  0
 17 38  1  0
 17 39  1  0
 19 40  1  0
 20 41  1  0
 24 42  1  0
 27 43  1  0
 27 44  1  0
M  END
>  <Score>  (1) 
-7.45036

$$$$
