
     RDKit          3D

 42 46  0  0  0  0  0  0  0  0999 V2000
   40.1860   83.8710   59.9670 C   0  0  0  0  0  0  0  0  0  0  0  0
   39.3120   84.3580   60.9250 C   0  0  0  0  0  0  0  0  0  0  0  0
   38.9660   83.5050   61.9490 C   0  0  0  0  0  0  0  0  0  0  0  0
   39.4860   82.2370   61.9880 N   0  0  0  0  0  0  0  0  0  0  0  0
   40.3180   81.8040   61.0600 C   0  0  0  0  0  0  0  0  0  0  0  0
   40.6600   82.6270   60.0560 N   0  0  0  0  0  0  0  0  0  0  0  0
   40.8650   80.4930   61.0900 N   0  0  0  0  0  0  0  0  0  0  0  0
   40.1080   79.5160   60.5750 C   0  0  0  0  0  0  0  0  0  0  0  0
   40.6210   78.2580   60.5110 C   0  0  0  0  0  0  0  0  0  0  0  0
   41.9070   78.0680   60.9900 C   0  0  0  0  0  0  0  0  0  0  0  0
   42.6140   76.8560   60.8940 N   0  0  0  0  0  0  0  0  0  0  0  0
   42.6440   79.0910   61.5140 N   0  0  0  0  0  0  0  0  0  0  0  0
   42.1120   80.3600   61.5730 C   0  0  0  0  0  0  0  0  0  0  0  0
   42.7200   81.3610   62.0440 O   0  0  0  0  0  0  0  0  0  0  0  0
   39.9050   77.1220   59.9710 C   0  0  0  0  0  0  0  0  0  0  0  0
   39.4660   76.1680   60.8890 C   0  0  0  0  0  0  0  0  0  0  0  0
   38.8540   75.0160   60.5010 C   0  0  0  0  0  0  0  0  0  0  0  0
   38.6690   74.8210   59.1310 C   0  0  0  0  0  0  0  0  0  0  0  0
   39.1000   75.7750   58.1910 C   0  0  0  0  0  0  0  0  0  0  0  0
   39.7230   76.9340   58.6090 C   0  0  0  0  0  0  0  0  0  0  0  0
   40.1170   77.7140   57.5150 N   0  0  0  0  0  0  0  0  0  0  0  0
   41.3950   77.7680   57.0170 C   0  0  0  0  0  0  0  0  0  0  0  0
   41.4010   78.6430   56.0190 N   0  0  0  0  0  0  0  0  0  0  0  0
   40.1610   79.1510   55.8660 C   0  0  0  0  0  0  0  0  0  0  0  0
   39.5850   80.0750   55.0130 C   0  0  0  0  0  0  0  0  0  0  0  0
   38.2630   80.4060   55.0890 N   0  0  0  0  0  0  0  0  0  0  0  0
   37.4800   79.8250   56.0160 C   0  0  0  0  0  0  0  0  0  0  0  0
   38.0180   78.9090   56.8740 N   0  0  0  0  0  0  0  0  0  0  0  0
   39.3190   78.5780   56.8060 C   0  0  0  0  0  0  0  0  0  0  0  0
   40.4910   84.5136   59.1280 H   0  0  0  0  0  0  0  0  0  0  0  0
   38.9120   85.3812   60.8701 H   0  0  0  0  0  0  0  0  0  0  0  0
   38.2732   83.8405   62.7348 H   0  0  0  0  0  0  0  0  0  0  0  0
   39.0916   79.7266   60.2110 H   0  0  0  0  0  0  0  0  0  0  0  0
   43.5692   76.7856   61.2728 H   0  0  0  0  0  0  0  0  0  0  0  0
   42.1765   76.0388   60.4449 H   0  0  0  0  0  0  0  0  0  0  0  0
   39.6196   76.3529   61.9624 H   0  0  0  0  0  0  0  0  0  0  0  0
   38.5190   74.2695   61.2363 H   0  0  0  0  0  0  0  0  0  0  0  0
   38.1761   73.9026   58.7793 H   0  0  0  0  0  0  0  0  0  0  0  0
   38.9398   75.5965   57.1175 H   0  0  0  0  0  0  0  0  0  0  0  0
   42.2582   77.1905   57.3795 H   0  0  0  0  0  0  0  0  0  0  0  0
   40.2121   80.5583   54.2493 H   0  0  0  0  0  0  0  0  0  0  0  0
   36.4135   80.0861   56.0823 H   0  0  0  0  0  0  0  0  0  0  0  0
  1  6  2  0
  1  2  1  0
  2  3  2  0
  3  4  1  0
  5  7  1  0
  5  4  2  0
  6  5  1  0
  7 13  1  0
  8  7  1  0
  9  8  2  0
  9 10  1  0
 10 12  2  0
 11 10  1  0
 12 13  1  0
 13 14  2  0
 15  9  1  0
 15 16  2  0
 17 16  1  0
 18 17  2  0
 19 20  2  0
 19 18  1  0
 20 15  1  0
 21 20  1  0
 22 21  1  0
 23 22  2  0
 24 23  1  0
 24 29  2  0
 25 26  2  0
 25 24  1  0
 26 27  1  0
 27 28  2  0
 29 28  1  0
 29 21  1  0
  1 30  1  0
  2 31  1  0
  3 32  1  0
  8 33  1  0
 11 34  1  0
 11 35  1  0
 16 36  1  0
 17 37  1  0
 18 38  1  0
 19 39  1  0
 22 40  1  0
 25 41  1  0
 27 42  1  0
M  END
>  <Score>  (1) 
-7.12391

$$$$
