
     RDKit          3D

 41 45  0  0  0  0  0  0  0  0999 V2000
   41.1470   81.5650   60.8090 C   0  0  0  0  0  0  0  0  0  0  0  0
   40.8000   82.1890   59.6310 C   0  0  0  0  0  0  0  0  0  0  0  0
   40.2000   81.5400   58.5670 C   0  0  0  0  0  0  0  0  0  0  0  0
   39.9330   80.1980   58.6870 C   0  0  0  0  0  0  0  0  0  0  0  0
   40.2490   79.5190   59.8210 C   0  0  0  0  0  0  0  0  0  0  0  0
   39.9810   78.1900   59.9310 C   0  0  0  0  0  0  0  0  0  0  0  0
   40.2900   77.4480   61.0800 C   0  0  0  0  0  0  0  0  0  0  0  0
   40.8890   78.1570   62.1040 C   0  0  0  0  0  0  0  0  0  0  0  0
   41.1410   79.5020   61.9510 C   0  0  0  0  0  0  0  0  0  0  0  0
   40.8380   80.2270   60.8260 C   0  0  0  0  0  0  0  0  0  0  0  0
   39.3320   77.4180   58.8590 C   0  0  0  0  0  0  0  0  0  0  0  0
   38.9440   76.1360   58.6760 N   0  0  0  0  0  0  0  0  0  0  0  0
   38.3980   75.9330   57.5260 O   0  0  0  0  0  0  0  0  0  0  0  0
   38.3800   77.0400   56.8710 C   0  0  0  0  0  0  0  0  0  0  0  0
   38.9430   77.9040   57.6910 N   0  0  0  0  0  0  0  0  0  0  0  0
   37.9180   77.4080   55.5920 N   0  0  0  0  0  0  0  0  0  0  0  0
   36.7390   76.9050   55.2070 C   0  0  0  0  0  0  0  0  0  0  0  0
   36.4750   77.3880   53.9170 C   0  0  0  0  0  0  0  0  0  0  0  0
   37.5020   78.1640   53.5680 N   0  0  0  0  0  0  0  0  0  0  0  0
   38.4010   78.1880   54.5900 C   0  0  0  0  0  0  0  0  0  0  0  0
   43.5140   83.4500   63.1280 C   0  0  0  0  0  0  0  0  0  0  0  0
   43.1190   82.6520   62.0550 C   0  0  0  0  0  0  0  0  0  0  0  0
   41.7610   82.3480   61.8320 C   0  0  0  0  0  0  0  0  0  0  0  0
   40.9090   82.9050   62.7570 N   0  0  0  0  0  0  0  0  0  0  0  0
   41.3170   83.6700   63.7810 C   0  0  0  0  0  0  0  0  0  0  0  0
   42.6110   83.9340   63.9560 N   0  0  0  0  0  0  0  0  0  0  0  0
   40.3130   84.2260   64.7260 C   0  0  0  0  0  0  0  0  0  0  0  0
   41.0119   83.2637   59.5308 H   0  0  0  0  0  0  0  0  0  0  0  0
   39.9429   82.0854   57.6470 H   0  0  0  0  0  0  0  0  0  0  0  0
   39.4558   79.6643   57.8519 H   0  0  0  0  0  0  0  0  0  0  0  0
   40.0703   76.3732   61.1609 H   0  0  0  0  0  0  0  0  0  0  0  0
   41.1639   77.6478   63.0395 H   0  0  0  0  0  0  0  0  0  0  0  0
   41.6182   80.0320   62.7885 H   0  0  0  0  0  0  0  0  0  0  0  0
   36.0946   76.2350   55.7951 H   0  0  0  0  0  0  0  0  0  0  0  0
   35.5866   77.1678   53.3069 H   0  0  0  0  0  0  0  0  0  0  0  0
   39.3514   78.7416   54.6023 H   0  0  0  0  0  0  0  0  0  0  0  0
   44.5794   83.6753   63.2830 H   0  0  0  0  0  0  0  0  0  0  0  0
   43.8813   82.2524   61.3700 H   0  0  0  0  0  0  0  0  0  0  0  0
   40.6421   84.0438   65.7597 H   0  0  0  0  0  0  0  0  0  0  0  0
   40.2121   85.3085   64.5588 H   0  0  0  0  0  0  0  0  0  0  0  0
   39.3419   83.7371   64.5588 H   0  0  0  0  0  0  0  0  0  0  0  0
  1 10  1  0
  1 23  1  0
  2  1  2  0
  3  4  2  0
  3  2  1  0
  4  5  1  0
  5  6  1  0
  5 10  2  0
  6  7  2  0
  7  8  1  0
  9  8  2  0
 10  9  1  0
 11  6  1  0
 12 11  2  0
 13 12  1  0
 14 13  1  0
 14 15  2  0
 15 11  1  0
 16 14  1  0
 17 16  1  0
 18 17  2  0
 19 18  1  0
 19 20  2  0
 20 16  1  0
 21 26  2  0
 22 21  1  0
 23 22  2  0
 23 24  1  0
 24 25  2  0
 25 26  1  0
 25 27  1  0
  2 28  1  0
  3 29  1  0
  4 30  1  0
  7 31  1  0
  8 32  1  0
  9 33  1  0
 17 34  1  0
 18 35  1  0
 20 36  1  0
 21 37  1  0
 22 38  1  0
 27 39  1  0
 27 40  1  0
 27 41  1  0
M  END
>  <Score>  (1) 
-7.2046

$$$$
