
     RDKit          3D

 48 52  0  0  0  0  0  0  0  0999 V2000
   41.2080   79.1870   61.6770 C   0  0  0  0  0  0  0  0  0  0  0  0
   41.2440   77.7900   61.1570 C   0  0  0  0  0  0  0  0  0  0  0  0
   42.4360   77.1150   61.1100 C   0  0  0  0  0  0  0  0  0  0  0  0
   42.4360   75.8160   60.6210 C   0  0  0  0  0  0  0  0  0  0  0  0
   41.3030   75.2570   60.2130 N   0  0  0  0  0  0  0  0  0  0  0  0
   40.1680   75.9640   60.2830 C   0  0  0  0  0  0  0  0  0  0  0  0
   40.1480   77.2020   60.7460 N   0  0  0  0  0  0  0  0  0  0  0  0
   38.8750   75.4180   59.8520 C   0  0  0  0  0  0  0  0  0  0  0  0
   37.8930   75.2450   60.6140 O   0  0  0  0  0  0  0  0  0  0  0  0
   38.8640   75.0960   58.4100 C   0  0  0  0  0  0  0  0  0  0  0  0
   39.3700   74.0600   57.6740 C   0  0  0  0  0  0  0  0  0  0  0  0
   39.0480   74.3050   56.3850 N   0  0  0  0  0  0  0  0  0  0  0  0
   38.3650   75.4370   56.2710 C   0  0  0  0  0  0  0  0  0  0  0  0
   37.8180   76.1100   55.1810 C   0  0  0  0  0  0  0  0  0  0  0  0
   37.1460   77.2910   55.3420 C   0  0  0  0  0  0  0  0  0  0  0  0
   36.9960   77.8440   56.5980 C   0  0  0  0  0  0  0  0  0  0  0  0
   37.5390   77.1730   57.6690 C   0  0  0  0  0  0  0  0  0  0  0  0
   38.2290   75.9710   57.5510 C   0  0  0  0  0  0  0  0  0  0  0  0
   39.9980   79.9340   61.1380 C   0  0  0  0  0  0  0  0  0  0  0  0
   40.2510   81.3730   61.3740 C   0  0  0  0  0  0  0  0  0  0  0  0
   40.1730   82.3360   60.3320 C   0  0  0  0  0  0  0  0  0  0  0  0
   40.4260   83.6350   60.6590 C   0  0  0  0  0  0  0  0  0  0  0  0
   40.7400   83.9420   61.9580 N   0  0  0  0  0  0  0  0  0  0  0  0
   40.8050   83.0070   62.9170 C   0  0  0  0  0  0  0  0  0  0  0  0
   40.5620   81.7130   62.6340 N   0  0  0  0  0  0  0  0  0  0  0  0
   40.3540   84.6440   59.6220 C   0  0  0  0  0  0  0  0  0  0  0  0
   41.4140   84.9040   58.7940 C   0  0  0  0  0  0  0  0  0  0  0  0
   41.2330   85.8860   57.8430 C   0  0  0  0  0  0  0  0  0  0  0  0
   40.0640   86.5710   57.7210 N   0  0  0  0  0  0  0  0  0  0  0  0
   39.0410   86.2780   58.5650 C   0  0  0  0  0  0  0  0  0  0  0  0
   39.1940   85.3180   59.5060 N   0  0  0  0  0  0  0  0  0  0  0  0
   41.1559   79.1615   62.7755 H   0  0  0  0  0  0  0  0  0  0  0  0
   42.1190   79.7086   61.3483 H   0  0  0  0  0  0  0  0  0  0  0  0
   43.3678   77.5901   61.4507 H   0  0  0  0  0  0  0  0  0  0  0  0
   43.3769   75.2484   60.5714 H   0  0  0  0  0  0  0  0  0  0  0  0
   39.9306   73.1948   58.0575 H   0  0  0  0  0  0  0  0  0  0  0  0
   39.2995   73.6938   55.5950 H   0  0  0  0  0  0  0  0  0  0  0  0
   37.9282   75.6844   54.1727 H   0  0  0  0  0  0  0  0  0  0  0  0
   36.7227   77.8029   54.4652 H   0  0  0  0  0  0  0  0  0  0  0  0
   36.4581   78.7932   56.7382 H   0  0  0  0  0  0  0  0  0  0  0  0
   37.4214   77.6100   58.6716 H   0  0  0  0  0  0  0  0  0  0  0  0
   39.0883   79.6164   61.6687 H   0  0  0  0  0  0  0  0  0  0  0  0
   39.8480   79.7274   60.0680 H   0  0  0  0  0  0  0  0  0  0  0  0
   39.9185   82.0448   59.3022 H   0  0  0  0  0  0  0  0  0  0  0  0
   41.0596   83.3002   63.9462 H   0  0  0  0  0  0  0  0  0  0  0  0
   42.3635   84.3559   58.8835 H   0  0  0  0  0  0  0  0  0  0  0  0
   42.0619   86.1235   57.1599 H   0  0  0  0  0  0  0  0  0  0  0  0
   38.0880   86.8213   58.4835 H   0  0  0  0  0  0  0  0  0  0  0  0
  2  1  1  0
  3  2  2  0
  4  3  1  0
  5  6  1  0
  5  4  2  0
  6  7  2  0
  7  2  1  0
  8  6  1  0
  8  9  2  0
 10  8  1  0
 11 10  2  0
 12 11  1  0
 13 12  1  0
 13 18  2  0
 14 15  2  0
 14 13  1  0
 15 16  1  0
 16 17  2  0
 18 17  1  0
 18 10  1  0
 19 20  1  0
 19  1  1  0
 20 25  2  0
 21 22  2  0
 21 20  1  0
 22 23  1  0
 23 24  2  0
 25 24  1  0
 26 22  1  0
 27 26  2  0
 28 27  1  0
 29 28  2  0
 29 30  1  0
 30 31  2  0
 31 26  1  0
  1 32  1  0
  1 33  1  0
  3 34  1  0
  4 35  1  0
 11 36  1  0
 12 37  1  0
 14 38  1  0
 15 39  1  0
 16 40  1  0
 17 41  1  0
 19 42  1  0
 19 43  1  0
 21 44  1  0
 24 45  1  0
 27 46  1  0
 28 47  1  0
 30 48  1  0
M  END
>  <Score>  (1) 
-7.68931

$$$$
