
     RDKit          3D

 47 50  0  0  0  0  0  0  0  0999 V2000
   40.3390   79.8960   59.4560 C   0  0  0  0  0  0  0  0  0  0  0  0
   40.6290   79.4670   58.1800 C   0  0  0  0  0  0  0  0  0  0  0  0
   40.7420   80.3990   57.1830 C   0  0  0  0  0  0  0  0  0  0  0  0
   40.5620   81.6980   57.5060 N   0  0  0  0  0  0  0  0  0  0  0  0
   40.2800   82.0990   58.7490 C   0  0  0  0  0  0  0  0  0  0  0  0
   40.1640   81.1940   59.7530 N   0  0  0  0  0  0  0  0  0  0  0  0
   40.1100   83.5640   58.9480 C   0  0  0  0  0  0  0  0  0  0  0  0
   41.2640   84.1510   59.7820 C   0  0  0  0  0  0  0  0  0  0  0  0
   40.9680   84.0370   61.1890 N   0  0  0  0  0  0  0  0  0  0  0  0
   42.0360   83.7350   61.9840 C   0  0  0  0  0  0  0  0  0  0  0  0
   41.9310   83.5880   63.3640 C   0  0  0  0  0  0  0  0  0  0  0  0
   40.6510   83.7770   63.8380 C   0  0  0  0  0  0  0  0  0  0  0  0
   40.4840   83.6560   65.0990 O   0  0  0  0  0  0  0  0  0  0  0  0
   39.5800   84.0730   63.0960 N   0  0  0  0  0  0  0  0  0  0  0  0
   39.7670   84.1990   61.7590 C   0  0  0  0  0  0  0  0  0  0  0  0
   38.8420   84.4760   60.9510 O   0  0  0  0  0  0  0  0  0  0  0  0
   40.8170   78.0860   57.8290 C   0  0  0  0  0  0  0  0  0  0  0  0
   41.4880   77.6600   56.8090 O   0  0  0  0  0  0  0  0  0  0  0  0
   40.3100   77.0220   58.5270 O   0  0  0  0  0  0  0  0  0  0  0  0
   40.3330   75.7140   58.1580 C   0  0  0  0  0  0  0  0  0  0  0  0
   41.3670   74.8490   58.3460 C   0  0  0  0  0  0  0  0  0  0  0  0
   41.2940   73.5230   57.9350 C   0  0  0  0  0  0  0  0  0  0  0  0
   40.1350   73.0860   57.3210 C   0  0  0  0  0  0  0  0  0  0  0  0
   39.0450   73.9140   57.0970 C   0  0  0  0  0  0  0  0  0  0  0  0
   39.2040   75.2240   57.5390 C   0  0  0  0  0  0  0  0  0  0  0  0
   38.0560   76.0630   57.2610 N   0  0  0  0  0  0  0  0  0  0  0  0
   37.8360   76.2020   55.9160 C   0  0  0  0  0  0  0  0  0  0  0  0
   36.7360   77.0000   55.7840 N   0  0  0  0  0  0  0  0  0  0  0  0
   36.3310   77.3240   57.0260 C   0  0  0  0  0  0  0  0  0  0  0  0
   37.1540   76.7390   57.9110 N   0  0  0  0  0  0  0  0  0  0  0  0
   40.2476   79.1502   60.2593 H   0  0  0  0  0  0  0  0  0  0  0  0
   40.9724   80.0987   56.1502 H   0  0  0  0  0  0  0  0  0  0  0  0
   40.0890   84.0593   57.9661 H   0  0  0  0  0  0  0  0  0  0  0  0
   39.1676   83.7347   59.4891 H   0  0  0  0  0  0  0  0  0  0  0  0
   42.1900   83.6006   59.5595 H   0  0  0  0  0  0  0  0  0  0  0  0
   41.3886   85.2134   59.5257 H   0  0  0  0  0  0  0  0  0  0  0  0
   43.0215   83.6022   61.5138 H   0  0  0  0  0  0  0  0  0  0  0  0
   42.7856   83.3449   64.0125 H   0  0  0  0  0  0  0  0  0  0  0  0
   38.6509   84.2002   63.5220 H   0  0  0  0  0  0  0  0  0  0  0  0
   42.2840   75.2085   58.8358 H   0  0  0  0  0  0  0  0  0  0  0  0
   42.1391   72.8372   58.0947 H   0  0  0  0  0  0  0  0  0  0  0  0
   40.0747   72.0368   56.9962 H   0  0  0  0  0  0  0  0  0  0  0  0
   38.1250   73.5620   56.6073 H   0  0  0  0  0  0  0  0  0  0  0  0
   38.7065   76.6720   55.4350 H   0  0  0  0  0  0  0  0  0  0  0  0
   37.6790   75.2251   55.4353 H   0  0  0  0  0  0  0  0  0  0  0  0
   35.4697   77.9615   57.2745 H   0  0  0  0  0  0  0  0  0  0  0  0
   37.0830   76.8131   58.9359 H   0  0  0  0  0  0  0  0  0  0  0  0
  1  6  2  0
  2  1  1  0
  3  4  1  0
  3  2  2  0
  4  5  2  0
  5  7  1  0
  5  6  1  0
  7  8  1  0
  8  9  1  0
  9 15  1  0
  9 10  1  0
 10 11  2  0
 11 12  1  0
 12 13  2  0
 14 12  1  0
 15 14  1  0
 16 15  2  0
 17  2  1  0
 17 19  1  0
 18 17  2  0
 20 21  2  0
 20 19  1  0
 22 21  1  0
 23 22  2  0
 24 23  1  0
 24 25  2  0
 25 20  1  0
 26 25  1  0
 26 30  1  0
 27 26  1  0
 28 27  1  0
 28 29  2  0
 29 30  1  0
  1 31  1  0
  3 32  1  0
  7 33  1  0
  7 34  1  0
  8 35  1  0
  8 36  1  0
 10 37  1  0
 11 38  1  0
 14 39  1  0
 21 40  1  0
 22 41  1  0
 23 42  1  0
 24 43  1  0
 27 44  1  0
 27 45  1  0
 29 46  1  0
 30 47  1  0
M  END
>  <Score>  (1) 
-7.11802

$$$$
