
     RDKit          3D

 46 50  0  0  1  0  0  0  0  0999 V2000
   40.2580   80.3490   61.0770 C   0  0  1  0  0  0  0  0  0  0  0  0
   40.7600   79.8660   59.8180 C   0  0  0  0  0  0  0  0  0  0  0  0
   40.4260   78.4390   59.6320 C   0  0  0  0  0  0  0  0  0  0  0  0
   40.3360   77.5940   60.7850 C   0  0  0  0  0  0  0  0  0  0  0  0
   40.5840   78.1690   62.1200 C   0  0  0  0  0  0  0  0  0  0  0  0
   41.1280   79.5680   62.1410 C   0  0  0  0  0  0  0  0  0  0  0  0
   40.3100   81.7840   61.3480 C   0  0  0  0  0  0  0  0  0  0  0  0
   39.0980   82.3110   61.8490 C   0  0  0  0  0  0  0  0  0  0  0  0
   39.0400   83.6810   62.1270 C   0  0  0  0  0  0  0  0  0  0  0  0
   40.1700   84.4290   61.8930 N   0  0  0  0  0  0  0  0  0  0  0  0
   41.3000   83.8740   61.4130 C   0  0  0  0  0  0  0  0  0  0  0  0
   41.3540   82.5770   61.1510 N   0  0  0  0  0  0  0  0  0  0  0  0
   42.4650   84.6510   61.1720 N   0  0  0  0  0  0  0  0  0  0  0  0
   43.3660   85.1300   62.0490 C   0  0  0  0  0  0  0  0  0  0  0  0
   44.2910   85.8060   61.3340 N   0  0  0  0  0  0  0  0  0  0  0  0
   43.9720   85.7510   60.0340 C   0  0  0  0  0  0  0  0  0  0  0  0
   44.6030   86.2830   58.9200 C   0  0  0  0  0  0  0  0  0  0  0  0
   44.0330   86.0550   57.7070 N   0  0  0  0  0  0  0  0  0  0  0  0
   42.8870   85.3280   57.6310 C   0  0  0  0  0  0  0  0  0  0  0  0
   42.2530   84.7990   58.6940 N   0  0  0  0  0  0  0  0  0  0  0  0
   42.8080   85.0160   59.9110 C   0  0  0  0  0  0  0  0  0  0  0  0
   40.0060   76.2210   60.6130 C   0  0  0  0  0  0  0  0  0  0  0  0
   38.7470   75.6870   60.4620 C   0  0  0  0  0  0  0  0  0  0  0  0
   38.4770   74.3460   60.3010 C   0  0  0  0  0  0  0  0  0  0  0  0
   39.5180   73.4460   60.2860 C   0  0  0  0  0  0  0  0  0  0  0  0
   40.7920   73.9510   60.4370 C   0  0  0  0  0  0  0  0  0  0  0  0
   41.0280   75.3040   60.5960 C   0  0  0  0  0  0  0  0  0  0  0  0
   42.7220   75.8420   60.7800 S   0  0  0  0  0  0  0  0  0  0  0  0
   39.1725   80.1722   61.0961 H   0  0  0  0  0  0  0  0  0  0  0  0
   40.3101   80.4509   59.0022 H   0  0  0  0  0  0  0  0  0  0  0  0
   41.8545   79.9756   59.8097 H   0  0  0  0  0  0  0  0  0  0  0  0
   40.2495   78.0324   58.6253 H   0  0  0  0  0  0  0  0  0  0  0  0
   39.6307   78.1699   62.6689 H   0  0  0  0  0  0  0  0  0  0  0  0
   41.3634   77.5399   62.5748 H   0  0  0  0  0  0  0  0  0  0  0  0
   42.1903   79.5761   61.8556 H   0  0  0  0  0  0  0  0  0  0  0  0
   41.0720   80.0228   63.1410 H   0  0  0  0  0  0  0  0  0  0  0  0
   38.2252   81.6625   62.0156 H   0  0  0  0  0  0  0  0  0  0  0  0
   38.1223   84.1437   62.5191 H   0  0  0  0  0  0  0  0  0  0  0  0
   43.3519   84.9964   63.1408 H   0  0  0  0  0  0  0  0  0  0  0  0
   45.5300   86.8676   59.0141 H   0  0  0  0  0  0  0  0  0  0  0  0
   42.4491   85.1611   56.6358 H   0  0  0  0  0  0  0  0  0  0  0  0
   37.8940   76.3815   60.4705 H   0  0  0  0  0  0  0  0  0  0  0  0
   37.4399   73.9980   60.1856 H   0  0  0  0  0  0  0  0  0  0  0  0
   39.3409   72.3678   60.1587 H   0  0  0  0  0  0  0  0  0  0  0  0
   41.6456   73.2572   60.4308 H   0  0  0  0  0  0  0  0  0  0  0  0
   43.0282   75.9392   62.1118 H   0  0  0  0  0  0  0  0  0  0  0  0
  1  7  1  0
  1  6  1  0
  2  1  1  0
  3  2  1  0
  3  4  2  0
  4  5  1  0
  5  6  1  0
  7  8  2  0
  8  9  1  0
 10  9  2  0
 11 10  1  0
 12  7  1  0
 12 11  2  0
 13 11  1  0
 13 14  1  0
 15 14  2  0
 16 15  1  0
 17 16  2  0
 18 17  1  0
 19 18  2  0
 19 20  1  0
 20 21  2  0
 21 16  1  0
 21 13  1  0
 22  4  1  0
 23 22  2  0
 24 23  1  0
 25 24  2  0
 25 26  1  0
 26 27  2  0
 27 22  1  0
 27 28  1  0
  1 29  1  1
  2 30  1  0
  2 31  1  0
  3 32  1  0
  5 33  1  0
  5 34  1  0
  6 35  1  0
  6 36  1  0
  8 37  1  0
  9 38  1  0
 14 39  1  0
 17 40  1  0
 19 41  1  0
 23 42  1  0
 24 43  1  0
 25 44  1  0
 26 45  1  0
 28 46  1  0
M  END
>  <Score>  (1) 
-7.24818

$$$$
