
     RDKit          3D

 43 47  0  0  1  0  0  0  0  0999 V2000
   40.6260   77.3380   59.3650 C   0  0  1  0  0  0  0  0  0  0  0  0
   40.2010   80.4650   61.2750 C   0  0  0  0  0  0  0  0  0  0  0  0
   40.1900   79.6300   60.1870 C   0  0  0  0  0  0  0  0  0  0  0  0
   40.5720   78.3500   60.4470 C   0  0  0  0  0  0  0  0  0  0  0  0
   40.9420   77.8640   61.6210 N   0  0  0  0  0  0  0  0  0  0  0  0
   40.9460   78.7200   62.7010 C   0  0  0  0  0  0  0  0  0  0  0  0
   40.5730   79.9990   62.4880 N   0  0  0  0  0  0  0  0  0  0  0  0
   39.8050   81.8670   61.1450 C   0  0  0  0  0  0  0  0  0  0  0  0
   40.0880   82.4890   59.9430 C   0  0  0  0  0  0  0  0  0  0  0  0
   39.7260   83.8160   59.7840 C   0  0  0  0  0  0  0  0  0  0  0  0
   39.1090   84.4550   60.8100 N   0  0  0  0  0  0  0  0  0  0  0  0
   38.8380   83.8250   61.9880 C   0  0  0  0  0  0  0  0  0  0  0  0
   39.1960   82.5210   62.1380 N   0  0  0  0  0  0  0  0  0  0  0  0
   41.6850   76.2920   59.6570 C   0  0  0  0  0  0  0  0  0  0  0  0
   39.2560   76.6730   59.3340 C   0  0  0  0  0  0  0  0  0  0  0  0
   38.4370   77.0990   58.1950 C   0  0  0  0  0  0  0  0  0  0  0  0
   37.2130   76.6380   57.9420 N   0  0  0  0  0  0  0  0  0  0  0  0
   36.7780   77.2130   56.8770 O   0  0  0  0  0  0  0  0  0  0  0  0
   37.6820   78.0350   56.4260 C   0  0  0  0  0  0  0  0  0  0  0  0
   38.7660   77.9810   57.2590 N   0  0  0  0  0  0  0  0  0  0  0  0
   37.7260   78.9180   55.2880 N   0  0  0  0  0  0  0  0  0  0  0  0
   37.3080   80.1960   55.3510 C   0  0  0  0  0  0  0  0  0  0  0  0
   37.4940   80.7100   54.1160 N   0  0  0  0  0  0  0  0  0  0  0  0
   38.0170   79.7510   53.3260 C   0  0  0  0  0  0  0  0  0  0  0  0
   38.4090   79.7030   51.9870 C   0  0  0  0  0  0  0  0  0  0  0  0
   38.9110   78.5760   51.4530 N   0  0  0  0  0  0  0  0  0  0  0  0
   39.0530   77.4500   52.2040 C   0  0  0  0  0  0  0  0  0  0  0  0
   38.6790   77.4820   53.4970 N   0  0  0  0  0  0  0  0  0  0  0  0
   38.1710   78.5910   54.0690 C   0  0  0  0  0  0  0  0  0  0  0  0
   40.8792   77.8104   58.4044 H   0  0  0  0  0  0  0  0  0  0  0  0
   39.8954   79.9685   59.1827 H   0  0  0  0  0  0  0  0  0  0  0  0
   41.2429   78.3727   63.7016 H   0  0  0  0  0  0  0  0  0  0  0  0
   40.5895   81.9418   59.1312 H   0  0  0  0  0  0  0  0  0  0  0  0
   39.9351   84.3435   58.8417 H   0  0  0  0  0  0  0  0  0  0  0  0
   38.3369   84.3634   62.8059 H   0  0  0  0  0  0  0  0  0  0  0  0
   41.7989   76.1795   60.7453 H   0  0  0  0  0  0  0  0  0  0  0  0
   41.3809   75.3300   59.2187 H   0  0  0  0  0  0  0  0  0  0  0  0
   42.6432   76.6080   59.2187 H   0  0  0  0  0  0  0  0  0  0  0  0
   39.3966   75.5835   59.2764 H   0  0  0  0  0  0  0  0  0  0  0  0
   38.7252   76.9712   60.2502 H   0  0  0  0  0  0  0  0  0  0  0  0
   36.8983   80.7159   56.2296 H   0  0  0  0  0  0  0  0  0  0  0  0
   38.3056   80.6006   51.3596 H   0  0  0  0  0  0  0  0  0  0  0  0
   39.4657   76.5307   51.7628 H   0  0  0  0  0  0  0  0  0  0  0  0
  1 14  1  0
  1  4  1  0
  2  7  2  0
  3  4  2  0
  3  2  1  0
  4  5  1  0
  5  6  2  0
  7  6  1  0
  8  2  1  0
  8 13  1  0
  9  8  2  0
 10  9  1  0
 10 11  2  0
 11 12  1  0
 12 13  2  0
 15  1  1  0
 16 15  1  0
 17 16  2  0
 18 17  1  0
 19 18  1  0
 19 20  2  0
 20 16  1  0
 21 22  1  0
 21 19  1  0
 23 22  2  0
 24 29  2  0
 24 23  1  0
 25 24  1  0
 26 25  2  0
 26 27  1  0
 27 28  2  0
 28 29  1  0
 29 21  1  0
  1 30  1  6
  3 31  1  0
  6 32  1  0
  9 33  1  0
 10 34  1  0
 12 35  1  0
 14 36  1  0
 14 37  1  0
 14 38  1  0
 15 39  1  0
 15 40  1  0
 22 41  1  0
 25 42  1  0
 27 43  1  0
M  END
>  <Score>  (1) 
-7.39363

$$$$
