
     RDKit          3D

 52 56  0  0  0  0  0  0  0  0999 V2000
   41.5610   80.9750   57.2790 N   0  0  0  0  0  0  0  0  0  0  0  0
   40.5140   80.3510   57.8000 N   0  0  0  0  0  0  0  0  0  0  0  0
   40.7130   79.0200   57.8090 C   0  0  0  0  0  0  0  0  0  0  0  0
   41.9610   78.8740   57.2530 C   0  0  0  0  0  0  0  0  0  0  0  0
   42.4980   80.1050   56.9180 C   0  0  0  0  0  0  0  0  0  0  0  0
   39.8210   77.9660   58.2910 C   0  0  0  0  0  0  0  0  0  0  0  0
   40.0820   77.3100   59.4850 C   0  0  0  0  0  0  0  0  0  0  0  0
   39.1920   76.3380   59.8550 C   0  0  0  0  0  0  0  0  0  0  0  0
   38.0660   75.9750   59.1220 C   0  0  0  0  0  0  0  0  0  0  0  0
   37.8630   76.6600   57.9500 C   0  0  0  0  0  0  0  0  0  0  0  0
   38.7120   77.6380   57.5280 C   0  0  0  0  0  0  0  0  0  0  0  0
   38.4010   78.2930   56.2790 N   0  0  0  0  0  0  0  0  0  0  0  0
   37.5540   79.3670   56.4690 C   0  0  0  0  0  0  0  0  0  0  0  0
   37.1170   80.1450   55.4290 C   0  0  0  0  0  0  0  0  0  0  0  0
   37.5690   79.8080   54.1460 C   0  0  0  0  0  0  0  0  0  0  0  0
   37.1920   80.5320   52.9820 N   0  0  0  0  0  0  0  0  0  0  0  0
   38.3790   78.7690   54.0280 N   0  0  0  0  0  0  0  0  0  0  0  0
   38.7970   78.0200   55.0450 C   0  0  0  0  0  0  0  0  0  0  0  0
   39.5500   77.0400   55.0060 O   0  0  0  0  0  0  0  0  0  0  0  0
   42.3690   84.3390   55.9810 C   0  0  0  0  0  0  0  0  0  0  0  0
   42.3250   82.9500   56.0820 C   0  0  0  0  0  0  0  0  0  0  0  0
   41.6280   82.3950   57.1440 C   0  0  0  0  0  0  0  0  0  0  0  0
   41.0370   83.2310   58.0140 N   0  0  0  0  0  0  0  0  0  0  0  0
   41.1090   84.5680   57.8720 C   0  0  0  0  0  0  0  0  0  0  0  0
   41.7810   85.1300   56.8470 N   0  0  0  0  0  0  0  0  0  0  0  0
   40.4040   85.3900   58.9150 C   0  0  0  0  0  0  0  0  0  0  0  0
   41.0030   85.0100   60.1790 N   0  0  0  0  0  0  0  0  0  0  0  0
   42.3330   85.1880   60.2590 C   0  0  0  0  0  0  0  0  0  0  0  0
   42.9450   84.8410   61.4420 C   0  0  0  0  0  0  0  0  0  0  0  0
   42.1130   84.3440   62.4190 C   0  0  0  0  0  0  0  0  0  0  0  0
   42.6460   83.9570   63.6710 N   0  0  0  0  0  0  0  0  0  0  0  0
   40.7750   84.1810   62.2930 N   0  0  0  0  0  0  0  0  0  0  0  0
   40.1810   84.5260   61.1260 C   0  0  0  0  0  0  0  0  0  0  0  0
   38.9510   84.4190   60.8970 O   0  0  0  0  0  0  0  0  0  0  0  0
   42.4652   77.9092   57.0954 H   0  0  0  0  0  0  0  0  0  0  0  0
   43.4753   80.3146   56.4587 H   0  0  0  0  0  0  0  0  0  0  0  0
   40.9582   77.5579   60.1021 H   0  0  0  0  0  0  0  0  0  0  0  0
   39.3802   75.8058   60.7991 H   0  0  0  0  0  0  0  0  0  0  0  0
   37.3793   75.1857   59.4618 H   0  0  0  0  0  0  0  0  0  0  0  0
   36.9874   76.4114   57.3323 H   0  0  0  0  0  0  0  0  0  0  0  0
   37.2189   79.6059   57.4891 H   0  0  0  0  0  0  0  0  0  0  0  0
   36.4409   80.9969   55.5940 H   0  0  0  0  0  0  0  0  0  0  0  0
   37.5501   80.2465   52.0594 H   0  0  0  0  0  0  0  0  0  0  0  0
   36.5608   81.3421   53.0613 H   0  0  0  0  0  0  0  0  0  0  0  0
   42.9186   84.7903   55.1418 H   0  0  0  0  0  0  0  0  0  0  0  0
   42.8287   82.3124   55.3406 H   0  0  0  0  0  0  0  0  0  0  0  0
   40.5550   86.4630   58.7254 H   0  0  0  0  0  0  0  0  0  0  0  0
   39.3184   85.2127   58.9087 H   0  0  0  0  0  0  0  0  0  0  0  0
   42.9084   85.5941   59.4140 H   0  0  0  0  0  0  0  0  0  0  0  0
   44.0283   84.9536   61.5964 H   0  0  0  0  0  0  0  0  0  0  0  0
   42.0239   83.5849   64.4027 H   0  0  0  0  0  0  0  0  0  0  0  0
   43.6562   84.0473   63.8508 H   0  0  0  0  0  0  0  0  0  0  0  0
  1  2  1  0
  2  3  2  0
  3  6  1  0
  4  3  1  0
  5  4  2  0
  5  1  1  0
  6  7  2  0
  7  8  1  0
  9  8  2  0
 10  9  1  0
 11 10  2  0
 11  6  1  0
 12 13  1  0
 12 11  1  0
 14 13  2  0
 15 14  1  0
 16 15  1  0
 17 15  2  0
 17 18  1  0
 18 12  1  0
 19 18  2  0
 20 21  2  0
 20 25  1  0
 21 22  1  0
 22  1  1  0
 22 23  2  0
 24 23  1  0
 24 26  1  0
 25 24  2  0
 26 27  1  0
 27 28  1  0
 27 33  1  0
 28 29  2  0
 29 30  1  0
 30 31  1  0
 32 30  2  0
 33 32  1  0
 34 33  2  0
  4 35  1  0
  5 36  1  0
  7 37  1  0
  8 38  1  0
  9 39  1  0
 10 40  1  0
 13 41  1  0
 14 42  1  0
 16 43  1  0
 16 44  1  0
 20 45  1  0
 21 46  1  0
 26 47  1  0
 26 48  1  0
 28 49  1  0
 29 50  1  0
 31 51  1  0
 31 52  1  0
M  END
>  <Score>  (1) 
-7.64927

$$$$
