
     RDKit          3D

 48 52  0  0  0  0  0  0  0  0999 V2000
   43.3030   78.5680   61.1200 C   0  0  0  0  0  0  0  0  0  0  0  0
   42.9050   79.8040   61.6850 C   0  0  0  0  0  0  0  0  0  0  0  0
   41.5530   80.1040   61.7380 C   0  0  0  0  0  0  0  0  0  0  0  0
   40.6610   79.1910   61.2420 N   0  0  0  0  0  0  0  0  0  0  0  0
   41.0470   78.0410   60.7180 C   0  0  0  0  0  0  0  0  0  0  0  0
   42.3660   77.7180   60.6520 N   0  0  0  0  0  0  0  0  0  0  0  0
   39.9880   77.1990   60.2460 N   0  0  0  0  0  0  0  0  0  0  0  0
   39.7020   76.1230   60.9870 N   0  0  0  0  0  0  0  0  0  0  0  0
   38.6860   75.4550   60.3890 C   0  0  0  0  0  0  0  0  0  0  0  0
   38.3640   76.1770   59.2420 C   0  0  0  0  0  0  0  0  0  0  0  0
   39.1980   77.2750   59.1700 C   0  0  0  0  0  0  0  0  0  0  0  0
   39.2790   78.3090   58.2140 N   0  0  0  0  0  0  0  0  0  0  0  0
   39.8960   79.5030   58.2780 C   0  0  0  0  0  0  0  0  0  0  0  0
   39.8370   80.3630   57.2000 C   0  0  0  0  0  0  0  0  0  0  0  0
   40.5510   81.6650   57.3630 C   0  0  0  0  0  0  0  0  0  0  0  0
   39.1710   80.0520   56.0540 C   0  0  0  0  0  0  0  0  0  0  0  0
   39.1200   80.8290   55.0850 O   0  0  0  0  0  0  0  0  0  0  0  0
   38.5650   78.8500   56.0230 N   0  0  0  0  0  0  0  0  0  0  0  0
   38.6060   77.9790   57.0730 C   0  0  0  0  0  0  0  0  0  0  0  0
   37.9780   76.8860   56.8740 O   0  0  0  0  0  0  0  0  0  0  0  0
   40.9250   81.6390   62.4300 S   0  0  0  0  0  0  0  0  0  0  0  0
   43.9770   83.9580   62.7800 N   0  0  0  0  0  0  0  0  0  0  0  0
   43.2510   82.8710   63.0490 N   0  0  0  0  0  0  0  0  0  0  0  0
   42.1260   82.9530   62.3030 C   0  0  0  0  0  0  0  0  0  0  0  0
   42.1370   84.1210   61.5420 C   0  0  0  0  0  0  0  0  0  0  0  0
   43.3130   84.7110   61.8760 C   0  0  0  0  0  0  0  0  0  0  0  0
   43.6910   85.9660   61.2830 N   0  0  0  0  0  0  0  0  0  0  0  0
   44.1030   87.0420   61.9420 N   0  0  0  0  0  0  0  0  0  0  0  0
   44.3790   88.0420   61.1250 C   0  0  0  0  0  0  0  0  0  0  0  0
   44.1310   87.5860   59.8600 C   0  0  0  0  0  0  0  0  0  0  0  0
   43.6940   86.2590   59.9790 C   0  0  0  0  0  0  0  0  0  0  0  0
   43.3460   85.4980   58.7530 C   0  0  0  0  0  0  0  0  0  0  0  0
   43.9270   84.2380   58.7030 F   0  0  0  0  0  0  0  0  0  0  0  0
   43.9110   86.1280   57.6140 F   0  0  0  0  0  0  0  0  0  0  0  0
   42.0000   85.5270   58.4950 F   0  0  0  0  0  0  0  0  0  0  0  0
   44.3691   78.3029   61.0632 H   0  0  0  0  0  0  0  0  0  0  0  0
   43.6529   80.5109   62.0735 H   0  0  0  0  0  0  0  0  0  0  0  0
   38.2102   74.5272   60.7395 H   0  0  0  0  0  0  0  0  0  0  0  0
   37.5788   75.9166   58.5169 H   0  0  0  0  0  0  0  0  0  0  0  0
   40.4453   79.7926   59.1859 H   0  0  0  0  0  0  0  0  0  0  0  0
   40.6718   81.8854   58.4339 H   0  0  0  0  0  0  0  0  0  0  0  0
   41.5410   81.6023   56.8876 H   0  0  0  0  0  0  0  0  0  0  0  0
   39.9660   82.4660   56.8876 H   0  0  0  0  0  0  0  0  0  0  0  0
   38.0503   78.5771   55.1736 H   0  0  0  0  0  0  0  0  0  0  0  0
   44.8926   84.1854   63.1934 H   0  0  0  0  0  0  0  0  0  0  0  0
   41.3727   84.4799   60.8370 H   0  0  0  0  0  0  0  0  0  0  0  0
   44.7373   89.0432   61.4063 H   0  0  0  0  0  0  0  0  0  0  0  0
   44.2516   88.1532   58.9253 H   0  0  0  0  0  0  0  0  0  0  0  0
  1  2  2  0
  2  3  1  0
  3 21  1  0
  4  3  2  0
  5  4  1  0
  6  5  2  0
  6  1  1  0
  7  5  1  0
  7  8  1  0
  9  8  2  0
 10  9  1  0
 11 10  2  0
 11  7  1  0
 12 13  1  0
 12 11  1  0
 14 15  1  0
 14 13  2  0
 16 14  1  0
 17 16  2  0
 18 16  1  0
 18 19  1  0
 19 12  1  0
 20 19  2  0
 22 23  1  0
 24 21  1  0
 24 23  2  0
 25 26  2  0
 25 24  1  0
 26 22  1  0
 27 26  1  0
 27 28  1  0
 29 28  2  0
 30 31  2  0
 30 29  1  0
 31 27  1  0
 32 31  1  0
 33 32  1  0
 34 32  1  0
 35 32  1  0
  1 36  1  0
  2 37  1  0
  9 38  1  0
 10 39  1  0
 13 40  1  0
 15 41  1  0
 15 42  1  0
 15 43  1  0
 18 44  1  0
 22 45  1  0
 25 46  1  0
 29 47  1  0
 30 48  1  0
M  END
>  <Score>  (1) 
-7.42699

$$$$
