
     RDKit          3D

 39 42  0  0  0  0  0  0  0  0999 V2000
   40.2170   82.3400   60.6020 C   0  0  0  0  0  0  0  0  0  0  0  0
   40.2210   83.2630   59.5700 C   0  0  0  0  0  0  0  0  0  0  0  0
   39.5360   84.4540   59.6550 C   0  0  0  0  0  0  0  0  0  0  0  0
   38.8600   84.6640   60.8130 N   0  0  0  0  0  0  0  0  0  0  0  0
   38.8470   83.7760   61.8240 C   0  0  0  0  0  0  0  0  0  0  0  0
   39.5210   82.6190   61.7200 N   0  0  0  0  0  0  0  0  0  0  0  0
   40.9560   81.1430   60.4390 N   0  0  0  0  0  0  0  0  0  0  0  0
   41.8170   80.8800   59.4480 C   0  0  0  0  0  0  0  0  0  0  0  0
   42.3540   79.6620   59.6080 N   0  0  0  0  0  0  0  0  0  0  0  0
   41.8090   79.1480   60.7360 C   0  0  0  0  0  0  0  0  0  0  0  0
   42.0250   77.9320   61.3380 C   0  0  0  0  0  0  0  0  0  0  0  0
   42.8520   77.1250   60.7930 O   0  0  0  0  0  0  0  0  0  0  0  0
   41.3520   77.6520   62.4710 N   0  0  0  0  0  0  0  0  0  0  0  0
   40.5070   78.5560   62.9670 C   0  0  0  0  0  0  0  0  0  0  0  0
   39.8780   78.1200   64.1540 N   0  0  0  0  0  0  0  0  0  0  0  0
   40.2780   79.7590   62.3930 N   0  0  0  0  0  0  0  0  0  0  0  0
   40.9290   80.0850   61.2560 C   0  0  0  0  0  0  0  0  0  0  0  0
   42.3140   81.5150   58.2820 N   0  0  0  0  0  0  0  0  0  0  0  0
   43.1640   82.7020   58.5190 C   0  0  0  0  0  0  0  0  0  0  0  0
   42.2140   83.8540   58.1680 C   0  0  0  0  0  0  0  0  0  0  0  0
   42.0060   83.7910   56.6940 C   0  0  0  0  0  0  0  0  0  0  0  0
   41.6160   82.4740   56.1330 C   0  0  0  0  0  0  0  0  0  0  0  0
   42.1520   81.2690   56.8490 C   0  0  0  0  0  0  0  0  0  0  0  0
   40.7884   83.0379   58.6549 H   0  0  0  0  0  0  0  0  0  0  0  0
   39.5365   85.1888   58.8364 H   0  0  0  0  0  0  0  0  0  0  0  0
   38.2812   83.9990   62.7406 H   0  0  0  0  0  0  0  0  0  0  0  0
   41.4888   76.7497   62.9486 H   0  0  0  0  0  0  0  0  0  0  0  0
   39.2019   78.7317   64.6332 H   0  0  0  0  0  0  0  0  0  0  0  0
   40.0954   77.1903   64.5405 H   0  0  0  0  0  0  0  0  0  0  0  0
   43.4881   82.7577   59.5687 H   0  0  0  0  0  0  0  0  0  0  0  0
   44.0954   82.7029   57.9337 H   0  0  0  0  0  0  0  0  0  0  0  0
   41.2555   83.7306   58.6934 H   0  0  0  0  0  0  0  0  0  0  0  0
   42.6338   84.8245   58.4711 H   0  0  0  0  0  0  0  0  0  0  0  0
   41.2142   84.5104   56.4378 H   0  0  0  0  0  0  0  0  0  0  0  0
   42.9887   84.0141   56.2530 H   0  0  0  0  0  0  0  0  0  0  0  0
   40.5178   82.4136   56.1482 H   0  0  0  0  0  0  0  0  0  0  0  0
   42.0549   82.4394   55.1249 H   0  0  0  0  0  0  0  0  0  0  0  0
   41.4530   80.4313   56.7085 H   0  0  0  0  0  0  0  0  0  0  0  0
   43.1410   81.0339   56.4288 H   0  0  0  0  0  0  0  0  0  0  0  0
  1  6  2  0
  2  3  2  0
  2  1  1  0
  3  4  1  0
  4  5  2  0
  6  5  1  0
  7  1  1  0
  7 17  1  0
  8  9  2  0
  8  7  1  0
  9 10  1  0
 10 17  2  0
 10 11  1  0
 11 13  1  0
 12 11  2  0
 13 14  1  0
 14 15  1  0
 16 14  2  0
 17 16  1  0
 18 19  1  0
 18  8  1  0
 20 19  1  0
 21 20  1  0
 22 21  1  0
 22 23  1  0
 23 18  1  0
  2 24  1  0
  3 25  1  0
  5 26  1  0
 13 27  1  0
 15 28  1  0
 15 29  1  0
 19 30  1  0
 19 31  1  0
 20 32  1  0
 20 33  1  0
 21 34  1  0
 21 35  1  0
 22 36  1  0
 22 37  1  0
 23 38  1  0
 23 39  1  0
M  END
>  <Score>  (1) 
-7.31506

$$$$
