
     RDKit          3D

 42 46  0  0  0  0  0  0  0  0999 V2000
   41.0490   81.9280   61.6420 C   0  0  0  0  0  0  0  0  0  0  0  0
   41.1690   82.4280   62.9540 C   0  0  0  0  0  0  0  0  0  0  0  0
   41.5050   83.7420   63.2530 C   0  0  0  0  0  0  0  0  0  0  0  0
   41.7160   84.5390   62.1780 N   0  0  0  0  0  0  0  0  0  0  0  0
   41.6100   84.0980   60.9160 C   0  0  0  0  0  0  0  0  0  0  0  0
   41.2920   82.8490   60.7460 N   0  0  0  0  0  0  0  0  0  0  0  0
   40.7470   80.6010   61.2360 C   0  0  0  0  0  0  0  0  0  0  0  0
   40.8670   79.5660   62.1660 C   0  0  0  0  0  0  0  0  0  0  0  0
   40.6450   78.2200   61.8720 C   0  0  0  0  0  0  0  0  0  0  0  0
   40.2890   77.8860   60.5900 C   0  0  0  0  0  0  0  0  0  0  0  0
   40.1580   78.8860   59.6350 C   0  0  0  0  0  0  0  0  0  0  0  0
   39.7930   78.5530   58.3630 C   0  0  0  0  0  0  0  0  0  0  0  0
   39.6330   79.5020   57.3720 C   0  0  0  0  0  0  0  0  0  0  0  0
   39.8670   80.8130   57.7570 C   0  0  0  0  0  0  0  0  0  0  0  0
   40.2300   81.0910   59.0360 C   0  0  0  0  0  0  0  0  0  0  0  0
   40.3900   80.1750   60.0080 C   0  0  0  0  0  0  0  0  0  0  0  0
   41.8200   85.0170   59.8060 C   0  0  0  0  0  0  0  0  0  0  0  0
   40.8590   85.0570   58.8080 C   0  0  0  0  0  0  0  0  0  0  0  0
   41.0010   85.9230   57.7300 C   0  0  0  0  0  0  0  0  0  0  0  0
   42.0810   86.7310   57.6520 N   0  0  0  0  0  0  0  0  0  0  0  0
   43.0140   86.6720   58.6490 C   0  0  0  0  0  0  0  0  0  0  0  0
   42.8890   85.8280   59.7140 N   0  0  0  0  0  0  0  0  0  0  0  0
   44.4140   87.7340   58.5100 S   0  0  0  0  0  0  0  0  0  0  0  0
   44.0440   89.2930   59.2950 C   0  0  0  0  0  0  0  0  0  0  0  0
   43.5860   90.3060   58.4450 C   0  0  0  0  0  0  0  0  0  0  0  0
   43.3580   91.4270   59.2500 C   0  0  0  0  0  0  0  0  0  0  0  0
   43.6940   91.0170   60.5390 C   0  0  0  0  0  0  0  0  0  0  0  0
   44.0830   89.7780   60.5050 O   0  0  0  0  0  0  0  0  0  0  0  0
   40.9858   81.7372   63.7902 H   0  0  0  0  0  0  0  0  0  0  0  0
   41.5933   84.1085   64.2864 H   0  0  0  0  0  0  0  0  0  0  0  0
   41.1546   79.8283   63.1948 H   0  0  0  0  0  0  0  0  0  0  0  0
   40.7526   77.4474   62.6476 H   0  0  0  0  0  0  0  0  0  0  0  0
   40.1088   76.8349   60.3205 H   0  0  0  0  0  0  0  0  0  0  0  0
   39.6206   77.4944   58.1188 H   0  0  0  0  0  0  0  0  0  0  0  0
   39.3395   79.2352   56.3460 H   0  0  0  0  0  0  0  0  0  0  0  0
   39.7587   81.6283   57.0266 H   0  0  0  0  0  0  0  0  0  0  0  0
   40.4065   82.1450   59.2967 H   0  0  0  0  0  0  0  0  0  0  0  0
   39.9791   84.3998   58.8694 H   0  0  0  0  0  0  0  0  0  0  0  0
   40.2348   85.9504   56.9412 H   0  0  0  0  0  0  0  0  0  0  0  0
   43.4350   90.2347   57.3577 H   0  0  0  0  0  0  0  0  0  0  0  0
   42.9933   92.4157   58.9347 H   0  0  0  0  0  0  0  0  0  0  0  0
   43.6386   91.6431   61.4417 H   0  0  0  0  0  0  0  0  0  0  0  0
  1  2  2  0
  2  3  1  0
  4  3  2  0
  5  4  1  0
  6  5  2  0
  6  1  1  0
  7  1  1  0
  7  8  2  0
  9  8  1  0
 10  9  2  0
 11 16  2  0
 11 10  1  0
 12 11  1  0
 13 14  1  0
 13 12  2  0
 14 15  2  0
 15 16  1  0
 16  7  1  0
 17  5  1  0
 18 17  2  0
 19 18  1  0
 20 19  2  0
 20 21  1  0
 21 22  2  0
 22 17  1  0
 23 21  1  0
 23 24  1  0
 24 28  1  0
 25 26  1  0
 25 24  2  0
 26 27  2  0
 28 27  1  0
  2 29  1  0
  3 30  1  0
  8 31  1  0
  9 32  1  0
 10 33  1  0
 12 34  1  0
 13 35  1  0
 14 36  1  0
 15 37  1  0
 18 38  1  0
 19 39  1  0
 25 40  1  0
 26 41  1  0
 27 42  1  0
M  END
>  <Score>  (1) 
-7.12866

$$$$
