
     RDKit          3D

 45 50  0  0  0  0  0  0  0  0999 V2000
   41.3520   81.9710   58.9240 C   0  0  0  0  0  0  0  0  0  0  0  0
   40.9630   82.3440   57.6480 C   0  0  0  0  0  0  0  0  0  0  0  0
   40.2550   81.5160   56.7970 C   0  0  0  0  0  0  0  0  0  0  0  0
   39.9170   80.2580   57.2350 C   0  0  0  0  0  0  0  0  0  0  0  0
   40.2670   79.8280   58.4760 C   0  0  0  0  0  0  0  0  0  0  0  0
   39.9290   78.5810   58.8950 C   0  0  0  0  0  0  0  0  0  0  0  0
   40.2700   78.0980   60.1630 C   0  0  0  0  0  0  0  0  0  0  0  0
   40.9780   78.9700   60.9690 C   0  0  0  0  0  0  0  0  0  0  0  0
   41.2990   80.2220   60.5020 C   0  0  0  0  0  0  0  0  0  0  0  0
   40.9650   80.6970   59.2610 C   0  0  0  0  0  0  0  0  0  0  0  0
   39.1660   77.6390   58.0610 C   0  0  0  0  0  0  0  0  0  0  0  0
   38.0530   76.8800   58.2120 N   0  0  0  0  0  0  0  0  0  0  0  0
   37.7710   76.1940   57.1560 O   0  0  0  0  0  0  0  0  0  0  0  0
   38.6490   76.4400   56.2500 C   0  0  0  0  0  0  0  0  0  0  0  0
   39.4660   77.3040   56.8160 N   0  0  0  0  0  0  0  0  0  0  0  0
   38.8440   75.9890   54.9260 N   0  0  0  0  0  0  0  0  0  0  0  0
   37.7450   75.8790   54.1720 C   0  0  0  0  0  0  0  0  0  0  0  0
   38.1490   75.4160   52.9040 C   0  0  0  0  0  0  0  0  0  0  0  0
   39.4810   75.2660   52.9470 N   0  0  0  0  0  0  0  0  0  0  0  0
   39.9180   75.6150   54.1830 C   0  0  0  0  0  0  0  0  0  0  0  0
   43.7820   84.5730   60.2850 C   0  0  0  0  0  0  0  0  0  0  0  0
   43.2110   83.6910   59.3680 C   0  0  0  0  0  0  0  0  0  0  0  0
   42.0820   82.9170   59.7070 C   0  0  0  0  0  0  0  0  0  0  0  0
   41.6330   83.1210   60.9770 N   0  0  0  0  0  0  0  0  0  0  0  0
   42.1990   83.9760   61.8450 C   0  0  0  0  0  0  0  0  0  0  0  0
   43.2650   84.6900   61.4890 N   0  0  0  0  0  0  0  0  0  0  0  0
   41.6440   84.1080   63.1500 N   0  0  0  0  0  0  0  0  0  0  0  0
   40.3250   84.0770   63.4240 C   0  0  0  0  0  0  0  0  0  0  0  0
   40.1450   84.2350   64.7790 C   0  0  0  0  0  0  0  0  0  0  0  0
   41.3670   84.3640   65.3390 N   0  0  0  0  0  0  0  0  0  0  0  0
   42.2550   84.2870   64.3530 C   0  0  0  0  0  0  0  0  0  0  0  0
   41.2311   83.3503   57.2938 H   0  0  0  0  0  0  0  0  0  0  0  0
   39.9684   81.8567   55.7911 H   0  0  0  0  0  0  0  0  0  0  0  0
   39.3534   79.5874   56.5697 H   0  0  0  0  0  0  0  0  0  0  0  0
   39.9922   77.0877   60.4977 H   0  0  0  0  0  0  0  0  0  0  0  0
   41.2832   78.6629   61.9802 H   0  0  0  0  0  0  0  0  0  0  0  0
   41.8630   80.8888   61.1707 H   0  0  0  0  0  0  0  0  0  0  0  0
   36.7153   76.1078   54.4842 H   0  0  0  0  0  0  0  0  0  0  0  0
   37.4956   75.2155   52.0421 H   0  0  0  0  0  0  0  0  0  0  0  0
   40.9633   75.5980   54.5251 H   0  0  0  0  0  0  0  0  0  0  0  0
   44.6622   85.1692   60.0024 H   0  0  0  0  0  0  0  0  0  0  0  0
   43.6487   83.5975   58.3632 H   0  0  0  0  0  0  0  0  0  0  0  0
   39.5218   83.9465   62.6839 H   0  0  0  0  0  0  0  0  0  0  0  0
   39.1814   84.2530   65.3093 H   0  0  0  0  0  0  0  0  0  0  0  0
   43.3439   84.3587   64.4915 H   0  0  0  0  0  0  0  0  0  0  0  0
  1 10  1  0
  1 23  1  0
  2  1  2  0
  3  4  2  0
  3  2  1  0
  4  5  1  0
  5  6  1  0
  5 10  2  0
  6  7  2  0
  7  8  1  0
  9  8  2  0
 10  9  1  0
 11 12  2  0
 11  6  1  0
 13 12  1  0
 14 15  2  0
 14 13  1  0
 15 11  1  0
 16 14  1  0
 17 16  1  0
 18 19  1  0
 18 17  2  0
 19 20  2  0
 20 16  1  0
 21 26  2  0
 22 23  2  0
 22 21  1  0
 23 24  1  0
 24 25  2  0
 25 27  1  0
 26 25  1  0
 27 28  1  0
 27 31  1  0
 28 29  2  0
 29 30  1  0
 31 30  2  0
  2 32  1  0
  3 33  1  0
  4 34  1  0
  7 35  1  0
  8 36  1  0
  9 37  1  0
 17 38  1  0
 18 39  1  0
 20 40  1  0
 21 41  1  0
 22 42  1  0
 28 43  1  0
 29 44  1  0
 31 45  1  0
M  END
>  <Score>  (1) 
-7.08547

$$$$
