
     RDKit          3D

 43 47  0  0  0  0  0  0  0  0999 V2000
   41.2540   84.2460   61.2910 C   0  0  0  0  0  0  0  0  0  0  0  0
   40.4720   84.4420   60.1810 C   0  0  0  0  0  0  0  0  0  0  0  0
   39.1850   84.2650   60.5120 N   0  0  0  0  0  0  0  0  0  0  0  0
   39.1100   83.9550   61.8160 C   0  0  0  0  0  0  0  0  0  0  0  0
   40.3750   83.9440   62.2880 N   0  0  0  0  0  0  0  0  0  0  0  0
   37.9260   83.6870   62.5730 N   0  0  0  0  0  0  0  0  0  0  0  0
   40.9020   84.7830   58.8630 N   0  0  0  0  0  0  0  0  0  0  0  0
   40.7820   85.9800   58.2280 C   0  0  0  0  0  0  0  0  0  0  0  0
   41.2870   85.9610   57.0050 N   0  0  0  0  0  0  0  0  0  0  0  0
   41.7610   84.6970   56.8180 C   0  0  0  0  0  0  0  0  0  0  0  0
   42.3790   84.1990   55.6850 C   0  0  0  0  0  0  0  0  0  0  0  0
   42.7590   82.8980   55.7580 N   0  0  0  0  0  0  0  0  0  0  0  0
   42.5220   82.2000   56.8820 C   0  0  0  0  0  0  0  0  0  0  0  0
   41.9110   82.7060   57.9910 N   0  0  0  0  0  0  0  0  0  0  0  0
   41.5160   83.9870   57.9700 C   0  0  0  0  0  0  0  0  0  0  0  0
   44.6410   85.6110   61.3720 C   0  0  0  0  0  0  0  0  0  0  0  0
   45.4240   84.4470   61.5380 C   0  0  0  0  0  0  0  0  0  0  0  0
   44.7780   83.2460   61.6170 C   0  0  0  0  0  0  0  0  0  0  0  0
   43.4130   83.2310   61.5300 N   0  0  0  0  0  0  0  0  0  0  0  0
   42.6930   84.3390   61.3740 C   0  0  0  0  0  0  0  0  0  0  0  0
   43.2950   85.5360   61.2930 N   0  0  0  0  0  0  0  0  0  0  0  0
   45.4870   81.9910   61.7880 C   0  0  0  0  0  0  0  0  0  0  0  0
   45.0140   80.9510   62.5640 C   0  0  0  0  0  0  0  0  0  0  0  0
   45.6680   79.7450   62.7440 C   0  0  0  0  0  0  0  0  0  0  0  0
   46.8760   79.6080   62.0850 C   0  0  0  0  0  0  0  0  0  0  0  0
   47.4110   80.5920   61.2980 C   0  0  0  0  0  0  0  0  0  0  0  0
   46.6930   81.7720   61.1680 C   0  0  0  0  0  0  0  0  0  0  0  0
   40.7730   83.6590   63.6490 C   0  0  0  0  0  0  0  0  0  0  0  0
   40.9300   82.3080   63.7950 F   0  0  0  0  0  0  0  0  0  0  0  0
   39.8030   84.0860   64.5520 F   0  0  0  0  0  0  0  0  0  0  0  0
   41.9110   84.4020   64.0180 F   0  0  0  0  0  0  0  0  0  0  0  0
   37.9960   83.4587   63.5749 H   0  0  0  0  0  0  0  0  0  0  0  0
   37.0036   83.7224   62.1161 H   0  0  0  0  0  0  0  0  0  0  0  0
   40.3159   86.8671   58.6817 H   0  0  0  0  0  0  0  0  0  0  0  0
   42.5502   84.8135   54.7889 H   0  0  0  0  0  0  0  0  0  0  0  0
   42.8430   81.1482   56.9090 H   0  0  0  0  0  0  0  0  0  0  0  0
   45.1345   86.5919   61.3062 H   0  0  0  0  0  0  0  0  0  0  0  0
   46.5206   84.5059   61.6017 H   0  0  0  0  0  0  0  0  0  0  0  0
   44.0499   81.0913   63.0747 H   0  0  0  0  0  0  0  0  0  0  0  0
   45.2523   78.9440   63.3730 H   0  0  0  0  0  0  0  0  0  0  0  0
   47.4321   78.6657   62.1983 H   0  0  0  0  0  0  0  0  0  0  0  0
   48.3751   80.4522   60.7872 H   0  0  0  0  0  0  0  0  0  0  0  0
   47.1099   82.5713   60.5376 H   0  0  0  0  0  0  0  0  0  0  0  0
  1 20  1  0
  1  5  1  0
  2  3  1  0
  2  1  2  0
  3  4  2  0
  4  5  1  0
  4  6  1  0
  5 28  1  0
  7  2  1  0
  8  7  1  0
  9  8  2  0
 10  9  1  0
 10 15  2  0
 11 12  2  0
 11 10  1  0
 12 13  1  0
 13 14  2  0
 15 14  1  0
 15  7  1  0
 16 17  2  0
 17 18  1  0
 18 22  1  0
 19 18  2  0
 20 19  1  0
 21 16  1  0
 21 20  2  0
 22 23  2  0
 23 24  1  0
 25 24  2  0
 26 25  1  0
 27 26  2  0
 27 22  1  0
 28 29  1  0
 28 31  1  0
 28 30  1  0
  6 32  1  0
  6 33  1  0
  8 34  1  0
 11 35  1  0
 13 36  1  0
 16 37  1  0
 17 38  1  0
 23 39  1  0
 24 40  1  0
 25 41  1  0
 26 42  1  0
 27 43  1  0
M  END
>  <Score>  (1) 
-7.55811

$$$$
