
     RDKit          3D

 40 44  0  0  0  0  0  0  0  0999 V2000
   40.8070   82.2460   61.4220 C   0  0  0  0  0  0  0  0  0  0  0  0
   40.5120   82.9470   60.2600 C   0  0  0  0  0  0  0  0  0  0  0  0
   40.1700   82.3540   59.0550 C   0  0  0  0  0  0  0  0  0  0  0  0
   40.1130   80.9810   58.9910 C   0  0  0  0  0  0  0  0  0  0  0  0
   40.3880   80.2140   60.0900 C   0  0  0  0  0  0  0  0  0  0  0  0
   40.3340   78.8450   60.0390 C   0  0  0  0  0  0  0  0  0  0  0  0
   40.6080   78.0440   61.1440 C   0  0  0  0  0  0  0  0  0  0  0  0
   40.9420   78.7220   62.3020 C   0  0  0  0  0  0  0  0  0  0  0  0
   40.9890   80.0840   62.3280 C   0  0  0  0  0  0  0  0  0  0  0  0
   40.7200   80.8830   61.2460 C   0  0  0  0  0  0  0  0  0  0  0  0
   39.9880   78.1750   58.8320 N   0  0  0  0  0  0  0  0  0  0  0  0
   40.1000   78.5760   57.5500 C   0  0  0  0  0  0  0  0  0  0  0  0
   39.6370   77.5920   56.7340 N   0  0  0  0  0  0  0  0  0  0  0  0
   39.2310   76.5590   57.5030 C   0  0  0  0  0  0  0  0  0  0  0  0
   38.6890   75.3360   57.1600 C   0  0  0  0  0  0  0  0  0  0  0  0
   38.4850   74.9960   55.9510 O   0  0  0  0  0  0  0  0  0  0  0  0
   38.3640   74.4720   58.1390 N   0  0  0  0  0  0  0  0  0  0  0  0
   38.5740   74.8170   59.4230 C   0  0  0  0  0  0  0  0  0  0  0  0
   38.2720   73.9880   60.5430 N   0  0  0  0  0  0  0  0  0  0  0  0
   39.1070   76.0180   59.7710 N   0  0  0  0  0  0  0  0  0  0  0  0
   39.4510   76.9250   58.8170 C   0  0  0  0  0  0  0  0  0  0  0  0
   42.5180   84.2120   64.2000 C   0  0  0  0  0  0  0  0  0  0  0  0
   42.3650   83.4940   63.0160 C   0  0  0  0  0  0  0  0  0  0  0  0
   41.1400   82.9930   62.5820 C   0  0  0  0  0  0  0  0  0  0  0  0
   40.1200   83.2850   63.4440 N   0  0  0  0  0  0  0  0  0  0  0  0
   40.2420   83.9660   64.5770 C   0  0  0  0  0  0  0  0  0  0  0  0
   41.4400   84.4260   64.9510 N   0  0  0  0  0  0  0  0  0  0  0  0
   40.5525   84.0456   60.2986 H   0  0  0  0  0  0  0  0  0  0  0  0
   39.9490   82.9677   58.1692 H   0  0  0  0  0  0  0  0  0  0  0  0
   39.8425   80.4930   58.0430 H   0  0  0  0  0  0  0  0  0  0  0  0
   40.5619   76.9459   61.0991 H   0  0  0  0  0  0  0  0  0  0  0  0
   41.1731   78.1540   63.2153 H   0  0  0  0  0  0  0  0  0  0  0  0
   41.2595   80.5728   63.2756 H   0  0  0  0  0  0  0  0  0  0  0  0
   40.5017   79.5444   57.2172 H   0  0  0  0  0  0  0  0  0  0  0  0
   37.9578   73.5541   57.9078 H   0  0  0  0  0  0  0  0  0  0  0  0
   38.4620   74.3234   61.4981 H   0  0  0  0  0  0  0  0  0  0  0  0
   37.8638   73.0537   60.3970 H   0  0  0  0  0  0  0  0  0  0  0  0
   43.5038   84.5921   64.5062 H   0  0  0  0  0  0  0  0  0  0  0  0
   43.2543   83.3141   62.3941 H   0  0  0  0  0  0  0  0  0  0  0  0
   39.3592   84.1513   65.2066 H   0  0  0  0  0  0  0  0  0  0  0  0
  1 24  1  0
  2  1  2  0
  3  2  1  0
  4  3  2  0
  4  5  1  0
  5 10  2  0
  6  5  1  0
  6  7  2  0
  7  8  1  0
  8  9  2  0
 10  1  1  0
 10  9  1  0
 11  6  1  0
 12 11  1  0
 13 14  1  0
 13 12  2  0
 14 21  2  0
 15 14  1  0
 15 17  1  0
 16 15  2  0
 17 18  1  0
 18 20  2  0
 18 19  1  0
 21 11  1  0
 21 20  1  0
 22 27  2  0
 23 22  1  0
 24 23  2  0
 24 25  1  0
 25 26  2  0
 26 27  1  0
  2 28  1  0
  3 29  1  0
  4 30  1  0
  7 31  1  0
  8 32  1  0
  9 33  1  0
 12 34  1  0
 17 35  1  0
 19 36  1  0
 19 37  1  0
 22 38  1  0
 23 39  1  0
 26 40  1  0
M  END
>  <Score>  (1) 
-7.63882

$$$$
