
     RDKit          3D

 35 39  0  0  0  0  0  0  0  0999 V2000
   42.1710   82.4910   61.9600 C   0  0  0  0  0  0  0  0  0  0  0  0
   42.8200   83.5250   61.2840 C   0  0  0  0  0  0  0  0  0  0  0  0
   42.9400   84.7760   61.8760 C   0  0  0  0  0  0  0  0  0  0  0  0
   42.4030   84.9340   63.1210 N   0  0  0  0  0  0  0  0  0  0  0  0
   41.7780   83.9310   63.7670 C   0  0  0  0  0  0  0  0  0  0  0  0
   41.6620   82.7210   63.1910 N   0  0  0  0  0  0  0  0  0  0  0  0
   42.0840   81.2430   61.2990 N   0  0  0  0  0  0  0  0  0  0  0  0
   42.5810   80.9530   60.0880 C   0  0  0  0  0  0  0  0  0  0  0  0
   42.3200   79.6690   59.7620 N   0  0  0  0  0  0  0  0  0  0  0  0
   41.6380   79.1420   60.8000 C   0  0  0  0  0  0  0  0  0  0  0  0
   41.1310   77.8860   60.9980 C   0  0  0  0  0  0  0  0  0  0  0  0
   41.3060   77.0240   60.0620 O   0  0  0  0  0  0  0  0  0  0  0  0
   40.4820   77.6110   62.1410 N   0  0  0  0  0  0  0  0  0  0  0  0
   40.3420   78.5700   63.0710 C   0  0  0  0  0  0  0  0  0  0  0  0
   39.6340   78.1330   64.2260 N   0  0  0  0  0  0  0  0  0  0  0  0
   40.8310   79.8200   62.9100 N   0  0  0  0  0  0  0  0  0  0  0  0
   41.4840   80.1380   61.7850 C   0  0  0  0  0  0  0  0  0  0  0  0
   43.5810   85.8630   61.2530 N   0  0  0  0  0  0  0  0  0  0  0  0
   44.0220   86.9660   61.8520 C   0  0  0  0  0  0  0  0  0  0  0  0
   44.5920   87.8140   60.9510 N   0  0  0  0  0  0  0  0  0  0  0  0
   44.5110   87.2310   59.7260 C   0  0  0  0  0  0  0  0  0  0  0  0
   44.9320   87.6580   58.4850 C   0  0  0  0  0  0  0  0  0  0  0  0
   44.7210   86.8600   57.4140 N   0  0  0  0  0  0  0  0  0  0  0  0
   44.1010   85.6840   57.6530 C   0  0  0  0  0  0  0  0  0  0  0  0
   43.6880   85.2600   58.8610 N   0  0  0  0  0  0  0  0  0  0  0  0
   43.8770   86.0210   59.9550 C   0  0  0  0  0  0  0  0  0  0  0  0
   43.2370   83.3493   60.2814 H   0  0  0  0  0  0  0  0  0  0  0  0
   41.3605   84.1021   64.7702 H   0  0  0  0  0  0  0  0  0  0  0  0
   43.1260   81.6629   59.4485 H   0  0  0  0  0  0  0  0  0  0  0  0
   40.0941   76.6708   62.3035 H   0  0  0  0  0  0  0  0  0  0  0  0
   39.4671   78.7855   65.0053 H   0  0  0  0  0  0  0  0  0  0  0  0
   39.2886   77.1643   64.2825 H   0  0  0  0  0  0  0  0  0  0  0  0
   43.9377   87.1664   62.9303 H   0  0  0  0  0  0  0  0  0  0  0  0
   45.4311   88.6312   58.3678 H   0  0  0  0  0  0  0  0  0  0  0  0
   43.9198   85.0219   56.7935 H   0  0  0  0  0  0  0  0  0  0  0  0
  1  6  2  0
  2  3  2  0
  2  1  1  0
  3  4  1  0
  4  5  2  0
  6  5  1  0
  7 17  1  0
  7  1  1  0
  8  7  1  0
  9  8  2  0
  9 10  1  0
 10 11  1  0
 10 17  2  0
 11 13  1  0
 12 11  2  0
 13 14  1  0
 14 15  1  0
 16 14  2  0
 17 16  1  0
 18 19  1  0
 18  3  1  0
 20 19  2  0
 21 26  2  0
 21 20  1  0
 22 21  1  0
 23 24  1  0
 23 22  2  0
 24 25  2  0
 25 26  1  0
 26 18  1  0
  2 27  1  0
  5 28  1  0
  8 29  1  0
 13 30  1  0
 15 31  1  0
 15 32  1  0
 19 33  1  0
 22 34  1  0
 24 35  1  0
M  END
>  <Score>  (1) 
-7.14625

$$$$
