
     RDKit          3D

 47 51  0  0  1  0  0  0  0  0999 V2000
   40.4360   80.4270   61.2640 N   0  0  0  0  0  0  0  0  0  0  0  0
   41.1000   80.0170   62.3760 C   0  0  0  0  0  0  0  0  0  0  0  0
   41.3930   78.6940   62.2730 N   0  0  0  0  0  0  0  0  0  0  0  0
   40.9270   78.2400   61.1040 C   0  0  0  0  0  0  0  0  0  0  0  0
   40.9780   77.0650   60.3840 C   0  0  2  0  0  0  0  0  0  0  0  0
   40.1320   76.8980   59.3230 N   0  0  0  0  0  0  0  0  0  0  0  0
   39.5810   77.9480   58.7260 C   0  0  0  0  0  0  0  0  0  0  0  0
   39.6890   79.1400   59.3270 N   0  0  0  0  0  0  0  0  0  0  0  0
   40.3360   79.3260   60.5000 C   0  0  0  0  0  0  0  0  0  0  0  0
   38.9170   77.7700   57.4740 N   0  0  0  0  0  0  0  0  0  0  0  0
   38.0460   76.6280   57.3320 C   0  0  0  0  0  0  0  0  0  0  0  0
   36.6730   77.2070   57.0790 C   0  0  0  0  0  0  0  0  0  0  0  0
   36.7340   77.8820   55.7230 C   0  0  0  0  0  0  0  0  0  0  0  0
   37.7970   78.9330   55.6080 C   0  0  0  0  0  0  0  0  0  0  0  0
   39.0510   78.6380   56.3460 C   0  0  0  0  0  0  0  0  0  0  0  0
   39.9980   81.7560   61.0380 C   0  0  0  0  0  0  0  0  0  0  0  0
   40.2330   82.4890   59.8480 C   0  0  0  0  0  0  0  0  0  0  0  0
   39.7490   83.7880   59.7800 C   0  0  0  0  0  0  0  0  0  0  0  0
   39.0780   84.2860   60.8590 N   0  0  0  0  0  0  0  0  0  0  0  0
   38.8790   83.5490   61.9740 C   0  0  0  0  0  0  0  0  0  0  0  0
   39.3390   82.2840   62.0630 N   0  0  0  0  0  0  0  0  0  0  0  0
   41.3090   75.8980   61.1390 N   0  0  0  0  0  0  0  0  0  0  0  0
   41.1220   74.5230   60.8650 C   0  0  0  0  0  0  0  0  0  0  0  0
   42.3090   73.8560   60.5070 C   0  0  0  0  0  0  0  0  0  0  0  0
   42.0570   72.5410   60.2600 N   0  0  0  0  0  0  0  0  0  0  0  0
   40.7400   72.3590   60.4520 C   0  0  0  0  0  0  0  0  0  0  0  0
   40.2120   73.5400   60.8080 N   0  0  0  0  0  0  0  0  0  0  0  0
   41.3610   80.6588   63.2304 H   0  0  0  0  0  0  0  0  0  0  0  0
   41.8881   77.2514   59.7949 H   0  0  0  0  0  0  0  0  0  0  0  0
   39.2571   79.9571   58.8725 H   0  0  0  0  0  0  0  0  0  0  0  0
   38.3637   76.0035   56.4840 H   0  0  0  0  0  0  0  0  0  0  0  0
   38.0631   75.9840   58.2236 H   0  0  0  0  0  0  0  0  0  0  0  0
   35.9185   76.4066   57.0715 H   0  0  0  0  0  0  0  0  0  0  0  0
   36.3910   77.9212   57.8667 H   0  0  0  0  0  0  0  0  0  0  0  0
   36.9269   77.1113   54.9622 H   0  0  0  0  0  0  0  0  0  0  0  0
   35.7693   78.3904   55.5788 H   0  0  0  0  0  0  0  0  0  0  0  0
   38.0469   79.0510   54.5433 H   0  0  0  0  0  0  0  0  0  0  0  0
   37.3797   79.8443   56.0612 H   0  0  0  0  0  0  0  0  0  0  0  0
   39.7555   78.1710   55.6420 H   0  0  0  0  0  0  0  0  0  0  0  0
   39.3957   79.6019   56.7487 H   0  0  0  0  0  0  0  0  0  0  0  0
   40.7814   82.0427   59.0053 H   0  0  0  0  0  0  0  0  0  0  0  0
   39.9023   84.4006   58.8793 H   0  0  0  0  0  0  0  0  0  0  0  0
   38.3333   83.9875   62.8225 H   0  0  0  0  0  0  0  0  0  0  0  0
   41.7642   76.0923   62.0423 H   0  0  0  0  0  0  0  0  0  0  0  0
   43.2992   74.3299   60.4368 H   0  0  0  0  0  0  0  0  0  0  0  0
   40.1926   71.4117   60.3378 H   0  0  0  0  0  0  0  0  0  0  0  0
   39.2125   73.6771   61.0157 H   0  0  0  0  0  0  0  0  0  0  0  0
  1  2  1  0
  3  2  2  0
  4  3  1  0
  5  4  1  0
  5 22  1  0
  6  5  1  0
  7  6  2  0
  7  8  1  0
  8  9  1  0
  9  4  2  0
  9  1  1  0
 10  7  1  0
 11 10  1  0
 12 11  1  0
 13 12  1  0
 14 13  1  0
 14 15  1  0
 15 10  1  0
 16  1  1  0
 16 21  1  0
 17 16  2  0
 18 17  1  0
 18 19  2  0
 19 20  1  0
 20 21  2  0
 23 22  1  0
 24 23  2  0
 25 26  2  0
 25 24  1  0
 26 27  1  0
 27 23  1  0
  2 28  1  0
  5 29  1  6
  8 30  1  0
 11 31  1  0
 11 32  1  0
 12 33  1  0
 12 34  1  0
 13 35  1  0
 13 36  1  0
 14 37  1  0
 14 38  1  0
 15 39  1  0
 15 40  1  0
 17 41  1  0
 18 42  1  0
 20 43  1  0
 22 44  1  0
 24 45  1  0
 26 46  1  0
 27 47  1  0
M  END
>  <Score>  (1) 
-7.12099

$$$$
