
     RDKit          3D

 47 50  0  0  1  0  0  0  0  0999 V2000
   41.4380   76.7370   60.0020 C   0  0  0  0  0  0  0  0  0  0  0  0
   41.1310   76.4440   58.6780 C   0  0  0  0  0  0  0  0  0  0  0  0
   41.4370   75.1950   58.2390 C   0  0  0  0  0  0  0  0  0  0  0  0
   42.0130   74.3050   59.0810 N   0  0  0  0  0  0  0  0  0  0  0  0
   42.2790   74.6670   60.3530 C   0  0  0  0  0  0  0  0  0  0  0  0
   42.0060   75.8900   60.8670 N   0  0  0  0  0  0  0  0  0  0  0  0
   40.3770   80.5680   60.8790 C   0  0  0  0  0  0  0  0  0  0  0  0
   40.8030   79.8600   61.9600 C   0  0  0  0  0  0  0  0  0  0  0  0
   41.1760   78.5750   61.7600 C   0  0  0  0  0  0  0  0  0  0  0  0
   41.1040   78.0700   60.4940 C   0  0  0  0  0  0  0  0  0  0  0  0
   40.4730   79.4780   59.5110 S   0  0  0  0  0  0  0  0  0  0  0  0
   39.9170   81.9830   60.8210 C   0  0  0  0  0  0  0  0  0  0  0  0
   40.1140   82.7690   59.6970 C   0  0  0  0  0  0  0  0  0  0  0  0
   39.6360   84.0810   59.7730 C   0  0  0  0  0  0  0  0  0  0  0  0
   39.0230   84.4930   60.9210 N   0  0  0  0  0  0  0  0  0  0  0  0
   38.8610   83.6780   61.9860 C   0  0  0  0  0  0  0  0  0  0  0  0
   39.3170   82.4230   61.9120 N   0  0  0  0  0  0  0  0  0  0  0  0
   42.8980   73.6370   61.2490 C   0  0  1  0  0  0  0  0  0  0  0  0
   43.6430   74.2780   62.3970 C   0  0  0  0  0  0  0  0  0  0  0  0
   41.8180   72.6820   61.6640 C   0  0  0  0  0  0  0  0  0  0  0  0
   42.0280   71.3290   61.2480 N   0  0  0  0  0  0  0  0  0  0  0  0
   42.9760   70.5240   61.7570 C   0  0  0  0  0  0  0  0  0  0  0  0
   43.0740   69.2380   61.2700 C   0  0  0  0  0  0  0  0  0  0  0  0
   44.1060   68.2970   61.7960 C   0  0  0  0  0  0  0  0  0  0  0  0
   42.2220   68.7600   60.2750 C   0  0  0  0  0  0  0  0  0  0  0  0
   42.3000   67.5770   59.8170 O   0  0  0  0  0  0  0  0  0  0  0  0
   41.2980   69.6260   59.8160 N   0  0  0  0  0  0  0  0  0  0  0  0
   41.1910   70.8830   60.2810 C   0  0  0  0  0  0  0  0  0  0  0  0
   40.2680   71.5840   59.7480 O   0  0  0  0  0  0  0  0  0  0  0  0
   40.6625   77.1881   58.0171 H   0  0  0  0  0  0  0  0  0  0  0  0
   41.2169   74.9073   57.2004 H   0  0  0  0  0  0  0  0  0  0  0  0
   40.8427   80.3159   62.9603 H   0  0  0  0  0  0  0  0  0  0  0  0
   41.5283   77.9532   62.5962 H   0  0  0  0  0  0  0  0  0  0  0  0
   40.6168   82.3836   58.7978 H   0  0  0  0  0  0  0  0  0  0  0  0
   39.7519   84.7690   58.9226 H   0  0  0  0  0  0  0  0  0  0  0  0
   38.3630   84.0400   62.8976 H   0  0  0  0  0  0  0  0  0  0  0  0
   43.6719   73.0628   60.7186 H   0  0  0  0  0  0  0  0  0  0  0  0
   43.2266   73.9197   63.3500 H   0  0  0  0  0  0  0  0  0  0  0  0
   44.7081   74.0096   62.3383 H   0  0  0  0  0  0  0  0  0  0  0  0
   43.5366   75.3713   62.3383 H   0  0  0  0  0  0  0  0  0  0  0  0
   41.7499   72.6969   62.7618 H   0  0  0  0  0  0  0  0  0  0  0  0
   40.8953   73.0207   61.1702 H   0  0  0  0  0  0  0  0  0  0  0  0
   43.6571   70.8824   62.5429 H   0  0  0  0  0  0  0  0  0  0  0  0
   44.0894   68.3121   62.8958 H   0  0  0  0  0  0  0  0  0  0  0  0
   43.8895   67.2790   61.4400 H   0  0  0  0  0  0  0  0  0  0  0  0
   45.0998   68.6063   61.4400 H   0  0  0  0  0  0  0  0  0  0  0  0
   40.6484   69.3132   59.0804 H   0  0  0  0  0  0  0  0  0  0  0  0
  1 10  1  0
  1  6  1  0
  2  1  2  0
  3  2  1  0
  3  4  2  0
  4  5  1  0
  5  6  2  0
  5 18  1  0
  7  8  2  0
  9  8  1  0
 10  9  2  0
 11 10  1  0
 11  7  1  0
 12  7  1  0
 12 17  2  0
 13 14  2  0
 13 12  1  0
 14 15  1  0
 15 16  2  0
 17 16  1  0
 18 20  1  0
 18 19  1  0
 21 20  1  0
 21 22  1  0
 23 22  2  0
 23 24  1  0
 25 23  1  0
 26 25  2  0
 27 25  1  0
 27 28  1  0
 28 21  1  0
 29 28  2  0
  2 30  1  0
  3 31  1  0
  8 32  1  0
  9 33  1  0
 13 34  1  0
 14 35  1  0
 16 36  1  0
 18 37  1  6
 19 38  1  0
 19 39  1  0
 19 40  1  0
 20 41  1  0
 20 42  1  0
 22 43  1  0
 24 44  1  0
 24 45  1  0
 24 46  1  0
 27 47  1  0
M  END
>  <Score>  (1) 
-7.08156

$$$$
