
     RDKit          3D

 42 45  0  0  0  0  0  0  0  0999 V2000
   41.6850   77.0460   61.1240 C   0  0  0  0  0  0  0  0  0  0  0  0
   41.3240   78.3730   61.2870 C   0  0  0  0  0  0  0  0  0  0  0  0
   42.2260   79.3040   61.7700 C   0  0  0  0  0  0  0  0  0  0  0  0
   43.4860   78.8640   62.0780 N   0  0  0  0  0  0  0  0  0  0  0  0
   43.8240   77.5720   61.9140 C   0  0  0  0  0  0  0  0  0  0  0  0
   42.9370   76.6750   61.4440 N   0  0  0  0  0  0  0  0  0  0  0  0
   40.7430   76.1120   60.6370 N   0  0  0  0  0  0  0  0  0  0  0  0
   39.3920   76.5180   60.5620 C   0  0  0  0  0  0  0  0  0  0  0  0
   38.4350   75.5720   59.9900 C   0  0  0  0  0  0  0  0  0  0  0  0
   38.9650   74.2480   59.5330 C   0  0  0  0  0  0  0  0  0  0  0  0
   40.0880   73.7840   60.4710 C   0  0  0  0  0  0  0  0  0  0  0  0
   41.1980   74.7910   60.2460 C   0  0  0  0  0  0  0  0  0  0  0  0
   41.9420   80.7180   61.9710 C   0  0  0  0  0  0  0  0  0  0  0  0
   42.7030   81.7270   61.3980 C   0  0  0  0  0  0  0  0  0  0  0  0
   42.1590   82.9450   61.8060 C   0  0  0  0  0  0  0  0  0  0  0  0
   41.1260   82.6470   62.5810 N   0  0  0  0  0  0  0  0  0  0  0  0
   41.0080   81.3360   62.6700 N   0  0  0  0  0  0  0  0  0  0  0  0
   42.7940   84.1430   61.3310 C   0  0  0  0  0  0  0  0  0  0  0  0
   43.8300   84.8590   61.8430 C   0  0  0  0  0  0  0  0  0  0  0  0
   44.4330   85.9950   61.3620 C   0  0  0  0  0  0  0  0  0  0  0  0
   43.9450   86.5150   60.1930 C   0  0  0  0  0  0  0  0  0  0  0  0
   42.9030   85.8260   59.6450 C   0  0  0  0  0  0  0  0  0  0  0  0
   42.3920   84.7260   60.2040 N   0  0  0  0  0  0  0  0  0  0  0  0
   40.2470   83.5770   63.2310 C   0  0  0  0  0  0  0  0  0  0  0  0
   40.1780   83.2950   64.6110 F   0  0  0  0  0  0  0  0  0  0  0  0
   38.9490   83.5060   62.7980 F   0  0  0  0  0  0  0  0  0  0  0  0
   40.7580   84.8410   63.1230 F   0  0  0  0  0  0  0  0  0  0  0  0
   40.3035   78.6919   61.0282 H   0  0  0  0  0  0  0  0  0  0  0  0
   44.8424   77.2431   62.1683 H   0  0  0  0  0  0  0  0  0  0  0  0
   39.0723   77.5077   60.9201 H   0  0  0  0  0  0  0  0  0  0  0  0
   37.3679   75.8229   59.8990 H   0  0  0  0  0  0  0  0  0  0  0  0
   38.1523   73.5068   59.5421 H   0  0  0  0  0  0  0  0  0  0  0  0
   39.3635   74.3496   58.5128 H   0  0  0  0  0  0  0  0  0  0  0  0
   39.7531   73.7997   61.5187 H   0  0  0  0  0  0  0  0  0  0  0  0
   40.4077   72.7512   60.2680 H   0  0  0  0  0  0  0  0  0  0  0  0
   42.0738   74.5117   60.8502 H   0  0  0  0  0  0  0  0  0  0  0  0
   41.4732   74.7997   59.1810 H   0  0  0  0  0  0  0  0  0  0  0  0
   43.5755   81.5912   60.7421 H   0  0  0  0  0  0  0  0  0  0  0  0
   44.2477   84.4701   62.7833 H   0  0  0  0  0  0  0  0  0  0  0  0
   45.2725   86.4673   61.8932 H   0  0  0  0  0  0  0  0  0  0  0  0
   44.3624   87.4213   59.7300 H   0  0  0  0  0  0  0  0  0  0  0  0
   42.4657   86.1914   58.7041 H   0  0  0  0  0  0  0  0  0  0  0  0
  1  2  2  0
  1  6  1  0
  2  3  1  0
  3 13  1  0
  3  4  2  0
  5  4  1  0
  6  5  2  0
  7  1  1  0
  8  7  1  0
  9  8  2  0
 10  9  1  0
 10 11  1  0
 12 11  1  0
 12  7  1  0
 13 17  2  0
 14 15  2  0
 14 13  1  0
 15 16  1  0
 16 17  1  0
 16 24  1  0
 18 15  1  0
 18 19  2  0
 20 19  1  0
 21 20  2  0
 22 21  1  0
 22 23  2  0
 23 18  1  0
 24 25  1  0
 26 24  1  0
 27 24  1  0
  2 28  1  0
  5 29  1  0
  8 30  1  0
  9 31  1  0
 10 32  1  0
 10 33  1  0
 11 34  1  0
 11 35  1  0
 12 36  1  0
 12 37  1  0
 14 38  1  0
 19 39  1  0
 20 40  1  0
 21 41  1  0
 22 42  1  0
M  END
>  <Score>  (1) 
-7.09416

$$$$
