
     RDKit          3D

 48 51  0  0  1  0  0  0  0  0999 V2000
   39.6970   83.6060   60.0760 C   0  0  0  0  0  0  0  0  0  0  0  0
   40.0740   82.2500   60.0920 C   0  0  0  0  0  0  0  0  0  0  0  0
   40.7700   81.7990   61.2200 C   0  0  0  0  0  0  0  0  0  0  0  0
   41.0040   82.7160   62.1880 N   0  0  0  0  0  0  0  0  0  0  0  0
   40.6410   83.9810   62.1620 C   0  0  0  0  0  0  0  0  0  0  0  0
   39.9810   84.4150   61.0810 N   0  0  0  0  0  0  0  0  0  0  0  0
   40.9530   84.8100   63.2830 N   0  0  0  0  0  0  0  0  0  0  0  0
   40.4190   84.4310   64.5630 C   0  0  0  0  0  0  0  0  0  0  0  0
   40.3270   83.2150   64.9410 N   0  0  0  0  0  0  0  0  0  0  0  0
   39.9730   85.4720   65.4490 N   0  0  0  0  0  0  0  0  0  0  0  0
   40.6310   82.3880   64.4450 H   0  0  0  0  0  0  0  0  0  0  0  0
   41.2250   80.4650   61.3650 N   0  0  0  0  0  0  0  0  0  0  0  0
   40.5610   79.3720   62.0360 C   0  0  0  0  0  0  0  0  0  0  0  0
   41.4860   78.2010   61.8490 C   0  0  0  0  0  0  0  0  0  0  0  0
   42.8320   78.8870   61.8540 C   0  0  0  0  0  0  0  0  0  0  0  0
   42.4710   79.9870   60.8370 C   0  0  2  0  0  0  0  0  0  0  0  0
   43.5760   80.9800   60.8740 C   0  0  1  0  0  0  0  0  0  0  0  0
   43.2800   82.0480   59.8690 C   0  0  0  0  0  0  0  0  0  0  0  0
   43.9040   83.3390   60.3080 C   0  0  0  0  0  0  0  0  0  0  0  0
   44.0930   83.1710   61.7840 C   0  0  0  0  0  0  0  0  0  0  0  0
   43.7120   81.7510   62.1330 C   0  0  2  0  0  0  0  0  0  0  0  0
   45.0390   81.2370   62.7240 C   0  0  0  0  0  0  0  0  0  0  0  0
   46.0080   82.0930   63.3640 C   0  0  0  0  0  0  0  0  0  0  0  0
   47.3220   80.9810   63.8510 S   0  0  0  0  0  0  0  0  0  0  0  0
   46.4090   79.4940   63.1340 C   0  0  0  0  0  0  0  0  0  0  0  0
   45.4680   80.0160   62.7390 N   0  0  0  0  0  0  0  0  0  0  0  0
   39.1528   84.0016   59.2057 H   0  0  0  0  0  0  0  0  0  0  0  0
   39.8330   81.5758   59.2569 H   0  0  0  0  0  0  0  0  0  0  0  0
   41.5400   85.6498   63.1779 H   0  0  0  0  0  0  0  0  0  0  0  0
   39.5858   85.2314   66.3726 H   0  0  0  0  0  0  0  0  0  0  0  0
   40.0408   86.4583   65.1601 H   0  0  0  0  0  0  0  0  0  0  0  0
   40.4268   79.5953   63.1047 H   0  0  0  0  0  0  0  0  0  0  0  0
   39.5557   79.1809   61.6323 H   0  0  0  0  0  0  0  0  0  0  0  0
   41.2987   77.6877   60.8943 H   0  0  0  0  0  0  0  0  0  0  0  0
   41.3775   77.4138   62.6096 H   0  0  0  0  0  0  0  0  0  0  0  0
   43.0956   79.2940   62.8414 H   0  0  0  0  0  0  0  0  0  0  0  0
   43.7083   78.2639   61.6221 H   0  0  0  0  0  0  0  0  0  0  0  0
   42.3610   79.6987   59.7812 H   0  0  0  0  0  0  0  0  0  0  0  0
   44.4816   80.3771   60.7114 H   0  0  0  0  0  0  0  0  0  0  0  0
   42.1911   82.1783   59.7832 H   0  0  0  0  0  0  0  0  0  0  0  0
   43.6940   81.7557   58.8927 H   0  0  0  0  0  0  0  0  0  0  0  0
   44.8702   83.4961   59.8061 H   0  0  0  0  0  0  0  0  0  0  0  0
   43.2845   84.2131   60.0588 H   0  0  0  0  0  0  0  0  0  0  0  0
   45.1443   83.3540   62.0511 H   0  0  0  0  0  0  0  0  0  0  0  0
   43.4680   83.8867   62.3381 H   0  0  0  0  0  0  0  0  0  0  0  0
   42.8054   81.6746   62.7512 H   0  0  0  0  0  0  0  0  0  0  0  0
   45.9517   83.1808   63.5175 H   0  0  0  0  0  0  0  0  0  0  0  0
   46.6965   78.4327   63.1037 H   0  0  0  0  0  0  0  0  0  0  0  0
  1  2  2  0
  1  6  1  0
  2  3  1  0
  3 12  1  0
  3  4  2  0
  5  4  1  0
  5  7  1  0
  6  5  2  0
  7  8  1  0
  8  9  2  0
  8 10  1  0
 11  9  1  0
 12 13  1  0
 14 15  1  0
 14 13  1  0
 16 17  1  0
 16 12  1  0
 16 15  1  0
 17 21  1  0
 18 19  1  0
 18 17  1  0
 19 20  1  0
 20 21  1  0
 21 22  1  0
 22 26  1  0
 22 23  2  0
 23 24  1  0
 25 24  1  0
 26 25  2  0
  1 27  1  0
  2 28  1  0
  7 29  1  0
 10 30  1  0
 10 31  1  0
 13 32  1  0
 13 33  1  0
 14 34  1  0
 14 35  1  0
 15 36  1  0
 15 37  1  0
 16 38  1  6
 17 39  1  6
 18 40  1  0
 18 41  1  0
 19 42  1  0
 19 43  1  0
 20 44  1  0
 20 45  1  0
 21 46  1  1
 23 47  1  0
 25 48  1  0
M  END
>  <Score>  (1) 
-7.04172

$$$$
