
     RDKit          3D

 44 47  0  0  1  0  0  0  0  0999 V2000
   40.4390   80.5250   61.2190 N   0  0  0  0  0  0  0  0  0  0  0  0
   41.1040   80.1360   62.3370 C   0  0  0  0  0  0  0  0  0  0  0  0
   41.3970   78.7970   62.2570 N   0  0  0  0  0  0  0  0  0  0  0  0
   40.9260   78.3340   61.0990 C   0  0  0  0  0  0  0  0  0  0  0  0
   40.9790   77.1480   60.3970 C   0  0  2  0  0  0  0  0  0  0  0  0
   40.1240   76.9620   59.3500 N   0  0  0  0  0  0  0  0  0  0  0  0
   39.5730   78.0060   58.7280 C   0  0  0  0  0  0  0  0  0  0  0  0
   39.6880   79.2120   59.3130 N   0  0  0  0  0  0  0  0  0  0  0  0
   40.3350   79.4110   60.4760 C   0  0  0  0  0  0  0  0  0  0  0  0
   38.9130   77.7960   57.4790 N   0  0  0  0  0  0  0  0  0  0  0  0
   38.0310   76.6650   57.3660 C   0  0  0  0  0  0  0  0  0  0  0  0
   36.6620   77.2500   57.0930 C   0  0  0  0  0  0  0  0  0  0  0  0
   36.7340   77.8930   55.7300 C   0  0  0  0  0  0  0  0  0  0  0  0
   37.8100   78.9290   55.5860 C   0  0  0  0  0  0  0  0  0  0  0  0
   39.0740   78.6360   56.3330 C   0  0  0  0  0  0  0  0  0  0  0  0
   40.0030   81.8510   60.9670 C   0  0  0  0  0  0  0  0  0  0  0  0
   40.2360   82.5580   59.7650 C   0  0  0  0  0  0  0  0  0  0  0  0
   39.7490   83.8560   59.6810 C   0  0  0  0  0  0  0  0  0  0  0  0
   39.0780   84.3780   60.7500 N   0  0  0  0  0  0  0  0  0  0  0  0
   38.8830   83.6590   61.8790 C   0  0  0  0  0  0  0  0  0  0  0  0
   39.3460   82.4020   61.9780 N   0  0  0  0  0  0  0  0  0  0  0  0
   41.2850   75.9890   61.1950 N   0  0  0  0  0  0  0  0  0  0  0  0
   41.8310   74.7770   60.7150 C   0  0  0  0  0  0  0  0  0  0  0  0
   41.5150   73.5320   61.3750 N   0  0  0  0  0  0  0  0  0  0  0  0
   42.6100   74.7130   59.7040 O   0  0  0  0  0  0  0  0  0  0  0  0
   41.3678   80.7934   63.1786 H   0  0  0  0  0  0  0  0  0  0  0  0
   41.8895   77.3114   59.8018 H   0  0  0  0  0  0  0  0  0  0  0  0
   39.2590   80.0243   58.8470 H   0  0  0  0  0  0  0  0  0  0  0  0
   38.3440   76.0140   56.5364 H   0  0  0  0  0  0  0  0  0  0  0  0
   38.0383   76.0474   58.2762 H   0  0  0  0  0  0  0  0  0  0  0  0
   35.9014   76.4554   57.0984 H   0  0  0  0  0  0  0  0  0  0  0  0
   36.3821   77.9830   57.8639 H   0  0  0  0  0  0  0  0  0  0  0  0
   36.9163   77.1029   54.9867 H   0  0  0  0  0  0  0  0  0  0  0  0
   35.7768   78.4135   55.5790 H   0  0  0  0  0  0  0  0  0  0  0  0
   38.0575   79.0178   54.5179 H   0  0  0  0  0  0  0  0  0  0  0  0
   37.4047   79.8556   56.0187 H   0  0  0  0  0  0  0  0  0  0  0  0
   39.7729   78.1418   55.6421 H   0  0  0  0  0  0  0  0  0  0  0  0
   39.4433   79.6022   56.7071 H   0  0  0  0  0  0  0  0  0  0  0  0
   40.7821   82.0977   58.9284 H   0  0  0  0  0  0  0  0  0  0  0  0
   39.9010   84.4530   58.7697 H   0  0  0  0  0  0  0  0  0  0  0  0
   38.3402   84.1079   62.7239 H   0  0  0  0  0  0  0  0  0  0  0  0
   41.0887   76.0485   62.2044 H   0  0  0  0  0  0  0  0  0  0  0  0
   41.9127   72.6485   61.0256 H   0  0  0  0  0  0  0  0  0  0  0  0
   40.8919   73.5276   62.1952 H   0  0  0  0  0  0  0  0  0  0  0  0
  1  2  1  0
  3  2  2  0
  4  3  1  0
  5  4  1  0
  5 22  1  0
  6  5  1  0
  7  8  1  0
  7  6  2  0
  8  9  1  0
  9  4  2  0
  9  1  1  0
 10  7  1  0
 11 10  1  0
 12 11  1  0
 13 12  1  0
 14 13  1  0
 14 15  1  0
 15 10  1  0
 16  1  1  0
 16 21  1  0
 17 16  2  0
 18 17  1  0
 18 19  2  0
 19 20  1  0
 20 21  2  0
 23 22  1  0
 23 24  1  0
 25 23  2  0
  2 26  1  0
  5 27  1  6
  8 28  1  0
 11 29  1  0
 11 30  1  0
 12 31  1  0
 12 32  1  0
 13 33  1  0
 13 34  1  0
 14 35  1  0
 14 36  1  0
 15 37  1  0
 15 38  1  0
 17 39  1  0
 18 40  1  0
 20 41  1  0
 22 42  1  0
 24 43  1  0
 24 44  1  0
M  END
>  <Score>  (1) 
-7.14059

$$$$
