
     RDKit          3D

 50 54  0  0  0  0  0  0  0  0999 V2000
   40.5900   80.0150   60.7050 C   0  0  0  0  0  0  0  0  0  0  0  0
   41.7670   80.2280   61.4290 C   0  0  0  0  0  0  0  0  0  0  0  0
   42.4500   79.0960   61.8660 C   0  0  0  0  0  0  0  0  0  0  0  0
   41.9460   77.8830   61.5700 N   0  0  0  0  0  0  0  0  0  0  0  0
   40.8110   77.7090   60.8710 C   0  0  0  0  0  0  0  0  0  0  0  0
   40.1430   78.7640   60.4450 N   0  0  0  0  0  0  0  0  0  0  0  0
   42.2310   81.5170   61.6970 N   0  0  0  0  0  0  0  0  0  0  0  0
   43.3030   82.0740   61.0740 C   0  0  0  0  0  0  0  0  0  0  0  0
   43.5030   83.3310   61.5480 N   0  0  0  0  0  0  0  0  0  0  0  0
   42.5760   83.5850   62.4620 C   0  0  0  0  0  0  0  0  0  0  0  0
   42.2800   84.6580   63.2420 C   0  0  0  0  0  0  0  0  0  0  0  0
   41.2610   84.5600   64.1190 N   0  0  0  0  0  0  0  0  0  0  0  0
   40.5040   83.4760   64.2090 C   0  0  0  0  0  0  0  0  0  0  0  0
   40.7690   82.4310   63.4260 N   0  0  0  0  0  0  0  0  0  0  0  0
   41.7860   82.4320   62.5400 C   0  0  0  0  0  0  0  0  0  0  0  0
   40.3930   76.3220   60.6310 C   0  0  0  0  0  0  0  0  0  0  0  0
   38.9430   76.1320   60.3330 C   0  0  0  0  0  0  0  0  0  0  0  0
   38.7580   75.7940   58.8920 C   0  0  0  0  0  0  0  0  0  0  0  0
   39.1280   74.5850   58.3750 C   0  0  0  0  0  0  0  0  0  0  0  0
   38.9260   74.3300   57.0040 C   0  0  0  0  0  0  0  0  0  0  0  0
   38.3620   75.3580   56.3120 C   0  0  0  0  0  0  0  0  0  0  0  0
   37.9900   76.5760   56.8390 C   0  0  0  0  0  0  0  0  0  0  0  0
   38.2090   76.7580   58.1550 N   0  0  0  0  0  0  0  0  0  0  0  0
   37.4000   77.6310   56.0860 N   0  0  0  0  0  0  0  0  0  0  0  0
   37.2550   79.0250   56.4740 C   0  0  0  0  0  0  0  0  0  0  0  0
   37.3280   79.7670   55.1570 C   0  0  0  0  0  0  0  0  0  0  0  0
   37.4160   78.7210   54.0670 C   0  0  0  0  0  0  0  0  0  0  0  0
   36.8240   77.4980   54.7590 C   0  0  0  0  0  0  0  0  0  0  0  0
   40.0167   80.8799   60.3400 H   0  0  0  0  0  0  0  0  0  0  0  0
   43.3826   79.1908   62.4415 H   0  0  0  0  0  0  0  0  0  0  0  0
   43.9150   81.5820   60.3037 H   0  0  0  0  0  0  0  0  0  0  0  0
   43.1841   84.8960   63.8216 H   0  0  0  0  0  0  0  0  0  0  0  0
   41.9438   85.4231   62.5268 H   0  0  0  0  0  0  0  0  0  0  0  0
   39.6669   83.4394   64.9216 H   0  0  0  0  0  0  0  0  0  0  0  0
   40.1759   81.5922   63.5000 H   0  0  0  0  0  0  0  0  0  0  0  0
   40.9683   75.9375   59.7759 H   0  0  0  0  0  0  0  0  0  0  0  0
   40.5823   75.7819   61.5704 H   0  0  0  0  0  0  0  0  0  0  0  0
   38.5480   75.3135   60.9527 H   0  0  0  0  0  0  0  0  0  0  0  0
   38.4033   77.0639   60.5573 H   0  0  0  0  0  0  0  0  0  0  0  0
   39.5790   73.8184   59.0223 H   0  0  0  0  0  0  0  0  0  0  0  0
   39.2020   73.3763   56.5305 H   0  0  0  0  0  0  0  0  0  0  0  0
   38.1878   75.2027   55.2370 H   0  0  0  0  0  0  0  0  0  0  0  0
   36.2879   79.1969   56.9692 H   0  0  0  0  0  0  0  0  0  0  0  0
   38.0206   79.3517   57.1931 H   0  0  0  0  0  0  0  0  0  0  0  0
   36.4266   80.3821   55.0190 H   0  0  0  0  0  0  0  0  0  0  0  0
   38.1999   80.4372   55.1307 H   0  0  0  0  0  0  0  0  0  0  0  0
   38.4588   78.5444   53.7647 H   0  0  0  0  0  0  0  0  0  0  0  0
   36.8979   79.0013   53.1380 H   0  0  0  0  0  0  0  0  0  0  0  0
   35.7253   77.5417   54.7883 H   0  0  0  0  0  0  0  0  0  0  0  0
   37.0433   76.5421   54.2609 H   0  0  0  0  0  0  0  0  0  0  0  0
  1  2  2  0
  2  7  1  0
  2  3  1  0
  4  3  2  0
  5  4  1  0
  6  1  1  0
  6  5  2  0
  7 15  1  0
  8  9  2  0
  8  7  1  0
  9 10  1  0
 10 15  2  0
 10 11  1  0
 11 12  1  0
 12 13  2  0
 14 13  1  0
 15 14  1  0
 16  5  1  0
 17 16  1  0
 18 17  1  0
 19 18  2  0
 20 19  1  0
 21 22  1  0
 21 20  2  0
 22 23  2  0
 23 18  1  0
 24 25  1  0
 24 22  1  0
 26 25  1  0
 27 28  1  0
 27 26  1  0
 28 24  1  0
  1 29  1  0
  3 30  1  0
  8 31  1  0
 11 32  1  0
 11 33  1  0
 13 34  1  0
 14 35  1  0
 16 36  1  0
 16 37  1  0
 17 38  1  0
 17 39  1  0
 19 40  1  0
 20 41  1  0
 21 42  1  0
 25 43  1  0
 25 44  1  0
 26 45  1  0
 26 46  1  0
 27 47  1  0
 27 48  1  0
 28 49  1  0
 28 50  1  0
M  END
>  <Score>  (1) 
-7.27252

$$$$
