
     RDKit          3D

 42 47  0  0  0  0  0  0  0  0999 V2000
   40.8220   81.6240   61.1250 C   0  0  0  0  0  0  0  0  0  0  0  0
   40.5960   82.1250   59.8590 C   0  0  0  0  0  0  0  0  0  0  0  0
   40.2270   81.3490   58.7860 C   0  0  0  0  0  0  0  0  0  0  0  0
   40.0700   79.9980   58.9540 C   0  0  0  0  0  0  0  0  0  0  0  0
   40.2760   79.4220   60.1790 C   0  0  0  0  0  0  0  0  0  0  0  0
   40.1240   78.0770   60.3700 C   0  0  0  0  0  0  0  0  0  0  0  0
   40.3270   77.4630   61.6050 C   0  0  0  0  0  0  0  0  0  0  0  0
   40.6950   78.3070   62.6340 C   0  0  0  0  0  0  0  0  0  0  0  0
   40.8380   79.6570   62.4090 C   0  0  0  0  0  0  0  0  0  0  0  0
   40.6420   80.2590   61.2120 C   0  0  0  0  0  0  0  0  0  0  0  0
   39.7280   77.1670   59.2660 C   0  0  0  0  0  0  0  0  0  0  0  0
   39.8240   75.8760   58.9850 N   0  0  0  0  0  0  0  0  0  0  0  0
   39.3050   75.5580   57.8520 O   0  0  0  0  0  0  0  0  0  0  0  0
   38.8280   76.6150   57.3010 C   0  0  0  0  0  0  0  0  0  0  0  0
   39.0810   77.5970   58.1530 N   0  0  0  0  0  0  0  0  0  0  0  0
   38.1480   76.9690   56.0970 N   0  0  0  0  0  0  0  0  0  0  0  0
   37.5750   76.0640   55.2570 C   0  0  0  0  0  0  0  0  0  0  0  0
   37.0000   76.6710   54.1950 N   0  0  0  0  0  0  0  0  0  0  0  0
   37.2040   77.9750   54.3510 C   0  0  0  0  0  0  0  0  0  0  0  0
   36.9060   79.1410   53.6800 C   0  0  0  0  0  0  0  0  0  0  0  0
   37.2640   80.3750   54.1100 N   0  0  0  0  0  0  0  0  0  0  0  0
   37.9520   80.5000   55.2570 C   0  0  0  0  0  0  0  0  0  0  0  0
   38.2580   79.3820   55.9380 N   0  0  0  0  0  0  0  0  0  0  0  0
   37.9120   78.1640   55.5240 C   0  0  0  0  0  0  0  0  0  0  0  0
   42.6200   83.9740   63.5300 C   0  0  0  0  0  0  0  0  0  0  0  0
   42.4440   83.0880   62.4730 C   0  0  0  0  0  0  0  0  0  0  0  0
   41.1980   82.5370   62.1590 C   0  0  0  0  0  0  0  0  0  0  0  0
   40.1950   82.9610   62.9930 N   0  0  0  0  0  0  0  0  0  0  0  0
   40.3660   83.8090   64.0050 C   0  0  0  0  0  0  0  0  0  0  0  0
   41.5770   84.3080   64.2640 N   0  0  0  0  0  0  0  0  0  0  0  0
   40.7181   83.2065   59.6996 H   0  0  0  0  0  0  0  0  0  0  0  0
   40.0592   81.8086   57.8008 H   0  0  0  0  0  0  0  0  0  0  0  0
   39.7764   79.3718   58.0986 H   0  0  0  0  0  0  0  0  0  0  0  0
   40.2025   76.3797   61.7499 H   0  0  0  0  0  0  0  0  0  0  0  0
   40.8748   77.8979   63.6392 H   0  0  0  0  0  0  0  0  0  0  0  0
   41.1315   80.2902   63.2593 H   0  0  0  0  0  0  0  0  0  0  0  0
   37.5794   74.9764   55.4216 H   0  0  0  0  0  0  0  0  0  0  0  0
   36.3432   79.0654   52.7379 H   0  0  0  0  0  0  0  0  0  0  0  0
   38.2565   81.4895   55.6286 H   0  0  0  0  0  0  0  0  0  0  0  0
   43.6142   84.3899   63.7504 H   0  0  0  0  0  0  0  0  0  0  0  0
   43.3159   82.8108   61.8623 H   0  0  0  0  0  0  0  0  0  0  0  0
   39.5078   84.0991   64.6290 H   0  0  0  0  0  0  0  0  0  0  0  0
  1 10  1  0
  1 27  1  0
  2  1  2  0
  3  4  2  0
  3  2  1  0
  4  5  1  0
  5  6  1  0
  5 10  2  0
  6  7  2  0
  7  8  1  0
  9  8  2  0
 10  9  1  0
 11  6  1  0
 12 11  2  0
 13 12  1  0
 14 13  1  0
 14 15  2  0
 15 11  1  0
 16 14  1  0
 17 16  1  0
 18 19  1  0
 18 17  2  0
 19 24  2  0
 20 21  2  0
 20 19  1  0
 21 22  1  0
 22 23  2  0
 24 23  1  0
 24 16  1  0
 25 30  2  0
 26 25  1  0
 27 26  2  0
 27 28  1  0
 28 29  2  0
 29 30  1  0
  2 31  1  0
  3 32  1  0
  4 33  1  0
  7 34  1  0
  8 35  1  0
  9 36  1  0
 17 37  1  0
 20 38  1  0
 22 39  1  0
 25 40  1  0
 26 41  1  0
 29 42  1  0
M  END
>  <Score>  (1) 
-7.94213

$$$$
