
     RDKit          3D

 43 46  0  0  0  0  0  0  0  0999 V2000
   40.9680   79.5110   62.4060 C   0  0  0  0  0  0  0  0  0  0  0  0
   41.6630   78.2820   61.9280 C   0  0  0  0  0  0  0  0  0  0  0  0
   42.8490   77.8750   62.4850 C   0  0  0  0  0  0  0  0  0  0  0  0
   43.4700   76.7310   62.0200 C   0  0  0  0  0  0  0  0  0  0  0  0
   42.8770   76.0400   61.0160 N   0  0  0  0  0  0  0  0  0  0  0  0
   41.7270   76.4750   60.5080 C   0  0  0  0  0  0  0  0  0  0  0  0
   41.1170   77.5790   60.9490 N   0  0  0  0  0  0  0  0  0  0  0  0
   41.1470   75.6950   59.4410 N   0  0  0  0  0  0  0  0  0  0  0  0
   41.8730   75.1240   58.4580 C   0  0  0  0  0  0  0  0  0  0  0  0
   41.2380   74.3910   57.4710 C   0  0  0  0  0  0  0  0  0  0  0  0
   39.8640   74.2940   57.5660 C   0  0  0  0  0  0  0  0  0  0  0  0
   39.1810   73.5480   56.5670 N   0  0  0  0  0  0  0  0  0  0  0  0
   39.1490   74.8690   58.5520 N   0  0  0  0  0  0  0  0  0  0  0  0
   39.8050   75.5860   59.5120 C   0  0  0  0  0  0  0  0  0  0  0  0
   39.1210   76.1170   60.4260 O   0  0  0  0  0  0  0  0  0  0  0  0
   40.1310   80.1210   61.2860 C   0  0  0  0  0  0  0  0  0  0  0  0
   40.2190   81.5900   61.4600 C   0  0  0  0  0  0  0  0  0  0  0  0
   40.1880   82.4740   60.3480 C   0  0  0  0  0  0  0  0  0  0  0  0
   40.2770   83.8220   60.6350 C   0  0  0  0  0  0  0  0  0  0  0  0
   40.3850   84.2130   61.9250 N   0  0  0  0  0  0  0  0  0  0  0  0
   40.4100   83.3500   62.9540 C   0  0  0  0  0  0  0  0  0  0  0  0
   40.3270   82.0300   62.7130 N   0  0  0  0  0  0  0  0  0  0  0  0
   40.2490   84.7490   59.5290 C   0  0  0  0  0  0  0  0  0  0  0  0
   41.2940   84.8660   58.6410 C   0  0  0  0  0  0  0  0  0  0  0  0
   41.1470   85.7900   57.6200 C   0  0  0  0  0  0  0  0  0  0  0  0
   40.0090   86.5530   57.5020 N   0  0  0  0  0  0  0  0  0  0  0  0
   39.0150   86.4130   58.3820 C   0  0  0  0  0  0  0  0  0  0  0  0
   39.1310   85.5160   59.3910 N   0  0  0  0  0  0  0  0  0  0  0  0
   40.3106   79.2506   63.2486 H   0  0  0  0  0  0  0  0  0  0  0  0
   41.7224   80.2446   62.7264 H   0  0  0  0  0  0  0  0  0  0  0  0
   43.3044   78.4575   63.2994 H   0  0  0  0  0  0  0  0  0  0  0  0
   44.4216   76.3900   62.4539 H   0  0  0  0  0  0  0  0  0  0  0  0
   42.9667   75.2407   58.4410 H   0  0  0  0  0  0  0  0  0  0  0  0
   41.7978   73.9114   56.6546 H   0  0  0  0  0  0  0  0  0  0  0  0
   38.1560   73.4539   56.6052 H   0  0  0  0  0  0  0  0  0  0  0  0
   39.7111   73.1017   55.8050 H   0  0  0  0  0  0  0  0  0  0  0  0
   39.0854   79.7890   61.3667 H   0  0  0  0  0  0  0  0  0  0  0  0
   40.4975   79.8111   60.2962 H   0  0  0  0  0  0  0  0  0  0  0  0
   40.0981   82.1051   59.3156 H   0  0  0  0  0  0  0  0  0  0  0  0
   40.4977   83.7205   63.9860 H   0  0  0  0  0  0  0  0  0  0  0  0
   42.2032   84.2544   58.7377 H   0  0  0  0  0  0  0  0  0  0  0  0
   41.9580   85.9163   56.8876 H   0  0  0  0  0  0  0  0  0  0  0  0
   38.1049   87.0237   58.2884 H   0  0  0  0  0  0  0  0  0  0  0  0
  2  1  1  0
  2  3  2  0
  4  3  1  0
  5  4  2  0
  6  7  2  0
  6  5  1  0
  7  2  1  0
  8 14  1  0
  8  6  1  0
  9  8  1  0
 10 11  1  0
 10  9  2  0
 11 13  2  0
 12 11  1  0
 13 14  1  0
 14 15  2  0
 16 17  1  0
 16  1  1  0
 17 22  2  0
 18 19  2  0
 18 17  1  0
 19 20  1  0
 20 21  2  0
 22 21  1  0
 23 19  1  0
 24 23  2  0
 25 24  1  0
 26 25  2  0
 26 27  1  0
 27 28  2  0
 28 23  1  0
  1 29  1  0
  1 30  1  0
  3 31  1  0
  4 32  1  0
  9 33  1  0
 10 34  1  0
 12 35  1  0
 12 36  1  0
 16 37  1  0
 16 38  1  0
 18 39  1  0
 21 40  1  0
 24 41  1  0
 25 42  1  0
 27 43  1  0
M  END
>  <Score>  (1) 
-7.10938

$$$$
