
     RDKit          3D

 43 48  0  0  1  0  0  0  0  0999 V2000
   42.5920   86.6090   58.3810 C   0  0  0  0  0  0  0  0  0  0  0  0
   43.0070   85.9830   59.5800 C   0  0  0  0  0  0  0  0  0  0  0  0
   44.0910   86.5140   60.2240 C   0  0  0  0  0  0  0  0  0  0  0  0
   44.7020   87.6140   59.6670 N   0  0  0  0  0  0  0  0  0  0  0  0
   44.2850   88.1750   58.5390 C   0  0  0  0  0  0  0  0  0  0  0  0
   43.2150   87.6730   57.8800 N   0  0  0  0  0  0  0  0  0  0  0  0
   44.9590   89.3100   58.0150 N   0  0  0  0  0  0  0  0  0  0  0  0
   45.9670   89.1630   57.1230 C   0  0  0  0  0  0  0  0  0  0  0  0
   46.4210   90.4280   56.7960 C   0  0  0  0  0  0  0  0  0  0  0  0
   45.6750   91.3200   57.4980 N   0  0  0  0  0  0  0  0  0  0  0  0
   44.7850   90.6150   58.2390 C   0  0  0  0  0  0  0  0  0  0  0  0
   43.8090   91.1580   59.1230 N   0  0  0  0  0  0  0  0  0  0  0  0
   43.6460   91.0420   60.4350 C   0  0  0  0  0  0  0  0  0  0  0  0
   42.5760   91.7300   60.8760 N   0  0  0  0  0  0  0  0  0  0  0  0
   42.0300   92.3160   59.7880 C   0  0  0  0  0  0  0  0  0  0  0  0
   40.9140   93.1250   59.7460 C   0  0  0  0  0  0  0  0  0  0  0  0
   40.5860   93.5800   58.5070 N   0  0  0  0  0  0  0  0  0  0  0  0
   41.3310   93.2390   57.4250 C   0  0  0  0  0  0  0  0  0  0  0  0
   42.4220   92.4420   57.5070 N   0  0  0  0  0  0  0  0  0  0  0  0
   42.8000   91.9580   58.6960 C   0  0  0  0  0  0  0  0  0  0  0  0
   42.2320   84.8470   60.0140 N   0  0  0  0  0  0  0  0  0  0  0  0
   41.5590   83.9940   59.2210 C   0  0  0  0  0  0  0  0  0  0  0  0
   40.9210   83.0840   60.0010 N   0  0  0  0  0  0  0  0  0  0  0  0
   41.1770   83.3490   61.2740 C   0  0  0  0  0  0  0  0  0  0  0  0
   40.7940   82.8520   62.4880 C   0  0  2  0  0  0  0  0  0  0  0  0
   41.3660   83.2750   63.6350 N   0  0  0  0  0  0  0  0  0  0  0  0
   42.1900   84.3550   63.6520 C   0  0  0  0  0  0  0  0  0  0  0  0
   42.4980   84.9370   62.4840 N   0  0  0  0  0  0  0  0  0  0  0  0
   42.0060   84.4550   61.3020 C   0  0  0  0  0  0  0  0  0  0  0  0
   40.4370   81.4510   62.5420 N   0  0  0  0  0  0  0  0  0  0  0  0
   41.7230   86.2016   57.8435 H   0  0  0  0  0  0  0  0  0  0  0  0
   44.4637   86.0740   61.1607 H   0  0  0  0  0  0  0  0  0  0  0  0
   46.3542   88.2113   56.7301 H   0  0  0  0  0  0  0  0  0  0  0  0
   47.2356   90.6674   56.0967 H   0  0  0  0  0  0  0  0  0  0  0  0
   44.3080   90.4524   61.0863 H   0  0  0  0  0  0  0  0  0  0  0  0
   40.3342   93.3823   60.6447 H   0  0  0  0  0  0  0  0  0  0  0  0
   41.0355   93.6270   56.4390 H   0  0  0  0  0  0  0  0  0  0  0  0
   41.5303   84.0281   58.1219 H   0  0  0  0  0  0  0  0  0  0  0  0
   39.8662   83.4429   62.4905 H   0  0  0  0  0  0  0  0  0  0  0  0
   42.5939   84.7419   64.5992 H   0  0  0  0  0  0  0  0  0  0  0  0
   43.1157   85.7612   62.4766 H   0  0  0  0  0  0  0  0  0  0  0  0
   40.3612   81.1537   63.5252 H   0  0  0  0  0  0  0  0  0  0  0  0
   39.5329   81.3086   62.0696 H   0  0  0  0  0  0  0  0  0  0  0  0
  1  2  2  0
  2 21  1  0
  2  3  1  0
  4  3  2  0
  5  4  1  0
  6  1  1  0
  6  5  2  0
  7 11  1  0
  7  5  1  0
  8  7  1  0
  9  8  2  0
  9 10  1  0
 10 11  2  0
 11 12  1  0
 12 13  1  0
 13 14  2  0
 15 14  1  0
 16 15  2  0
 17 16  1  0
 18 19  1  0
 18 17  2  0
 19 20  2  0
 20 12  1  0
 20 15  1  0
 21 29  1  0
 22 23  2  0
 22 21  1  0
 23 24  1  0
 24 29  2  0
 24 25  1  0
 25 30  1  0
 25 26  1  0
 26 27  2  0
 28 27  1  0
 29 28  1  0
  1 31  1  0
  3 32  1  0
  8 33  1  0
  9 34  1  0
 13 35  1  0
 16 36  1  0
 18 37  1  0
 22 38  1  0
 25 39  1  1
 27 40  1  0
 28 41  1  0
 30 42  1  0
 30 43  1  0
M  END
>  <Score>  (1) 
-7.67419

$$$$
