
     RDKit          3D

 46 51  0  0  1  0  0  0  0  0999 V2000
   40.0810   81.9630   60.8290 C   0  0  0  0  0  0  0  0  0  0  0  0
   40.1970   82.7940   59.7140 C   0  0  0  0  0  0  0  0  0  0  0  0
   39.5670   84.0600   59.8480 C   0  0  0  0  0  0  0  0  0  0  0  0
   38.9190   84.3930   60.9820 N   0  0  0  0  0  0  0  0  0  0  0  0
   38.8420   83.5350   62.0440 C   0  0  0  0  0  0  0  0  0  0  0  0
   39.4290   82.3240   61.9470 N   0  0  0  0  0  0  0  0  0  0  0  0
   40.6070   80.6470   60.8840 N   0  0  0  0  0  0  0  0  0  0  0  0
   41.4240   80.2100   61.8870 C   0  0  0  0  0  0  0  0  0  0  0  0
   41.7750   78.9000   61.6410 N   0  0  0  0  0  0  0  0  0  0  0  0
   41.1820   78.5170   60.4930 C   0  0  0  0  0  0  0  0  0  0  0  0
   41.0630   77.3430   59.7810 C   0  0  1  0  0  0  0  0  0  0  0  0
   40.5380   77.3680   58.5130 N   0  0  0  0  0  0  0  0  0  0  0  0
   39.8460   78.4060   58.0780 C   0  0  0  0  0  0  0  0  0  0  0  0
   39.8340   79.4920   58.8680 N   0  0  0  0  0  0  0  0  0  0  0  0
   40.4690   79.5830   60.0300 C   0  0  0  0  0  0  0  0  0  0  0  0
   41.9590   76.2990   60.0650 N   0  0  0  0  0  0  0  0  0  0  0  0
   41.4440   75.0170   60.4010 C   0  0  0  0  0  0  0  0  0  0  0  0
   40.2710   74.5900   59.9120 N   0  0  0  0  0  0  0  0  0  0  0  0
   39.7330   73.4010   60.1890 C   0  0  0  0  0  0  0  0  0  0  0  0
   40.3880   72.5430   61.0130 N   0  0  0  0  0  0  0  0  0  0  0  0
   41.5760   72.8840   61.5550 C   0  0  0  0  0  0  0  0  0  0  0  0
   42.2560   72.0360   62.3890 C   0  0  0  0  0  0  0  0  0  0  0  0
   43.4680   72.3570   62.9560 C   0  0  0  0  0  0  0  0  0  0  0  0
   43.9690   73.6060   62.6270 C   0  0  0  0  0  0  0  0  0  0  0  0
   43.2840   74.4570   61.7880 C   0  0  0  0  0  0  0  0  0  0  0  0
   42.0720   74.1160   61.2310 C   0  0  0  0  0  0  0  0  0  0  0  0
   40.9070   82.5420   58.4930 C   0  0  0  0  0  0  0  0  0  0  0  0
   42.2020   82.7940   58.0610 C   0  0  0  0  0  0  0  0  0  0  0  0
   42.4060   82.3590   56.7770 C   0  0  0  0  0  0  0  0  0  0  0  0
   41.1790   81.8360   56.4590 C   0  0  0  0  0  0  0  0  0  0  0  0
   40.3830   81.9680   57.4600 O   0  0  0  0  0  0  0  0  0  0  0  0
   39.6085   84.7779   59.0156 H   0  0  0  0  0  0  0  0  0  0  0  0
   38.3106   83.8271   62.9617 H   0  0  0  0  0  0  0  0  0  0  0  0
   41.7495   80.8070   62.7517 H   0  0  0  0  0  0  0  0  0  0  0  0
   40.1642   77.0092   60.3202 H   0  0  0  0  0  0  0  0  0  0  0  0
   39.3078   78.3820   57.1189 H   0  0  0  0  0  0  0  0  0  0  0  0
   39.2951   80.3103   58.5504 H   0  0  0  0  0  0  0  0  0  0  0  0
   42.9757   76.4601   60.0303 H   0  0  0  0  0  0  0  0  0  0  0  0
   38.7641   73.1172   59.7523 H   0  0  0  0  0  0  0  0  0  0  0  0
   41.8134   71.0548   62.6154 H   0  0  0  0  0  0  0  0  0  0  0  0
   44.0033   71.6679   63.6258 H   0  0  0  0  0  0  0  0  0  0  0  0
   44.9351   73.9252   63.0450 H   0  0  0  0  0  0  0  0  0  0  0  0
   43.7191   75.4402   61.5557 H   0  0  0  0  0  0  0  0  0  0  0  0
   42.9720   83.2839   58.6752 H   0  0  0  0  0  0  0  0  0  0  0  0
   43.3165   82.4149   56.1623 H   0  0  0  0  0  0  0  0  0  0  0  0
   40.9161   81.3745   55.4957 H   0  0  0  0  0  0  0  0  0  0  0  0
  1  7  1  0
  1  6  2  0
  2  3  2  0
  2  1  1  0
  3  4  1  0
  4  5  2  0
  6  5  1  0
  7  8  1  0
  9  8  2  0
 10  9  1  0
 11 16  1  0
 11 10  1  0
 12 11  1  0
 13 12  2  0
 13 14  1  0
 14 15  1  0
 15 10  2  0
 15  7  1  0
 16 17  1  0
 17 26  2  0
 18 19  2  0
 18 17  1  0
 19 20  1  0
 20 21  2  0
 21 22  1  0
 22 23  2  0
 24 23  1  0
 25 24  2  0
 26 21  1  0
 26 25  1  0
 27  2  1  0
 28 27  2  0
 29 28  1  0
 30 29  2  0
 30 31  1  0
 31 27  1  0
  3 32  1  0
  5 33  1  0
  8 34  1  0
 11 35  1  1
 13 36  1  0
 14 37  1  0
 16 38  1  0
 19 39  1  0
 22 40  1  0
 23 41  1  0
 24 42  1  0
 25 43  1  0
 28 44  1  0
 29 45  1  0
 30 46  1  0
M  END
>  <Score>  (1) 
-7.83933

$$$$
