
     RDKit          3D

 50 55  0  0  0  0  0  0  0  0999 V2000
   40.8940   81.4800   59.2340 C   0  0  0  0  0  0  0  0  0  0  0  0
   40.4890   80.8780   58.0460 C   0  0  0  0  0  0  0  0  0  0  0  0
   40.1630   79.6080   58.3680 N   0  0  0  0  0  0  0  0  0  0  0  0
   40.3450   79.3920   59.6950 C   0  0  0  0  0  0  0  0  0  0  0  0
   40.1370   78.2410   60.4330 C   0  0  0  0  0  0  0  0  0  0  0  0
   40.3970   78.2450   61.7950 C   0  0  0  0  0  0  0  0  0  0  0  0
   40.8610   79.4230   62.3580 C   0  0  0  0  0  0  0  0  0  0  0  0
   41.0560   80.5490   61.5940 C   0  0  0  0  0  0  0  0  0  0  0  0
   40.8040   80.5650   60.2390 C   0  0  0  0  0  0  0  0  0  0  0  0
   44.4600   84.7290   59.2810 C   0  0  0  0  0  0  0  0  0  0  0  0
   44.7730   86.0300   58.8950 C   0  0  0  0  0  0  0  0  0  0  0  0
   46.0950   86.4410   58.7610 C   0  0  0  0  0  0  0  0  0  0  0  0
   47.0510   85.4840   59.0340 N   0  0  0  0  0  0  0  0  0  0  0  0
   46.7220   84.2370   59.4050 C   0  0  0  0  0  0  0  0  0  0  0  0
   45.4370   83.8460   59.5330 N   0  0  0  0  0  0  0  0  0  0  0  0
   43.1080   84.3370   59.4100 N   0  0  0  0  0  0  0  0  0  0  0  0
   42.2370   85.3150   59.6960 C   0  0  0  0  0  0  0  0  0  0  0  0
   40.8780   85.1040   59.8500 C   0  0  0  0  0  0  0  0  0  0  0  0
   40.4040   83.7910   59.6940 C   0  0  0  0  0  0  0  0  0  0  0  0
   39.1880   83.5630   59.8250 O   0  0  0  0  0  0  0  0  0  0  0  0
   41.3300   82.8160   59.4000 N   0  0  0  0  0  0  0  0  0  0  0  0
   42.6200   83.1040   59.2700 C   0  0  0  0  0  0  0  0  0  0  0  0
   43.4660   82.2010   58.9990 O   0  0  0  0  0  0  0  0  0  0  0  0
   41.5400   81.7240   62.3000 C   0  0  0  0  0  0  0  0  0  0  0  0
   40.8390   82.7960   62.8660 C   0  0  0  0  0  0  0  0  0  0  0  0
   41.5270   83.7930   63.5070 C   0  0  0  0  0  0  0  0  0  0  0  0
   42.8850   83.8010   63.6280 C   0  0  0  0  0  0  0  0  0  0  0  0
   43.5920   82.7670   63.0860 C   0  0  0  0  0  0  0  0  0  0  0  0
   44.9640   82.8140   63.2290 C   0  0  0  0  0  0  0  0  0  0  0  0
   45.7300   81.7960   62.7010 C   0  0  0  0  0  0  0  0  0  0  0  0
   45.1190   80.7570   62.0410 C   0  0  0  0  0  0  0  0  0  0  0  0
   43.7610   80.7650   61.9300 C   0  0  0  0  0  0  0  0  0  0  0  0
   42.9330   81.7430   62.4300 C   0  0  0  0  0  0  0  0  0  0  0  0
   40.4438   81.3418   57.0496 H   0  0  0  0  0  0  0  0  0  0  0  0
   39.8235   78.9017   57.6995 H   0  0  0  0  0  0  0  0  0  0  0  0
   39.7677   77.3282   59.9426 H   0  0  0  0  0  0  0  0  0  0  0  0
   40.2404   77.3445   62.4071 H   0  0  0  0  0  0  0  0  0  0  0  0
   41.0773   79.4578   63.4360 H   0  0  0  0  0  0  0  0  0  0  0  0
   43.9613   86.7443   58.6928 H   0  0  0  0  0  0  0  0  0  0  0  0
   46.3615   87.4639   58.4567 H   0  0  0  0  0  0  0  0  0  0  0  0
   47.5235   83.5123   59.6108 H   0  0  0  0  0  0  0  0  0  0  0  0
   42.6225   86.3384   59.8144 H   0  0  0  0  0  0  0  0  0  0  0  0
   40.1948   85.9332   60.0857 H   0  0  0  0  0  0  0  0  0  0  0  0
   39.7420   82.8376   62.7965 H   0  0  0  0  0  0  0  0  0  0  0  0
   40.9568   84.6258   63.9444 H   0  0  0  0  0  0  0  0  0  0  0  0
   43.3988   84.6216   64.1502 H   0  0  0  0  0  0  0  0  0  0  0  0
   45.4405   83.6529   63.7575 H   0  0  0  0  0  0  0  0  0  0  0  0
   46.8246   81.8156   62.8076 H   0  0  0  0  0  0  0  0  0  0  0  0
   45.7132   79.9369   61.6117 H   0  0  0  0  0  0  0  0  0  0  0  0
   43.2903   79.9242   61.3994 H   0  0  0  0  0  0  0  0  0  0  0  0
  1 21  1  0
  1  9  1  0
  2  3  1  0
  2  1  2  0
  3  4  1  0
  4  9  2  0
  4  5  1  0
  5  6  2  0
  6  7  1  0
  8 24  1  0
  8  7  2  0
  9  8  1  0
 10 16  1  0
 10 15  1  0
 11 10  2  0
 12 11  1  0
 12 13  2  0
 13 14  1  0
 14 15  2  0
 16 17  1  0
 17 18  2  0
 19 20  2  0
 19 18  1  0
 21 19  1  0
 22 21  1  0
 22 16  1  0
 23 22  2  0
 24 33  1  0
 24 25  2  0
 25 26  1  0
 26 27  2  0
 28 29  2  0
 28 27  1  0
 30 29  1  0
 31 30  2  0
 32 31  1  0
 32 33  2  0
 33 28  1  0
  2 34  1  0
  3 35  1  0
  5 36  1  0
  6 37  1  0
  7 38  1  0
 11 39  1  0
 12 40  1  0
 14 41  1  0
 17 42  1  0
 18 43  1  0
 25 44  1  0
 26 45  1  0
 27 46  1  0
 29 47  1  0
 30 48  1  0
 31 49  1  0
 32 50  1  0
M  END
>  <Score>  (1) 
-7.21375

$$$$
