
     RDKit          3D

 41 44  0  0  0  0  0  0  0  0999 V2000
   41.6350   80.6860   61.8740 C   0  0  0  0  0  0  0  0  0  0  0  0
   40.8210   79.5590   61.9590 C   0  0  0  0  0  0  0  0  0  0  0  0
   41.6430   78.5150   62.0990 N   0  0  0  0  0  0  0  0  0  0  0  0
   42.9340   78.9130   62.1090 C   0  0  0  0  0  0  0  0  0  0  0  0
   44.0680   78.1370   62.2400 C   0  0  0  0  0  0  0  0  0  0  0  0
   45.3070   78.7680   62.2280 C   0  0  0  0  0  0  0  0  0  0  0  0
   45.3280   80.1420   62.0850 C   0  0  0  0  0  0  0  0  0  0  0  0
   44.1940   80.9070   61.9550 C   0  0  0  0  0  0  0  0  0  0  0  0
   42.9600   80.2970   61.9660 C   0  0  0  0  0  0  0  0  0  0  0  0
   41.0020   84.5680   59.0810 C   0  0  0  0  0  0  0  0  0  0  0  0
   40.1230   85.6100   58.8220 C   0  0  0  0  0  0  0  0  0  0  0  0
   40.1720   86.3070   57.6260 C   0  0  0  0  0  0  0  0  0  0  0  0
   41.1170   85.9180   56.7290 N   0  0  0  0  0  0  0  0  0  0  0  0
   41.9640   84.9010   56.9980 C   0  0  0  0  0  0  0  0  0  0  0  0
   41.9160   84.2230   58.1630 N   0  0  0  0  0  0  0  0  0  0  0  0
   40.9470   83.8670   60.3010 N   0  0  0  0  0  0  0  0  0  0  0  0
   40.4480   84.5530   61.3400 C   0  0  0  0  0  0  0  0  0  0  0  0
   40.3090   84.0200   62.6160 C   0  0  0  0  0  0  0  0  0  0  0  0
   40.7160   82.6980   62.8090 C   0  0  0  0  0  0  0  0  0  0  0  0
   40.6120   82.1750   63.9280 O   0  0  0  0  0  0  0  0  0  0  0  0
   41.2170   82.0330   61.7290 N   0  0  0  0  0  0  0  0  0  0  0  0
   41.3340   82.5950   60.5040 C   0  0  0  0  0  0  0  0  0  0  0  0
   41.7940   81.9850   59.5210 O   0  0  0  0  0  0  0  0  0  0  0  0
   44.2930   82.2950   61.7620 N   0  0  0  0  0  0  0  0  0  0  0  0
   45.2800   83.0870   62.4400 C   0  0  0  0  0  0  0  0  0  0  0  0
   45.4460   82.9340   63.7070 N   0  0  0  0  0  0  0  0  0  0  0  0
   46.1250   84.0910   61.8210 N   0  0  0  0  0  0  0  0  0  0  0  0
   44.9470   82.2920   64.3330 H   0  0  0  0  0  0  0  0  0  0  0  0
   39.7220   79.5335   61.9189 H   0  0  0  0  0  0  0  0  0  0  0  0
   41.3335   77.5366   62.1875 H   0  0  0  0  0  0  0  0  0  0  0  0
   43.9933   77.0452   62.3513 H   0  0  0  0  0  0  0  0  0  0  0  0
   46.2391   78.1926   62.3290 H   0  0  0  0  0  0  0  0  0  0  0  0
   46.3036   80.6501   62.0747 H   0  0  0  0  0  0  0  0  0  0  0  0
   39.3747   85.8871   59.5792 H   0  0  0  0  0  0  0  0  0  0  0  0
   39.4801   87.1350   57.4122 H   0  0  0  0  0  0  0  0  0  0  0  0
   42.7145   84.6175   56.2454 H   0  0  0  0  0  0  0  0  0  0  0  0
   40.1318   85.5933   61.1732 H   0  0  0  0  0  0  0  0  0  0  0  0
   39.8944   84.6164   63.4421 H   0  0  0  0  0  0  0  0  0  0  0  0
   43.6385   82.7579   61.1153 H   0  0  0  0  0  0  0  0  0  0  0  0
   46.8077   84.6116   62.3901 H   0  0  0  0  0  0  0  0  0  0  0  0
   46.0422   84.2832   60.8125 H   0  0  0  0  0  0  0  0  0  0  0  0
  1  2  2  0
  1  9  1  0
  2  3  1  0
  3  4  1  0
  4  5  2  0
  6  5  1  0
  7  6  2  0
  8  9  2  0
  8  7  1  0
  9  4  1  0
 10 16  1  0
 11 10  2  0
 12 11  1  0
 13 14  1  0
 13 12  2  0
 14 15  2  0
 15 10  1  0
 16 22  1  0
 16 17  1  0
 17 18  2  0
 18 19  1  0
 19 20  2  0
 21  1  1  0
 21 19  1  0
 22 21  1  0
 23 22  2  0
 24  8  1  0
 24 25  1  0
 25 26  2  0
 26 28  1  0
 27 25  1  0
  2 29  1  0
  3 30  1  0
  5 31  1  0
  6 32  1  0
  7 33  1  0
 11 34  1  0
 12 35  1  0
 14 36  1  0
 17 37  1  0
 18 38  1  0
 24 39  1  0
 27 40  1  0
 27 41  1  0
M  END
>  <Score>  (1) 
-7.06502

$$$$
