
     RDKit          3D

 53 56  0  0  0  0  0  0  0  0999 V2000
   40.9900   80.5780   61.7010 N   0  0  0  0  0  0  0  0  0  0  0  0
   40.8730   79.4640   62.4610 C   0  0  0  0  0  0  0  0  0  0  0  0
   40.5710   78.2660   61.8540 C   0  0  0  0  0  0  0  0  0  0  0  0
   40.3850   78.1830   60.4880 C   0  0  0  0  0  0  0  0  0  0  0  0
   40.1180   77.0730   59.9920 O   0  0  0  0  0  0  0  0  0  0  0  0
   40.5050   79.2850   59.7840 N   0  0  0  0  0  0  0  0  0  0  0  0
   40.8060   80.4940   60.3550 C   0  0  0  0  0  0  0  0  0  0  0  0
   40.8840   81.4520   59.5250 O   0  0  0  0  0  0  0  0  0  0  0  0
   41.2950   81.8860   62.1540 C   0  0  0  0  0  0  0  0  0  0  0  0
   42.3700   82.5770   61.5980 C   0  0  0  0  0  0  0  0  0  0  0  0
   42.6650   83.8870   62.0610 C   0  0  0  0  0  0  0  0  0  0  0  0
   41.8520   84.3950   63.0480 N   0  0  0  0  0  0  0  0  0  0  0  0
   40.8270   83.6730   63.5430 C   0  0  0  0  0  0  0  0  0  0  0  0
   40.5530   82.4440   63.1060 N   0  0  0  0  0  0  0  0  0  0  0  0
   40.0560   84.2960   64.5530 N   0  0  0  0  0  0  0  0  0  0  0  0
   43.7190   84.6570   61.5630 N   0  0  0  0  0  0  0  0  0  0  0  0
   43.7060   85.9190   61.9850 N   0  0  0  0  0  0  0  0  0  0  0  0
   44.7360   86.5920   61.4750 C   0  0  0  0  0  0  0  0  0  0  0  0
   45.4350   85.7030   60.6890 C   0  0  0  0  0  0  0  0  0  0  0  0
   44.7750   84.5070   60.7650 C   0  0  0  0  0  0  0  0  0  0  0  0
   40.2450   79.1400   58.3480 C   0  0  0  0  0  0  0  0  0  0  0  0
   39.4760   80.2050   57.6880 C   0  0  0  0  0  0  0  0  0  0  0  0
   41.6230   79.1090   57.6290 C   0  0  0  0  0  0  0  0  0  0  0  0
   39.5730   77.8280   58.0180 C   0  0  0  0  0  0  0  0  0  0  0  0
   38.3610   78.0110   57.1620 N   0  0  0  0  0  0  0  0  0  0  0  0
   37.3560   77.0340   57.6900 C   0  0  0  0  0  0  0  0  0  0  0  0
   36.2660   77.2380   56.6490 C   0  0  0  0  0  0  0  0  0  0  0  0
   36.9980   77.5370   55.3650 C   0  0  0  0  0  0  0  0  0  0  0  0
   38.4780   77.5080   55.8410 C   0  0  0  0  0  0  0  0  0  0  0  0
   41.0175   79.5154   63.5503 H   0  0  0  0  0  0  0  0  0  0  0  0
   40.4761   77.3583   62.4681 H   0  0  0  0  0  0  0  0  0  0  0  0
   42.9824   82.1137   60.8104 H   0  0  0  0  0  0  0  0  0  0  0  0
   39.2583   83.7978   64.9730 H   0  0  0  0  0  0  0  0  0  0  0  0
   40.2925   85.2477   64.8681 H   0  0  0  0  0  0  0  0  0  0  0  0
   44.9805   87.6505   61.6477 H   0  0  0  0  0  0  0  0  0  0  0  0
   46.3474   85.9138   60.1118 H   0  0  0  0  0  0  0  0  0  0  0  0
   45.0671   83.5781   60.2534 H   0  0  0  0  0  0  0  0  0  0  0  0
   39.0116   80.8481   58.4501 H   0  0  0  0  0  0  0  0  0  0  0  0
   40.1486   80.8077   57.0600 H   0  0  0  0  0  0  0  0  0  0  0  0
   38.6923   79.7561   57.0600 H   0  0  0  0  0  0  0  0  0  0  0  0
   42.4275   79.0909   58.3789 H   0  0  0  0  0  0  0  0  0  0  0  0
   41.6880   78.2092   56.9997 H   0  0  0  0  0  0  0  0  0  0  0  0
   41.7284   80.0050   56.9997 H   0  0  0  0  0  0  0  0  0  0  0  0
   40.2902   77.1878   57.4835 H   0  0  0  0  0  0  0  0  0  0  0  0
   39.2508   77.3677   58.9637 H   0  0  0  0  0  0  0  0  0  0  0  0
   37.7410   76.0036   57.6891 H   0  0  0  0  0  0  0  0  0  0  0  0
   37.0494   77.1855   58.7355 H   0  0  0  0  0  0  0  0  0  0  0  0
   35.6578   76.3275   56.5435 H   0  0  0  0  0  0  0  0  0  0  0  0
   35.5768   78.0486   56.9282 H   0  0  0  0  0  0  0  0  0  0  0  0
   36.7231   78.5245   54.9658 H   0  0  0  0  0  0  0  0  0  0  0  0
   36.7752   76.8362   54.5469 H   0  0  0  0  0  0  0  0  0  0  0  0
   38.8819   76.4848   55.8351 H   0  0  0  0  0  0  0  0  0  0  0  0
   39.1655   78.0819   55.2022 H   0  0  0  0  0  0  0  0  0  0  0  0
  1  9  1  0
  1  2  1  0
  3  2  2  0
  4  3  1  0
  5  4  2  0
  6  7  1  0
  6  4  1  0
  7  1  1  0
  8  7  2  0
  9 14  2  0
 10 11  2  0
 10  9  1  0
 11 12  1  0
 12 13  2  0
 13 15  1  0
 14 13  1  0
 16 17  1  0
 16 11  1  0
 18 17  2  0
 19 20  2  0
 19 18  1  0
 20 16  1  0
 21  6  1  0
 22 21  1  0
 23 21  1  0
 24 21  1  0
 25 26  1  0
 25 24  1  0
 27 26  1  0
 28 29  1  0
 28 27  1  0
 29 25  1  0
  2 30  1  0
  3 31  1  0
 10 32  1  0
 15 33  1  0
 15 34  1  0
 18 35  1  0
 19 36  1  0
 20 37  1  0
 22 38  1  0
 22 39  1  0
 22 40  1  0
 23 41  1  0
 23 42  1  0
 23 43  1  0
 24 44  1  0
 24 45  1  0
 26 46  1  0
 26 47  1  0
 27 48  1  0
 27 49  1  0
 28 50  1  0
 28 51  1  0
 29 52  1  0
 29 53  1  0
M  END
>  <Score>  (1) 
-7.08378

$$$$
