
     RDKit          3D

 46 51  0  0  1  0  0  0  0  0999 V2000
   40.6600   79.5150   58.9810 C   0  0  0  0  0  0  0  0  0  0  0  0
   40.7550   80.4170   58.0030 C   0  0  0  0  0  0  0  0  0  0  0  0
   40.7030   79.9240   56.7790 N   0  0  0  0  0  0  0  0  0  0  0  0
   40.5630   78.5490   56.9500 C   0  0  0  0  0  0  0  0  0  0  0  0
   40.5420   78.3640   58.2870 N   0  0  0  0  0  0  0  0  0  0  0  0
   40.3210   80.4590   61.2860 N   0  0  0  0  0  0  0  0  0  0  0  0
   40.4190   80.0550   62.6000 N   0  0  0  0  0  0  0  0  0  0  0  0
   40.8510   78.7500   62.4780 C   0  0  0  0  0  0  0  0  0  0  0  0
   41.0110   78.3760   61.1520 C   0  0  0  0  0  0  0  0  0  0  0  0
   40.6570   79.5100   60.3540 C   0  0  0  0  0  0  0  0  0  0  0  0
   39.8930   81.7970   61.1770 C   0  0  0  0  0  0  0  0  0  0  0  0
   40.2120   82.3930   59.9840 C   0  0  0  0  0  0  0  0  0  0  0  0
   39.8310   83.6970   59.7080 C   0  0  0  0  0  0  0  0  0  0  0  0
   39.1190   84.3640   60.7000 N   0  0  0  0  0  0  0  0  0  0  0  0
   38.8010   83.7710   61.9000 C   0  0  0  0  0  0  0  0  0  0  0  0
   39.1790   82.4840   62.1610 N   0  0  0  0  0  0  0  0  0  0  0  0
   40.4100   76.9860   58.7840 C   0  0  2  0  0  0  0  0  0  0  0  0
   40.7000   75.8670   57.8460 C   0  0  0  0  0  0  0  0  0  0  0  0
   39.3190   76.1050   58.2310 C   0  0  2  0  0  0  0  0  0  0  0  0
   38.3530   76.4650   57.2680 N   0  0  0  0  0  0  0  0  0  0  0  0
   37.1970   77.1420   57.5690 C   0  0  0  0  0  0  0  0  0  0  0  0
   36.5020   77.3650   56.4380 N   0  0  0  0  0  0  0  0  0  0  0  0
   37.2360   76.8240   55.4490 C   0  0  0  0  0  0  0  0  0  0  0  0
   36.9580   76.7880   54.1000 C   0  0  0  0  0  0  0  0  0  0  0  0
   37.8440   76.1870   53.2820 N   0  0  0  0  0  0  0  0  0  0  0  0
   38.9880   75.6270   53.7710 C   0  0  0  0  0  0  0  0  0  0  0  0
   39.2890   75.6470   55.1010 N   0  0  0  0  0  0  0  0  0  0  0  0
   38.4190   76.2400   55.9170 C   0  0  0  0  0  0  0  0  0  0  0  0
   35.7510   77.3810   53.5960 N   0  0  0  0  0  0  0  0  0  0  0  0
   40.8684   81.4930   58.2015 H   0  0  0  0  0  0  0  0  0  0  0  0
   40.4862   77.7810   56.1663 H   0  0  0  0  0  0  0  0  0  0  0  0
   41.0456   78.0846   63.3320 H   0  0  0  0  0  0  0  0  0  0  0  0
   41.3460   77.3950   60.7840 H   0  0  0  0  0  0  0  0  0  0  0  0
   40.7806   81.8260   59.2322 H   0  0  0  0  0  0  0  0  0  0  0  0
   40.7447   84.2757   59.5074 H   0  0  0  0  0  0  0  0  0  0  0  0
   39.1384   83.6214   58.8568 H   0  0  0  0  0  0  0  0  0  0  0  0
   38.2376   84.3378   62.6559 H   0  0  0  0  0  0  0  0  0  0  0  0
   38.9442   82.0339   63.0572 H   0  0  0  0  0  0  0  0  0  0  0  0
   40.7407   77.2866   59.7891 H   0  0  0  0  0  0  0  0  0  0  0  0
   41.2213   74.9700   58.2116 H   0  0  0  0  0  0  0  0  0  0  0  0
   41.2264   75.7886   56.8833 H   0  0  0  0  0  0  0  0  0  0  0  0
   38.5017   75.5466   58.7108 H   0  0  0  0  0  0  0  0  0  0  0  0
   36.8871   77.4536   58.5774 H   0  0  0  0  0  0  0  0  0  0  0  0
   39.6879   75.1454   53.0722 H   0  0  0  0  0  0  0  0  0  0  0  0
   35.5456   77.3527   52.5871 H   0  0  0  0  0  0  0  0  0  0  0  0
   35.0907   77.8346   54.2434 H   0  0  0  0  0  0  0  0  0  0  0  0
  1 10  1  0
  2  1  2  0
  3  4  2  0
  3  2  1  0
  4  5  1  0
  5 17  1  0
  5  1  1  0
  6  7  1  0
  8  7  2  0
  9  8  1  0
 10  9  2  0
 10  6  1  0
 11  6  1  0
 11 16  1  0
 12 11  2  0
 13 12  1  0
 13 14  1  0
 14 15  2  0
 15 16  1  0
 18 19  1  0
 18 17  1  0
 19 17  1  0
 20 21  1  0
 20 19  1  0
 22 21  2  0
 23 28  2  0
 23 22  1  0
 24 23  1  0
 25 26  1  0
 25 24  2  0
 26 27  2  0
 27 28  1  0
 28 20  1  0
 29 24  1  0
  2 30  1  0
  4 31  1  0
  8 32  1  0
  9 33  1  0
 12 34  1  0
 13 35  1  0
 13 36  1  0
 15 37  1  0
 16 38  1  0
 17 39  1  1
 18 40  1  0
 18 41  1  0
 19 42  1  1
 21 43  1  0
 26 44  1  0
 29 45  1  0
 29 46  1  0
M  END
>  <Score>  (1) 
-7.12035

$$$$
