
     RDKit          3D

 46 51  0  0  0  0  0  0  0  0999 V2000
   41.6080   85.9780   57.4190 C   0  0  0  0  0  0  0  0  0  0  0  0
   41.5360   84.7760   56.6470 C   0  0  0  0  0  0  0  0  0  0  0  0
   41.8180   83.5830   57.3080 C   0  0  0  0  0  0  0  0  0  0  0  0
   42.1360   83.6420   58.6090 N   0  0  0  0  0  0  0  0  0  0  0  0
   42.2050   84.7580   59.3330 C   0  0  0  0  0  0  0  0  0  0  0  0
   41.9360   85.9360   58.7230 N   0  0  0  0  0  0  0  0  0  0  0  0
   42.5510   84.7790   60.7380 C   0  0  0  0  0  0  0  0  0  0  0  0
   43.7140   85.2030   61.3390 C   0  0  0  0  0  0  0  0  0  0  0  0
   43.6640   85.0680   62.6720 N   0  0  0  0  0  0  0  0  0  0  0  0
   42.4530   84.5470   62.9370 C   0  0  0  0  0  0  0  0  0  0  0  0
   41.8210   84.1850   64.1490 C   0  0  0  0  0  0  0  0  0  0  0  0
   40.5410   83.6650   64.1010 C   0  0  0  0  0  0  0  0  0  0  0  0
   39.8440   83.4800   62.9370 C   0  0  0  0  0  0  0  0  0  0  0  0
   40.4610   83.8330   61.7560 C   0  0  0  0  0  0  0  0  0  0  0  0
   41.7390   84.3550   61.7790 C   0  0  0  0  0  0  0  0  0  0  0  0
   41.7640   82.2940   56.5830 C   0  0  0  0  0  0  0  0  0  0  0  0
   42.8640   81.8330   55.8730 C   0  0  0  0  0  0  0  0  0  0  0  0
   42.2630   80.2240   55.1930 S   0  0  0  0  0  0  0  0  0  0  0  0
   40.5940   80.4660   56.0080 C   0  0  0  0  0  0  0  0  0  0  0  0
   40.7870   81.4430   56.4890 N   0  0  0  0  0  0  0  0  0  0  0  0
   39.3290   79.6940   56.0760 C   0  0  0  0  0  0  0  0  0  0  0  0
   38.2730   79.9900   55.2050 C   0  0  0  0  0  0  0  0  0  0  0  0
   37.1430   79.2570   55.3090 C   0  0  0  0  0  0  0  0  0  0  0  0
   36.9440   78.2370   56.2060 C   0  0  0  0  0  0  0  0  0  0  0  0
   37.9750   77.9390   57.0650 C   0  0  0  0  0  0  0  0  0  0  0  0
   37.7910   76.9200   57.9690 C   0  0  0  0  0  0  0  0  0  0  0  0
   38.7820   76.5660   58.8610 C   0  0  0  0  0  0  0  0  0  0  0  0
   39.9680   77.2910   58.7960 C   0  0  0  0  0  0  0  0  0  0  0  0
   40.0940   78.3010   57.8690 C   0  0  0  0  0  0  0  0  0  0  0  0
   39.1310   78.6770   56.9700 C   0  0  0  0  0  0  0  0  0  0  0  0
   41.3932   86.9457   56.9420 H   0  0  0  0  0  0  0  0  0  0  0  0
   41.2700   84.7931   55.5798 H   0  0  0  0  0  0  0  0  0  0  0  0
   44.5799   85.6042   60.7920 H   0  0  0  0  0  0  0  0  0  0  0  0
   44.3992   85.3122   63.3508 H   0  0  0  0  0  0  0  0  0  0  0  0
   42.3378   84.3146   65.1113 H   0  0  0  0  0  0  0  0  0  0  0  0
   40.0567   83.3850   65.0481 H   0  0  0  0  0  0  0  0  0  0  0  0
   38.8259   83.0637   62.9441 H   0  0  0  0  0  0  0  0  0  0  0  0
   39.9368   83.6992   60.7982 H   0  0  0  0  0  0  0  0  0  0  0  0
   43.8483   82.3075   55.7467 H   0  0  0  0  0  0  0  0  0  0  0  0
   38.3609   80.7941   54.4596 H   0  0  0  0  0  0  0  0  0  0  0  0
   36.3182   79.4960   54.6215 H   0  0  0  0  0  0  0  0  0  0  0  0
   35.9961   77.6797   56.2362 H   0  0  0  0  0  0  0  0  0  0  0  0
   36.8349   76.3762   57.9814 H   0  0  0  0  0  0  0  0  0  0  0  0
   38.6418   75.7517   59.5871 H   0  0  0  0  0  0  0  0  0  0  0  0
   40.7980   77.0590   59.4796 H   0  0  0  0  0  0  0  0  0  0  0  0
   41.0462   78.8514   57.8484 H   0  0  0  0  0  0  0  0  0  0  0  0
  1  6  2  0
  2  3  2  0
  2  1  1  0
  3  4  1  0
  4  5  2  0
  5  7  1  0
  6  5  1  0
  7  8  2  0
  7 15  1  0
  8  9  1  0
  9 10  1  0
 10 11  2  0
 12 11  1  0
 13 12  2  0
 14 15  2  0
 14 13  1  0
 15 10  1  0
 16  3  1  0
 17 16  2  0
 18 17  1  0
 18 19  1  0
 19 21  1  0
 19 20  2  0
 20 16  1  0
 21 30  2  0
 22 23  2  0
 22 21  1  0
 23 24  1  0
 24 25  2  0
 25 26  1  0
 26 27  2  0
 28 27  1  0
 29 28  2  0
 30 25  1  0
 30 29  1  0
  1 31  1  0
  2 32  1  0
  8 33  1  0
  9 34  1  0
 11 35  1  0
 12 36  1  0
 13 37  1  0
 14 38  1  0
 17 39  1  0
 22 40  1  0
 23 41  1  0
 24 42  1  0
 26 43  1  0
 27 44  1  0
 28 45  1  0
 29 46  1  0
M  END
>  <Score>  (1) 
-7.39581

$$$$
