
     RDKit          3D

 44 48  0  0  0  0  0  0  0  0999 V2000
   41.4580   76.6870   61.1090 C   0  0  0  0  0  0  0  0  0  0  0  0
   41.0090   77.9990   61.1180 C   0  0  0  0  0  0  0  0  0  0  0  0
   41.8360   79.0490   61.4730 C   0  0  0  0  0  0  0  0  0  0  0  0
   43.1240   78.7270   61.8170 N   0  0  0  0  0  0  0  0  0  0  0  0
   43.5500   77.4550   61.8040 C   0  0  0  0  0  0  0  0  0  0  0  0
   42.7290   76.4480   61.4550 N   0  0  0  0  0  0  0  0  0  0  0  0
   40.5770   75.6490   60.7420 N   0  0  0  0  0  0  0  0  0  0  0  0
   39.2020   75.9500   60.6250 C   0  0  0  0  0  0  0  0  0  0  0  0
   38.3160   74.8840   60.1690 C   0  0  0  0  0  0  0  0  0  0  0  0
   38.9330   73.5560   59.8620 C   0  0  0  0  0  0  0  0  0  0  0  0
   40.0840   73.2760   60.8330 C   0  0  0  0  0  0  0  0  0  0  0  0
   41.1210   74.3270   60.5040 C   0  0  0  0  0  0  0  0  0  0  0  0
   41.4330   80.4500   61.5110 C   0  0  0  0  0  0  0  0  0  0  0  0
   41.3990   81.2730   60.4140 C   0  0  0  0  0  0  0  0  0  0  0  0
   40.9680   82.5250   60.8300 C   0  0  0  0  0  0  0  0  0  0  0  0
   40.7570   82.4210   62.1530 N   0  0  0  0  0  0  0  0  0  0  0  0
   41.0350   81.1930   62.5480 N   0  0  0  0  0  0  0  0  0  0  0  0
   40.7860   83.6840   60.0250 N   0  0  0  0  0  0  0  0  0  0  0  0
   39.4910   84.0610   59.8130 C   0  0  0  0  0  0  0  0  0  0  0  0
   39.5100   85.1750   59.0320 N   0  0  0  0  0  0  0  0  0  0  0  0
   40.7810   85.5100   58.7450 C   0  0  0  0  0  0  0  0  0  0  0  0
   41.4740   86.4800   58.0360 C   0  0  0  0  0  0  0  0  0  0  0  0
   42.8340   86.4710   57.9880 N   0  0  0  0  0  0  0  0  0  0  0  0
   43.5350   85.4980   58.6410 C   0  0  0  0  0  0  0  0  0  0  0  0
   42.8900   84.5260   59.3490 N   0  0  0  0  0  0  0  0  0  0  0  0
   41.5670   84.5650   59.3750 C   0  0  0  0  0  0  0  0  0  0  0  0
   40.3000   83.4430   63.0710 C   0  0  0  0  0  0  0  0  0  0  0  0
   40.4730   83.0650   64.3970 F   0  0  0  0  0  0  0  0  0  0  0  0
   38.9420   83.7000   62.9060 F   0  0  0  0  0  0  0  0  0  0  0  0
   41.0090   84.5890   62.8310 F   0  0  0  0  0  0  0  0  0  0  0  0
   39.9672   78.2102   60.8352 H   0  0  0  0  0  0  0  0  0  0  0  0
   44.5900   77.2312   62.0839 H   0  0  0  0  0  0  0  0  0  0  0  0
   38.8138   76.9500   60.8684 H   0  0  0  0  0  0  0  0  0  0  0  0
   37.2347   75.0506   60.0552 H   0  0  0  0  0  0  0  0  0  0  0  0
   38.1716   72.7685   59.9629 H   0  0  0  0  0  0  0  0  0  0  0  0
   39.3231   73.5682   58.8336 H   0  0  0  0  0  0  0  0  0  0  0  0
   39.7465   73.3756   61.8752 H   0  0  0  0  0  0  0  0  0  0  0  0
   40.4776   72.2538   60.7316 H   0  0  0  0  0  0  0  0  0  0  0  0
   41.4092   74.2363   59.4463 H   0  0  0  0  0  0  0  0  0  0  0  0
   42.0030   74.1780   61.1442 H   0  0  0  0  0  0  0  0  0  0  0  0
   41.6664   80.9902   59.3851 H   0  0  0  0  0  0  0  0  0  0  0  0
   38.5950   83.5558   60.2028 H   0  0  0  0  0  0  0  0  0  0  0  0
   40.9172   87.2666   57.5057 H   0  0  0  0  0  0  0  0  0  0  0  0
   44.6341   85.4977   58.5957 H   0  0  0  0  0  0  0  0  0  0  0  0
  1  2  2  0
  1  6  1  0
  2  3  1  0
  3 13  1  0
  3  4  2  0
  5  4  1  0
  6  5  2  0
  7  1  1  0
  8  7  1  0
  9  8  2  0
 10  9  1  0
 10 11  1  0
 12  7  1  0
 12 11  1  0
 13 17  2  0
 14 15  2  0
 14 13  1  0
 15 16  1  0
 16 17  1  0
 16 27  1  0
 18 15  1  0
 19 18  1  0
 20 19  2  0
 21 20  1  0
 21 26  2  0
 22 21  1  0
 23 22  2  0
 23 24  1  0
 24 25  2  0
 25 26  1  0
 26 18  1  0
 27 28  1  0
 29 27  1  0
 30 27  1  0
  2 31  1  0
  5 32  1  0
  8 33  1  0
  9 34  1  0
 10 35  1  0
 10 36  1  0
 11 37  1  0
 11 38  1  0
 12 39  1  0
 12 40  1  0
 14 41  1  0
 19 42  1  0
 22 43  1  0
 24 44  1  0
M  END
>  <Score>  (1) 
-7.5504

$$$$
