
     RDKit          3D

 37 41  0  0  0  0  0  0  0  0999 V2000
   42.1090   82.1050   55.8030 C   0  0  0  0  0  0  0  0  0  0  0  0
   41.2250   81.1420   55.3420 C   0  0  0  0  0  0  0  0  0  0  0  0
   40.0920   80.8760   56.0930 C   0  0  0  0  0  0  0  0  0  0  0  0
   39.8870   81.5740   57.2640 N   0  0  0  0  0  0  0  0  0  0  0  0
   40.7890   82.5050   57.6640 C   0  0  0  0  0  0  0  0  0  0  0  0
   41.8810   82.7750   56.9590 N   0  0  0  0  0  0  0  0  0  0  0  0
   40.5160   83.2150   58.9190 C   0  0  0  0  0  0  0  0  0  0  0  0
   39.6890   84.3120   59.0660 C   0  0  0  0  0  0  0  0  0  0  0  0
   39.6820   84.6900   60.3470 N   0  0  0  0  0  0  0  0  0  0  0  0
   40.4930   83.8570   61.0380 C   0  0  0  0  0  0  0  0  0  0  0  0
   41.0050   82.9510   60.1600 N   0  0  0  0  0  0  0  0  0  0  0  0
   40.7480   83.9360   62.4400 N   0  0  0  0  0  0  0  0  0  0  0  0
   40.0540   83.2990   63.3750 N   0  0  0  0  0  0  0  0  0  0  0  0
   40.5510   83.5870   64.5920 C   0  0  0  0  0  0  0  0  0  0  0  0
   41.6050   84.4440   64.4210 C   0  0  0  0  0  0  0  0  0  0  0  0
   41.6980   84.6400   63.0490 C   0  0  0  0  0  0  0  0  0  0  0  0
   39.0560   79.9360   55.8160 N   0  0  0  0  0  0  0  0  0  0  0  0
   38.4750   79.1330   56.7370 C   0  0  0  0  0  0  0  0  0  0  0  0
   37.5410   78.3930   56.0780 N   0  0  0  0  0  0  0  0  0  0  0  0
   37.5530   78.7400   54.7700 C   0  0  0  0  0  0  0  0  0  0  0  0
   36.8740   78.3730   53.6240 C   0  0  0  0  0  0  0  0  0  0  0  0
   37.1450   78.9420   52.4340 N   0  0  0  0  0  0  0  0  0  0  0  0
   38.0870   79.8970   52.2910 C   0  0  0  0  0  0  0  0  0  0  0  0
   38.7440   80.2520   53.4000 N   0  0  0  0  0  0  0  0  0  0  0  0
   38.5080   79.7140   54.6000 C   0  0  0  0  0  0  0  0  0  0  0  0
   35.8720   77.3660   53.7350 N   0  0  0  0  0  0  0  0  0  0  0  0
   43.0136   82.3300   55.2190 H   0  0  0  0  0  0  0  0  0  0  0  0
   41.4185   80.6025   54.4031 H   0  0  0  0  0  0  0  0  0  0  0  0
   39.1252   84.7975   58.2558 H   0  0  0  0  0  0  0  0  0  0  0  0
   41.6567   82.1895   60.3973 H   0  0  0  0  0  0  0  0  0  0  0  0
   40.1772   83.2026   65.5525 H   0  0  0  0  0  0  0  0  0  0  0  0
   42.2419   84.8833   65.2029 H   0  0  0  0  0  0  0  0  0  0  0  0
   42.4402   85.2769   62.5456 H   0  0  0  0  0  0  0  0  0  0  0  0
   38.7114   79.0869   57.8103 H   0  0  0  0  0  0  0  0  0  0  0  0
   38.3027   80.3581   51.3159 H   0  0  0  0  0  0  0  0  0  0  0  0
   35.3464   77.0683   52.9007 H   0  0  0  0  0  0  0  0  0  0  0  0
   35.6733   76.9358   54.6495 H   0  0  0  0  0  0  0  0  0  0  0  0
  1  6  2  0
  2  1  1  0
  2  3  2  0
  3  4  1  0
  4  5  2  0
  5  7  1  0
  6  5  1  0
  7  8  2  0
  7 11  1  0
  8  9  1  0
  9 10  2  0
 10 12  1  0
 11 10  1  0
 12 16  1  0
 12 13  1  0
 13 14  2  0
 15 14  1  0
 16 15  2  0
 17  3  1  0
 17 18  1  0
 19 18  2  0
 20 19  1  0
 21 26  1  0
 21 20  2  0
 22 21  1  0
 23 22  2  0
 23 24  1  0
 24 25  2  0
 25 20  1  0
 25 17  1  0
  1 27  1  0
  2 28  1  0
  8 29  1  0
 11 30  1  0
 14 31  1  0
 15 32  1  0
 16 33  1  0
 18 34  1  0
 23 35  1  0
 26 36  1  0
 26 37  1  0
M  END
>  <Score>  (1) 
-7.07044

$$$$
