
     RDKit          3D

 41 45  0  0  0  0  0  0  0  0999 V2000
   40.5510   82.4400   58.1690 C   0  0  0  0  0  0  0  0  0  0  0  0
   41.4930   83.1710   57.4360 C   0  0  0  0  0  0  0  0  0  0  0  0
   42.0140   82.6620   56.2730 C   0  0  0  0  0  0  0  0  0  0  0  0
   41.5600   81.4260   55.8980 C   0  0  0  0  0  0  0  0  0  0  0  0
   40.6360   80.6300   56.5530 C   0  0  0  0  0  0  0  0  0  0  0  0
   40.1140   81.1600   57.7320 C   0  0  0  0  0  0  0  0  0  0  0  0
   41.9470   84.4790   57.8650 C   0  0  0  0  0  0  0  0  0  0  0  0
   41.2420   85.5650   57.3400 C   0  0  0  0  0  0  0  0  0  0  0  0
   41.7860   86.6950   57.8490 N   0  0  0  0  0  0  0  0  0  0  0  0
   42.7970   86.3250   58.6630 C   0  0  0  0  0  0  0  0  0  0  0  0
   42.8920   85.0070   58.6700 N   0  0  0  0  0  0  0  0  0  0  0  0
   43.7590   84.0950   59.3350 C   0  0  0  0  0  0  0  0  0  0  0  0
   44.7580   83.3940   58.7600 N   0  0  0  0  0  0  0  0  0  0  0  0
   45.5320   82.5540   59.4650 C   0  0  0  0  0  0  0  0  0  0  0  0
   45.3200   82.3900   60.7930 N   0  0  0  0  0  0  0  0  0  0  0  0
   44.3390   83.0650   61.4020 C   0  0  0  0  0  0  0  0  0  0  0  0
   44.2040   82.8280   62.7630 C   0  0  0  0  0  0  0  0  0  0  0  0
   43.1810   83.5310   63.4030 C   0  0  0  0  0  0  0  0  0  0  0  0
   42.3540   84.4080   62.7390 C   0  0  0  0  0  0  0  0  0  0  0  0
   42.5280   84.6140   61.3760 C   0  0  0  0  0  0  0  0  0  0  0  0
   43.5360   83.9350   60.6890 C   0  0  0  0  0  0  0  0  0  0  0  0
   40.0150   82.1560   60.5670 C   0  0  0  0  0  0  0  0  0  0  0  0
   40.0050   82.9720   59.3920 C   0  0  0  0  0  0  0  0  0  0  0  0
   39.4680   84.2440   59.4930 C   0  0  0  0  0  0  0  0  0  0  0  0
   38.9720   84.6720   60.7070 N   0  0  0  0  0  0  0  0  0  0  0  0
   39.0040   83.8660   61.7880 C   0  0  0  0  0  0  0  0  0  0  0  0
   39.5200   82.6150   61.7320 N   0  0  0  0  0  0  0  0  0  0  0  0
   42.7540   83.2154   55.6762 H   0  0  0  0  0  0  0  0  0  0  0  0
   41.9788   81.0173   54.9665 H   0  0  0  0  0  0  0  0  0  0  0  0
   40.3337   79.6447   56.1687 H   0  0  0  0  0  0  0  0  0  0  0  0
   39.3733   80.5948   58.3167 H   0  0  0  0  0  0  0  0  0  0  0  0
   40.3963   85.5113   56.6386 H   0  0  0  0  0  0  0  0  0  0  0  0
   43.4407   87.0125   59.2313 H   0  0  0  0  0  0  0  0  0  0  0  0
   46.3387   81.9986   58.9643 H   0  0  0  0  0  0  0  0  0  0  0  0
   44.8612   82.1306   63.3032 H   0  0  0  0  0  0  0  0  0  0  0  0
   43.0301   83.3775   64.4817 H   0  0  0  0  0  0  0  0  0  0  0  0
   41.5611   84.9419   63.2833 H   0  0  0  0  0  0  0  0  0  0  0  0
   41.8709   85.3128   60.8376 H   0  0  0  0  0  0  0  0  0  0  0  0
   40.4328   81.1396   60.5180 H   0  0  0  0  0  0  0  0  0  0  0  0
   39.4372   84.9060   58.6150 H   0  0  0  0  0  0  0  0  0  0  0  0
   38.5996   84.2351   62.7420 H   0  0  0  0  0  0  0  0  0  0  0  0
  1 23  1  0
  2  7  1  0
  2  1  1  0
  3  2  2  0
  4  3  1  0
  4  5  2  0
  5  6  1  0
  6  1  2  0
  7 11  1  0
  8  9  1  0
  8  7  2  0
  9 10  2  0
 10 11  1  0
 11 12  1  0
 12 21  1  0
 13 12  2  0
 13 14  1  0
 14 15  2  0
 15 16  1  0
 16 17  2  0
 17 18  1  0
 19 18  2  0
 20 19  1  0
 21 20  2  0
 21 16  1  0
 22 27  2  0
 23 24  2  0
 23 22  1  0
 24 25  1  0
 25 26  2  0
 27 26  1  0
  3 28  1  0
  4 29  1  0
  5 30  1  0
  6 31  1  0
  8 32  1  0
 10 33  1  0
 14 34  1  0
 17 35  1  0
 18 36  1  0
 19 37  1  0
 20 38  1  0
 22 39  1  0
 24 40  1  0
 26 41  1  0
M  END
>  <Score>  (1) 
-7.52019

$$$$
