
     RDKit          3D

 46 50  0  0  0  0  0  0  0  0999 V2000
   40.5520   80.0790   60.7440 C   0  0  0  0  0  0  0  0  0  0  0  0
   41.7440   80.2680   61.4530 C   0  0  0  0  0  0  0  0  0  0  0  0
   42.4320   79.1120   61.8560 C   0  0  0  0  0  0  0  0  0  0  0  0
   41.9170   77.9100   61.5430 N   0  0  0  0  0  0  0  0  0  0  0  0
   40.7780   77.7580   60.8650 C   0  0  0  0  0  0  0  0  0  0  0  0
   40.1000   78.8330   60.4680 N   0  0  0  0  0  0  0  0  0  0  0  0
   42.2270   81.5420   61.7420 N   0  0  0  0  0  0  0  0  0  0  0  0
   43.3300   82.0790   61.1550 C   0  0  0  0  0  0  0  0  0  0  0  0
   43.5410   83.3180   61.6410 N   0  0  0  0  0  0  0  0  0  0  0  0
   42.5980   83.5940   62.5320 C   0  0  0  0  0  0  0  0  0  0  0  0
   42.3050   84.6670   63.3110 C   0  0  0  0  0  0  0  0  0  0  0  0
   41.2750   84.5760   64.1750 N   0  0  0  0  0  0  0  0  0  0  0  0
   40.4890   83.5090   64.2350 C   0  0  0  0  0  0  0  0  0  0  0  0
   40.7420   82.4660   63.4440 N   0  0  0  0  0  0  0  0  0  0  0  0
   41.7870   82.4570   62.5730 C   0  0  0  0  0  0  0  0  0  0  0  0
   40.3430   76.3810   60.5980 C   0  0  0  0  0  0  0  0  0  0  0  0
   38.9230   76.2210   60.1880 C   0  0  0  0  0  0  0  0  0  0  0  0
   38.8060   75.9810   58.7290 C   0  0  0  0  0  0  0  0  0  0  0  0
   38.9700   74.7140   58.1980 C   0  0  0  0  0  0  0  0  0  0  0  0
   38.8450   74.5540   56.8040 C   0  0  0  0  0  0  0  0  0  0  0  0
   38.5690   75.6980   56.1180 C   0  0  0  0  0  0  0  0  0  0  0  0
   38.4080   76.9480   56.6520 C   0  0  0  0  0  0  0  0  0  0  0  0
   38.5340   77.0660   57.9920 N   0  0  0  0  0  0  0  0  0  0  0  0
   38.1120   78.1590   55.8960 C   0  0  0  0  0  0  0  0  0  0  0  0
   37.5510   79.2740   56.4790 C   0  0  0  0  0  0  0  0  0  0  0  0
   37.2780   80.4020   55.7620 C   0  0  0  0  0  0  0  0  0  0  0  0
   37.5420   80.4930   54.4480 N   0  0  0  0  0  0  0  0  0  0  0  0
   38.0970   79.3850   53.8850 C   0  0  0  0  0  0  0  0  0  0  0  0
   38.3690   78.2710   54.5810 N   0  0  0  0  0  0  0  0  0  0  0  0
   39.9756   80.9532   60.4071 H   0  0  0  0  0  0  0  0  0  0  0  0
   43.3749   79.1884   62.4174 H   0  0  0  0  0  0  0  0  0  0  0  0
   43.9539   81.5789   60.3997 H   0  0  0  0  0  0  0  0  0  0  0  0
   43.2046   84.8936   63.9020 H   0  0  0  0  0  0  0  0  0  0  0  0
   41.9862   85.4386   62.5948 H   0  0  0  0  0  0  0  0  0  0  0  0
   39.6370   83.4850   64.9304 H   0  0  0  0  0  0  0  0  0  0  0  0
   40.1270   81.6412   63.4939 H   0  0  0  0  0  0  0  0  0  0  0  0
   40.9746   75.9772   59.7930 H   0  0  0  0  0  0  0  0  0  0  0  0
   40.4411   75.8452   61.5537 H   0  0  0  0  0  0  0  0  0  0  0  0
   38.4886   75.3664   60.7275 H   0  0  0  0  0  0  0  0  0  0  0  0
   38.3853   77.1494   60.4309 H   0  0  0  0  0  0  0  0  0  0  0  0
   39.1921   73.8542   58.8472 H   0  0  0  0  0  0  0  0  0  0  0  0
   38.9614   73.5795   56.3073 H   0  0  0  0  0  0  0  0  0  0  0  0
   38.4652   75.6084   55.0266 H   0  0  0  0  0  0  0  0  0  0  0  0
   37.3164   79.2542   57.5535 H   0  0  0  0  0  0  0  0  0  0  0  0
   36.8276   81.2640   56.2759 H   0  0  0  0  0  0  0  0  0  0  0  0
   38.3331   79.4039   52.8108 H   0  0  0  0  0  0  0  0  0  0  0  0
  1  2  2  0
  2  7  1  0
  2  3  1  0
  4  3  2  0
  5  4  1  0
  6  1  1  0
  6  5  2  0
  7 15  1  0
  8  9  2  0
  8  7  1  0
  9 10  1  0
 10 15  2  0
 10 11  1  0
 11 12  1  0
 12 13  2  0
 14 13  1  0
 15 14  1  0
 16  5  1  0
 17 16  1  0
 18 17  1  0
 19 18  2  0
 20 19  1  0
 21 22  1  0
 21 20  2  0
 22 23  2  0
 23 18  1  0
 24 25  2  0
 24 22  1  0
 26 25  1  0
 27 26  2  0
 28 27  1  0
 28 29  2  0
 29 24  1  0
  1 30  1  0
  3 31  1  0
  8 32  1  0
 11 33  1  0
 11 34  1  0
 13 35  1  0
 14 36  1  0
 16 37  1  0
 16 38  1  0
 17 39  1  0
 17 40  1  0
 19 41  1  0
 20 42  1  0
 21 43  1  0
 25 44  1  0
 26 45  1  0
 28 46  1  0
M  END
>  <Score>  (1) 
-7.07734

$$$$
