
     RDKit          3D

 55 59  0  0  1  0  0  0  0  0999 V2000
   39.6370   83.6540   60.1070 C   0  0  0  0  0  0  0  0  0  0  0  0
   40.1380   82.3390   60.1020 C   0  0  0  0  0  0  0  0  0  0  0  0
   40.8940   81.9460   61.2140 C   0  0  0  0  0  0  0  0  0  0  0  0
   41.0570   82.8730   62.1870 N   0  0  0  0  0  0  0  0  0  0  0  0
   40.5780   84.1010   62.1810 C   0  0  0  0  0  0  0  0  0  0  0  0
   39.8610   84.4800   61.1150 N   0  0  0  0  0  0  0  0  0  0  0  0
   40.8330   84.9380   63.3060 N   0  0  0  0  0  0  0  0  0  0  0  0
   40.3610   84.5060   64.5920 C   0  0  0  0  0  0  0  0  0  0  0  0
   40.3940   83.2850   64.9580 N   0  0  0  0  0  0  0  0  0  0  0  0
   39.8330   85.4940   65.4920 N   0  0  0  0  0  0  0  0  0  0  0  0
   40.7670   82.4980   64.4480 H   0  0  0  0  0  0  0  0  0  0  0  0
   41.4770   80.6590   61.3390 N   0  0  0  0  0  0  0  0  0  0  0  0
   40.9280   79.5050   62.0120 C   0  0  0  0  0  0  0  0  0  0  0  0
   41.9600   78.4300   61.8120 C   0  0  0  0  0  0  0  0  0  0  0  0
   43.2350   79.2360   61.7800 C   0  0  0  0  0  0  0  0  0  0  0  0
   42.7500   80.3060   60.7860 C   0  0  2  0  0  0  0  0  0  0  0  0
   43.7640   81.3960   60.8120 C   0  0  1  0  0  0  0  0  0  0  0  0
   43.4040   82.3920   59.7490 C   0  0  0  0  0  0  0  0  0  0  0  0
   43.8880   83.7510   60.1480 C   0  0  0  0  0  0  0  0  0  0  0  0
   44.0350   83.6630   61.6370 C   0  0  0  0  0  0  0  0  0  0  0  0
   43.7750   82.2370   62.0310 C   0  0  2  0  0  0  0  0  0  0  0  0
   45.0980   81.8740   62.6420 N   0  0  0  0  0  0  0  0  0  0  0  0
   45.9570   82.8690   63.0140 C   0  0  0  0  0  0  0  0  0  0  0  0
   47.0890   82.3130   63.5420 N   0  0  0  0  0  0  0  0  0  0  0  0
   46.9390   80.9790   63.5010 C   0  0  0  0  0  0  0  0  0  0  0  0
   47.6550   79.8260   63.8500 C   0  0  0  0  0  0  0  0  0  0  0  0
   47.1580   78.5920   63.6490 N   0  0  0  0  0  0  0  0  0  0  0  0
   45.9540   78.3950   63.1030 C   0  0  0  0  0  0  0  0  0  0  0  0
   45.2370   79.4990   62.7530 N   0  0  0  0  0  0  0  0  0  0  0  0
   45.7310   80.7330   62.9540 C   0  0  0  0  0  0  0  0  0  0  0  0
   48.9550   80.0520   64.4390 N   0  0  0  0  0  0  0  0  0  0  0  0
   39.0433   84.0041   59.2497 H   0  0  0  0  0  0  0  0  0  0  0  0
   39.9452   81.6522   59.2646 H   0  0  0  0  0  0  0  0  0  0  0  0
   41.3414   85.8275   63.1999 H   0  0  0  0  0  0  0  0  0  0  0  0
   39.4875   85.2125   66.4206 H   0  0  0  0  0  0  0  0  0  0  0  0
   39.8000   86.4837   65.2085 H   0  0  0  0  0  0  0  0  0  0  0  0
   40.7830   79.7111   63.0827 H   0  0  0  0  0  0  0  0  0  0  0  0
   39.9421   79.2187   61.6171 H   0  0  0  0  0  0  0  0  0  0  0  0
   41.9593   77.7127   62.6460 H   0  0  0  0  0  0  0  0  0  0  0  0
   41.7970   77.8144   60.9151 H   0  0  0  0  0  0  0  0  0  0  0  0
   43.4913   79.6587   62.7627 H   0  0  0  0  0  0  0  0  0  0  0  0
   44.1549   78.6949   61.5135 H   0  0  0  0  0  0  0  0  0  0  0  0
   42.6420   80.0208   59.7291 H   0  0  0  0  0  0  0  0  0  0  0  0
   44.7249   80.8705   60.7097 H   0  0  0  0  0  0  0  0  0  0  0  0
   42.3114   82.4149   59.6240 H   0  0  0  0  0  0  0  0  0  0  0  0
   43.8777   82.1001   58.8001 H   0  0  0  0  0  0  0  0  0  0  0  0
   44.8540   83.9768   59.6727 H   0  0  0  0  0  0  0  0  0  0  0  0
   43.2010   84.5522   59.8378 H   0  0  0  0  0  0  0  0  0  0  0  0
   45.0537   83.9547   61.9320 H   0  0  0  0  0  0  0  0  0  0  0  0
   43.3266   84.3394   62.1377 H   0  0  0  0  0  0  0  0  0  0  0  0
   42.8578   82.1145   62.6257 H   0  0  0  0  0  0  0  0  0  0  0  0
   45.7678   83.9472   62.9058 H   0  0  0  0  0  0  0  0  0  0  0  0
   45.5578   77.3814   62.9426 H   0  0  0  0  0  0  0  0  0  0  0  0
   49.5389   79.2517   64.7209 H   0  0  0  0  0  0  0  0  0  0  0  0
   49.2978   81.0134   64.5769 H   0  0  0  0  0  0  0  0  0  0  0  0
  1  6  2  0
  2  1  1  0
  2  3  2  0
  3 12  1  0
  3  4  1  0
  5  4  2  0
  5  7  1  0
  6  5  1  0
  7  8  1  0
  8  9  2  0
  8 10  1  0
 11  9  1  0
 12 13  1  0
 14 13  1  0
 15 14  1  0
 16 17  1  0
 16 12  1  0
 16 15  1  0
 17 21  1  0
 18 19  1  0
 18 17  1  0
 19 20  1  0
 20 21  1  0
 21 22  1  0
 22 30  1  0
 22 23  1  0
 23 24  2  0
 25 24  1  0
 25 26  2  0
 26 31  1  0
 27 26  1  0
 28 27  2  0
 29 30  2  0
 29 28  1  0
 30 25  1  0
  1 32  1  0
  2 33  1  0
  7 34  1  0
 10 35  1  0
 10 36  1  0
 13 37  1  0
 13 38  1  0
 14 39  1  0
 14 40  1  0
 15 41  1  0
 15 42  1  0
 16 43  1  6
 17 44  1  6
 18 45  1  0
 18 46  1  0
 19 47  1  0
 19 48  1  0
 20 49  1  0
 20 50  1  0
 21 51  1  1
 23 52  1  0
 28 53  1  0
 31 54  1  0
 31 55  1  0
M  END
>  <Score>  (1) 
-7.84427

$$$$
