
     RDKit          3D

 52 56  0  0  1  0  0  0  0  0999 V2000
   40.3610   80.3930   61.2990 N   0  0  0  0  0  0  0  0  0  0  0  0
   40.9700   79.9840   62.4380 C   0  0  0  0  0  0  0  0  0  0  0  0
   41.2190   78.6570   62.3550 N   0  0  0  0  0  0  0  0  0  0  0  0
   40.7870   78.1950   61.1850 C   0  0  0  0  0  0  0  0  0  0  0  0
   40.8250   77.0050   60.5020 C   0  0  2  0  0  0  0  0  0  0  0  0
   40.0230   76.8520   59.3920 N   0  0  0  0  0  0  0  0  0  0  0  0
   39.5240   77.9060   58.7560 C   0  0  0  0  0  0  0  0  0  0  0  0
   39.6490   79.0970   59.3530 N   0  0  0  0  0  0  0  0  0  0  0  0
   40.2520   79.2910   60.5450 C   0  0  0  0  0  0  0  0  0  0  0  0
   38.8960   77.7300   57.4900 N   0  0  0  0  0  0  0  0  0  0  0  0
   37.9890   76.6240   57.3410 C   0  0  0  0  0  0  0  0  0  0  0  0
   36.6390   77.2330   57.0400 C   0  0  0  0  0  0  0  0  0  0  0  0
   36.7590   77.8900   55.6830 C   0  0  0  0  0  0  0  0  0  0  0  0
   37.8690   78.8950   55.5760 C   0  0  0  0  0  0  0  0  0  0  0  0
   39.0980   78.5750   56.3550 C   0  0  0  0  0  0  0  0  0  0  0  0
   39.9710   81.7380   61.0340 C   0  0  0  0  0  0  0  0  0  0  0  0
   40.2480   82.4330   59.8340 C   0  0  0  0  0  0  0  0  0  0  0  0
   39.8040   83.7470   59.7410 C   0  0  0  0  0  0  0  0  0  0  0  0
   39.1310   84.2940   60.8010 N   0  0  0  0  0  0  0  0  0  0  0  0
   38.8930   83.5820   61.9260 C   0  0  0  0  0  0  0  0  0  0  0  0
   39.3130   82.3130   62.0320 N   0  0  0  0  0  0  0  0  0  0  0  0
   41.0780   75.8370   61.2480 N   0  0  0  0  0  0  0  0  0  0  0  0
   42.5940   74.0390   61.6690 N   0  0  0  0  0  0  0  0  0  0  0  0
   42.3210   72.6540   61.6440 C   0  0  0  0  0  0  0  0  0  0  0  0
   40.8670   72.5260   61.1730 C   0  0  0  0  0  0  0  0  0  0  0  0
   40.8880   73.6130   60.1020 C   0  0  0  0  0  0  0  0  0  0  0  0
   41.6740   74.6940   60.7430 C   0  0  1  0  0  0  0  0  0  0  0  0
   41.2217   80.6280   63.2935 H   0  0  0  0  0  0  0  0  0  0  0  0
   41.7919   77.1694   60.0039 H   0  0  0  0  0  0  0  0  0  0  0  0
   39.2595   79.9199   58.8713 H   0  0  0  0  0  0  0  0  0  0  0  0
   38.3094   75.9753   56.5124 H   0  0  0  0  0  0  0  0  0  0  0  0
   37.9583   76.0019   58.2477 H   0  0  0  0  0  0  0  0  0  0  0  0
   35.8657   76.4511   57.0169 H   0  0  0  0  0  0  0  0  0  0  0  0
   36.3498   77.9619   57.8114 H   0  0  0  0  0  0  0  0  0  0  0  0
   36.9339   77.1034   54.9343 H   0  0  0  0  0  0  0  0  0  0  0  0
   35.8209   78.4398   55.5166 H   0  0  0  0  0  0  0  0  0  0  0  0
   38.1510   78.9776   54.5160 H   0  0  0  0  0  0  0  0  0  0  0  0
   37.4744   79.8290   56.0025 H   0  0  0  0  0  0  0  0  0  0  0  0
   39.8080   78.0746   55.6802 H   0  0  0  0  0  0  0  0  0  0  0  0
   39.4676   79.5330   56.7494 H   0  0  0  0  0  0  0  0  0  0  0  0
   40.7928   81.9532   59.0076 H   0  0  0  0  0  0  0  0  0  0  0  0
   39.9900   84.3373   58.8316 H   0  0  0  0  0  0  0  0  0  0  0  0
   38.3501   84.0481   62.7615 H   0  0  0  0  0  0  0  0  0  0  0  0
   41.6735   76.1348   62.0339 H   0  0  0  0  0  0  0  0  0  0  0  0
   42.4532   74.4064   62.6209 H   0  0  0  0  0  0  0  0  0  0  0  0
   42.9975   72.1423   60.9436 H   0  0  0  0  0  0  0  0  0  0  0  0
   42.4699   72.1930   62.6316 H   0  0  0  0  0  0  0  0  0  0  0  0
   40.6521   71.5324   60.7527 H   0  0  0  0  0  0  0  0  0  0  0  0
   40.0981   72.6339   61.9522 H   0  0  0  0  0  0  0  0  0  0  0  0
   39.8695   73.9527   59.8628 H   0  0  0  0  0  0  0  0  0  0  0  0
   41.3147   73.2735   59.1467 H   0  0  0  0  0  0  0  0  0  0  0  0
   42.1628   75.2143   59.9061 H   0  0  0  0  0  0  0  0  0  0  0  0
  1  2  1  0
  3  2  2  0
  4  3  1  0
  5  4  1  0
  5 22  1  0
  6  5  1  0
  7  8  1  0
  7  6  2  0
  8  9  1  0
  9  4  2  0
  9  1  1  0
 10  7  1  0
 11 10  1  0
 12 11  1  0
 13 12  1  0
 14 13  1  0
 14 15  1  0
 15 10  1  0
 16  1  1  0
 16 21  1  0
 17 16  2  0
 18 17  1  0
 18 19  2  0
 19 20  1  0
 20 21  2  0
 24 23  1  0
 25 24  1  0
 26 27  1  0
 26 25  1  0
 27 22  1  0
 27 23  1  0
  2 28  1  0
  5 29  1  6
  8 30  1  0
 11 31  1  0
 11 32  1  0
 12 33  1  0
 12 34  1  0
 13 35  1  0
 13 36  1  0
 14 37  1  0
 14 38  1  0
 15 39  1  0
 15 40  1  0
 17 41  1  0
 18 42  1  0
 20 43  1  0
 22 44  1  0
 23 45  1  0
 24 46  1  0
 24 47  1  0
 25 48  1  0
 25 49  1  0
 26 50  1  0
 26 51  1  0
 27 52  1  6
M  END
>  <Score>  (1) 
-7.4114

$$$$
