
     RDKit          3D

 42 47  0  0  1  0  0  0  0  0999 V2000
   41.0430   28.2110   42.7190 C   0  0  0  0  0  0  0  0  0  0  0  0
   40.4430   27.2860   43.5870 C   0  0  0  0  0  0  0  0  0  0  0  0
   39.0730   27.3670   43.7590 C   0  0  0  0  0  0  0  0  0  0  0  0
   38.4100   28.3360   43.0790 N   0  0  0  0  0  0  0  0  0  0  0  0
   38.9980   29.2140   42.2520 C   0  0  0  0  0  0  0  0  0  0  0  0
   40.3300   29.1650   42.0590 N   0  0  0  0  0  0  0  0  0  0  0  0
   38.1620   30.1660   41.6170 N   0  0  0  0  0  0  0  0  0  0  0  0
   36.8330   29.9410   41.5860 C   0  0  0  0  0  0  0  0  0  0  0  0
   36.2640   30.9720   40.9390 N   0  0  0  0  0  0  0  0  0  0  0  0
   37.1920   31.8470   40.5530 C   0  0  0  0  0  0  0  0  0  0  0  0
   37.2680   33.0500   39.8830 C   0  0  0  0  0  0  0  0  0  0  0  0
   38.4440   33.6780   39.6640 N   0  0  0  0  0  0  0  0  0  0  0  0
   39.5770   33.1240   40.1100 C   0  0  0  0  0  0  0  0  0  0  0  0
   39.5320   31.9460   40.7700 N   0  0  0  0  0  0  0  0  0  0  0  0
   38.3800   31.3290   40.9860 C   0  0  0  0  0  0  0  0  0  0  0  0
   40.8660   33.6980   39.9200 N   0  0  0  0  0  0  0  0  0  0  0  0
   41.3390   34.7780   39.2700 C   0  0  0  0  0  0  0  0  0  0  0  0
   42.6740   34.8410   39.4090 N   0  0  0  0  0  0  0  0  0  0  0  0
   43.0190   33.8000   40.1430 C   0  0  0  0  0  0  0  0  0  0  0  0
   41.9120   33.0810   40.4690 N   0  0  0  0  0  0  0  0  0  0  0  0
   44.3940   33.4190   40.5480 C   0  0  1  0  0  0  0  0  0  0  0  0
   45.5200   34.3940   40.3430 C   0  0  0  0  0  0  0  0  0  0  0  0
   45.0000   34.0340   41.7740 C   0  0  1  0  0  0  0  0  0  0  0  0
   44.4140   35.1900   42.4520 C   0  0  0  0  0  0  0  0  0  0  0  0
   45.2900   35.9900   43.1940 C   0  0  0  0  0  0  0  0  0  0  0  0
   44.8790   37.1140   43.8810 C   0  0  0  0  0  0  0  0  0  0  0  0
   43.5590   37.4530   43.8300 N   0  0  0  0  0  0  0  0  0  0  0  0
   42.7420   36.6510   43.0990 C   0  0  0  0  0  0  0  0  0  0  0  0
   43.1230   35.5530   42.4230 N   0  0  0  0  0  0  0  0  0  0  0  0
   42.1313   28.1636   42.5658 H   0  0  0  0  0  0  0  0  0  0  0  0
   41.0399   26.5250   44.1110 H   0  0  0  0  0  0  0  0  0  0  0  0
   38.5401   26.6708   44.4233 H   0  0  0  0  0  0  0  0  0  0  0  0
   36.3101   29.0722   42.0124 H   0  0  0  0  0  0  0  0  0  0  0  0
   36.3408   33.5134   39.5148 H   0  0  0  0  0  0  0  0  0  0  0  0
   40.7257   35.4993   38.7101 H   0  0  0  0  0  0  0  0  0  0  0  0
   44.2159   32.3823   40.2263 H   0  0  0  0  0  0  0  0  0  0  0  0
   46.5054   34.0397   40.0061 H   0  0  0  0  0  0  0  0  0  0  0  0
   45.6632   35.3208   39.7681 H   0  0  0  0  0  0  0  0  0  0  0  0
   45.3499   33.5819   42.7138 H   0  0  0  0  0  0  0  0  0  0  0  0
   46.3533   35.7106   43.2313 H   0  0  0  0  0  0  0  0  0  0  0  0
   45.5963   37.7199   44.4540 H   0  0  0  0  0  0  0  0  0  0  0  0
   41.6771   36.9233   43.0564 H   0  0  0  0  0  0  0  0  0  0  0  0
  1  2  2  0
  2  3  1  0
  4  3  2  0
  5  4  1  0
  6  5  2  0
  6  1  1  0
  7  5  1  0
  8  7  1  0
  9  8  2  0
 10  9  1  0
 10 15  2  0
 11 10  1  0
 12 11  2  0
 12 13  1  0
 13 14  2  0
 14 15  1  0
 15  7  1  0
 16 13  1  0
 16 20  1  0
 17 18  2  0
 17 16  1  0
 18 19  1  0
 19 20  2  0
 19 21  1  0
 21 23  1  0
 22 21  1  0
 22 23  1  0
 23 24  1  0
 24 25  2  0
 25 26  1  0
 27 26  2  0
 28 27  1  0
 29 24  1  0
 29 28  2  0
  1 30  1  0
  2 31  1  0
  3 32  1  0
  8 33  1  0
 11 34  1  0
 17 35  1  0
 21 36  1  1
 22 37  1  0
 22 38  1  0
 23 39  1  1
 25 40  1  0
 26 41  1  0
 28 42  1  0
M  END
>  <Score>  (1) 
-7.52072

$$$$
