
     RDKit          3D

 56 60  0  0  0  0  0  0  0  0999 V2000
   36.7110   30.0250   41.9420 O   0  0  0  0  0  0  0  0  0  0  0  0
   37.3330   26.5420   41.1080 C   0  0  0  0  0  0  0  0  0  0  0  0
   38.3810   26.2410   41.9810 C   0  0  0  0  0  0  0  0  0  0  0  0
   38.8530   27.2450   42.8420 C   0  0  0  0  0  0  0  0  0  0  0  0
   38.2440   28.4750   42.7670 N   0  0  0  0  0  0  0  0  0  0  0  0
   37.2330   28.7430   41.9140 C   0  0  0  0  0  0  0  0  0  0  0  0
   36.7720   27.7800   41.0800 N   0  0  0  0  0  0  0  0  0  0  0  0
   39.8900   27.0040   43.7270 N   0  0  0  0  0  0  0  0  0  0  0  0
   36.8330   25.5870   40.2280 N   0  0  0  0  0  0  0  0  0  0  0  0
   38.8960   24.8850   41.9230 C   0  0  0  0  0  0  0  0  0  0  0  0
   37.7970   23.8620   41.6080 C   0  0  0  0  0  0  0  0  0  0  0  0
   39.6280   24.3750   43.1170 C   0  0  0  0  0  0  0  0  0  0  0  0
   39.8820   24.8480   40.7580 C   0  0  0  0  0  0  0  0  0  0  0  0
   36.9290   30.9550   40.9520 C   0  0  0  0  0  0  0  0  0  0  0  0
   36.4140   31.3460   39.7720 N   0  0  0  0  0  0  0  0  0  0  0  0
   37.1040   32.3280   39.3010 O   0  0  0  0  0  0  0  0  0  0  0  0
   38.0840   32.6300   40.1260 C   0  0  0  0  0  0  0  0  0  0  0  0
   38.0010   31.7760   41.1820 N   0  0  0  0  0  0  0  0  0  0  0  0
   39.0910   33.6830   39.9580 C   0  0  0  0  0  0  0  0  0  0  0  0
   38.9970   34.9300   40.5070 C   0  0  0  0  0  0  0  0  0  0  0  0
   40.0190   35.8660   40.2860 C   0  0  0  0  0  0  0  0  0  0  0  0
   41.1290   35.5450   39.5150 C   0  0  0  0  0  0  0  0  0  0  0  0
   41.2160   34.2930   38.9690 C   0  0  0  0  0  0  0  0  0  0  0  0
   40.2070   33.3960   39.1970 C   0  0  0  0  0  0  0  0  0  0  0  0
   40.3840   32.0630   38.5700 C   0  0  0  0  0  0  0  0  0  0  0  0
   39.5230   30.9840   38.5640 C   0  0  0  0  0  0  0  0  0  0  0  0
   40.0580   29.9640   37.8810 N   0  0  0  0  0  0  0  0  0  0  0  0
   41.2690   30.3560   37.4320 C   0  0  0  0  0  0  0  0  0  0  0  0
   42.2460   29.7010   36.6720 C   0  0  0  0  0  0  0  0  0  0  0  0
   43.4140   30.3670   36.3550 C   0  0  0  0  0  0  0  0  0  0  0  0
   43.6090   31.6580   36.7800 C   0  0  0  0  0  0  0  0  0  0  0  0
   42.6660   32.3560   37.5400 C   0  0  0  0  0  0  0  0  0  0  0  0
   41.5030   31.6510   37.8390 C   0  0  0  0  0  0  0  0  0  0  0  0
   40.2206   27.7549   44.3497 H   0  0  0  0  0  0  0  0  0  0  0  0
   40.3309   26.0738   43.7627 H   0  0  0  0  0  0  0  0  0  0  0  0
   36.0597   25.8278   39.5917 H   0  0  0  0  0  0  0  0  0  0  0  0
   37.2362   24.6393   40.2129 H   0  0  0  0  0  0  0  0  0  0  0  0
   37.3785   23.4724   42.5477 H   0  0  0  0  0  0  0  0  0  0  0  0
   37.0003   24.3474   41.0252 H   0  0  0  0  0  0  0  0  0  0  0  0
   38.2242   23.0326   41.0252 H   0  0  0  0  0  0  0  0  0  0  0  0
   39.1264   24.7245   44.0315 H   0  0  0  0  0  0  0  0  0  0  0  0
   39.6355   23.2752   43.1004 H   0  0  0  0  0  0  0  0  0  0  0  0
   40.6623   24.7490   43.1004 H   0  0  0  0  0  0  0  0  0  0  0  0
   40.9096   24.8094   41.1485 H   0  0  0  0  0  0  0  0  0  0  0  0
   39.6897   23.9564   40.1431 H   0  0  0  0  0  0  0  0  0  0  0  0
   39.7571   25.7515   40.1431 H   0  0  0  0  0  0  0  0  0  0  0  0
   38.1241   35.1995   41.1197 H   0  0  0  0  0  0  0  0  0  0  0  0
   39.9399   36.8692   40.7301 H   0  0  0  0  0  0  0  0  0  0  0  0
   41.9251   36.2850   39.3460 H   0  0  0  0  0  0  0  0  0  0  0  0
   42.0845   34.0113   38.3555 H   0  0  0  0  0  0  0  0  0  0  0  0
   38.5370   30.9648   39.0513 H   0  0  0  0  0  0  0  0  0  0  0  0
   39.6226   29.0435   37.7258 H   0  0  0  0  0  0  0  0  0  0  0  0
   42.0851   28.6676   36.3312 H   0  0  0  0  0  0  0  0  0  0  0  0
   44.1897   29.8619   35.7607 H   0  0  0  0  0  0  0  0  0  0  0  0
   44.5475   32.1647   36.5109 H   0  0  0  0  0  0  0  0  0  0  0  0
   42.8311   33.3896   37.8781 H   0  0  0  0  0  0  0  0  0  0  0  0
  2  3  2  0
  3  4  1  0
  4  8  1  0
  5  4  2  0
  6  1  1  0
  6  5  1  0
  7  2  1  0
  7  6  2  0
  9  2  1  0
 10  3  1  0
 10 12  1  0
 11 10  1  0
 13 10  1  0
 14 18  1  0
 14  1  1  0
 15 14  2  0
 16 15  1  0
 16 17  1  0
 17 18  2  0
 19 17  1  0
 19 20  2  0
 21 20  1  0
 22 21  2  0
 23 24  2  0
 23 22  1  0
 24 19  1  0
 25 24  1  0
 26 25  2  0
 27 26  1  0
 28 33  2  0
 28 27  1  0
 29 28  1  0
 30 29  2  0
 30 31  1  0
 31 32  2  0
 32 33  1  0
 33 25  1  0
  8 34  1  0
  8 35  1  0
  9 36  1  0
  9 37  1  0
 11 38  1  0
 11 39  1  0
 11 40  1  0
 12 41  1  0
 12 42  1  0
 12 43  1  0
 13 44  1  0
 13 45  1  0
 13 46  1  0
 20 47  1  0
 21 48  1  0
 22 49  1  0
 23 50  1  0
 26 51  1  0
 27 52  1  0
 29 53  1  0
 30 54  1  0
 31 55  1  0
 32 56  1  0
M  END
>  <Score>  (1) 
-7.43464

$$$$
