
     RDKit          3D

 48 52  0  0  0  0  0  0  0  0999 V2000
   39.8810   36.0670   40.5650 S   0  0  0  0  0  0  0  0  0  0  0  0
   43.1780   33.8920   40.1940 C   0  0  0  0  0  0  0  0  0  0  0  0
   44.0460   34.4520   41.1620 C   0  0  0  0  0  0  0  0  0  0  0  0
   43.6180   35.4800   41.9260 C   0  0  0  0  0  0  0  0  0  0  0  0
   42.3620   35.9380   41.7280 N   0  0  0  0  0  0  0  0  0  0  0  0
   41.5370   35.4110   40.8100 C   0  0  0  0  0  0  0  0  0  0  0  0
   41.9450   34.4030   40.0570 N   0  0  0  0  0  0  0  0  0  0  0  0
   44.6160   35.9960   42.8470 C   0  0  0  0  0  0  0  0  0  0  0  0
   44.5250   35.7150   44.2540 C   0  0  0  0  0  0  0  0  0  0  0  0
   45.3050   34.9280   45.0860 N   0  0  0  0  0  0  0  0  0  0  0  0
   46.1990   34.1760   44.4030 C   0  0  0  0  0  0  0  0  0  0  0  0
   47.0910   33.2630   44.9700 C   0  0  0  0  0  0  0  0  0  0  0  0
   47.0780   33.0940   46.3370 C   0  0  0  0  0  0  0  0  0  0  0  0
   47.7940   32.3300   47.0160 O   0  0  0  0  0  0  0  0  0  0  0  0
   46.2090   33.8210   47.0280 N   0  0  0  0  0  0  0  0  0  0  0  0
   45.3810   34.6800   46.4350 C   0  0  0  0  0  0  0  0  0  0  0  0
   44.5360   35.3990   47.0630 O   0  0  0  0  0  0  0  0  0  0  0  0
   37.0850   33.3820   39.8440 N   0  0  0  0  0  0  0  0  0  0  0  0
   37.5060   34.6080   39.7130 N   0  0  0  0  0  0  0  0  0  0  0  0
   38.7340   34.7070   40.2930 C   0  0  0  0  0  0  0  0  0  0  0  0
   38.9880   33.4260   40.7680 C   0  0  0  0  0  0  0  0  0  0  0  0
   37.8930   32.5870   40.4610 C   0  0  0  0  0  0  0  0  0  0  0  0
   37.9170   31.2420   40.8930 C   0  0  0  0  0  0  0  0  0  0  0  0
   38.7020   30.8890   41.9510 N   0  0  0  0  0  0  0  0  0  0  0  0
   38.7960   29.6810   42.4740 C   0  0  0  0  0  0  0  0  0  0  0  0
   38.1110   28.6370   42.0100 N   0  0  0  0  0  0  0  0  0  0  0  0
   37.2930   28.8590   40.9540 C   0  0  0  0  0  0  0  0  0  0  0  0
   36.5620   27.8320   40.4280 C   0  0  0  0  0  0  0  0  0  0  0  0
   35.7130   28.0280   39.3380 C   0  0  0  0  0  0  0  0  0  0  0  0
   35.6550   29.3250   38.8210 C   0  0  0  0  0  0  0  0  0  0  0  0
   36.4220   30.2930   39.4110 C   0  0  0  0  0  0  0  0  0  0  0  0
   37.2480   30.1390   40.4640 C   0  0  0  0  0  0  0  0  0  0  0  0
   43.5087   33.0524   39.5650 H   0  0  0  0  0  0  0  0  0  0  0  0
   45.0627   34.0523   41.2910 H   0  0  0  0  0  0  0  0  0  0  0  0
   45.5876   35.6057   42.5099 H   0  0  0  0  0  0  0  0  0  0  0  0
   44.4562   37.0834   42.8011 H   0  0  0  0  0  0  0  0  0  0  0  0
   44.5666   36.7097   44.7217 H   0  0  0  0  0  0  0  0  0  0  0  0
   43.6677   35.0285   44.1933 H   0  0  0  0  0  0  0  0  0  0  0  0
   46.2254   34.2936   43.3096 H   0  0  0  0  0  0  0  0  0  0  0  0
   47.7881   32.6919   44.3392 H   0  0  0  0  0  0  0  0  0  0  0  0
   46.1736   33.7182   48.0522 H   0  0  0  0  0  0  0  0  0  0  0  0
   36.1730   33.0697   39.4813 H   0  0  0  0  0  0  0  0  0  0  0  0
   39.8989   33.1139   41.2998 H   0  0  0  0  0  0  0  0  0  0  0  0
   39.4694   29.5296   43.3305 H   0  0  0  0  0  0  0  0  0  0  0  0
   36.6443   26.8294   40.8730 H   0  0  0  0  0  0  0  0  0  0  0  0
   35.1213   27.2059   38.9089 H   0  0  0  0  0  0  0  0  0  0  0  0
   35.0097   29.5618   37.9622 H   0  0  0  0  0  0  0  0  0  0  0  0
   36.3571   31.3030   38.9800 H   0  0  0  0  0  0  0  0  0  0  0  0
  1  6  1  0
  2  3  2  0
  3  4  1  0
  4  8  1  0
  5  4  2  0
  6  5  1  0
  7  2  1  0
  7  6  2  0
  8  9  1  0
  9 10  1  0
 10 16  1  0
 11 12  2  0
 11 10  1  0
 12 13  1  0
 13 14  2  0
 13 15  1  0
 16 15  1  0
 16 17  2  0
 18 22  1  0
 19 18  1  0
 19 20  2  0
 20  1  1  0
 20 21  1  0
 22 21  2  0
 22 23  1  0
 23 24  2  0
 24 25  1  0
 26 25  2  0
 27 26  1  0
 28 27  2  0
 29 28  1  0
 30 29  2  0
 30 31  1  0
 31 32  2  0
 32 23  1  0
 32 27  1  0
  2 33  1  0
  3 34  1  0
  8 35  1  0
  8 36  1  0
  9 37  1  0
  9 38  1  0
 11 39  1  0
 12 40  1  0
 15 41  1  0
 18 42  1  0
 21 43  1  0
 25 44  1  0
 28 45  1  0
 29 46  1  0
 30 47  1  0
 31 48  1  0
M  END
>  <Score>  (1) 
-8.0083

$$$$
