
 OpenBabel03272514373D

 32 37  0  0  0  0  0  0  0  0999 V2000
   36.3510   29.6740   31.5110 C   0  0  0  0  0  3  0  0  0  0  0  0
   36.7590   28.3510   31.6860 C   0  0  0  0  0  3  0  0  0  0  0  0
   36.6640   27.7920   32.9620 C   0  0  0  0  0  0  0  0  0  0  0  0
   36.1830   28.5510   33.9730 N   0  0  0  0  0  0  0  0  0  0  0  0
   35.7910   29.8400   33.7660 C   0  0  0  0  0  0  0  0  0  0  0  0
   35.8750   30.3920   32.5520 N   0  0  0  0  0  0  0  0  0  0  0  0
   35.2880   30.5670   34.9210 C   0  0  0  0  0  0  0  0  0  0  0  0
   36.1040   31.3380   35.7570 C   0  0  0  0  0  3  0  0  0  0  0  0
   35.3640   31.8880   36.7270 N   0  0  0  0  0  0  0  0  0  0  0  0
   34.0780   31.4980   36.5500 C   0  0  0  0  0  0  0  0  0  0  0  0
   32.9370   31.7890   37.2720 C   0  0  0  0  0  3  0  0  0  0  0  0
   31.7340   31.2280   36.8350 C   0  0  0  0  0  3  0  0  0  0  0  0
   31.7110   30.4120   35.7130 C   0  0  0  0  0  3  0  0  0  0  0  0
   32.8590   30.1150   34.9810 C   0  0  0  0  0  3  0  0  0  0  0  0
   34.0260   30.6780   35.4320 C   0  0  0  0  0  0  0  0  0  0  0  0
   35.7120   32.5020   37.4770 H   0  0  0  0  0  0  0  0  0  0  0  0
   37.0770   26.4220   33.1840 C   0  0  0  0  0  0  0  0  0  0  0  0
   37.0730   25.5420   32.1350 C   0  0  0  0  0  3  0  0  0  0  0  0
   37.4860   24.2640   32.4120 C   0  0  0  0  0  3  0  0  0  0  0  0
   37.8790   23.8920   33.6630 N   0  0  0  0  0  0  0  0  0  0  0  0
   37.8750   24.7880   34.6870 C   0  0  0  0  0  0  0  0  0  0  0  0
   37.4650   26.0210   34.3780 N   0  0  0  0  0  0  0  0  0  0  0  0
   38.3150   24.2390   35.9430 C   0  0  0  0  0  0  0  0  0  0  0  0
   37.5880   24.5030   37.0850 C   0  0  0  0  0  3  0  0  0  0  0  0
   37.9190   24.0290   38.3320 C   0  0  0  0  0  3  0  0  0  0  0  0
   39.0250   23.2440   38.5220 C   0  0  0  0  0  3  0  0  0  0  0  0
   39.7920   22.9450   37.4230 C   0  0  0  0  0  0  0  0  0  0  0  0
   40.9140   22.1590   37.5660 C   0  0  0  0  0  3  0  0  0  0  0  0
   41.7150   21.8290   36.4910 C   0  0  0  0  0  3  0  0  0  0  0  0
   41.3400   22.3320   35.2410 C   0  0  0  0  0  3  0  0  0  0  0  0
   40.2150   23.1120   35.1480 C   0  0  0  0  0  3  0  0  0  0  0  0
   39.4070   23.4500   36.2040 C   0  0  0  0  0  0  0  0  0  0  0  0
  1  2  2  0  0  0  0
  1  6  1  0  0  0  0
  2  3  1  0  0  0  0
  3 17  1  0  0  0  0
  3  4  2  0  0  0  0
  5  4  1  0  0  0  0
  5  7  1  0  0  0  0
  6  5  2  0  0  0  0
  7 15  1  0  0  0  0
  7  8  2  0  0  0  0
  8  9  1  0  0  0  0
  9 16  1  0  0  0  0
 10  9  1  0  0  0  0
 10 11  1  0  0  0  0
 12 11  2  0  0  0  0
 13 12  1  0  0  0  0
 14 15  1  0  0  0  0
 14 13  2  0  0  0  0
 15 10  2  0  0  0  0
 17 22  1  0  0  0  0
 18 19  1  0  0  0  0
 18 17  2  0  0  0  0
 19 20  2  0  0  0  0
 20 21  1  0  0  0  0
 21 23  1  0  0  0  0
 22 21  2  0  0  0  0
 23 32  2  0  0  0  0
 23 24  1  0  0  0  0
 24 25  2  0  0  0  0
 25 26  1  0  0  0  0
 27 28  1  0  0  0  0
 27 26  2  0  0  0  0
 29 28  2  0  0  0  0
 30 29  1  0  0  0  0
 31 30  2  0  0  0  0
 31 32  1  0  0  0  0
 32 27  1  0  0  0  0
M  END
>  <minimizedAffinity>
-8.44386768

$$$$

 OpenBabel03272514373D

 32 37  0  0  0  0  0  0  0  0999 V2000
   36.5030   24.0850   31.7240 C   0  0  0  0  0  3  0  0  0  0  0  0
   36.2040   25.4470   31.6760 C   0  0  0  0  0  3  0  0  0  0  0  0
   36.8000   26.2890   32.6180 C   0  0  0  0  0  0  0  0  0  0  0  0
   37.6390   25.7530   33.5340 N   0  0  0  0  0  0  0  0  0  0  0  0
   37.9100   24.4180   33.5510 C   0  0  0  0  0  0  0  0  0  0  0  0
   37.3490   23.5960   32.6570 N   0  0  0  0  0  0  0  0  0  0  0  0
   38.8250   23.9460   34.5770 C   0  0  0  0  0  0  0  0  0  0  0  0
   40.1360   23.5340   34.3060 C   0  0  0  0  0  3  0  0  0  0  0  0
   40.7350   23.1600   35.4420 N   0  0  0  0  0  0  0  0  0  0  0  0
   39.8510   23.3150   36.4570 C   0  0  0  0  0  0  0  0  0  0  0  0
   39.9760   23.0740   37.8120 C   0  0  0  0  0  3  0  0  0  0  0  0
   38.8690   23.3370   38.6220 C   0  0  0  0  0  3  0  0  0  0  0  0
   37.6950   23.8240   38.0640 C   0  0  0  0  0  3  0  0  0  0  0  0
   37.5630   24.0690   36.6980 C   0  0  0  0  0  3  0  0  0  0  0  0
   38.6650   23.8020   35.9260 C   0  0  0  0  0  0  0  0  0  0  0  0
   41.7010   22.8140   35.5300 H   0  0  0  0  0  0  0  0  0  0  0  0
   36.5160   27.7090   32.6000 C   0  0  0  0  0  0  0  0  0  0  0  0
   36.8180   28.4400   31.4830 C   0  0  0  0  0  3  0  0  0  0  0  0
   36.5120   29.7750   31.5300 C   0  0  0  0  0  3  0  0  0  0  0  0
   35.9390   30.3430   32.6290 N   0  0  0  0  0  0  0  0  0  0  0  0
   35.6490   29.5920   33.7260 C   0  0  0  0  0  0  0  0  0  0  0  0
   35.9620   28.2960   33.6420 N   0  0  0  0  0  0  0  0  0  0  0  0
   35.0500   30.3390   34.8010 C   0  0  0  0  0  0  0  0  0  0  0  0
   35.8300   31.2150   35.5280 C   0  0  0  0  0  3  0  0  0  0  0  0
   35.3590   31.9760   36.5720 C   0  0  0  0  0  3  0  0  0  0  0  0
   34.0490   31.9080   36.9650 C   0  0  0  0  0  3  0  0  0  0  0  0
   33.2210   31.0530   36.2810 C   0  0  0  0  0  0  0  0  0  0  0  0
   31.8950   30.9510   36.6410 C   0  0  0  0  0  3  0  0  0  0  0  0
   31.0230   30.1070   35.9820 C   0  0  0  0  0  3  0  0  0  0  0  0
   31.5440   29.3530   34.9260 C   0  0  0  0  0  3  0  0  0  0  0  0
   32.8710   29.4870   34.6050 C   0  0  0  0  0  3  0  0  0  0  0  0
   33.7530   30.3190   35.2470 C   0  0  0  0  0  0  0  0  0  0  0  0
  1  6  1  0  0  0  0
  2  1  2  0  0  0  0
  2  3  1  0  0  0  0
  3  4  2  0  0  0  0
  4  5  1  0  0  0  0
  5  7  1  0  0  0  0
  6  5  2  0  0  0  0
  7 15  1  0  0  0  0
  8  7  2  0  0  0  0
  8  9  1  0  0  0  0
  9 16  1  0  0  0  0
  9 10  1  0  0  0  0
 10 11  1  0  0  0  0
 11 12  2  0  0  0  0
 13 12  1  0  0  0  0
 14 13  2  0  0  0  0
 15 10  2  0  0  0  0
 15 14  1  0  0  0  0
 17  3  1  0  0  0  0
 17 22  1  0  0  0  0
 18 19  1  0  0  0  0
 18 17  2  0  0  0  0
 19 20  2  0  0  0  0
 20 21  1  0  0  0  0
 21 23  1  0  0  0  0
 22 21  2  0  0  0  0
 23 32  2  0  0  0  0
 23 24  1  0  0  0  0
 24 25  2  0  0  0  0
 25 26  1  0  0  0  0
 27 28  1  0  0  0  0
 27 26  2  0  0  0  0
 29 28  2  0  0  0  0
 30 29  1  0  0  0  0
 31 30  2  0  0  0  0
 31 32  1  0  0  0  0
 32 27  1  0  0  0  0
M  END
>  <minimizedAffinity>
-8.1822443

$$$$

 OpenBabel03272514373D

 32 37  0  0  0  0  0  0  0  0999 V2000
   36.4730   29.2030   30.8730 C   0  0  0  0  0  3  0  0  0  0  0  0
   37.0260   27.9530   31.1510 C   0  0  0  0  0  3  0  0  0  0  0  0
   36.6570   27.3140   32.3370 C   0  0  0  0  0  0  0  0  0  0  0  0
   35.7830   27.9310   33.1640 N   0  0  0  0  0  0  0  0  0  0  0  0
   35.2600   29.1520   32.8610 C   0  0  0  0  0  0  0  0  0  0  0  0
   35.6020   29.7780   31.7300 N   0  0  0  0  0  0  0  0  0  0  0  0
   34.3290   29.7250   33.8200 C   0  0  0  0  0  0  0  0  0  0  0  0
   32.9560   29.4510   33.8130 C   0  0  0  0  0  3  0  0  0  0  0  0
   32.3600   30.1140   34.8100 N   0  0  0  0  0  0  0  0  0  0  0  0
   33.3070   30.8190   35.4760 C   0  0  0  0  0  0  0  0  0  0  0  0
   33.2100   31.6550   36.5710 C   0  0  0  0  0  3  0  0  0  0  0  0
   34.3850   32.2480   37.0380 C   0  0  0  0  0  3  0  0  0  0  0  0
   35.5950   31.9920   36.4090 C   0  0  0  0  0  3  0  0  0  0  0  0
   35.6980   31.1500   35.3020 C   0  0  0  0  0  3  0  0  0  0  0  0
   34.5300   30.5810   34.8650 C   0  0  0  0  0  0  0  0  0  0  0  0
   31.3540   30.0920   35.0340 H   0  0  0  0  0  0  0  0  0  0  0  0
   37.2090   26.0150   32.6600 C   0  0  0  0  0  0  0  0  0  0  0  0
   37.4200   25.1070   31.6570 C   0  0  0  0  0  3  0  0  0  0  0  0
   37.9540   23.9010   32.0320 C   0  0  0  0  0  3  0  0  0  0  0  0
   38.2590   23.6230   33.3310 N   0  0  0  0  0  0  0  0  0  0  0  0
   38.0400   24.5450   34.3080 C   0  0  0  0  0  0  0  0  0  0  0  0
   37.5180   25.7060   33.9030 N   0  0  0  0  0  0  0  0  0  0  0  0
   38.4130   24.0990   35.6240 C   0  0  0  0  0  0  0  0  0  0  0  0
   37.6250   24.4470   36.7010 C   0  0  0  0  0  3  0  0  0  0  0  0
   37.8890   24.0740   37.9980 C   0  0  0  0  0  3  0  0  0  0  0  0
   38.9830   23.3120   38.3080 C   0  0  0  0  0  3  0  0  0  0  0  0
   39.8090   22.9320   37.2780 C   0  0  0  0  0  0  0  0  0  0  0  0
   40.9220   22.1650   37.5430 C   0  0  0  0  0  3  0  0  0  0  0  0
   41.7810   21.7560   36.5410 C   0  0  0  0  0  3  0  0  0  0  0  0
   41.4740   22.1580   35.2370 C   0  0  0  0  0  3  0  0  0  0  0  0
   40.3540   22.9230   35.0240 C   0  0  0  0  0  3  0  0  0  0  0  0
   39.4890   23.3380   36.0040 C   0  0  0  0  0  0  0  0  0  0  0  0
  1  2  2  0  0  0  0
  1  6  1  0  0  0  0
  2  3  1  0  0  0  0
  3 17  1  0  0  0  0
  3  4  2  0  0  0  0
  5  4  1  0  0  0  0
  5  7  1  0  0  0  0
  6  5  2  0  0  0  0
  7 15  1  0  0  0  0
  8  7  2  0  0  0  0
  8  9  1  0  0  0  0
  9 16  1  0  0  0  0
  9 10  1  0  0  0  0
 10 11  1  0  0  0  0
 11 12  2  0  0  0  0
 13 12  1  0  0  0  0
 14 13  2  0  0  0  0
 15 14  1  0  0  0  0
 15 10  2  0  0  0  0
 17 22  1  0  0  0  0
 18 19  1  0  0  0  0
 18 17  2  0  0  0  0
 19 20  2  0  0  0  0
 20 21  1  0  0  0  0
 21 23  1  0  0  0  0
 22 21  2  0  0  0  0
 23 32  2  0  0  0  0
 23 24  1  0  0  0  0
 24 25  2  0  0  0  0
 25 26  1  0  0  0  0
 27 28  1  0  0  0  0
 27 26  2  0  0  0  0
 29 28  2  0  0  0  0
 30 29  1  0  0  0  0
 31 30  2  0  0  0  0
 31 32  1  0  0  0  0
 32 27  1  0  0  0  0
M  END
>  <minimizedAffinity>
-8.0483551

$$$$

 OpenBabel03272514373D

 32 37  0  0  0  0  0  0  0  0999 V2000
   36.4470   29.9960   31.3340 C   0  0  0  0  0  3  0  0  0  0  0  0
   36.7370   28.6310   31.3680 C   0  0  0  0  0  3  0  0  0  0  0  0
   36.5350   27.9400   32.5640 C   0  0  0  0  0  0  0  0  0  0  0  0
   36.0690   28.6180   33.6380 N   0  0  0  0  0  0  0  0  0  0  0  0
   35.7950   29.9510   33.5700 C   0  0  0  0  0  0  0  0  0  0  0  0
   35.9830   30.6290   32.4330 N   0  0  0  0  0  0  0  0  0  0  0  0
   35.2980   30.5820   34.7820 C   0  0  0  0  0  0  0  0  0  0  0  0
   36.1140   31.3040   35.6610 C   0  0  0  0  0  3  0  0  0  0  0  0
   35.3810   31.7690   36.6790 N   0  0  0  0  0  0  0  0  0  0  0  0
   34.0990   31.3710   36.4920 C   0  0  0  0  0  0  0  0  0  0  0  0
   32.9640   31.5880   37.2490 C   0  0  0  0  0  3  0  0  0  0  0  0
   31.7640   31.0410   36.7900 C   0  0  0  0  0  3  0  0  0  0  0  0
   31.7360   30.3100   35.6110 C   0  0  0  0  0  3  0  0  0  0  0  0
   32.8780   30.0870   34.8430 C   0  0  0  0  0  3  0  0  0  0  0  0
   34.0420   30.6340   35.3180 C   0  0  0  0  0  0  0  0  0  0  0  0
   35.7300   32.3320   37.4680 H   0  0  0  0  0  0  0  0  0  0  0  0
   36.8220   26.5230   32.6380 C   0  0  0  0  0  0  0  0  0  0  0  0
   36.1190   25.6530   31.8490 C   0  0  0  0  0  3  0  0  0  0  0  0
   36.4500   24.3270   31.9610 C   0  0  0  0  0  3  0  0  0  0  0  0
   37.4260   23.9000   32.8110 N   0  0  0  0  0  0  0  0  0  0  0  0
   38.1100   24.7870   33.5840 C   0  0  0  0  0  0  0  0  0  0  0  0
   37.7580   26.0680   33.4470 N   0  0  0  0  0  0  0  0  0  0  0  0
   39.1040   24.1780   34.4280 C   0  0  0  0  0  0  0  0  0  0  0  0
   40.3170   23.8120   33.8820 C   0  0  0  0  0  3  0  0  0  0  0  0
   41.3350   23.2250   34.5970 C   0  0  0  0  0  3  0  0  0  0  0  0
   41.2010   22.9580   35.9330 C   0  0  0  0  0  3  0  0  0  0  0  0
   40.0150   23.2990   36.5360 C   0  0  0  0  0  0  0  0  0  0  0  0
   39.8350   23.0500   37.8790 C   0  0  0  0  0  3  0  0  0  0  0  0
   38.6620   23.3750   38.5300 C   0  0  0  0  0  3  0  0  0  0  0  0
   37.6540   23.9720   37.7650 C   0  0  0  0  0  3  0  0  0  0  0  0
   37.8800   24.1990   36.4300 C   0  0  0  0  0  3  0  0  0  0  0  0
   39.0370   23.8830   35.7660 C   0  0  0  0  0  0  0  0  0  0  0  0
  1  2  2  0  0  0  0
  1  6  1  0  0  0  0
  2  3  1  0  0  0  0
  3 17  1  0  0  0  0
  3  4  2  0  0  0  0
  5  4  1  0  0  0  0
  5  7  1  0  0  0  0
  6  5  2  0  0  0  0
  7 15  1  0  0  0  0
  7  8  2  0  0  0  0
  8  9  1  0  0  0  0
  9 16  1  0  0  0  0
 10  9  1  0  0  0  0
 10 11  1  0  0  0  0
 12 11  2  0  0  0  0
 13 12  1  0  0  0  0
 14 15  1  0  0  0  0
 14 13  2  0  0  0  0
 15 10  2  0  0  0  0
 17 22  1  0  0  0  0
 18 19  1  0  0  0  0
 18 17  2  0  0  0  0
 19 20  2  0  0  0  0
 20 21  1  0  0  0  0
 21 23  1  0  0  0  0
 22 21  2  0  0  0  0
 23 32  1  0  0  0  0
 24 23  2  0  0  0  0
 24 25  1  0  0  0  0
 25 26  2  0  0  0  0
 26 27  1  0  0  0  0
 27 28  1  0  0  0  0
 28 29  2  0  0  0  0
 30 29  1  0  0  0  0
 31 30  2  0  0  0  0
 32 31  1  0  0  0  0
 32 27  2  0  0  0  0
M  END
>  <minimizedAffinity>
-7.99729872

$$$$

 OpenBabel03272514373D

 32 37  0  0  0  0  0  0  0  0999 V2000
   38.6250   24.7850   35.2490 C   0  0  0  0  0  3  0  0  0  0  0  0
   38.1080   26.0470   34.9530 C   0  0  0  0  0  3  0  0  0  0  0  0
   37.3930   26.2070   33.7650 C   0  0  0  0  0  0  0  0  0  0  0  0
   37.2290   25.1370   32.9520 N   0  0  0  0  0  0  0  0  0  0  0  0
   37.7470   23.9180   33.2740 C   0  0  0  0  0  0  0  0  0  0  0  0
   38.4350   23.7470   34.4070 N   0  0  0  0  0  0  0  0  0  0  0  0
   37.5130   22.8360   32.3310 C   0  0  0  0  0  0  0  0  0  0  0  0
   38.0600   22.8100   31.0430 C   0  0  0  0  0  3  0  0  0  0  0  0
   37.6760   21.6940   30.4120 N   0  0  0  0  0  0  0  0  0  0  0  0
   36.8870   20.9830   31.2550 C   0  0  0  0  0  0  0  0  0  0  0  0
   36.2450   19.7720   31.0870 C   0  0  0  0  0  3  0  0  0  0  0  0
   35.4900   19.2850   32.1570 C   0  0  0  0  0  3  0  0  0  0  0  0
   35.4040   20.0100   33.3370 C   0  0  0  0  0  3  0  0  0  0  0  0
   36.0490   21.2330   33.5110 C   0  0  0  0  0  3  0  0  0  0  0  0
   36.7830   21.6880   32.4450 C   0  0  0  0  0  0  0  0  0  0  0  0
   37.9350   21.4220   29.4530 H   0  0  0  0  0  0  0  0  0  0  0  0
   36.8390   27.5010   33.4220 C   0  0  0  0  0  0  0  0  0  0  0  0
   36.8750   27.9230   32.1200 C   0  0  0  0  0  3  0  0  0  0  0  0
   36.3250   29.1520   31.8640 C   0  0  0  0  0  3  0  0  0  0  0  0
   35.7720   29.9110   32.8530 N   0  0  0  0  0  0  0  0  0  0  0  0
   35.7490   29.4660   34.1390 C   0  0  0  0  0  0  0  0  0  0  0  0
   36.2950   28.2650   34.3470 N   0  0  0  0  0  0  0  0  0  0  0  0
   35.1330   30.3840   35.0610 C   0  0  0  0  0  0  0  0  0  0  0  0
   35.8820   31.4180   35.5830 C   0  0  0  0  0  3  0  0  0  0  0  0
   35.3940   32.3490   36.4690 C   0  0  0  0  0  3  0  0  0  0  0  0
   34.0950   32.3040   36.9000 C   0  0  0  0  0  3  0  0  0  0  0  0
   33.2960   31.2970   36.4170 C   0  0  0  0  0  0  0  0  0  0  0  0
   31.9830   31.2120   36.8230 C   0  0  0  0  0  3  0  0  0  0  0  0
   31.1400   30.2190   36.3640 C   0  0  0  0  0  3  0  0  0  0  0  0
   31.6780   29.2940   35.4630 C   0  0  0  0  0  3  0  0  0  0  0  0
   32.9930   29.4190   35.0890 C   0  0  0  0  0  3  0  0  0  0  0  0
   33.8450   30.3980   35.5340 C   0  0  0  0  0  0  0  0  0  0  0  0
  2  1  1  0  0  0  0
  3  2  2  0  0  0  0
  4  5  2  0  0  0  0
  4  3  1  0  0  0  0
  5  6  1  0  0  0  0
  6  1  2  0  0  0  0
  7 15  1  0  0  0  0
  7  5  1  0  0  0  0
  8  7  2  0  0  0  0
  9  8  1  0  0  0  0
  9 10  1  0  0  0  0
 10 15  1  0  0  0  0
 11 10  2  0  0  0  0
 11 12  1  0  0  0  0
 12 13  2  0  0  0  0
 13 14  1  0  0  0  0
 15 14  2  0  0  0  0
 16  9  1  0  0  0  0
 17  3  1  0  0  0  0
 17 22  1  0  0  0  0
 18 17  2  0  0  0  0
 19 18  1  0  0  0  0
 19 20  2  0  0  0  0
 20 21  1  0  0  0  0
 21 22  2  0  0  0  0
 21 23  1  0  0  0  0
 23 32  2  0  0  0  0
 23 24  1  0  0  0  0
 24 25  2  0  0  0  0
 25 26  1  0  0  0  0
 27 28  1  0  0  0  0
 27 26  2  0  0  0  0
 29 28  2  0  0  0  0
 30 29  1  0  0  0  0
 31 30  2  0  0  0  0
 31 32  1  0  0  0  0
 32 27  1  0  0  0  0
M  END
>  <minimizedAffinity>
-7.73822689

$$$$

 OpenBabel03272514373D

 32 37  0  0  0  0  0  0  0  0999 V2000
   40.3240   25.7360   31.8060 C   0  0  0  0  0  3  0  0  0  0  0  0
   39.3990   26.7090   31.4250 C   0  0  0  0  0  3  0  0  0  0  0  0
   38.3580   27.0120   32.3060 C   0  0  0  0  0  0  0  0  0  0  0  0
   38.2890   26.3540   33.4860 N   0  0  0  0  0  0  0  0  0  0  0  0
   39.2110   25.4110   33.8260 C   0  0  0  0  0  0  0  0  0  0  0  0
   40.2140   25.1070   32.9960 N   0  0  0  0  0  0  0  0  0  0  0  0
   39.0440   24.7640   35.1180 C   0  0  0  0  0  0  0  0  0  0  0  0
   37.9420   24.9890   35.9510 C   0  0  0  0  0  3  0  0  0  0  0  0
   38.0620   24.2560   37.0640 N   0  0  0  0  0  0  0  0  0  0  0  0
   39.2170   23.5530   36.9840 C   0  0  0  0  0  0  0  0  0  0  0  0
   39.7950   22.6590   37.8650 C   0  0  0  0  0  3  0  0  0  0  0  0
   41.0140   22.0830   37.4980 C   0  0  0  0  0  3  0  0  0  0  0  0
   41.6050   22.4140   36.2870 C   0  0  0  0  0  3  0  0  0  0  0  0
   41.0270   23.3160   35.3940 C   0  0  0  0  0  3  0  0  0  0  0  0
   39.8310   23.8650   35.7800 C   0  0  0  0  0  0  0  0  0  0  0  0
   37.3910   24.2300   37.8450 H   0  0  0  0  0  0  0  0  0  0  0  0
   37.3780   28.0170   31.9480 C   0  0  0  0  0  0  0  0  0  0  0  0
   37.4590   28.6280   30.7250 C   0  0  0  0  0  3  0  0  0  0  0  0
   36.4940   29.5600   30.4460 C   0  0  0  0  0  3  0  0  0  0  0  0
   35.5080   29.8620   31.3390 N   0  0  0  0  0  0  0  0  0  0  0  0
   35.4510   29.2380   32.5470 C   0  0  0  0  0  0  0  0  0  0  0  0
   36.4090   28.3370   32.7810 N   0  0  0  0  0  0  0  0  0  0  0  0
   34.3540   29.6680   33.3730 C   0  0  0  0  0  0  0  0  0  0  0  0
   33.0690   29.3010   33.0290 C   0  0  0  0  0  3  0  0  0  0  0  0
   31.9510   29.6570   33.7470 C   0  0  0  0  0  3  0  0  0  0  0  0
   32.0490   30.4210   34.8790 C   0  0  0  0  0  3  0  0  0  0  0  0
   33.3020   30.8190   35.2740 C   0  0  0  0  0  0  0  0  0  0  0  0
   33.4490   31.5890   36.4070 C   0  0  0  0  0  3  0  0  0  0  0  0
   34.6880   32.0130   36.8460 C   0  0  0  0  0  3  0  0  0  0  0  0
   35.7970   31.6270   36.0860 C   0  0  0  0  0  3  0  0  0  0  0  0
   35.6010   30.8610   34.9640 C   0  0  0  0  0  3  0  0  0  0  0  0
   34.3790   30.4300   34.5130 C   0  0  0  0  0  0  0  0  0  0  0  0
  1  6  1  0  0  0  0
  2  1  2  0  0  0  0
  2  3  1  0  0  0  0
  3  4  2  0  0  0  0
  4  5  1  0  0  0  0
  5  7  1  0  0  0  0
  6  5  2  0  0  0  0
  7 15  1  0  0  0  0
  7  8  2  0  0  0  0
  8  9  1  0  0  0  0
  9 16  1  0  0  0  0
 10  9  1  0  0  0  0
 10 11  1  0  0  0  0
 12 11  2  0  0  0  0
 13 12  1  0  0  0  0
 14 15  1  0  0  0  0
 14 13  2  0  0  0  0
 15 10  2  0  0  0  0
 17  3  1  0  0  0  0
 17 22  1  0  0  0  0
 18 17  2  0  0  0  0
 19 18  1  0  0  0  0
 19 20  2  0  0  0  0
 20 21  1  0  0  0  0
 21 22  2  0  0  0  0
 21 23  1  0  0  0  0
 23 32  1  0  0  0  0
 24 23  2  0  0  0  0
 24 25  1  0  0  0  0
 25 26  2  0  0  0  0
 26 27  1  0  0  0  0
 27 28  1  0  0  0  0
 28 29  2  0  0  0  0
 30 29  1  0  0  0  0
 31 30  2  0  0  0  0
 32 31  1  0  0  0  0
 32 27  2  0  0  0  0
M  END
>  <minimizedAffinity>
-7.70866013

$$$$

 OpenBabel03272514373D

 32 37  0  0  0  0  0  0  0  0999 V2000
   40.0470   25.6560   31.3130 C   0  0  0  0  0  3  0  0  0  0  0  0
   39.2460   26.7910   31.1730 C   0  0  0  0  0  3  0  0  0  0  0  0
   37.9470   26.7510   31.6840 C   0  0  0  0  0  0  0  0  0  0  0  0
   37.5200   25.6200   32.2910 N   0  0  0  0  0  0  0  0  0  0  0  0
   38.3290   24.5310   32.4110 C   0  0  0  0  0  0  0  0  0  0  0  0
   39.5760   24.5510   31.9280 N   0  0  0  0  0  0  0  0  0  0  0  0
   37.7710   23.3670   33.0810 C   0  0  0  0  0  0  0  0  0  0  0  0
   38.1140   22.9940   34.3860 C   0  0  0  0  0  3  0  0  0  0  0  0
   37.4400   21.8920   34.7320 N   0  0  0  0  0  0  0  0  0  0  0  0
   36.6590   21.5280   33.6860 C   0  0  0  0  0  0  0  0  0  0  0  0
   35.7810   20.4720   33.5360 C   0  0  0  0  0  3  0  0  0  0  0  0
   35.1070   20.3580   32.3180 C   0  0  0  0  0  3  0  0  0  0  0  0
   35.3280   21.2840   31.3090 C   0  0  0  0  0  3  0  0  0  0  0  0
   36.2130   22.3510   31.4540 C   0  0  0  0  0  3  0  0  0  0  0  0
   36.8610   22.4390   32.6590 C   0  0  0  0  0  0  0  0  0  0  0  0
   37.5040   21.4040   35.6370 H   0  0  0  0  0  0  0  0  0  0  0  0
   37.0860   27.9080   31.5600 C   0  0  0  0  0  0  0  0  0  0  0  0
   37.2200   28.7320   30.4750 C   0  0  0  0  0  3  0  0  0  0  0  0
   36.3650   29.8020   30.4140 C   0  0  0  0  0  3  0  0  0  0  0  0
   35.4330   30.0320   31.3820 N   0  0  0  0  0  0  0  0  0  0  0  0
   35.3210   29.1960   32.4510 C   0  0  0  0  0  0  0  0  0  0  0  0
   36.1710   28.1660   32.4730 N   0  0  0  0  0  0  0  0  0  0  0  0
   34.2920   29.5770   33.3820 C   0  0  0  0  0  0  0  0  0  0  0  0
   32.9970   29.1570   33.1620 C   0  0  0  0  0  3  0  0  0  0  0  0
   31.9400   29.4630   33.9880 C   0  0  0  0  0  3  0  0  0  0  0  0
   32.1150   30.2270   35.1100 C   0  0  0  0  0  3  0  0  0  0  0  0
   33.3840   30.6770   35.3850 C   0  0  0  0  0  0  0  0  0  0  0  0
   33.6080   31.4490   36.5030 C   0  0  0  0  0  3  0  0  0  0  0  0
   34.8650   31.9230   36.8230 C   0  0  0  0  0  3  0  0  0  0  0  0
   35.9100   31.5870   35.9560 C   0  0  0  0  0  3  0  0  0  0  0  0
   35.6370   30.8160   34.8530 C   0  0  0  0  0  3  0  0  0  0  0  0
   34.3970   30.3360   34.5200 C   0  0  0  0  0  0  0  0  0  0  0  0
  1  6  1  0  0  0  0
  2  1  2  0  0  0  0
  2  3  1  0  0  0  0
  3  4  2  0  0  0  0
  4  5  1  0  0  0  0
  5  7  1  0  0  0  0
  6  5  2  0  0  0  0
  7  8  2  0  0  0  0
  8  9  1  0  0  0  0
  9 16  1  0  0  0  0
 10  9  1  0  0  0  0
 11 10  1  0  0  0  0
 12 11  2  0  0  0  0
 13 14  2  0  0  0  0
 13 12  1  0  0  0  0
 14 15  1  0  0  0  0
 15  7  1  0  0  0  0
 15 10  2  0  0  0  0
 17  3  1  0  0  0  0
 17 22  1  0  0  0  0
 18 17  2  0  0  0  0
 19 18  1  0  0  0  0
 19 20  2  0  0  0  0
 20 21  1  0  0  0  0
 21 22  2  0  0  0  0
 21 23  1  0  0  0  0
 23 32  1  0  0  0  0
 24 23  2  0  0  0  0
 24 25  1  0  0  0  0
 25 26  2  0  0  0  0
 26 27  1  0  0  0  0
 27 28  1  0  0  0  0
 28 29  2  0  0  0  0
 30 29  1  0  0  0  0
 31 30  2  0  0  0  0
 32 31  1  0  0  0  0
 32 27  2  0  0  0  0
M  END
>  <minimizedAffinity>
-7.61731958

$$$$

 OpenBabel03272514373D

 32 37  0  0  0  0  0  0  0  0999 V2000
   36.0880   29.2970   31.6040 C   0  0  0  0  0  3  0  0  0  0  0  0
   36.6140   28.0370   31.8890 C   0  0  0  0  0  3  0  0  0  0  0  0
   36.6700   27.6290   33.2240 C   0  0  0  0  0  0  0  0  0  0  0  0
   36.2130   28.4680   34.1820 N   0  0  0  0  0  0  0  0  0  0  0  0
   35.7030   29.6910   33.8670 C   0  0  0  0  0  0  0  0  0  0  0  0
   35.6430   30.0990   32.5950 N   0  0  0  0  0  0  0  0  0  0  0  0
   35.2400   30.5140   34.9730 C   0  0  0  0  0  0  0  0  0  0  0  0
   36.0960   31.2890   35.7650 C   0  0  0  0  0  3  0  0  0  0  0  0
   35.3860   31.9370   36.6950 N   0  0  0  0  0  0  0  0  0  0  0  0
   34.0820   31.6080   36.5370 C   0  0  0  0  0  0  0  0  0  0  0  0
   32.9570   32.0040   37.2350 C   0  0  0  0  0  3  0  0  0  0  0  0
   31.7260   31.4840   36.8290 C   0  0  0  0  0  3  0  0  0  0  0  0
   31.6590   30.6040   35.7590 C   0  0  0  0  0  3  0  0  0  0  0  0
   32.7900   30.2000   35.0510 C   0  0  0  0  0  3  0  0  0  0  0  0
   33.9850   30.7250   35.4710 C   0  0  0  0  0  0  0  0  0  0  0  0
   35.7660   32.5760   37.4080 H   0  0  0  0  0  0  0  0  0  0  0  0
   37.2090   26.3270   33.5600 C   0  0  0  0  0  0  0  0  0  0  0  0
   37.6340   26.0870   34.8390 C   0  0  0  0  0  3  0  0  0  0  0  0
   38.1220   24.8310   35.0920 C   0  0  0  0  0  3  0  0  0  0  0  0
   38.1800   23.8750   34.1220 N   0  0  0  0  0  0  0  0  0  0  0  0
   37.7490   24.1410   32.8580 C   0  0  0  0  0  0  0  0  0  0  0  0
   37.2820   25.3750   32.6520 N   0  0  0  0  0  0  0  0  0  0  0  0
   37.8780   23.0290   31.9540 C   0  0  0  0  0  0  0  0  0  0  0  0
   38.9830   22.9560   31.1310 C   0  0  0  0  0  3  0  0  0  0  0  0
   39.2050   21.9390   30.2320 C   0  0  0  0  0  3  0  0  0  0  0  0
   38.3150   20.9080   30.0940 C   0  0  0  0  0  3  0  0  0  0  0  0
   37.1930   20.9230   30.8860 C   0  0  0  0  0  0  0  0  0  0  0  0
   36.2690   19.9060   30.7820 C   0  0  0  0  0  3  0  0  0  0  0  0
   35.1270   19.8760   31.5560 C   0  0  0  0  0  3  0  0  0  0  0  0
   34.9420   20.9290   32.4580 C   0  0  0  0  0  3  0  0  0  0  0  0
   35.8890   21.9210   32.5250 C   0  0  0  0  0  3  0  0  0  0  0  0
   37.0300   21.9680   31.7640 C   0  0  0  0  0  0  0  0  0  0  0  0
  1  2  2  0  0  0  0
  1  6  1  0  0  0  0
  2  3  1  0  0  0  0
  3 17  1  0  0  0  0
  3  4  2  0  0  0  0
  5  4  1  0  0  0  0
  5  7  1  0  0  0  0
  6  5  2  0  0  0  0
  7 15  1  0  0  0  0
  7  8  2  0  0  0  0
  8  9  1  0  0  0  0
  9 16  1  0  0  0  0
 10  9  1  0  0  0  0
 10 11  1  0  0  0  0
 12 11  2  0  0  0  0
 13 12  1  0  0  0  0
 14 15  1  0  0  0  0
 14 13  2  0  0  0  0
 15 10  2  0  0  0  0
 17 18  1  0  0  0  0
 18 19  2  0  0  0  0
 20 19  1  0  0  0  0
 21 20  2  0  0  0  0
 22 21  1  0  0  0  0
 22 17  2  0  0  0  0
 23 21  1  0  0  0  0
 24 23  2  0  0  0  0
 25 24  1  0  0  0  0
 26 25  2  0  0  0  0
 26 27  1  0  0  0  0
 27 32  1  0  0  0  0
 28 27  2  0  0  0  0
 28 29  1  0  0  0  0
 29 30  2  0  0  0  0
 30 31  1  0  0  0  0
 32 23  1  0  0  0  0
 32 31  2  0  0  0  0
M  END
>  <minimizedAffinity>
-7.59357977

$$$$

 OpenBabel03272514373D

 32 37  0  0  0  0  0  0  0  0999 V2000
   35.2310   25.1320   30.8960 C   0  0  0  0  0  3  0  0  0  0  0  0
   36.3960   24.4540   31.2580 C   0  0  0  0  0  3  0  0  0  0  0  0
   37.5030   25.2060   31.6560 C   0  0  0  0  0  0  0  0  0  0  0  0
   37.4020   26.5550   31.6750 N   0  0  0  0  0  0  0  0  0  0  0  0
   36.2480   27.1850   31.3170 C   0  0  0  0  0  0  0  0  0  0  0  0
   35.1790   26.4810   30.9320 N   0  0  0  0  0  0  0  0  0  0  0  0
   36.2480   28.6380   31.3740 C   0  0  0  0  0  0  0  0  0  0  0  0
   36.5210   29.4490   30.2660 C   0  0  0  0  0  3  0  0  0  0  0  0
   36.4430   30.7370   30.6200 N   0  0  0  0  0  0  0  0  0  0  0  0
   36.1240   30.7940   31.9360 C   0  0  0  0  0  0  0  0  0  0  0  0
   35.9260   31.8760   32.7720 C   0  0  0  0  0  3  0  0  0  0  0  0
   35.6010   31.6130   34.1050 C   0  0  0  0  0  3  0  0  0  0  0  0
   35.4850   30.3040   34.5500 C   0  0  0  0  0  3  0  0  0  0  0  0
   35.6840   29.2090   33.7110 C   0  0  0  0  0  3  0  0  0  0  0  0
   36.0030   29.4960   32.4080 C   0  0  0  0  0  0  0  0  0  0  0  0
   36.5980   31.5440   30.0000 H   0  0  0  0  0  0  0  0  0  0  0  0
   38.7300   24.5390   32.0400 C   0  0  0  0  0  0  0  0  0  0  0  0
   39.7160   24.3600   31.1080 C   0  0  0  0  0  3  0  0  0  0  0  0
   40.8550   23.7320   31.5410 C   0  0  0  0  0  3  0  0  0  0  0  0
   40.9960   23.3090   32.8300 N   0  0  0  0  0  0  0  0  0  0  0  0
   39.9990   23.5010   33.7360 C   0  0  0  0  0  0  0  0  0  0  0  0
   38.9060   24.1160   33.2750 N   0  0  0  0  0  0  0  0  0  0  0  0
   40.3020   22.9980   35.0500 C   0  0  0  0  0  0  0  0  0  0  0  0
   41.3580   22.1250   35.2090 C   0  0  0  0  0  3  0  0  0  0  0  0
   41.7330   21.5850   36.4170 C   0  0  0  0  0  3  0  0  0  0  0  0
   41.0600   21.8910   37.5690 C   0  0  0  0  0  3  0  0  0  0  0  0
   39.9970   22.7550   37.4770 C   0  0  0  0  0  0  0  0  0  0  0  0
   39.2900   23.0920   38.6110 C   0  0  0  0  0  3  0  0  0  0  0  0
   38.2160   23.9580   38.5700 C   0  0  0  0  0  3  0  0  0  0  0  0
   37.8700   24.4840   37.3210 C   0  0  0  0  0  3  0  0  0  0  0  0
   38.6030   24.1180   36.2200 C   0  0  0  0  0  3  0  0  0  0  0  0
   39.6730   23.2600   36.2400 C   0  0  0  0  0  0  0  0  0  0  0  0
  1  6  2  0  0  0  0
  1  2  1  0  0  0  0
  2  3  2  0  0  0  0
  3  4  1  0  0  0  0
  3 17  1  0  0  0  0
  5  7  1  0  0  0  0
  5  4  2  0  0  0  0
  6  5  1  0  0  0  0
  7 15  1  0  0  0  0
  8  9  1  0  0  0  0
  8  7  2  0  0  0  0
  9 10  1  0  0  0  0
 10 15  2  0  0  0  0
 10 11  1  0  0  0  0
 11 12  2  0  0  0  0
 12 13  1  0  0  0  0
 14 13  2  0  0  0  0
 15 14  1  0  0  0  0
 16  9  1  0  0  0  0
 17 22  1  0  0  0  0
 18 19  1  0  0  0  0
 18 17  2  0  0  0  0
 19 20  2  0  0  0  0
 20 21  1  0  0  0  0
 21 23  1  0  0  0  0
 22 21  2  0  0  0  0
 23 24  2  0  0  0  0
 23 32  1  0  0  0  0
 24 25  1  0  0  0  0
 25 26  2  0  0  0  0
 27 26  1  0  0  0  0
 27 28  1  0  0  0  0
 29 28  2  0  0  0  0
 30 29  1  0  0  0  0
 31 32  1  0  0  0  0
 31 30  2  0  0  0  0
 32 27  2  0  0  0  0
M  END
>  <minimizedAffinity>
-7.43205261

$$$$
