
     RDKit          3D

 23 24  0  0  0  0  0  0  0  0999 V2000
   35.9830   29.7050   40.9410 C   0  0  0  0  0  0  0  0  0  0  0  0
   35.0270   29.4720   40.1880 O   0  0  0  0  0  0  0  0  0  0  0  0
   37.4760   29.0770   42.8480 C   0  0  0  0  0  0  0  0  0  0  0  0
   36.7720   28.7110   41.6980 C   0  0  0  0  0  0  0  0  0  0  0  0
   36.7800   27.4190   41.2180 C   0  0  0  0  0  0  0  0  0  0  0  0
   37.5210   26.5490   41.9490 N   0  0  0  0  0  0  0  0  0  0  0  0
   38.2090   26.8870   43.0640 C   0  0  0  0  0  0  0  0  0  0  0  0
   38.1830   28.1630   43.5150 N   0  0  0  0  0  0  0  0  0  0  0  0
   36.3710   31.0200   41.1070 O   0  0  0  0  0  0  0  0  0  0  0  0
   36.9810   31.8300   40.2240 C   0  0  0  0  0  0  0  0  0  0  0  0
   38.6990   32.0640   40.8200 S   0  0  0  0  0  0  0  0  0  0  0  0
   39.3200   33.6910   40.4160 C   0  0  0  0  0  0  0  0  0  0  0  0
   40.7580   33.7480   40.1680 C   0  0  0  0  0  0  0  0  0  0  0  0
   40.9250   35.5330   39.8110 S   0  0  0  0  0  0  0  0  0  0  0  0
   39.0770   35.8900   40.0510 C   0  0  0  0  0  0  0  0  0  0  0  0
   38.5030   34.7350   40.3590 N   0  0  0  0  0  0  0  0  0  0  0  0
   37.4474   30.1177   43.2031 H   0  0  0  0  0  0  0  0  0  0  0  0
   36.2296   27.1175   40.3146 H   0  0  0  0  0  0  0  0  0  0  0  0
   38.7896   26.1246   43.6041 H   0  0  0  0  0  0  0  0  0  0  0  0
   36.4613   32.7983   40.1765 H   0  0  0  0  0  0  0  0  0  0  0  0
   36.9692   31.3937   39.2143 H   0  0  0  0  0  0  0  0  0  0  0  0
   41.5167   32.9518   40.1896 H   0  0  0  0  0  0  0  0  0  0  0  0
   38.5785   36.8657   39.9536 H   0  0  0  0  0  0  0  0  0  0  0  0
  1  9  1  0
  1  4  1  0
  2  1  2  0
  3  8  2  0
  4  3  1  0
  5  4  2  0
  5  6  1  0
  6  7  2  0
  7  8  1  0
 10 11  1  0
 10  9  1  0
 12 11  1  0
 13 12  2  0
 14 15  1  0
 14 13  1  0
 15 16  2  0
 16 12  1  0
  3 17  1  0
  5 18  1  0
  7 19  1  0
 10 20  1  0
 10 21  1  0
 13 22  1  0
 15 23  1  0
M  ISO  7  17  14  18  14  19  14  20   8  21   8  22  14  23  14
M  END
>  <minimizedAffinity>  (1) 
-4.33730412

>  <minimizedRMSD>  (1) 
1.21817923

$$$$
