
     RDKit          3D

 36 38  0  0  0  0  0  0  0  0999 V2000
   37.8370   28.2330   43.1510 C   0  0  0  0  0  0  0  0  0  0  0  0
   37.7020   26.9960   42.4530 C   0  0  0  0  0  0  0  0  0  0  0  0
   36.9950   26.9880   41.2670 C   0  0  0  0  0  0  0  0  0  0  0  0
   36.4740   28.1540   40.8390 N   0  0  0  0  0  0  0  0  0  0  0  0
   36.5970   29.3010   41.4820 C   0  0  0  0  0  0  0  0  0  0  0  0
   37.2800   29.3570   42.6490 N   0  0  0  0  0  0  0  0  0  0  0  0
   36.9320   25.6710   40.6710 C   0  0  0  0  0  0  0  0  0  0  0  0
   37.1010   24.5260   41.5780 C   0  0  0  0  0  0  0  0  0  0  0  0
   37.8530   23.0900   40.7290 S   0  0  0  0  0  0  0  0  0  0  0  0
   35.9730   30.3210   40.8230 O   0  0  0  0  0  0  0  0  0  0  0  0
   36.7510   31.2900   40.1680 C   0  0  0  0  0  0  0  0  0  0  0  0
   36.9460   31.5210   38.8230 N   0  0  0  0  0  0  0  0  0  0  0  0
   37.7610   32.5410   38.6970 O   0  0  0  0  0  0  0  0  0  0  0  0
   38.0770   32.9480   39.8950 C   0  0  0  0  0  0  0  0  0  0  0  0
   37.4740   32.2010   40.8200 N   0  0  0  0  0  0  0  0  0  0  0  0
   38.9700   34.0710   40.1590 C   0  0  0  0  0  0  0  0  0  0  0  0
   38.6970   35.4140   39.9740 C   0  0  0  0  0  0  0  0  0  0  0  0
   39.7960   36.1670   40.3390 C   0  0  0  0  0  0  0  0  0  0  0  0
   40.7200   35.2210   40.7440 C   0  0  0  0  0  0  0  0  0  0  0  0
   40.2000   34.0550   40.6220 O   0  0  0  0  0  0  0  0  0  0  0  0
   42.0790   35.6030   41.2300 C   0  0  0  0  0  0  0  0  0  0  0  0
   42.0150   36.7120   42.2440 C   0  0  0  0  0  0  0  0  0  0  0  0
   38.3948   28.2717   44.0983 H   0  0  0  0  0  0  0  0  0  0  0  0
   38.1495   26.0726   42.8494 H   0  0  0  0  0  0  0  0  0  0  0  0
   35.9490   25.5708   40.1875 H   0  0  0  0  0  0  0  0  0  0  0  0
   37.7895   25.6239   39.9837 H   0  0  0  0  0  0  0  0  0  0  0  0
   37.7512   24.8263   42.4129 H   0  0  0  0  0  0  0  0  0  0  0  0
   36.1060   24.2266   41.9389 H   0  0  0  0  0  0  0  0  0  0  0  0
   38.3187   22.2007   41.6613 H   0  0  0  0  0  0  0  0  0  0  0  0
   37.7484   35.8210   39.5938 H   0  0  0  0  0  0  0  0  0  0  0  0
   39.9095   37.2608   40.3135 H   0  0  0  0  0  0  0  0  0  0  0  0
   42.5526   34.7242   41.6920 H   0  0  0  0  0  0  0  0  0  0  0  0
   42.6640   35.9585   40.3690 H   0  0  0  0  0  0  0  0  0  0  0  0
   42.0397   36.2843   43.2572 H   0  0  0  0  0  0  0  0  0  0  0  0
   42.8759   37.3831   42.1082 H   0  0  0  0  0  0  0  0  0  0  0  0
   41.0826   37.2796   42.1082 H   0  0  0  0  0  0  0  0  0  0  0  0
  2  1  2  0
  3  2  1  0
  4  3  2  0
  4  5  1  0
  5  6  2  0
  6  1  1  0
  7  3  1  0
  7  8  1  0
  9  8  1  0
 10  5  1  0
 11 15  1  0
 11 10  1  0
 12 11  2  0
 13 12  1  0
 13 14  1  0
 14 16  1  0
 14 15  2  0
 16 20  1  0
 17 16  2  0
 17 18  1  0
 18 19  2  0
 19 21  1  0
 20 19  1  0
 21 22  1  0
  1 23  1  0
  2 24  1  0
  7 25  1  0
  7 26  1  0
  8 27  1  0
  8 28  1  0
  9 29  1  0
 17 30  1  0
 18 31  1  0
 21 32  1  0
 21 33  1  0
 22 34  1  0
 22 35  1  0
 22 36  1  0
M  ISO  8  23  14  24  14  25   8  26   8  27   8  28   8  29  11  30  14
M  ISO  6  31  14  32   8  33   8  34   8  35   8  36   8
M  END
>  <minimizedAffinity>  (1) 
-5.50471449

>  <minimizedRMSD>  (1) 
0.740676761

$$$$
