
     RDKit          3D

 23 24  0  0  1  0  0  0  0  0999 V2000
   38.0210   28.8330   43.4440 C   0  0  1  0  0  0  0  0  0  0  0  0
   37.0620   27.6900   43.5550 C   0  0  0  0  0  0  0  0  0  0  0  0
   38.4110   27.4040   43.0070 C   0  0  2  0  0  0  0  0  0  0  0  0
   36.2550   30.7070   40.7930 C   0  0  0  0  0  0  0  0  0  0  0  0
   37.2800   31.5430   40.2980 C   0  0  0  0  0  0  0  0  0  0  0  0
   38.5650   31.4430   40.8820 C   0  0  0  0  0  0  0  0  0  0  0  0
   38.7590   30.5550   41.8850 N   0  0  0  0  0  0  0  0  0  0  0  0
   37.7360   29.7670   42.3290 C   0  0  0  0  0  0  0  0  0  0  0  0
   36.5000   29.8400   41.7900 N   0  0  0  0  0  0  0  0  0  0  0  0
   39.4540   26.7420   43.8820 C   0  0  0  0  0  0  0  0  0  0  0  0
   39.7850   25.3540   43.3760 C   0  0  0  0  0  0  0  0  0  0  0  0
   38.4349   29.5878   44.1289 H   0  0  0  0  0  0  0  0  0  0  0  0
   36.7868   27.3064   44.5485 H   0  0  0  0  0  0  0  0  0  0  0  0
   36.0382   27.5148   43.1929 H   0  0  0  0  0  0  0  0  0  0  0  0
   38.7615   26.8992   42.0947 H   0  0  0  0  0  0  0  0  0  0  0  0
   35.2463   30.7661   40.3582 H   0  0  0  0  0  0  0  0  0  0  0  0
   37.0847   32.2527   39.4806 H   0  0  0  0  0  0  0  0  0  0  0  0
   39.3918   32.0758   40.5271 H   0  0  0  0  0  0  0  0  0  0  0  0
   40.3681   27.3539   43.8777 H   0  0  0  0  0  0  0  0  0  0  0  0
   39.0523   26.6565   44.9024 H   0  0  0  0  0  0  0  0  0  0  0  0
   39.9456   24.6807   44.2309 H   0  0  0  0  0  0  0  0  0  0  0  0
   38.9513   24.9781   42.7647 H   0  0  0  0  0  0  0  0  0  0  0  0
   40.6986   25.3948   42.7647 H   0  0  0  0  0  0  0  0  0  0  0  0
  1  2  1  0
  3  1  1  0
  3  2  1  0
  3 10  1  0
  4  9  2  0
  5  4  1  0
  5  6  2  0
  6  7  1  0
  7  8  2  0
  8  1  1  0
  9  8  1  0
 11 10  1  0
  1 12  1  1
  2 13  1  0
  2 14  1  0
  3 15  1  6
  4 16  1  0
  5 17  1  0
  6 18  1  0
 10 19  1  0
 10 20  1  0
 11 21  1  0
 11 22  1  0
 11 23  1  0
M  ISO  8  12  13  13  13  14  13  15  13  16  14  17  14  18  14  19   8
M  ISO  4  20   8  21   8  22   8  23   8
M  END
>  <minimizedAffinity>  (1) 
-3.93605709

>  <minimizedRMSD>  (1) 
5.23736143

$$$$
