
     RDKit          3D

 33 36  0  0  0  0  0  0  0  0999 V2000
   37.7530   31.4320   40.2980 C   0  0  0  0  0  0  0  0  0  0  0  0
   39.1810   31.4910   40.3030 C   0  0  0  0  0  0  0  0  0  0  0  0
   39.8120   32.6750   40.0600 C   0  0  0  0  0  0  0  0  0  0  0  0
   39.0130   33.7600   39.8190 N   0  0  0  0  0  0  0  0  0  0  0  0
   37.6560   33.6870   39.8190 C   0  0  0  0  0  0  0  0  0  0  0  0
   37.0220   32.5230   40.0580 N   0  0  0  0  0  0  0  0  0  0  0  0
   41.2580   32.8780   40.0470 C   0  0  0  0  0  0  0  0  0  0  0  0
   42.3650   32.4810   39.4870 N   0  0  0  0  0  0  0  0  0  0  0  0
   43.3930   33.0910   39.9510 O   0  0  0  0  0  0  0  0  0  0  0  0
   43.0550   33.9480   40.8590 C   0  0  0  0  0  0  0  0  0  0  0  0
   41.7520   33.8100   40.9100 N   0  0  0  0  0  0  0  0  0  0  0  0
   43.8240   34.8520   41.6560 N   0  0  0  0  0  0  0  0  0  0  0  0
   45.1580   35.0120   41.5960 C   0  0  0  0  0  0  0  0  0  0  0  0
   45.5180   35.9340   42.4900 N   0  0  0  0  0  0  0  0  0  0  0  0
   44.4020   36.3540   43.1150 C   0  0  0  0  0  0  0  0  0  0  0  0
   43.3410   35.6820   42.6000 N   0  0  0  0  0  0  0  0  0  0  0  0
   39.8610   30.2330   40.5640 C   0  0  0  0  0  0  0  0  0  0  0  0
   40.2810   29.4470   39.4270 C   0  0  0  0  0  0  0  0  0  0  0  0
   41.0850   27.9650   40.1690 S   0  0  0  0  0  0  0  0  0  0  0  0
   40.6990   28.6950   41.9230 C   0  0  0  0  0  0  0  0  0  0  0  0
   40.1810   29.6510   41.6910 N   0  0  0  0  0  0  0  0  0  0  0  0
   41.0970   27.9710   43.2120 C   0  0  0  0  0  0  0  0  0  0  0  0
   39.9350   27.1340   43.5890 C   0  0  0  0  0  0  0  0  0  0  0  0
   37.2492   30.4742   40.4947 H   0  0  0  0  0  0  0  0  0  0  0  0
   37.0656   34.5936   39.6205 H   0  0  0  0  0  0  0  0  0  0  0  0
   45.8390   34.4721   40.9216 H   0  0  0  0  0  0  0  0  0  0  0  0
   44.3575   37.1138   43.9092 H   0  0  0  0  0  0  0  0  0  0  0  0
   40.1503   29.6805   38.3600 H   0  0  0  0  0  0  0  0  0  0  0  0
   41.9813   27.3403   43.0381 H   0  0  0  0  0  0  0  0  0  0  0  0
   41.3546   28.6833   44.0097 H   0  0  0  0  0  0  0  0  0  0  0  0
   39.8615   27.0811   44.6853 H   0  0  0  0  0  0  0  0  0  0  0  0
   39.0152   27.5784   43.1809 H   0  0  0  0  0  0  0  0  0  0  0  0
   40.0651   26.1208   43.1809 H   0  0  0  0  0  0  0  0  0  0  0  0
  1  2  2  0
  2 17  1  0
  3  2  1  0
  4  5  1  0
  4  3  2  0
  5  6  2  0
  6  1  1  0
  7  3  1  0
  7 11  1  0
  8  9  1  0
  8  7  2  0
  9 10  1  0
 10 11  2  0
 10 12  1  0
 12 16  1  0
 13 12  1  0
 13 14  2  0
 14 15  1  0
 16 15  2  0
 17 21  1  0
 18 19  1  0
 18 17  2  0
 19 20  1  0
 20 22  1  0
 21 20  2  0
 22 23  1  0
  1 24  1  0
  5 25  1  0
 13 26  1  0
 15 27  1  0
 18 28  1  0
 22 29  1  0
 22 30  1  0
 23 31  1  0
 23 32  1  0
 23 33  1  0
M  ISO  8  24  14  25  14  26  14  27  14  28  14  29   8  30   8  31   8
M  ISO  2  32   8  33   8
M  END
>  <minimizedAffinity>  (1) 
-4.97404385

>  <minimizedRMSD>  (1) 
1.8053391

$$$$
