
     RDKit          3D

 39 43  0  0  0  0  0  0  0  0999 V2000
   37.3950   29.4570   39.9500 C   0  0  0  0  0  0  0  0  0  0  0  0
   36.4550   29.5780   38.9010 C   0  0  0  0  0  0  0  0  0  0  0  0
   36.6020   30.4350   37.8250 C   0  0  0  0  0  0  0  0  0  0  0  0
   37.7550   31.1820   37.8410 N   0  0  0  0  0  0  0  0  0  0  0  0
   38.6510   31.0880   38.8080 C   0  0  0  0  0  0  0  0  0  0  0  0
   38.4740   30.2460   39.8350 N   0  0  0  0  0  0  0  0  0  0  0  0
   37.3690   28.6540   41.1150 C   0  0  0  0  0  0  0  0  0  0  0  0
   37.5490   29.3580   42.3230 C   0  0  0  0  0  0  0  0  0  0  0  0
   37.5440   28.7540   43.5780 C   0  0  0  0  0  0  0  0  0  0  0  0
   37.3510   27.3760   43.6470 C   0  0  0  0  0  0  0  0  0  0  0  0
   37.1710   26.6520   42.4840 C   0  0  0  0  0  0  0  0  0  0  0  0
   36.9850   25.2890   42.5530 C   0  0  0  0  0  0  0  0  0  0  0  0
   36.8070   24.5190   41.4270 C   0  0  0  0  0  0  0  0  0  0  0  0
   36.8290   25.2090   40.2300 C   0  0  0  0  0  0  0  0  0  0  0  0
   37.0150   26.5630   40.1910 C   0  0  0  0  0  0  0  0  0  0  0  0
   37.1900   27.3250   41.3010 C   0  0  0  0  0  0  0  0  0  0  0  0
   39.8440   31.9410   38.7230 C   0  0  0  0  0  0  0  0  0  0  0  0
   40.8360   31.6000   38.0250 O   0  0  0  0  0  0  0  0  0  0  0  0
   42.4320   35.1640   40.7800 N   0  0  0  0  0  0  0  0  0  0  0  0
   43.2120   34.1710   40.2730 C   0  0  0  0  0  0  0  0  0  0  0  0
   42.4010   33.2640   39.6870 N   0  0  0  0  0  0  0  0  0  0  0  0
   41.1390   33.6830   39.8260 C   0  0  0  0  0  0  0  0  0  0  0  0
   39.8980   33.2040   39.4520 C   0  0  0  0  0  0  0  0  0  0  0  0
   38.7830   33.8850   39.7520 N   0  0  0  0  0  0  0  0  0  0  0  0
   38.7760   35.0520   40.4210 C   0  0  0  0  0  0  0  0  0  0  0  0
   39.9740   35.5320   40.7930 N   0  0  0  0  0  0  0  0  0  0  0  0
   41.1330   34.8930   40.5200 C   0  0  0  0  0  0  0  0  0  0  0  0
   35.5513   28.9523   38.9429 H   0  0  0  0  0  0  0  0  0  0  0  0
   35.8554   30.5122   37.0209 H   0  0  0  0  0  0  0  0  0  0  0  0
   37.7021   30.4461   42.2715 H   0  0  0  0  0  0  0  0  0  0  0  0
   37.6887   29.3497   44.4913 H   0  0  0  0  0  0  0  0  0  0  0  0
   37.3420   26.8671   44.6221 H   0  0  0  0  0  0  0  0  0  0  0  0
   36.9786   24.8011   43.5389 H   0  0  0  0  0  0  0  0  0  0  0  0
   36.6576   23.4303   41.4761 H   0  0  0  0  0  0  0  0  0  0  0  0
   36.6940   24.6570   39.2881 H   0  0  0  0  0  0  0  0  0  0  0  0
   37.0233   27.0605   39.2100 H   0  0  0  0  0  0  0  0  0  0  0  0
   42.7774   35.9934   41.2837 H   0  0  0  0  0  0  0  0  0  0  0  0
   44.3092   34.1166   40.3303 H   0  0  0  0  0  0  0  0  0  0  0  0
   37.8409   35.5838   40.6507 H   0  0  0  0  0  0  0  0  0  0  0  0
  1  7  1  0
  2  1  2  0
  3  4  2  0
  3  2  1  0
  4  5  1  0
  5  6  2  0
  6  1  1  0
  7 16  1  0
  7  8  2  0
  8  9  1  0
  9 10  2  0
 11 12  2  0
 11 10  1  0
 13 12  1  0
 14 13  2  0
 15 14  1  0
 15 16  2  0
 16 11  1  0
 17  5  1  0
 17 23  1  0
 18 17  2  0
 20 19  1  0
 21 22  1  0
 21 20  2  0
 22 27  2  0
 23 24  2  0
 23 22  1  0
 24 25  1  0
 25 26  2  0
 27 19  1  0
 27 26  1  0
  2 28  1  0
  3 29  1  0
  8 30  1  0
  9 31  1  0
 10 32  1  0
 12 33  1  0
 13 34  1  0
 14 35  1  0
 15 36  1  0
 19 37  1  0
 20 38  1  0
 25 39  1  0
M  END
>  <minimizedAffinity>  (1) 
-7.31988001

>  <minimizedRMSD>  (1) 
3.36815786

$$$$
