
     RDKit          3D

 43 46  0  0  0  0  0  0  0  0999 V2000
   36.1380   30.0870   41.0880 C   0  0  0  0  0  0  0  0  0  0  0  0
   38.5540   28.1080   42.6930 C   0  0  0  0  0  0  0  0  0  0  0  0
   37.4470   27.2960   42.7940 C   0  0  0  0  0  0  0  0  0  0  0  0
   36.3980   27.9840   42.1780 C   0  0  0  0  0  0  0  0  0  0  0  0
   36.9500   29.1350   41.7640 N   0  0  0  0  0  0  0  0  0  0  0  0
   38.2130   29.2510   42.0440 N   0  0  0  0  0  0  0  0  0  0  0  0
   41.4390   26.3790   44.2940 C   0  0  0  0  0  0  0  0  0  0  0  0
   40.1340   26.5970   43.8370 C   0  0  0  0  0  0  0  0  0  0  0  0
   39.8810   27.8180   43.1910 C   0  0  0  0  0  0  0  0  0  0  0  0
   40.8830   28.7250   43.0360 N   0  0  0  0  0  0  0  0  0  0  0  0
   42.1350   28.4440   43.5090 C   0  0  0  0  0  0  0  0  0  0  0  0
   42.4020   27.2870   44.1270 N   0  0  0  0  0  0  0  0  0  0  0  0
   43.2110   29.4520   43.3250 C   0  0  0  0  0  0  0  0  0  0  0  0
   43.3290   30.1640   44.4830 F   0  0  0  0  0  0  0  0  0  0  0  0
   44.3930   28.8580   42.9400 F   0  0  0  0  0  0  0  0  0  0  0  0
   42.8320   30.3480   42.3200 F   0  0  0  0  0  0  0  0  0  0  0  0
   35.2390   29.5380   40.0250 C   0  0  0  0  0  0  0  0  0  0  0  0
   35.8600   29.4420   38.6810 C   0  0  0  0  0  0  0  0  0  0  0  0
   37.1780   29.5830   38.3580 C   0  0  0  0  0  0  0  0  0  0  0  0
   37.7000   29.5620   37.1000 C   0  0  0  0  0  0  0  0  0  0  0  0
   36.8610   29.3870   36.0260 C   0  0  0  0  0  0  0  0  0  0  0  0
   35.5240   29.2380   36.2840 C   0  0  0  0  0  0  0  0  0  0  0  0
   34.7340   29.0730   35.1690 C   0  0  0  0  0  0  0  0  0  0  0  0
   33.3750   28.9150   35.3080 C   0  0  0  0  0  0  0  0  0  0  0  0
   32.8300   28.9230   36.5880 C   0  0  0  0  0  0  0  0  0  0  0  0
   33.6620   29.0910   37.6500 C   0  0  0  0  0  0  0  0  0  0  0  0
   35.0050   29.2580   37.5790 C   0  0  0  0  0  0  0  0  0  0  0  0
   33.0540   29.0730   38.8890 O   0  0  0  0  0  0  0  0  0  0  0  0
   35.5076   30.5864   41.8384 H   0  0  0  0  0  0  0  0  0  0  0  0
   36.8361   30.7612   40.5702 H   0  0  0  0  0  0  0  0  0  0  0  0
   37.3979   26.3034   43.2656 H   0  0  0  0  0  0  0  0  0  0  0  0
   35.3548   27.6559   42.0592 H   0  0  0  0  0  0  0  0  0  0  0  0
   41.6768   25.4340   44.8043 H   0  0  0  0  0  0  0  0  0  0  0  0
   39.3426   25.8460   43.9775 H   0  0  0  0  0  0  0  0  0  0  0  0
   34.9229   28.5295   40.3299 H   0  0  0  0  0  0  0  0  0  0  0  0
   34.3997   30.2428   39.9314 H   0  0  0  0  0  0  0  0  0  0  0  0
   37.8837   29.7268   39.1895 H   0  0  0  0  0  0  0  0  0  0  0  0
   38.7822   29.6839   36.9455 H   0  0  0  0  0  0  0  0  0  0  0  0
   37.2488   29.3673   34.9968 H   0  0  0  0  0  0  0  0  0  0  0  0
   35.1893   29.0675   34.1677 H   0  0  0  0  0  0  0  0  0  0  0  0
   32.7319   28.7849   34.4251 H   0  0  0  0  0  0  0  0  0  0  0  0
   31.7477   28.7960   36.7378 H   0  0  0  0  0  0  0  0  0  0  0  0
   33.5970   29.1892   39.7086 H   0  0  0  0  0  0  0  0  0  0  0  0
  1  5  1  0
  2  3  1  0
  2  9  1  0
  4  3  2  0
  5  6  1  0
  5  4  1  0
  6  2  2  0
  8  7  2  0
  9  8  1  0
 10  9  2  0
 10 11  1  0
 11 12  2  0
 12  7  1  0
 13 11  1  0
 13 14  1  0
 15 13  1  0
 16 13  1  0
 17  1  1  0
 18 17  1  0
 19 18  2  0
 20 19  1  0
 21 22  1  0
 21 20  2  0
 22 27  2  0
 23 24  2  0
 23 22  1  0
 24 25  1  0
 25 26  2  0
 26 28  1  0
 27 26  1  0
 27 18  1  0
  1 29  1  0
  1 30  1  0
  3 31  1  0
  4 32  1  0
  7 33  1  0
  8 34  1  0
 17 35  1  0
 17 36  1  0
 19 37  1  0
 20 38  1  0
 21 39  1  0
 23 40  1  0
 24 41  1  0
 25 42  1  0
 28 43  1  0
M  ISO  8  29   8  30   8  31  14  32  14  33  14  34  14  35   8  36   8
M  ISO  7  37  14  38  14  39  14  40  14  41  14  42  14  43   3
M  END
>  <minimizedAffinity>  (1) 
-5.88747978

>  <minimizedRMSD>  (1) 
0.187309161

$$$$
