
     RDKit          3D

 26 28  0  0  0  0  0  0  0  0999 V2000
   36.7840   30.9590   40.3260 C   0  0  0  0  0  0  0  0  0  0  0  0
   36.7350   31.1400   38.9670 N   0  0  0  0  0  0  0  0  0  0  0  0
   37.4970   32.1590   38.6620 O   0  0  0  0  0  0  0  0  0  0  0  0
   38.0180   32.6190   39.7800 C   0  0  0  0  0  0  0  0  0  0  0  0
   37.5950   31.8960   40.8290 N   0  0  0  0  0  0  0  0  0  0  0  0
   38.9240   33.7550   39.8360 C   0  0  0  0  0  0  0  0  0  0  0  0
   38.6190   35.0290   40.2850 C   0  0  0  0  0  0  0  0  0  0  0  0
   39.7270   35.8330   40.1900 C   0  0  0  0  0  0  0  0  0  0  0  0
   40.7120   34.9940   39.6670 C   0  0  0  0  0  0  0  0  0  0  0  0
   40.1690   33.8320   39.4970 O   0  0  0  0  0  0  0  0  0  0  0  0
   36.1420   30.0090   41.1050 O   0  0  0  0  0  0  0  0  0  0  0  0
   38.3400   28.3850   43.4910 C   0  0  0  0  0  0  0  0  0  0  0  0
   38.1680   27.0330   43.0760 C   0  0  0  0  0  0  0  0  0  0  0  0
   37.2950   26.8000   41.9940 C   0  0  0  0  0  0  0  0  0  0  0  0
   36.6840   27.8660   41.4240 N   0  0  0  0  0  0  0  0  0  0  0  0
   36.8720   29.1200   41.8420 C   0  0  0  0  0  0  0  0  0  0  0  0
   37.7000   29.3800   42.8750 N   0  0  0  0  0  0  0  0  0  0  0  0
   37.1200   25.3950   41.5670 C   0  0  0  0  0  0  0  0  0  0  0  0
   36.4210   25.2550   40.4130 F   0  0  0  0  0  0  0  0  0  0  0  0
   36.4250   24.7380   42.5920 F   0  0  0  0  0  0  0  0  0  0  0  0
   38.3470   24.7270   41.5070 F   0  0  0  0  0  0  0  0  0  0  0  0
   37.6360   35.3486   40.6613 H   0  0  0  0  0  0  0  0  0  0  0  0
   39.8179   36.8946   40.4632 H   0  0  0  0  0  0  0  0  0  0  0  0
   41.7531   35.2687   39.4419 H   0  0  0  0  0  0  0  0  0  0  0  0
   39.0111   28.6118   44.3326 H   0  0  0  0  0  0  0  0  0  0  0  0
   38.6934   26.2071   43.5779 H   0  0  0  0  0  0  0  0  0  0  0  0
  1  5  1  0
  1 11  1  0
  2  1  2  0
  3  2  1  0
  3  4  1  0
  4  6  1  0
  4  5  2  0
  6  7  2  0
  8  7  1  0
  9  8  2  0
 10  9  1  0
 10  6  1  0
 11 16  1  0
 13 12  2  0
 14 13  1  0
 15 16  1  0
 15 14  2  0
 16 17  2  0
 17 12  1  0
 18 14  1  0
 18 20  1  0
 19 18  1  0
 21 18  1  0
  7 22  1  0
  8 23  1  0
  9 24  1  0
 12 25  1  0
 13 26  1  0
M  ISO  5  22  14  23  14  24  14  25  14  26  14
M  END
>  <minimizedAffinity>  (1) 
-5.78627539

>  <minimizedRMSD>  (1) 
0.691018045

$$$$
