
     RDKit          3D

 39 41  0  0  0  0  0  0  0  0999 V2000
   37.8520   28.2450   43.1680 C   0  0  0  0  0  0  0  0  0  0  0  0
   37.7060   27.0060   42.4670 C   0  0  0  0  0  0  0  0  0  0  0  0
   37.0060   27.0150   41.2750 C   0  0  0  0  0  0  0  0  0  0  0  0
   36.5020   28.1920   40.8440 N   0  0  0  0  0  0  0  0  0  0  0  0
   36.6390   29.3350   41.4920 C   0  0  0  0  0  0  0  0  0  0  0  0
   37.3180   29.3800   42.6710 N   0  0  0  0  0  0  0  0  0  0  0  0
   36.9290   25.7060   40.6690 C   0  0  0  0  0  0  0  0  0  0  0  0
   37.0510   24.5530   41.5840 C   0  0  0  0  0  0  0  0  0  0  0  0
   37.8310   23.1210   40.7530 S   0  0  0  0  0  0  0  0  0  0  0  0
   36.0360   30.3710   40.8400 O   0  0  0  0  0  0  0  0  0  0  0  0
   36.8280   31.3280   40.1880 C   0  0  0  0  0  0  0  0  0  0  0  0
   37.0710   31.4960   38.8380 N   0  0  0  0  0  0  0  0  0  0  0  0
   37.8760   32.5250   38.6930 O   0  0  0  0  0  0  0  0  0  0  0  0
   38.1360   32.9950   39.9030 C   0  0  0  0  0  0  0  0  0  0  0  0
   37.5070   32.2790   40.8260 N   0  0  0  0  0  0  0  0  0  0  0  0
   38.9980   34.1400   40.1420 C   0  0  0  0  0  0  0  0  0  0  0  0
   38.6730   35.4730   39.9650 C   0  0  0  0  0  0  0  0  0  0  0  0
   39.7640   36.2490   40.3010 C   0  0  0  0  0  0  0  0  0  0  0  0
   40.7340   35.3490   40.6770 C   0  0  0  0  0  0  0  0  0  0  0  0
   40.2410   34.1570   40.5670 O   0  0  0  0  0  0  0  0  0  0  0  0
   42.1290   35.6720   41.1390 C   0  0  0  0  0  0  0  0  0  0  0  0
   42.8030   34.4200   41.5960 C   0  0  0  0  0  0  0  0  0  0  0  0
   42.0700   36.6590   42.3020 C   0  0  0  0  0  0  0  0  0  0  0  0
   38.4038   28.2722   44.1192 H   0  0  0  0  0  0  0  0  0  0  0  0
   38.1374   26.0754   42.8643 H   0  0  0  0  0  0  0  0  0  0  0  0
   35.9567   25.6288   40.1604 H   0  0  0  0  0  0  0  0  0  0  0  0
   37.7987   25.6416   39.9985 H   0  0  0  0  0  0  0  0  0  0  0  0
   37.6669   24.8449   42.4474 H   0  0  0  0  0  0  0  0  0  0  0  0
   36.0414   24.2585   41.9065 H   0  0  0  0  0  0  0  0  0  0  0  0
   38.3062   22.2487   41.6965 H   0  0  0  0  0  0  0  0  0  0  0  0
   37.7024   35.8530   39.6135 H   0  0  0  0  0  0  0  0  0  0  0  0
   39.8409   37.3460   40.2740 H   0  0  0  0  0  0  0  0  0  0  0  0
   42.6925   36.1171   40.3057 H   0  0  0  0  0  0  0  0  0  0  0  0
   42.8180   34.3921   42.6955 H   0  0  0  0  0  0  0  0  0  0  0  0
   42.2529   33.5472   41.2145 H   0  0  0  0  0  0  0  0  0  0  0  0
   43.8345   34.3987   41.2145 H   0  0  0  0  0  0  0  0  0  0  0  0
   42.1030   36.1074   43.2531 H   0  0  0  0  0  0  0  0  0  0  0  0
   42.9288   37.3440   42.2455 H   0  0  0  0  0  0  0  0  0  0  0  0
   41.1357   37.2368   42.2455 H   0  0  0  0  0  0  0  0  0  0  0  0
  2  1  2  0
  3  2  1  0
  4  3  2  0
  4  5  1  0
  5  6  2  0
  6  1  1  0
  7  3  1  0
  7  8  1  0
  9  8  1  0
 10  5  1  0
 11 15  1  0
 11 10  1  0
 12 11  2  0
 13 12  1  0
 13 14  1  0
 14 16  1  0
 14 15  2  0
 16 20  1  0
 17 16  2  0
 17 18  1  0
 18 19  2  0
 19 21  1  0
 20 19  1  0
 21 22  1  0
 21 23  1  0
  1 24  1  0
  2 25  1  0
  7 26  1  0
  7 27  1  0
  8 28  1  0
  8 29  1  0
  9 30  1  0
 17 31  1  0
 18 32  1  0
 21 33  1  0
 22 34  1  0
 22 35  1  0
 22 36  1  0
 23 37  1  0
 23 38  1  0
 23 39  1  0
M  ISO  8  24  14  25  14  26   8  27   8  28   8  29   8  30  11  31  14
M  ISO  8  32  14  33   8  34   8  35   8  36   8  37   8  38   8  39   8
M  END
>  <minimizedAffinity>  (1) 
-5.66659451

>  <minimizedRMSD>  (1) 
0.903047264

$$$$
