
     RDKit          3D

 31 32  0  0  1  0  0  0  0  0999 V2000
   38.3980   29.1930   43.1320 C   0  0  0  0  0  0  0  0  0  0  0  0
   37.6600   28.1370   43.7070 C   0  0  0  0  0  0  0  0  0  0  0  0
   36.5260   27.6710   43.0070 C   0  0  0  0  0  0  0  0  0  0  0  0
   36.2060   28.2680   41.8090 N   0  0  0  0  0  0  0  0  0  0  0  0
   36.9350   29.2620   41.3080 C   0  0  0  0  0  0  0  0  0  0  0  0
   38.0120   29.7060   41.9710 N   0  0  0  0  0  0  0  0  0  0  0  0
   36.5690   29.8500   40.0810 N   0  0  0  0  0  0  0  0  0  0  0  0
   35.8620   29.0840   39.0470 C   0  0  0  0  0  0  0  0  0  0  0  0
   36.3150   29.7450   37.7790 C   0  0  0  0  0  0  0  0  0  0  0  0
   37.0890   30.9620   38.1620 C   0  0  0  0  0  0  0  0  0  0  0  0
   36.7750   31.1830   39.6360 C   0  0  2  0  0  0  0  0  0  0  0  0
   37.8870   31.9730   40.2370 C   0  0  0  0  0  0  0  0  0  0  0  0
   39.2410   31.7220   39.6350 C   0  0  0  0  0  0  0  0  0  0  0  0
   37.5360   33.4260   39.9850 C   0  0  0  0  0  0  0  0  0  0  0  0
   39.2880   29.5886   43.6432 H   0  0  0  0  0  0  0  0  0  0  0  0
   37.9580   27.6920   44.6678 H   0  0  0  0  0  0  0  0  0  0  0  0
   35.9132   26.8508   43.4093 H   0  0  0  0  0  0  0  0  0  0  0  0
   36.1554   28.0241   39.0684 H   0  0  0  0  0  0  0  0  0  0  0  0
   34.7693   29.0852   39.1735 H   0  0  0  0  0  0  0  0  0  0  0  0
   35.4434   30.0296   37.1712 H   0  0  0  0  0  0  0  0  0  0  0  0
   36.9375   29.0599   37.1848 H   0  0  0  0  0  0  0  0  0  0  0  0
   38.1667   30.7959   38.0172 H   0  0  0  0  0  0  0  0  0  0  0  0
   36.8186   31.8333   37.5474 H   0  0  0  0  0  0  0  0  0  0  0  0
   35.8964   31.7857   39.9095 H   0  0  0  0  0  0  0  0  0  0  0  0
   37.9707   31.6875   41.2960 H   0  0  0  0  0  0  0  0  0  0  0  0
   39.9798   31.5850   40.4384 H   0  0  0  0  0  0  0  0  0  0  0  0
   39.2034   30.8155   39.0130 H   0  0  0  0  0  0  0  0  0  0  0  0
   39.5308   32.5817   39.0130 H   0  0  0  0  0  0  0  0  0  0  0  0
   37.4106   33.9450   40.9467 H   0  0  0  0  0  0  0  0  0  0  0  0
   38.3444   33.9046   39.4127 H   0  0  0  0  0  0  0  0  0  0  0  0
   36.5983   33.4828   39.4127 H   0  0  0  0  0  0  0  0  0  0  0  0
  1  2  2  0
  3  2  1  0
  4  3  2  0
  5  4  1  0
  5  6  2  0
  6  1  1  0
  7  5  1  0
  8  7  1  0
  9 10  1  0
  9  8  1  0
 10 11  1  0
 11  7  1  0
 11 12  1  0
 13 12  1  0
 14 12  1  0
  1 15  1  0
  2 16  1  0
  3 17  1  0
  8 18  1  0
  8 19  1  0
  9 20  1  0
  9 21  1  0
 10 22  1  0
 10 23  1  0
 11 24  1  6
 12 25  1  0
 13 26  1  0
 13 27  1  0
 13 28  1  0
 14 29  1  0
 14 30  1  0
 14 31  1  0
M  ISO  8  15  14  16  14  17  14  18  13  19  13  20  13  21  13  22  13
M  ISO  8  23  13  24  13  25   8  26   8  27   8  28   8  29   8  30   8
M  ISO  1  31   8
M  END
>  <minimizedAffinity>  (1) 
-4.38711834

>  <minimizedRMSD>  (1) 
0.682713389

$$$$
