
     RDKit          3D

 35 38  0  0  0  0  0  0  0  0999 V2000
   39.7620   34.3970   40.2950 C   0  0  0  0  0  0  0  0  0  0  0  0
   40.3910   33.2440   40.6480 C   0  0  0  0  0  0  0  0  0  0  0  0
   39.6900   32.0670   40.8260 C   0  0  0  0  0  0  0  0  0  0  0  0
   38.3340   32.0260   40.6510 C   0  0  0  0  0  0  0  0  0  0  0  0
   37.6800   33.1700   40.2960 C   0  0  0  0  0  0  0  0  0  0  0  0
   38.3970   34.3570   40.1180 C   0  0  0  0  0  0  0  0  0  0  0  0
   37.1190   28.6600   41.0630 C   0  0  0  0  0  0  0  0  0  0  0  0
   36.0180   29.4590   41.2420 N   0  0  0  0  0  0  0  0  0  0  0  0
   36.3330   30.7110   41.1150 O   0  0  0  0  0  0  0  0  0  0  0  0
   37.6420   30.7820   40.8500 C   0  0  0  0  0  0  0  0  0  0  0  0
   38.1240   29.5230   40.8190 N   0  0  0  0  0  0  0  0  0  0  0  0
   37.0760   25.1760   42.2680 C   0  0  0  0  0  0  0  0  0  0  0  0
   36.7870   24.4850   41.0690 C   0  0  0  0  0  0  0  0  0  0  0  0
   36.6230   25.2380   39.9100 C   0  0  0  0  0  0  0  0  0  0  0  0
   36.7470   26.5970   39.9930 N   0  0  0  0  0  0  0  0  0  0  0  0
   37.0220   27.2080   41.1570 C   0  0  0  0  0  0  0  0  0  0  0  0
   37.1880   26.5030   42.2970 N   0  0  0  0  0  0  0  0  0  0  0  0
   40.6740   35.8770   40.0300 S   0  0  0  0  0  0  0  0  0  0  0  0
   41.4200   35.7150   38.7450 O   0  0  0  0  0  0  0  0  0  0  0  0
   39.6890   37.0280   39.8630 O   0  0  0  0  0  0  0  0  0  0  0  0
   41.6560   36.1420   41.4290 C   0  0  0  0  0  0  0  0  0  0  0  0
   42.8220   35.4430   41.6830 C   0  0  0  0  0  0  0  0  0  0  0  0
   43.3470   35.8820   42.8430 N   0  0  0  0  0  0  0  0  0  0  0  0
   42.5260   36.8320   43.2980 C   0  0  0  0  0  0  0  0  0  0  0  0
   41.4820   37.0150   42.4560 N   0  0  0  0  0  0  0  0  0  0  0  0
   41.4811   33.2487   40.7949 H   0  0  0  0  0  0  0  0  0  0  0  0
   40.2288   31.1516   41.1119 H   0  0  0  0  0  0  0  0  0  0  0  0
   36.5898   33.1582   40.1500 H   0  0  0  0  0  0  0  0  0  0  0  0
   37.8617   35.2744   39.8318 H   0  0  0  0  0  0  0  0  0  0  0  0
   37.2115   24.6048   43.1982 H   0  0  0  0  0  0  0  0  0  0  0  0
   36.6948   23.3890   41.0526 H   0  0  0  0  0  0  0  0  0  0  0  0
   36.3988   24.7510   38.9495 H   0  0  0  0  0  0  0  0  0  0  0  0
   43.2502   34.6576   41.0429 H   0  0  0  0  0  0  0  0  0  0  0  0
   42.6780   37.3915   44.2328 H   0  0  0  0  0  0  0  0  0  0  0  0
   40.7077   37.6845   42.5711 H   0  0  0  0  0  0  0  0  0  0  0  0
  1  2  2  0
  2  3  1  0
  4  3  2  0
  4 10  1  0
  5  4  1  0
  6  1  1  0
  6  5  2  0
  7 16  1  0
  7  8  2  0
  9  8  1  0
 10  9  1  0
 11 10  2  0
 11  7  1  0
 12 17  2  0
 13 12  1  0
 14 15  1  0
 14 13  2  0
 15 16  2  0
 16 17  1  0
 18  1  1  0
 18 21  1  0
 19 18  2  0
 20 18  2  0
 21 22  2  0
 21 25  1  0
 22 23  1  0
 23 24  2  0
 25 24  1  0
  2 26  1  0
  3 27  1  0
  5 28  1  0
  6 29  1  0
 12 30  1  0
 13 31  1  0
 14 32  1  0
 22 33  1  0
 24 34  1  0
 25 35  1  0
M  END
>  <minimizedAffinity>  (1) 
-7.03597593

>  <minimizedRMSD>  (1) 
1.20278466

$$$$
