
     RDKit          3D

 36 38  0  0  1  0  0  0  0  0999 V2000
   38.5320   29.7120   41.5260 C   0  0  1  0  0  0  0  0  0  0  0  0
   38.0620   29.4190   42.9020 C   0  0  0  0  0  0  0  0  0  0  0  0
   37.2150   28.9450   41.8040 C   0  0  2  0  0  0  0  0  0  0  0  0
   37.1860   27.5280   41.4610 C   0  0  0  0  0  0  0  0  0  0  0  0
   37.3190   26.5840   42.4770 C   0  0  0  0  0  0  0  0  0  0  0  0
   37.1010   25.2590   42.2320 C   0  0  0  0  0  0  0  0  0  0  0  0
   36.7480   24.8780   40.9550 C   0  0  0  0  0  0  0  0  0  0  0  0
   36.6240   25.8080   39.9710 C   0  0  0  0  0  0  0  0  0  0  0  0
   36.8460   27.1770   40.2110 C   0  0  0  0  0  0  0  0  0  0  0  0
   36.6730   27.9100   38.9650 C   0  0  0  0  0  0  0  0  0  0  0  0
   35.2240   28.3280   38.8610 C   0  0  0  0  0  0  0  0  0  0  0  0
   36.8870   27.0140   37.7240 C   0  0  0  0  0  0  0  0  0  0  0  0
   38.3270   31.0910   40.9790 C   0  0  0  0  0  0  0  0  0  0  0  0
   37.3300   31.2730   40.0230 C   0  0  0  0  0  0  0  0  0  0  0  0
   37.1090   32.5330   39.4750 C   0  0  0  0  0  0  0  0  0  0  0  0
   37.9180   33.5590   39.9290 N   0  0  0  0  0  0  0  0  0  0  0  0
   38.8810   33.3390   40.8670 C   0  0  0  0  0  0  0  0  0  0  0  0
   39.0830   32.0780   41.3980 N   0  0  0  0  0  0  0  0  0  0  0  0
   39.4772   29.5466   40.9882 H   0  0  0  0  0  0  0  0  0  0  0  0
   38.6095   28.6889   43.5161 H   0  0  0  0  0  0  0  0  0  0  0  0
   37.8746   30.0441   43.7875 H   0  0  0  0  0  0  0  0  0  0  0  0
   36.1507   29.0608   41.5511 H   0  0  0  0  0  0  0  0  0  0  0  0
   37.6030   26.9103   43.4884 H   0  0  0  0  0  0  0  0  0  0  0  0
   37.2045   24.5133   43.0340 H   0  0  0  0  0  0  0  0  0  0  0  0
   36.5658   23.8166   40.7311 H   0  0  0  0  0  0  0  0  0  0  0  0
   36.3423   25.4814   38.9591 H   0  0  0  0  0  0  0  0  0  0  0  0
   37.3946   28.7401   38.9814 H   0  0  0  0  0  0  0  0  0  0  0  0
   34.8040   28.4492   39.8704 H   0  0  0  0  0  0  0  0  0  0  0  0
   35.1558   29.2825   38.3185 H   0  0  0  0  0  0  0  0  0  0  0  0
   34.6579   27.5565   38.3185 H   0  0  0  0  0  0  0  0  0  0  0  0
   37.1312   25.9915   38.0477 H   0  0  0  0  0  0  0  0  0  0  0  0
   35.9675   26.9978   37.1205 H   0  0  0  0  0  0  0  0  0  0  0  0
   37.7146   27.4151   37.1205 H   0  0  0  0  0  0  0  0  0  0  0  0
   36.7162   30.4190   39.7007 H   0  0  0  0  0  0  0  0  0  0  0  0
   36.3294   32.7045   38.7181 H   0  0  0  0  0  0  0  0  0  0  0  0
   39.5074   34.1768   41.2072 H   0  0  0  0  0  0  0  0  0  0  0  0
  1  3  1  0
  1  2  1  0
  3  2  1  0
  4  3  1  0
  4  5  2  0
  6  5  1  0
  7  6  2  0
  8  9  2  0
  8  7  1  0
  9  4  1  0
 10  9  1  0
 11 10  1  0
 12 10  1  0
 13 18  1  0
 13  1  1  0
 14 13  2  0
 15 16  2  0
 15 14  1  0
 16 17  1  0
 17 18  2  0
  1 19  1  6
  2 20  1  0
  2 21  1  0
  3 22  1  1
  5 23  1  0
  6 24  1  0
  7 25  1  0
  8 26  1  0
 10 27  1  0
 11 28  1  0
 11 29  1  0
 11 30  1  0
 12 31  1  0
 12 32  1  0
 12 33  1  0
 14 34  1  0
 15 35  1  0
 17 36  1  0
M  ISO  8  19  13  20  13  21  13  22  13  23  14  24  14  25  14  26  14
M  ISO  8  27   8  28   8  29   8  30   8  31   8  32   8  33   8  34  14
M  ISO  2  35  14  36  14
M  END
>  <minimizedAffinity>  (1) 
-4.94264603

>  <minimizedRMSD>  (1) 
0.762913823

$$$$
