
     RDKit          3D

 37 39  0  0  0  0  0  0  0  0999 V2000
   44.6690   26.6650   44.3790 C   0  0  0  0  0  0  0  0  0  0  0  0
   43.5050   26.6500   43.5880 C   0  0  0  0  0  0  0  0  0  0  0  0
   42.2950   27.0550   44.1720 C   0  0  0  0  0  0  0  0  0  0  0  0
   42.3110   27.4450   45.4860 N   0  0  0  0  0  0  0  0  0  0  0  0
   43.4540   27.4400   46.2000 C   0  0  0  0  0  0  0  0  0  0  0  0
   44.6130   27.0580   45.6590 N   0  0  0  0  0  0  0  0  0  0  0  0
   43.3910   27.8790   47.6320 C   0  0  0  0  0  0  0  0  0  0  0  0
   43.3380   29.2560   47.7200 F   0  0  0  0  0  0  0  0  0  0  0  0
   42.1880   27.4470   48.2140 F   0  0  0  0  0  0  0  0  0  0  0  0
   44.4910   27.4740   48.3560 F   0  0  0  0  0  0  0  0  0  0  0  0
   43.6330   26.2040   42.1750 C   0  0  0  0  0  0  0  0  0  0  0  0
   43.6620   27.4070   41.2290 C   0  0  0  0  0  0  0  0  0  0  0  0
   44.9700   25.5030   41.9480 C   0  0  0  0  0  0  0  0  0  0  0  0
   42.5150   25.3460   41.6910 C   0  0  0  0  0  0  0  0  0  0  0  0
   41.1860   27.0320   43.3870 O   0  0  0  0  0  0  0  0  0  0  0  0
   37.1220   29.0590   43.3170 N   0  0  0  0  0  0  0  0  0  0  0  0
   37.0380   27.7780   43.7310 C   0  0  0  0  0  0  0  0  0  0  0  0
   38.2930   27.2740   43.7140 N   0  0  0  0  0  0  0  0  0  0  0  0
   39.1780   28.2030   43.2990 C   0  0  0  0  0  0  0  0  0  0  0  0
   40.5450   28.2320   43.0990 C   0  0  0  0  0  0  0  0  0  0  0  0
   41.1260   29.3800   42.6570 N   0  0  0  0  0  0  0  0  0  0  0  0
   40.3570   30.4620   42.4250 C   0  0  0  0  0  0  0  0  0  0  0  0
   39.0100   30.4720   42.6100 N   0  0  0  0  0  0  0  0  0  0  0  0
   38.3970   29.3430   43.0500 C   0  0  0  0  0  0  0  0  0  0  0  0
   45.6299   26.3525   43.9443 H   0  0  0  0  0  0  0  0  0  0  0  0
   43.6844   28.3359   41.8177 H   0  0  0  0  0  0  0  0  0  0  0  0
   44.5591   27.3531   40.5947 H   0  0  0  0  0  0  0  0  0  0  0  0
   42.7633   27.3964   40.5947 H   0  0  0  0  0  0  0  0  0  0  0  0
   45.4277   25.2630   42.9190 H   0  0  0  0  0  0  0  0  0  0  0  0
   44.8058   24.5750   41.3807 H   0  0  0  0  0  0  0  0  0  0  0  0
   45.6399   26.1659   41.3807 H   0  0  0  0  0  0  0  0  0  0  0  0
   41.9727   24.9298   42.5528 H   0  0  0  0  0  0  0  0  0  0  0  0
   41.8267   25.9499   41.0815 H   0  0  0  0  0  0  0  0  0  0  0  0
   42.9203   24.5249   41.0815 H   0  0  0  0  0  0  0  0  0  0  0  0
   36.3304   29.7112   43.2226 H   0  0  0  0  0  0  0  0  0  0  0  0
   36.1225   27.2445   44.0264 H   0  0  0  0  0  0  0  0  0  0  0  0
   40.8428   31.3823   42.0685 H   0  0  0  0  0  0  0  0  0  0  0  0
  1  6  2  0
  2  3  2  0
  2  1  1  0
  3  4  1  0
  4  5  2  0
  5  7  1  0
  6  5  1  0
  7  8  1  0
  7  9  1  0
  7 10  1  0
 11  2  1  0
 12 11  1  0
 13 11  1  0
 14 11  1  0
 15  3  1  0
 16 17  1  0
 18 17  2  0
 19 18  1  0
 20 19  2  0
 20 15  1  0
 21 20  1  0
 22 23  1  0
 22 21  2  0
 23 24  2  0
 24 19  1  0
 24 16  1  0
  1 25  1  0
 12 26  1  0
 12 27  1  0
 12 28  1  0
 13 29  1  0
 13 30  1  0
 13 31  1  0
 14 32  1  0
 14 33  1  0
 14 34  1  0
 16 35  1  0
 17 36  1  0
 22 37  1  0
M  ISO  8  25  14  26   8  27   8  28   8  29   8  30   8  31   8  32   8
M  ISO  5  33   8  34   8  35   9  36  14  37  14
M  END
>  <minimizedAffinity>  (1) 
-5.24879074

>  <minimizedRMSD>  (1) 
0.57704407

$$$$
