
     RDKit          3D

 29 32  0  0  0  0  0  0  0  0999 V2000
   40.2030   30.0550   39.1410 C   0  0  0  0  0  0  0  0  0  0  0  0
   40.1690   29.1220   40.1740 C   0  0  0  0  0  0  0  0  0  0  0  0
   39.0960   29.3870   40.9060 N   0  0  0  0  0  0  0  0  0  0  0  0
   38.4090   30.4370   40.4290 C   0  0  0  0  0  0  0  0  0  0  0  0
   37.2410   31.0430   40.8850 C   0  0  0  0  0  0  0  0  0  0  0  0
   36.7570   32.1320   40.1740 C   0  0  0  0  0  0  0  0  0  0  0  0
   37.4190   32.5870   39.0610 C   0  0  0  0  0  0  0  0  0  0  0  0
   38.5800   31.9950   38.5970 C   0  0  0  0  0  0  0  0  0  0  0  0
   39.0860   30.8920   39.3000 C   0  0  0  0  0  0  0  0  0  0  0  0
   38.7120   28.6460   42.0640 C   0  0  0  0  0  0  0  0  0  0  0  0
   39.5000   27.9570   42.9260 N   0  0  0  0  0  0  0  0  0  0  0  0
   38.7780   27.4110   43.8620 O   0  0  0  0  0  0  0  0  0  0  0  0
   37.5160   27.7020   43.6740 C   0  0  0  0  0  0  0  0  0  0  0  0
   37.4800   28.4620   42.5640 N   0  0  0  0  0  0  0  0  0  0  0  0
   42.7960   31.4810   36.9860 C   0  0  0  0  0  0  0  0  0  0  0  0
   43.0640   30.4160   36.0650 C   0  0  0  0  0  0  0  0  0  0  0  0
   42.3340   29.2350   36.2210 C   0  0  0  0  0  0  0  0  0  0  0  0
   41.4260   29.1660   37.2240 N   0  0  0  0  0  0  0  0  0  0  0  0
   41.1960   30.1760   38.0700 C   0  0  0  0  0  0  0  0  0  0  0  0
   41.8810   31.3300   37.9500 N   0  0  0  0  0  0  0  0  0  0  0  0
   40.8964   28.3158   40.3498 H   0  0  0  0  0  0  0  0  0  0  0  0
   36.7194   30.6708   41.7791 H   0  0  0  0  0  0  0  0  0  0  0  0
   35.8360   32.6343   40.5048 H   0  0  0  0  0  0  0  0  0  0  0  0
   37.0119   33.4531   38.5187 H   0  0  0  0  0  0  0  0  0  0  0  0
   39.0918   32.3785   37.7020 H   0  0  0  0  0  0  0  0  0  0  0  0
   36.6625   27.3903   44.2941 H   0  0  0  0  0  0  0  0  0  0  0  0
   43.3467   32.4293   36.8995 H   0  0  0  0  0  0  0  0  0  0  0  0
   43.8140   30.5241   35.2677 H   0  0  0  0  0  0  0  0  0  0  0  0
   42.4928   28.3815   35.5455 H   0  0  0  0  0  0  0  0  0  0  0  0
  1  9  1  0
  1  2  2  0
  2  3  1  0
  3 10  1  0
  4  5  2  0
  4  3  1  0
  6  5  1  0
  7  6  2  0
  8  7  1  0
  8  9  2  0
  9  4  1  0
 10 14  1  0
 10 11  2  0
 11 12  1  0
 13 12  1  0
 14 13  2  0
 15 20  2  0
 16 17  2  0
 16 15  1  0
 17 18  1  0
 18 19  2  0
 19  1  1  0
 20 19  1  0
  2 21  1  0
  5 22  1  0
  6 23  1  0
  7 24  1  0
  8 25  1  0
 13 26  1  0
 15 27  1  0
 16 28  1  0
 17 29  1  0
M  ISO  8  21  14  22  14  23  14  24  14  25  14  26  14  27  14  28  14
M  ISO  1  29  14
M  END
>  <minimizedAffinity>  (1) 
-4.85289335

>  <minimizedRMSD>  (1) 
5.41334009

$$$$
