
     RDKit          3D

 44 45  0  0  1  0  0  0  0  0999 V2000
   38.2030   26.8520   42.9940 C   0  0  0  0  0  0  0  0  0  0  0  0
   37.7210   25.5900   42.4290 C   0  0  2  0  0  0  0  0  0  0  0  0
   38.7020   24.4810   42.2380 C   0  0  0  0  0  0  0  0  0  0  0  0
   37.9630   23.5390   41.3090 C   0  0  0  0  0  0  0  0  0  0  0  0
   36.6010   24.1270   41.0840 C   0  0  0  0  0  0  0  0  0  0  0  0
   36.9180   25.6590   41.2260 C   0  0  2  0  0  0  0  0  0  0  0  0
   37.2360   26.1450   39.9130 C   0  0  0  0  0  0  0  0  0  0  0  0
   36.3640   27.2620   39.3910 C   0  0  0  0  0  0  0  0  0  0  0  0
   38.6360   26.5850   39.5800 C   0  0  0  0  0  0  0  0  0  0  0  0
   36.9640   25.0410   38.8580 C   0  0  0  0  0  0  0  0  0  0  0  0
   37.0560   27.8650   43.1420 C   0  0  2  0  0  0  0  0  0  0  0  0
   39.1360   30.7650   41.8670 C   0  0  0  0  0  0  0  0  0  0  0  0
   38.8210   29.5880   42.5680 C   0  0  0  0  0  0  0  0  0  0  0  0
   37.4800   29.1030   42.4680 C   0  0  0  0  0  0  0  0  0  0  0  0
   36.6030   29.8440   41.6850 N   0  0  0  0  0  0  0  0  0  0  0  0
   36.9420   30.9480   41.0420 C   0  0  0  0  0  0  0  0  0  0  0  0
   38.1980   31.4140   41.1260 N   0  0  0  0  0  0  0  0  0  0  0  0
   36.7760   28.0940   44.5990 C   0  0  0  0  0  0  0  0  0  0  0  0
   38.9711   27.2734   42.3289 H   0  0  0  0  0  0  0  0  0  0  0  0
   38.6231   26.6512   43.9906 H   0  0  0  0  0  0  0  0  0  0  0  0
   37.0761   25.3411   43.2847 H   0  0  0  0  0  0  0  0  0  0  0  0
   39.6300   24.8477   41.7751 H   0  0  0  0  0  0  0  0  0  0  0  0
   39.0152   24.0081   43.1805 H   0  0  0  0  0  0  0  0  0  0  0  0
   38.5001   23.4522   40.3529 H   0  0  0  0  0  0  0  0  0  0  0  0
   37.8896   22.5324   41.7464 H   0  0  0  0  0  0  0  0  0  0  0  0
   35.8829   23.7894   41.8458 H   0  0  0  0  0  0  0  0  0  0  0  0
   36.1336   23.8441   40.1293 H   0  0  0  0  0  0  0  0  0  0  0  0
   36.2240   26.4861   41.4364 H   0  0  0  0  0  0  0  0  0  0  0  0
   35.9317   27.8158   40.2374 H   0  0  0  0  0  0  0  0  0  0  0  0
   36.9705   27.9446   38.7777 H   0  0  0  0  0  0  0  0  0  0  0  0
   35.5546   26.8392   38.7777 H   0  0  0  0  0  0  0  0  0  0  0  0
   39.1961   26.7610   40.5102 H   0  0  0  0  0  0  0  0  0  0  0  0
   39.1369   25.8010   38.9932 H   0  0  0  0  0  0  0  0  0  0  0  0
   38.5984   27.5146   38.9932 H   0  0  0  0  0  0  0  0  0  0  0  0
   36.7310   24.0951   39.3688 H   0  0  0  0  0  0  0  0  0  0  0  0
   36.1120   25.3373   38.2285 H   0  0  0  0  0  0  0  0  0  0  0  0
   37.8561   24.9076   38.2285 H   0  0  0  0  0  0  0  0  0  0  0  0
   36.1254   27.4975   42.6848 H   0  0  0  0  0  0  0  0  0  0  0  0
   40.1582   31.1680   41.9186 H   0  0  0  0  0  0  0  0  0  0  0  0
   39.5763   29.0611   43.1696 H   0  0  0  0  0  0  0  0  0  0  0  0
   36.1952   31.4846   40.4384 H   0  0  0  0  0  0  0  0  0  0  0  0
   37.4868   27.5127   45.2047 H   0  0  0  0  0  0  0  0  0  0  0  0
   36.8866   29.1638   44.8299 H   0  0  0  0  0  0  0  0  0  0  0  0
   35.7494   27.7733   44.8299 H   0  0  0  0  0  0  0  0  0  0  0  0
  1 11  1  0
  2  1  1  0
  3  2  1  0
  4  3  1  0
  5  6  1  0
  5  4  1  0
  6  2  1  0
  7  6  1  0
  8  7  1  0
  9  7  1  0
 10  7  1  0
 11 18  1  0
 12 13  2  0
 14 13  1  0
 14 11  1  0
 15 14  2  0
 16 17  2  0
 16 15  1  0
 17 12  1  0
  1 19  1  0
  1 20  1  0
  2 21  1  1
  3 22  1  0
  3 23  1  0
  4 24  1  0
  4 25  1  0
  5 26  1  0
  5 27  1  0
  6 28  1  1
  8 29  1  0
  8 30  1  0
  8 31  1  0
  9 32  1  0
  9 33  1  0
  9 34  1  0
 10 35  1  0
 10 36  1  0
 10 37  1  0
 11 38  1  6
 12 39  1  0
 13 40  1  0
 16 41  1  0
 18 42  1  0
 18 43  1  0
 18 44  1  0
M  ISO  8  19   8  20   8  21  13  22  13  23  13  24  13  25  13  26  13
M  ISO  8  27  13  28  13  29   8  30   8  31   8  32   8  33   8  34   8
M  ISO  8  35   8  36   8  37   8  38   8  39  14  40  14  41  14  42   8
M  ISO  2  43   8  44   8
M  END
>  <minimizedAffinity>  (1) 
-5.12114334

>  <minimizedRMSD>  (1) 
0.776683152

$$$$
