
     RDKit          3D

 52 57  0  0  0  0  0  0  0  0999 V2000
   43.5310   34.1580   40.5980 C   0  0  0  0  0  0  0  0  0  0  0  0
   44.2190   34.7400   41.6900 C   0  0  0  0  0  0  0  0  0  0  0  0
   43.6510   35.7580   42.3670 C   0  0  0  0  0  0  0  0  0  0  0  0
   42.4320   36.1750   41.9550 N   0  0  0  0  0  0  0  0  0  0  0  0
   41.7770   35.6330   40.9240 C   0  0  0  0  0  0  0  0  0  0  0  0
   42.3250   34.6400   40.2610 N   0  0  0  0  0  0  0  0  0  0  0  0
   44.4430   36.2940   43.4730 C   0  0  0  0  0  0  0  0  0  0  0  0
   44.5910   35.5110   44.6770 C   0  0  0  0  0  0  0  0  0  0  0  0
   45.6040   34.6350   45.0260 N   0  0  0  0  0  0  0  0  0  0  0  0
   45.5810   34.4430   46.4040 C   0  0  0  0  0  0  0  0  0  0  0  0
   46.5750   33.6350   46.8910 N   0  0  0  0  0  0  0  0  0  0  0  0
   47.3010   33.2560   45.8530 C   0  0  0  0  0  0  0  0  0  0  0  0
   48.3990   32.4830   45.4770 C   0  0  0  0  0  0  0  0  0  0  0  0
   48.9770   31.9090   46.4620 O   0  0  0  0  0  0  0  0  0  0  0  0
   48.7860   32.3720   44.1880 N   0  0  0  0  0  0  0  0  0  0  0  0
   48.1500   32.9930   43.1810 C   0  0  0  0  0  0  0  0  0  0  0  0
   48.6330   32.8140   41.8570 N   0  0  0  0  0  0  0  0  0  0  0  0
   47.1010   33.7380   43.5020 N   0  0  0  0  0  0  0  0  0  0  0  0
   46.6860   33.8690   44.8020 C   0  0  0  0  0  0  0  0  0  0  0  0
   40.1650   36.2500   40.4210 S   0  0  0  0  0  0  0  0  0  0  0  0
   37.3430   33.5180   40.0310 N   0  0  0  0  0  0  0  0  0  0  0  0
   37.7640   34.7330   39.7850 N   0  0  0  0  0  0  0  0  0  0  0  0
   39.0100   34.8750   40.3140 C   0  0  0  0  0  0  0  0  0  0  0  0
   39.2810   33.6380   40.8840 C   0  0  0  0  0  0  0  0  0  0  0  0
   38.1780   32.7780   40.6850 C   0  0  0  0  0  0  0  0  0  0  0  0
   38.2160   31.4740   41.2270 C   0  0  0  0  0  0  0  0  0  0  0  0
   39.2630   31.1020   42.0190 N   0  0  0  0  0  0  0  0  0  0  0  0
   39.4100   29.9390   42.6140 C   0  0  0  0  0  0  0  0  0  0  0  0
   38.5140   28.9560   42.5050 N   0  0  0  0  0  0  0  0  0  0  0  0
   37.4230   29.2010   41.7400 C   0  0  0  0  0  0  0  0  0  0  0  0
   36.4710   28.2340   41.5770 C   0  0  0  0  0  0  0  0  0  0  0  0
   35.3430   28.4500   40.7850 C   0  0  0  0  0  0  0  0  0  0  0  0
   35.2460   29.6950   40.1760 C   0  0  0  0  0  0  0  0  0  0  0  0
   36.2480   30.6070   40.3950 C   0  0  0  0  0  0  0  0  0  0  0  0
   37.3460   30.4340   41.1540 C   0  0  0  0  0  0  0  0  0  0  0  0
   43.9776   33.3249   40.0354 H   0  0  0  0  0  0  0  0  0  0  0  0
   45.2101   34.3641   41.9839 H   0  0  0  0  0  0  0  0  0  0  0  0
   45.4549   36.4793   43.0836 H   0  0  0  0  0  0  0  0  0  0  0  0
   43.8714   37.1744   43.8018 H   0  0  0  0  0  0  0  0  0  0  0  0
   44.5788   36.2528   45.4891 H   0  0  0  0  0  0  0  0  0  0  0  0
   43.8043   34.7684   44.4778 H   0  0  0  0  0  0  0  0  0  0  0  0
   44.8225   34.9048   47.0532 H   0  0  0  0  0  0  0  0  0  0  0  0
   49.6039   31.7860   43.9676 H   0  0  0  0  0  0  0  0  0  0  0  0
   49.4557   32.2186   41.6850 H   0  0  0  0  0  0  0  0  0  0  0  0
   48.1605   33.2796   41.0691 H   0  0  0  0  0  0  0  0  0  0  0  0
   36.4193   33.1781   39.7275 H   0  0  0  0  0  0  0  0  0  0  0  0
   40.2098   33.3696   41.4087 H   0  0  0  0  0  0  0  0  0  0  0  0
   40.3078   29.7692   43.2265 H   0  0  0  0  0  0  0  0  0  0  0  0
   36.5969   27.2645   42.0812 H   0  0  0  0  0  0  0  0  0  0  0  0
   34.5724   27.6767   40.6500 H   0  0  0  0  0  0  0  0  0  0  0  0
   34.3877   29.9435   39.5344 H   0  0  0  0  0  0  0  0  0  0  0  0
   36.1426   31.5825   39.8976 H   0  0  0  0  0  0  0  0  0  0  0  0
  1  2  2  0
  2  3  1  0
  3  7  1  0
  4  3  2  0
  5  4  1  0
  6  1  1  0
  6  5  2  0
  7  8  1  0
  8  9  1  0
  9 10  1  0
 10 11  2  0
 12 11  1  0
 13 12  1  0
 13 14  2  0
 15 13  1  0
 16 18  2  0
 16 15  1  0
 17 16  1  0
 18 19  1  0
 19  9  1  0
 19 12  2  0
 20  5  1  0
 21 25  1  0
 22 21  1  0
 22 23  2  0
 23 20  1  0
 23 24  1  0
 25 24  2  0
 25 26  1  0
 26 27  2  0
 27 28  1  0
 29 28  2  0
 30 29  1  0
 31 30  2  0
 32 31  1  0
 33 34  1  0
 33 32  2  0
 34 35  2  0
 35 26  1  0
 35 30  1  0
  1 36  1  0
  2 37  1  0
  7 38  1  0
  7 39  1  0
  8 40  1  0
  8 41  1  0
 10 42  1  0
 15 43  1  0
 17 44  1  0
 17 45  1  0
 21 46  1  0
 24 47  1  0
 28 48  1  0
 31 49  1  0
 32 50  1  0
 33 51  1  0
 34 52  1  0
M  END
>  <minimizedAffinity>  (1) 
-8.42268658

>  <minimizedRMSD>  (1) 
1.30199337

$$$$
