
     RDKit          3D

 22 23  0  0  0  0  0  0  0  0999 V2000
   37.1780   30.2630   41.4680 C   0  0  0  0  0  0  0  0  0  0  0  0
   36.0130   30.5330   41.1990 O   0  0  0  0  0  0  0  0  0  0  0  0
   37.4890   28.7100   43.4100 C   0  0  0  0  0  0  0  0  0  0  0  0
   37.7030   29.0090   42.0610 C   0  0  0  0  0  0  0  0  0  0  0  0
   38.4030   28.1690   41.2220 C   0  0  0  0  0  0  0  0  0  0  0  0
   38.8650   27.0290   41.8180 N   0  0  0  0  0  0  0  0  0  0  0  0
   38.6730   26.7230   43.1020 C   0  0  0  0  0  0  0  0  0  0  0  0
   37.9780   27.5660   43.9160 N   0  0  0  0  0  0  0  0  0  0  0  0
   38.1290   31.2250   41.1940 O   0  0  0  0  0  0  0  0  0  0  0  0
   38.0110   32.3760   40.5150 C   0  0  0  0  0  0  0  0  0  0  0  0
   39.7550   32.9310   40.2070 S   0  0  0  0  0  0  0  0  0  0  0  0
   39.7830   34.7240   40.0640 C   0  0  0  0  0  0  0  0  0  0  0  0
   38.7850   35.6230   40.0980 N   0  0  0  0  0  0  0  0  0  0  0  0
   39.2310   36.8190   39.9580 O   0  0  0  0  0  0  0  0  0  0  0  0
   40.5270   36.7680   39.8270 C   0  0  0  0  0  0  0  0  0  0  0  0
   40.8880   35.4680   39.8900 N   0  0  0  0  0  0  0  0  0  0  0  0
   36.9258   29.4047   44.0504 H   0  0  0  0  0  0  0  0  0  0  0  0
   38.5757   28.3973   40.1599 H   0  0  0  0  0  0  0  0  0  0  0  0
   39.0785   25.7838   43.5064 H   0  0  0  0  0  0  0  0  0  0  0  0
   37.4836   32.2117   39.5638 H   0  0  0  0  0  0  0  0  0  0  0  0
   37.4300   33.1266   41.0709 H   0  0  0  0  0  0  0  0  0  0  0  0
   41.2021   37.6256   39.6903 H   0  0  0  0  0  0  0  0  0  0  0  0
  1  4  1  0
  2  1  2  0
  3  8  2  0
  4  3  1  0
  5  6  1  0
  5  4  2  0
  6  7  2  0
  7  8  1  0
  9  1  1  0
 10  9  1  0
 11 10  1  0
 12 13  2  0
 12 11  1  0
 14 13  1  0
 15 16  2  0
 15 14  1  0
 16 12  1  0
  3 17  1  0
  5 18  1  0
  7 19  1  0
 10 20  1  0
 10 21  1  0
 15 22  1  0
M  ISO  6  17  14  18  14  19  14  20   8  21   8  22  14
M  END
>  <minimizedAffinity>  (1) 
-4.26669788

>  <minimizedRMSD>  (1) 
2.47699165

$$$$
