
     RDKit          3D

 52 57  0  0  1  0  0  0  0  0999 V2000
   37.2350   26.0160   41.3790 C   0  0  0  0  0  0  0  0  0  0  0  0
   37.6520   24.7830   40.9180 C   0  0  0  0  0  0  0  0  0  0  0  0
   37.3460   24.4980   39.6050 C   0  0  0  0  0  0  0  0  0  0  0  0
   36.6680   25.4140   38.8500 C   0  0  0  0  0  0  0  0  0  0  0  0
   36.2540   26.6470   39.3210 C   0  0  0  0  0  0  0  0  0  0  0  0
   36.5690   26.8970   40.6110 N   0  0  0  0  0  0  0  0  0  0  0  0
   35.5380   27.6210   38.5280 C   0  0  0  0  0  0  0  0  0  0  0  0
   36.0190   28.8770   38.4990 N   0  0  0  0  0  0  0  0  0  0  0  0
   35.2870   29.6330   37.7580 O   0  0  0  0  0  0  0  0  0  0  0  0
   34.3110   28.8700   37.2920 C   0  0  0  0  0  0  0  0  0  0  0  0
   34.4460   27.5980   37.7610 N   0  0  0  0  0  0  0  0  0  0  0  0
   33.2380   29.2270   36.4260 N   0  0  0  0  0  0  0  0  0  0  0  0
   33.2170   29.2070   35.0640 C   0  0  0  0  0  0  0  0  0  0  0  0
   31.9860   29.6290   34.6630 N   0  0  0  0  0  0  0  0  0  0  0  0
   31.2350   29.9130   35.7550 C   0  0  0  0  0  0  0  0  0  0  0  0
   29.9370   30.3680   35.9190 C   0  0  0  0  0  0  0  0  0  0  0  0
   29.4760   30.5550   37.1880 N   0  0  0  0  0  0  0  0  0  0  0  0
   30.2460   30.3090   38.2760 C   0  0  0  0  0  0  0  0  0  0  0  0
   31.4950   29.8690   38.0570 N   0  0  0  0  0  0  0  0  0  0  0  0
   32.0340   29.6560   36.8550 C   0  0  0  0  0  0  0  0  0  0  0  0
   29.1070   30.6350   34.7870 N   0  0  0  0  0  0  0  0  0  0  0  0
   37.4840   26.4660   42.7500 C   0  0  0  0  0  0  0  0  0  0  0  0
   36.9130   27.7880   43.0580 C   0  0  2  0  0  0  0  0  0  0  0  0
   38.4280   30.8050   41.7100 N   0  0  0  0  0  0  0  0  0  0  0  0
   39.4380   30.2440   42.3610 C   0  0  0  0  0  0  0  0  0  0  0  0
   39.0520   29.1010   42.9290 N   0  0  0  0  0  0  0  0  0  0  0  0
   37.7270   28.9350   42.6180 C   0  0  0  0  0  0  0  0  0  0  0  0
   37.3890   29.9960   41.8740 N   0  0  0  0  0  0  0  0  0  0  0  0
   37.1570   32.1240   39.9750 C   0  0  0  0  0  0  0  0  0  0  0  0
   38.1750   31.9860   40.9200 C   0  0  0  0  0  0  0  0  0  0  0  0
   39.0640   33.0920   41.1530 C   0  0  0  0  0  0  0  0  0  0  0  0
   38.8530   34.2040   40.4330 N   0  0  0  0  0  0  0  0  0  0  0  0
   37.8600   34.2880   39.5350 C   0  0  0  0  0  0  0  0  0  0  0  0
   37.0370   33.2650   39.3190 N   0  0  0  0  0  0  0  0  0  0  0  0
   36.8020   27.9280   44.6010 C   0  0  0  0  0  0  0  0  0  0  0  0
   38.1946   24.0726   41.5589 H   0  0  0  0  0  0  0  0  0  0  0  0
   37.6466   23.5355   39.1654 H   0  0  0  0  0  0  0  0  0  0  0  0
   36.4380   25.1552   37.8059 H   0  0  0  0  0  0  0  0  0  0  0  0
   34.0454   28.9044   34.4065 H   0  0  0  0  0  0  0  0  0  0  0  0
   29.8634   30.4635   39.2957 H   0  0  0  0  0  0  0  0  0  0  0  0
   28.1436   30.9730   34.9231 H   0  0  0  0  0  0  0  0  0  0  0  0
   29.4721   30.4895   33.8349 H   0  0  0  0  0  0  0  0  0  0  0  0
   37.0461   25.7303   43.4407 H   0  0  0  0  0  0  0  0  0  0  0  0
   38.5745   26.5554   42.8632 H   0  0  0  0  0  0  0  0  0  0  0  0
   35.9533   27.8204   42.5214 H   0  0  0  0  0  0  0  0  0  0  0  0
   40.4530   30.6633   42.4237 H   0  0  0  0  0  0  0  0  0  0  0  0
   36.4632   31.2933   39.7787 H   0  0  0  0  0  0  0  0  0  0  0  0
   39.8799   33.0291   41.8881 H   0  0  0  0  0  0  0  0  0  0  0  0
   37.7236   35.2199   38.9667 H   0  0  0  0  0  0  0  0  0  0  0  0
   37.4158   27.1538   45.0845 H   0  0  0  0  0  0  0  0  0  0  0  0
   37.1596   28.9227   44.9056 H   0  0  0  0  0  0  0  0  0  0  0  0
   35.7520   27.8067   44.9056 H   0  0  0  0  0  0  0  0  0  0  0  0
  1 22  1  0
  2  1  2  0
  3  2  1  0
  4  5  1  0
  4  3  2  0
  5  6  2  0
  6  1  1  0
  7  5  1  0
  8  7  2  0
  9  8  1  0
 10  9  1  0
 10 11  2  0
 11  7  1  0
 12 20  1  0
 12 10  1  0
 13 12  1  0
 14 13  2  0
 14 15  1  0
 15 16  2  0
 15 20  1  0
 16 17  1  0
 17 18  2  0
 19 18  1  0
 20 19  2  0
 21 16  1  0
 22 23  1  0
 23 35  1  0
 24 28  1  0
 24 25  1  0
 25 26  2  0
 27 26  1  0
 27 23  1  0
 28 27  2  0
 29 30  2  0
 30 31  1  0
 30 24  1  0
 32 31  2  0
 33 32  1  0
 34 33  2  0
 34 29  1  0
  2 36  1  0
  3 37  1  0
  4 38  1  0
 13 39  1  0
 18 40  1  0
 21 41  1  0
 21 42  1  0
 22 43  1  0
 22 44  1  0
 23 45  1  6
 25 46  1  0
 29 47  1  0
 31 48  1  0
 33 49  1  0
 35 50  1  0
 35 51  1  0
 35 52  1  0
M  END
>  <minimizedAffinity>  (1) 
-7.03907537

>  <minimizedRMSD>  (1) 
1.83126199

$$$$
