
     RDKit          3D

 43 47  0  0  0  0  0  0  0  0999 V2000
   36.9440   31.2360   40.6410 C   0  0  0  0  0  0  0  0  0  0  0  0
   36.6400   31.6240   39.3540 N   0  0  0  0  0  0  0  0  0  0  0  0
   37.5880   32.4300   38.9320 O   0  0  0  0  0  0  0  0  0  0  0  0
   38.4620   32.5490   39.9160 C   0  0  0  0  0  0  0  0  0  0  0  0
   38.0920   31.8330   40.9670 N   0  0  0  0  0  0  0  0  0  0  0  0
   39.6610   33.3710   39.8170 C   0  0  0  0  0  0  0  0  0  0  0  0
   39.7510   34.7410   39.9600 C   0  0  0  0  0  0  0  0  0  0  0  0
   41.0520   35.1350   39.7960 C   0  0  0  0  0  0  0  0  0  0  0  0
   41.7450   33.9730   39.5530 C   0  0  0  0  0  0  0  0  0  0  0  0
   40.9000   32.9890   39.5760 O   0  0  0  0  0  0  0  0  0  0  0  0
   43.1490   33.9020   39.3190 N   0  0  0  0  0  0  0  0  0  0  0  0
   43.6820   34.1390   38.0850 C   0  0  0  0  0  0  0  0  0  0  0  0
   45.0400   34.0100   38.1180 N   0  0  0  0  0  0  0  0  0  0  0  0
   45.3760   33.6930   39.3710 C   0  0  0  0  0  0  0  0  0  0  0  0
   46.5770   33.4320   40.0420 C   0  0  0  0  0  0  0  0  0  0  0  0
   46.5200   33.1330   41.3640 N   0  0  0  0  0  0  0  0  0  0  0  0
   45.3660   33.0760   42.0560 C   0  0  0  0  0  0  0  0  0  0  0  0
   44.1830   33.3260   41.4260 N   0  0  0  0  0  0  0  0  0  0  0  0
   44.2080   33.6280   40.1070 C   0  0  0  0  0  0  0  0  0  0  0  0
   47.8030   33.4910   39.3140 N   0  0  0  0  0  0  0  0  0  0  0  0
   36.2470   30.3880   41.5150 O   0  0  0  0  0  0  0  0  0  0  0  0
   38.1910   28.0050   43.4600 C   0  0  0  0  0  0  0  0  0  0  0  0
   37.9390   26.8440   42.6610 C   0  0  0  0  0  0  0  0  0  0  0  0
   37.1370   26.9860   41.5460 C   0  0  0  0  0  0  0  0  0  0  0  0
   36.6390   28.2110   41.2800 N   0  0  0  0  0  0  0  0  0  0  0  0
   36.8710   29.2840   42.0140 C   0  0  0  0  0  0  0  0  0  0  0  0
   37.6520   29.1960   43.1200 N   0  0  0  0  0  0  0  0  0  0  0  0
   36.9610   25.7420   40.8330 C   0  0  0  0  0  0  0  0  0  0  0  0
   36.9970   24.5100   41.6310 C   0  0  0  0  0  0  0  0  0  0  0  0
   37.8230   23.1440   40.7390 S   0  0  0  0  0  0  0  0  0  0  0  0
   38.9068   35.4132   40.1731 H   0  0  0  0  0  0  0  0  0  0  0  0
   41.4545   36.1574   39.8474 H   0  0  0  0  0  0  0  0  0  0  0  0
   43.0984   34.3978   37.1892 H   0  0  0  0  0  0  0  0  0  0  0  0
   45.3779   32.8282   43.1277 H   0  0  0  0  0  0  0  0  0  0  0  0
   48.6955   33.3018   39.7921 H   0  0  0  0  0  0  0  0  0  0  0  0
   47.7954   33.7228   38.3105 H   0  0  0  0  0  0  0  0  0  0  0  0
   38.8263   27.9268   44.3546 H   0  0  0  0  0  0  0  0  0  0  0  0
   38.3713   25.8682   42.9274 H   0  0  0  0  0  0  0  0  0  0  0  0
   35.9844   25.7831   40.3284 H   0  0  0  0  0  0  0  0  0  0  0  0
   37.8266   25.6726   40.1578 H   0  0  0  0  0  0  0  0  0  0  0  0
   37.5439   24.7070   42.5649 H   0  0  0  0  0  0  0  0  0  0  0  0
   35.9599   24.2058   41.8355 H   0  0  0  0  0  0  0  0  0  0  0  0
   38.3553   22.2637   41.6438 H   0  0  0  0  0  0  0  0  0  0  0  0
  1  5  1  0
  1 21  1  0
  2  1  2  0
  3  2  1  0
  3  4  1  0
  4  5  2  0
  6  4  1  0
  6  7  2  0
  8  7  1  0
  9 10  1  0
  9  8  2  0
 10  6  1  0
 11  9  1  0
 11 19  1  0
 12 13  2  0
 12 11  1  0
 13 14  1  0
 14 15  1  0
 14 19  2  0
 15 16  2  0
 16 17  1  0
 18 17  2  0
 19 18  1  0
 20 15  1  0
 21 26  1  0
 23 22  2  0
 24 23  1  0
 25 24  2  0
 25 26  1  0
 26 27  2  0
 27 22  1  0
 28 24  1  0
 28 29  1  0
 30 29  1  0
  7 31  1  0
  8 32  1  0
 12 33  1  0
 17 34  1  0
 20 35  1  0
 20 36  1  0
 22 37  1  0
 23 38  1  0
 28 39  1  0
 28 40  1  0
 29 41  1  0
 29 42  1  0
 30 43  1  0
M  ISO  8  31  14  32  14  33  14  34  14  37  14  38  14  39   8  40   8
M  ISO  3  41   8  42   8  43  11
M  END
>  <minimizedAffinity>  (1) 
-6.15681219

>  <minimizedRMSD>  (1) 
1.49417508

$$$$
