
     RDKit          3D

 18 19  0  0  0  0  0  0  0  0999 V2000
   38.5060   28.9020   43.2860 C   0  0  0  0  0  0  0  0  0  0  0  0
   37.9540   27.6310   43.5580 C   0  0  0  0  0  0  0  0  0  0  0  0
   36.7940   27.2510   42.8640 C   0  0  0  0  0  0  0  0  0  0  0  0
   36.2710   28.1340   41.9680 N   0  0  0  0  0  0  0  0  0  0  0  0
   36.8240   29.3290   41.7380 C   0  0  0  0  0  0  0  0  0  0  0  0
   37.9320   29.7290   42.3800 N   0  0  0  0  0  0  0  0  0  0  0  0
   36.0970   30.0340   40.7810 O   0  0  0  0  0  0  0  0  0  0  0  0
   36.5730   31.1910   40.1860 C   0  0  0  0  0  0  0  0  0  0  0  0
   36.8620   31.1020   38.8200 C   0  0  0  0  0  0  0  0  0  0  0  0
   37.3130   32.2860   38.3680 N   0  0  0  0  0  0  0  0  0  0  0  0
   37.3140   33.1180   39.4260 C   0  0  0  0  0  0  0  0  0  0  0  0
   36.8720   32.4610   40.5140 N   0  0  0  0  0  0  0  0  0  0  0  0
   39.4139   29.2245   43.8168 H   0  0  0  0  0  0  0  0  0  0  0  0
   38.4196   26.9577   44.2928 H   0  0  0  0  0  0  0  0  0  0  0  0
   36.3229   26.2723   43.0381 H   0  0  0  0  0  0  0  0  0  0  0  0
   36.7387   30.1975   38.2063 H   0  0  0  0  0  0  0  0  0  0  0  0
   37.6277   34.1721   39.4046 H   0  0  0  0  0  0  0  0  0  0  0  0
   36.7770   32.8686   41.4551 H   0  0  0  0  0  0  0  0  0  0  0  0
  1  2  2  0
  3  2  1  0
  4  3  2  0
  5  4  1  0
  5  6  2  0
  6  1  1  0
  7  5  1  0
  8 12  1  0
  8  7  1  0
  9  8  2  0
 10  9  1  0
 10 11  2  0
 11 12  1  0
  1 13  1  0
  2 14  1  0
  3 15  1  0
  9 16  1  0
 11 17  1  0
 12 18  1  0
M  ISO  6  13  14  14  14  15  14  16  14  17  14  18   9
M  END
>  <minimizedAffinity>  (1) 
-4.24708319

>  <minimizedRMSD>  (1) 
0.575930119

$$$$
