
     RDKit          3D

 33 35  0  0  1  0  0  0  0  0999 V2000
   38.4970   28.2620   43.0290 C   0  0  2  0  0  0  0  0  0  0  0  0
   39.8990   28.6340   42.9840 C   0  0  0  0  0  0  0  0  0  0  0  0
   40.6400   27.4240   43.5680 C   0  0  0  0  0  0  0  0  0  0  0  0
   39.5610   26.4070   43.9020 C   0  0  0  0  0  0  0  0  0  0  0  0
   38.4440   26.7870   42.9260 C   0  0  2  0  0  0  0  0  0  0  0  0
   36.3100   28.3990   41.7570 C   0  0  0  0  0  0  0  0  0  0  0  0
   37.5730   28.9280   42.1290 C   0  0  0  0  0  0  0  0  0  0  0  0
   37.9490   30.1810   41.5960 C   0  0  0  0  0  0  0  0  0  0  0  0
   37.0920   30.8010   40.7690 N   0  0  0  0  0  0  0  0  0  0  0  0
   35.8780   30.2760   40.4190 C   0  0  0  0  0  0  0  0  0  0  0  0
   35.5100   29.0600   40.9350 N   0  0  0  0  0  0  0  0  0  0  0  0
   38.5330   26.1390   41.6920 N   0  0  0  0  0  0  0  0  0  0  0  0
   39.3490   26.3490   40.6630 C   0  0  0  0  0  0  0  0  0  0  0  0
   39.3530   25.6440   39.4770 C   0  0  0  0  0  0  0  0  0  0  0  0
   38.4280   24.6200   39.3310 C   0  0  0  0  0  0  0  0  0  0  0  0
   38.3600   23.9270   38.2860 O   0  0  0  0  0  0  0  0  0  0  0  0
   37.6040   24.4140   40.3780 N   0  0  0  0  0  0  0  0  0  0  0  0
   37.6380   25.1190   41.4990 C   0  0  0  0  0  0  0  0  0  0  0  0
   36.7890   24.7900   42.3890 O   0  0  0  0  0  0  0  0  0  0  0  0
   38.1066   28.6366   43.9867 H   0  0  0  0  0  0  0  0  0  0  0  0
   40.2178   28.8216   41.9481 H   0  0  0  0  0  0  0  0  0  0  0  0
   40.1033   29.5583   43.5443 H   0  0  0  0  0  0  0  0  0  0  0  0
   41.3422   27.0104   42.8292 H   0  0  0  0  0  0  0  0  0  0  0  0
   41.2307   27.6973   44.4548 H   0  0  0  0  0  0  0  0  0  0  0  0
   39.9127   25.3799   43.7251 H   0  0  0  0  0  0  0  0  0  0  0  0
   39.2499   26.4241   44.9570 H   0  0  0  0  0  0  0  0  0  0  0  0
   37.4242   26.4367   43.1432 H   0  0  0  0  0  0  0  0  0  0  0  0
   35.9909   27.4254   42.1575 H   0  0  0  0  0  0  0  0  0  0  0  0
   38.9172   30.6362   41.8515 H   0  0  0  0  0  0  0  0  0  0  0  0
   35.2090   30.8197   39.7358 H   0  0  0  0  0  0  0  0  0  0  0  0
   40.0873   27.1577   40.7668 H   0  0  0  0  0  0  0  0  0  0  0  0
   40.0653   25.8855   38.6744 H   0  0  0  0  0  0  0  0  0  0  0  0
   36.9046   23.6617   40.3015 H   0  0  0  0  0  0  0  0  0  0  0  0
  2  1  1  0
  2  3  1  0
  3  4  1  0
  5  1  1  0
  5  4  1  0
  6  7  2  0
  7  1  1  0
  8  7  1  0
  9  8  2  0
 10  9  1  0
 10 11  2  0
 11  6  1  0
 12  5  1  0
 13 12  1  0
 14 13  2  0
 15 14  1  0
 15 17  1  0
 16 15  2  0
 17 18  1  0
 18 12  1  0
 18 19  2  0
  1 20  1  1
  2 21  1  0
  2 22  1  0
  3 23  1  0
  3 24  1  0
  4 25  1  0
  4 26  1  0
  5 27  1  1
  6 28  1  0
  8 29  1  0
 10 30  1  0
 13 31  1  0
 14 32  1  0
 17 33  1  0
M  ISO  8  20  13  21  13  22  13  23  13  24  13  25  13  26  13  27  13
M  ISO  6  28  14  29  14  30  14  31  14  32  14  33   9
M  END
>  <minimizedAffinity>  (1) 
-4.84579563

>  <minimizedRMSD>  (1) 
2.23784828

$$$$
