
     RDKit          3D

 49 53  0  0  0  0  0  0  0  0999 V2000
   37.5970   28.9260   37.1640 C   0  0  0  0  0  0  0  0  0  0  0  0
   38.9500   29.1430   37.3610 C   0  0  0  0  0  0  0  0  0  0  0  0
   39.9700   28.2750   37.0850 C   0  0  0  0  0  0  0  0  0  0  0  0
   39.6590   27.0460   36.5570 C   0  0  0  0  0  0  0  0  0  0  0  0
   38.3220   26.7500   36.3320 C   0  0  0  0  0  0  0  0  0  0  0  0
   38.0930   25.5090   35.8150 C   0  0  0  0  0  0  0  0  0  0  0  0
   36.8180   25.1120   35.5650 C   0  0  0  0  0  0  0  0  0  0  0  0
   35.7800   25.9870   35.8470 C   0  0  0  0  0  0  0  0  0  0  0  0
   36.0870   27.2230   36.3670 C   0  0  0  0  0  0  0  0  0  0  0  0
   37.3410   27.6680   36.6320 C   0  0  0  0  0  0  0  0  0  0  0  0
   34.8620   27.8980   36.6080 N   0  0  0  0  0  0  0  0  0  0  0  0
   34.0150   28.1470   37.6330 C   0  0  0  0  0  0  0  0  0  0  0  0
   32.9070   28.9490   37.5230 C   0  0  0  0  0  0  0  0  0  0  0  0
   32.6010   29.5540   36.3330 C   0  0  0  0  0  0  0  0  0  0  0  0
   31.5800   30.2730   36.2940 O   0  0  0  0  0  0  0  0  0  0  0  0
   33.4240   29.3270   35.2960 N   0  0  0  0  0  0  0  0  0  0  0  0
   34.5270   28.5270   35.4080 C   0  0  0  0  0  0  0  0  0  0  0  0
   35.1420   28.4700   34.2850 O   0  0  0  0  0  0  0  0  0  0  0  0
   36.4980   29.8690   37.3850 C   0  0  0  0  0  0  0  0  0  0  0  0
   36.5580   30.5860   38.7170 C   0  0  0  0  0  0  0  0  0  0  0  0
   37.6900   28.6350   41.4350 C   0  0  0  0  0  0  0  0  0  0  0  0
   36.3480   28.4360   41.5270 C   0  0  0  0  0  0  0  0  0  0  0  0
   35.7790   29.1650   40.4850 C   0  0  0  0  0  0  0  0  0  0  0  0
   36.8180   29.7530   39.8360 N   0  0  0  0  0  0  0  0  0  0  0  0
   37.9300   29.4440   40.3890 N   0  0  0  0  0  0  0  0  0  0  0  0
   39.4080   26.5650   44.0210 C   0  0  0  0  0  0  0  0  0  0  0  0
   38.3880   27.0440   43.1930 C   0  0  0  0  0  0  0  0  0  0  0  0
   38.7050   28.0920   42.3060 C   0  0  0  0  0  0  0  0  0  0  0  0
   39.9660   28.5910   42.2830 N   0  0  0  0  0  0  0  0  0  0  0  0
   40.9190   28.0730   43.1220 C   0  0  0  0  0  0  0  0  0  0  0  0
   40.6410   27.0840   43.9680 N   0  0  0  0  0  0  0  0  0  0  0  0
   39.2349   30.1174   37.7846 H   0  0  0  0  0  0  0  0  0  0  0  0
   41.0155   28.5548   37.2814 H   0  0  0  0  0  0  0  0  0  0  0  0
   40.4474   26.3168   36.3191 H   0  0  0  0  0  0  0  0  0  0  0  0
   38.9350   24.8340   35.6018 H   0  0  0  0  0  0  0  0  0  0  0  0
   36.6131   24.1154   35.1468 H   0  0  0  0  0  0  0  0  0  0  0  0
   34.7350   25.6994   35.6592 H   0  0  0  0  0  0  0  0  0  0  0  0
   34.2258   27.6815   38.6071 H   0  0  0  0  0  0  0  0  0  0  0  0
   32.2592   29.1073   38.3978 H   0  0  0  0  0  0  0  0  0  0  0  0
   33.2178   29.7691   34.3888 H   0  0  0  0  0  0  0  0  0  0  0  0
   36.5239   30.6235   36.5850 H   0  0  0  0  0  0  0  0  0  0  0  0
   35.5690   29.2799   37.3831 H   0  0  0  0  0  0  0  0  0  0  0  0
   37.3552   31.3419   38.6619 H   0  0  0  0  0  0  0  0  0  0  0  0
   35.5586   31.0158   38.8797 H   0  0  0  0  0  0  0  0  0  0  0  0
   35.8192   27.8239   42.2725 H   0  0  0  0  0  0  0  0  0  0  0  0
   34.7101   29.2475   40.2387 H   0  0  0  0  0  0  0  0  0  0  0  0
   39.1940   25.7490   44.7269 H   0  0  0  0  0  0  0  0  0  0  0  0
   37.3746   26.6180   43.2327 H   0  0  0  0  0  0  0  0  0  0  0  0
   41.9385   28.4852   43.0951 H   0  0  0  0  0  0  0  0  0  0  0  0
  1  2  2  0
  1 19  1  0
  3  2  1  0
  4  3  2  0
  5  4  1  0
  5 10  2  0
  6  5  1  0
  7  6  2  0
  7  8  1  0
  8  9  2  0
  9 11  1  0
  9 10  1  0
 10  1  1  0
 11 12  1  0
 13 12  2  0
 14 13  1  0
 15 14  2  0
 16 17  1  0
 16 14  1  0
 17 11  1  0
 18 17  2  0
 19 20  1  0
 20 24  1  0
 21 22  1  0
 21 28  1  0
 23 22  2  0
 24 25  1  0
 24 23  1  0
 25 21  2  0
 27 26  2  0
 28 27  1  0
 29 28  2  0
 29 30  1  0
 30 31  2  0
 31 26  1  0
  2 32  1  0
  3 33  1  0
  4 34  1  0
  6 35  1  0
  7 36  1  0
  8 37  1  0
 12 38  1  0
 13 39  1  0
 16 40  1  0
 19 41  1  0
 19 42  1  0
 20 43  1  0
 20 44  1  0
 22 45  1  0
 23 46  1  0
 26 47  1  0
 27 48  1  0
 30 49  1  0
M  ISO  8  32  14  33  14  34  14  35  14  36  14  37  14  38  14  39  14
M  ISO  8  40   9  41   8  42   8  43   8  44   8  45  14  46  14  47  14
M  ISO  2  48  14  49  14
M  END
>  <minimizedAffinity>  (1) 
-5.32678223

>  <minimizedRMSD>  (1) 
3.3857851

$$$$
