
     RDKit          3D

 37 39  0  0  0  0  0  0  0  0999 V2000
   41.2250   30.8870   41.0400 C   0  0  0  0  0  0  0  0  0  0  0  0
   40.4750   32.0590   41.0710 C   0  0  0  0  0  0  0  0  0  0  0  0
   41.2810   33.1170   40.6450 C   0  0  0  0  0  0  0  0  0  0  0  0
   42.4820   32.5110   40.3800 C   0  0  0  0  0  0  0  0  0  0  0  0
   42.4090   31.2400   40.6170 O   0  0  0  0  0  0  0  0  0  0  0  0
   40.8370   34.4610   40.5540 N   0  0  0  0  0  0  0  0  0  0  0  0
   41.4200   35.6040   40.9550 C   0  0  0  0  0  0  0  0  0  0  0  0
   40.7730   36.8050   40.7500 C   0  0  0  0  0  0  0  0  0  0  0  0
   39.5460   36.8780   40.1460 C   0  0  0  0  0  0  0  0  0  0  0  0
   39.0290   38.0040   39.9970 O   0  0  0  0  0  0  0  0  0  0  0  0
   38.9940   35.7130   39.7590 N   0  0  0  0  0  0  0  0  0  0  0  0
   39.6170   34.5200   39.9530 C   0  0  0  0  0  0  0  0  0  0  0  0
   38.9410   33.5280   39.5210 O   0  0  0  0  0  0  0  0  0  0  0  0
   39.9220   27.8700   42.7530 C   0  0  0  0  0  0  0  0  0  0  0  0
   40.0600   26.8740   41.7380 C   0  0  0  0  0  0  0  0  0  0  0  0
   40.5930   27.3520   40.5600 C   0  0  0  0  0  0  0  0  0  0  0  0
   40.9460   28.6400   40.3930 N   0  0  0  0  0  0  0  0  0  0  0  0
   40.7900   29.5470   41.3990 C   0  0  0  0  0  0  0  0  0  0  0  0
   40.2810   29.1430   42.5600 N   0  0  0  0  0  0  0  0  0  0  0  0
   39.6510   25.5530   42.0420 N   0  0  0  0  0  0  0  0  0  0  0  0
   40.3710   24.6630   42.8710 C   0  0  0  0  0  0  0  0  0  0  0  0
   41.6830   24.7380   42.8230 N   0  0  0  0  0  0  0  0  0  0  0  0
   39.5540   23.7850   43.6640 N   0  0  0  0  0  0  0  0  0  0  0  0
   42.2700   24.1050   43.3790 H   0  0  0  0  0  0  0  0  0  0  0  0
   43.6680   33.2500   39.8920 C   0  0  0  0  0  0  0  0  0  0  0  0
   44.6870   32.3490   39.5530 F   0  0  0  0  0  0  0  0  0  0  0  0
   43.3230   33.9850   38.7700 F   0  0  0  0  0  0  0  0  0  0  0  0
   44.1920   34.0620   40.8660 F   0  0  0  0  0  0  0  0  0  0  0  0
   39.4222   32.1387   41.3798 H   0  0  0  0  0  0  0  0  0  0  0  0
   42.4056   35.5818   41.4429 H   0  0  0  0  0  0  0  0  0  0  0  0
   41.2585   37.7344   41.0825 H   0  0  0  0  0  0  0  0  0  0  0  0
   38.0711   35.7256   39.3018 H   0  0  0  0  0  0  0  0  0  0  0  0
   39.5053   27.5787   43.7285 H   0  0  0  0  0  0  0  0  0  0  0  0
   40.7355   26.6527   39.7229 H   0  0  0  0  0  0  0  0  0  0  0  0
   38.7682   25.2176   41.6308 H   0  0  0  0  0  0  0  0  0  0  0  0
   39.9953   23.1031   44.2974 H   0  0  0  0  0  0  0  0  0  0  0  0
   38.5274   23.8379   43.5987 H   0  0  0  0  0  0  0  0  0  0  0  0
  1  2  2  0
  1 18  1  0
  3  2  1  0
  4  5  1  0
  4  3  2  0
  5  1  1  0
  6  3  1  0
  6  7  1  0
  8  7  2  0
  9  8  1  0
 10  9  2  0
 11 12  1  0
 11  9  1  0
 12  6  1  0
 13 12  2  0
 15 20  1  0
 15 14  2  0
 16 15  1  0
 17 16  2  0
 17 18  1  0
 18 19  2  0
 19 14  1  0
 20 21  1  0
 21 23  1  0
 22 21  2  0
 22 24  1  0
 25  4  1  0
 25 28  1  0
 26 25  1  0
 27 25  1  0
  2 29  1  0
  7 30  1  0
  8 31  1  0
 11 32  1  0
 14 33  1  0
 16 34  1  0
 20 35  1  0
 23 36  1  0
 23 37  1  0
M  ISO  6  29  14  30  14  31  14  32   9  33  14  34  14
M  END
>  <minimizedAffinity>  (1) 
-5.96020079

>  <minimizedRMSD>  (1) 
4.04835224

$$$$
