
     RDKit          3D

 33 36  0  0  0  0  0  0  0  0999 V2000
   39.2160   27.5440   43.5660 C   0  0  0  0  0  0  0  0  0  0  0  0
   39.7310   26.6480   42.6280 C   0  0  0  0  0  0  0  0  0  0  0  0
   39.6490   26.9880   41.2830 C   0  0  0  0  0  0  0  0  0  0  0  0
   39.0680   28.1780   40.9470 N   0  0  0  0  0  0  0  0  0  0  0  0
   38.5780   29.0260   41.8850 C   0  0  0  0  0  0  0  0  0  0  0  0
   38.6550   28.7020   43.1970 N   0  0  0  0  0  0  0  0  0  0  0  0
   38.0240   30.1970   41.2940 N   0  0  0  0  0  0  0  0  0  0  0  0
   36.7090   30.2740   40.9770 C   0  0  0  0  0  0  0  0  0  0  0  0
   36.4270   31.4710   40.4360 N   0  0  0  0  0  0  0  0  0  0  0  0
   37.5720   32.1760   40.4030 C   0  0  0  0  0  0  0  0  0  0  0  0
   37.9240   33.4480   39.9690 C   0  0  0  0  0  0  0  0  0  0  0  0
   39.2110   33.8440   40.0910 N   0  0  0  0  0  0  0  0  0  0  0  0
   40.1510   33.0420   40.6170 C   0  0  0  0  0  0  0  0  0  0  0  0
   39.8290   31.7880   41.0500 N   0  0  0  0  0  0  0  0  0  0  0  0
   38.5540   31.3660   40.9420 C   0  0  0  0  0  0  0  0  0  0  0  0
   36.8690   34.2110   39.4330 N   0  0  0  0  0  0  0  0  0  0  0  0
   41.5030   33.4650   40.7420 N   0  0  0  0  0  0  0  0  0  0  0  0
   42.3640   32.4280   40.9150 C   0  0  0  0  0  0  0  0  0  0  0  0
   43.7320   32.6240   41.0580 C   0  0  0  0  0  0  0  0  0  0  0  0
   44.1720   33.9320   41.0150 C   0  0  0  0  0  0  0  0  0  0  0  0
   45.3990   34.1600   41.1410 O   0  0  0  0  0  0  0  0  0  0  0  0
   43.2820   34.9260   40.8430 N   0  0  0  0  0  0  0  0  0  0  0  0
   41.9710   34.7260   40.7070 C   0  0  0  0  0  0  0  0  0  0  0  0
   41.0940   35.6060   40.5440 O   0  0  0  0  0  0  0  0  0  0  0  0
   39.2725   27.2923   44.6353 H   0  0  0  0  0  0  0  0  0  0  0  0
   40.1890   25.6993   42.9444 H   0  0  0  0  0  0  0  0  0  0  0  0
   40.0426   26.3148   40.5072 H   0  0  0  0  0  0  0  0  0  0  0  0
   35.9759   29.4702   41.1396 H   0  0  0  0  0  0  0  0  0  0  0  0
   35.9195   33.8147   39.3848 H   0  0  0  0  0  0  0  0  0  0  0  0
   37.0467   35.1655   39.0891 H   0  0  0  0  0  0  0  0  0  0  0  0
   41.9660   31.4029   40.9426 H   0  0  0  0  0  0  0  0  0  0  0  0
   44.4268   31.7828   41.1979 H   0  0  0  0  0  0  0  0  0  0  0  0
   43.6325   35.8941   40.8149 H   0  0  0  0  0  0  0  0  0  0  0  0
  2  1  2  0
  3  2  1  0
  4  3  2  0
  4  5  1  0
  5  6  2  0
  6  1  1  0
  7  5  1  0
  8  7  1  0
  9  8  2  0
 10  9  1  0
 10 15  2  0
 11 12  2  0
 11 10  1  0
 12 13  1  0
 13 17  1  0
 13 14  2  0
 15 14  1  0
 15  7  1  0
 16 11  1  0
 17 18  1  0
 18 19  2  0
 20 19  1  0
 20 21  2  0
 22 20  1  0
 23 17  1  0
 23 22  1  0
 24 23  2  0
  1 25  1  0
  2 26  1  0
  3 27  1  0
  8 28  1  0
 16 29  1  0
 16 30  1  0
 18 31  1  0
 19 32  1  0
 22 33  1  0
M  ISO  7  25  14  26  14  27  14  28  14  31  14  32  14  33   9
M  END
>  <minimizedAffinity>  (1) 
-6.9183712

>  <minimizedRMSD>  (1) 
1.4900589

$$$$
