
     RDKit          3D

 30 31  0  0  0  0  0  0  0  0999 V2000
   38.8690   30.7650   41.7290 C   0  0  0  0  0  0  0  0  0  0  0  0
   38.6020   29.5890   42.4650 C   0  0  0  0  0  0  0  0  0  0  0  0
   37.2910   29.0430   42.3720 C   0  0  0  0  0  0  0  0  0  0  0  0
   36.3760   29.6860   41.5810 N   0  0  0  0  0  0  0  0  0  0  0  0
   36.6780   30.8030   40.9000 C   0  0  0  0  0  0  0  0  0  0  0  0
   37.8980   31.3370   40.9680 N   0  0  0  0  0  0  0  0  0  0  0  0
   40.1610   31.3550   41.7840 N   0  0  0  0  0  0  0  0  0  0  0  0
   40.9240   30.9140   42.8150 C   0  0  0  0  0  0  0  0  0  0  0  0
   42.2150   31.4120   42.9840 C   0  0  0  0  0  0  0  0  0  0  0  0
   42.7090   32.3630   42.0890 C   0  0  0  0  0  0  0  0  0  0  0  0
   44.0340   32.8520   42.2920 N   0  0  0  0  0  0  0  0  0  0  0  0
   41.8980   32.7660   41.0750 N   0  0  0  0  0  0  0  0  0  0  0  0
   40.6580   32.2720   40.9330 C   0  0  0  0  0  0  0  0  0  0  0  0
   39.9020   32.6360   40.0030 O   0  0  0  0  0  0  0  0  0  0  0  0
   36.9520   27.8030   43.1210 C   0  0  0  0  0  0  0  0  0  0  0  0
   36.7670   28.0560   44.5950 C   0  0  0  0  0  0  0  0  0  0  0  0
   38.1100   26.8050   42.8710 C   0  0  0  0  0  0  0  0  0  0  0  0
   39.3766   29.1143   43.0852 H   0  0  0  0  0  0  0  0  0  0  0  0
   35.9089   31.2840   40.2778 H   0  0  0  0  0  0  0  0  0  0  0  0
   40.5253   30.1656   43.5157 H   0  0  0  0  0  0  0  0  0  0  0  0
   42.8403   31.0581   43.8169 H   0  0  0  0  0  0  0  0  0  0  0  0
   44.4280   33.5540   41.6495 H   0  0  0  0  0  0  0  0  0  0  0  0
   44.5965   32.5030   43.0811 H   0  0  0  0  0  0  0  0  0  0  0  0
   35.9911   27.4006   42.7679 H   0  0  0  0  0  0  0  0  0  0  0  0
   37.3208   27.2987   45.1693 H   0  0  0  0  0  0  0  0  0  0  0  0
   37.1476   29.0571   44.8458 H   0  0  0  0  0  0  0  0  0  0  0  0
   35.6976   27.9968   44.8458 H   0  0  0  0  0  0  0  0  0  0  0  0
   38.5109   26.4595   43.8353 H   0  0  0  0  0  0  0  0  0  0  0  0
   37.7344   25.9431   42.3001 H   0  0  0  0  0  0  0  0  0  0  0  0
   38.9071   27.3037   42.3001 H   0  0  0  0  0  0  0  0  0  0  0  0
  1  7  1  0
  1  2  2  0
  3  2  1  0
  3 15  1  0
  4  3  2  0
  5  6  2  0
  5  4  1  0
  6  1  1  0
  7  8  1  0
  8  9  2  0
 10 11  1  0
 10  9  1  0
 12 10  2  0
 13 12  1  0
 13  7  1  0
 14 13  2  0
 15 16  1  0
 17 15  1  0
  2 18  1  0
  5 19  1  0
  8 20  1  0
  9 21  1  0
 11 22  1  0
 11 23  1  0
 15 24  1  0
 16 25  1  0
 16 26  1  0
 16 27  1  0
 17 28  1  0
 17 29  1  0
 17 30  1  0
M  ISO  8  18  14  19  14  20  14  21  14  24   8  25   8  26   8  27   8
M  ISO  3  28   8  29   8  30   8
M  END
>  <minimizedAffinity>  (1) 
-4.78149223

>  <minimizedRMSD>  (1) 
1.28431308

$$$$
