
     RDKit          3D

 45 49  0  0  1  0  0  0  0  0999 V2000
   38.9000   35.6050   40.1070 C   0  0  0  0  0  0  0  0  0  0  0  0
   40.2600   35.6440   39.7770 C   0  0  0  0  0  0  0  0  0  0  0  0
   40.8500   34.4100   39.4660 C   0  0  0  0  0  0  0  0  0  0  0  0
   40.0580   33.3440   39.5190 N   0  0  0  0  0  0  0  0  0  0  0  0
   38.7840   33.2700   39.8220 C   0  0  0  0  0  0  0  0  0  0  0  0
   38.2410   34.4530   40.1150 N   0  0  0  0  0  0  0  0  0  0  0  0
   37.8250   32.1790   39.9150 C   0  0  0  0  0  0  0  0  0  0  0  0
   37.2570   31.7730   41.0670 N   0  0  0  0  0  0  0  0  0  0  0  0
   36.3790   30.7890   41.1860 C   0  0  0  0  0  0  0  0  0  0  0  0
   35.9870   30.1160   40.1380 N   0  0  0  0  0  0  0  0  0  0  0  0
   36.4700   30.4100   38.9200 C   0  0  0  0  0  0  0  0  0  0  0  0
   36.0550   29.6940   37.8170 C   0  0  0  0  0  0  0  0  0  0  0  0
   36.5440   29.9830   36.5720 C   0  0  0  0  0  0  0  0  0  0  0  0
   37.4860   31.0340   36.4400 C   0  0  0  0  0  0  0  0  0  0  0  0
   37.8470   31.7000   37.5900 C   0  0  0  0  0  0  0  0  0  0  0  0
   37.3870   31.4470   38.8470 C   0  0  0  0  0  0  0  0  0  0  0  0
   42.1280   34.2620   39.1310 O   0  0  0  0  0  0  0  0  0  0  0  0
   43.1970   34.0710   40.0440 C   0  0  2  0  0  0  0  0  0  0  0  0
   43.7530   32.6460   39.7910 C   0  0  0  0  0  0  0  0  0  0  0  0
   42.6680   34.1540   41.4550 C   0  0  0  0  0  0  0  0  0  0  0  0
   43.7050   34.5310   42.3750 N   0  0  0  0  0  0  0  0  0  0  0  0
   44.1070   35.8190   42.5030 C   0  0  0  0  0  0  0  0  0  0  0  0
   45.0870   35.9310   43.4220 N   0  0  0  0  0  0  0  0  0  0  0  0
   45.3310   34.6960   43.9030 C   0  0  0  0  0  0  0  0  0  0  0  0
   46.1780   34.1200   44.8300 C   0  0  0  0  0  0  0  0  0  0  0  0
   46.1280   32.7850   45.0480 N   0  0  0  0  0  0  0  0  0  0  0  0
   45.2680   31.9990   44.3800 C   0  0  0  0  0  0  0  0  0  0  0  0
   44.4160   32.5090   43.4600 N   0  0  0  0  0  0  0  0  0  0  0  0
   44.4630   33.8510   43.2390 C   0  0  0  0  0  0  0  0  0  0  0  0
   38.3734   36.5366   40.3617 H   0  0  0  0  0  0  0  0  0  0  0  0
   40.8307   36.5843   39.7625 H   0  0  0  0  0  0  0  0  0  0  0  0
   35.9758   30.5360   42.1777 H   0  0  0  0  0  0  0  0  0  0  0  0
   35.3231   28.8819   37.9392 H   0  0  0  0  0  0  0  0  0  0  0  0
   36.2130   29.4117   35.6922 H   0  0  0  0  0  0  0  0  0  0  0  0
   37.9100   31.3056   35.4620 H   0  0  0  0  0  0  0  0  0  0  0  0
   38.5776   32.5153   37.4832 H   0  0  0  0  0  0  0  0  0  0  0  0
   43.9773   34.8346   39.9098 H   0  0  0  0  0  0  0  0  0  0  0  0
   43.9460   32.1513   40.7544 H   0  0  0  0  0  0  0  0  0  0  0  0
   43.0170   32.0614   39.2196 H   0  0  0  0  0  0  0  0  0  0  0  0
   44.6904   32.7143   39.2196 H   0  0  0  0  0  0  0  0  0  0  0  0
   41.8637   34.9034   41.4936 H   0  0  0  0  0  0  0  0  0  0  0  0
   42.2877   33.1632   41.7443 H   0  0  0  0  0  0  0  0  0  0  0  0
   43.6890   36.6615   41.9325 H   0  0  0  0  0  0  0  0  0  0  0  0
   46.8907   34.7441   45.3891 H   0  0  0  0  0  0  0  0  0  0  0  0
   45.2557   30.9183   44.5847 H   0  0  0  0  0  0  0  0  0  0  0  0
  1  6  2  0
  2  1  1  0
  3  4  1  0
  3  2  2  0
  4  5  2  0
  5  7  1  0
  5  6  1  0
  7  8  2  0
  8  9  1  0
 10  9  2  0
 11 10  1  0
 12 11  2  0
 13 12  1  0
 14 13  2  0
 14 15  1  0
 15 16  2  0
 16 11  1  0
 16  7  1  0
 17  3  1  0
 17 18  1  0
 18 20  1  0
 19 18  1  0
 20 21  1  0
 21 22  1  0
 21 29  1  0
 22 23  2  0
 23 24  1  0
 24 25  2  0
 25 26  1  0
 27 26  2  0
 28 27  1  0
 29 28  2  0
 29 24  1  0
  1 30  1  0
  2 31  1  0
  9 32  1  0
 12 33  1  0
 13 34  1  0
 14 35  1  0
 15 36  1  0
 18 37  1  1
 19 38  1  0
 19 39  1  0
 19 40  1  0
 20 41  1  0
 20 42  1  0
 22 43  1  0
 25 44  1  0
 27 45  1  0
M  ISO  8  30  14  31  14  32  14  33  14  34  14  35  14  36  14  37   8
M  ISO  8  38   8  39   8  40   8  41   8  42   8  43  14  44  14  45  14
M  END
>  <minimizedAffinity>  (1) 
-6.44971943

>  <minimizedRMSD>  (1) 
3.79086256

$$$$
