
     RDKit          3D

 34 36  0  0  1  0  0  0  0  0999 V2000
   38.2790   26.8350   42.8530 C   0  0  2  0  0  0  0  0  0  0  0  0
   39.4600   26.9940   43.7760 C   0  0  0  0  0  0  0  0  0  0  0  0
   40.0680   25.5990   43.8110 C   0  0  0  0  0  0  0  0  0  0  0  0
   39.3490   24.8120   42.7530 C   0  0  0  0  0  0  0  0  0  0  0  0
   38.8130   25.9180   41.8080 C   0  0  1  0  0  0  0  0  0  0  0  0
   37.9660   25.3620   40.8260 N   0  0  0  0  0  0  0  0  0  0  0  0
   37.0550   24.4390   41.2730 C   0  0  0  0  0  0  0  0  0  0  0  0
   36.1220   23.8020   40.4800 C   0  0  0  0  0  0  0  0  0  0  0  0
   36.0920   24.1060   39.1340 C   0  0  0  0  0  0  0  0  0  0  0  0
   35.1200   23.4340   38.3440 N   0  0  0  0  0  0  0  0  0  0  0  0
   36.9800   25.0090   38.6850 N   0  0  0  0  0  0  0  0  0  0  0  0
   37.8680   25.5990   39.5060 C   0  0  0  0  0  0  0  0  0  0  0  0
   38.6800   26.4370   39.0410 O   0  0  0  0  0  0  0  0  0  0  0  0
   38.5650   29.3110   42.1360 C   0  0  0  0  0  0  0  0  0  0  0  0
   37.8110   28.1190   42.3020 C   0  0  0  0  0  0  0  0  0  0  0  0
   36.4790   28.1250   41.8950 C   0  0  0  0  0  0  0  0  0  0  0  0
   35.9620   29.2650   41.3590 N   0  0  0  0  0  0  0  0  0  0  0  0
   36.7090   30.4040   41.2090 C   0  0  0  0  0  0  0  0  0  0  0  0
   38.0190   30.3970   41.6100 N   0  0  0  0  0  0  0  0  0  0  0  0
   37.3831   26.4426   43.3564 H   0  0  0  0  0  0  0  0  0  0  0  0
   40.1768   27.7263   43.3760 H   0  0  0  0  0  0  0  0  0  0  0  0
   39.1802   27.3665   44.7725 H   0  0  0  0  0  0  0  0  0  0  0  0
   41.1444   25.6447   43.5891 H   0  0  0  0  0  0  0  0  0  0  0  0
   39.9608   25.1357   44.8029 H   0  0  0  0  0  0  0  0  0  0  0  0
   40.0383   24.1379   42.2234 H   0  0  0  0  0  0  0  0  0  0  0  0
   38.5583   24.1618   43.1554 H   0  0  0  0  0  0  0  0  0  0  0  0
   39.4887   26.4599   41.1300 H   0  0  0  0  0  0  0  0  0  0  0  0
   37.0691   24.1876   42.3438 H   0  0  0  0  0  0  0  0  0  0  0  0
   35.4208   23.0713   40.9094 H   0  0  0  0  0  0  0  0  0  0  0  0
   35.0558   23.6250   37.3339 H   0  0  0  0  0  0  0  0  0  0  0  0
   34.4799   22.7561   38.7816 H   0  0  0  0  0  0  0  0  0  0  0  0
   39.6192   29.3326   42.4493 H   0  0  0  0  0  0  0  0  0  0  0  0
   35.8559   27.2251   42.0046 H   0  0  0  0  0  0  0  0  0  0  0  0
   36.2635   31.3104   40.7731 H   0  0  0  0  0  0  0  0  0  0  0  0
  1  2  1  0
  2  3  1  0
  4  3  1  0
  5  4  1  0
  5  1  1  0
  6  7  1  0
  6  5  1  0
  8  7  2  0
  9  8  1  0
 10  9  1  0
 11  9  2  0
 11 12  1  0
 12  6  1  0
 13 12  2  0
 14 15  2  0
 15  1  1  0
 16 15  1  0
 17 16  2  0
 18 17  1  0
 18 19  2  0
 19 14  1  0
  1 20  1  1
  2 21  1  0
  2 22  1  0
  3 23  1  0
  3 24  1  0
  4 25  1  0
  4 26  1  0
  5 27  1  6
  7 28  1  0
  8 29  1  0
 10 30  1  0
 10 31  1  0
 14 32  1  0
 16 33  1  0
 18 34  1  0
M  ISO  8  20  13  21  13  22  13  23  13  24  13  25  13  26  13  27  13
M  ISO  5  28  14  29  14  32  14  33  14  34  14
M  END
>  <minimizedAffinity>  (1) 
-4.74235439

>  <minimizedRMSD>  (1) 
1.46598172

$$$$
