
     RDKit          3D

 51 55  0  0  0  0  0  0  0  0999 V2000
   38.6020   28.1190   42.6870 C   0  0  0  0  0  0  0  0  0  0  0  0
   37.5160   27.2870   42.7470 C   0  0  0  0  0  0  0  0  0  0  0  0
   36.4610   27.9600   42.1300 C   0  0  0  0  0  0  0  0  0  0  0  0
   36.9920   29.1330   41.7490 N   0  0  0  0  0  0  0  0  0  0  0  0
   38.2420   29.2570   42.0600 N   0  0  0  0  0  0  0  0  0  0  0  0
   41.5420   26.3700   44.1600 C   0  0  0  0  0  0  0  0  0  0  0  0
   40.2450   26.5690   43.6760 C   0  0  0  0  0  0  0  0  0  0  0  0
   39.9280   27.8510   43.2000 C   0  0  0  0  0  0  0  0  0  0  0  0
   40.8680   28.8330   43.2260 N   0  0  0  0  0  0  0  0  0  0  0  0
   42.1190   28.5690   43.7140 C   0  0  0  0  0  0  0  0  0  0  0  0
   42.4430   27.3540   44.1730 N   0  0  0  0  0  0  0  0  0  0  0  0
   43.1200   29.5810   43.7510 N   0  0  0  0  0  0  0  0  0  0  0  0
   44.3900   29.2180   44.0640 C   0  0  0  0  0  0  0  0  0  0  0  0
   45.3880   30.1710   44.1100 C   0  0  0  0  0  0  0  0  0  0  0  0
   45.0460   31.4850   43.8290 C   0  0  0  0  0  0  0  0  0  0  0  0
   46.1060   32.4350   43.8890 N   0  0  0  0  0  0  0  0  0  0  0  0
   43.7810   31.8090   43.5240 N   0  0  0  0  0  0  0  0  0  0  0  0
   42.8270   30.8470   43.4880 C   0  0  0  0  0  0  0  0  0  0  0  0
   41.6720   31.2020   43.2010 O   0  0  0  0  0  0  0  0  0  0  0  0
   36.1740   30.0800   41.0810 C   0  0  0  0  0  0  0  0  0  0  0  0
   35.2680   29.5270   40.0260 C   0  0  0  0  0  0  0  0  0  0  0  0
   35.8780   29.4290   38.6750 C   0  0  0  0  0  0  0  0  0  0  0  0
   37.1950   29.5580   38.3460 C   0  0  0  0  0  0  0  0  0  0  0  0
   37.7080   29.5360   37.0840 C   0  0  0  0  0  0  0  0  0  0  0  0
   36.8540   29.3710   36.0110 C   0  0  0  0  0  0  0  0  0  0  0  0
   35.4980   29.2320   36.2780 C   0  0  0  0  0  0  0  0  0  0  0  0
   34.7110   29.0740   35.1700 C   0  0  0  0  0  0  0  0  0  0  0  0
   33.3580   28.9240   35.3290 C   0  0  0  0  0  0  0  0  0  0  0  0
   32.8210   28.9340   36.5980 C   0  0  0  0  0  0  0  0  0  0  0  0
   33.6700   29.0960   37.6580 C   0  0  0  0  0  0  0  0  0  0  0  0
   35.0150   29.2560   37.5770 C   0  0  0  0  0  0  0  0  0  0  0  0
   33.0720   29.0780   38.9110 O   0  0  0  0  0  0  0  0  0  0  0  0
   37.4820   26.2828   43.1948 H   0  0  0  0  0  0  0  0  0  0  0  0
   35.4282   27.6092   41.9879 H   0  0  0  0  0  0  0  0  0  0  0  0
   41.8264   25.3774   44.5394 H   0  0  0  0  0  0  0  0  0  0  0  0
   39.5047   25.7554   43.6686 H   0  0  0  0  0  0  0  0  0  0  0  0
   44.6239   28.1653   44.2809 H   0  0  0  0  0  0  0  0  0  0  0  0
   46.4229   29.8962   44.3619 H   0  0  0  0  0  0  0  0  0  0  0  0
   45.9191   33.4284   43.6910 H   0  0  0  0  0  0  0  0  0  0  0  0
   47.0592   32.1285   44.1304 H   0  0  0  0  0  0  0  0  0  0  0  0
   35.5484   30.5782   41.8362 H   0  0  0  0  0  0  0  0  0  0  0  0
   36.8656   30.7562   40.5572 H   0  0  0  0  0  0  0  0  0  0  0  0
   34.9566   28.5185   40.3356 H   0  0  0  0  0  0  0  0  0  0  0  0
   34.4271   30.2307   39.9376 H   0  0  0  0  0  0  0  0  0  0  0  0
   37.9071   29.6918   39.1737 H   0  0  0  0  0  0  0  0  0  0  0  0
   38.7901   29.6484   36.9214 H   0  0  0  0  0  0  0  0  0  0  0  0
   37.2351   29.3504   34.9793 H   0  0  0  0  0  0  0  0  0  0  0  0
   35.1582   29.0675   34.1650 H   0  0  0  0  0  0  0  0  0  0  0  0
   32.7067   28.7968   34.4517 H   0  0  0  0  0  0  0  0  0  0  0  0
   31.7387   28.8149   36.7543 H   0  0  0  0  0  0  0  0  0  0  0  0
   33.6246   29.1894   39.7248 H   0  0  0  0  0  0  0  0  0  0  0  0
  1  2  1  0
  1  8  1  0
  3  2  2  0
  4  5  1  0
  4  3  1  0
  5  1  2  0
  6 11  2  0
  7  6  1  0
  8  9  1  0
  8  7  2  0
  9 10  2  0
 10 12  1  0
 10 11  1  0
 12 13  1  0
 13 14  2  0
 15 16  1  0
 15 14  1  0
 17 15  2  0
 18 17  1  0
 18 12  1  0
 19 18  2  0
 20  4  1  0
 21 20  1  0
 22 21  1  0
 23 22  2  0
 24 23  1  0
 25 26  1  0
 25 24  2  0
 26 31  2  0
 27 28  2  0
 27 26  1  0
 28 29  1  0
 29 30  2  0
 30 32  1  0
 31 30  1  0
 31 22  1  0
  2 33  1  0
  3 34  1  0
  6 35  1  0
  7 36  1  0
 13 37  1  0
 14 38  1  0
 16 39  1  0
 16 40  1  0
 20 41  1  0
 20 42  1  0
 21 43  1  0
 21 44  1  0
 23 45  1  0
 24 46  1  0
 25 47  1  0
 27 48  1  0
 28 49  1  0
 29 50  1  0
 32 51  1  0
M  ISO  8  33  14  34  14  35  14  36  14  37  14  38  14  41   8  42   8
M  ISO  8  43   8  44   8  45  14  46  14  47  14  48  14  49  14  50  14
M  ISO  1  51   3
M  END
>  <minimizedAffinity>  (1) 
-6.59054708

>  <minimizedRMSD>  (1) 
0.627193034

$$$$
