
     RDKit          3D

 38 41  0  0  1  0  0  0  0  0999 V2000
   38.2410   29.5240   42.3620 C   0  0  0  0  0  0  0  0  0  0  0  0
   38.0790   28.9270   43.5980 C   0  0  0  0  0  0  0  0  0  0  0  0
   37.2720   27.8550   43.8190 C   0  0  0  0  0  0  0  0  0  0  0  0
   36.5830   27.3410   42.7420 C   0  0  0  0  0  0  0  0  0  0  0  0
   36.7290   27.9120   41.5100 C   0  0  0  0  0  0  0  0  0  0  0  0
   37.5800   29.0300   41.3240 C   0  0  0  0  0  0  0  0  0  0  0  0
   37.4730   29.3540   39.9440 N   0  0  0  0  0  0  0  0  0  0  0  0
   38.1940   28.5810   39.0990 C   0  0  0  0  0  0  0  0  0  0  0  0
   38.0690   28.9490   37.7550 C   0  0  0  0  0  0  0  0  0  0  0  0
   37.2440   30.0320   37.4320 C   0  0  0  0  0  0  0  0  0  0  0  0
   37.1190   30.4010   36.0650 N   0  0  0  0  0  0  0  0  0  0  0  0
   36.5670   30.7370   38.3510 N   0  0  0  0  0  0  0  0  0  0  0  0
   36.6730   30.4010   39.6480 C   0  0  0  0  0  0  0  0  0  0  0  0
   36.0630   31.0250   40.5530 O   0  0  0  0  0  0  0  0  0  0  0  0
   40.3460   30.6120   41.3970 C   0  0  1  0  0  0  0  0  0  0  0  0
   40.2440   30.9620   42.8360 C   0  0  0  0  0  0  0  0  0  0  0  0
   38.9830   30.7510   42.1380 C   0  0  2  0  0  0  0  0  0  0  0  0
   40.6220   31.6970   40.3980 C   0  0  0  0  0  0  0  0  0  0  0  0
   40.3830   31.4130   39.0540 C   0  0  0  0  0  0  0  0  0  0  0  0
   40.6190   32.4330   38.1560 C   0  0  0  0  0  0  0  0  0  0  0  0
   41.0630   33.6470   38.5860 N   0  0  0  0  0  0  0  0  0  0  0  0
   41.2820   33.8800   39.8990 C   0  0  0  0  0  0  0  0  0  0  0  0
   41.0500   32.8780   40.7690 N   0  0  0  0  0  0  0  0  0  0  0  0
   38.6345   29.3427   44.4516 H   0  0  0  0  0  0  0  0  0  0  0  0
   37.1728   27.4139   44.8218 H   0  0  0  0  0  0  0  0  0  0  0  0
   35.9183   26.4745   42.8740 H   0  0  0  0  0  0  0  0  0  0  0  0
   36.1793   27.4991   40.6514 H   0  0  0  0  0  0  0  0  0  0  0  0
   38.8197   27.7419   39.4372 H   0  0  0  0  0  0  0  0  0  0  0  0
   38.6076   28.3989   36.9693 H   0  0  0  0  0  0  0  0  0  0  0  0
   36.5184   31.1942   35.7985 H   0  0  0  0  0  0  0  0  0  0  0  0
   37.6290   29.8751   35.3409 H   0  0  0  0  0  0  0  0  0  0  0  0
   40.8991   29.8490   40.8297 H   0  0  0  0  0  0  0  0  0  0  0  0
   40.5698   30.2326   43.5922 H   0  0  0  0  0  0  0  0  0  0  0  0
   40.6417   31.7907   43.4403 H   0  0  0  0  0  0  0  0  0  0  0  0
   38.0629   31.3421   42.0199 H   0  0  0  0  0  0  0  0  0  0  0  0
   40.0246   30.4259   38.7266 H   0  0  0  0  0  0  0  0  0  0  0  0
   40.4471   32.2646   37.0826 H   0  0  0  0  0  0  0  0  0  0  0  0
   41.6396   34.8601   40.2475 H   0  0  0  0  0  0  0  0  0  0  0  0
  1  2  2  0
  2  3  1  0
  4  3  2  0
  5  4  1  0
  6  5  2  0
  6  1  1  0
  7  6  1  0
  8  7  1  0
  9  8  2  0
 10  9  1  0
 10 12  2  0
 11 10  1  0
 12 13  1  0
 13  7  1  0
 13 14  2  0
 15 17  1  0
 15 16  1  0
 17  1  1  0
 17 16  1  0
 18 23  1  0
 18 15  1  0
 19 18  2  0
 20 21  2  0
 20 19  1  0
 21 22  1  0
 22 23  2  0
  2 24  1  0
  3 25  1  0
  4 26  1  0
  5 27  1  0
  8 28  1  0
  9 29  1  0
 11 30  1  0
 11 31  1  0
 15 32  1  1
 16 33  1  0
 16 34  1  0
 17 35  1  6
 19 36  1  0
 20 37  1  0
 22 38  1  0
M  ISO  8  24  14  25  14  26  14  27  14  28  14  29  14  32  13  33  13
M  ISO  5  34  13  35  13  36  14  37  14  38  14
M  END
>  <minimizedAffinity>  (1) 
-5.81934309

>  <minimizedRMSD>  (1) 
2.51372027

$$$$
