
     RDKit          3D

 51 55  0  0  1  0  0  0  0  0999 V2000
   43.0740   34.8350   41.7680 C   0  0  2  0  0  0  0  0  0  0  0  0
   42.9600   36.1870   42.5740 C   0  0  0  0  0  0  0  0  0  0  0  0
   44.5040   34.5880   41.4680 C   0  0  0  0  0  0  0  0  0  0  0  0
   45.1610   34.2400   42.7210 N   0  0  0  0  0  0  0  0  0  0  0  0
   46.2700   34.8670   43.2000 C   0  0  0  0  0  0  0  0  0  0  0  0
   46.6310   34.3110   44.3780 N   0  0  0  0  0  0  0  0  0  0  0  0
   45.7210   33.3270   44.6190 C   0  0  0  0  0  0  0  0  0  0  0  0
   44.8310   33.3060   43.5860 N   0  0  0  0  0  0  0  0  0  0  0  0
   45.4250   32.3270   45.6140 N   0  0  0  0  0  0  0  0  0  0  0  0
   44.3480   31.4960   45.5140 C   0  0  0  0  0  0  0  0  0  0  0  0
   44.1260   30.5620   46.5030 C   0  0  0  0  0  0  0  0  0  0  0  0
   45.0010   30.4770   47.5870 C   0  0  0  0  0  0  0  0  0  0  0  0
   44.7410   29.5010   48.5890 N   0  0  0  0  0  0  0  0  0  0  0  0
   46.0570   31.3010   47.6740 N   0  0  0  0  0  0  0  0  0  0  0  0
   46.2400   32.1990   46.6890 C   0  0  0  0  0  0  0  0  0  0  0  0
   47.2450   32.9670   46.7900 O   0  0  0  0  0  0  0  0  0  0  0  0
   42.3080   35.0680   40.5980 O   0  0  0  0  0  0  0  0  0  0  0  0
   38.7460   35.5090   40.1510 C   0  0  0  0  0  0  0  0  0  0  0  0
   40.0960   35.8770   40.2650 C   0  0  0  0  0  0  0  0  0  0  0  0
   41.0180   34.8270   40.4740 C   0  0  0  0  0  0  0  0  0  0  0  0
   40.5060   33.6120   40.5370 N   0  0  0  0  0  0  0  0  0  0  0  0
   39.2640   33.2190   40.4360 C   0  0  0  0  0  0  0  0  0  0  0  0
   38.4050   34.2270   40.2390 N   0  0  0  0  0  0  0  0  0  0  0  0
   38.6000   31.9290   40.4930 C   0  0  0  0  0  0  0  0  0  0  0  0
   38.4680   31.2080   41.6260 N   0  0  0  0  0  0  0  0  0  0  0  0
   37.8700   30.0290   41.7160 C   0  0  0  0  0  0  0  0  0  0  0  0
   37.3400   29.4590   40.6550 N   0  0  0  0  0  0  0  0  0  0  0  0
   37.4020   30.0760   39.4490 C   0  0  0  0  0  0  0  0  0  0  0  0
   36.8480   29.4820   38.3330 C   0  0  0  0  0  0  0  0  0  0  0  0
   36.9030   30.0880   37.1190 C   0  0  0  0  0  0  0  0  0  0  0  0
   37.5430   31.3500   37.0190 C   0  0  0  0  0  0  0  0  0  0  0  0
   38.0680   31.8710   38.1740 C   0  0  0  0  0  0  0  0  0  0  0  0
   38.0360   31.3010   39.4050 C   0  0  0  0  0  0  0  0  0  0  0  0
   42.7079   33.9475   42.3050 H   0  0  0  0  0  0  0  0  0  0  0  0
   42.9780   35.9733   43.6529 H   0  0  0  0  0  0  0  0  0  0  0  0
   43.8062   36.8405   42.3155 H   0  0  0  0  0  0  0  0  0  0  0  0
   42.0163   36.6896   42.3155 H   0  0  0  0  0  0  0  0  0  0  0  0
   44.5996   33.7592   40.7511 H   0  0  0  0  0  0  0  0  0  0  0  0
   44.9664   35.4816   41.0235 H   0  0  0  0  0  0  0  0  0  0  0  0
   46.7924   35.6986   42.7045 H   0  0  0  0  0  0  0  0  0  0  0  0
   43.6652   31.5703   44.6548 H   0  0  0  0  0  0  0  0  0  0  0  0
   43.2613   29.8852   46.4381 H   0  0  0  0  0  0  0  0  0  0  0  0
   45.3699   29.4156   49.4002 H   0  0  0  0  0  0  0  0  0  0  0  0
   43.9239   28.8798   48.5032 H   0  0  0  0  0  0  0  0  0  0  0  0
   37.9750   36.2768   39.9898 H   0  0  0  0  0  0  0  0  0  0  0  0
   40.4186   36.9263   40.1954 H   0  0  0  0  0  0  0  0  0  0  0  0
   37.8159   29.5204   42.6898 H   0  0  0  0  0  0  0  0  0  0  0  0
   36.3547   28.5034   38.4284 H   0  0  0  0  0  0  0  0  0  0  0  0
   36.4608   29.6105   36.2322 H   0  0  0  0  0  0  0  0  0  0  0  0
   37.6148   31.8853   36.0607 H   0  0  0  0  0  0  0  0  0  0  0  0
   38.5649   32.8491   38.0944 H   0  0  0  0  0  0  0  0  0  0  0  0
  1  2  1  0
  3  1  1  0
  3  4  1  0
  4  5  1  0
  4  8  1  0
  5  6  2  0
  6  7  1  0
  7  9  1  0
  8  7  2  0
  9 15  1  0
 10  9  1  0
 10 11  2  0
 11 12  1  0
 12 14  2  0
 12 13  1  0
 15 16  2  0
 15 14  1  0
 17  1  1  0
 18 23  2  0
 18 19  1  0
 19 20  2  0
 20 21  1  0
 20 17  1  0
 22 24  1  0
 22 21  2  0
 23 22  1  0
 24 25  2  0
 25 26  1  0
 27 26  2  0
 28 27  1  0
 29 28  2  0
 30 29  1  0
 31 30  2  0
 31 32  1  0
 32 33  2  0
 33 28  1  0
 33 24  1  0
  1 34  1  1
  2 35  1  0
  2 36  1  0
  2 37  1  0
  3 38  1  0
  3 39  1  0
  5 40  1  0
 10 41  1  0
 11 42  1  0
 13 43  1  0
 13 44  1  0
 18 45  1  0
 19 46  1  0
 26 47  1  0
 29 48  1  0
 30 49  1  0
 31 50  1  0
 32 51  1  0
M  END
>  <minimizedAffinity>  (1) 
-7.58376455

>  <minimizedRMSD>  (1) 
0.312377453

$$$$
