
     RDKit          3D

 47 51  0  0  1  0  0  0  0  0999 V2000
   38.9930   35.4350   40.3040 C   0  0  0  0  0  0  0  0  0  0  0  0
   40.3550   35.7340   40.4250 C   0  0  0  0  0  0  0  0  0  0  0  0
   41.2280   34.6380   40.6080 C   0  0  0  0  0  0  0  0  0  0  0  0
   40.6610   33.4480   40.6430 N   0  0  0  0  0  0  0  0  0  0  0  0
   39.3980   33.1170   40.5340 C   0  0  0  0  0  0  0  0  0  0  0  0
   38.5890   34.1700   40.3630 N   0  0  0  0  0  0  0  0  0  0  0  0
   38.6760   31.8590   40.5640 C   0  0  0  0  0  0  0  0  0  0  0  0
   38.5050   31.1220   41.6830 N   0  0  0  0  0  0  0  0  0  0  0  0
   37.8530   29.9720   41.7480 C   0  0  0  0  0  0  0  0  0  0  0  0
   37.3000   29.4440   40.6670 N   0  0  0  0  0  0  0  0  0  0  0  0
   37.4000   30.0860   39.4850 C   0  0  0  0  0  0  0  0  0  0  0  0
   36.8250   29.5440   38.3480 C   0  0  0  0  0  0  0  0  0  0  0  0
   36.9070   30.1600   37.1490 C   0  0  0  0  0  0  0  0  0  0  0  0
   37.6020   31.3870   37.0750 C   0  0  0  0  0  0  0  0  0  0  0  0
   38.1490   31.8690   38.2410 C   0  0  0  0  0  0  0  0  0  0  0  0
   38.0850   31.2770   39.4600 C   0  0  0  0  0  0  0  0  0  0  0  0
   42.5290   34.8100   40.7360 O   0  0  0  0  0  0  0  0  0  0  0  0
   43.2680   34.5910   41.9270 C   0  0  2  0  0  0  0  0  0  0  0  0
   43.2590   35.9990   42.6400 C   0  0  0  0  0  0  0  0  0  0  0  0
   44.6800   34.2220   41.6500 C   0  0  0  0  0  0  0  0  0  0  0  0
   45.3030   33.9020   42.9280 N   0  0  0  0  0  0  0  0  0  0  0  0
   46.4510   34.4820   43.3830 C   0  0  0  0  0  0  0  0  0  0  0  0
   46.7640   33.9740   44.5900 N   0  0  0  0  0  0  0  0  0  0  0  0
   45.7850   33.0620   44.8830 C   0  0  0  0  0  0  0  0  0  0  0  0
   44.9060   33.0430   43.8460 N   0  0  0  0  0  0  0  0  0  0  0  0
   45.4330   32.1570   45.9330 N   0  0  0  0  0  0  0  0  0  0  0  0
   44.2460   31.5630   46.1480 C   0  0  0  0  0  0  0  0  0  0  0  0
   44.3680   30.7760   47.2690 C   0  0  0  0  0  0  0  0  0  0  0  0
   45.6230   30.9000   47.7220 N   0  0  0  0  0  0  0  0  0  0  0  0
   46.3030   31.7540   46.9030 C   0  0  0  0  0  0  0  0  0  0  0  0
   38.2604   36.2430   40.1608 H   0  0  0  0  0  0  0  0  0  0  0  0
   40.7265   36.7684   40.3800 H   0  0  0  0  0  0  0  0  0  0  0  0
   37.7695   29.4485   42.7118 H   0  0  0  0  0  0  0  0  0  0  0  0
   36.2876   28.5871   38.4233 H   0  0  0  0  0  0  0  0  0  0  0  0
   36.4448   29.7178   36.2541 H   0  0  0  0  0  0  0  0  0  0  0  0
   37.7015   31.9337   36.1257 H   0  0  0  0  0  0  0  0  0  0  0  0
   38.6896   32.8250   38.1795 H   0  0  0  0  0  0  0  0  0  0  0  0
   42.8325   33.7711   42.5170 H   0  0  0  0  0  0  0  0  0  0  0  0
   43.2599   35.8576   43.7309 H   0  0  0  0  0  0  0  0  0  0  0  0
   44.1535   36.5661   42.3430 H   0  0  0  0  0  0  0  0  0  0  0  0
   42.3573   36.5546   42.3430 H   0  0  0  0  0  0  0  0  0  0  0  0
   44.7168   33.3474   40.9838 H   0  0  0  0  0  0  0  0  0  0  0  0
   45.2090   35.0499   41.1553 H   0  0  0  0  0  0  0  0  0  0  0  0
   47.0315   35.2469   42.8464 H   0  0  0  0  0  0  0  0  0  0  0  0
   43.3397   31.6848   45.5366 H   0  0  0  0  0  0  0  0  0  0  0  0
   43.5765   30.1554   47.7144 H   0  0  0  0  0  0  0  0  0  0  0  0
   47.3546   32.0597   47.0058 H   0  0  0  0  0  0  0  0  0  0  0  0
  1  6  2  0
  1  2  1  0
  2  3  2  0
  3  4  1  0
  3 17  1  0
  5  7  1  0
  5  4  2  0
  6  5  1  0
  7  8  2  0
  8  9  1  0
 10  9  2  0
 11 10  1  0
 12 11  2  0
 13 12  1  0
 14 13  2  0
 14 15  1  0
 15 16  2  0
 16 11  1  0
 16  7  1  0
 17 18  1  0
 18 19  1  0
 20 18  1  0
 20 21  1  0
 21 22  1  0
 21 25  1  0
 22 23  2  0
 23 24  1  0
 24 26  1  0
 25 24  2  0
 26 27  1  0
 26 30  1  0
 27 28  2  0
 28 29  1  0
 30 29  2  0
  1 31  1  0
  2 32  1  0
  9 33  1  0
 12 34  1  0
 13 35  1  0
 14 36  1  0
 15 37  1  0
 18 38  1  1
 19 39  1  0
 19 40  1  0
 19 41  1  0
 20 42  1  0
 20 43  1  0
 22 44  1  0
 27 45  1  0
 28 46  1  0
 30 47  1  0
M  ISO  8  31  14  32  14  33  14  34  14  35  14  36  14  37  14  38   8
M  ISO  8  39   8  40   8  41   8  42   8  43   8  44  14  45  14  46  14
M  ISO  1  47  14
M  END
>  <minimizedAffinity>  (1) 
-6.89224768

>  <minimizedRMSD>  (1) 
0.348362803

$$$$
