
     RDKit          3D

 23 25  0  0  0  0  0  0  0  0999 V2000
   36.9930   30.9710   41.1210 O   0  0  0  0  0  0  0  0  0  0  0  0
   38.0550   31.6290   40.4950 C   0  0  0  0  0  0  0  0  0  0  0  0
   39.0230   31.1470   39.6820 N   0  0  0  0  0  0  0  0  0  0  0  0
   39.8180   32.1190   39.3190 O   0  0  0  0  0  0  0  0  0  0  0  0
   39.3650   33.2170   39.8930 C   0  0  0  0  0  0  0  0  0  0  0  0
   38.2720   32.9580   40.6320 N   0  0  0  0  0  0  0  0  0  0  0  0
   39.8400   34.5800   39.8490 N   0  0  0  0  0  0  0  0  0  0  0  0
   41.0030   35.1920   39.5720 C   0  0  0  0  0  0  0  0  0  0  0  0
   40.7770   36.5580   39.7200 C   0  0  0  0  0  0  0  0  0  0  0  0
   39.4800   36.7420   40.0850 N   0  0  0  0  0  0  0  0  0  0  0  0
   38.9080   35.5200   40.1630 C   0  0  0  0  0  0  0  0  0  0  0  0
   38.2610   28.4550   43.4200 C   0  0  0  0  0  0  0  0  0  0  0  0
   37.3640   27.4010   43.1170 C   0  0  0  0  0  0  0  0  0  0  0  0
   36.3770   27.6560   42.1230 C   0  0  0  0  0  0  0  0  0  0  0  0
   36.3630   28.8970   41.5310 N   0  0  0  0  0  0  0  0  0  0  0  0
   37.2340   29.8470   41.8600 C   0  0  0  0  0  0  0  0  0  0  0  0
   38.1860   29.6340   42.8030 N   0  0  0  0  0  0  0  0  0  0  0  0
   41.9485   34.7089   39.2846 H   0  0  0  0  0  0  0  0  0  0  0  0
   41.5214   37.3534   39.5675 H   0  0  0  0  0  0  0  0  0  0  0  0
   37.8615   35.3187   40.4354 H   0  0  0  0  0  0  0  0  0  0  0  0
   39.0378   28.2965   44.1826 H   0  0  0  0  0  0  0  0  0  0  0  0
   37.4273   26.4285   43.6272 H   0  0  0  0  0  0  0  0  0  0  0  0
   35.6477   26.8836   41.8373 H   0  0  0  0  0  0  0  0  0  0  0  0
  1 16  1  0
  2  6  1  0
  2  1  1  0
  3  2  2  0
  4  3  1  0
  4  5  1  0
  5  6  2  0
  7  5  1  0
  7 11  1  0
  8  9  2  0
  8  7  1  0
  9 10  1  0
 10 11  2  0
 13 12  2  0
 14 13  1  0
 15 16  1  0
 15 14  2  0
 16 17  2  0
 17 12  1  0
  8 18  1  0
  9 19  1  0
 11 20  1  0
 12 21  1  0
 13 22  1  0
 14 23  1  0
M  ISO  6  18  14  19  14  20  14  21  14  22  14  23  14
M  END
>  <minimizedAffinity>  (1) 
-5.22652769

>  <minimizedRMSD>  (1) 
1.72307503

$$$$
