
     RDKit          3D

 42 45  0  0  1  0  0  0  0  0999 V2000
   38.9520   35.5700   40.1800 C   0  0  0  0  0  0  0  0  0  0  0  0
   40.2850   35.6130   39.7680 C   0  0  0  0  0  0  0  0  0  0  0  0
   40.8430   34.3960   39.3530 C   0  0  0  0  0  0  0  0  0  0  0  0
   40.0470   33.3330   39.3980 N   0  0  0  0  0  0  0  0  0  0  0  0
   38.7820   33.2620   39.7850 C   0  0  0  0  0  0  0  0  0  0  0  0
   38.2820   34.4260   40.1700 N   0  0  0  0  0  0  0  0  0  0  0  0
   37.8220   32.1720   39.8770 C   0  0  0  0  0  0  0  0  0  0  0  0
   37.2530   31.7730   41.0290 N   0  0  0  0  0  0  0  0  0  0  0  0
   36.3760   30.7850   41.1530 C   0  0  0  0  0  0  0  0  0  0  0  0
   35.9910   30.1050   40.1100 N   0  0  0  0  0  0  0  0  0  0  0  0
   36.4790   30.3930   38.8820 C   0  0  0  0  0  0  0  0  0  0  0  0
   36.0700   29.6750   37.7750 C   0  0  0  0  0  0  0  0  0  0  0  0
   36.5490   29.9580   36.5410 C   0  0  0  0  0  0  0  0  0  0  0  0
   37.4880   31.0120   36.4040 C   0  0  0  0  0  0  0  0  0  0  0  0
   37.8500   31.6850   37.5550 C   0  0  0  0  0  0  0  0  0  0  0  0
   37.3900   31.4290   38.8060 C   0  0  0  0  0  0  0  0  0  0  0  0
   42.0970   34.2590   38.9300 O   0  0  0  0  0  0  0  0  0  0  0  0
   42.9190   33.1270   39.1690 C   0  0  2  0  0  0  0  0  0  0  0  0
   43.5430   33.3090   40.5750 C   0  0  0  0  0  0  0  0  0  0  0  0
   44.0190   33.0700   38.1420 C   0  0  0  0  0  0  0  0  0  0  0  0
   43.8550   31.9620   37.1910 C   0  0  0  0  0  0  0  0  0  0  0  0
   42.6290   31.3090   37.1370 C   0  0  0  0  0  0  0  0  0  0  0  0
   42.5510   30.2800   36.2200 C   0  0  0  0  0  0  0  0  0  0  0  0
   43.5800   29.9430   35.4440 N   0  0  0  0  0  0  0  0  0  0  0  0
   44.7450   30.5780   35.5090 C   0  0  0  0  0  0  0  0  0  0  0  0
   44.8670   31.5880   36.3880 N   0  0  0  0  0  0  0  0  0  0  0  0
   38.4540   36.4917   40.5153 H   0  0  0  0  0  0  0  0  0  0  0  0
   40.8642   36.5482   39.7690 H   0  0  0  0  0  0  0  0  0  0  0  0
   35.9703   30.5377   42.1451 H   0  0  0  0  0  0  0  0  0  0  0  0
   35.3425   28.8592   37.8984 H   0  0  0  0  0  0  0  0  0  0  0  0
   36.2173   29.3831   35.6638 H   0  0  0  0  0  0  0  0  0  0  0  0
   37.9095   31.2818   35.4244 H   0  0  0  0  0  0  0  0  0  0  0  0
   38.5775   32.5031   37.4477 H   0  0  0  0  0  0  0  0  0  0  0  0
   42.3325   32.1984   39.1083 H   0  0  0  0  0  0  0  0  0  0  0  0
   42.7870   33.0885   41.3430 H   0  0  0  0  0  0  0  0  0  0  0  0
   44.3940   32.6217   40.6902 H   0  0  0  0  0  0  0  0  0  0  0  0
   43.8911   34.3461   40.6902 H   0  0  0  0  0  0  0  0  0  0  0  0
   44.0252   34.0162   37.5811 H   0  0  0  0  0  0  0  0  0  0  0  0
   44.9649   32.9072   38.6794 H   0  0  0  0  0  0  0  0  0  0  0  0
   41.7817   31.5919   37.7789 H   0  0  0  0  0  0  0  0  0  0  0  0
   41.6086   29.7202   36.1271 H   0  0  0  0  0  0  0  0  0  0  0  0
   45.5856   30.2859   34.8624 H   0  0  0  0  0  0  0  0  0  0  0  0
  2  1  2  0
  3  4  2  0
  3  2  1  0
  4  5  1  0
  5  7  1  0
  5  6  2  0
  6  1  1  0
  7  8  2  0
  8  9  1  0
 10  9  2  0
 11 10  1  0
 12 11  2  0
 13 12  1  0
 14 13  2  0
 14 15  1  0
 15 16  2  0
 16 11  1  0
 16  7  1  0
 17 18  1  0
 17  3  1  0
 18 19  1  0
 20 18  1  0
 21 20  1  0
 22 21  2  0
 23 22  1  0
 24 25  1  0
 24 23  2  0
 25 26  2  0
 26 21  1  0
  1 27  1  0
  2 28  1  0
  9 29  1  0
 12 30  1  0
 13 31  1  0
 14 32  1  0
 15 33  1  0
 18 34  1  1
 19 35  1  0
 19 36  1  0
 19 37  1  0
 20 38  1  0
 20 39  1  0
 22 40  1  0
 23 41  1  0
 25 42  1  0
M  ISO  8  27  14  28  14  29  14  30  14  31  14  32  14  33  14  34   8
M  ISO  8  35   8  36   8  37   8  38   8  39   8  40  14  41  14  42  14
M  END
>  <minimizedAffinity>  (1) 
-5.825984

>  <minimizedRMSD>  (1) 
1.8255285

$$$$
