
     RDKit          3D

 49 53  0  0  0  0  0  0  0  0999 V2000
   36.7610   30.3950   40.4320 C   0  0  0  0  0  0  0  0  0  0  0  0
   38.0720   31.0330   40.2060 C   0  0  0  0  0  0  0  0  0  0  0  0
   38.8340   31.7420   41.0350 N   0  0  0  0  0  0  0  0  0  0  0  0
   39.9090   32.1090   40.4070 O   0  0  0  0  0  0  0  0  0  0  0  0
   39.9140   31.6810   39.1900 C   0  0  0  0  0  0  0  0  0  0  0  0
   38.7660   31.0090   39.0650 N   0  0  0  0  0  0  0  0  0  0  0  0
   41.0550   32.0260   38.4030 N   0  0  0  0  0  0  0  0  0  0  0  0
   41.5430   31.4360   37.2960 N   0  0  0  0  0  0  0  0  0  0  0  0
   42.6500   32.0940   36.8760 C   0  0  0  0  0  0  0  0  0  0  0  0
   42.8410   33.1360   37.7760 C   0  0  0  0  0  0  0  0  0  0  0  0
   41.8310   33.0670   38.7160 C   0  0  0  0  0  0  0  0  0  0  0  0
   41.8210   34.0460   39.7520 N   0  0  0  0  0  0  0  0  0  0  0  0
   40.9900   35.0950   39.4770 C   0  0  0  0  0  0  0  0  0  0  0  0
   40.8670   36.1300   40.3820 C   0  0  0  0  0  0  0  0  0  0  0  0
   39.9590   37.2700   40.0750 C   0  0  0  0  0  0  0  0  0  0  0  0
   41.5880   36.1040   41.5700 C   0  0  0  0  0  0  0  0  0  0  0  0
   41.4860   37.0430   42.4070 O   0  0  0  0  0  0  0  0  0  0  0  0
   42.3900   35.0420   41.7830 N   0  0  0  0  0  0  0  0  0  0  0  0
   42.5120   34.0330   40.9050 C   0  0  0  0  0  0  0  0  0  0  0  0
   43.2510   33.0250   41.0680 O   0  0  0  0  0  0  0  0  0  0  0  0
   36.5770   30.0330   41.8920 C   0  0  0  0  0  0  0  0  0  0  0  0
   39.0840   27.5680   42.8810 C   0  0  0  0  0  0  0  0  0  0  0  0
   38.4710   26.3530   42.6900 C   0  0  0  0  0  0  0  0  0  0  0  0
   37.1880   26.3840   42.2180 C   0  0  0  0  0  0  0  0  0  0  0  0
   36.5340   27.5150   41.9470 N   0  0  0  0  0  0  0  0  0  0  0  0
   37.1630   28.6850   42.1450 C   0  0  0  0  0  0  0  0  0  0  0  0
   38.4210   28.6990   42.6060 N   0  0  0  0  0  0  0  0  0  0  0  0
   42.5450   28.7150   43.4780 C   0  0  0  0  0  0  0  0  0  0  0  0
   43.0210   27.7370   44.3370 C   0  0  0  0  0  0  0  0  0  0  0  0
   42.1730   26.6900   44.7160 C   0  0  0  0  0  0  0  0  0  0  0  0
   40.9120   26.6700   44.2260 N   0  0  0  0  0  0  0  0  0  0  0  0
   40.4820   27.6370   43.3920 C   0  0  0  0  0  0  0  0  0  0  0  0
   41.2750   28.6670   43.0030 N   0  0  0  0  0  0  0  0  0  0  0  0
   36.6964   29.4806   39.8239 H   0  0  0  0  0  0  0  0  0  0  0  0
   35.9717   31.1055   40.1452 H   0  0  0  0  0  0  0  0  0  0  0  0
   43.2713   31.8529   36.0009 H   0  0  0  0  0  0  0  0  0  0  0  0
   43.6500   33.8807   37.7453 H   0  0  0  0  0  0  0  0  0  0  0  0
   40.4201   35.1148   38.5363 H   0  0  0  0  0  0  0  0  0  0  0  0
   39.6023   37.7179   41.0142 H   0  0  0  0  0  0  0  0  0  0  0  0
   40.5046   38.0266   39.4920 H   0  0  0  0  0  0  0  0  0  0  0  0
   39.0995   36.9075   39.4920 H   0  0  0  0  0  0  0  0  0  0  0  0
   42.9331   35.0024   42.6573 H   0  0  0  0  0  0  0  0  0  0  0  0
   37.0849   30.7782   42.5219 H   0  0  0  0  0  0  0  0  0  0  0  0
   35.5043   30.0192   42.1351 H   0  0  0  0  0  0  0  0  0  0  0  0
   38.9856   25.4050   42.9056 H   0  0  0  0  0  0  0  0  0  0  0  0
   36.6689   25.4283   42.0534 H   0  0  0  0  0  0  0  0  0  0  0  0
   43.2058   29.5413   43.1773 H   0  0  0  0  0  0  0  0  0  0  0  0
   44.0525   27.7831   44.7162 H   0  0  0  0  0  0  0  0  0  0  0  0
   42.5240   25.9008   45.3972 H   0  0  0  0  0  0  0  0  0  0  0  0
  1 21  1  0
  2  1  1  0
  2  3  2  0
  4  3  1  0
  5  4  1  0
  6  5  2  0
  6  2  1  0
  7 11  1  0
  7  5  1  0
  8  7  1  0
  9  8  2  0
  9 10  1  0
 10 11  2  0
 11 12  1  0
 12 19  1  0
 13 12  1  0
 13 14  2  0
 14 16  1  0
 15 14  1  0
 16 18  1  0
 16 17  2  0
 19 20  2  0
 19 18  1  0
 21 26  1  0
 22 32  1  0
 23 22  2  0
 24 23  1  0
 25 26  1  0
 25 24  2  0
 26 27  2  0
 27 22  1  0
 28 29  2  0
 29 30  1  0
 31 30  2  0
 32 31  1  0
 33 32  2  0
 33 28  1  0
  1 34  1  0
  1 35  1  0
  9 36  1  0
 10 37  1  0
 13 38  1  0
 15 39  1  0
 15 40  1  0
 15 41  1  0
 18 42  1  0
 21 43  1  0
 21 44  1  0
 23 45  1  0
 24 46  1  0
 28 47  1  0
 29 48  1  0
 30 49  1  0
M  END
>  <minimizedAffinity>  (1) 
-7.00905228

>  <minimizedRMSD>  (1) 
4.56167603

$$$$
