
     RDKit          3D

 51 55  0  0  0  0  0  0  0  0999 V2000
   37.8370   29.7590   39.9900 C   0  0  0  0  0  0  0  0  0  0  0  0
   36.8920   30.4020   39.1720 C   0  0  0  0  0  0  0  0  0  0  0  0
   37.2580   31.2280   38.0990 C   0  0  0  0  0  0  0  0  0  0  0  0
   38.5980   31.3720   37.8930 N   0  0  0  0  0  0  0  0  0  0  0  0
   39.5110   30.7760   38.6500 C   0  0  0  0  0  0  0  0  0  0  0  0
   39.1280   29.9990   39.6620 N   0  0  0  0  0  0  0  0  0  0  0  0
   37.6650   28.9190   41.1020 C   0  0  0  0  0  0  0  0  0  0  0  0
   37.7690   29.5470   42.3600 C   0  0  0  0  0  0  0  0  0  0  0  0
   37.6270   28.8830   43.5740 C   0  0  0  0  0  0  0  0  0  0  0  0
   37.3660   27.5200   43.5480 C   0  0  0  0  0  0  0  0  0  0  0  0
   37.2530   26.8490   42.3420 C   0  0  0  0  0  0  0  0  0  0  0  0
   36.9970   25.5060   42.3030 C   0  0  0  0  0  0  0  0  0  0  0  0
   36.8750   24.8010   41.1470 C   0  0  0  0  0  0  0  0  0  0  0  0
   37.0330   25.5500   40.0090 C   0  0  0  0  0  0  0  0  0  0  0  0
   37.2890   26.8890   40.0320 C   0  0  0  0  0  0  0  0  0  0  0  0
   37.4080   27.5820   41.2050 C   0  0  0  0  0  0  0  0  0  0  0  0
   40.9130   31.0160   38.3240 C   0  0  0  0  0  0  0  0  0  0  0  0
   41.2590   31.3870   37.1740 O   0  0  0  0  0  0  0  0  0  0  0  0
   42.0240   30.8590   39.2550 C   0  0  0  0  0  0  0  0  0  0  0  0
   42.5280   29.5870   39.4770 C   0  0  0  0  0  0  0  0  0  0  0  0
   43.5900   29.3760   40.3580 C   0  0  0  0  0  0  0  0  0  0  0  0
   44.1810   30.4250   41.0410 C   0  0  0  0  0  0  0  0  0  0  0  0
   43.6860   31.6710   40.8230 C   0  0  0  0  0  0  0  0  0  0  0  0
   42.6450   31.8600   39.9560 C   0  0  0  0  0  0  0  0  0  0  0  0
   42.1520   33.1870   39.7530 N   0  0  0  0  0  0  0  0  0  0  0  0
   40.9850   33.4670   40.4020 C   0  0  0  0  0  0  0  0  0  0  0  0
   40.3730   34.6980   40.3140 C   0  0  0  0  0  0  0  0  0  0  0  0
   39.1040   35.0260   41.0120 C   0  0  0  0  0  0  0  0  0  0  0  0
   40.9810   35.6640   39.5360 C   0  0  0  0  0  0  0  0  0  0  0  0
   40.4770   36.8120   39.4110 O   0  0  0  0  0  0  0  0  0  0  0  0
   42.1310   35.3600   38.9060 N   0  0  0  0  0  0  0  0  0  0  0  0
   42.7140   34.1520   39.0050 C   0  0  0  0  0  0  0  0  0  0  0  0
   43.7940   33.8340   38.4260 O   0  0  0  0  0  0  0  0  0  0  0  0
   35.8227   30.2515   39.3817 H   0  0  0  0  0  0  0  0  0  0  0  0
   36.5115   31.7277   37.4642 H   0  0  0  0  0  0  0  0  0  0  0  0
   37.9749   30.6273   42.3828 H   0  0  0  0  0  0  0  0  0  0  0  0
   37.7190   29.4230   44.5279 H   0  0  0  0  0  0  0  0  0  0  0  0
   37.2480   26.9687   44.4925 H   0  0  0  0  0  0  0  0  0  0  0  0
   36.8840   24.9686   43.2561 H   0  0  0  0  0  0  0  0  0  0  0  0
   36.6671   23.7210   41.1261 H   0  0  0  0  0  0  0  0  0  0  0  0
   36.9494   25.0479   39.0339 H   0  0  0  0  0  0  0  0  0  0  0  0
   37.4031   27.4274   39.0796 H   0  0  0  0  0  0  0  0  0  0  0  0
   42.0837   28.7296   38.9502 H   0  0  0  0  0  0  0  0  0  0  0  0
   43.9655   28.3537   40.5129 H   0  0  0  0  0  0  0  0  0  0  0  0
   45.0189   30.2561   41.7334 H   0  0  0  0  0  0  0  0  0  0  0  0
   44.1248   32.5331   41.3467 H   0  0  0  0  0  0  0  0  0  0  0  0
   40.5171   32.6835   41.0161 H   0  0  0  0  0  0  0  0  0  0  0  0
   39.2626   34.9850   42.0997 H   0  0  0  0  0  0  0  0  0  0  0  0
   38.7794   36.0376   40.7267 H   0  0  0  0  0  0  0  0  0  0  0  0
   38.3299   34.2984   40.7267 H   0  0  0  0  0  0  0  0  0  0  0  0
   42.5824   36.0810   38.3252 H   0  0  0  0  0  0  0  0  0  0  0  0
  1  7  1  0
  2  1  2  0
  3  2  1  0
  4  3  2  0
  4  5  1  0
  5  6  2  0
  6  1  1  0
  7 16  1  0
  7  8  2  0
  8  9  1  0
 10  9  2  0
 11 10  1  0
 12 11  2  0
 13 12  1  0
 14 15  1  0
 14 13  2  0
 15 16  2  0
 16 11  1  0
 17  5  1  0
 17 19  1  0
 18 17  2  0
 19 20  2  0
 19 24  1  0
 20 21  1  0
 21 22  2  0
 23 22  1  0
 24 23  2  0
 25 24  1  0
 25 26  1  0
 27 26  2  0
 27 28  1  0
 29 27  1  0
 30 29  2  0
 31 32  1  0
 31 29  1  0
 32 25  1  0
 33 32  2  0
  2 34  1  0
  3 35  1  0
  8 36  1  0
  9 37  1  0
 10 38  1  0
 12 39  1  0
 13 40  1  0
 14 41  1  0
 15 42  1  0
 20 43  1  0
 21 44  1  0
 22 45  1  0
 23 46  1  0
 26 47  1  0
 28 48  1  0
 28 49  1  0
 28 50  1  0
 31 51  1  0
M  END
>  <minimizedAffinity>  (1) 
-7.38011789

>  <minimizedRMSD>  (1) 
4.23453474

$$$$
