
     RDKit          3D

 30 32  0  0  1  0  0  0  0  0999 V2000
   35.9380   29.8120   40.4590 C   0  0  1  0  0  0  0  0  0  0  0  0
   36.6350   31.0240   39.9300 C   0  0  0  0  0  0  0  0  0  0  0  0
   36.7370   29.8010   39.1340 C   0  0  2  0  0  0  0  0  0  0  0  0
   35.9790   29.4950   37.9800 N   0  0  0  0  0  0  0  0  0  0  0  0
   34.6250   29.3550   38.0350 C   0  0  0  0  0  0  0  0  0  0  0  0
   33.8610   29.0580   36.9310 C   0  0  0  0  0  0  0  0  0  0  0  0
   32.3870   28.9040   36.9840 C   0  0  0  0  0  0  0  0  0  0  0  0
   34.4950   28.8940   35.7100 C   0  0  0  0  0  0  0  0  0  0  0  0
   33.9130   28.6220   34.6310 O   0  0  0  0  0  0  0  0  0  0  0  0
   35.8310   29.0470   35.7340 N   0  0  0  0  0  0  0  0  0  0  0  0
   36.6130   29.3380   36.7920 C   0  0  0  0  0  0  0  0  0  0  0  0
   37.8510   29.4500   36.6650 O   0  0  0  0  0  0  0  0  0  0  0  0
   38.2270   29.1750   43.2950 C   0  0  0  0  0  0  0  0  0  0  0  0
   37.8050   27.9050   43.7250 C   0  0  0  0  0  0  0  0  0  0  0  0
   36.7440   27.2800   43.0300 C   0  0  0  0  0  0  0  0  0  0  0  0
   36.1760   27.9230   41.9840 N   0  0  0  0  0  0  0  0  0  0  0  0
   36.6230   29.1590   41.6020 C   0  0  0  0  0  0  0  0  0  0  0  0
   37.6360   29.7740   42.2530 N   0  0  0  0  0  0  0  0  0  0  0  0
   34.9150   29.5544   40.7706 H   0  0  0  0  0  0  0  0  0  0  0  0
   36.0403   31.8683   39.5513 H   0  0  0  0  0  0  0  0  0  0  0  0
   37.3757   31.7189   40.3525 H   0  0  0  0  0  0  0  0  0  0  0  0
   37.6112   29.3127   38.6787 H   0  0  0  0  0  0  0  0  0  0  0  0
   34.1213   29.4851   39.0042 H   0  0  0  0  0  0  0  0  0  0  0  0
   32.0594   28.8698   38.0335 H   0  0  0  0  0  0  0  0  0  0  0  0
   31.9108   29.7573   36.4789 H   0  0  0  0  0  0  0  0  0  0  0  0
   32.0974   27.9707   36.4789 H   0  0  0  0  0  0  0  0  0  0  0  0
   36.3158   28.9270   34.8332 H   0  0  0  0  0  0  0  0  0  0  0  0
   39.0506   29.6818   43.8193 H   0  0  0  0  0  0  0  0  0  0  0  0
   38.2879   27.4100   44.5804 H   0  0  0  0  0  0  0  0  0  0  0  0
   36.3858   26.2858   43.3353 H   0  0  0  0  0  0  0  0  0  0  0  0
  1 17  1  0
  2  1  1  0
  3  2  1  0
  3  1  1  0
  4  5  1  0
  4  3  1  0
  6  7  1  0
  6  5  2  0
  8 10  1  0
  8  6  1  0
  9  8  2  0
 10 11  1  0
 11  4  1  0
 12 11  2  0
 13 14  2  0
 15 14  1  0
 16 15  2  0
 17 16  1  0
 17 18  2  0
 18 13  1  0
  1 19  1  6
  2 20  1  0
  2 21  1  0
  3 22  1  1
  5 23  1  0
  7 24  1  0
  7 25  1  0
  7 26  1  0
 10 27  1  0
 13 28  1  0
 14 29  1  0
 15 30  1  0
M  ISO  8  19  13  20  13  21  13  22  13  23  14  24   8  25   8  26   8
M  ISO  4  27   9  28  14  29  14  30  14
M  END
>  <minimizedAffinity>  (1) 
-4.49852133

>  <minimizedRMSD>  (1) 
1.59180546

$$$$
