
     RDKit          3D

 41 44  0  0  0  0  0  0  0  0999 V2000
   35.2730   29.4960   40.0800 C   0  0  0  0  0  0  0  0  0  0  0  0
   35.8890   29.4190   38.7360 C   0  0  0  0  0  0  0  0  0  0  0  0
   37.2080   29.5540   38.4100 C   0  0  0  0  0  0  0  0  0  0  0  0
   37.7280   29.5400   37.1490 C   0  0  0  0  0  0  0  0  0  0  0  0
   36.8880   29.3810   36.0760 C   0  0  0  0  0  0  0  0  0  0  0  0
   35.5370   29.2380   36.3290 C   0  0  0  0  0  0  0  0  0  0  0  0
   34.7390   29.0860   35.2230 C   0  0  0  0  0  0  0  0  0  0  0  0
   33.3950   28.9370   35.3570 C   0  0  0  0  0  0  0  0  0  0  0  0
   32.8480   28.9390   36.6350 C   0  0  0  0  0  0  0  0  0  0  0  0
   33.6880   29.0930   37.6960 C   0  0  0  0  0  0  0  0  0  0  0  0
   35.0330   29.2520   37.6290 C   0  0  0  0  0  0  0  0  0  0  0  0
   33.0810   29.0710   38.9390 O   0  0  0  0  0  0  0  0  0  0  0  0
   36.1610   30.0670   41.1380 C   0  0  0  0  0  0  0  0  0  0  0  0
   38.6460   28.1530   42.7140 C   0  0  0  0  0  0  0  0  0  0  0  0
   37.5560   27.3290   42.8550 C   0  0  0  0  0  0  0  0  0  0  0  0
   36.4810   27.9900   42.2550 C   0  0  0  0  0  0  0  0  0  0  0  0
   37.0070   29.1430   41.8070 N   0  0  0  0  0  0  0  0  0  0  0  0
   38.2640   29.2720   42.0570 N   0  0  0  0  0  0  0  0  0  0  0  0
   41.5700   26.5370   44.3680 C   0  0  0  0  0  0  0  0  0  0  0  0
   40.2550   26.7410   43.9350 C   0  0  0  0  0  0  0  0  0  0  0  0
   39.9900   27.8940   43.1840 C   0  0  0  0  0  0  0  0  0  0  0  0
   40.9910   28.7620   42.9050 N   0  0  0  0  0  0  0  0  0  0  0  0
   42.2590   28.5130   43.3550 C   0  0  0  0  0  0  0  0  0  0  0  0
   42.5350   27.4130   44.0760 N   0  0  0  0  0  0  0  0  0  0  0  0
   43.2010   29.4660   43.0100 O   0  0  0  0  0  0  0  0  0  0  0  0
   34.9858   28.4789   40.3849 H   0  0  0  0  0  0  0  0  0  0  0  0
   34.4142   30.1777   39.9915 H   0  0  0  0  0  0  0  0  0  0  0  0
   37.9167   29.6862   39.2409 H   0  0  0  0  0  0  0  0  0  0  0  0
   38.8109   29.6551   36.9939 H   0  0  0  0  0  0  0  0  0  0  0  0
   37.2774   29.3678   35.0473 H   0  0  0  0  0  0  0  0  0  0  0  0
   35.1909   29.0848   34.2201 H   0  0  0  0  0  0  0  0  0  0  0  0
   32.7528   28.8172   34.4720 H   0  0  0  0  0  0  0  0  0  0  0  0
   31.7649   28.8193   36.7854 H   0  0  0  0  0  0  0  0  0  0  0  0
   33.6266   29.1768   39.7583 H   0  0  0  0  0  0  0  0  0  0  0  0
   36.8002   30.8277   40.6662 H   0  0  0  0  0  0  0  0  0  0  0  0
   35.4850   30.4626   41.9103 H   0  0  0  0  0  0  0  0  0  0  0  0
   37.5338   26.3437   43.3436 H   0  0  0  0  0  0  0  0  0  0  0  0
   35.4401   27.6450   42.1688 H   0  0  0  0  0  0  0  0  0  0  0  0
   41.8127   25.6410   44.9582 H   0  0  0  0  0  0  0  0  0  0  0  0
   39.4580   26.0221   44.1755 H   0  0  0  0  0  0  0  0  0  0  0  0
   44.1421   29.3586   43.2978 H   0  0  0  0  0  0  0  0  0  0  0  0
  1 13  1  0
  2  1  1  0
  3  2  2  0
  4  3  1  0
  5  6  1  0
  5  4  2  0
  6 11  2  0
  7  8  2  0
  7  6  1  0
  8  9  1  0
  9 10  2  0
 10 12  1  0
 11 10  1  0
 11  2  1  0
 13 17  1  0
 14 15  1  0
 14 21  1  0
 16 15  2  0
 17 18  1  0
 17 16  1  0
 18 14  2  0
 20 19  2  0
 21 20  1  0
 22 21  2  0
 22 23  1  0
 23 24  2  0
 24 19  1  0
 25 23  1  0
  1 26  1  0
  1 27  1  0
  3 28  1  0
  4 29  1  0
  5 30  1  0
  7 31  1  0
  8 32  1  0
  9 33  1  0
 12 34  1  0
 13 35  1  0
 13 36  1  0
 15 37  1  0
 16 38  1  0
 19 39  1  0
 20 40  1  0
 25 41  1  0
M  ISO  8  26   8  27   8  28  14  29  14  30  14  31  14  32  14  33  14
M  ISO  8  34   3  35   8  36   8  37  14  38  14  39  14  40  14  41   3
M  END
>  <minimizedAffinity>  (1) 
-5.85272264

>  <minimizedRMSD>  (1) 
0.0319042541

$$$$
