
     RDKit          3D

 37 41  0  0  1  0  0  0  0  0999 V2000
   36.0430   30.4990   40.9860 C   0  0  0  0  0  0  0  0  0  0  0  0
   36.8810   29.5410   41.5970 C   0  0  0  0  0  0  0  0  0  0  0  0
   38.2390   29.7810   41.6380 C   0  0  0  0  0  0  0  0  0  0  0  0
   38.6690   30.9440   41.0810 N   0  0  0  0  0  0  0  0  0  0  0  0
   37.8660   31.8580   40.5010 C   0  0  0  0  0  0  0  0  0  0  0  0
   36.5470   31.6190   40.4600 N   0  0  0  0  0  0  0  0  0  0  0  0
   39.1020   28.8030   42.2410 C   0  0  0  0  0  0  0  0  0  0  0  0
   40.3270   29.0190   42.8600 C   0  0  0  0  0  0  0  0  0  0  0  0
   40.8140   27.8310   43.2990 N   0  0  0  0  0  0  0  0  0  0  0  0
   39.9600   26.8400   42.9950 C   0  0  0  0  0  0  0  0  0  0  0  0
   39.9630   25.4840   43.2050 C   0  0  0  0  0  0  0  0  0  0  0  0
   38.9000   24.6630   42.7680 C   0  0  0  0  0  0  0  0  0  0  0  0
   37.8580   25.2960   42.1150 C   0  0  0  0  0  0  0  0  0  0  0  0
   37.8710   26.6480   41.9130 C   0  0  0  0  0  0  0  0  0  0  0  0
   38.9000   27.4430   42.3400 C   0  0  0  0  0  0  0  0  0  0  0  0
   38.4400   33.1280   39.9420 C   0  0  1  0  0  0  0  0  0  0  0  0
   38.6630   34.2770   40.9490 C   0  0  0  0  0  0  0  0  0  0  0  0
   39.8020   33.5270   40.3730 C   0  0  2  0  0  0  0  0  0  0  0  0
   40.7400   34.1610   39.4260 C   0  0  0  0  0  0  0  0  0  0  0  0
   41.1710   35.4290   39.4310 N   0  0  0  0  0  0  0  0  0  0  0  0
   41.9870   35.6150   38.4190 O   0  0  0  0  0  0  0  0  0  0  0  0
   42.1120   34.5020   37.7370 C   0  0  0  0  0  0  0  0  0  0  0  0
   41.3270   33.5870   38.3710 N   0  0  0  0  0  0  0  0  0  0  0  0
   42.8570   34.2110   36.5980 O   0  0  0  0  0  0  0  0  0  0  0  0
   34.9585   30.3205   40.9423 H   0  0  0  0  0  0  0  0  0  0  0  0
   36.4599   28.6223   42.0313 H   0  0  0  0  0  0  0  0  0  0  0  0
   40.8217   29.9947   42.9754 H   0  0  0  0  0  0  0  0  0  0  0  0
   41.7089   27.7072   43.7937 H   0  0  0  0  0  0  0  0  0  0  0  0
   40.8152   25.0245   43.7271 H   0  0  0  0  0  0  0  0  0  0  0  0
   38.9008   23.5763   42.9382 H   0  0  0  0  0  0  0  0  0  0  0  0
   37.0057   24.7025   41.7526 H   0  0  0  0  0  0  0  0  0  0  0  0
   37.0238   27.1138   41.3883 H   0  0  0  0  0  0  0  0  0  0  0  0
   37.9377   33.0044   38.9712 H   0  0  0  0  0  0  0  0  0  0  0  0
   38.4783   35.3192   40.6495 H   0  0  0  0  0  0  0  0  0  0  0  0
   38.3098   34.5114   41.9640 H   0  0  0  0  0  0  0  0  0  0  0  0
   40.6536   32.9870   40.8126 H   0  0  0  0  0  0  0  0  0  0  0  0
   43.4117   34.9143   36.1763 H   0  0  0  0  0  0  0  0  0  0  0  0
  1  2  2  0
  2  3  1  0
  3  7  1  0
  4  3  2  0
  5  4  1  0
  6  5  2  0
  6  1  1  0
  7 15  1  0
  7  8  2  0
  8  9  1  0
 10 11  2  0
 10  9  1  0
 12 11  1  0
 13 12  2  0
 14 13  1  0
 14 15  2  0
 15 10  1  0
 16 18  1  0
 16  5  1  0
 16 17  1  0
 18 17  1  0
 19 20  2  0
 19 18  1  0
 21 20  1  0
 22 23  2  0
 22 21  1  0
 23 19  1  0
 24 22  1  0
  1 25  1  0
  2 26  1  0
  8 27  1  0
  9 28  1  0
 11 29  1  0
 12 30  1  0
 13 31  1  0
 14 32  1  0
 16 33  1  6
 17 34  1  0
 17 35  1  0
 18 36  1  1
 24 37  1  0
M  ISO  8  25  14  26  14  27  14  28   9  29  14  30  14  31  14  32  14
M  ISO  5  33  13  34  13  35  13  36  13  37   3
M  END
>  <minimizedAffinity>  (1) 
-6.66207838

>  <minimizedRMSD>  (1) 
0.509837389

$$$$
