
     RDKit          3D

 14 14  0  0  0  0  0  0  0  0999 V2000
   37.9630   28.8980   43.3630 C   0  0  0  0  0  0  0  0  0  0  0  0
   38.1550   27.4770   43.3380 C   0  0  0  0  0  0  0  0  0  0  0  0
   37.5130   26.7540   42.3400 C   0  0  0  0  0  0  0  0  0  0  0  0
   36.7510   27.4340   41.4560 N   0  0  0  0  0  0  0  0  0  0  0  0
   36.5810   28.7680   41.4960 C   0  0  0  0  0  0  0  0  0  0  0  0
   37.1930   29.4810   42.4520 N   0  0  0  0  0  0  0  0  0  0  0  0
   37.6740   25.2710   42.2590 C   0  0  0  0  0  0  0  0  0  0  0  0
   36.3910   24.7470   42.5140 O   0  0  0  0  0  0  0  0  0  0  0  0
   38.4541   29.5054   44.1376 H   0  0  0  0  0  0  0  0  0  0  0  0
   38.7894   26.9761   44.0841 H   0  0  0  0  0  0  0  0  0  0  0  0
   35.9455   29.2691   40.7509 H   0  0  0  0  0  0  0  0  0  0  0  0
   38.0201   24.9744   41.2579 H   0  0  0  0  0  0  0  0  0  0  0  0
   38.4208   24.8982   42.9754 H   0  0  0  0  0  0  0  0  0  0  0  0
   36.2469   24.6882   43.4917 H   0  0  0  0  0  0  0  0  0  0  0  0
  2  1  2  0
  3  2  1  0
  4  5  1  0
  4  3  2  0
  5  6  2  0
  6  1  1  0
  7  3  1  0
  7  8  1  0
  1  9  1  0
  2 10  1  0
  5 11  1  0
  7 12  1  0
  7 13  1  0
  8 14  1  0
M  ISO  6   9  14  10  14  11  14  12   8  13   8  14   3
M  END
>  <minimizedAffinity>  (1) 
-2.70601511

>  <minimizedRMSD>  (1) 
0.383874208

$$$$
