
     RDKit          3D

 25 25  0  0  0  0  0  0  0  0999 V2000
   36.5930   30.7820   41.0000 C   0  0  0  0  0  0  0  0  0  0  0  0
   39.6890   31.3830   39.0210 C   0  0  0  0  0  0  0  0  0  0  0  0
   38.6250   30.7310   39.6280 C   0  0  0  0  0  0  0  0  0  0  0  0
   37.7180   31.4730   40.3700 C   0  0  0  0  0  0  0  0  0  0  0  0
   37.9030   32.8160   40.4750 N   0  0  0  0  0  0  0  0  0  0  0  0
   38.9500   33.4270   39.8730 C   0  0  0  0  0  0  0  0  0  0  0  0
   39.8550   32.7220   39.1390 N   0  0  0  0  0  0  0  0  0  0  0  0
   38.9340   34.9000   40.1290 C   0  0  0  0  0  0  0  0  0  0  0  0
   40.0940   35.4770   39.5970 F   0  0  0  0  0  0  0  0  0  0  0  0
   38.9050   35.1380   41.4760 F   0  0  0  0  0  0  0  0  0  0  0  0
   37.8300   35.4800   39.5850 F   0  0  0  0  0  0  0  0  0  0  0  0
   36.8770   29.4530   41.5660 C   0  0  0  0  0  0  0  0  0  0  0  0
   36.9380   29.4610   43.0290 N   0  0  0  0  0  0  0  0  0  0  0  0
   37.0760   28.2820   43.8130 C   0  0  0  0  0  0  0  0  0  0  0  0
   36.4830   28.3020   45.1280 N   0  0  0  0  0  0  0  0  0  0  0  0
   37.7090   27.2940   43.3100 O   0  0  0  0  0  0  0  0  0  0  0  0
   35.8062   30.6616   40.2407 H   0  0  0  0  0  0  0  0  0  0  0  0
   36.3061   31.4099   41.8564 H   0  0  0  0  0  0  0  0  0  0  0  0
   40.4125   30.8003   38.4319 H   0  0  0  0  0  0  0  0  0  0  0  0
   38.5028   29.6429   39.5224 H   0  0  0  0  0  0  0  0  0  0  0  0
   36.0831   28.7598   41.2510 H   0  0  0  0  0  0  0  0  0  0  0  0
   37.8637   29.1387   41.1949 H   0  0  0  0  0  0  0  0  0  0  0  0
   36.8779   30.3669   43.5155 H   0  0  0  0  0  0  0  0  0  0  0  0
   36.5535   27.4746   45.7374 H   0  0  0  0  0  0  0  0  0  0  0  0
   35.9891   29.1437   45.4575 H   0  0  0  0  0  0  0  0  0  0  0  0
  1 12  1  0
  2  7  2  0
  2  3  1  0
  3  4  2  0
  4  5  1  0
  4  1  1  0
  6  8  1  0
  6  5  2  0
  7  6  1  0
  8 10  1  0
  9  8  1  0
 11  8  1  0
 12 13  1  0
 13 14  1  0
 14 15  1  0
 16 14  2  0
  1 17  1  0
  1 18  1  0
  2 19  1  0
  3 20  1  0
 12 21  1  0
 12 22  1  0
 13 23  1  0
 15 24  1  0
 15 25  1  0
M  ISO  6  17   8  18   8  19  14  20  14  21   8  22   8
M  END
>  <minimizedAffinity>  (1) 
-5.15947342

>  <minimizedRMSD>  (1) 
2.89884973

$$$$
