
     RDKit          3D

 41 43  0  0  0  0  0  0  0  0999 V2000
   40.3970   30.5540   39.9190 C   0  0  0  0  0  0  0  0  0  0  0  0
   40.1070   31.7060   40.6480 C   0  0  0  0  0  0  0  0  0  0  0  0
   40.7440   32.7870   40.0270 C   0  0  0  0  0  0  0  0  0  0  0  0
   41.3780   32.2060   38.9610 C   0  0  0  0  0  0  0  0  0  0  0  0
   41.1550   30.9330   38.9340 O   0  0  0  0  0  0  0  0  0  0  0  0
   38.5010   27.5130   40.8960 C   0  0  0  0  0  0  0  0  0  0  0  0
   39.4430   26.4690   40.6070 C   0  0  0  0  0  0  0  0  0  0  0  0
   40.6580   26.9370   40.0940 C   0  0  0  0  0  0  0  0  0  0  0  0
   40.8960   28.2470   39.8990 N   0  0  0  0  0  0  0  0  0  0  0  0
   39.9450   29.1910   40.1990 C   0  0  0  0  0  0  0  0  0  0  0  0
   38.7900   28.8040   40.6830 N   0  0  0  0  0  0  0  0  0  0  0  0
   39.1080   25.1180   40.8430 N   0  0  0  0  0  0  0  0  0  0  0  0
   39.0400   24.5430   42.1280 C   0  0  0  0  0  0  0  0  0  0  0  0
   39.9520   24.9390   43.0020 N   0  0  0  0  0  0  0  0  0  0  0  0
   37.9870   23.5950   42.3370 N   0  0  0  0  0  0  0  0  0  0  0  0
   39.9720   24.5570   43.9530 H   0  0  0  0  0  0  0  0  0  0  0  0
   40.6590   34.1270   40.5410 C   0  0  0  0  0  0  0  0  0  0  0  0
   39.5750   34.7530   40.7990 O   0  0  0  0  0  0  0  0  0  0  0  0
   41.6380   35.1010   40.8990 N   0  0  0  0  0  0  0  0  0  0  0  0
   41.4030   36.5240   40.7930 C   0  0  0  0  0  0  0  0  0  0  0  0
   41.6650   36.9970   42.2120 C   0  0  0  0  0  0  0  0  0  0  0  0
   42.8390   36.1130   42.5850 C   0  0  0  0  0  0  0  0  0  0  0  0
   42.9910   35.1430   41.4190 C   0  0  0  0  0  0  0  0  0  0  0  0
   42.1980   32.9910   37.9980 C   0  0  0  0  0  0  0  0  0  0  0  0
   42.5450   32.1910   36.9180 F   0  0  0  0  0  0  0  0  0  0  0  0
   41.4750   34.0790   37.5640 F   0  0  0  0  0  0  0  0  0  0  0  0
   43.3900   33.3900   38.5740 F   0  0  0  0  0  0  0  0  0  0  0  0
   39.4854   31.7570   41.5541 H   0  0  0  0  0  0  0  0  0  0  0  0
   37.5148   27.2458   41.3035 H   0  0  0  0  0  0  0  0  0  0  0  0
   41.4442   26.2102   39.8419 H   0  0  0  0  0  0  0  0  0  0  0  0
   38.9018   24.5191   40.0308 H   0  0  0  0  0  0  0  0  0  0  0  0
   37.8805   23.1373   43.2536 H   0  0  0  0  0  0  0  0  0  0  0  0
   37.3362   23.3709   41.5707 H   0  0  0  0  0  0  0  0  0  0  0  0
   42.0994   36.9916   40.0814 H   0  0  0  0  0  0  0  0  0  0  0  0
   40.4006   36.7801   40.4194 H   0  0  0  0  0  0  0  0  0  0  0  0
   41.9338   38.0632   42.2416 H   0  0  0  0  0  0  0  0  0  0  0  0
   40.8005   36.9206   42.8878 H   0  0  0  0  0  0  0  0  0  0  0  0
   43.7516   36.7146   42.7085 H   0  0  0  0  0  0  0  0  0  0  0  0
   42.6745   35.5894   43.5383 H   0  0  0  0  0  0  0  0  0  0  0  0
   43.3206   34.1511   41.7619 H   0  0  0  0  0  0  0  0  0  0  0  0
   43.7464   35.4462   40.6791 H   0  0  0  0  0  0  0  0  0  0  0  0
  1 10  1  0
  1  2  2  0
  3 17  1  0
  3  2  1  0
  4  3  2  0
  5  4  1  0
  5  1  1  0
  7 12  1  0
  7  6  2  0
  8  7  1  0
  9  8  2  0
  9 10  1  0
 10 11  2  0
 11  6  1  0
 12 13  1  0
 13 15  1  0
 13 14  2  0
 14 16  1  0
 17 18  2  0
 17 19  1  0
 19 23  1  0
 20 19  1  0
 20 21  1  0
 21 22  1  0
 23 22  1  0
 24 27  1  0
 24  4  1  0
 25 24  1  0
 26 24  1  0
  2 28  1  0
  6 29  1  0
  8 30  1  0
 12 31  1  0
 15 32  1  0
 15 33  1  0
 20 34  1  0
 20 35  1  0
 21 36  1  0
 21 37  1  0
 22 38  1  0
 22 39  1  0
 23 40  1  0
 23 41  1  0
M  ISO  8  28  14  29  14  30  14  34  13  35  13  36  13  37  13  38  13
M  ISO  3  39  13  40  13  41  13
M  END
>  <minimizedAffinity>  (1) 
-5.02670479

>  <minimizedRMSD>  (1) 
2.92682076

$$$$
