
     RDKit          3D

 32 34  0  0  0  0  0  0  0  0999 V2000
   36.2930   30.8800   41.1910 C   0  0  0  0  0  0  0  0  0  0  0  0
   35.9520   30.1890   39.9560 N   0  0  0  0  0  0  0  0  0  0  0  0
   35.0530   29.1820   39.8520 C   0  0  0  0  0  0  0  0  0  0  0  0
   34.9870   28.7760   38.5640 N   0  0  0  0  0  0  0  0  0  0  0  0
   35.8430   29.5170   37.8260 C   0  0  0  0  0  0  0  0  0  0  0  0
   36.1800   29.5360   36.4840 C   0  0  0  0  0  0  0  0  0  0  0  0
   35.6110   28.7210   35.7350 O   0  0  0  0  0  0  0  0  0  0  0  0
   37.1150   30.4420   36.0540 N   0  0  0  0  0  0  0  0  0  0  0  0
   37.6850   31.2910   36.9360 C   0  0  0  0  0  0  0  0  0  0  0  0
   38.6530   32.2230   36.4630 N   0  0  0  0  0  0  0  0  0  0  0  0
   37.3590   31.2760   38.2440 N   0  0  0  0  0  0  0  0  0  0  0  0
   36.4350   30.3900   38.7060 C   0  0  0  0  0  0  0  0  0  0  0  0
   37.5220   30.3080   41.7300 C   0  0  0  0  0  0  0  0  0  0  0  0
   38.8050   30.8290   41.4870 C   0  0  0  0  0  0  0  0  0  0  0  0
   39.9120   30.2150   42.0430 C   0  0  0  0  0  0  0  0  0  0  0  0
   39.7060   29.0910   42.8320 N   0  0  0  0  0  0  0  0  0  0  0  0
   38.4470   28.6310   43.0350 C   0  0  0  0  0  0  0  0  0  0  0  0
   37.3800   29.2120   42.5060 N   0  0  0  0  0  0  0  0  0  0  0  0
   38.3400   27.4810   43.8540 O   0  0  0  0  0  0  0  0  0  0  0  0
   39.2510   26.4420   43.6890 C   0  0  0  0  0  0  0  0  0  0  0  0
   40.4750   26.4660   44.4130 N   0  0  0  0  0  0  0  0  0  0  0  0
   39.0590   25.4590   42.9240 O   0  0  0  0  0  0  0  0  0  0  0  0
   35.4782   30.7571   41.9197 H   0  0  0  0  0  0  0  0  0  0  0  0
   36.4381   31.9517   40.9900 H   0  0  0  0  0  0  0  0  0  0  0  0
   34.4689   28.7609   40.6836 H   0  0  0  0  0  0  0  0  0  0  0  0
   37.3822   30.4750   35.0598 H   0  0  0  0  0  0  0  0  0  0  0  0
   39.0997   32.8793   37.1192 H   0  0  0  0  0  0  0  0  0  0  0  0
   38.9062   32.2406   35.4648 H   0  0  0  0  0  0  0  0  0  0  0  0
   38.9277   31.7221   40.8567 H   0  0  0  0  0  0  0  0  0  0  0  0
   40.9251   30.6050   41.8657 H   0  0  0  0  0  0  0  0  0  0  0  0
   41.1563   25.7020   44.2983 H   0  0  0  0  0  0  0  0  0  0  0  0
   40.6801   27.2473   45.0520 H   0  0  0  0  0  0  0  0  0  0  0  0
  1 13  1  0
  2  1  1  0
  3  2  1  0
  4  3  2  0
  5  4  1  0
  5 12  2  0
  6  5  1  0
  7  6  2  0
  8  6  1  0
  8  9  1  0
  9 11  2  0
 10  9  1  0
 11 12  1  0
 12  2  1  0
 13 18  1  0
 14 13  2  0
 14 15  1  0
 15 16  2  0
 16 17  1  0
 17 19  1  0
 18 17  2  0
 20 19  1  0
 20 21  1  0
 22 20  2  0
  1 23  1  0
  1 24  1  0
  3 25  1  0
  8 26  1  0
 10 27  1  0
 10 28  1  0
 14 29  1  0
 15 30  1  0
 21 31  1  0
 21 32  1  0
M  ISO  6  23   8  24   8  25  14  26   9  29  14  30  14
M  END
>  <minimizedAffinity>  (1) 
-5.75781631

>  <minimizedRMSD>  (1) 
0.721180499

$$$$
