
     RDKit          3D

 51 56  0  0  0  0  0  0  0  0999 V2000
   37.4350   29.7540   41.8380 N   0  0  0  0  0  0  0  0  0  0  0  0
   36.3000   29.5950   41.1410 C   0  0  0  0  0  0  0  0  0  0  0  0
   36.2670   30.1880   39.9030 C   0  0  0  0  0  0  0  0  0  0  0  0
   37.2950   30.9140   39.3470 C   0  0  0  0  0  0  0  0  0  0  0  0
   37.2350   31.4370   38.2270 O   0  0  0  0  0  0  0  0  0  0  0  0
   38.4020   31.0140   40.1400 N   0  0  0  0  0  0  0  0  0  0  0  0
   38.4790   30.4530   41.3530 C   0  0  0  0  0  0  0  0  0  0  0  0
   39.5520   30.6000   42.0180 O   0  0  0  0  0  0  0  0  0  0  0  0
   39.5320   31.7560   39.6460 C   0  0  0  0  0  0  0  0  0  0  0  0
   40.6700   31.3920   38.9690 C   0  0  0  0  0  0  0  0  0  0  0  0
   41.4130   32.4830   38.7400 N   0  0  0  0  0  0  0  0  0  0  0  0
   40.7650   33.5710   39.2670 C   0  0  0  0  0  0  0  0  0  0  0  0
   41.0740   34.8980   39.3130 C   0  0  0  0  0  0  0  0  0  0  0  0
   40.2400   35.8300   39.9150 C   0  0  0  0  0  0  0  0  0  0  0  0
   39.0440   35.4140   40.4980 C   0  0  0  0  0  0  0  0  0  0  0  0
   38.7760   34.0600   40.4260 C   0  0  0  0  0  0  0  0  0  0  0  0
   39.5950   33.1320   39.8320 C   0  0  0  0  0  0  0  0  0  0  0  0
   37.6010   29.1780   43.1600 C   0  0  0  0  0  0  0  0  0  0  0  0
   39.9620   26.3690   43.7070 C   0  0  0  0  0  0  0  0  0  0  0  0
   39.4410   25.3830   42.8630 C   0  0  0  0  0  0  0  0  0  0  0  0
   38.3140   25.6700   42.1260 C   0  0  0  0  0  0  0  0  0  0  0  0
   37.7650   26.8890   42.2530 N   0  0  0  0  0  0  0  0  0  0  0  0
   38.2720   27.8400   43.0720 C   0  0  0  0  0  0  0  0  0  0  0  0
   39.3580   27.5560   43.7770 N   0  0  0  0  0  0  0  0  0  0  0  0
   37.7300   24.7060   41.2430 N   0  0  0  0  0  0  0  0  0  0  0  0
   36.4610   24.2610   41.2660 C   0  0  0  0  0  0  0  0  0  0  0  0
   36.2570   23.3550   40.2890 N   0  0  0  0  0  0  0  0  0  0  0  0
   37.4060   23.1980   39.6080 C   0  0  0  0  0  0  0  0  0  0  0  0
   37.7730   22.4180   38.5310 C   0  0  0  0  0  0  0  0  0  0  0  0
   36.9350   21.6520   37.9900 O   0  0  0  0  0  0  0  0  0  0  0  0
   38.9990   22.4400   38.0270 N   0  0  0  0  0  0  0  0  0  0  0  0
   39.8610   23.2870   38.6540 C   0  0  0  0  0  0  0  0  0  0  0  0
   41.1990   23.3760   38.1820 N   0  0  0  0  0  0  0  0  0  0  0  0
   39.5780   24.0890   39.7200 N   0  0  0  0  0  0  0  0  0  0  0  0
   38.3130   24.0510   40.2210 C   0  0  0  0  0  0  0  0  0  0  0  0
   35.4473   29.0241   41.5372 H   0  0  0  0  0  0  0  0  0  0  0  0
   35.3476   30.0738   39.3099 H   0  0  0  0  0  0  0  0  0  0  0  0
   40.9301   30.3678   38.6634 H   0  0  0  0  0  0  0  0  0  0  0  0
   42.3190   32.5017   38.2503 H   0  0  0  0  0  0  0  0  0  0  0  0
   42.0149   35.2413   38.8582 H   0  0  0  0  0  0  0  0  0  0  0  0
   40.5218   36.8932   39.9320 H   0  0  0  0  0  0  0  0  0  0  0  0
   38.3557   36.1201   40.9855 H   0  0  0  0  0  0  0  0  0  0  0  0
   37.8394   33.7002   40.8769 H   0  0  0  0  0  0  0  0  0  0  0  0
   38.2173   29.8519   43.7732 H   0  0  0  0  0  0  0  0  0  0  0  0
   36.6091   29.0480   43.6174 H   0  0  0  0  0  0  0  0  0  0  0  0
   40.8614   26.1674   44.3074 H   0  0  0  0  0  0  0  0  0  0  0  0
   39.9226   24.3968   42.7894 H   0  0  0  0  0  0  0  0  0  0  0  0
   35.6951   24.5909   41.9833 H   0  0  0  0  0  0  0  0  0  0  0  0
   39.2781   21.8605   37.2225 H   0  0  0  0  0  0  0  0  0  0  0  0
   41.8665   24.0109   38.6428 H   0  0  0  0  0  0  0  0  0  0  0  0
   41.5009   22.8056   37.3793 H   0  0  0  0  0  0  0  0  0  0  0  0
  1 18  1  0
  2  1  1  0
  3  2  2  0
  4  3  1  0
  4  6  1  0
  5  4  2  0
  6  7  1  0
  7  1  1  0
  7  8  2  0
  9 17  1  0
  9  6  1  0
 10  9  2  0
 11 10  1  0
 11 12  1  0
 12 13  2  0
 12 17  1  0
 13 14  1  0
 14 15  2  0
 16 15  1  0
 17 16  2  0
 19 24  2  0
 20 19  1  0
 21 22  1  0
 21 20  2  0
 22 23  2  0
 23 18  1  0
 23 24  1  0
 25 26  1  0
 25 21  1  0
 27 26  2  0
 28 35  2  0
 28 27  1  0
 29 28  1  0
 30 29  2  0
 31 29  1  0
 31 32  1  0
 32 34  2  0
 33 32  1  0
 34 35  1  0
 35 25  1  0
  2 36  1  0
  3 37  1  0
 10 38  1  0
 11 39  1  0
 13 40  1  0
 14 41  1  0
 15 42  1  0
 16 43  1  0
 18 44  1  0
 18 45  1  0
 19 46  1  0
 20 47  1  0
 26 48  1  0
 31 49  1  0
 33 50  1  0
 33 51  1  0
M  END
>  <minimizedAffinity>  (1) 
-7.21890259

>  <minimizedRMSD>  (1) 
2.16163063

$$$$
