
     RDKit          3D

 48 53  0  0  0  0  0  0  0  0999 V2000
   40.1060   28.6470   40.7630 C   0  0  0  0  0  0  0  0  0  0  0  0
   39.0090   29.2060   41.3580 C   0  0  0  0  0  0  0  0  0  0  0  0
   38.6820   30.4960   40.9290 C   0  0  0  0  0  0  0  0  0  0  0  0
   39.4430   31.0780   39.9920 N   0  0  0  0  0  0  0  0  0  0  0  0
   40.4890   30.5140   39.4410 C   0  0  0  0  0  0  0  0  0  0  0  0
   40.8530   29.2450   39.8280 N   0  0  0  0  0  0  0  0  0  0  0  0
   41.1750   31.2960   38.4750 N   0  0  0  0  0  0  0  0  0  0  0  0
   41.5480   31.1170   37.2420 N   0  0  0  0  0  0  0  0  0  0  0  0
   42.1850   32.2100   36.7860 C   0  0  0  0  0  0  0  0  0  0  0  0
   42.2060   33.1190   37.8010 C   0  0  0  0  0  0  0  0  0  0  0  0
   41.5610   32.5290   38.8750 C   0  0  0  0  0  0  0  0  0  0  0  0
   38.2710   28.4400   42.3890 C   0  0  0  0  0  0  0  0  0  0  0  0
   38.6710   27.0830   42.6230 C   0  0  0  0  0  0  0  0  0  0  0  0
   39.6680   26.8370   43.5890 C   0  0  0  0  0  0  0  0  0  0  0  0
   40.1060   25.5750   43.8800 C   0  0  0  0  0  0  0  0  0  0  0  0
   39.5310   24.5090   43.1840 C   0  0  0  0  0  0  0  0  0  0  0  0
   38.5660   24.7310   42.2490 C   0  0  0  0  0  0  0  0  0  0  0  0
   37.9850   23.6640   41.5600 C   0  0  0  0  0  0  0  0  0  0  0  0
   37.0190   23.8860   40.6330 C   0  0  0  0  0  0  0  0  0  0  0  0
   36.5700   25.1690   40.3310 C   0  0  0  0  0  0  0  0  0  0  0  0
   37.1680   26.2340   41.0380 C   0  0  0  0  0  0  0  0  0  0  0  0
   38.1320   26.0190   41.9640 C   0  0  0  0  0  0  0  0  0  0  0  0
   41.4150   33.2150   40.0770 O   0  0  0  0  0  0  0  0  0  0  0  0
   42.1310   37.1540   42.2040 N   0  0  0  0  0  0  0  0  0  0  0  0
   43.0810   36.2440   42.4810 C   0  0  0  0  0  0  0  0  0  0  0  0
   42.7940   35.1120   41.8130 N   0  0  0  0  0  0  0  0  0  0  0  0
   41.6670   35.2740   41.1050 C   0  0  0  0  0  0  0  0  0  0  0  0
   40.9280   34.4690   40.2620 C   0  0  0  0  0  0  0  0  0  0  0  0
   39.8270   35.0290   39.7360 N   0  0  0  0  0  0  0  0  0  0  0  0
   39.4490   36.2930   40.0000 C   0  0  0  0  0  0  0  0  0  0  0  0
   40.1590   37.0870   40.8180 N   0  0  0  0  0  0  0  0  0  0  0  0
   41.2700   36.5670   41.3670 C   0  0  0  0  0  0  0  0  0  0  0  0
   40.3950   27.6327   41.0756 H   0  0  0  0  0  0  0  0  0  0  0  0
   37.8152   31.0239   41.3532 H   0  0  0  0  0  0  0  0  0  0  0  0
   42.6101   32.3452   35.7805 H   0  0  0  0  0  0  0  0  0  0  0  0
   42.6490   34.1254   37.7727 H   0  0  0  0  0  0  0  0  0  0  0  0
   38.3766   28.9825   43.3401 H   0  0  0  0  0  0  0  0  0  0  0  0
   37.2451   28.3648   41.9992 H   0  0  0  0  0  0  0  0  0  0  0  0
   40.1085   27.6895   44.1269 H   0  0  0  0  0  0  0  0  0  0  0  0
   40.8855   25.4047   44.6372 H   0  0  0  0  0  0  0  0  0  0  0  0
   39.8607   23.4806   43.3931 H   0  0  0  0  0  0  0  0  0  0  0  0
   38.3131   22.6354   41.7704 H   0  0  0  0  0  0  0  0  0  0  0  0
   36.5780   23.0277   40.1050 H   0  0  0  0  0  0  0  0  0  0  0  0
   35.7874   25.3439   39.5781 H   0  0  0  0  0  0  0  0  0  0  0  0
   36.8428   27.2644   40.8316 H   0  0  0  0  0  0  0  0  0  0  0  0
   42.0771   38.1166   42.5664 H   0  0  0  0  0  0  0  0  0  0  0  0
   43.9465   36.3988   43.1420 H   0  0  0  0  0  0  0  0  0  0  0  0
   38.5339   36.6866   39.5334 H   0  0  0  0  0  0  0  0  0  0  0  0
  1  2  2  0
  2 12  1  0
  3  2  1  0
  4  3  2  0
  5  6  2  0
  5  4  1  0
  6  1  1  0
  7 11  1  0
  7  5  1  0
  8  7  1  0
  9  8  2  0
  9 10  1  0
 10 11  2  0
 11 23  1  0
 12 13  1  0
 13 14  2  0
 14 15  1  0
 16 15  2  0
 17 16  1  0
 18 17  2  0
 19 18  1  0
 20 19  2  0
 20 21  1  0
 21 22  2  0
 22 17  1  0
 22 13  1  0
 23 28  1  0
 24 25  1  0
 26 25  2  0
 27 32  2  0
 27 26  1  0
 28 27  1  0
 29 30  1  0
 29 28  2  0
 30 31  2  0
 31 32  1  0
 32 24  1  0
  1 33  1  0
  3 34  1  0
  9 35  1  0
 10 36  1  0
 12 37  1  0
 12 38  1  0
 14 39  1  0
 15 40  1  0
 16 41  1  0
 18 42  1  0
 19 43  1  0
 20 44  1  0
 21 45  1  0
 24 46  1  0
 25 47  1  0
 30 48  1  0
M  END
>  <minimizedAffinity>  (1) 
-7.702528

>  <minimizedRMSD>  (1) 
3.09021521

$$$$
