
     RDKit          3D

 36 39  0  0  0  0  0  0  0  0999 V2000
   38.8890   26.9820   41.4510 C   0  0  0  0  0  0  0  0  0  0  0  0
   38.6050   26.2210   40.3080 C   0  0  0  0  0  0  0  0  0  0  0  0
   38.4980   24.8170   40.4760 C   0  0  0  0  0  0  0  0  0  0  0  0
   38.6740   24.2900   41.7130 N   0  0  0  0  0  0  0  0  0  0  0  0
   38.9450   25.0590   42.7770 C   0  0  0  0  0  0  0  0  0  0  0  0
   39.0510   26.4090   42.6410 N   0  0  0  0  0  0  0  0  0  0  0  0
   39.0160   28.3960   41.3560 N   0  0  0  0  0  0  0  0  0  0  0  0
   39.9760   29.3350   41.4630 C   0  0  0  0  0  0  0  0  0  0  0  0
   39.4770   30.5470   41.2590 N   0  0  0  0  0  0  0  0  0  0  0  0
   38.1750   30.4050   41.0160 C   0  0  0  0  0  0  0  0  0  0  0  0
   37.2600   31.4020   40.7490 C   0  0  0  0  0  0  0  0  0  0  0  0
   37.5960   32.6140   40.7100 O   0  0  0  0  0  0  0  0  0  0  0  0
   35.9760   31.0740   40.5260 N   0  0  0  0  0  0  0  0  0  0  0  0
   35.6660   29.7660   40.5800 C   0  0  0  0  0  0  0  0  0  0  0  0
   34.3160   29.3470   40.3510 N   0  0  0  0  0  0  0  0  0  0  0  0
   36.5370   28.7730   40.8380 N   0  0  0  0  0  0  0  0  0  0  0  0
   37.8480   29.0440   41.0710 C   0  0  0  0  0  0  0  0  0  0  0  0
   38.4300   26.7490   39.0280 N   0  0  0  0  0  0  0  0  0  0  0  0
   39.3880   27.5040   38.2420 C   0  0  0  0  0  0  0  0  0  0  0  0
   38.5390   28.4940   37.4620 C   0  0  0  0  0  0  0  0  0  0  0  0
   37.1130   28.0910   37.7100 C   0  0  0  0  0  0  0  0  0  0  0  0
   37.2810   26.6750   38.1870 C   0  0  0  0  0  0  0  0  0  0  0  0
   38.2760   24.1663   39.6173 H   0  0  0  0  0  0  0  0  0  0  0  0
   39.0825   24.5964   43.7655 H   0  0  0  0  0  0  0  0  0  0  0  0
   41.0318   29.1249   41.6891 H   0  0  0  0  0  0  0  0  0  0  0  0
   35.2635   31.7897   40.3235 H   0  0  0  0  0  0  0  0  0  0  0  0
   34.0734   28.3468   40.3912 H   0  0  0  0  0  0  0  0  0  0  0  0
   33.5876   30.0458   40.1461 H   0  0  0  0  0  0  0  0  0  0  0  0
   40.0988   28.0308   38.8956 H   0  0  0  0  0  0  0  0  0  0  0  0
   39.9920   26.8605   37.5854 H   0  0  0  0  0  0  0  0  0  0  0  0
   38.7724   28.4371   36.3886 H   0  0  0  0  0  0  0  0  0  0  0  0
   38.7290   29.5300   37.7793 H   0  0  0  0  0  0  0  0  0  0  0  0
   36.6452   28.7218   38.4803 H   0  0  0  0  0  0  0  0  0  0  0  0
   36.4584   28.1941   36.8320 H   0  0  0  0  0  0  0  0  0  0  0  0
   36.3986   26.3421   38.7531 H   0  0  0  0  0  0  0  0  0  0  0  0
   37.3939   25.9532   37.3647 H   0  0  0  0  0  0  0  0  0  0  0  0
  1  6  2  0
  2  3  2  0
  2  1  1  0
  3  4  1  0
  4  5  2  0
  6  5  1  0
  7  1  1  0
  7  8  1  0
  9  8  2  0
 10 17  2  0
 10  9  1  0
 11 10  1  0
 12 11  2  0
 13 14  1  0
 13 11  1  0
 14 16  2  0
 15 14  1  0
 16 17  1  0
 17  7  1  0
 18  2  1  0
 19 18  1  0
 20 21  1  0
 20 19  1  0
 21 22  1  0
 22 18  1  0
  3 23  1  0
  5 24  1  0
  8 25  1  0
 13 26  1  0
 15 27  1  0
 15 28  1  0
 19 29  1  0
 19 30  1  0
 20 31  1  0
 20 32  1  0
 21 33  1  0
 21 34  1  0
 22 35  1  0
 22 36  1  0
M  ISO  8  23  14  24  14  25  14  26   9  29  13  30  13  31  13  32  13
M  ISO  4  33  13  34  13  35  13  36  13
M  END
>  <minimizedAffinity>  (1) 
-4.97897673

>  <minimizedRMSD>  (1) 
4.92336369

$$$$
