
     RDKit          3D

 37 41  0  0  0  0  0  0  0  0999 V2000
   39.8280   26.4640   43.9500 C   0  0  0  0  0  0  0  0  0  0  0  0
   40.2560   25.5860   42.9590 C   0  0  0  0  0  0  0  0  0  0  0  0
   40.0170   25.9570   41.6220 C   0  0  0  0  0  0  0  0  0  0  0  0
   39.3880   27.1380   41.3840 N   0  0  0  0  0  0  0  0  0  0  0  0
   38.9880   27.9640   42.3920 C   0  0  0  0  0  0  0  0  0  0  0  0
   39.2090   27.6250   43.6780 N   0  0  0  0  0  0  0  0  0  0  0  0
   38.3540   29.1370   41.8790 N   0  0  0  0  0  0  0  0  0  0  0  0
   36.9940   29.1750   41.7070 C   0  0  0  0  0  0  0  0  0  0  0  0
   36.6380   30.3800   41.2150 N   0  0  0  0  0  0  0  0  0  0  0  0
   37.7610   31.1090   41.0720 C   0  0  0  0  0  0  0  0  0  0  0  0
   38.0460   32.3920   40.6250 C   0  0  0  0  0  0  0  0  0  0  0  0
   39.3310   32.8210   40.6130 N   0  0  0  0  0  0  0  0  0  0  0  0
   40.3460   32.0250   41.0280 C   0  0  0  0  0  0  0  0  0  0  0  0
   40.0820   30.7650   41.4690 N   0  0  0  0  0  0  0  0  0  0  0  0
   38.7990   30.3130   41.4900 C   0  0  0  0  0  0  0  0  0  0  0  0
   36.9130   33.1290   40.2190 N   0  0  0  0  0  0  0  0  0  0  0  0
   41.6670   32.5540   40.9840 N   0  0  0  0  0  0  0  0  0  0  0  0
   42.4720   32.4950   42.0840 C   0  0  0  0  0  0  0  0  0  0  0  0
   43.6700   33.0390   41.8510 N   0  0  0  0  0  0  0  0  0  0  0  0
   43.6640   33.4630   40.5910 C   0  0  0  0  0  0  0  0  0  0  0  0
   44.5590   34.0980   39.7400 C   0  0  0  0  0  0  0  0  0  0  0  0
   45.6930   34.3840   40.1960 O   0  0  0  0  0  0  0  0  0  0  0  0
   44.1660   34.3720   38.4770 N   0  0  0  0  0  0  0  0  0  0  0  0
   42.9520   34.0670   37.9850 C   0  0  0  0  0  0  0  0  0  0  0  0
   42.7790   34.4560   36.6370 N   0  0  0  0  0  0  0  0  0  0  0  0
   42.0460   33.4410   38.7950 N   0  0  0  0  0  0  0  0  0  0  0  0
   42.4300   33.1630   40.0590 C   0  0  0  0  0  0  0  0  0  0  0  0
   40.0042   26.1958   45.0022 H   0  0  0  0  0  0  0  0  0  0  0  0
   40.7602   24.6411   43.2098 H   0  0  0  0  0  0  0  0  0  0  0  0
   40.3313   25.3077   40.7915 H   0  0  0  0  0  0  0  0  0  0  0  0
   36.3012   28.3514   41.9347 H   0  0  0  0  0  0  0  0  0  0  0  0
   37.0227   34.0923   39.8714 H   0  0  0  0  0  0  0  0  0  0  0  0
   35.9764   32.7036   40.2703 H   0  0  0  0  0  0  0  0  0  0  0  0
   42.1714   32.0534   43.0456 H   0  0  0  0  0  0  0  0  0  0  0  0
   44.8366   34.8430   37.8530 H   0  0  0  0  0  0  0  0  0  0  0  0
   41.8860   34.2712   36.1582 H   0  0  0  0  0  0  0  0  0  0  0  0
   43.5460   34.9242   36.1336 H   0  0  0  0  0  0  0  0  0  0  0  0
  2  1  2  0
  3  2  1  0
  4  3  2  0
  4  5  1  0
  5  6  2  0
  6  1  1  0
  7  5  1  0
  8  7  1  0
  9  8  2  0
 10  9  1  0
 10 15  2  0
 11 10  1  0
 12 11  2  0
 12 13  1  0
 13 14  2  0
 14 15  1  0
 15  7  1  0
 16 11  1  0
 17 13  1  0
 17 18  1  0
 19 18  2  0
 20 19  1  0
 21 22  2  0
 21 20  1  0
 23 21  1  0
 24 23  1  0
 24 26  2  0
 25 24  1  0
 26 27  1  0
 27 20  2  0
 27 17  1  0
  1 28  1  0
  2 29  1  0
  3 30  1  0
  8 31  1  0
 16 32  1  0
 16 33  1  0
 18 34  1  0
 23 35  1  0
 25 36  1  0
 25 37  1  0
M  ISO  6  28  14  29  14  30  14  31  14  34  14  35   9
M  END
>  <minimizedAffinity>  (1) 
-8.33640766

>  <minimizedRMSD>  (1) 
0.550764799

$$$$
