
     RDKit          3D

 52 57  0  0  0  0  0  0  0  0999 V2000
   39.8790   31.5340   38.3600 C   0  0  0  0  0  0  0  0  0  0  0  0
   40.1400   32.0570   37.2430 O   0  0  0  0  0  0  0  0  0  0  0  0
   40.9200   31.7130   39.3620 C   0  0  0  0  0  0  0  0  0  0  0  0
   40.9310   32.8860   40.0890 C   0  0  0  0  0  0  0  0  0  0  0  0
   41.9070   33.1200   41.0700 C   0  0  0  0  0  0  0  0  0  0  0  0
   42.8910   32.1860   41.3430 C   0  0  0  0  0  0  0  0  0  0  0  0
   42.8730   31.0310   40.6230 C   0  0  0  0  0  0  0  0  0  0  0  0
   41.9120   30.8210   39.6700 C   0  0  0  0  0  0  0  0  0  0  0  0
   41.9270   29.5930   38.9330 N   0  0  0  0  0  0  0  0  0  0  0  0
   41.3780   28.3700   39.0680 C   0  0  0  0  0  0  0  0  0  0  0  0
   41.7440   27.5910   38.0530 N   0  0  0  0  0  0  0  0  0  0  0  0
   42.5340   28.2690   37.2330 C   0  0  0  0  0  0  0  0  0  0  0  0
   43.1790   27.9550   36.0620 C   0  0  0  0  0  0  0  0  0  0  0  0
   43.0900   26.8020   35.5300 O   0  0  0  0  0  0  0  0  0  0  0  0
   43.9430   28.8240   35.3950 N   0  0  0  0  0  0  0  0  0  0  0  0
   44.0450   30.0570   35.9540 C   0  0  0  0  0  0  0  0  0  0  0  0
   44.8000   31.1710   35.4430 N   0  0  0  0  0  0  0  0  0  0  0  0
   43.4380   30.4000   37.0850 N   0  0  0  0  0  0  0  0  0  0  0  0
   42.6540   29.5290   37.7810 C   0  0  0  0  0  0  0  0  0  0  0  0
   37.2690   29.3440   39.8480 C   0  0  0  0  0  0  0  0  0  0  0  0
   36.2650   29.5470   38.8840 C   0  0  0  0  0  0  0  0  0  0  0  0
   36.4450   30.3810   37.7740 C   0  0  0  0  0  0  0  0  0  0  0  0
   37.6540   30.9890   37.6810 N   0  0  0  0  0  0  0  0  0  0  0  0
   38.6190   30.8190   38.5710 C   0  0  0  0  0  0  0  0  0  0  0  0
   38.4200   30.0170   39.6220 N   0  0  0  0  0  0  0  0  0  0  0  0
   37.2700   28.5670   41.0250 C   0  0  0  0  0  0  0  0  0  0  0  0
   37.4540   29.2860   42.2220 C   0  0  0  0  0  0  0  0  0  0  0  0
   37.4840   28.7030   43.4810 C   0  0  0  0  0  0  0  0  0  0  0  0
   37.3210   27.3200   43.5670 C   0  0  0  0  0  0  0  0  0  0  0  0
   37.1370   26.5670   42.4240 C   0  0  0  0  0  0  0  0  0  0  0  0
   36.9760   25.2100   42.4930 C   0  0  0  0  0  0  0  0  0  0  0  0
   36.7920   24.4250   41.3960 C   0  0  0  0  0  0  0  0  0  0  0  0
   36.7800   25.1050   40.2060 C   0  0  0  0  0  0  0  0  0  0  0  0
   36.9400   26.4580   40.1250 C   0  0  0  0  0  0  0  0  0  0  0  0
   37.1220   27.2250   41.2300 C   0  0  0  0  0  0  0  0  0  0  0  0
   40.1628   33.6495   39.8966 H   0  0  0  0  0  0  0  0  0  0  0  0
   41.8895   34.0647   41.6332 H   0  0  0  0  0  0  0  0  0  0  0  0
   43.6569   32.3696   42.1109 H   0  0  0  0  0  0  0  0  0  0  0  0
   43.6360   30.2605   40.8079 H   0  0  0  0  0  0  0  0  0  0  0  0
   40.7231   28.0607   39.8960 H   0  0  0  0  0  0  0  0  0  0  0  0
   44.4216   28.5759   34.5173 H   0  0  0  0  0  0  0  0  0  0  0  0
   44.8063   32.0660   35.9527 H   0  0  0  0  0  0  0  0  0  0  0  0
   45.3340   31.0731   34.5677 H   0  0  0  0  0  0  0  0  0  0  0  0
   35.3015   29.0307   39.0070 H   0  0  0  0  0  0  0  0  0  0  0  0
   35.6551   30.5337   37.0239 H   0  0  0  0  0  0  0  0  0  0  0  0
   37.5818   30.3765   42.1548 H   0  0  0  0  0  0  0  0  0  0  0  0
   37.6319   29.3131   44.3843 H   0  0  0  0  0  0  0  0  0  0  0  0
   37.3391   26.8269   44.5501 H   0  0  0  0  0  0  0  0  0  0  0  0
   36.9962   24.7301   43.4826 H   0  0  0  0  0  0  0  0  0  0  0  0
   36.6635   23.3344   41.4595 H   0  0  0  0  0  0  0  0  0  0  0  0
   36.6352   24.5356   39.2760 H   0  0  0  0  0  0  0  0  0  0  0  0
   36.9209   26.9404   39.1366 H   0  0  0  0  0  0  0  0  0  0  0  0
  1 24  1  0
  1  3  1  0
  2  1  2  0
  3  8  1  0
  3  4  2  0
  4  5  1  0
  5  6  2  0
  7  6  1  0
  8  7  2  0
  9 10  1  0
  9  8  1  0
 11 10  2  0
 12 19  2  0
 12 11  1  0
 13 12  1  0
 14 13  2  0
 15 16  1  0
 15 13  1  0
 16 18  2  0
 17 16  1  0
 18 19  1  0
 19  9  1  0
 20 26  1  0
 21 20  2  0
 22 21  1  0
 23 22  2  0
 23 24  1  0
 24 25  2  0
 25 20  1  0
 26 35  1  0
 26 27  2  0
 27 28  1  0
 28 29  2  0
 30 31  2  0
 30 29  1  0
 32 31  1  0
 33 32  2  0
 34 33  1  0
 34 35  2  0
 35 30  1  0
  4 36  1  0
  5 37  1  0
  6 38  1  0
  7 39  1  0
 10 40  1  0
 15 41  1  0
 17 42  1  0
 17 43  1  0
 21 44  1  0
 22 45  1  0
 27 46  1  0
 28 47  1  0
 29 48  1  0
 31 49  1  0
 32 50  1  0
 33 51  1  0
 34 52  1  0
M  END
>  <minimizedAffinity>  (1) 
-7.14251375

>  <minimizedRMSD>  (1) 
0.721545875

$$$$
