
     RDKit          3D

 44 49  0  0  0  0  0  0  0  0999 V2000
   35.7340   28.2540   39.9410 C   0  0  0  0  0  0  0  0  0  0  0  0
   36.6390   27.5860   40.7670 C   0  0  0  0  0  0  0  0  0  0  0  0
   37.2190   26.4010   40.2420 C   0  0  0  0  0  0  0  0  0  0  0  0
   36.8690   25.9900   38.9920 N   0  0  0  0  0  0  0  0  0  0  0  0
   35.9760   26.6920   38.2370 C   0  0  0  0  0  0  0  0  0  0  0  0
   35.4020   27.8320   38.7130 N   0  0  0  0  0  0  0  0  0  0  0  0
   35.6440   26.2170   36.9340 N   0  0  0  0  0  0  0  0  0  0  0  0
   35.1080   24.9910   36.7790 C   0  0  0  0  0  0  0  0  0  0  0  0
   34.8640   24.7190   35.4860 N   0  0  0  0  0  0  0  0  0  0  0  0
   35.2560   25.8070   34.8020 C   0  0  0  0  0  0  0  0  0  0  0  0
   35.2830   26.1880   33.4610 C   0  0  0  0  0  0  0  0  0  0  0  0
   34.8570   25.3860   32.5920 O   0  0  0  0  0  0  0  0  0  0  0  0
   35.7720   27.4190   33.1420 N   0  0  0  0  0  0  0  0  0  0  0  0
   36.2360   28.2980   34.0490 C   0  0  0  0  0  0  0  0  0  0  0  0
   36.7140   29.5440   33.5620 N   0  0  0  0  0  0  0  0  0  0  0  0
   36.2300   27.9700   35.3750 N   0  0  0  0  0  0  0  0  0  0  0  0
   35.7410   26.7400   35.6970 C   0  0  0  0  0  0  0  0  0  0  0  0
   36.9910   28.0190   42.0500 N   0  0  0  0  0  0  0  0  0  0  0  0
   36.5580   27.4650   43.2000 C   0  0  0  0  0  0  0  0  0  0  0  0
   37.1690   28.2260   44.1810 C   0  0  0  0  0  0  0  0  0  0  0  0
   37.9420   29.2010   43.6210 N   0  0  0  0  0  0  0  0  0  0  0  0
   37.8080   29.0440   42.2990 C   0  0  0  0  0  0  0  0  0  0  0  0
   38.5420   29.9720   41.5090 N   0  0  0  0  0  0  0  0  0  0  0  0
   39.7770   30.4290   41.8660 C   0  0  0  0  0  0  0  0  0  0  0  0
   40.2580   31.3060   40.9380 N   0  0  0  0  0  0  0  0  0  0  0  0
   39.3280   31.4180   39.9730 C   0  0  0  0  0  0  0  0  0  0  0  0
   39.2790   32.1530   38.8110 C   0  0  0  0  0  0  0  0  0  0  0  0
   38.1550   32.0040   38.0760 N   0  0  0  0  0  0  0  0  0  0  0  0
   37.1440   31.2100   38.4240 C   0  0  0  0  0  0  0  0  0  0  0  0
   37.1800   30.4770   39.5750 N   0  0  0  0  0  0  0  0  0  0  0  0
   38.2780   30.6010   40.3240 C   0  0  0  0  0  0  0  0  0  0  0  0
   40.3370   33.0120   38.4010 N   0  0  0  0  0  0  0  0  0  0  0  0
   35.2681   29.1764   40.3180 H   0  0  0  0  0  0  0  0  0  0  0  0
   37.9413   25.8229   40.8371 H   0  0  0  0  0  0  0  0  0  0  0  0
   34.8965   24.2990   37.6075 H   0  0  0  0  0  0  0  0  0  0  0  0
   35.7874   27.6926   32.1491 H   0  0  0  0  0  0  0  0  0  0  0  0
   37.0787   30.2482   34.2193 H   0  0  0  0  0  0  0  0  0  0  0  0
   36.6959   29.7432   32.5516 H   0  0  0  0  0  0  0  0  0  0  0  0
   35.8788   26.6093   43.3284 H   0  0  0  0  0  0  0  0  0  0  0  0
   37.0482   28.0669   45.2627 H   0  0  0  0  0  0  0  0  0  0  0  0
   40.3128   30.1306   42.7791 H   0  0  0  0  0  0  0  0  0  0  0  0
   36.2617   31.1435   37.7704 H   0  0  0  0  0  0  0  0  0  0  0  0
   40.2575   33.5439   37.5226 H   0  0  0  0  0  0  0  0  0  0  0  0
   41.1823   33.1018   38.9827 H   0  0  0  0  0  0  0  0  0  0  0  0
  1  2  2  0
  2 18  1  0
  3  2  1  0
  4  3  2  0
  5  6  2  0
  5  4  1  0
  6  1  1  0
  7  5  1  0
  8  7  1  0
  9  8  2  0
 10  9  1  0
 10 17  2  0
 11 10  1  0
 12 11  2  0
 13 11  1  0
 13 14  1  0
 14 16  2  0
 15 14  1  0
 16 17  1  0
 17  7  1  0
 18 22  1  0
 18 19  1  0
 19 20  2  0
 21 20  1  0
 22 21  2  0
 23 24  1  0
 23 22  1  0
 25 24  2  0
 26 31  2  0
 26 25  1  0
 27 26  1  0
 28 29  1  0
 28 27  2  0
 29 30  2  0
 30 31  1  0
 31 23  1  0
 32 27  1  0
  1 33  1  0
  3 34  1  0
  8 35  1  0
 13 36  1  0
 15 37  1  0
 15 38  1  0
 19 39  1  0
 20 40  1  0
 24 41  1  0
 29 42  1  0
 32 43  1  0
 32 44  1  0
M  ISO  8  33  14  34  14  35  14  36   9  39  14  40  14  41  14  42  14
M  END
>  <minimizedAffinity>  (1) 
-6.75714016

>  <minimizedRMSD>  (1) 
3.51154327

$$$$
