
     RDKit          3D

 40 44  0  0  0  0  0  0  0  0999 V2000
   44.5740   26.4400   44.3780 C   0  0  0  0  0  0  0  0  0  0  0  0
   43.4050   26.4520   43.6010 C   0  0  0  0  0  0  0  0  0  0  0  0
   42.2410   26.9310   44.1670 C   0  0  0  0  0  0  0  0  0  0  0  0
   42.2730   27.3760   45.4690 N   0  0  0  0  0  0  0  0  0  0  0  0
   43.4100   27.3490   46.1800 C   0  0  0  0  0  0  0  0  0  0  0  0
   44.5650   26.8810   45.6380 N   0  0  0  0  0  0  0  0  0  0  0  0
   43.3680   25.9800   42.2180 C   0  0  0  0  0  0  0  0  0  0  0  0
   44.3980   26.1340   41.3320 C   0  0  0  0  0  0  0  0  0  0  0  0
   44.3880   25.6980   40.0220 C   0  0  0  0  0  0  0  0  0  0  0  0
   43.2580   25.0640   39.5900 N   0  0  0  0  0  0  0  0  0  0  0  0
   42.2410   24.9090   40.4590 C   0  0  0  0  0  0  0  0  0  0  0  0
   42.2850   25.3470   41.7270 N   0  0  0  0  0  0  0  0  0  0  0  0
   43.3980   27.8400   47.5820 C   0  0  0  0  0  0  0  0  0  0  0  0
   43.3580   29.2220   47.6190 F   0  0  0  0  0  0  0  0  0  0  0  0
   42.2220   27.4470   48.2270 F   0  0  0  0  0  0  0  0  0  0  0  0
   44.5130   27.4380   48.3030 F   0  0  0  0  0  0  0  0  0  0  0  0
   41.1050   26.9380   43.4010 O   0  0  0  0  0  0  0  0  0  0  0  0
   37.1260   29.1010   43.3390 N   0  0  0  0  0  0  0  0  0  0  0  0
   37.0020   27.8510   43.7960 C   0  0  0  0  0  0  0  0  0  0  0  0
   38.2360   27.2910   43.7770 N   0  0  0  0  0  0  0  0  0  0  0  0
   39.1460   28.1720   43.3120 C   0  0  0  0  0  0  0  0  0  0  0  0
   40.5080   28.1430   43.0860 C   0  0  0  0  0  0  0  0  0  0  0  0
   41.1210   29.2420   42.5970 N   0  0  0  0  0  0  0  0  0  0  0  0
   40.3990   30.3460   42.3380 C   0  0  0  0  0  0  0  0  0  0  0  0
   39.0630   30.4260   42.5420 N   0  0  0  0  0  0  0  0  0  0  0  0
   38.4130   29.3400   43.0330 C   0  0  0  0  0  0  0  0  0  0  0  0
   41.0280   31.5170   41.8220 N   0  0  0  0  0  0  0  0  0  0  0  0
   42.2360   31.9020   42.1970 N   0  0  0  0  0  0  0  0  0  0  0  0
   42.6250   33.0230   41.5870 C   0  0  0  0  0  0  0  0  0  0  0  0
   41.5760   33.4000   40.7400 C   0  0  0  0  0  0  0  0  0  0  0  0
   40.6100   32.4310   40.9250 C   0  0  0  0  0  0  0  0  0  0  0  0
   45.5107   26.0619   43.9425 H   0  0  0  0  0  0  0  0  0  0  0  0
   45.3041   26.6444   41.6904 H   0  0  0  0  0  0  0  0  0  0  0  0
   45.2502   25.8540   39.3570 H   0  0  0  0  0  0  0  0  0  0  0  0
   41.3301   24.3987   40.1129 H   0  0  0  0  0  0  0  0  0  0  0  0
   36.3550   29.7763   43.2371 H   0  0  0  0  0  0  0  0  0  0  0  0
   36.0712   27.3667   44.1262 H   0  0  0  0  0  0  0  0  0  0  0  0
   43.5821   33.5480   41.7229 H   0  0  0  0  0  0  0  0  0  0  0  0
   41.5313   34.2746   40.0744 H   0  0  0  0  0  0  0  0  0  0  0  0
   39.6369   32.4085   40.4125 H   0  0  0  0  0  0  0  0  0  0  0  0
  1  6  2  0
  2  3  2  0
  2  1  1  0
  3  4  1  0
  4  5  2  0
  5 13  1  0
  6  5  1  0
  7  2  1  0
  8  7  2  0
  9  8  1  0
 10  9  2  0
 10 11  1  0
 11 12  2  0
 12  7  1  0
 13 14  1  0
 13 15  1  0
 13 16  1  0
 17  3  1  0
 18 19  1  0
 20 19  2  0
 21 20  1  0
 22 21  2  0
 22 17  1  0
 23 22  1  0
 24 25  1  0
 24 23  2  0
 25 26  2  0
 26 21  1  0
 26 18  1  0
 27 28  1  0
 27 24  1  0
 29 28  2  0
 30 31  2  0
 30 29  1  0
 31 27  1  0
  1 32  1  0
  8 33  1  0
  9 34  1  0
 11 35  1  0
 18 36  1  0
 19 37  1  0
 29 38  1  0
 30 39  1  0
 31 40  1  0
M  ISO  8  32  14  33  14  34  14  35  14  36   9  37  14  38  14  39  14
M  ISO  1  40  14
M  END
>  <minimizedAffinity>  (1) 
-6.35560608

>  <minimizedRMSD>  (1) 
0.0973072648

$$$$
