
     RDKit          3D

 41 43  0  0  0  0  0  0  0  0999 V2000
   39.5680   27.8410   43.2920 C   0  0  0  0  0  0  0  0  0  0  0  0
   38.8770   26.6120   43.3360 C   0  0  0  0  0  0  0  0  0  0  0  0
   37.9040   26.3890   42.3300 C   0  0  0  0  0  0  0  0  0  0  0  0
   37.6960   27.3430   41.4010 N   0  0  0  0  0  0  0  0  0  0  0  0
   38.3750   28.5010   41.3930 C   0  0  0  0  0  0  0  0  0  0  0  0
   39.3070   28.7540   42.3300 N   0  0  0  0  0  0  0  0  0  0  0  0
   37.1470   25.2080   42.2620 N   0  0  0  0  0  0  0  0  0  0  0  0
   38.1620   29.5210   40.4120 N   0  0  0  0  0  0  0  0  0  0  0  0
   37.3170   29.2140   39.4150 C   0  0  0  0  0  0  0  0  0  0  0  0
   36.9840   30.0630   38.3780 C   0  0  0  0  0  0  0  0  0  0  0  0
   37.5710   31.3070   38.3870 C   0  0  0  0  0  0  0  0  0  0  0  0
   37.3270   32.1470   37.4840 O   0  0  0  0  0  0  0  0  0  0  0  0
   38.4230   31.6030   39.4030 N   0  0  0  0  0  0  0  0  0  0  0  0
   38.7250   30.7530   40.3940 C   0  0  0  0  0  0  0  0  0  0  0  0
   39.5000   30.9980   41.3350 O   0  0  0  0  0  0  0  0  0  0  0  0
   39.0350   32.9110   39.4050 C   0  0  0  0  0  0  0  0  0  0  0  0
   40.5220   32.9080   39.2720 C   0  0  0  0  0  0  0  0  0  0  0  0
   41.1830   34.0370   40.0280 C   0  0  0  0  0  0  0  0  0  0  0  0
   40.4090   35.3200   40.0160 C   0  0  0  0  0  0  0  0  0  0  0  0
   38.9420   35.1670   40.3090 C   0  0  0  0  0  0  0  0  0  0  0  0
   38.6970   33.6950   40.6620 C   0  0  0  0  0  0  0  0  0  0  0  0
   36.0390   29.6500   37.3100 C   0  0  0  0  0  0  0  0  0  0  0  0
   40.3316   28.0599   44.0529 H   0  0  0  0  0  0  0  0  0  0  0  0
   39.0835   25.8624   44.1141 H   0  0  0  0  0  0  0  0  0  0  0  0
   36.4494   25.0858   41.5141 H   0  0  0  0  0  0  0  0  0  0  0  0
   37.2894   24.4641   42.9600 H   0  0  0  0  0  0  0  0  0  0  0  0
   36.8570   28.2148   39.4248 H   0  0  0  0  0  0  0  0  0  0  0  0
   38.6098   33.3873   38.5093 H   0  0  0  0  0  0  0  0  0  0  0  0
   40.9070   31.9533   39.6598 H   0  0  0  0  0  0  0  0  0  0  0  0
   40.7580   33.0423   38.2060 H   0  0  0  0  0  0  0  0  0  0  0  0
   41.3130   33.7222   41.0740 H   0  0  0  0  0  0  0  0  0  0  0  0
   42.1385   34.2395   39.5221 H   0  0  0  0  0  0  0  0  0  0  0  0
   40.8425   35.9896   40.7734 H   0  0  0  0  0  0  0  0  0  0  0  0
   40.4835   35.7203   38.9941 H   0  0  0  0  0  0  0  0  0  0  0  0
   38.6586   35.8091   41.1560 H   0  0  0  0  0  0  0  0  0  0  0  0
   38.3386   35.4637   39.4384 H   0  0  0  0  0  0  0  0  0  0  0  0
   37.6449   33.5373   40.9415 H   0  0  0  0  0  0  0  0  0  0  0  0
   39.3090   33.3747   41.5181 H   0  0  0  0  0  0  0  0  0  0  0  0
   35.1220   29.2492   37.7666 H   0  0  0  0  0  0  0  0  0  0  0  0
   35.7877   30.5204   36.6860 H   0  0  0  0  0  0  0  0  0  0  0  0
   36.5071   28.8744   36.6860 H   0  0  0  0  0  0  0  0  0  0  0  0
  1  2  2  0
  3  2  1  0
  4  3  2  0
  5  4  1  0
  5  6  2  0
  6  1  1  0
  7  3  1  0
  8  5  1  0
  9  8  1  0
 10 11  1  0
 10  9  2  0
 11 13  1  0
 12 11  2  0
 13 16  1  0
 13 14  1  0
 14  8  1  0
 14 15  2  0
 16 21  1  0
 17 16  1  0
 17 18  1  0
 19 18  1  0
 19 20  1  0
 20 21  1  0
 22 10  1  0
  1 23  1  0
  2 24  1  0
  7 25  1  0
  7 26  1  0
  9 27  1  0
 16 28  1  0
 17 29  1  0
 17 30  1  0
 18 31  1  0
 18 32  1  0
 19 33  1  0
 19 34  1  0
 20 35  1  0
 20 36  1  0
 21 37  1  0
 21 38  1  0
 22 39  1  0
 22 40  1  0
 22 41  1  0
M  ISO  8  23  14  24  14  27  14  28  13  29  13  30  13  31  13  32  13
M  ISO  8  33  13  34  13  35  13  36  13  37  13  38  13  39   8  40   8
M  ISO  1  41   8
M  END
>  <minimizedAffinity>  (1) 
-5.9588275

>  <minimizedRMSD>  (1) 
1.78704321

$$$$
