
     RDKit          3D

 47 51  0  0  1  0  0  0  0  0999 V2000
   38.9480   35.6140   40.1550 C   0  0  0  0  0  0  0  0  0  0  0  0
   40.2840   36.0030   40.3230 C   0  0  0  0  0  0  0  0  0  0  0  0
   41.2120   34.9730   40.6000 C   0  0  0  0  0  0  0  0  0  0  0  0
   40.7160   33.7540   40.6710 N   0  0  0  0  0  0  0  0  0  0  0  0
   39.4820   33.3410   40.5230 C   0  0  0  0  0  0  0  0  0  0  0  0
   38.6210   34.3290   40.2620 N   0  0  0  0  0  0  0  0  0  0  0  0
   38.8380   32.0420   40.5850 C   0  0  0  0  0  0  0  0  0  0  0  0
   38.7580   31.3010   41.7110 N   0  0  0  0  0  0  0  0  0  0  0  0
   38.1780   30.1150   41.8050 C   0  0  0  0  0  0  0  0  0  0  0  0
   37.6140   29.5510   40.7560 N   0  0  0  0  0  0  0  0  0  0  0  0
   37.6240   30.1890   39.5580 C   0  0  0  0  0  0  0  0  0  0  0  0
   37.0380   29.6080   38.4630 C   0  0  0  0  0  0  0  0  0  0  0  0
   37.0310   30.2240   37.2500 C   0  0  0  0  0  0  0  0  0  0  0  0
   37.6510   31.4980   37.1440 C   0  0  0  0  0  0  0  0  0  0  0  0
   38.2160   32.0120   38.2870 C   0  0  0  0  0  0  0  0  0  0  0  0
   38.2390   31.4240   39.5080 C   0  0  0  0  0  0  0  0  0  0  0  0
   42.4900   35.2390   40.7770 O   0  0  0  0  0  0  0  0  0  0  0  0
   43.2050   35.0580   41.9830 C   0  0  2  0  0  0  0  0  0  0  0  0
   42.9260   36.3910   42.7870 C   0  0  0  0  0  0  0  0  0  0  0  0
   44.6680   34.9450   41.7680 C   0  0  0  0  0  0  0  0  0  0  0  0
   45.2350   34.3150   42.9550 N   0  0  0  0  0  0  0  0  0  0  0  0
   46.4810   34.5560   43.4370 C   0  0  0  0  0  0  0  0  0  0  0  0
   46.6980   33.8180   44.5430 N   0  0  0  0  0  0  0  0  0  0  0  0
   45.5470   33.1030   44.7460 C   0  0  0  0  0  0  0  0  0  0  0  0
   44.6740   33.4260   43.7650 N   0  0  0  0  0  0  0  0  0  0  0  0
   45.4310   32.2090   45.8460 N   0  0  0  0  0  0  0  0  0  0  0  0
   44.3150   31.4990   46.0250 N   0  0  0  0  0  0  0  0  0  0  0  0
   44.4380   30.7290   47.1220 C   0  0  0  0  0  0  0  0  0  0  0  0
   45.7030   30.9860   47.6410 C   0  0  0  0  0  0  0  0  0  0  0  0
   46.3170   31.9290   46.8140 C   0  0  0  0  0  0  0  0  0  0  0  0
   38.1754   36.3659   39.9362 H   0  0  0  0  0  0  0  0  0  0  0  0
   40.5944   37.0553   40.2434 H   0  0  0  0  0  0  0  0  0  0  0  0
   38.1666   29.5925   42.7729 H   0  0  0  0  0  0  0  0  0  0  0  0
   36.5628   28.6215   38.5677 H   0  0  0  0  0  0  0  0  0  0  0  0
   36.5592   29.7496   36.3769 H   0  0  0  0  0  0  0  0  0  0  0  0
   37.6777   32.0476   36.1915 H   0  0  0  0  0  0  0  0  0  0  0  0
   38.6969   32.9977   38.2023 H   0  0  0  0  0  0  0  0  0  0  0  0
   42.8905   34.1334   42.4891 H   0  0  0  0  0  0  0  0  0  0  0  0
   42.9693   36.1840   43.8665 H   0  0  0  0  0  0  0  0  0  0  0  0
   43.6864   37.1421   42.5269 H   0  0  0  0  0  0  0  0  0  0  0  0
   41.9282   36.7741   42.5269 H   0  0  0  0  0  0  0  0  0  0  0  0
   44.8712   34.3272   40.8808 H   0  0  0  0  0  0  0  0  0  0  0  0
   45.1145   35.9367   41.6034 H   0  0  0  0  0  0  0  0  0  0  0  0
   47.2067   35.2515   42.9902 H   0  0  0  0  0  0  0  0  0  0  0  0
   43.6875   30.0345   47.5276 H   0  0  0  0  0  0  0  0  0  0  0  0
   46.1407   30.5288   48.5407 H   0  0  0  0  0  0  0  0  0  0  0  0
   47.3238   32.3561   46.9323 H   0  0  0  0  0  0  0  0  0  0  0  0
  1  6  2  0
  1  2  1  0
  2  3  2  0
  3  4  1  0
  3 17  1  0
  5  7  1  0
  5  4  2  0
  6  5  1  0
  7  8  2  0
  8  9  1  0
 10  9  2  0
 11 10  1  0
 12 11  2  0
 13 12  1  0
 14 13  2  0
 14 15  1  0
 15 16  2  0
 16 11  1  0
 16  7  1  0
 17 18  1  0
 18 19  1  0
 20 18  1  0
 20 21  1  0
 21 22  1  0
 21 25  1  0
 22 23  2  0
 23 24  1  0
 24 26  1  0
 25 24  2  0
 26 27  1  0
 26 30  1  0
 27 28  2  0
 28 29  1  0
 30 29  2  0
  1 31  1  0
  2 32  1  0
  9 33  1  0
 12 34  1  0
 13 35  1  0
 14 36  1  0
 15 37  1  0
 18 38  1  1
 19 39  1  0
 19 40  1  0
 19 41  1  0
 20 42  1  0
 20 43  1  0
 22 44  1  0
 28 45  1  0
 29 46  1  0
 30 47  1  0
M  END
>  <minimizedAffinity>  (1) 
-7.01033211

>  <minimizedRMSD>  (1) 
0.240960374

$$$$
