
     RDKit          3D

 30 32  0  0  0  0  0  0  0  0999 V2000
   38.8130   27.7000   42.9040 C   0  0  0  0  0  0  0  0  0  0  0  0
   37.7020   27.6070   43.7150 C   0  0  0  0  0  0  0  0  0  0  0  0
   36.5870   27.7000   42.9160 C   0  0  0  0  0  0  0  0  0  0  0  0
   37.0830   27.8470   41.6510 N   0  0  0  0  0  0  0  0  0  0  0  0
   38.3790   27.8450   41.6510 N   0  0  0  0  0  0  0  0  0  0  0  0
   42.0000   26.6140   44.4880 C   0  0  0  0  0  0  0  0  0  0  0  0
   40.6450   26.6000   44.1100 C   0  0  0  0  0  0  0  0  0  0  0  0
   40.1930   27.6500   43.3290 C   0  0  0  0  0  0  0  0  0  0  0  0
   41.0490   28.6450   42.9580 N   0  0  0  0  0  0  0  0  0  0  0  0
   42.3550   28.6090   43.3540 C   0  0  0  0  0  0  0  0  0  0  0  0
   42.8230   27.6010   44.1120 N   0  0  0  0  0  0  0  0  0  0  0  0
   36.2630   27.9820   40.4850 C   0  0  0  0  0  0  0  0  0  0  0  0
   35.2160   29.0710   40.5820 C   0  0  0  0  0  0  0  0  0  0  0  0
   34.6500   29.0110   39.1580 C   0  0  0  0  0  0  0  0  0  0  0  0
   35.8610   28.7330   38.2810 C   0  0  0  0  0  0  0  0  0  0  0  0
   37.0100   28.4100   39.2440 C   0  0  0  0  0  0  0  0  0  0  0  0
   37.7068   27.4808   44.8077 H   0  0  0  0  0  0  0  0  0  0  0  0
   35.5321   27.6641   43.2255 H   0  0  0  0  0  0  0  0  0  0  0  0
   42.3929   25.7943   45.1074 H   0  0  0  0  0  0  0  0  0  0  0  0
   39.9720   25.7878   44.4223 H   0  0  0  0  0  0  0  0  0  0  0  0
   43.0356   29.4173   43.0483 H   0  0  0  0  0  0  0  0  0  0  0  0
   35.8434   26.9672   40.4216 H   0  0  0  0  0  0  0  0  0  0  0  0
   34.4509   28.8377   41.3371 H   0  0  0  0  0  0  0  0  0  0  0  0
   35.5945   30.0560   40.8927 H   0  0  0  0  0  0  0  0  0  0  0  0
   33.9097   28.2024   39.0671 H   0  0  0  0  0  0  0  0  0  0  0  0
   34.1305   29.9381   38.8739 H   0  0  0  0  0  0  0  0  0  0  0  0
   35.6652   27.8775   37.6179 H   0  0  0  0  0  0  0  0  0  0  0  0
   36.1012   29.5930   37.6386 H   0  0  0  0  0  0  0  0  0  0  0  0
   37.6410   27.5968   38.8560 H   0  0  0  0  0  0  0  0  0  0  0  0
   37.7023   29.2489   39.4083 H   0  0  0  0  0  0  0  0  0  0  0  0
  1  8  1  0
  1  2  1  0
  3  2  2  0
  4  5  1  0
  4  3  1  0
  5  1  2  0
  7  6  2  0
  8  7  1  0
  9  8  2  0
  9 10  1  0
 10 11  2  0
 11  6  1  0
 12 13  1  0
 12  4  1  0
 14 13  1  0
 15 14  1  0
 15 16  1  0
 16 12  1  0
  2 17  1  0
  3 18  1  0
  6 19  1  0
  7 20  1  0
 10 21  1  0
 12 22  1  0
 13 23  1  0
 13 24  1  0
 14 25  1  0
 14 26  1  0
 15 27  1  0
 15 28  1  0
 16 29  1  0
 16 30  1  0
M  ISO  8  17  14  18  14  19  14  20  14  21  14  22  13  23  13  24  13
M  ISO  6  25  13  26  13  27  13  28  13  29  13  30  13
M  END
>  <minimizedAffinity>  (1) 
-4.4591713

>  <minimizedRMSD>  (1) 
7.15898657

$$$$
