
     RDKit          3D

 52 56  0  0  0  0  0  0  0  0999 V2000
   39.3510   29.4930   39.6550 C   0  0  0  0  0  0  0  0  0  0  0  0
   38.1020   29.9250   39.3070 C   0  0  0  0  0  0  0  0  0  0  0  0
   38.0570   31.0620   38.4890 C   0  0  0  0  0  0  0  0  0  0  0  0
   39.2060   31.6330   38.1150 N   0  0  0  0  0  0  0  0  0  0  0  0
   40.3880   31.1940   38.4660 C   0  0  0  0  0  0  0  0  0  0  0  0
   40.4900   30.0810   39.2680 N   0  0  0  0  0  0  0  0  0  0  0  0
   41.4940   31.9400   37.9760 N   0  0  0  0  0  0  0  0  0  0  0  0
   42.5820   31.6510   37.3070 N   0  0  0  0  0  0  0  0  0  0  0  0
   43.3040   32.7700   37.1080 C   0  0  0  0  0  0  0  0  0  0  0  0
   42.6260   33.8010   37.6850 C   0  0  0  0  0  0  0  0  0  0  0  0
   41.4730   33.2690   38.2350 C   0  0  0  0  0  0  0  0  0  0  0  0
   36.9180   29.1860   39.8070 C   0  0  0  0  0  0  0  0  0  0  0  0
   37.0490   28.4730   41.0440 C   0  0  0  0  0  0  0  0  0  0  0  0
   37.2620   29.2110   42.2270 C   0  0  0  0  0  0  0  0  0  0  0  0
   37.3910   28.6060   43.4460 C   0  0  0  0  0  0  0  0  0  0  0  0
   37.3060   27.2200   43.5000 C   0  0  0  0  0  0  0  0  0  0  0  0
   37.1020   26.4940   42.3720 C   0  0  0  0  0  0  0  0  0  0  0  0
   37.0040   25.0970   42.4170 C   0  0  0  0  0  0  0  0  0  0  0  0
   36.7930   24.3770   41.3030 C   0  0  0  0  0  0  0  0  0  0  0  0
   36.6610   24.9840   40.0440 C   0  0  0  0  0  0  0  0  0  0  0  0
   36.7610   26.3920   40.0090 C   0  0  0  0  0  0  0  0  0  0  0  0
   36.9710   27.1090   41.1310 C   0  0  0  0  0  0  0  0  0  0  0  0
   40.5640   34.0860   38.9020 O   0  0  0  0  0  0  0  0  0  0  0  0
   40.9160   36.5120   41.8450 N   0  0  0  0  0  0  0  0  0  0  0  0
   39.8520   36.5360   40.8530 C   0  0  0  0  0  0  0  0  0  0  0  0
   39.3270   35.1470   40.6730 C   0  0  0  0  0  0  0  0  0  0  0  0
   40.3800   34.1360   40.2940 C   0  0  0  0  0  0  0  0  0  0  0  0
   41.6740   34.3410   41.0400 C   0  0  0  0  0  0  0  0  0  0  0  0
   42.0200   35.7970   41.2100 C   0  0  0  0  0  0  0  0  0  0  0  0
   39.4256   28.6023   40.2962 H   0  0  0  0  0  0  0  0  0  0  0  0
   37.0928   31.4772   38.1605 H   0  0  0  0  0  0  0  0  0  0  0  0
   44.2649   32.8389   36.5770 H   0  0  0  0  0  0  0  0  0  0  0  0
   42.9361   34.8561   37.7092 H   0  0  0  0  0  0  0  0  0  0  0  0
   36.1048   29.9159   39.9334 H   0  0  0  0  0  0  0  0  0  0  0  0
   36.7407   28.4042   39.0538 H   0  0  0  0  0  0  0  0  0  0  0  0
   37.3263   30.3075   42.1668 H   0  0  0  0  0  0  0  0  0  0  0  0
   37.5572   29.1989   44.3575 H   0  0  0  0  0  0  0  0  0  0  0  0
   37.4051   26.7060   44.4675 H   0  0  0  0  0  0  0  0  0  0  0  0
   37.1017   24.5801   43.3831 H   0  0  0  0  0  0  0  0  0  0  0  0
   36.7217   23.2820   41.3792 H   0  0  0  0  0  0  0  0  0  0  0  0
   36.4886   24.3934   39.1322 H   0  0  0  0  0  0  0  0  0  0  0  0
   36.6655   26.9148   39.0459 H   0  0  0  0  0  0  0  0  0  0  0  0
   41.2013   37.4706   42.0911 H   0  0  0  0  0  0  0  0  0  0  0  0
   39.0415   37.1956   41.1965 H   0  0  0  0  0  0  0  0  0  0  0  0
   40.2422   36.9141   39.8966 H   0  0  0  0  0  0  0  0  0  0  0  0
   38.8650   34.8269   41.6186 H   0  0  0  0  0  0  0  0  0  0  0  0
   38.6085   35.1844   39.8409 H   0  0  0  0  0  0  0  0  0  0  0  0
   40.0075   33.1495   40.6071 H   0  0  0  0  0  0  0  0  0  0  0  0
   41.5833   33.8818   42.0355 H   0  0  0  0  0  0  0  0  0  0  0  0
   42.4765   33.8745   40.4497 H   0  0  0  0  0  0  0  0  0  0  0  0
   42.9182   35.8850   41.8389 H   0  0  0  0  0  0  0  0  0  0  0  0
   42.2074   36.2372   40.2195 H   0  0  0  0  0  0  0  0  0  0  0  0
  2  1  2  0
  2 12  1  0
  3  2  1  0
  4  5  1  0
  4  3  2  0
  5  6  2  0
  6  1  1  0
  7 11  1  0
  7  5  1  0
  8  7  1  0
  9  8  2  0
  9 10  1  0
 10 11  2  0
 11 23  1  0
 12 13  1  0
 13 22  1  0
 13 14  2  0
 14 15  1  0
 15 16  2  0
 17 18  2  0
 17 16  1  0
 19 18  1  0
 20 19  2  0
 21 20  1  0
 21 22  2  0
 22 17  1  0
 23 27  1  0
 25 24  1  0
 26 25  1  0
 27 26  1  0
 27 28  1  0
 28 29  1  0
 29 24  1  0
  1 30  1  0
  3 31  1  0
  9 32  1  0
 10 33  1  0
 12 34  1  0
 12 35  1  0
 14 36  1  0
 15 37  1  0
 16 38  1  0
 18 39  1  0
 19 40  1  0
 20 41  1  0
 21 42  1  0
 24 43  1  0
 25 44  1  0
 25 45  1  0
 26 46  1  0
 26 47  1  0
 27 48  1  0
 28 49  1  0
 28 50  1  0
 29 51  1  0
 29 52  1  0
M  END
>  <minimizedAffinity>  (1) 
-7.06428242

>  <minimizedRMSD>  (1) 
3.34761953

$$$$
