
     RDKit          3D

 38 40  0  0  0  0  0  0  0  0999 V2000
   39.5330   27.5950   43.5400 C   0  0  0  0  0  0  0  0  0  0  0  0
   38.9660   26.3140   43.3770 C   0  0  0  0  0  0  0  0  0  0  0  0
   38.0960   26.1580   42.2890 C   0  0  0  0  0  0  0  0  0  0  0  0
   37.8510   27.2040   41.4800 N   0  0  0  0  0  0  0  0  0  0  0  0
   38.4070   28.4080   41.6640 C   0  0  0  0  0  0  0  0  0  0  0  0
   39.2510   28.6110   42.6950 N   0  0  0  0  0  0  0  0  0  0  0  0
   37.4520   24.9410   41.9930 N   0  0  0  0  0  0  0  0  0  0  0  0
   38.1550   29.5270   40.8120 N   0  0  0  0  0  0  0  0  0  0  0  0
   37.3340   29.3150   39.7680 C   0  0  0  0  0  0  0  0  0  0  0  0
   36.9780   30.2710   38.8460 C   0  0  0  0  0  0  0  0  0  0  0  0
   37.5210   31.5290   39.0320 C   0  0  0  0  0  0  0  0  0  0  0  0
   37.2520   32.4580   38.2410 O   0  0  0  0  0  0  0  0  0  0  0  0
   38.3360   31.7290   40.0740 N   0  0  0  0  0  0  0  0  0  0  0  0
   38.6660   30.7710   40.9620 C   0  0  0  0  0  0  0  0  0  0  0  0
   39.4270   30.9370   41.9430 O   0  0  0  0  0  0  0  0  0  0  0  0
   38.9460   33.0020   40.3470 C   0  0  0  0  0  0  0  0  0  0  0  0
   40.1290   33.3220   39.4650 C   0  0  0  0  0  0  0  0  0  0  0  0
   40.3200   34.8040   39.7050 C   0  0  0  0  0  0  0  0  0  0  0  0
   39.0930   35.2960   40.4610 C   0  0  0  0  0  0  0  0  0  0  0  0
   38.0890   34.1830   40.1120 C   0  0  0  0  0  0  0  0  0  0  0  0
   36.0630   29.9580   37.7160 C   0  0  0  0  0  0  0  0  0  0  0  0
   40.2236   27.7718   44.3778 H   0  0  0  0  0  0  0  0  0  0  0  0
   39.1933   25.4854   44.0638 H   0  0  0  0  0  0  0  0  0  0  0  0
   36.8210   24.8763   41.1815 H   0  0  0  0  0  0  0  0  0  0  0  0
   37.6120   24.1156   42.5880 H   0  0  0  0  0  0  0  0  0  0  0  0
   36.9176   28.3046   39.6428 H   0  0  0  0  0  0  0  0  0  0  0  0
   39.1970   32.8591   41.4084 H   0  0  0  0  0  0  0  0  0  0  0  0
   39.9051   33.1154   38.4080 H   0  0  0  0  0  0  0  0  0  0  0  0
   41.0220   32.7209   39.6913 H   0  0  0  0  0  0  0  0  0  0  0  0
   41.2264   34.9756   40.3041 H   0  0  0  0  0  0  0  0  0  0  0  0
   40.4363   35.3433   38.7534 H   0  0  0  0  0  0  0  0  0  0  0  0
   39.2779   35.3522   41.5439 H   0  0  0  0  0  0  0  0  0  0  0  0
   38.7650   36.3116   40.1944 H   0  0  0  0  0  0  0  0  0  0  0  0
   37.7536   34.2455   39.0662 H   0  0  0  0  0  0  0  0  0  0  0  0
   37.1497   34.2023   40.6842 H   0  0  0  0  0  0  0  0  0  0  0  0
   35.0919   29.6258   38.1117 H   0  0  0  0  0  0  0  0  0  0  0  0
   35.9195   30.8581   37.1003 H   0  0  0  0  0  0  0  0  0  0  0  0
   36.5009   29.1585   37.1003 H   0  0  0  0  0  0  0  0  0  0  0  0
  2  1  2  0
  3  2  1  0
  4  5  1  0
  4  3  2  0
  5  6  2  0
  6  1  1  0
  7  3  1  0
  8 14  1  0
  8  5  1  0
  9  8  1  0
 10 11  1  0
 10  9  2  0
 11 13  1  0
 12 11  2  0
 13 16  1  0
 13 14  1  0
 14 15  2  0
 17 18  1  0
 17 16  1  0
 18 19  1  0
 20 16  1  0
 20 19  1  0
 21 10  1  0
  1 22  1  0
  2 23  1  0
  7 24  1  0
  7 25  1  0
  9 26  1  0
 16 27  1  0
 17 28  1  0
 17 29  1  0
 18 30  1  0
 18 31  1  0
 19 32  1  0
 19 33  1  0
 20 34  1  0
 20 35  1  0
 21 36  1  0
 21 37  1  0
 21 38  1  0
M  ISO  8  22  14  23  14  26  14  27  13  28  13  29  13  30  13  31  13
M  ISO  7  32  13  33  13  34  13  35  13  36   8  37   8  38   8
M  END
>  <minimizedAffinity>  (1) 
-5.75135994

>  <minimizedRMSD>  (1) 
1.63512647

$$$$
