
     RDKit          3D

 45 49  0  0  0  0  0  0  0  0999 V2000
   37.0520   33.3360   39.8880 N   0  0  0  0  0  0  0  0  0  0  0  0
   37.3540   34.5680   39.5700 N   0  0  0  0  0  0  0  0  0  0  0  0
   38.5960   34.8470   40.0550 C   0  0  0  0  0  0  0  0  0  0  0  0
   38.9910   33.6710   40.6770 C   0  0  0  0  0  0  0  0  0  0  0  0
   37.9670   32.7060   40.5550 C   0  0  0  0  0  0  0  0  0  0  0  0
   38.1290   31.4410   41.1630 C   0  0  0  0  0  0  0  0  0  0  0  0
   39.2300   31.2020   41.9350 N   0  0  0  0  0  0  0  0  0  0  0  0
   39.4840   30.0950   42.6040 C   0  0  0  0  0  0  0  0  0  0  0  0
   38.6600   29.0490   42.6030 N   0  0  0  0  0  0  0  0  0  0  0  0
   37.5270   29.1600   41.8700 C   0  0  0  0  0  0  0  0  0  0  0  0
   36.6360   28.1390   41.8110 C   0  0  0  0  0  0  0  0  0  0  0  0
   35.4700   28.2070   41.0670 C   0  0  0  0  0  0  0  0  0  0  0  0
   35.2600   29.3950   40.3740 C   0  0  0  0  0  0  0  0  0  0  0  0
   36.1980   30.3850   40.4800 C   0  0  0  0  0  0  0  0  0  0  0  0
   37.3370   30.3480   41.1980 C   0  0  0  0  0  0  0  0  0  0  0  0
   39.6290   36.3210   40.0670 S   0  0  0  0  0  0  0  0  0  0  0  0
   43.1000   34.6550   40.9730 C   0  0  0  0  0  0  0  0  0  0  0  0
   43.5720   35.3830   42.0650 C   0  0  0  0  0  0  0  0  0  0  0  0
   42.7990   36.4290   42.5570 C   0  0  0  0  0  0  0  0  0  0  0  0
   41.6170   36.6740   41.9310 N   0  0  0  0  0  0  0  0  0  0  0  0
   41.1870   35.9540   40.8790 C   0  0  0  0  0  0  0  0  0  0  0  0
   41.9220   34.9600   40.4110 N   0  0  0  0  0  0  0  0  0  0  0  0
   43.3020   37.1890   43.7140 C   0  0  0  0  0  0  0  0  0  0  0  0
   44.7420   36.9390   44.0090 C   0  0  0  0  0  0  0  0  0  0  0  0
   44.9380   35.8970   45.0500 C   0  0  0  0  0  0  0  0  0  0  0  0
   45.5660   34.6720   45.1270 C   0  0  0  0  0  0  0  0  0  0  0  0
   45.3980   34.1600   46.4020 C   0  0  0  0  0  0  0  0  0  0  0  0
   44.6540   35.1480   47.0210 C   0  0  0  0  0  0  0  0  0  0  0  0
   44.3970   36.1450   46.2260 O   0  0  0  0  0  0  0  0  0  0  0  0
   36.1557   32.9000   39.6282 H   0  0  0  0  0  0  0  0  0  0  0  0
   39.9533   33.5146   41.1865 H   0  0  0  0  0  0  0  0  0  0  0  0
   40.4147   30.0327   43.1870 H   0  0  0  0  0  0  0  0  0  0  0  0
   36.8482   27.2199   42.3769 H   0  0  0  0  0  0  0  0  0  0  0  0
   34.7539   27.3730   41.0264 H   0  0  0  0  0  0  0  0  0  0  0  0
   34.3611   29.5348   39.7556 H   0  0  0  0  0  0  0  0  0  0  0  0
   36.0010   31.3103   39.9188 H   0  0  0  0  0  0  0  0  0  0  0  0
   43.6987   33.8247   40.5702 H   0  0  0  0  0  0  0  0  0  0  0  0
   44.5380   35.1343   42.5286 H   0  0  0  0  0  0  0  0  0  0  0  0
   43.1694   38.2618   43.5102 H   0  0  0  0  0  0  0  0  0  0  0  0
   42.7293   36.8575   44.5927 H   0  0  0  0  0  0  0  0  0  0  0  0
   45.2397   36.6115   43.0843 H   0  0  0  0  0  0  0  0  0  0  0  0
   45.1723   37.8768   44.3902 H   0  0  0  0  0  0  0  0  0  0  0  0
   46.1120   34.1811   44.3079 H   0  0  0  0  0  0  0  0  0  0  0  0
   45.7633   33.2092   46.8173 H   0  0  0  0  0  0  0  0  0  0  0  0
   44.3177   35.0965   48.0671 H   0  0  0  0  0  0  0  0  0  0  0  0
  1  5  1  0
  2  1  1  0
  2  3  2  0
  3 16  1  0
  3  4  1  0
  5  4  2  0
  5  6  1  0
  6 15  1  0
  6  7  2  0
  7  8  1  0
  9  8  2  0
 10  9  1  0
 11 10  2  0
 12 11  1  0
 13 14  1  0
 13 12  2  0
 14 15  2  0
 15 10  1  0
 16 21  1  0
 17 18  2  0
 18 19  1  0
 19 23  1  0
 20 19  2  0
 21 20  1  0
 22 21  2  0
 22 17  1  0
 23 24  1  0
 24 25  1  0
 25 26  2  0
 25 29  1  0
 26 27  1  0
 27 28  2  0
 29 28  1  0
  1 30  1  0
  4 31  1  0
  8 32  1  0
 11 33  1  0
 12 34  1  0
 13 35  1  0
 14 36  1  0
 17 37  1  0
 18 38  1  0
 23 39  1  0
 23 40  1  0
 24 41  1  0
 24 42  1  0
 26 43  1  0
 27 44  1  0
 28 45  1  0
M  END
>  <minimizedAffinity>  (1) 
-7.83393097

>  <minimizedRMSD>  (1) 
0.940523565

$$$$
