
     RDKit          3D

 44 49  0  0  0  0  0  0  0  0999 V2000
   41.1470   26.9780   43.3620 O   0  0  0  0  0  0  0  0  0  0  0  0
   37.1690   29.1370   43.2950 N   0  0  0  0  0  0  0  0  0  0  0  0
   37.0360   27.8560   43.6990 C   0  0  0  0  0  0  0  0  0  0  0  0
   38.2710   27.3100   43.6830 N   0  0  0  0  0  0  0  0  0  0  0  0
   39.1920   28.2200   43.2750 C   0  0  0  0  0  0  0  0  0  0  0  0
   40.5550   28.2000   43.0820 C   0  0  0  0  0  0  0  0  0  0  0  0
   41.1860   29.3250   42.6520 N   0  0  0  0  0  0  0  0  0  0  0  0
   40.4410   30.4350   42.4280 C   0  0  0  0  0  0  0  0  0  0  0  0
   39.1090   30.4950   42.6050 N   0  0  0  0  0  0  0  0  0  0  0  0
   38.4590   29.3820   43.0340 C   0  0  0  0  0  0  0  0  0  0  0  0
   41.2230   31.5600   41.9760 N   0  0  0  0  0  0  0  0  0  0  0  0
   42.5340   31.8770   42.1660 C   0  0  0  0  0  0  0  0  0  0  0  0
   42.7750   33.0410   41.5330 N   0  0  0  0  0  0  0  0  0  0  0  0
   41.6430   33.4690   40.9460 C   0  0  0  0  0  0  0  0  0  0  0  0
   41.2380   34.5400   40.1800 C   0  0  0  0  0  0  0  0  0  0  0  0
   39.9900   34.6900   39.7260 N   0  0  0  0  0  0  0  0  0  0  0  0
   39.0400   33.7800   39.9990 C   0  0  0  0  0  0  0  0  0  0  0  0
   39.3950   32.7190   40.7440 N   0  0  0  0  0  0  0  0  0  0  0  0
   40.6410   32.5340   41.2180 C   0  0  0  0  0  0  0  0  0  0  0  0
   44.5960   26.4110   44.3810 C   0  0  0  0  0  0  0  0  0  0  0  0
   43.4460   26.4450   43.5870 C   0  0  0  0  0  0  0  0  0  0  0  0
   42.2680   26.9470   44.1410 C   0  0  0  0  0  0  0  0  0  0  0  0
   42.3100   27.3830   45.4490 N   0  0  0  0  0  0  0  0  0  0  0  0
   43.4370   27.3270   46.1630 C   0  0  0  0  0  0  0  0  0  0  0  0
   44.5880   26.8440   45.6420 N   0  0  0  0  0  0  0  0  0  0  0  0
   43.4100   25.9830   42.2080 C   0  0  0  0  0  0  0  0  0  0  0  0
   44.4470   26.1510   41.3170 C   0  0  0  0  0  0  0  0  0  0  0  0
   44.4360   25.7230   40.0100 C   0  0  0  0  0  0  0  0  0  0  0  0
   43.3140   25.0870   39.5640 N   0  0  0  0  0  0  0  0  0  0  0  0
   42.2850   24.9160   40.4330 C   0  0  0  0  0  0  0  0  0  0  0  0
   42.3350   25.3490   41.7070 N   0  0  0  0  0  0  0  0  0  0  0  0
   43.3990   27.8210   47.5800 C   0  0  0  0  0  0  0  0  0  0  0  0
   43.3720   29.1940   47.6250 F   0  0  0  0  0  0  0  0  0  0  0  0
   42.2090   27.4210   48.2030 F   0  0  0  0  0  0  0  0  0  0  0  0
   44.5150   27.4140   48.3070 F   0  0  0  0  0  0  0  0  0  0  0  0
   36.4010   29.8171   43.2024 H   0  0  0  0  0  0  0  0  0  0  0  0
   36.1008   27.3531   43.9862 H   0  0  0  0  0  0  0  0  0  0  0  0
   43.2665   31.2865   42.7358 H   0  0  0  0  0  0  0  0  0  0  0  0
   41.9804   35.3119   39.9290 H   0  0  0  0  0  0  0  0  0  0  0  0
   38.0115   33.8986   39.6272 H   0  0  0  0  0  0  0  0  0  0  0  0
   45.5306   26.0173   43.9549 H   0  0  0  0  0  0  0  0  0  0  0  0
   45.3502   26.6652   41.6773 H   0  0  0  0  0  0  0  0  0  0  0  0
   45.2995   25.8872   39.3487 H   0  0  0  0  0  0  0  0  0  0  0  0
   41.3762   24.4045   40.0831 H   0  0  0  0  0  0  0  0  0  0  0  0
  1 22  1  0
  2  3  1  0
  4  3  2  0
  5  4  1  0
  6  5  2  0
  6  1  1  0
  7  6  1  0
  8  9  1  0
  8  7  2  0
  9 10  2  0
 10  5  1  0
 10  2  1  0
 11 12  1  0
 11  8  1  0
 13 12  2  0
 14 19  2  0
 14 13  1  0
 15 14  1  0
 16 17  1  0
 16 15  2  0
 17 18  2  0
 18 19  1  0
 19 11  1  0
 20 25  2  0
 21 22  2  0
 21 20  1  0
 22 23  1  0
 23 24  2  0
 24 32  1  0
 25 24  1  0
 26 21  1  0
 27 26  2  0
 28 27  1  0
 29 28  2  0
 29 30  1  0
 30 31  2  0
 31 26  1  0
 32 33  1  0
 32 34  1  0
 32 35  1  0
  2 36  1  0
  3 37  1  0
 12 38  1  0
 15 39  1  0
 17 40  1  0
 20 41  1  0
 27 42  1  0
 28 43  1  0
 30 44  1  0
M  END
>  <minimizedAffinity>  (1) 
-7.18011951

>  <minimizedRMSD>  (1) 
0.0436230451

$$$$
