
     RDKit          3D

 22 24  0  0  0  0  0  0  0  0999 V2000
   40.6320   25.3810   43.4500 C   0  0  0  0  0  0  0  0  0  0  0  0
   39.6870   24.3910   43.0710 C   0  0  0  0  0  0  0  0  0  0  0  0
   38.4970   24.7860   42.4790 C   0  0  0  0  0  0  0  0  0  0  0  0
   38.2870   26.1230   42.2850 N   0  0  0  0  0  0  0  0  0  0  0  0
   39.2060   27.0560   42.6550 C   0  0  0  0  0  0  0  0  0  0  0  0
   40.3490   26.6750   43.2250 N   0  0  0  0  0  0  0  0  0  0  0  0
   38.8770   28.4250   42.4040 N   0  0  0  0  0  0  0  0  0  0  0  0
   39.5300   29.5580   42.7000 C   0  0  0  0  0  0  0  0  0  0  0  0
   38.7890   30.5800   42.2410 N   0  0  0  0  0  0  0  0  0  0  0  0
   37.6830   30.1000   41.6620 C   0  0  0  0  0  0  0  0  0  0  0  0
   36.5880   30.6810   41.0350 C   0  0  0  0  0  0  0  0  0  0  0  0
   35.6010   29.9170   40.5350 N   0  0  0  0  0  0  0  0  0  0  0  0
   35.6420   28.5750   40.6290 C   0  0  0  0  0  0  0  0  0  0  0  0
   36.6950   27.9720   41.2360 N   0  0  0  0  0  0  0  0  0  0  0  0
   37.7130   28.7040   41.7530 C   0  0  0  0  0  0  0  0  0  0  0  0
   37.6160   23.8040   42.1290 O   0  0  0  0  0  0  0  0  0  0  0  0
   41.5830   25.0923   43.9215 H   0  0  0  0  0  0  0  0  0  0  0  0
   39.8963   23.3252   43.2447 H   0  0  0  0  0  0  0  0  0  0  0  0
   40.4948   29.6362   43.2225 H   0  0  0  0  0  0  0  0  0  0  0  0
   36.5279   31.7758   40.9468 H   0  0  0  0  0  0  0  0  0  0  0  0
   34.8234   27.9683   40.2145 H   0  0  0  0  0  0  0  0  0  0  0  0
   36.7540   24.0409   41.7036 H   0  0  0  0  0  0  0  0  0  0  0  0
  2  1  2  0
  3  2  1  0
  4  3  2  0
  4  5  1  0
  5  6  2  0
  6  1  1  0
  7  5  1  0
  7  8  1  0
  9  8  2  0
 10 15  2  0
 10  9  1  0
 11 10  1  0
 12 13  1  0
 12 11  2  0
 13 14  2  0
 14 15  1  0
 15  7  1  0
 16  3  1  0
  1 17  1  0
  2 18  1  0
  8 19  1  0
 11 20  1  0
 13 21  1  0
 16 22  1  0
M  ISO  6  17  14  18  14  19  14  20  14  21  14  22   3
M  END
>  <minimizedAffinity>  (1) 
-4.82333231

>  <minimizedRMSD>  (1) 
3.74595714

$$$$
