
     RDKit          3D

 27 29  0  0  0  0  0  0  0  0999 V2000
   36.7300   27.3560   43.0920 C   0  0  0  0  0  0  0  0  0  0  0  0
   37.5670   26.2620   42.5080 C   0  0  0  0  0  0  0  0  0  0  0  0
   37.0530   25.4130   41.5980 N   0  0  0  0  0  0  0  0  0  0  0  0
   37.7580   24.4130   41.0410 C   0  0  0  0  0  0  0  0  0  0  0  0
   39.0410   24.2490   41.4080 N   0  0  0  0  0  0  0  0  0  0  0  0
   39.6150   25.0640   42.3130 C   0  0  0  0  0  0  0  0  0  0  0  0
   40.9340   24.8750   42.6740 C   0  0  0  0  0  0  0  0  0  0  0  0
   41.5190   25.7150   43.6040 C   0  0  0  0  0  0  0  0  0  0  0  0
   40.7500   26.7230   44.1420 C   0  0  0  0  0  0  0  0  0  0  0  0
   39.4290   26.9400   43.8060 C   0  0  0  0  0  0  0  0  0  0  0  0
   38.8720   26.1020   42.8870 C   0  0  0  0  0  0  0  0  0  0  0  0
   37.3460   30.6120   41.2130 C   0  0  0  0  0  0  0  0  0  0  0  0
   37.5250   29.5670   42.1780 C   0  0  0  0  0  0  0  0  0  0  0  0
   36.6170   28.4910   42.1230 C   0  0  0  0  0  0  0  0  0  0  0  0
   35.6470   28.5210   41.1690 N   0  0  0  0  0  0  0  0  0  0  0  0
   35.5140   29.5220   40.2820 C   0  0  0  0  0  0  0  0  0  0  0  0
   36.3680   30.5580   40.3160 N   0  0  0  0  0  0  0  0  0  0  0  0
   35.7257   26.9663   43.3144 H   0  0  0  0  0  0  0  0  0  0  0  0
   37.2045   27.7178   44.0161 H   0  0  0  0  0  0  0  0  0  0  0  0
   37.2952   23.7435   40.3010 H   0  0  0  0  0  0  0  0  0  0  0  0
   41.5179   24.0589   42.2234 H   0  0  0  0  0  0  0  0  0  0  0  0
   42.5685   25.5818   43.9054 H   0  0  0  0  0  0  0  0  0  0  0  0
   41.2146   27.3926   44.8808 H   0  0  0  0  0  0  0  0  0  0  0  0
   38.8493   27.7563   44.2616 H   0  0  0  0  0  0  0  0  0  0  0  0
   38.0303   31.4732   41.2155 H   0  0  0  0  0  0  0  0  0  0  0  0
   38.3318   29.6034   42.9249 H   0  0  0  0  0  0  0  0  0  0  0  0
   34.7098   29.4929   39.5320 H   0  0  0  0  0  0  0  0  0  0  0  0
  2 11  1  0
  2  1  1  0
  3  2  2  0
  4  5  2  0
  4  3  1  0
  5  6  1  0
  6  7  1  0
  6 11  2  0
  7  8  2  0
  8  9  1  0
 10  9  2  0
 11 10  1  0
 12 13  2  0
 14 13  1  0
 14  1  1  0
 15 14  2  0
 16 17  2  0
 16 15  1  0
 17 12  1  0
  1 18  1  0
  1 19  1  0
  4 20  1  0
  7 21  1  0
  8 22  1  0
  9 23  1  0
 10 24  1  0
 12 25  1  0
 13 26  1  0
 16 27  1  0
M  ISO  8  18   8  19   8  20  14  21  14  22  14  23  14  24  14  25  14
M  ISO  2  26  14  27  14
M  END
>  <minimizedAffinity>  (1) 
-5.02516365

>  <minimizedRMSD>  (1) 
1.90392375

$$$$
