
     RDKit          3D

 34 37  0  0  0  0  0  0  0  0999 V2000
   38.7600   31.9940   39.8580 C   0  0  0  0  0  0  0  0  0  0  0  0
   38.7510   31.0920   40.9250 C   0  0  0  0  0  0  0  0  0  0  0  0
   38.1410   29.9850   40.4990 N   0  0  0  0  0  0  0  0  0  0  0  0
   37.7460   30.0950   39.2180 C   0  0  0  0  0  0  0  0  0  0  0  0
   37.0900   29.1760   38.4300 C   0  0  0  0  0  0  0  0  0  0  0  0
   36.8010   29.5690   37.1150 C   0  0  0  0  0  0  0  0  0  0  0  0
   37.1710   30.8290   36.6630 C   0  0  0  0  0  0  0  0  0  0  0  0
   37.8310   31.7370   37.4740 C   0  0  0  0  0  0  0  0  0  0  0  0
   38.1260   31.3670   38.7820 C   0  0  0  0  0  0  0  0  0  0  0  0
   38.9910   35.6220   40.2130 C   0  0  0  0  0  0  0  0  0  0  0  0
   40.3340   35.8990   39.8420 C   0  0  0  0  0  0  0  0  0  0  0  0
   41.1300   34.8150   39.4750 C   0  0  0  0  0  0  0  0  0  0  0  0
   40.5880   33.5790   39.4940 N   0  0  0  0  0  0  0  0  0  0  0  0
   39.3180   33.3380   39.8480 C   0  0  0  0  0  0  0  0  0  0  0  0
   38.5140   34.3600   40.2090 N   0  0  0  0  0  0  0  0  0  0  0  0
   37.9580   28.8460   41.3470 C   0  0  0  0  0  0  0  0  0  0  0  0
   36.7790   28.6840   42.0380 C   0  0  0  0  0  0  0  0  0  0  0  0
   36.5690   27.6090   42.8560 C   0  0  0  0  0  0  0  0  0  0  0  0
   37.5740   26.6460   42.9990 C   0  0  0  0  0  0  0  0  0  0  0  0
   38.7150   26.8720   42.2850 C   0  0  0  0  0  0  0  0  0  0  0  0
   39.0030   27.9220   41.4450 C   0  0  0  0  0  0  0  0  0  0  0  0
   39.1687   31.2628   41.9282 H   0  0  0  0  0  0  0  0  0  0  0  0
   36.8070   28.1842   38.8123 H   0  0  0  0  0  0  0  0  0  0  0  0
   36.2790   28.8762   36.4387 H   0  0  0  0  0  0  0  0  0  0  0  0
   36.9322   31.1148   35.6280 H   0  0  0  0  0  0  0  0  0  0  0  0
   38.1156   32.7286   37.0923 H   0  0  0  0  0  0  0  0  0  0  0  0
   38.3294   36.4497   40.5083 H   0  0  0  0  0  0  0  0  0  0  0  0
   40.7292   36.9256   39.8442 H   0  0  0  0  0  0  0  0  0  0  0  0
   42.1781   34.9639   39.1761 H   0  0  0  0  0  0  0  0  0  0  0  0
   35.9858   29.4383   41.9294 H   0  0  0  0  0  0  0  0  0  0  0  0
   35.6175   27.5019   43.3975 H   0  0  0  0  0  0  0  0  0  0  0  0
   37.4524   25.7640   43.6450 H   0  0  0  0  0  0  0  0  0  0  0  0
   39.5067   26.1164   42.3958 H   0  0  0  0  0  0  0  0  0  0  0  0
   39.9565   28.0244   40.9061 H   0  0  0  0  0  0  0  0  0  0  0  0
  1  2  2  0
  3  2  1  0
  3 16  1  0
  4  3  1  0
  5  4  2  0
  6  5  1  0
  7  6  2  0
  7  8  1  0
  8  9  2  0
  9  4  1  0
  9  1  1  0
 11 10  2  0
 12 13  2  0
 12 11  1  0
 13 14  1  0
 14  1  1  0
 14 15  2  0
 15 10  1  0
 16 21  1  0
 16 17  2  0
 17 18  1  0
 18 19  2  0
 20 19  1  0
 21 20  2  0
  2 22  1  0
  5 23  1  0
  6 24  1  0
  7 25  1  0
  8 26  1  0
 10 27  1  0
 11 28  1  0
 12 29  1  0
 17 30  1  0
 18 31  1  0
 19 32  1  0
 20 33  1  0
 21 34  1  0
M  ISO  8  22  14  23  14  24  14  25  14  26  14  27  14  28  14  29  14
M  ISO  5  30  14  31  14  32  14  33  14  34  14
M  END
>  <minimizedAffinity>  (1) 
-5.90087128

>  <minimizedRMSD>  (1) 
6.01377201

$$$$
