
     RDKit          3D

 41 45  0  0  1  0  0  0  0  0999 V2000
   37.9750   30.0410   39.1730 N   0  0  0  0  0  0  0  0  0  0  0  0
   37.7950   29.1390   38.0000 C   0  0  0  0  0  0  0  0  0  0  0  0
   39.0250   28.3230   37.7470 C   0  0  0  0  0  0  0  0  0  0  0  0
   40.1810   29.1040   37.8770 O   0  0  0  0  0  0  0  0  0  0  0  0
   39.8310   30.4080   37.6390 C   0  0  0  0  0  0  0  0  0  0  0  0
   38.9350   30.9820   38.7700 C   0  0  2  0  0  0  0  0  0  0  0  0
   39.8770   31.4910   39.7180 N   0  0  0  0  0  0  0  0  0  0  0  0
   40.2590   30.7430   40.7950 C   0  0  0  0  0  0  0  0  0  0  0  0
   41.1730   31.3830   41.5770 N   0  0  0  0  0  0  0  0  0  0  0  0
   41.3750   32.5680   40.9790 C   0  0  0  0  0  0  0  0  0  0  0  0
   42.1560   33.7080   41.2050 C   0  0  0  0  0  0  0  0  0  0  0  0
   42.1240   34.7710   40.3730 N   0  0  0  0  0  0  0  0  0  0  0  0
   41.3360   34.7800   39.2870 C   0  0  0  0  0  0  0  0  0  0  0  0
   40.5830   33.6910   39.0600 N   0  0  0  0  0  0  0  0  0  0  0  0
   40.5950   32.6180   39.8720 C   0  0  0  0  0  0  0  0  0  0  0  0
   35.9530   29.9380   40.7860 C   0  0  1  0  0  0  0  0  0  0  0  0
   36.4310   31.3350   40.7660 C   0  0  0  0  0  0  0  0  0  0  0  0
   36.7120   30.5230   39.5760 C   0  0  1  0  0  0  0  0  0  0  0  0
   38.1530   28.6840   43.4460 C   0  0  0  0  0  0  0  0  0  0  0  0
   38.0720   27.2860   43.3010 C   0  0  0  0  0  0  0  0  0  0  0  0
   37.2540   26.7990   42.2640 C   0  0  0  0  0  0  0  0  0  0  0  0
   36.5780   27.6970   41.4490 N   0  0  0  0  0  0  0  0  0  0  0  0
   36.7120   29.0100   41.6560 C   0  0  0  0  0  0  0  0  0  0  0  0
   37.4880   29.5110   42.6410 N   0  0  0  0  0  0  0  0  0  0  0  0
   36.9499   28.4623   38.1947 H   0  0  0  0  0  0  0  0  0  0  0  0
   37.6009   29.7587   37.1122 H   0  0  0  0  0  0  0  0  0  0  0  0
   38.9810   27.9125   36.7274 H   0  0  0  0  0  0  0  0  0  0  0  0
   39.0654   27.5109   38.4879 H   0  0  0  0  0  0  0  0  0  0  0  0
   40.7459   31.0145   37.5675 H   0  0  0  0  0  0  0  0  0  0  0  0
   39.2589   30.4418   36.7001 H   0  0  0  0  0  0  0  0  0  0  0  0
   38.2656   31.8123   38.5009 H   0  0  0  0  0  0  0  0  0  0  0  0
   39.8717   29.7356   41.0075 H   0  0  0  0  0  0  0  0  0  0  0  0
   42.8145   33.7385   42.0856 H   0  0  0  0  0  0  0  0  0  0  0  0
   41.3077   35.6456   38.6088 H   0  0  0  0  0  0  0  0  0  0  0  0
   34.9889   29.4308   40.9386 H   0  0  0  0  0  0  0  0  0  0  0  0
   35.7012   32.1555   40.7009 H   0  0  0  0  0  0  0  0  0  0  0  0
   37.0604   31.9309   41.4433 H   0  0  0  0  0  0  0  0  0  0  0  0
   36.5374   30.6608   38.4987 H   0  0  0  0  0  0  0  0  0  0  0  0
   38.7818   29.1042   44.2448 H   0  0  0  0  0  0  0  0  0  0  0  0
   38.6225   26.6056   43.9673 H   0  0  0  0  0  0  0  0  0  0  0  0
   37.1513   25.7160   42.1008 H   0  0  0  0  0  0  0  0  0  0  0  0
  1  2  1  0
  1 18  1  0
  3  4  1  0
  3  2  1  0
  5  4  1  0
  5  6  1  0
  6  1  1  0
  6  7  1  0
  7 15  1  0
  7  8  1  0
  8  9  2  0
 10 11  2  0
 10  9  1  0
 12 11  1  0
 13 12  2  0
 14 13  1  0
 14 15  2  0
 15 10  1  0
 16 23  1  0
 17 16  1  0
 18 17  1  0
 18 16  1  0
 20 19  2  0
 21 20  1  0
 22 23  1  0
 22 21  2  0
 23 24  2  0
 24 19  1  0
  2 25  1  0
  2 26  1  0
  3 27  1  0
  3 28  1  0
  5 29  1  0
  5 30  1  0
  6 31  1  6
  8 32  1  0
 11 33  1  0
 13 34  1  0
 16 35  1  6
 17 36  1  0
 17 37  1  0
 18 38  1  6
 19 39  1  0
 20 40  1  0
 21 41  1  0
M  ISO  8  25  13  26  13  27  13  28  13  29  13  30  13  31  13  32  14
M  ISO  8  33  14  34  14  35  13  36  13  37  13  38  13  39  14  40  14
M  ISO  1  41  14
M  END
>  <minimizedAffinity>  (1) 
-5.28446341

>  <minimizedRMSD>  (1) 
1.96844268

$$$$
