
     RDKit          3D

 51 56  0  0  0  0  0  0  0  0999 V2000
   38.6230   28.1690   42.6830 C   0  0  0  0  0  0  0  0  0  0  0  0
   37.5730   27.2880   42.7370 C   0  0  0  0  0  0  0  0  0  0  0  0
   36.4920   27.9240   42.1230 C   0  0  0  0  0  0  0  0  0  0  0  0
   36.9710   29.1170   41.7540 N   0  0  0  0  0  0  0  0  0  0  0  0
   38.2130   29.2980   42.0640 N   0  0  0  0  0  0  0  0  0  0  0  0
   41.5950   26.5590   44.2600 C   0  0  0  0  0  0  0  0  0  0  0  0
   40.2930   26.7250   43.7710 C   0  0  0  0  0  0  0  0  0  0  0  0
   39.9640   27.9580   43.1950 C   0  0  0  0  0  0  0  0  0  0  0  0
   40.8930   28.9340   43.1280 N   0  0  0  0  0  0  0  0  0  0  0  0
   42.1480   28.7360   43.6140 C   0  0  0  0  0  0  0  0  0  0  0  0
   42.4900   27.5570   44.1740 N   0  0  0  0  0  0  0  0  0  0  0  0
   42.9830   29.8820   43.4530 N   0  0  0  0  0  0  0  0  0  0  0  0
   43.1380   30.4930   42.2490 C   0  0  0  0  0  0  0  0  0  0  0  0
   43.9750   31.5640   42.3150 N   0  0  0  0  0  0  0  0  0  0  0  0
   44.3620   31.6250   43.6160 C   0  0  0  0  0  0  0  0  0  0  0  0
   45.1790   32.4260   44.3920 C   0  0  0  0  0  0  0  0  0  0  0  0
   45.3570   32.2120   45.7000 N   0  0  0  0  0  0  0  0  0  0  0  0
   44.7400   31.1900   46.3370 C   0  0  0  0  0  0  0  0  0  0  0  0
   43.9220   30.3660   45.6260 N   0  0  0  0  0  0  0  0  0  0  0  0
   43.7500   30.5940   44.3000 C   0  0  0  0  0  0  0  0  0  0  0  0
   36.1090   30.0360   41.0910 C   0  0  0  0  0  0  0  0  0  0  0  0
   35.2330   29.4520   40.0280 C   0  0  0  0  0  0  0  0  0  0  0  0
   35.8500   29.3870   38.6890 C   0  0  0  0  0  0  0  0  0  0  0  0
   37.1770   29.5140   38.3730 C   0  0  0  0  0  0  0  0  0  0  0  0
   37.7040   29.5120   37.1130 C   0  0  0  0  0  0  0  0  0  0  0  0
   36.8630   29.3720   36.0290 C   0  0  0  0  0  0  0  0  0  0  0  0
   35.5050   29.2370   36.2800 C   0  0  0  0  0  0  0  0  0  0  0  0
   34.7260   29.1030   35.1520 C   0  0  0  0  0  0  0  0  0  0  0  0
   33.3860   28.9620   35.3030 C   0  0  0  0  0  0  0  0  0  0  0  0
   32.8220   28.9530   36.5570 C   0  0  0  0  0  0  0  0  0  0  0  0
   33.6600   29.0910   37.6360 C   0  0  0  0  0  0  0  0  0  0  0  0
   35.0060   29.2420   37.5710 C   0  0  0  0  0  0  0  0  0  0  0  0
   33.0380   29.0610   38.8770 O   0  0  0  0  0  0  0  0  0  0  0  0
   37.5809   26.2799   43.1770 H   0  0  0  0  0  0  0  0  0  0  0  0
   35.4749   27.5318   41.9759 H   0  0  0  0  0  0  0  0  0  0  0  0
   41.8872   25.6028   44.7186 H   0  0  0  0  0  0  0  0  0  0  0  0
   39.5534   25.9135   43.8373 H   0  0  0  0  0  0  0  0  0  0  0  0
   42.6427   30.1594   41.3252 H   0  0  0  0  0  0  0  0  0  0  0  0
   45.7012   33.2694   43.9166 H   0  0  0  0  0  0  0  0  0  0  0  0
   44.8970   31.0273   47.4135 H   0  0  0  0  0  0  0  0  0  0  0  0
   35.4589   30.4970   41.8492 H   0  0  0  0  0  0  0  0  0  0  0  0
   36.7697   30.7495   40.5768 H   0  0  0  0  0  0  0  0  0  0  0  0
   34.9618   28.4298   40.3305 H   0  0  0  0  0  0  0  0  0  0  0  0
   34.3644   30.1209   39.9383 H   0  0  0  0  0  0  0  0  0  0  0  0
   37.8818   29.6279   39.2098 H   0  0  0  0  0  0  0  0  0  0  0  0
   38.7884   29.6210   36.9643 H   0  0  0  0  0  0  0  0  0  0  0  0
   37.2551   29.3675   35.0013 H   0  0  0  0  0  0  0  0  0  0  0  0
   35.1811   29.1102   34.1506 H   0  0  0  0  0  0  0  0  0  0  0  0
   32.7451   28.8540   34.4155 H   0  0  0  0  0  0  0  0  0  0  0  0
   31.7362   28.8391   36.6913 H   0  0  0  0  0  0  0  0  0  0  0  0
   33.5761   29.1543   39.7028 H   0  0  0  0  0  0  0  0  0  0  0  0
  1  2  1  0
  1  8  1  0
  3  2  2  0
  4  5  1  0
  4  3  1  0
  5  1  2  0
  7  6  2  0
  8  7  1  0
  9  8  2  0
  9 10  1  0
 10 11  2  0
 11  6  1  0
 12 10  1  0
 12 20  1  0
 13 14  2  0
 13 12  1  0
 14 15  1  0
 15 20  2  0
 15 16  1  0
 16 17  2  0
 17 18  1  0
 19 18  2  0
 20 19  1  0
 21  4  1  0
 22 21  1  0
 23 22  1  0
 24 23  2  0
 25 24  1  0
 26 27  1  0
 26 25  2  0
 27 32  2  0
 28 29  2  0
 28 27  1  0
 29 30  1  0
 30 31  2  0
 31 33  1  0
 32 31  1  0
 32 23  1  0
  2 34  1  0
  3 35  1  0
  6 36  1  0
  7 37  1  0
 13 38  1  0
 16 39  1  0
 18 40  1  0
 21 41  1  0
 21 42  1  0
 22 43  1  0
 22 44  1  0
 24 45  1  0
 25 46  1  0
 26 47  1  0
 28 48  1  0
 29 49  1  0
 30 50  1  0
 33 51  1  0
M  ISO  8  34  14  35  14  36  14  37  14  38  14  39  14  40  14  41   8
M  ISO  8  42   8  43   8  44   8  45  14  46  14  47  14  48  14  49  14
M  ISO  2  50  14  51   3
M  END
>  <minimizedAffinity>  (1) 
-6.87866497

>  <minimizedRMSD>  (1) 
0.564983904

$$$$
