
     RDKit          3D

 30 31  0  0  1  0  0  0  0  0999 V2000
   37.4580   28.9040   43.9300 N   0  0  0  0  0  0  0  0  0  0  0  0
   36.4290   27.9190   43.9840 C   0  0  0  0  0  0  0  0  0  0  0  0
   36.7760   26.6920   43.1290 C   0  0  0  0  0  0  0  0  0  0  0  0
   36.9940   27.2820   41.7310 C   0  0  1  0  0  0  0  0  0  0  0  0
   38.2840   28.0740   41.8130 C   0  0  0  0  0  0  0  0  0  0  0  0
   37.9310   29.3030   42.6440 C   0  0  2  0  0  0  0  0  0  0  0  0
   39.2790   30.4570   42.7970 S   0  0  0  0  0  0  0  0  0  0  0  0
   37.0170   26.3100   40.8000 O   0  0  0  0  0  0  0  0  0  0  0  0
   36.5090   26.2940   39.5210 C   0  0  0  0  0  0  0  0  0  0  0  0
   36.1430   25.2220   39.0460 O   0  0  0  0  0  0  0  0  0  0  0  0
   36.4190   27.5560   38.7660 C   0  0  0  0  0  0  0  0  0  0  0  0
   35.1670   27.9320   38.3710 C   0  0  0  0  0  0  0  0  0  0  0  0
   35.0410   29.1870   37.7280 C   0  0  0  0  0  0  0  0  0  0  0  0
   36.1840   29.9370   37.5470 N   0  0  0  0  0  0  0  0  0  0  0  0
   37.3810   29.4920   37.9710 C   0  0  0  0  0  0  0  0  0  0  0  0
   37.5190   28.2770   38.5970 N   0  0  0  0  0  0  0  0  0  0  0  0
   38.8210   30.5060   37.6960 S   0  0  0  0  0  0  0  0  0  0  0  0
   37.1008   29.7474   44.4011 H   0  0  0  0  0  0  0  0  0  0  0  0
   36.2945   27.6001   45.0281 H   0  0  0  0  0  0  0  0  0  0  0  0
   35.5049   28.3647   43.5873 H   0  0  0  0  0  0  0  0  0  0  0  0
   37.6899   26.2023   43.4963 H   0  0  0  0  0  0  0  0  0  0  0  0
   35.9941   25.9186   43.1511 H   0  0  0  0  0  0  0  0  0  0  0  0
   36.1721   27.9438   41.4203 H   0  0  0  0  0  0  0  0  0  0  0  0
   39.0705   27.4845   42.3069 H   0  0  0  0  0  0  0  0  0  0  0  0
   38.6726   28.3410   40.8191 H   0  0  0  0  0  0  0  0  0  0  0  0
   37.1323   29.8350   42.1065 H   0  0  0  0  0  0  0  0  0  0  0  0
   39.5403   30.6807   44.1231 H   0  0  0  0  0  0  0  0  0  0  0  0
   34.2932   27.2869   38.5451 H   0  0  0  0  0  0  0  0  0  0  0  0
   34.0622   29.5523   37.3836 H   0  0  0  0  0  0  0  0  0  0  0  0
   39.3528   30.8805   38.9017 H   0  0  0  0  0  0  0  0  0  0  0  0
  1  2  1  0
  3  2  1  0
  4  5  1  0
  4  3  1  0
  5  6  1  0
  6  7  1  0
  6  1  1  0
  8  4  1  0
  9  8  1  0
 10  9  2  0
 11  9  1  0
 12 11  2  0
 13 12  1  0
 14 13  2  0
 14 15  1  0
 15 16  2  0
 16 11  1  0
 17 15  1  0
  1 18  1  0
  2 19  1  0
  2 20  1  0
  3 21  1  0
  3 22  1  0
  4 23  1  6
  5 24  1  0
  5 25  1  0
  6 26  1  6
  7 27  1  0
 12 28  1  0
 13 29  1  0
 17 30  1  0
M  ISO  8  18   5  19  13  20  13  21  13  22  13  23  13  24  13  25  13
M  ISO  5  26  13  27  11  28  14  29  14  30  11
M  END
>  <minimizedAffinity>  (1) 
-3.83809543

>  <minimizedRMSD>  (1) 
1.15683031

$$$$
