
     RDKit          3D

 17 18  0  0  0  0  0  0  0  0999 V2000
   38.6420   28.8130   43.1310 C   0  0  0  0  0  0  0  0  0  0  0  0
   38.0810   27.5460   43.3440 C   0  0  0  0  0  0  0  0  0  0  0  0
   36.8500   27.2680   42.6930 C   0  0  0  0  0  0  0  0  0  0  0  0
   36.2990   28.2430   41.9130 N   0  0  0  0  0  0  0  0  0  0  0  0
   36.8820   29.4260   41.7520 C   0  0  0  0  0  0  0  0  0  0  0  0
   38.0520   29.7200   42.3570 N   0  0  0  0  0  0  0  0  0  0  0  0
   36.1200   30.2190   40.9200 O   0  0  0  0  0  0  0  0  0  0  0  0
   36.7390   31.2360   40.1770 C   0  0  0  0  0  0  0  0  0  0  0  0
   36.8630   31.3830   38.8400 N   0  0  0  0  0  0  0  0  0  0  0  0
   37.5240   32.4970   38.5960 O   0  0  0  0  0  0  0  0  0  0  0  0
   37.8140   33.0460   39.7630 C   0  0  0  0  0  0  0  0  0  0  0  0
   37.3390   32.2860   40.7640 N   0  0  0  0  0  0  0  0  0  0  0  0
   38.7000   34.5710   40.1570 S   0  0  0  0  0  0  0  0  0  0  0  0
   39.5962   29.0641   43.6172 H   0  0  0  0  0  0  0  0  0  0  0  0
   38.5724   26.8006   43.9866 H   0  0  0  0  0  0  0  0  0  0  0  0
   36.3541   26.2936   42.8141 H   0  0  0  0  0  0  0  0  0  0  0  0
   38.7824   34.7129   41.5171 H   0  0  0  0  0  0  0  0  0  0  0  0
  1  2  2  0
  3  2  1  0
  4  3  2  0
  5  4  1  0
  5  6  2  0
  6  1  1  0
  7  5  1  0
  8 12  1  0
  8  7  1  0
  9  8  2  0
 10  9  1  0
 10 11  1  0
 11 13  1  0
 11 12  2  0
  1 14  1  0
  2 15  1  0
  3 16  1  0
 13 17  1  0
M  ISO  4  14  14  15  14  16  14  17  11
M  END
>  <minimizedAffinity>  (1) 
-3.98067379

>  <minimizedRMSD>  (1) 
0.607122183

$$$$
