
     RDKit          3D

 31 33  0  0  0  0  0  0  0  0999 V2000
   39.9140   32.8220   40.8920 C   0  0  0  0  0  0  0  0  0  0  0  0
   39.6620   31.5080   41.0410 O   0  0  0  0  0  0  0  0  0  0  0  0
   39.5280   30.7810   42.2070 C   0  0  0  0  0  0  0  0  0  0  0  0
   40.2770   31.0490   43.1380 O   0  0  0  0  0  0  0  0  0  0  0  0
   37.6550   29.5770   41.0580 C   0  0  0  0  0  0  0  0  0  0  0  0
   38.4730   29.7500   42.1760 C   0  0  0  0  0  0  0  0  0  0  0  0
   38.3260   28.9670   43.2990 C   0  0  0  0  0  0  0  0  0  0  0  0
   37.3360   28.0280   43.2270 N   0  0  0  0  0  0  0  0  0  0  0  0
   36.5490   27.8550   42.1600 C   0  0  0  0  0  0  0  0  0  0  0  0
   36.7010   28.6370   41.0520 N   0  0  0  0  0  0  0  0  0  0  0  0
   39.5400   33.2070   39.1200 S   0  0  0  0  0  0  0  0  0  0  0  0
   40.9490   32.6990   38.1090 C   0  0  0  0  0  0  0  0  0  0  0  0
   42.0020   33.4670   37.6310 C   0  0  0  0  0  0  0  0  0  0  0  0
   42.8150   32.6540   36.9180 N   0  0  0  0  0  0  0  0  0  0  0  0
   42.2910   31.3980   36.9410 C   0  0  0  0  0  0  0  0  0  0  0  0
   42.7100   30.2060   36.3840 C   0  0  0  0  0  0  0  0  0  0  0  0
   42.0050   29.0200   36.5380 C   0  0  0  0  0  0  0  0  0  0  0  0
   40.8220   29.0270   37.2870 C   0  0  0  0  0  0  0  0  0  0  0  0
   40.4310   30.2320   37.8320 C   0  0  0  0  0  0  0  0  0  0  0  0
   41.1230   31.3970   37.6810 C   0  0  0  0  0  0  0  0  0  0  0  0
   39.2685   33.4141   41.5575 H   0  0  0  0  0  0  0  0  0  0  0  0
   40.9550   33.0672   41.1495 H   0  0  0  0  0  0  0  0  0  0  0  0
   37.7951   30.2178   40.1750 H   0  0  0  0  0  0  0  0  0  0  0  0
   38.9598   29.0886   44.1898 H   0  0  0  0  0  0  0  0  0  0  0  0
   35.7726   27.0759   42.1754 H   0  0  0  0  0  0  0  0  0  0  0  0
   42.1490   34.5437   37.8014 H   0  0  0  0  0  0  0  0  0  0  0  0
   43.6821   32.9371   36.4396 H   0  0  0  0  0  0  0  0  0  0  0  0
   43.6390   30.1957   35.7951 H   0  0  0  0  0  0  0  0  0  0  0  0
   42.3700   28.0894   36.0788 H   0  0  0  0  0  0  0  0  0  0  0  0
   40.2304   28.1114   37.4343 H   0  0  0  0  0  0  0  0  0  0  0  0
   39.5045   30.2546   38.4245 H   0  0  0  0  0  0  0  0  0  0  0  0
  1  2  1  0
  2  3  1  0
  3  4  2  0
  5  6  2  0
  6  3  1  0
  6  7  1  0
  8  7  2  0
  9  8  1  0
 10  5  1  0
 10  9  2  0
 11  1  1  0
 12 11  1  0
 13 12  2  0
 14 15  1  0
 14 13  1  0
 15 20  2  0
 16 17  2  0
 16 15  1  0
 17 18  1  0
 18 19  2  0
 20 19  1  0
 20 12  1  0
  1 21  1  0
  1 22  1  0
  5 23  1  0
  7 24  1  0
  9 25  1  0
 13 26  1  0
 14 27  1  0
 16 28  1  0
 17 29  1  0
 18 30  1  0
 19 31  1  0
M  ISO  8  21   8  22   8  23  14  24  14  25  14  26  14  27   9  28  14
M  ISO  3  29  14  30  14  31  14
M  END
>  <minimizedAffinity>  (1) 
-4.13877773

>  <minimizedRMSD>  (1) 
6.17475224

$$$$
