
     RDKit          3D

 40 43  0  0  0  0  0  0  0  0999 V2000
   39.5090   27.9010   43.3710 C   0  0  0  0  0  0  0  0  0  0  0  0
   38.7820   26.6750   43.4080 C   0  0  0  0  0  0  0  0  0  0  0  0
   37.8320   26.4940   42.4150 C   0  0  0  0  0  0  0  0  0  0  0  0
   37.6370   27.4420   41.4890 N   0  0  0  0  0  0  0  0  0  0  0  0
   38.3350   28.5900   41.4730 C   0  0  0  0  0  0  0  0  0  0  0  0
   39.2740   28.8240   42.4130 N   0  0  0  0  0  0  0  0  0  0  0  0
   37.0500   25.3480   42.3410 N   0  0  0  0  0  0  0  0  0  0  0  0
   38.1510   29.6280   40.5010 N   0  0  0  0  0  0  0  0  0  0  0  0
   37.3260   29.3220   39.4720 C   0  0  0  0  0  0  0  0  0  0  0  0
   37.0270   30.1820   38.4430 C   0  0  0  0  0  0  0  0  0  0  0  0
   37.6140   31.4270   38.4830 C   0  0  0  0  0  0  0  0  0  0  0  0
   37.3870   32.2690   37.5740 O   0  0  0  0  0  0  0  0  0  0  0  0
   38.4220   31.6990   39.5080 N   0  0  0  0  0  0  0  0  0  0  0  0
   38.7010   30.8380   40.5070 C   0  0  0  0  0  0  0  0  0  0  0  0
   39.4590   31.0880   41.4740 O   0  0  0  0  0  0  0  0  0  0  0  0
   39.0700   32.9700   39.6160 C   0  0  0  0  0  0  0  0  0  0  0  0
   38.3980   34.0030   40.2160 C   0  0  0  0  0  0  0  0  0  0  0  0
   39.0230   35.2270   40.3200 C   0  0  0  0  0  0  0  0  0  0  0  0
   40.2980   35.3580   39.8180 C   0  0  0  0  0  0  0  0  0  0  0  0
   40.9880   34.3290   39.2130 C   0  0  0  0  0  0  0  0  0  0  0  0
   40.3570   33.1020   39.1090 C   0  0  0  0  0  0  0  0  0  0  0  0
   36.1280   29.7750   37.3240 C   0  0  0  0  0  0  0  0  0  0  0  0
   36.7370   28.5040   36.7860 C   0  0  0  0  0  0  0  0  0  0  0  0
   37.9440   28.3630   36.1760 N   0  0  0  0  0  0  0  0  0  0  0  0
   38.1080   27.1110   35.8530 O   0  0  0  0  0  0  0  0  0  0  0  0
   37.0830   26.3900   36.2070 C   0  0  0  0  0  0  0  0  0  0  0  0
   36.2390   27.2570   36.7830 N   0  0  0  0  0  0  0  0  0  0  0  0
   40.2745   28.0987   44.1358 H   0  0  0  0  0  0  0  0  0  0  0  0
   38.9649   25.9149   44.1818 H   0  0  0  0  0  0  0  0  0  0  0  0
   36.3535   25.2475   41.5889 H   0  0  0  0  0  0  0  0  0  0  0  0
   37.1668   24.5989   43.0382 H   0  0  0  0  0  0  0  0  0  0  0  0
   36.8665   28.3227   39.4590 H   0  0  0  0  0  0  0  0  0  0  0  0
   37.3800   33.8580   40.6068 H   0  0  0  0  0  0  0  0  0  0  0  0
   38.5145   36.0798   40.7934 H   0  0  0  0  0  0  0  0  0  0  0  0
   40.7931   36.3365   39.9042 H   0  0  0  0  0  0  0  0  0  0  0  0
   42.0066   34.4786   38.8257 H   0  0  0  0  0  0  0  0  0  0  0  0
   40.8637   32.2486   38.6347 H   0  0  0  0  0  0  0  0  0  0  0  0
   35.1083   29.5905   37.6931 H   0  0  0  0  0  0  0  0  0  0  0  0
   36.0441   30.5550   36.5529 H   0  0  0  0  0  0  0  0  0  0  0  0
   36.9413   25.3085   36.0647 H   0  0  0  0  0  0  0  0  0  0  0  0
  1  2  2  0
  3  2  1  0
  4  3  2  0
  5  4  1  0
  5  6  2  0
  6  1  1  0
  7  3  1  0
  8 14  1  0
  8  5  1  0
  9  8  1  0
 10 11  1  0
 10  9  2  0
 11 13  1  0
 12 11  2  0
 13 16  1  0
 13 14  1  0
 14 15  2  0
 16 17  2  0
 17 18  1  0
 19 18  2  0
 20 19  1  0
 21 20  2  0
 21 16  1  0
 22 10  1  0
 23 22  1  0
 24 23  2  0
 25 24  1  0
 25 26  1  0
 26 27  2  0
 27 23  1  0
  1 28  1  0
  2 29  1  0
  7 30  1  0
  7 31  1  0
  9 32  1  0
 17 33  1  0
 18 34  1  0
 19 35  1  0
 20 36  1  0
 21 37  1  0
 22 38  1  0
 22 39  1  0
 26 40  1  0
M  ISO  8  28  14  29  14  32  14  33  14  34  14  35  14  36  14  37  14
M  ISO  3  38   8  39   8  40  14
M  END
>  <minimizedAffinity>  (1) 
-6.15237761

>  <minimizedRMSD>  (1) 
1.04793155

$$$$
