
     RDKit          3D

 24 26  0  0  0  0  0  0  0  0999 V2000
   38.5500   28.0280   42.5450 N   0  0  0  0  0  0  0  0  0  0  0  0
   38.4450   26.9160   43.3080 C   0  0  0  0  0  0  0  0  0  0  0  0
   39.6970   26.7620   43.8540 C   0  0  0  0  0  0  0  0  0  0  0  0
   40.5380   27.7560   43.4340 N   0  0  0  0  0  0  0  0  0  0  0  0
   39.7880   28.5150   42.6270 C   0  0  0  0  0  0  0  0  0  0  0  0
   37.1190   29.9170   41.8940 C   0  0  0  0  0  0  0  0  0  0  0  0
   37.5130   28.5780   41.7860 C   0  0  0  0  0  0  0  0  0  0  0  0
   36.8140   27.7580   40.8540 C   0  0  0  0  0  0  0  0  0  0  0  0
   35.8180   28.2980   40.1280 N   0  0  0  0  0  0  0  0  0  0  0  0
   35.4570   29.6180   40.2600 C   0  0  0  0  0  0  0  0  0  0  0  0
   36.1110   30.4290   41.1470 N   0  0  0  0  0  0  0  0  0  0  0  0
   40.4570   29.6800   42.0150 C   0  0  0  0  0  0  0  0  0  0  0  0
   41.0680   30.7590   42.6370 C   0  0  0  0  0  0  0  0  0  0  0  0
   41.6210   31.7200   41.8670 C   0  0  0  0  0  0  0  0  0  0  0  0
   41.5770   31.6260   40.4790 C   0  0  0  0  0  0  0  0  0  0  0  0
   40.6670   30.0280   40.1600 S   0  0  0  0  0  0  0  0  0  0  0  0
   37.5599   26.2802   43.4574 H   0  0  0  0  0  0  0  0  0  0  0  0
   39.9842   25.9488   44.5369 H   0  0  0  0  0  0  0  0  0  0  0  0
   37.6427   30.5723   42.6056 H   0  0  0  0  0  0  0  0  0  0  0  0
   37.0845   26.6990   40.7297 H   0  0  0  0  0  0  0  0  0  0  0  0
   34.6376   30.0245   39.6490 H   0  0  0  0  0  0  0  0  0  0  0  0
   41.1012   30.8300   43.7342 H   0  0  0  0  0  0  0  0  0  0  0  0
   42.1102   32.5841   42.3402 H   0  0  0  0  0  0  0  0  0  0  0  0
   41.9848   32.3314   39.7400 H   0  0  0  0  0  0  0  0  0  0  0  0
  1  5  1  0
  1  2  1  0
  2  3  2  0
  4  3  1  0
  5  4  2  0
  7  6  2  0
  7  1  1  0
  8  7  1  0
  9 10  1  0
  9  8  2  0
 10 11  2  0
 11  6  1  0
 12  5  1  0
 12 13  2  0
 14 13  1  0
 15 14  2  0
 16 15  1  0
 16 12  1  0
  2 17  1  0
  3 18  1  0
  6 19  1  0
  8 20  1  0
 10 21  1  0
 13 22  1  0
 14 23  1  0
 15 24  1  0
M  ISO  8  17  14  18  14  19  14  20  14  21  14  22  14  23  14  24  14
M  END
>  <minimizedAffinity>  (1) 
-3.80952334

>  <minimizedRMSD>  (1) 
0.847861886

$$$$
