
     RDKit          3D

 35 38  0  0  0  0  0  0  0  0999 V2000
   37.6300   28.1960   41.4350 C   0  0  0  0  0  0  0  0  0  0  0  0
   36.3740   27.9350   40.8770 C   0  0  0  0  0  0  0  0  0  0  0  0
   35.9210   29.0940   40.3700 N   0  0  0  0  0  0  0  0  0  0  0  0
   36.7980   30.0900   40.5620 C   0  0  0  0  0  0  0  0  0  0  0  0
   36.7090   31.4150   40.1960 C   0  0  0  0  0  0  0  0  0  0  0  0
   37.7820   32.2340   40.5270 C   0  0  0  0  0  0  0  0  0  0  0  0
   38.8990   31.7230   41.2050 C   0  0  0  0  0  0  0  0  0  0  0  0
   38.9720   30.4000   41.5640 C   0  0  0  0  0  0  0  0  0  0  0  0
   37.8970   29.5580   41.2360 C   0  0  0  0  0  0  0  0  0  0  0  0
   39.6330   26.6160   44.0530 C   0  0  0  0  0  0  0  0  0  0  0  0
   40.1750   25.4730   43.3820 C   0  0  0  0  0  0  0  0  0  0  0  0
   39.8330   25.2730   42.0310 C   0  0  0  0  0  0  0  0  0  0  0  0
   39.0130   26.1720   41.4460 N   0  0  0  0  0  0  0  0  0  0  0  0
   38.5150   27.2460   42.1050 C   0  0  0  0  0  0  0  0  0  0  0  0
   38.8210   27.4690   43.4010 N   0  0  0  0  0  0  0  0  0  0  0  0
   34.6400   29.1440   39.7230 C   0  0  0  0  0  0  0  0  0  0  0  0
   34.6240   28.4770   38.3630 C   0  0  0  0  0  0  0  0  0  0  0  0
   33.4080   29.0080   37.6500 C   0  0  0  0  0  0  0  0  0  0  0  0
   32.2420   29.4520   38.1320 N   0  0  0  0  0  0  0  0  0  0  0  0
   31.4780   29.8160   37.1350 O   0  0  0  0  0  0  0  0  0  0  0  0
   32.0770   29.6380   35.9900 C   0  0  0  0  0  0  0  0  0  0  0  0
   33.2930   29.1290   36.2960 N   0  0  0  0  0  0  0  0  0  0  0  0
   35.8556   26.9650   40.8571 H   0  0  0  0  0  0  0  0  0  0  0  0
   35.8286   31.8071   39.6658 H   0  0  0  0  0  0  0  0  0  0  0  0
   37.7551   33.2991   40.2532 H   0  0  0  0  0  0  0  0  0  0  0  0
   39.7329   32.3959   41.4539 H   0  0  0  0  0  0  0  0  0  0  0  0
   39.8517   30.0087   42.0960 H   0  0  0  0  0  0  0  0  0  0  0  0
   39.8820   26.7983   45.1088 H   0  0  0  0  0  0  0  0  0  0  0  0
   40.8396   24.7712   43.9071 H   0  0  0  0  0  0  0  0  0  0  0  0
   40.2219   24.4108   41.4694 H   0  0  0  0  0  0  0  0  0  0  0  0
   33.9046   28.6395   40.3670 H   0  0  0  0  0  0  0  0  0  0  0  0
   34.3979   30.2055   39.5659 H   0  0  0  0  0  0  0  0  0  0  0  0
   35.5360   28.7309   37.8028 H   0  0  0  0  0  0  0  0  0  0  0  0
   34.5894   27.3813   38.4538 H   0  0  0  0  0  0  0  0  0  0  0  0
   31.6783   29.8555   34.9881 H   0  0  0  0  0  0  0  0  0  0  0  0
  1 14  1  0
  2  1  2  0
  3  4  1  0
  3  2  1  0
  4  9  2  0
  5  6  2  0
  5  4  1  0
  6  7  1  0
  7  8  2  0
  9  1  1  0
  9  8  1  0
 11 10  2  0
 12 11  1  0
 13 12  2  0
 13 14  1  0
 14 15  2  0
 15 10  1  0
 16  3  1  0
 17 16  1  0
 18 19  2  0
 18 17  1  0
 20 19  1  0
 21 22  2  0
 21 20  1  0
 22 18  1  0
  2 23  1  0
  5 24  1  0
  6 25  1  0
  7 26  1  0
  8 27  1  0
 10 28  1  0
 11 29  1  0
 12 30  1  0
 16 31  1  0
 16 32  1  0
 17 33  1  0
 17 34  1  0
 21 35  1  0
M  ISO  8  23  14  24  14  25  14  26  14  27  14  28  14  29  14  30  14
M  ISO  5  31   8  32   8  33   8  34   8  35  14
M  END
>  <minimizedAffinity>  (1) 
-4.74452066

>  <minimizedRMSD>  (1) 
0.554792404

$$$$
