
     RDKit          3D

 43 45  0  0  0  0  0  0  0  0999 V2000
   36.1380   29.1330   41.2120 C   0  0  0  0  0  0  0  0  0  0  0  0
   37.1350   28.9310   42.2870 C   0  0  0  0  0  0  0  0  0  0  0  0
   36.6130   27.7410   43.1080 C   0  0  0  0  0  0  0  0  0  0  0  0
   37.5630   27.5930   44.2970 C   0  0  0  0  0  0  0  0  0  0  0  0
   38.8630   27.0600   43.7010 C   0  0  0  0  0  0  0  0  0  0  0  0
   39.4210   28.1830   42.8710 C   0  0  0  0  0  0  0  0  0  0  0  0
   38.5060   28.5990   41.7670 C   0  0  0  0  0  0  0  0  0  0  0  0
   37.1630   32.2600   39.5970 C   0  0  0  0  0  0  0  0  0  0  0  0
   37.2200   31.8940   38.2630 C   0  0  0  0  0  0  0  0  0  0  0  0
   36.9200   30.6020   37.8600 C   0  0  0  0  0  0  0  0  0  0  0  0
   36.5720   29.7390   38.8590 N   0  0  0  0  0  0  0  0  0  0  0  0
   36.5210   30.1070   40.1560 C   0  0  0  0  0  0  0  0  0  0  0  0
   36.8170   31.3600   40.5010 N   0  0  0  0  0  0  0  0  0  0  0  0
   36.9750   30.2480   36.5570 O   0  0  0  0  0  0  0  0  0  0  0  0
   36.3930   29.2250   35.8720 C   0  0  0  0  0  0  0  0  0  0  0  0
   36.6310   29.2270   34.3810 C   0  0  0  0  0  0  0  0  0  0  0  0
   35.6930   28.1330   33.9110 C   0  0  0  0  0  0  0  0  0  0  0  0
   34.6390   27.9790   35.0060 C   0  0  0  0  0  0  0  0  0  0  0  0
   34.8840   29.1940   35.9110 C   0  0  0  0  0  0  0  0  0  0  0  0
   35.9605   28.1613   40.7280 H   0  0  0  0  0  0  0  0  0  0  0  0
   35.2480   29.5546   41.7021 H   0  0  0  0  0  0  0  0  0  0  0  0
   37.2445   29.8584   42.8683 H   0  0  0  0  0  0  0  0  0  0  0  0
   35.5900   27.9401   43.4599 H   0  0  0  0  0  0  0  0  0  0  0  0
   36.5799   26.8218   42.5047 H   0  0  0  0  0  0  0  0  0  0  0  0
   37.7304   28.5663   44.7814 H   0  0  0  0  0  0  0  0  0  0  0  0
   37.1572   26.9224   45.0687 H   0  0  0  0  0  0  0  0  0  0  0  0
   39.5677   26.7871   44.5003 H   0  0  0  0  0  0  0  0  0  0  0  0
   38.6924   26.1558   43.0983 H   0  0  0  0  0  0  0  0  0  0  0  0
   39.5978   29.0491   43.5256 H   0  0  0  0  0  0  0  0  0  0  0  0
   40.3521   27.8219   42.4099 H   0  0  0  0  0  0  0  0  0  0  0  0
   38.4240   27.7767   41.0410 H   0  0  0  0  0  0  0  0  0  0  0  0
   38.9235   29.4989   41.2917 H   0  0  0  0  0  0  0  0  0  0  0  0
   37.4032   33.2894   39.9015 H   0  0  0  0  0  0  0  0  0  0  0  0
   37.5085   32.6417   37.5095 H   0  0  0  0  0  0  0  0  0  0  0  0
   36.8688   28.3846   36.3986 H   0  0  0  0  0  0  0  0  0  0  0  0
   36.3680   30.1978   33.9355 H   0  0  0  0  0  0  0  0  0  0  0  0
   37.6814   29.0621   34.0992 H   0  0  0  0  0  0  0  0  0  0  0  0
   35.2177   28.4196   32.9613 H   0  0  0  0  0  0  0  0  0  0  0  0
   36.2314   27.1899   33.7361 H   0  0  0  0  0  0  0  0  0  0  0  0
   33.6245   28.0029   34.5816 H   0  0  0  0  0  0  0  0  0  0  0  0
   34.7151   27.0220   35.5430 H   0  0  0  0  0  0  0  0  0  0  0  0
   34.5020   29.0319   36.9297 H   0  0  0  0  0  0  0  0  0  0  0  0
   34.3858   30.1230   35.5968 H   0  0  0  0  0  0  0  0  0  0  0  0
  1  2  1  0
  2  3  1  0
  3  4  1  0
  5  4  1  0
  6  5  1  0
  7  2  1  0
  7  6  1  0
  8 13  2  0
  9  8  1  0
 10  9  2  0
 10 11  1  0
 11 12  2  0
 12 13  1  0
 12  1  1  0
 14 10  1  0
 15 19  1  0
 15 14  1  0
 16 15  1  0
 17 16  1  0
 17 18  1  0
 18 19  1  0
  1 20  1  0
  1 21  1  0
  2 22  1  0
  3 23  1  0
  3 24  1  0
  4 25  1  0
  4 26  1  0
  5 27  1  0
  5 28  1  0
  6 29  1  0
  6 30  1  0
  7 31  1  0
  7 32  1  0
  8 33  1  0
  9 34  1  0
 15 35  1  0
 16 36  1  0
 16 37  1  0
 17 38  1  0
 17 39  1  0
 18 40  1  0
 18 41  1  0
 19 42  1  0
 19 43  1  0
M  ISO  8  20   8  21   8  22  13  23  13  24  13  25  13  26  13  27  13
M  ISO  8  28  13  29  13  30  13  31  13  32  13  33  14  34  14  35  13
M  ISO  8  36  13  37  13  38  13  39  13  40  13  41  13  42  13  43  13
M  END
>  <minimizedAffinity>  (1) 
-4.76541519

>  <minimizedRMSD>  (1) 
7.78895617

$$$$
