
     RDKit          3D

 42 46  0  0  0  0  0  0  0  0999 V2000
   39.8390   34.1330   40.2810 C   0  0  0  0  0  0  0  0  0  0  0  0
   40.4570   32.9900   40.6870 C   0  0  0  0  0  0  0  0  0  0  0  0
   39.7490   31.8170   40.8950 C   0  0  0  0  0  0  0  0  0  0  0  0
   38.4000   31.7740   40.6940 C   0  0  0  0  0  0  0  0  0  0  0  0
   37.7600   32.9060   40.2850 C   0  0  0  0  0  0  0  0  0  0  0  0
   38.4750   34.0880   40.0770 C   0  0  0  0  0  0  0  0  0  0  0  0
   37.1320   28.4280   41.0960 C   0  0  0  0  0  0  0  0  0  0  0  0
   36.0830   29.2460   41.4370 N   0  0  0  0  0  0  0  0  0  0  0  0
   36.4240   30.4900   41.3290 O   0  0  0  0  0  0  0  0  0  0  0  0
   37.6930   30.5460   40.9190 C   0  0  0  0  0  0  0  0  0  0  0  0
   38.1260   29.2770   40.7770 N   0  0  0  0  0  0  0  0  0  0  0  0
   37.0230   24.9030   42.1930 C   0  0  0  0  0  0  0  0  0  0  0  0
   36.7100   24.2670   40.9720 C   0  0  0  0  0  0  0  0  0  0  0  0
   36.5480   25.0640   39.8170 C   0  0  0  0  0  0  0  0  0  0  0  0
   36.7040   26.4170   39.9520 N   0  0  0  0  0  0  0  0  0  0  0  0
   37.0030   26.9770   41.1370 C   0  0  0  0  0  0  0  0  0  0  0  0
   37.1610   26.2200   42.2450 N   0  0  0  0  0  0  0  0  0  0  0  0
   40.7630   35.5990   39.9760 S   0  0  0  0  0  0  0  0  0  0  0  0
   41.5580   35.3650   38.7290 O   0  0  0  0  0  0  0  0  0  0  0  0
   39.7830   36.7330   39.7050 O   0  0  0  0  0  0  0  0  0  0  0  0
   41.7200   35.9800   41.3840 C   0  0  0  0  0  0  0  0  0  0  0  0
   41.4010   36.8590   42.4060 C   0  0  0  0  0  0  0  0  0  0  0  0
   42.4000   36.8840   43.3230 N   0  0  0  0  0  0  0  0  0  0  0  0
   43.3650   36.0370   42.9170 C   0  0  0  0  0  0  0  0  0  0  0  0
   44.6050   35.6310   43.4100 C   0  0  0  0  0  0  0  0  0  0  0  0
   45.3950   34.7040   42.7320 C   0  0  0  0  0  0  0  0  0  0  0  0
   44.9350   34.1780   41.5480 C   0  0  0  0  0  0  0  0  0  0  0  0
   43.7120   34.5480   41.0200 C   0  0  0  0  0  0  0  0  0  0  0  0
   42.9760   35.4630   41.7230 C   0  0  0  0  0  0  0  0  0  0  0  0
   41.5442   32.9977   40.8539 H   0  0  0  0  0  0  0  0  0  0  0  0
   40.2796   30.9118   41.2253 H   0  0  0  0  0  0  0  0  0  0  0  0
   36.6730   32.8886   40.1176 H   0  0  0  0  0  0  0  0  0  0  0  0
   37.9445   34.9933   39.7468 H   0  0  0  0  0  0  0  0  0  0  0  0
   37.1529   24.3025   43.1054 H   0  0  0  0  0  0  0  0  0  0  0  0
   36.5947   23.1742   40.9212 H   0  0  0  0  0  0  0  0  0  0  0  0
   36.3051   24.6131   38.8435 H   0  0  0  0  0  0  0  0  0  0  0  0
   40.4747   37.4493   42.4651 H   0  0  0  0  0  0  0  0  0  0  0  0
   42.4175   37.4526   44.1816 H   0  0  0  0  0  0  0  0  0  0  0  0
   44.9689   36.0532   44.3583 H   0  0  0  0  0  0  0  0  0  0  0  0
   46.3707   34.3983   43.1377 H   0  0  0  0  0  0  0  0  0  0  0  0
   45.5541   33.4461   41.0085 H   0  0  0  0  0  0  0  0  0  0  0  0
   43.3454   34.1242   40.0734 H   0  0  0  0  0  0  0  0  0  0  0  0
  1  2  2  0
  2  3  1  0
  4  3  2  0
  4 10  1  0
  5  4  1  0
  6  1  1  0
  6  5  2  0
  7 16  1  0
  7  8  2  0
  9  8  1  0
 10  9  1  0
 11 10  2  0
 11  7  1  0
 12 17  2  0
 13 12  1  0
 14 15  1  0
 14 13  2  0
 15 16  2  0
 16 17  1  0
 18  1  1  0
 18 21  1  0
 19 18  2  0
 20 18  2  0
 21 29  1  0
 21 22  2  0
 22 23  1  0
 24 23  1  0
 24 25  2  0
 26 25  1  0
 27 26  2  0
 28 27  1  0
 28 29  2  0
 29 24  1  0
  2 30  1  0
  3 31  1  0
  5 32  1  0
  6 33  1  0
 12 34  1  0
 13 35  1  0
 14 36  1  0
 22 37  1  0
 23 38  1  0
 25 39  1  0
 26 40  1  0
 27 41  1  0
 28 42  1  0
M  END
>  <minimizedAffinity>  (1) 
-7.45701599

>  <minimizedRMSD>  (1) 
1.20088696

$$$$
