
     RDKit          3D

 29 31  0  0  0  0  0  0  0  0999 V2000
   36.9700   28.3310   39.7960 C   0  0  0  0  0  0  0  0  0  0  0  0
   36.9550   27.1690   40.5350 C   0  0  0  0  0  0  0  0  0  0  0  0
   36.5940   25.9830   39.8370 C   0  0  0  0  0  0  0  0  0  0  0  0
   36.2930   26.0490   38.5260 N   0  0  0  0  0  0  0  0  0  0  0  0
   36.3200   27.1970   37.8520 C   0  0  0  0  0  0  0  0  0  0  0  0
   36.6530   28.3160   38.4830 N   0  0  0  0  0  0  0  0  0  0  0  0
   37.2470   27.0840   41.8900 N   0  0  0  0  0  0  0  0  0  0  0  0
   36.4000   27.5080   43.0140 C   0  0  0  0  0  0  0  0  0  0  0  0
   37.3660   27.8450   44.1010 C   0  0  0  0  0  0  0  0  0  0  0  0
   38.7400   27.5480   43.5400 C   0  0  0  0  0  0  0  0  0  0  0  0
   38.4080   26.5310   42.4970 C   0  0  0  0  0  0  0  0  0  0  0  0
   37.4460   29.6800   40.1940 C   0  0  0  0  0  0  0  0  0  0  0  0
   38.8340   29.8870   40.3250 C   0  0  0  0  0  0  0  0  0  0  0  0
   39.2960   31.1150   40.5910 C   0  0  0  0  0  0  0  0  0  0  0  0
   38.3950   32.1710   40.7350 C   0  0  0  0  0  0  0  0  0  0  0  0
   36.8050   31.3940   40.4830 S   0  0  0  0  0  0  0  0  0  0  0  0
   36.5610   25.0184   40.3647 H   0  0  0  0  0  0  0  0  0  0  0  0
   36.0684   27.2177   36.7813 H   0  0  0  0  0  0  0  0  0  0  0  0
   35.8007   28.3885   42.7392 H   0  0  0  0  0  0  0  0  0  0  0  0
   35.6840   26.7295   43.3161 H   0  0  0  0  0  0  0  0  0  0  0  0
   37.2840   28.9085   44.3699 H   0  0  0  0  0  0  0  0  0  0  0  0
   37.1673   27.2633   45.0132 H   0  0  0  0  0  0  0  0  0  0  0  0
   39.1985   28.4450   43.0982 H   0  0  0  0  0  0  0  0  0  0  0  0
   39.4716   27.2084   44.2879 H   0  0  0  0  0  0  0  0  0  0  0  0
   38.1923   25.5521   42.9501 H   0  0  0  0  0  0  0  0  0  0  0  0
   39.2282   26.3446   41.7881 H   0  0  0  0  0  0  0  0  0  0  0  0
   39.5328   29.0454   40.2095 H   0  0  0  0  0  0  0  0  0  0  0  0
   40.3769   31.2903   40.6952 H   0  0  0  0  0  0  0  0  0  0  0  0
   38.6113   33.2276   40.9515 H   0  0  0  0  0  0  0  0  0  0  0  0
  1 12  1  0
  1  2  1  0
  2  7  1  0
  3  2  2  0
  4  3  1  0
  5  6  1  0
  5  4  2  0
  6  1  2  0
  7 11  1  0
  7  8  1  0
  8  9  1  0
 10  9  1  0
 11 10  1  0
 12 13  2  0
 12 16  1  0
 13 14  1  0
 14 15  2  0
 16 15  1  0
  3 17  1  0
  5 18  1  0
  8 19  1  0
  8 20  1  0
  9 21  1  0
  9 22  1  0
 10 23  1  0
 10 24  1  0
 11 25  1  0
 11 26  1  0
 13 27  1  0
 14 28  1  0
 15 29  1  0
M  ISO  8  17  14  18  14  19  13  20  13  21  13  22  13  23  13  24  13
M  ISO  5  25  13  26  13  27  14  28  14  29  14
M  END
>  <minimizedAffinity>  (1) 
-3.95747948

>  <minimizedRMSD>  (1) 
2.81218147

$$$$
