
     RDKit          3D

 42 46  0  0  0  0  0  0  0  0999 V2000
   39.5940   32.3520   41.0680 C   0  0  0  0  0  0  0  0  0  0  0  0
   40.6690   31.8340   41.8120 C   0  0  0  0  0  0  0  0  0  0  0  0
   40.6860   30.5530   42.3550 C   0  0  0  0  0  0  0  0  0  0  0  0
   39.5780   29.7390   42.1500 C   0  0  0  0  0  0  0  0  0  0  0  0
   38.5180   30.1970   41.4370 C   0  0  0  0  0  0  0  0  0  0  0  0
   37.4650   29.3680   41.2580 C   0  0  0  0  0  0  0  0  0  0  0  0
   36.3300   29.7900   40.5150 C   0  0  0  0  0  0  0  0  0  0  0  0
   36.3920   31.0940   40.0010 C   0  0  0  0  0  0  0  0  0  0  0  0
   37.4900   31.8710   40.2250 C   0  0  0  0  0  0  0  0  0  0  0  0
   38.5810   31.4610   40.9420 C   0  0  0  0  0  0  0  0  0  0  0  0
   39.7630   33.6870   40.6000 C   0  0  0  0  0  0  0  0  0  0  0  0
   38.8810   34.7780   40.6360 C   0  0  0  0  0  0  0  0  0  0  0  0
   39.2340   36.0370   40.1400 C   0  0  0  0  0  0  0  0  0  0  0  0
   40.4850   36.1490   39.6170 N   0  0  0  0  0  0  0  0  0  0  0  0
   41.3270   35.1330   39.5750 C   0  0  0  0  0  0  0  0  0  0  0  0
   40.9720   33.9410   40.0530 N   0  0  0  0  0  0  0  0  0  0  0  0
   37.2630   28.0200   41.7260 C   0  0  0  0  0  0  0  0  0  0  0  0
   36.6680   27.5990   42.9000 C   0  0  0  0  0  0  0  0  0  0  0  0
   36.4770   26.2920   43.2730 C   0  0  0  0  0  0  0  0  0  0  0  0
   36.8890   25.2870   42.4630 C   0  0  0  0  0  0  0  0  0  0  0  0
   37.4800   25.7080   41.3000 C   0  0  0  0  0  0  0  0  0  0  0  0
   37.6540   26.9930   40.9560 N   0  0  0  0  0  0  0  0  0  0  0  0
   38.0140   24.7270   40.2630 C   0  0  0  0  0  0  0  0  0  0  0  0
   38.0890   23.4190   40.5130 C   0  0  0  0  0  0  0  0  0  0  0  0
   38.5790   22.5680   39.5630 C   0  0  0  0  0  0  0  0  0  0  0  0
   38.9830   23.2240   38.3240 C   0  0  0  0  0  0  0  0  0  0  0  0
   38.5900   25.0430   38.7030 S   0  0  0  0  0  0  0  0  0  0  0  0
   41.5460   32.4779   41.9739 H   0  0  0  0  0  0  0  0  0  0  0  0
   41.5522   30.1944   42.9305 H   0  0  0  0  0  0  0  0  0  0  0  0
   39.5603   28.7211   42.5667 H   0  0  0  0  0  0  0  0  0  0  0  0
   35.4596   29.1371   40.3533 H   0  0  0  0  0  0  0  0  0  0  0  0
   35.5507   31.4916   39.4144 H   0  0  0  0  0  0  0  0  0  0  0  0
   37.4992   32.8874   39.8045 H   0  0  0  0  0  0  0  0  0  0  0  0
   37.8793   34.6383   41.0685 H   0  0  0  0  0  0  0  0  0  0  0  0
   38.5391   36.8891   40.1710 H   0  0  0  0  0  0  0  0  0  0  0  0
   42.3288   35.2715   39.1423 H   0  0  0  0  0  0  0  0  0  0  0  0
   36.3179   28.3771   43.5943 H   0  0  0  0  0  0  0  0  0  0  0  0
   35.9887   26.0601   44.2310 H   0  0  0  0  0  0  0  0  0  0  0  0
   36.7603   24.2245   42.7169 H   0  0  0  0  0  0  0  0  0  0  0  0
   37.7561   23.0251   41.4846 H   0  0  0  0  0  0  0  0  0  0  0  0
   38.6617   21.4822   39.7188 H   0  0  0  0  0  0  0  0  0  0  0  0
   39.4048   22.7810   37.4097 H   0  0  0  0  0  0  0  0  0  0  0  0
  1  2  2  0
  2  3  1  0
  4  3  2  0
  5  4  1  0
  6  5  2  0
  6 17  1  0
  7  6  1  0
  8  9  1  0
  8  7  2  0
  9 10  2  0
 10  1  1  0
 10  5  1  0
 11 12  2  0
 11  1  1  0
 13 12  1  0
 14 13  2  0
 15 14  1  0
 15 16  2  0
 16 11  1  0
 17 18  2  0
 18 19  1  0
 20 19  2  0
 21 20  1  0
 22 21  2  0
 22 17  1  0
 23 24  2  0
 23 21  1  0
 25 24  1  0
 26 27  1  0
 26 25  2  0
 27 23  1  0
  2 28  1  0
  3 29  1  0
  4 30  1  0
  7 31  1  0
  8 32  1  0
  9 33  1  0
 12 34  1  0
 13 35  1  0
 15 36  1  0
 18 37  1  0
 19 38  1  0
 20 39  1  0
 24 40  1  0
 25 41  1  0
 26 42  1  0
M  ISO  8  28  14  29  14  30  14  31  14  32  14  33  14  34  14  35  14
M  ISO  7  36  14  37  14  38  14  39  14  40  14  41  14  42  14
M  END
>  <minimizedAffinity>  (1) 
-6.57638025

>  <minimizedRMSD>  (1) 
1.39868188

$$$$
