
     RDKit          3D

 34 37  0  0  1  0  0  0  0  0999 V2000
   39.3710   30.5570   41.2840 C   0  0  1  0  0  0  0  0  0  0  0  0
   39.7380   30.5600   42.7060 C   0  0  0  0  0  0  0  0  0  0  0  0
   38.4570   29.9220   42.4140 C   0  0  2  0  0  0  0  0  0  0  0  0
   38.4070   28.4300   42.3260 C   0  0  0  0  0  0  0  0  0  0  0  0
   39.3140   27.7690   43.1600 C   0  0  0  0  0  0  0  0  0  0  0  0
   39.1790   26.4220   43.3710 C   0  0  0  0  0  0  0  0  0  0  0  0
   38.1460   25.7460   42.7550 C   0  0  0  0  0  0  0  0  0  0  0  0
   37.2630   26.4140   41.9320 C   0  0  0  0  0  0  0  0  0  0  0  0
   37.4170   27.7920   41.7220 C   0  0  0  0  0  0  0  0  0  0  0  0
   36.5610   28.1260   40.6050 C   0  0  0  0  0  0  0  0  0  0  0  0
   36.7330   27.4980   39.2820 C   0  0  0  0  0  0  0  0  0  0  0  0
   35.8120   27.8660   38.3650 C   0  0  0  0  0  0  0  0  0  0  0  0
   34.7590   28.7380   38.5170 C   0  0  0  0  0  0  0  0  0  0  0  0
   35.0240   29.2010   40.2990 S   0  0  0  0  0  0  0  0  0  0  0  0
   38.7190   31.8040   40.6930 C   0  0  0  0  0  0  0  0  0  0  0  0
   37.6930   31.6540   39.7000 C   0  0  0  0  0  0  0  0  0  0  0  0
   37.1500   32.8090   39.1960 C   0  0  0  0  0  0  0  0  0  0  0  0
   37.6000   34.0240   39.6550 N   0  0  0  0  0  0  0  0  0  0  0  0
   38.5740   34.1180   40.6020 C   0  0  0  0  0  0  0  0  0  0  0  0
   39.1370   32.9890   41.1230 N   0  0  0  0  0  0  0  0  0  0  0  0
   39.9043   30.2607   40.3687 H   0  0  0  0  0  0  0  0  0  0  0  0
   40.5805   29.9373   43.0413 H   0  0  0  0  0  0  0  0  0  0  0  0
   40.0272   31.3650   43.3976 H   0  0  0  0  0  0  0  0  0  0  0  0
   37.4421   30.0367   42.8224 H   0  0  0  0  0  0  0  0  0  0  0  0
   40.1300   28.3264   43.6432 H   0  0  0  0  0  0  0  0  0  0  0  0
   39.8849   25.8866   44.0229 H   0  0  0  0  0  0  0  0  0  0  0  0
   38.0255   24.6654   42.9215 H   0  0  0  0  0  0  0  0  0  0  0  0
   36.4424   25.8686   41.4430 H   0  0  0  0  0  0  0  0  0  0  0  0
   37.5440   26.7887   39.0602 H   0  0  0  0  0  0  0  0  0  0  0  0
   35.9175   27.4101   37.3695 H   0  0  0  0  0  0  0  0  0  0  0  0
   33.9909   29.0637   37.8001 H   0  0  0  0  0  0  0  0  0  0  0  0
   37.3589   30.6626   39.3602 H   0  0  0  0  0  0  0  0  0  0  0  0
   36.3610   32.7630   38.4309 H   0  0  0  0  0  0  0  0  0  0  0  0
   38.9082   35.1071   40.9483 H   0  0  0  0  0  0  0  0  0  0  0  0
  1  3  1  0
  1  2  1  0
  3  2  1  0
  4  3  1  0
  4  5  2  0
  5  6  1  0
  7  6  2  0
  8  7  1  0
  9  8  2  0
  9  4  1  0
 10  9  1  0
 11 10  2  0
 12 13  2  0
 12 11  1  0
 13 14  1  0
 14 10  1  0
 15 20  1  0
 15  1  1  0
 16 15  2  0
 17 18  2  0
 17 16  1  0
 18 19  1  0
 19 20  2  0
  1 21  1  6
  2 22  1  0
  2 23  1  0
  3 24  1  1
  5 25  1  0
  6 26  1  0
  7 27  1  0
  8 28  1  0
 11 29  1  0
 12 30  1  0
 13 31  1  0
 16 32  1  0
 17 33  1  0
 19 34  1  0
M  ISO  8  21  13  22  13  23  13  24  13  25  14  26  14  27  14  28  14
M  ISO  6  29  14  30  14  31  14  32  14  33  14  34  14
M  END
>  <minimizedAffinity>  (1) 
-5.3517971

>  <minimizedRMSD>  (1) 
1.80471766

$$$$
