
     RDKit          3D

 30 33  0  0  0  0  0  0  0  0999 V2000
   39.8770   32.9100   39.7600 O   0  0  0  0  0  0  0  0  0  0  0  0
   39.6640   36.4910   40.2390 C   0  0  0  0  0  0  0  0  0  0  0  0
   40.8600   36.7160   40.9720 C   0  0  0  0  0  0  0  0  0  0  0  0
   41.6380   35.5760   41.2320 C   0  0  0  0  0  0  0  0  0  0  0  0
   41.2310   34.3620   40.7910 N   0  0  0  0  0  0  0  0  0  0  0  0
   40.0880   34.2140   40.1010 C   0  0  0  0  0  0  0  0  0  0  0  0
   39.3230   35.2700   39.8350 N   0  0  0  0  0  0  0  0  0  0  0  0
   42.8610   35.7710   41.9740 C   0  0  0  0  0  0  0  0  0  0  0  0
   44.1070   35.2230   41.8350 C   0  0  0  0  0  0  0  0  0  0  0  0
   45.1000   35.6010   42.7010 C   0  0  0  0  0  0  0  0  0  0  0  0
   44.7350   36.5510   43.6900 C   0  0  0  0  0  0  0  0  0  0  0  0
   42.9600   36.8620   43.3250 S   0  0  0  0  0  0  0  0  0  0  0  0
   38.8080   32.2080   40.2930 C   0  0  0  0  0  0  0  0  0  0  0  0
   37.4660   32.4300   40.2160 N   0  0  0  0  0  0  0  0  0  0  0  0
   36.8470   31.4920   40.8860 O   0  0  0  0  0  0  0  0  0  0  0  0
   37.7670   30.6880   41.3810 C   0  0  0  0  0  0  0  0  0  0  0  0
   38.9940   31.0950   41.0380 N   0  0  0  0  0  0  0  0  0  0  0  0
   37.4580   29.5160   42.1930 C   0  0  0  0  0  0  0  0  0  0  0  0
   36.6220   28.4640   41.8380 C   0  0  0  0  0  0  0  0  0  0  0  0
   36.5730   27.5410   42.8550 C   0  0  0  0  0  0  0  0  0  0  0  0
   37.4160   28.0880   43.8310 C   0  0  0  0  0  0  0  0  0  0  0  0
   37.8860   29.2140   43.3860 O   0  0  0  0  0  0  0  0  0  0  0  0
   39.0081   37.3415   40.0012 H   0  0  0  0  0  0  0  0  0  0  0  0
   41.1575   37.7183   41.3138 H   0  0  0  0  0  0  0  0  0  0  0  0
   44.3088   34.4900   41.0401 H   0  0  0  0  0  0  0  0  0  0  0  0
   46.1190   35.1923   42.6334 H   0  0  0  0  0  0  0  0  0  0  0  0
   45.3600   36.9925   44.4802 H   0  0  0  0  0  0  0  0  0  0  0  0
   36.0799   28.3823   40.8843 H   0  0  0  0  0  0  0  0  0  0  0  0
   36.0073   26.5984   42.8934 H   0  0  0  0  0  0  0  0  0  0  0  0
   37.6419   27.6393   44.8096 H   0  0  0  0  0  0  0  0  0  0  0  0
  1  6  1  0
  1 13  1  0
  2  3  2  0
  3  4  1  0
  4  8  1  0
  5  4  2  0
  6  5  1  0
  7  6  2  0
  7  2  1  0
  8 12  1  0
  9  8  2  0
  9 10  1  0
 10 11  2  0
 12 11  1  0
 13 17  1  0
 14 13  2  0
 14 15  1  0
 15 16  1  0
 16 18  1  0
 17 16  2  0
 18 22  1  0
 19 18  2  0
 19 20  1  0
 20 21  2  0
 22 21  1  0
  2 23  1  0
  3 24  1  0
  9 25  1  0
 10 26  1  0
 11 27  1  0
 19 28  1  0
 20 29  1  0
 21 30  1  0
M  ISO  8  23  14  24  14  25  14  26  14  27  14  28  14  29  14  30  14
M  END
>  <minimizedAffinity>  (1) 
-6.39283466

>  <minimizedRMSD>  (1) 
8.92350292

$$$$
