
     RDKit          3D

 35 38  0  0  1  0  0  0  0  0999 V2000
   37.3040   27.7430   41.5040 C   0  0  0  0  0  0  0  0  0  0  0  0
   37.4910   26.7930   42.5150 C   0  0  0  0  0  0  0  0  0  0  0  0
   37.2490   25.4670   42.2640 C   0  0  0  0  0  0  0  0  0  0  0  0
   36.8180   25.0900   40.9890 C   0  0  0  0  0  0  0  0  0  0  0  0
   36.6440   26.0290   40.0130 C   0  0  0  0  0  0  0  0  0  0  0  0
   36.8990   27.3860   40.2900 C   0  0  0  0  0  0  0  0  0  0  0  0
   38.6570   29.9090   41.4280 C   0  0  1  0  0  0  0  0  0  0  0  0
   38.3590   29.6170   42.8430 C   0  0  0  0  0  0  0  0  0  0  0  0
   37.3290   29.1790   41.9050 C   0  0  2  0  0  0  0  0  0  0  0  0
   38.3820   31.3010   40.9000 C   0  0  0  0  0  0  0  0  0  0  0  0
   37.3590   31.4590   39.9190 C   0  0  0  0  0  0  0  0  0  0  0  0
   37.1300   32.7190   39.4220 C   0  0  0  0  0  0  0  0  0  0  0  0
   37.8940   33.7660   39.8940 N   0  0  0  0  0  0  0  0  0  0  0  0
   38.8610   33.5700   40.8360 C   0  0  0  0  0  0  0  0  0  0  0  0
   39.1000   32.3060   41.3420 N   0  0  0  0  0  0  0  0  0  0  0  0
   36.6580   28.0220   39.0180 C   0  0  0  0  0  0  0  0  0  0  0  0
   35.4140   28.5160   38.6100 C   0  0  0  0  0  0  0  0  0  0  0  0
   35.1060   29.2350   37.4830 C   0  0  0  0  0  0  0  0  0  0  0  0
   36.1610   29.4850   36.6820 N   0  0  0  0  0  0  0  0  0  0  0  0
   37.3820   29.0520   36.9930 C   0  0  0  0  0  0  0  0  0  0  0  0
   37.5980   28.3570   38.1130 N   0  0  0  0  0  0  0  0  0  0  0  0
   37.8323   27.1105   43.5114 H   0  0  0  0  0  0  0  0  0  0  0  0
   37.3915   24.7131   43.0522 H   0  0  0  0  0  0  0  0  0  0  0  0
   36.6178   24.0307   40.7705 H   0  0  0  0  0  0  0  0  0  0  0  0
   36.3050   25.7258   39.0114 H   0  0  0  0  0  0  0  0  0  0  0  0
   39.5256   29.7224   40.7794 H   0  0  0  0  0  0  0  0  0  0  0  0
   38.9584   28.8599   43.3698 H   0  0  0  0  0  0  0  0  0  0  0  0
   38.3257   30.2499   43.7421 H   0  0  0  0  0  0  0  0  0  0  0  0
   36.2399   29.3245   41.8527 H   0  0  0  0  0  0  0  0  0  0  0  0
   36.7707   30.5973   39.5706 H   0  0  0  0  0  0  0  0  0  0  0  0
   36.3527   32.8896   38.6626 H   0  0  0  0  0  0  0  0  0  0  0  0
   39.4546   34.4235   41.1954 H   0  0  0  0  0  0  0  0  0  0  0  0
   34.5709   28.2989   39.2824 H   0  0  0  0  0  0  0  0  0  0  0  0
   34.0864   29.5778   37.2529 H   0  0  0  0  0  0  0  0  0  0  0  0
   38.2233   29.2697   36.3186 H   0  0  0  0  0  0  0  0  0  0  0  0
  1  9  1  0
  1  2  2  0
  3  2  1  0
  4  3  2  0
  5  6  2  0
  5  4  1  0
  6  1  1  0
  7  9  1  0
  7  8  1  0
  9  8  1  0
 10 15  1  0
 10  7  1  0
 11 10  2  0
 12 13  2  0
 12 11  1  0
 13 14  1  0
 14 15  2  0
 16  6  1  0
 17 16  2  0
 18 17  1  0
 19 20  1  0
 19 18  2  0
 20 21  2  0
 21 16  1  0
  2 22  1  0
  3 23  1  0
  4 24  1  0
  5 25  1  0
  7 26  1  6
  8 27  1  0
  8 28  1  0
  9 29  1  1
 11 30  1  0
 12 31  1  0
 14 32  1  0
 17 33  1  0
 18 34  1  0
 20 35  1  0
M  ISO  8  22  14  23  14  24  14  25  14  26  13  27  13  28  13  29  13
M  ISO  6  30  14  31  14  32  14  33  14  34  14  35  14
M  END
>  <minimizedAffinity>  (1) 
-5.43614054

>  <minimizedRMSD>  (1) 
0.27503705

$$$$
