
     RDKit          3D

 43 46  0  0  0  0  0  0  0  0999 V2000
   42.3910   28.8530   43.3060 C   0  0  0  0  0  0  0  0  0  0  0  0
   41.8480   27.6500   43.8320 C   0  0  0  0  0  0  0  0  0  0  0  0
   40.4870   27.4560   43.6520 C   0  0  0  0  0  0  0  0  0  0  0  0
   39.7550   28.3850   43.0100 N   0  0  0  0  0  0  0  0  0  0  0  0
   40.2990   29.5140   42.5230 C   0  0  0  0  0  0  0  0  0  0  0  0
   41.6050   29.7550   42.6650 N   0  0  0  0  0  0  0  0  0  0  0  0
   39.8150   26.3170   44.1170 N   0  0  0  0  0  0  0  0  0  0  0  0
   39.5370   30.5150   41.8290 N   0  0  0  0  0  0  0  0  0  0  0  0
   38.2580   30.2230   41.5640 C   0  0  0  0  0  0  0  0  0  0  0  0
   37.3810   31.0480   40.9010 C   0  0  0  0  0  0  0  0  0  0  0  0
   37.8750   32.2590   40.4890 C   0  0  0  0  0  0  0  0  0  0  0  0
   37.1360   33.0820   39.8740 O   0  0  0  0  0  0  0  0  0  0  0  0
   39.1640   32.5420   40.7610 N   0  0  0  0  0  0  0  0  0  0  0  0
   39.9830   31.7000   41.4120 C   0  0  0  0  0  0  0  0  0  0  0  0
   41.1850   31.9550   41.6660 O   0  0  0  0  0  0  0  0  0  0  0  0
   39.7410   33.7770   40.3650 C   0  0  0  0  0  0  0  0  0  0  0  0
   39.2990   34.9320   40.9730 C   0  0  0  0  0  0  0  0  0  0  0  0
   39.8480   36.1390   40.6010 C   0  0  0  0  0  0  0  0  0  0  0  0
   40.8300   36.1270   39.6190 C   0  0  0  0  0  0  0  0  0  0  0  0
   41.2820   34.9770   39.0030 C   0  0  0  0  0  0  0  0  0  0  0  0
   40.7230   33.7670   39.3840 C   0  0  0  0  0  0  0  0  0  0  0  0
   35.9960   30.6200   40.6140 C   0  0  0  0  0  0  0  0  0  0  0  0
   36.0470   29.7080   39.4400 C   0  0  0  0  0  0  0  0  0  0  0  0
   35.7970   28.3430   39.6170 C   0  0  0  0  0  0  0  0  0  0  0  0
   35.8230   27.4190   38.5780 C   0  0  0  0  0  0  0  0  0  0  0  0
   36.1010   27.8400   37.3390 N   0  0  0  0  0  0  0  0  0  0  0  0
   36.3470   29.1710   37.1660 C   0  0  0  0  0  0  0  0  0  0  0  0
   36.3210   30.0640   38.1710 N   0  0  0  0  0  0  0  0  0  0  0  0
   43.4659   29.0567   43.4201 H   0  0  0  0  0  0  0  0  0  0  0  0
   42.4742   26.9117   44.3543 H   0  0  0  0  0  0  0  0  0  0  0  0
   38.8020   26.2166   43.9597 H   0  0  0  0  0  0  0  0  0  0  0  0
   40.3342   25.5805   44.6160 H   0  0  0  0  0  0  0  0  0  0  0  0
   37.8794   29.2474   41.9030 H   0  0  0  0  0  0  0  0  0  0  0  0
   38.5174   34.8904   41.7459 H   0  0  0  0  0  0  0  0  0  0  0  0
   39.5199   37.0804   41.0658 H   0  0  0  0  0  0  0  0  0  0  0  0
   41.2723   37.0872   39.3151 H   0  0  0  0  0  0  0  0  0  0  0  0
   42.0644   35.0197   38.2309 H   0  0  0  0  0  0  0  0  0  0  0  0
   41.0490   32.8239   38.9212 H   0  0  0  0  0  0  0  0  0  0  0  0
   35.5781   30.0911   41.4832 H   0  0  0  0  0  0  0  0  0  0  0  0
   35.3564   31.4897   40.4030 H   0  0  0  0  0  0  0  0  0  0  0  0
   35.5680   27.9819   40.6305 H   0  0  0  0  0  0  0  0  0  0  0  0
   35.6177   26.3560   38.7724 H   0  0  0  0  0  0  0  0  0  0  0  0
   36.5783   29.5318   36.1529 H   0  0  0  0  0  0  0  0  0  0  0  0
  1  2  2  0
  3  2  1  0
  3  7  1  0
  4  3  2  0
  5  6  2  0
  5  4  1  0
  6  1  1  0
  8  5  1  0
  9  8  1  0
 10  9  2  0
 11 13  1  0
 11 10  1  0
 12 11  2  0
 13 14  1  0
 14 15  2  0
 14  8  1  0
 16 13  1  0
 16 17  2  0
 18 17  1  0
 19 18  2  0
 20 21  2  0
 20 19  1  0
 21 16  1  0
 22 10  1  0
 23 24  2  0
 23 22  1  0
 25 24  1  0
 26 25  2  0
 27 26  1  0
 27 28  2  0
 28 23  1  0
  1 29  1  0
  2 30  1  0
  7 31  1  0
  7 32  1  0
  9 33  1  0
 17 34  1  0
 18 35  1  0
 19 36  1  0
 20 37  1  0
 21 38  1  0
 22 39  1  0
 22 40  1  0
 24 41  1  0
 25 42  1  0
 27 43  1  0
M  ISO  8  29  14  30  14  33  14  34  14  35  14  36  14  37  14  38  14
M  ISO  5  39   8  40   8  41  14  42  14  43  14
M  END
>  <minimizedAffinity>  (1) 
-6.81296921

>  <minimizedRMSD>  (1) 
2.82710981

$$$$
