
     RDKit          3D

 37 40  0  0  1  0  0  0  0  0999 V2000
   37.9760   27.3800   42.7530 C   0  0  2  0  0  0  0  0  0  0  0  0
   39.0770   27.6660   43.6820 C   0  0  0  0  0  0  0  0  0  0  0  0
   39.7970   26.3440   43.8590 C   0  0  0  0  0  0  0  0  0  0  0  0
   39.3310   25.4660   42.7410 C   0  0  0  0  0  0  0  0  0  0  0  0
   38.5670   26.3790   41.7780 C   0  0  1  0  0  0  0  0  0  0  0  0
   38.0320   29.7830   41.9230 C   0  0  0  0  0  0  0  0  0  0  0  0
   37.3890   28.5230   42.0720 C   0  0  0  0  0  0  0  0  0  0  0  0
   36.1260   28.3550   41.5330 C   0  0  0  0  0  0  0  0  0  0  0  0
   35.5520   29.4190   40.8780 N   0  0  0  0  0  0  0  0  0  0  0  0
   36.1960   30.6310   40.7480 C   0  0  0  0  0  0  0  0  0  0  0  0
   37.4560   30.7970   41.2850 N   0  0  0  0  0  0  0  0  0  0  0  0
   37.5600   25.4410   41.2040 C   0  0  0  0  0  0  0  0  0  0  0  0
   36.9000   24.5360   41.9470 N   0  0  0  0  0  0  0  0  0  0  0  0
   36.1020   23.8780   41.1350 O   0  0  0  0  0  0  0  0  0  0  0  0
   36.2530   24.3530   39.9150 C   0  0  0  0  0  0  0  0  0  0  0  0
   37.1560   25.3320   39.9170 N   0  0  0  0  0  0  0  0  0  0  0  0
   35.5170   23.8500   38.7580 C   0  0  0  0  0  0  0  0  0  0  0  0
   34.4470   22.9810   38.9690 C   0  0  0  0  0  0  0  0  0  0  0  0
   33.7220   22.4810   37.8870 C   0  0  0  0  0  0  0  0  0  0  0  0
   34.1820   22.9360   36.6680 C   0  0  0  0  0  0  0  0  0  0  0  0
   35.2200   23.7820   36.4140 C   0  0  0  0  0  0  0  0  0  0  0  0
   35.8870   24.2360   37.5130 N   0  0  0  0  0  0  0  0  0  0  0  0
   37.1100   27.0021   43.3162 H   0  0  0  0  0  0  0  0  0  0  0  0
   39.7547   28.4211   43.2571 H   0  0  0  0  0  0  0  0  0  0  0  0
   38.7148   28.0697   44.6390 H   0  0  0  0  0  0  0  0  0  0  0  0
   40.8856   26.4912   43.8008 H   0  0  0  0  0  0  0  0  0  0  0  0
   39.5798   25.8958   44.8398 H   0  0  0  0  0  0  0  0  0  0  0  0
   40.1911   25.0071   42.2314 H   0  0  0  0  0  0  0  0  0  0  0  0
   38.6956   24.6472   43.1096 H   0  0  0  0  0  0  0  0  0  0  0  0
   39.0883   26.8999   40.9614 H   0  0  0  0  0  0  0  0  0  0  0  0
   39.0366   29.9226   42.3487 H   0  0  0  0  0  0  0  0  0  0  0  0
   35.5952   27.3960   41.6259 H   0  0  0  0  0  0  0  0  0  0  0  0
   35.7074   31.4621   40.2184 H   0  0  0  0  0  0  0  0  0  0  0  0
   34.1733   22.6884   39.9934 H   0  0  0  0  0  0  0  0  0  0  0  0
   32.8699   21.7937   37.9946 H   0  0  0  0  0  0  0  0  0  0  0  0
   33.6394   22.5673   35.7850 H   0  0  0  0  0  0  0  0  0  0  0  0
   35.5004   24.0782   35.3924 H   0  0  0  0  0  0  0  0  0  0  0  0
  1  2  1  0
  2  3  1  0
  4  3  1  0
  5  4  1  0
  5  1  1  0
  6  7  2  0
  7  1  1  0
  8  7  1  0
  9  8  2  0
 10  9  1  0
 10 11  2  0
 11  6  1  0
 12  5  1  0
 12 13  2  0
 14 13  1  0
 15 16  2  0
 15 14  1  0
 16 12  1  0
 17 18  2  0
 17 15  1  0
 19 18  1  0
 20 19  2  0
 21 20  1  0
 21 22  2  0
 22 17  1  0
  1 23  1  1
  2 24  1  0
  2 25  1  0
  3 26  1  0
  3 27  1  0
  4 28  1  0
  4 29  1  0
  5 30  1  6
  6 31  1  0
  8 32  1  0
 10 33  1  0
 18 34  1  0
 19 35  1  0
 20 36  1  0
 21 37  1  0
M  ISO  8  23  13  24  13  25  13  26  13  27  13  28  13  29  13  30  13
M  ISO  7  31  14  32  14  33  14  34  14  35  14  36  14  37  14
M  END
>  <minimizedAffinity>  (1) 
-4.98772478

>  <minimizedRMSD>  (1) 
0.592993021

$$$$
