
     RDKit          3D

 30 33  0  0  0  0  0  0  0  0999 V2000
   37.0170   29.9960   41.5140 C   0  0  0  0  0  0  0  0  0  0  0  0
   38.4370   29.8950   41.3510 C   0  0  0  0  0  0  0  0  0  0  0  0
   39.1260   30.8920   40.7240 C   0  0  0  0  0  0  0  0  0  0  0  0
   38.3920   31.9700   40.2650 N   0  0  0  0  0  0  0  0  0  0  0  0
   37.0400   32.0480   40.4290 C   0  0  0  0  0  0  0  0  0  0  0  0
   36.3510   31.0590   41.0540 N   0  0  0  0  0  0  0  0  0  0  0  0
   39.0440   28.6770   41.8640 C   0  0  0  0  0  0  0  0  0  0  0  0
   38.9600   27.4830   41.0790 C   0  0  0  0  0  0  0  0  0  0  0  0
   39.8390   26.2150   42.0880 S   0  0  0  0  0  0  0  0  0  0  0  0
   40.1710   27.5740   43.4300 C   0  0  0  0  0  0  0  0  0  0  0  0
   39.6930   28.4860   42.9990 N   0  0  0  0  0  0  0  0  0  0  0  0
   40.5640   30.9480   40.5200 C   0  0  0  0  0  0  0  0  0  0  0  0
   41.5740   30.2450   40.0630 N   0  0  0  0  0  0  0  0  0  0  0  0
   42.6900   30.8750   40.1630 O   0  0  0  0  0  0  0  0  0  0  0  0
   42.5170   32.0380   40.6870 C   0  0  0  0  0  0  0  0  0  0  0  0
   41.2140   32.0700   40.9010 N   0  0  0  0  0  0  0  0  0  0  0  0
   43.4310   33.1480   41.0230 C   0  0  0  0  0  0  0  0  0  0  0  0
   44.5610   33.4380   40.2500 C   0  0  0  0  0  0  0  0  0  0  0  0
   45.3400   34.4930   40.6580 C   0  0  0  0  0  0  0  0  0  0  0  0
   45.0100   35.2260   41.7790 C   0  0  0  0  0  0  0  0  0  0  0  0
   43.8810   34.9260   42.5400 C   0  0  0  0  0  0  0  0  0  0  0  0
   43.1270   33.8770   42.1160 N   0  0  0  0  0  0  0  0  0  0  0  0
   36.4692   29.1895   42.0234 H   0  0  0  0  0  0  0  0  0  0  0  0
   36.4989   32.9269   40.0485 H   0  0  0  0  0  0  0  0  0  0  0  0
   38.4805   27.3520   40.0977 H   0  0  0  0  0  0  0  0  0  0  0  0
   40.7031   27.4710   44.3872 H   0  0  0  0  0  0  0  0  0  0  0  0
   44.8137   32.8480   39.3566 H   0  0  0  0  0  0  0  0  0  0  0  0
   46.2397   34.7571   40.0828 H   0  0  0  0  0  0  0  0  0  0  0  0
   45.6525   36.0667   42.0795 H   0  0  0  0  0  0  0  0  0  0  0  0
   43.6145   35.5068   43.4354 H   0  0  0  0  0  0  0  0  0  0  0  0
  2  1  2  0
  2  7  1  0
  3  2  1  0
  4  5  1  0
  4  3  2  0
  5  6  2  0
  6  1  1  0
  7 11  1  0
  8  7  2  0
  8  9  1  0
  9 10  1  0
 11 10  2  0
 12  3  1  0
 12 16  1  0
 13 14  1  0
 13 12  2  0
 14 15  1  0
 15 16  2  0
 15 17  1  0
 17 22  2  0
 18 19  2  0
 18 17  1  0
 19 20  1  0
 20 21  2  0
 22 21  1  0
  1 23  1  0
  5 24  1  0
  8 25  1  0
 10 26  1  0
 18 27  1  0
 19 28  1  0
 20 29  1  0
 21 30  1  0
M  ISO  8  23  14  24  14  25  14  26  14  27  14  28  14  29  14  30  14
M  END
>  <minimizedAffinity>  (1) 
-4.48518133

>  <minimizedRMSD>  (1) 
2.26128197

$$$$
