
     RDKit          3D

 27 29  0  0  0  0  0  0  0  0999 V2000
   41.5600   27.1830   43.6310 C   0  0  0  0  0  0  0  0  0  0  0  0
   42.3810   28.1240   43.0940 C   0  0  0  0  0  0  0  0  0  0  0  0
   43.2290   28.5690   44.1060 C   0  0  0  0  0  0  0  0  0  0  0  0
   42.8550   27.8580   45.1950 N   0  0  0  0  0  0  0  0  0  0  0  0
   41.8830   27.0440   44.9370 N   0  0  0  0  0  0  0  0  0  0  0  0
   38.2420   25.9010   42.5110 C   0  0  0  0  0  0  0  0  0  0  0  0
   39.1890   26.6440   43.2370 C   0  0  0  0  0  0  0  0  0  0  0  0
   40.5270   26.4610   42.9330 C   0  0  0  0  0  0  0  0  0  0  0  0
   40.8810   25.5740   41.9480 N   0  0  0  0  0  0  0  0  0  0  0  0
   39.9370   24.8800   41.2760 C   0  0  0  0  0  0  0  0  0  0  0  0
   38.6140   25.0420   41.5560 N   0  0  0  0  0  0  0  0  0  0  0  0
   43.5110   28.0380   46.4680 C   0  0  0  0  0  0  0  0  0  0  0  0
   43.6980   27.1180   47.4570 C   0  0  0  0  0  0  0  0  0  0  0  0
   44.3600   27.5120   48.6040 C   0  0  0  0  0  0  0  0  0  0  0  0
   44.8270   28.8000   48.7620 C   0  0  0  0  0  0  0  0  0  0  0  0
   44.6330   29.7330   47.7510 C   0  0  0  0  0  0  0  0  0  0  0  0
   43.9770   29.3450   46.6120 C   0  0  0  0  0  0  0  0  0  0  0  0
   42.3766   28.4711   42.0502 H   0  0  0  0  0  0  0  0  0  0  0  0
   44.0231   29.3270   44.0357 H   0  0  0  0  0  0  0  0  0  0  0  0
   37.1723   26.0289   42.7331 H   0  0  0  0  0  0  0  0  0  0  0  0
   38.8767   27.3486   44.0219 H   0  0  0  0  0  0  0  0  0  0  0  0
   40.2415   24.1729   40.4903 H   0  0  0  0  0  0  0  0  0  0  0  0
   43.3307   26.0873   47.3444 H   0  0  0  0  0  0  0  0  0  0  0  0
   44.5183   26.7808   49.4104 H   0  0  0  0  0  0  0  0  0  0  0  0
   45.3513   29.0876   49.6853 H   0  0  0  0  0  0  0  0  0  0  0  0
   44.9992   30.7642   47.8627 H   0  0  0  0  0  0  0  0  0  0  0  0
   43.8161   30.0721   45.8024 H   0  0  0  0  0  0  0  0  0  0  0  0
  1  5  2  0
  2  1  1  0
  2  3  2  0
  3  4  1  0
  4 12  1  0
  5  4  1  0
  6  7  2  0
  8  7  1  0
  8  1  1  0
  9  8  2  0
 10 11  2  0
 10  9  1  0
 11  6  1  0
 12 17  1  0
 12 13  2  0
 13 14  1  0
 14 15  2  0
 16 15  1  0
 17 16  2  0
  2 18  1  0
  3 19  1  0
  6 20  1  0
  7 21  1  0
 10 22  1  0
 13 23  1  0
 14 24  1  0
 15 25  1  0
 16 26  1  0
 17 27  1  0
M  ISO  8  18  14  19  14  20  14  21  14  22  14  23  14  24  14  25  14
M  ISO  2  26  14  27  14
M  END
>  <minimizedAffinity>  (1) 
-4.09979725

>  <minimizedRMSD>  (1) 
5.10564232

$$$$
