
     RDKit          3D

 45 49  0  0  0  0  0  0  0  0999 V2000
   36.9340   32.6960   39.9810 N   0  0  0  0  0  0  0  0  0  0  0  0
   37.0990   33.9410   39.6240 N   0  0  0  0  0  0  0  0  0  0  0  0
   38.3320   34.3510   40.0350 C   0  0  0  0  0  0  0  0  0  0  0  0
   38.8710   33.2330   40.6590 C   0  0  0  0  0  0  0  0  0  0  0  0
   37.9380   32.1740   40.6110 C   0  0  0  0  0  0  0  0  0  0  0  0
   38.2610   30.9400   41.2230 C   0  0  0  0  0  0  0  0  0  0  0  0
   39.2200   30.9070   42.1960 N   0  0  0  0  0  0  0  0  0  0  0  0
   39.6020   29.8440   42.8700 C   0  0  0  0  0  0  0  0  0  0  0  0
   39.0670   28.6320   42.6630 N   0  0  0  0  0  0  0  0  0  0  0  0
   38.1030   28.5340   41.7220 C   0  0  0  0  0  0  0  0  0  0  0  0
   37.5170   27.3280   41.4620 C   0  0  0  0  0  0  0  0  0  0  0  0
   36.5220   27.1950   40.4880 C   0  0  0  0  0  0  0  0  0  0  0  0
   36.1640   28.3590   39.8030 C   0  0  0  0  0  0  0  0  0  0  0  0
   36.8060   29.5230   40.1340 C   0  0  0  0  0  0  0  0  0  0  0  0
   37.7650   29.6880   41.0660 C   0  0  0  0  0  0  0  0  0  0  0  0
   39.2180   35.9160   39.9590 S   0  0  0  0  0  0  0  0  0  0  0  0
   42.8010   34.6570   41.0700 C   0  0  0  0  0  0  0  0  0  0  0  0
   43.1750   35.5300   42.1160 C   0  0  0  0  0  0  0  0  0  0  0  0
   42.2990   36.5160   42.4860 C   0  0  0  0  0  0  0  0  0  0  0  0
   41.1150   36.6020   41.8250 N   0  0  0  0  0  0  0  0  0  0  0  0
   40.7800   35.7620   40.8310 C   0  0  0  0  0  0  0  0  0  0  0  0
   41.6140   34.8060   40.4650 N   0  0  0  0  0  0  0  0  0  0  0  0
   42.7020   37.4190   43.5860 C   0  0  0  0  0  0  0  0  0  0  0  0
   43.7680   36.8580   44.4670 C   0  0  0  0  0  0  0  0  0  0  0  0
   44.6310   37.8950   45.1200 C   0  0  0  0  0  0  0  0  0  0  0  0
   44.4690   39.3300   44.9790 C   0  0  0  0  0  0  0  0  0  0  0  0
   45.6330   38.6140   44.2460 C   0  0  0  0  0  0  0  0  0  0  0  0
   36.0723   32.1698   39.7774 H   0  0  0  0  0  0  0  0  0  0  0  0
   39.8689   33.1808   41.1188 H   0  0  0  0  0  0  0  0  0  0  0  0
   40.3888   29.9532   43.6310 H   0  0  0  0  0  0  0  0  0  0  0  0
   37.8345   26.4418   42.0311 H   0  0  0  0  0  0  0  0  0  0  0  0
   36.0470   26.2264   40.2729 H   0  0  0  0  0  0  0  0  0  0  0  0
   35.3900   28.3412   39.0216 H   0  0  0  0  0  0  0  0  0  0  0  0
   36.5053   30.4227   39.5772 H   0  0  0  0  0  0  0  0  0  0  0  0
   43.4837   33.8552   40.7521 H   0  0  0  0  0  0  0  0  0  0  0  0
   44.1461   35.4206   42.6210 H   0  0  0  0  0  0  0  0  0  0  0  0
   43.0733   38.3565   43.1465 H   0  0  0  0  0  0  0  0  0  0  0  0
   41.8135   37.5719   44.2163 H   0  0  0  0  0  0  0  0  0  0  0  0
   43.2859   36.2628   45.2565 H   0  0  0  0  0  0  0  0  0  0  0  0
   44.4269   36.2563   43.8238 H   0  0  0  0  0  0  0  0  0  0  0  0
   44.6509   37.2670   46.0229 H   0  0  0  0  0  0  0  0  0  0  0  0
   43.6229   39.7330   44.4031 H   0  0  0  0  0  0  0  0  0  0  0  0
   44.3965   40.1750   45.6796 H   0  0  0  0  0  0  0  0  0  0  0  0
   45.6132   38.4891   43.1533 H   0  0  0  0  0  0  0  0  0  0  0  0
   46.7278   38.7115   44.2020 H   0  0  0  0  0  0  0  0  0  0  0  0
  1  5  1  0
  2  1  1  0
  2  3  2  0
  3  4  1  0
  5  4  2  0
  5  6  1  0
  6  7  2  0
  7  8  1  0
  9  8  2  0
 10  9  1  0
 11 10  2  0
 12 11  1  0
 13 14  1  0
 13 12  2  0
 14 15  2  0
 15  6  1  0
 15 10  1  0
 16  3  1  0
 16 21  1  0
 17 18  2  0
 18 19  1  0
 19 23  1  0
 20 19  2  0
 21 20  1  0
 22 21  2  0
 22 17  1  0
 23 24  1  0
 24 25  1  0
 26 25  1  0
 27 26  1  0
 27 25  1  0
  1 28  1  0
  4 29  1  0
  8 30  1  0
 11 31  1  0
 12 32  1  0
 13 33  1  0
 14 34  1  0
 17 35  1  0
 18 36  1  0
 23 37  1  0
 23 38  1  0
 24 39  1  0
 24 40  1  0
 25 41  1  0
 26 42  1  0
 26 43  1  0
 27 44  1  0
 27 45  1  0
M  END
>  <minimizedAffinity>  (1) 
-7.05783892

>  <minimizedRMSD>  (1) 
1.22663808

$$$$
