
     RDKit          3D

 38 42  0  0  1  0  0  0  0  0999 V2000
   39.8430   26.2250   43.8880 C   0  0  2  0  0  0  0  0  0  0  0  0
   40.9860   25.7940   42.9600 C   0  0  0  0  0  0  0  0  0  0  0  0
   39.7660   24.9530   43.0920 C   0  0  2  0  0  0  0  0  0  0  0  0
   38.7770   24.8370   41.9990 C   0  0  0  0  0  0  0  0  0  0  0  0
   37.5700   24.2030   42.2320 C   0  0  0  0  0  0  0  0  0  0  0  0
   36.7450   24.1440   41.1450 C   0  0  0  0  0  0  0  0  0  0  0  0
   36.9900   24.6260   39.9190 N   0  0  0  0  0  0  0  0  0  0  0  0
   38.1950   25.2430   39.7440 C   0  0  0  0  0  0  0  0  0  0  0  0
   39.0480   25.3340   40.7690 N   0  0  0  0  0  0  0  0  0  0  0  0
   38.5240   25.7980   38.4090 C   0  0  0  0  0  0  0  0  0  0  0  0
   37.5680   26.7550   37.8710 C   0  0  0  0  0  0  0  0  0  0  0  0
   38.2610   27.2160   36.2730 S   0  0  0  0  0  0  0  0  0  0  0  0
   39.7450   26.0560   36.5480 C   0  0  0  0  0  0  0  0  0  0  0  0
   39.5300   25.6050   37.5730 N   0  0  0  0  0  0  0  0  0  0  0  0
   38.4610   29.2490   42.5510 C   0  0  0  0  0  0  0  0  0  0  0  0
   37.4030   28.8150   43.3720 C   0  0  0  0  0  0  0  0  0  0  0  0
   37.8360   27.6310   43.9490 C   0  0  0  0  0  0  0  0  0  0  0  0
   39.0730   27.3880   43.4920 N   0  0  0  0  0  0  0  0  0  0  0  0
   39.4590   28.3560   42.6500 N   0  0  0  0  0  0  0  0  0  0  0  0
   37.0760   31.8630   40.3910 C   0  0  0  0  0  0  0  0  0  0  0  0
   38.1150   32.8050   40.3250 C   0  0  0  0  0  0  0  0  0  0  0  0
   39.2950   32.5250   41.0330 C   0  0  0  0  0  0  0  0  0  0  0  0
   39.3820   31.3720   41.7430 N   0  0  0  0  0  0  0  0  0  0  0  0
   38.3480   30.4780   41.7830 C   0  0  0  0  0  0  0  0  0  0  0  0
   37.1820   30.7270   41.1000 N   0  0  0  0  0  0  0  0  0  0  0  0
   39.7199   26.4712   44.9530 H   0  0  0  0  0  0  0  0  0  0  0  0
   41.9408   25.4504   43.3846 H   0  0  0  0  0  0  0  0  0  0  0  0
   41.5272   26.2573   42.1219 H   0  0  0  0  0  0  0  0  0  0  0  0
   39.6048   23.8911   43.3294 H   0  0  0  0  0  0  0  0  0  0  0  0
   37.2973   23.7816   43.2108 H   0  0  0  0  0  0  0  0  0  0  0  0
   35.7747   23.6471   41.2919 H   0  0  0  0  0  0  0  0  0  0  0  0
   36.6368   27.1141   38.3336 H   0  0  0  0  0  0  0  0  0  0  0  0
   40.5998   25.8672   35.8819 H   0  0  0  0  0  0  0  0  0  0  0  0
   36.4337   29.3122   43.5242 H   0  0  0  0  0  0  0  0  0  0  0  0
   37.2683   27.0051   44.6533 H   0  0  0  0  0  0  0  0  0  0  0  0
   36.1431   32.0621   39.8433 H   0  0  0  0  0  0  0  0  0  0  0  0
   38.0085   33.7299   39.7392 H   0  0  0  0  0  0  0  0  0  0  0  0
   40.1380   33.2314   41.0123 H   0  0  0  0  0  0  0  0  0  0  0  0
  2  3  1  0
  2  1  1  0
  3  1  1  0
  4  5  2  0
  4  3  1  0
  6  5  1  0
  7  6  2  0
  8  7  1  0
  8  9  2  0
  9  4  1  0
 10  8  1  0
 11 10  2  0
 12 13  1  0
 12 11  1  0
 13 14  2  0
 14 10  1  0
 15 19  2  0
 15 16  1  0
 16 17  2  0
 18  1  1  0
 18 17  1  0
 19 18  1  0
 20 25  2  0
 21 20  1  0
 21 22  2  0
 22 23  1  0
 23 24  2  0
 24 15  1  0
 25 24  1  0
  1 26  1  1
  2 27  1  0
  2 28  1  0
  3 29  1  1
  5 30  1  0
  6 31  1  0
 11 32  1  0
 13 33  1  0
 16 34  1  0
 17 35  1  0
 20 36  1  0
 21 37  1  0
 22 38  1  0
M  ISO  8  26  13  27  13  28  13  29  13  30  14  31  14  32  14  33  14
M  ISO  5  34  14  35  14  36  14  37  14  38  14
M  END
>  <minimizedAffinity>  (1) 
-5.47214031

>  <minimizedRMSD>  (1) 
0.215804532

$$$$
