
     RDKit          3D

 46 50  0  0  1  0  0  0  0  0999 V2000
   38.8450   35.6130   40.1170 C   0  0  0  0  0  0  0  0  0  0  0  0
   40.1750   36.0280   40.2940 C   0  0  0  0  0  0  0  0  0  0  0  0
   41.1140   35.0140   40.5890 C   0  0  0  0  0  0  0  0  0  0  0  0
   40.6400   33.7870   40.6650 N   0  0  0  0  0  0  0  0  0  0  0  0
   39.4030   33.3610   40.5050 C   0  0  0  0  0  0  0  0  0  0  0  0
   38.5380   34.3230   40.2310 N   0  0  0  0  0  0  0  0  0  0  0  0
   38.7840   32.0450   40.5700 C   0  0  0  0  0  0  0  0  0  0  0  0
   38.7150   31.3040   41.6970 N   0  0  0  0  0  0  0  0  0  0  0  0
   38.1610   30.1050   41.7900 C   0  0  0  0  0  0  0  0  0  0  0  0
   37.6100   29.5280   40.7360 N   0  0  0  0  0  0  0  0  0  0  0  0
   37.6110   30.1650   39.5420 C   0  0  0  0  0  0  0  0  0  0  0  0
   37.0410   29.5720   38.4440 C   0  0  0  0  0  0  0  0  0  0  0  0
   37.0240   30.1820   37.2320 C   0  0  0  0  0  0  0  0  0  0  0  0
   37.6200   31.4740   37.1280 C   0  0  0  0  0  0  0  0  0  0  0  0
   38.1730   32.0060   38.2730 C   0  0  0  0  0  0  0  0  0  0  0  0
   38.2020   31.4120   39.4970 C   0  0  0  0  0  0  0  0  0  0  0  0
   42.3870   35.2990   40.7770 O   0  0  0  0  0  0  0  0  0  0  0  0
   43.0880   35.1400   41.9970 C   0  0  2  0  0  0  0  0  0  0  0  0
   42.8040   36.4840   42.7760 C   0  0  0  0  0  0  0  0  0  0  0  0
   44.5540   35.0220   41.7900 C   0  0  0  0  0  0  0  0  0  0  0  0
   45.1060   34.3450   42.9560 N   0  0  0  0  0  0  0  0  0  0  0  0
   46.2790   34.6790   43.5630 C   0  0  0  0  0  0  0  0  0  0  0  0
   46.5010   33.8610   44.6090 N   0  0  0  0  0  0  0  0  0  0  0  0
   45.4380   33.0060   44.6460 C   0  0  0  0  0  0  0  0  0  0  0  0
   44.6030   33.3220   43.6270 N   0  0  0  0  0  0  0  0  0  0  0  0
   45.1230   31.8890   45.5720 C   0  0  0  0  0  0  0  0  0  0  0  0
   44.0990   30.9030   45.5150 C   0  0  0  0  0  0  0  0  0  0  0  0
   44.4740   29.9350   47.0760 S   0  0  0  0  0  0  0  0  0  0  0  0
   45.9440   31.0680   47.4850 C   0  0  0  0  0  0  0  0  0  0  0  0
   45.9470   31.8410   46.5930 N   0  0  0  0  0  0  0  0  0  0  0  0
   38.0617   36.3498   39.8855 H   0  0  0  0  0  0  0  0  0  0  0  0
   40.4696   37.0843   40.2077 H   0  0  0  0  0  0  0  0  0  0  0  0
   38.1592   29.5819   42.7576 H   0  0  0  0  0  0  0  0  0  0  0  0
   36.5859   28.5761   38.5489 H   0  0  0  0  0  0  0  0  0  0  0  0
   36.5656   29.6961   36.3581 H   0  0  0  0  0  0  0  0  0  0  0  0
   37.6375   32.0223   36.1746 H   0  0  0  0  0  0  0  0  0  0  0  0
   38.6329   33.0018   38.1898 H   0  0  0  0  0  0  0  0  0  0  0  0
   42.7659   34.2279   42.5208 H   0  0  0  0  0  0  0  0  0  0  0  0
   42.8438   36.2955   43.8590 H   0  0  0  0  0  0  0  0  0  0  0  0
   43.5639   37.2320   42.5058 H   0  0  0  0  0  0  0  0  0  0  0  0
   41.8064   36.8606   42.5058 H   0  0  0  0  0  0  0  0  0  0  0  0
   44.7595   34.4354   40.8824 H   0  0  0  0  0  0  0  0  0  0  0  0
   45.0097   36.0154   41.6660 H   0  0  0  0  0  0  0  0  0  0  0  0
   46.9451   35.4950   43.2459 H   0  0  0  0  0  0  0  0  0  0  0  0
   43.3087   30.7512   44.7651 H   0  0  0  0  0  0  0  0  0  0  0  0
   46.6273   31.0159   48.3455 H   0  0  0  0  0  0  0  0  0  0  0  0
  1  6  2  0
  1  2  1  0
  2  3  2  0
  3  4  1  0
  3 17  1  0
  5  7  1  0
  5  4  2  0
  6  5  1  0
  7  8  2  0
  8  9  1  0
 10  9  2  0
 11 10  1  0
 12 11  2  0
 13 12  1  0
 14 13  2  0
 14 15  1  0
 15 16  2  0
 16 11  1  0
 16  7  1  0
 17 18  1  0
 18 19  1  0
 20 18  1  0
 20 21  1  0
 21 22  1  0
 21 25  1  0
 22 23  2  0
 23 24  1  0
 24 26  1  0
 25 24  2  0
 26 30  1  0
 27 26  2  0
 27 28  1  0
 28 29  1  0
 30 29  2  0
  1 31  1  0
  2 32  1  0
  9 33  1  0
 12 34  1  0
 13 35  1  0
 14 36  1  0
 15 37  1  0
 18 38  1  1
 19 39  1  0
 19 40  1  0
 19 41  1  0
 20 42  1  0
 20 43  1  0
 22 44  1  0
 27 45  1  0
 29 46  1  0
M  ISO  8  31  14  32  14  33  14  34  14  35  14  36  14  37  14  38   8
M  ISO  8  39   8  40   8  41   8  42   8  43   8  44  14  45  14  46  14
M  END
>  <minimizedAffinity>  (1) 
-6.57504511

>  <minimizedRMSD>  (1) 
0.325034082

$$$$
