
     RDKit          3D

 24 26  0  0  0  0  0  0  0  0999 V2000
   37.1410   30.1800   40.2890 C   0  0  0  0  0  0  0  0  0  0  0  0
   37.3560   31.5340   40.3390 C   0  0  0  0  0  0  0  0  0  0  0  0
   37.2970   32.2360   39.1490 C   0  0  0  0  0  0  0  0  0  0  0  0
   37.0390   31.6320   37.9760 N   0  0  0  0  0  0  0  0  0  0  0  0
   36.8290   30.2910   37.9460 C   0  0  0  0  0  0  0  0  0  0  0  0
   36.8840   29.5900   39.1030 N   0  0  0  0  0  0  0  0  0  0  0  0
   38.1020   28.9520   43.6100 C   0  0  0  0  0  0  0  0  0  0  0  0
   37.2490   27.8300   43.7690 C   0  0  0  0  0  0  0  0  0  0  0  0
   36.3710   27.5240   42.7410 C   0  0  0  0  0  0  0  0  0  0  0  0
   36.3700   28.3170   41.6240 N   0  0  0  0  0  0  0  0  0  0  0  0
   37.1880   29.3730   41.4990 C   0  0  0  0  0  0  0  0  0  0  0  0
   38.0370   29.6770   42.4830 N   0  0  0  0  0  0  0  0  0  0  0  0
   36.5410   29.5770   36.6810 C   0  0  0  0  0  0  0  0  0  0  0  0
   36.2420   28.2190   36.7160 C   0  0  0  0  0  0  0  0  0  0  0  0
   35.9720   27.8180   34.9510 S   0  0  0  0  0  0  0  0  0  0  0  0
   36.3300   29.6420   34.4620 C   0  0  0  0  0  0  0  0  0  0  0  0
   36.5410   30.1290   35.4670 N   0  0  0  0  0  0  0  0  0  0  0  0
   37.5676   32.0428   41.2910 H   0  0  0  0  0  0  0  0  0  0  0  0
   37.4665   33.3228   39.1626 H   0  0  0  0  0  0  0  0  0  0  0  0
   38.8115   29.2257   44.4048 H   0  0  0  0  0  0  0  0  0  0  0  0
   37.2833   27.2193   44.6833 H   0  0  0  0  0  0  0  0  0  0  0  0
   35.6902   26.6636   42.8204 H   0  0  0  0  0  0  0  0  0  0  0  0
   36.1826   27.5516   37.5884 H   0  0  0  0  0  0  0  0  0  0  0  0
   36.3305   30.0993   33.4616 H   0  0  0  0  0  0  0  0  0  0  0  0
  1  2  2  0
  1 11  1  0
  3  2  1  0
  4  3  2  0
  5  4  1  0
  5  6  2  0
  6  1  1  0
  7  8  2  0
  9  8  1  0
 10  9  2  0
 11 10  1  0
 11 12  2  0
 12  7  1  0
 13 14  2  0
 13  5  1  0
 15 14  1  0
 16 15  1  0
 16 17  2  0
 17 13  1  0
  2 18  1  0
  3 19  1  0
  7 20  1  0
  8 21  1  0
  9 22  1  0
 14 23  1  0
 16 24  1  0
M  ISO  7  18  14  19  14  20  14  21  14  22  14  23  14  24  14
M  END
>  <minimizedAffinity>  (1) 
-4.19057369

>  <minimizedRMSD>  (1) 
0.978765428

$$$$
