
     RDKit          3D

 26 28  0  0  0  0  0  0  0  0999 V2000
   37.0750   25.8280   42.1620 C   0  0  0  0  0  0  0  0  0  0  0  0
   37.4850   24.5550   42.3380 C   0  0  0  0  0  0  0  0  0  0  0  0
   37.7610   23.7130   41.3270 C   0  0  0  0  0  0  0  0  0  0  0  0
   37.5680   24.3320   40.0260 C   0  0  0  0  0  0  0  0  0  0  0  0
   37.0400   25.9600   40.3860 S   0  0  0  0  0  0  0  0  0  0  0  0
   37.7650   23.7380   38.7140 C   0  0  0  0  0  0  0  0  0  0  0  0
   38.6690   24.3140   37.8560 C   0  0  0  0  0  0  0  0  0  0  0  0
   38.5310   23.1920   36.3680 S   0  0  0  0  0  0  0  0  0  0  0  0
   37.2380   22.1540   37.2590 C   0  0  0  0  0  0  0  0  0  0  0  0
   37.1370   22.6730   38.2680 N   0  0  0  0  0  0  0  0  0  0  0  0
   36.7110   26.9420   43.0230 C   0  0  0  0  0  0  0  0  0  0  0  0
   39.5420   29.4410   42.6210 C   0  0  0  0  0  0  0  0  0  0  0  0
   38.8360   28.2660   42.9960 C   0  0  0  0  0  0  0  0  0  0  0  0
   37.5020   28.1500   42.6580 C   0  0  0  0  0  0  0  0  0  0  0  0
   36.9360   29.1860   41.9760 N   0  0  0  0  0  0  0  0  0  0  0  0
   37.6080   30.2940   41.6260 C   0  0  0  0  0  0  0  0  0  0  0  0
   38.8980   30.4170   41.9470 N   0  0  0  0  0  0  0  0  0  0  0  0
   37.6001   24.1848   43.3674 H   0  0  0  0  0  0  0  0  0  0  0  0
   38.0947   22.6744   41.4681 H   0  0  0  0  0  0  0  0  0  0  0  0
   39.3046   25.1993   38.0048 H   0  0  0  0  0  0  0  0  0  0  0  0
   36.7081   21.2620   36.8937 H   0  0  0  0  0  0  0  0  0  0  0  0
   35.6392   27.1591   42.9037 H   0  0  0  0  0  0  0  0  0  0  0  0
   36.9243   26.6740   44.0683 H   0  0  0  0  0  0  0  0  0  0  0  0
   40.6055   29.5542   42.8782 H   0  0  0  0  0  0  0  0  0  0  0  0
   39.3444   27.4611   43.5471 H   0  0  0  0  0  0  0  0  0  0  0  0
   37.0973   31.0983   41.0763 H   0  0  0  0  0  0  0  0  0  0  0  0
  1  2  2  0
  1 11  1  0
  3  2  1  0
  4  5  1  0
  4  3  2  0
  5  1  1  0
  6  4  1  0
  7  6  2  0
  8  9  1  0
  8  7  1  0
  9 10  2  0
 10  6  1  0
 12 13  2  0
 14 13  1  0
 14 11  1  0
 15 14  2  0
 16 17  2  0
 16 15  1  0
 17 12  1  0
  2 18  1  0
  3 19  1  0
  7 20  1  0
  9 21  1  0
 11 22  1  0
 11 23  1  0
 12 24  1  0
 13 25  1  0
 16 26  1  0
M  ISO  8  18  14  19  14  20  14  21  14  22   8  23   8  24  14  25  14
M  ISO  1  26  14
M  END
>  <minimizedAffinity>  (1) 
-3.75121045

>  <minimizedRMSD>  (1) 
0.186266229

$$$$
