
     RDKit          3D

 24 25  0  0  0  0  0  0  0  0999 V2000
   38.6440   29.2800   42.5160 C   0  0  0  0  0  0  0  0  0  0  0  0
   37.8650   29.1620   41.3360 C   0  0  0  0  0  0  0  0  0  0  0  0
   37.3530   27.8870   41.1150 C   0  0  0  0  0  0  0  0  0  0  0  0
   37.5980   26.8690   41.9740 N   0  0  0  0  0  0  0  0  0  0  0  0
   38.3520   27.0550   43.0840 C   0  0  0  0  0  0  0  0  0  0  0  0
   38.8740   28.2660   43.3500 N   0  0  0  0  0  0  0  0  0  0  0  0
   37.6700   30.2900   40.5010 N   0  0  0  0  0  0  0  0  0  0  0  0
   36.7640   31.3510   40.7910 C   0  0  0  0  0  0  0  0  0  0  0  0
   35.6130   30.9810   41.3100 N   0  0  0  0  0  0  0  0  0  0  0  0
   37.2340   32.6660   40.4790 N   0  0  0  0  0  0  0  0  0  0  0  0
   34.8980   31.6800   41.5660 H   0  0  0  0  0  0  0  0  0  0  0  0
   36.5420   27.7040   39.9160 C   0  0  0  0  0  0  0  0  0  0  0  0
   36.6780   26.7410   38.9360 C   0  0  0  0  0  0  0  0  0  0  0  0
   35.6720   26.9680   37.9870 C   0  0  0  0  0  0  0  0  0  0  0  0
   34.9890   28.0650   38.4660 C   0  0  0  0  0  0  0  0  0  0  0  0
   35.5350   28.4590   39.5930 O   0  0  0  0  0  0  0  0  0  0  0  0
   39.0814   30.2605   42.7553 H   0  0  0  0  0  0  0  0  0  0  0  0
   38.5377   26.2145   43.7689 H   0  0  0  0  0  0  0  0  0  0  0  0
   38.2172   30.3466   39.6302 H   0  0  0  0  0  0  0  0  0  0  0  0
   36.6347   33.4837   40.6608 H   0  0  0  0  0  0  0  0  0  0  0  0
   38.1716   32.7948   40.0726 H   0  0  0  0  0  0  0  0  0  0  0  0
   37.4353   25.9437   38.9057 H   0  0  0  0  0  0  0  0  0  0  0  0
   35.4725   26.3988   37.0671 H   0  0  0  0  0  0  0  0  0  0  0  0
   34.1221   28.5366   37.9801 H   0  0  0  0  0  0  0  0  0  0  0  0
  1  6  2  0
  2  1  1  0
  3  2  2  0
  3  4  1  0
  4  5  2  0
  5  6  1  0
  7  8  1  0
  7  2  1  0
  8  9  2  0
  9 11  1  0
 10  8  1  0
 12  3  1  0
 13 12  2  0
 14 15  2  0
 14 13  1  0
 15 16  1  0
 16 12  1  0
  1 17  1  0
  5 18  1  0
  7 19  1  0
 10 20  1  0
 10 21  1  0
 13 22  1  0
 14 23  1  0
 15 24  1  0
M  ISO  5  17  14  18  14  22  14  23  14  24  14
M  END
>  <minimizedAffinity>  (1) 
-4.65861988

>  <minimizedRMSD>  (1) 
0.863229692

$$$$
