
     RDKit          3D

 42 45  0  0  1  0  0  0  0  0999 V2000
   33.0490   27.0930   36.8240 N   0  0  0  0  0  0  0  0  0  0  0  0
   33.2290   28.4630   37.2140 C   0  0  0  0  0  0  0  0  0  0  0  0
   34.3590   29.1570   36.4880 C   0  0  0  0  0  0  0  0  0  0  0  0
   35.4250   28.1760   36.0750 C   0  0  2  0  0  0  0  0  0  0  0  0
   35.4880   26.9780   37.0000 C   0  0  0  0  0  0  0  0  0  0  0  0
   34.1810   26.2600   37.1250 C   0  0  2  0  0  0  0  0  0  0  0  0
   34.1500   25.0180   36.2810 C   0  0  0  0  0  0  0  0  0  0  0  0
   33.9750   23.7540   36.7990 C   0  0  0  0  0  0  0  0  0  0  0  0
   34.0130   22.9240   35.6730 C   0  0  0  0  0  0  0  0  0  0  0  0
   34.2070   23.7380   34.5510 C   0  0  0  0  0  0  0  0  0  0  0  0
   34.2790   24.9580   34.9880 O   0  0  0  0  0  0  0  0  0  0  0  0
   37.0380   28.9890   36.2230 S   0  0  0  0  0  0  0  0  0  0  0  0
   37.2250   30.0590   40.0990 C   0  0  0  0  0  0  0  0  0  0  0  0
   37.3000   31.4190   40.0820 C   0  0  0  0  0  0  0  0  0  0  0  0
   37.2950   32.0570   38.8550 C   0  0  0  0  0  0  0  0  0  0  0  0
   37.2150   31.2880   37.7040 C   0  0  0  0  0  0  0  0  0  0  0  0
   37.1390   29.9100   37.7420 C   0  0  0  0  0  0  0  0  0  0  0  0
   37.1460   29.3220   38.9470 N   0  0  0  0  0  0  0  0  0  0  0  0
   38.1530   29.1030   43.5070 C   0  0  0  0  0  0  0  0  0  0  0  0
   37.3030   28.0000   43.7730 C   0  0  0  0  0  0  0  0  0  0  0  0
   36.4140   27.5940   42.7700 C   0  0  0  0  0  0  0  0  0  0  0  0
   36.4230   28.2820   41.6090 N   0  0  0  0  0  0  0  0  0  0  0  0
   37.2250   29.3150   41.3740 C   0  0  0  0  0  0  0  0  0  0  0  0
   38.0760   29.7030   42.3340 N   0  0  0  0  0  0  0  0  0  0  0  0
   32.8819   27.0621   35.8081 H   0  0  0  0  0  0  0  0  0  0  0  0
   32.2964   29.0085   37.0074 H   0  0  0  0  0  0  0  0  0  0  0  0
   33.4860   28.4621   38.2836 H   0  0  0  0  0  0  0  0  0  0  0  0
   33.9589   29.6511   35.5903 H   0  0  0  0  0  0  0  0  0  0  0  0
   34.8093   29.8946   37.1686 H   0  0  0  0  0  0  0  0  0  0  0  0
   35.1879   27.8489   35.0519 H   0  0  0  0  0  0  0  0  0  0  0  0
   36.2376   26.2740   36.6096 H   0  0  0  0  0  0  0  0  0  0  0  0
   35.7528   27.3511   38.0003 H   0  0  0  0  0  0  0  0  0  0  0  0
   34.1003   25.9722   38.1836 H   0  0  0  0  0  0  0  0  0  0  0  0
   33.8376   23.4646   37.8513 H   0  0  0  0  0  0  0  0  0  0  0  0
   33.9091   21.8289   35.6702 H   0  0  0  0  0  0  0  0  0  0  0  0
   34.2834   23.4084   33.5043 H   0  0  0  0  0  0  0  0  0  0  0  0
   37.3628   31.9936   41.0179 H   0  0  0  0  0  0  0  0  0  0  0  0
   37.3534   33.1537   38.7933 H   0  0  0  0  0  0  0  0  0  0  0  0
   37.2120   31.7933   36.7269 H   0  0  0  0  0  0  0  0  0  0  0  0
   38.8664   29.4537   44.2673 H   0  0  0  0  0  0  0  0  0  0  0  0
   37.3407   27.4776   44.7403 H   0  0  0  0  0  0  0  0  0  0  0  0
   35.7324   26.7443   42.9231 H   0  0  0  0  0  0  0  0  0  0  0  0
  1  6  1  0
  1  2  1  0
  3  2  1  0
  4 12  1  0
  4  3  1  0
  4  5  1  0
  5  6  1  0
  7  8  2  0
  7  6  1  0
  9  8  1  0
 10 11  1  0
 10  9  2  0
 11  7  1  0
 12 17  1  0
 13 23  1  0
 14 13  2  0
 15 14  1  0
 16 17  1  0
 16 15  2  0
 17 18  2  0
 18 13  1  0
 19 20  2  0
 21 20  1  0
 22 21  2  0
 23 22  1  0
 23 24  2  0
 24 19  1  0
  1 25  1  0
  2 26  1  0
  2 27  1  0
  3 28  1  0
  3 29  1  0
  4 30  1  6
  5 31  1  0
  5 32  1  0
  6 33  1  1
  8 34  1  0
  9 35  1  0
 10 36  1  0
 14 37  1  0
 15 38  1  0
 16 39  1  0
 19 40  1  0
 20 41  1  0
 21 42  1  0
M  ISO  8  25   5  26  13  27  13  28  13  29  13  30  13  31  13  32  13
M  ISO  8  33  13  34  14  35  14  36  14  37  14  38  14  39  14  40  14
M  ISO  2  41  14  42  14
M  END
>  <minimizedAffinity>  (1) 
-4.58194065

>  <minimizedRMSD>  (1) 
0.226403579

$$$$
