
     RDKit          3D

 46 50  0  0  0  0  0  0  0  0999 V2000
   37.8720   31.9330   38.7300 C   0  0  0  0  0  0  0  0  0  0  0  0
   39.3280   31.9210   38.5520 C   0  0  0  0  0  0  0  0  0  0  0  0
   40.2150   32.9110   38.8690 C   0  0  0  0  0  0  0  0  0  0  0  0
   41.5650   32.8980   38.6440 C   0  0  0  0  0  0  0  0  0  0  0  0
   42.1280   31.7970   38.0430 C   0  0  0  0  0  0  0  0  0  0  0  0
   41.2860   30.7490   37.6950 C   0  0  0  0  0  0  0  0  0  0  0  0
   41.9230   29.6650   37.1220 C   0  0  0  0  0  0  0  0  0  0  0  0
   41.1890   28.5770   36.7740 C   0  0  0  0  0  0  0  0  0  0  0  0
   39.8380   28.5940   37.0050 C   0  0  0  0  0  0  0  0  0  0  0  0
   39.2450   29.6990   37.5770 C   0  0  0  0  0  0  0  0  0  0  0  0
   39.9320   30.8160   37.9450 C   0  0  0  0  0  0  0  0  0  0  0  0
   37.8050   29.4520   37.7380 C   0  0  0  0  0  0  0  0  0  0  0  0
   36.5630   29.8650   37.2740 C   0  0  0  0  0  0  0  0  0  0  0  0
   35.5590   29.1520   37.8860 C   0  0  0  0  0  0  0  0  0  0  0  0
   36.2740   28.3200   38.7130 C   0  0  0  0  0  0  0  0  0  0  0  0
   37.5680   28.4820   38.6380 O   0  0  0  0  0  0  0  0  0  0  0  0
   37.4290   32.0920   40.1650 C   0  0  0  0  0  0  0  0  0  0  0  0
   38.2970   29.3280   42.1670 C   0  0  0  0  0  0  0  0  0  0  0  0
   36.9370   29.2940   42.2620 C   0  0  0  0  0  0  0  0  0  0  0  0
   36.4690   30.3550   41.4910 C   0  0  0  0  0  0  0  0  0  0  0  0
   37.5760   30.9510   40.9880 N   0  0  0  0  0  0  0  0  0  0  0  0
   38.6370   30.3520   41.3820 N   0  0  0  0  0  0  0  0  0  0  0  0
   39.7080   26.4300   44.0450 C   0  0  0  0  0  0  0  0  0  0  0  0
   38.7550   27.2580   43.4280 C   0  0  0  0  0  0  0  0  0  0  0  0
   39.2340   28.4310   42.8080 C   0  0  0  0  0  0  0  0  0  0  0  0
   40.5590   28.7270   42.8190 N   0  0  0  0  0  0  0  0  0  0  0  0
   41.4350   27.8750   43.4390 C   0  0  0  0  0  0  0  0  0  0  0  0
   41.0190   26.7550   44.0360 N   0  0  0  0  0  0  0  0  0  0  0  0
   37.4690   30.9839   38.3469 H   0  0  0  0  0  0  0  0  0  0  0  0
   37.4919   32.8073   38.1813 H   0  0  0  0  0  0  0  0  0  0  0  0
   39.8027   33.8083   39.3536 H   0  0  0  0  0  0  0  0  0  0  0  0
   42.1892   33.7543   38.9391 H   0  0  0  0  0  0  0  0  0  0  0  0
   43.2088   31.7480   37.8445 H   0  0  0  0  0  0  0  0  0  0  0  0
   43.0093   29.6832   36.9502 H   0  0  0  0  0  0  0  0  0  0  0  0
   41.6689   27.6996   36.3159 H   0  0  0  0  0  0  0  0  0  0  0  0
   39.2247   27.7224   36.7328 H   0  0  0  0  0  0  0  0  0  0  0  0
   36.4045   30.6522   36.5222 H   0  0  0  0  0  0  0  0  0  0  0  0
   34.4702   29.2278   37.7494 H   0  0  0  0  0  0  0  0  0  0  0  0
   35.7995   27.5837   39.3784 H   0  0  0  0  0  0  0  0  0  0  0  0
   38.0179   32.9071   40.6110 H   0  0  0  0  0  0  0  0  0  0  0  0
   36.3478   32.2902   40.1221 H   0  0  0  0  0  0  0  0  0  0  0  0
   36.3319   28.5739   42.8324 H   0  0  0  0  0  0  0  0  0  0  0  0
   35.4215   30.6472   41.3255 H   0  0  0  0  0  0  0  0  0  0  0  0
   39.3819   25.5045   44.5421 H   0  0  0  0  0  0  0  0  0  0  0  0
   37.6849   27.0032   43.4285 H   0  0  0  0  0  0  0  0  0  0  0  0
   42.5075   28.1195   43.4452 H   0  0  0  0  0  0  0  0  0  0  0  0
  1 17  1  0
  2  1  1  0
  2  3  2  0
  4  3  1  0
  5  4  2  0
  6 11  2  0
  6  5  1  0
  7  6  1  0
  8  9  1  0
  8  7  2  0
  9 10  2  0
 10 12  1  0
 10 11  1  0
 11  2  1  0
 12 16  1  0
 13 12  2  0
 13 14  1  0
 14 15  2  0
 16 15  1  0
 17 21  1  0
 18 19  1  0
 18 25  1  0
 20 19  2  0
 21 22  1  0
 21 20  1  0
 22 18  2  0
 24 23  2  0
 25 26  2  0
 25 24  1  0
 26 27  1  0
 27 28  2  0
 28 23  1  0
  1 29  1  0
  1 30  1  0
  3 31  1  0
  4 32  1  0
  5 33  1  0
  7 34  1  0
  8 35  1  0
  9 36  1  0
 13 37  1  0
 14 38  1  0
 15 39  1  0
 17 40  1  0
 17 41  1  0
 19 42  1  0
 20 43  1  0
 23 44  1  0
 24 45  1  0
 27 46  1  0
M  ISO  8  29   8  30   8  31  14  32  14  33  14  34  14  35  14  36  14
M  ISO  8  37  14  38  14  39  14  40   8  41   8  42  14  43  14  44  14
M  ISO  2  45  14  46  14
M  END
>  <minimizedAffinity>  (1) 
-5.47114849

>  <minimizedRMSD>  (1) 
4.26447773

$$$$
