
     RDKit          3D

 38 40  0  0  1  0  0  0  0  0999 V2000
   40.0460   27.3210   43.2120 C   0  0  2  0  0  0  0  0  0  0  0  0
   41.3220   27.5220   43.8450 C   0  0  0  0  0  0  0  0  0  0  0  0
   41.9290   26.1190   43.9860 C   0  0  0  0  0  0  0  0  0  0  0  0
   41.1950   25.2650   42.9770 C   0  0  0  0  0  0  0  0  0  0  0  0
   40.3770   26.1910   42.1500 C   0  0  1  0  0  0  0  0  0  0  0  0
   40.1470   29.1960   41.5000 C   0  0  0  0  0  0  0  0  0  0  0  0
   39.4440   28.4630   42.5400 C   0  0  0  0  0  0  0  0  0  0  0  0
   38.1960   28.8470   42.9380 C   0  0  0  0  0  0  0  0  0  0  0  0
   37.6400   29.9550   42.3130 N   0  0  0  0  0  0  0  0  0  0  0  0
   38.3120   30.6620   41.3170 C   0  0  0  0  0  0  0  0  0  0  0  0
   39.5950   30.2630   40.9060 N   0  0  0  0  0  0  0  0  0  0  0  0
   37.6560   31.7870   40.7370 N   0  0  0  0  0  0  0  0  0  0  0  0
   37.3300   28.2900   43.9280 C   0  0  0  0  0  0  0  0  0  0  0  0
   36.1770   27.5940   43.3830 N   0  0  0  0  0  0  0  0  0  0  0  0
   39.1860   25.3750   41.8030 C   0  0  0  0  0  0  0  0  0  0  0  0
   38.7230   24.3950   42.6530 N   0  0  0  0  0  0  0  0  0  0  0  0
   37.6700   23.8500   42.0860 O   0  0  0  0  0  0  0  0  0  0  0  0
   37.4630   24.4420   40.9400 C   0  0  0  0  0  0  0  0  0  0  0  0
   38.3890   25.3900   40.7430 N   0  0  0  0  0  0  0  0  0  0  0  0
   36.3280   24.0440   40.0550 C   0  0  0  0  0  0  0  0  0  0  0  0
   35.2920   23.5910   40.8240 F   0  0  0  0  0  0  0  0  0  0  0  0
   35.9070   25.1280   39.2880 F   0  0  0  0  0  0  0  0  0  0  0  0
   36.7210   23.0120   39.2030 F   0  0  0  0  0  0  0  0  0  0  0  0
   39.2912   27.0867   43.9771 H   0  0  0  0  0  0  0  0  0  0  0  0
   41.9656   28.1595   43.2210 H   0  0  0  0  0  0  0  0  0  0  0  0
   41.2227   28.0258   44.8178 H   0  0  0  0  0  0  0  0  0  0  0  0
   43.0058   26.1405   43.7622 H   0  0  0  0  0  0  0  0  0  0  0  0
   41.8248   25.7274   45.0086 H   0  0  0  0  0  0  0  0  0  0  0  0
   41.9136   24.7247   42.3432 H   0  0  0  0  0  0  0  0  0  0  0  0
   40.5625   24.5166   43.4768 H   0  0  0  0  0  0  0  0  0  0  0  0
   40.8040   26.6172   41.2302 H   0  0  0  0  0  0  0  0  0  0  0  0
   41.1517   28.8685   41.1946 H   0  0  0  0  0  0  0  0  0  0  0  0
   38.1239   32.3318   39.9986 H   0  0  0  0  0  0  0  0  0  0  0  0
   36.7142   32.0550   41.0563 H   0  0  0  0  0  0  0  0  0  0  0  0
   37.9098   27.5772   44.5327 H   0  0  0  0  0  0  0  0  0  0  0  0
   36.9419   29.1319   44.5201 H   0  0  0  0  0  0  0  0  0  0  0  0
   35.5927   27.2413   44.1544 H   0  0  0  0  0  0  0  0  0  0  0  0
   35.6258   28.2436   42.8041 H   0  0  0  0  0  0  0  0  0  0  0  0
  1  2  1  0
  2  3  1  0
  4  3  1  0
  5  4  1  0
  5  1  1  0
  6  7  2  0
  7  8  1  0
  7  1  1  0
  8 13  1  0
  9  8  2  0
 10  9  1  0
 11 10  2  0
 11  6  1  0
 12 10  1  0
 14 13  1  0
 15  5  1  0
 15 16  2  0
 17 16  1  0
 18 17  1  0
 19 18  2  0
 19 15  1  0
 20 21  1  0
 20 18  1  0
 22 20  1  0
 23 20  1  0
  1 24  1  1
  2 25  1  0
  2 26  1  0
  3 27  1  0
  3 28  1  0
  4 29  1  0
  4 30  1  0
  5 31  1  6
  6 32  1  0
 12 33  1  0
 12 34  1  0
 13 35  1  0
 13 36  1  0
 14 37  1  0
 14 38  1  0
M  ISO  8  24  13  25  13  26  13  27  13  28  13  29  13  30  13  31  13
M  ISO  5  32  14  35   8  36   8  37   5  38   5
M  END
>  <minimizedAffinity>  (1) 
-5.35342741

>  <minimizedRMSD>  (1) 
0.90271765

$$$$
