
     RDKit          3D

 47 52  0  0  0  0  0  0  0  0999 V2000
   37.0270   29.1160   43.4980 N   0  0  0  0  0  0  0  0  0  0  0  0
   36.9560   27.8350   43.9560 C   0  0  0  0  0  0  0  0  0  0  0  0
   38.1880   27.2840   43.8020 N   0  0  0  0  0  0  0  0  0  0  0  0
   39.0410   28.1960   43.2530 C   0  0  0  0  0  0  0  0  0  0  0  0
   40.3640   28.1740   42.8910 C   0  0  0  0  0  0  0  0  0  0  0  0
   40.9080   29.2890   42.3580 N   0  0  0  0  0  0  0  0  0  0  0  0
   40.1550   30.4120   42.1840 C   0  0  0  0  0  0  0  0  0  0  0  0
   38.8530   30.4380   42.5370 N   0  0  0  0  0  0  0  0  0  0  0  0
   38.2780   29.3430   43.0730 C   0  0  0  0  0  0  0  0  0  0  0  0
   40.9860   31.4650   41.5930 C   0  0  0  0  0  0  0  0  0  0  0  0
   42.3400   31.4070   41.5130 N   0  0  0  0  0  0  0  0  0  0  0  0
   43.1220   32.3420   40.9860 C   0  0  0  0  0  0  0  0  0  0  0  0
   42.6050   33.4690   40.4680 N   0  0  0  0  0  0  0  0  0  0  0  0
   41.2520   33.6400   40.4910 C   0  0  0  0  0  0  0  0  0  0  0  0
   40.7330   34.7980   39.9600 C   0  0  0  0  0  0  0  0  0  0  0  0
   39.3750   35.0020   39.9670 C   0  0  0  0  0  0  0  0  0  0  0  0
   38.5730   34.0020   40.5290 C   0  0  0  0  0  0  0  0  0  0  0  0
   39.1740   32.8730   41.0410 C   0  0  0  0  0  0  0  0  0  0  0  0
   40.5070   32.6280   41.0540 C   0  0  0  0  0  0  0  0  0  0  0  0
   41.0150   26.9810   43.1190 O   0  0  0  0  0  0  0  0  0  0  0  0
   44.5940   26.6930   43.7410 C   0  0  0  0  0  0  0  0  0  0  0  0
   43.3630   26.7070   43.0720 C   0  0  0  0  0  0  0  0  0  0  0  0
   42.2050   26.9710   43.7850 C   0  0  0  0  0  0  0  0  0  0  0  0
   42.3180   27.2100   45.1350 N   0  0  0  0  0  0  0  0  0  0  0  0
   43.5160   27.1880   45.7400 C   0  0  0  0  0  0  0  0  0  0  0  0
   44.6550   26.9310   45.0530 N   0  0  0  0  0  0  0  0  0  0  0  0
   43.2430   26.4520   41.6420 C   0  0  0  0  0  0  0  0  0  0  0  0
   43.4790   27.3860   40.6520 C   0  0  0  0  0  0  0  0  0  0  0  0
   43.3750   27.1660   39.3000 C   0  0  0  0  0  0  0  0  0  0  0  0
   43.0050   25.9190   38.9080 N   0  0  0  0  0  0  0  0  0  0  0  0
   42.7670   24.9840   39.8550 C   0  0  0  0  0  0  0  0  0  0  0  0
   42.8810   25.2380   41.1710 N   0  0  0  0  0  0  0  0  0  0  0  0
   43.5760   27.4560   47.2090 C   0  0  0  0  0  0  0  0  0  0  0  0
   44.2870   28.6210   47.4610 F   0  0  0  0  0  0  0  0  0  0  0  0
   42.3040   27.7190   47.7120 F   0  0  0  0  0  0  0  0  0  0  0  0
   44.2010   26.4410   47.9130 F   0  0  0  0  0  0  0  0  0  0  0  0
   36.2520   29.7942   43.4811 H   0  0  0  0  0  0  0  0  0  0  0  0
   36.0669   27.3393   44.3728 H   0  0  0  0  0  0  0  0  0  0  0  0
   44.2116   32.1914   40.9733 H   0  0  0  0  0  0  0  0  0  0  0  0
   41.4032   35.5577   39.5314 H   0  0  0  0  0  0  0  0  0  0  0  0
   38.9337   35.9176   39.5464 H   0  0  0  0  0  0  0  0  0  0  0  0
   37.4794   34.1158   40.5614 H   0  0  0  0  0  0  0  0  0  0  0  0
   38.5166   32.1057   41.4759 H   0  0  0  0  0  0  0  0  0  0  0  0
   45.5173   26.4843   43.1807 H   0  0  0  0  0  0  0  0  0  0  0  0
   43.7764   28.3947   40.9746 H   0  0  0  0  0  0  0  0  0  0  0  0
   43.5815   27.9619   38.5693 H   0  0  0  0  0  0  0  0  0  0  0  0
   42.4680   23.9745   39.5364 H   0  0  0  0  0  0  0  0  0  0  0  0
  1  2  1  0
  3  2  2  0
  4  3  1  0
  5 20  1  0
  5  4  2  0
  6  5  1  0
  7  6  2  0
  7  8  1  0
  8  9  2  0
  9  4  1  0
  9  1  1  0
 10  7  1  0
 11 10  2  0
 12 11  1  0
 13 14  1  0
 13 12  2  0
 14 19  2  0
 15 16  2  0
 15 14  1  0
 16 17  1  0
 17 18  2  0
 18 19  1  0
 19 10  1  0
 20 23  1  0
 21 26  2  0
 22 21  1  0
 22 23  2  0
 23 24  1  0
 24 25  2  0
 25 33  1  0
 26 25  1  0
 27 22  1  0
 28 27  2  0
 29 28  1  0
 30 29  2  0
 30 31  1  0
 31 32  2  0
 32 27  1  0
 33 34  1  0
 33 35  1  0
 33 36  1  0
  1 37  1  0
  2 38  1  0
 12 39  1  0
 15 40  1  0
 16 41  1  0
 17 42  1  0
 18 43  1  0
 21 44  1  0
 28 45  1  0
 29 46  1  0
 31 47  1  0
M  END
>  <minimizedAffinity>  (1) 
-7.04175854

>  <minimizedRMSD>  (1) 
0.941126347

$$$$
