
     RDKit          3D

 44 48  0  0  0  0  0  0  0  0999 V2000
   36.5800   30.1370   38.3450 C   0  0  0  0  0  0  0  0  0  0  0  0
   37.0070   31.4420   38.5960 C   0  0  0  0  0  0  0  0  0  0  0  0
   37.3210   31.5020   39.8870 N   0  0  0  0  0  0  0  0  0  0  0  0
   37.1290   30.3180   40.5090 C   0  0  0  0  0  0  0  0  0  0  0  0
   37.3360   29.9660   41.8260 C   0  0  0  0  0  0  0  0  0  0  0  0
   37.0500   28.6530   42.1790 C   0  0  0  0  0  0  0  0  0  0  0  0
   36.5770   27.7440   41.2370 C   0  0  0  0  0  0  0  0  0  0  0  0
   36.3750   28.1110   39.9300 C   0  0  0  0  0  0  0  0  0  0  0  0
   36.6550   29.4250   39.5470 C   0  0  0  0  0  0  0  0  0  0  0  0
   34.4300   28.6760   35.7730 C   0  0  0  0  0  0  0  0  0  0  0  0
   35.3020   28.5230   34.6710 C   0  0  0  0  0  0  0  0  0  0  0  0
   36.6420   28.9310   34.8330 C   0  0  0  0  0  0  0  0  0  0  0  0
   36.9890   29.4390   36.0310 N   0  0  0  0  0  0  0  0  0  0  0  0
   36.1280   29.5760   37.0740 C   0  0  0  0  0  0  0  0  0  0  0  0
   34.8640   29.1940   36.9330 N   0  0  0  0  0  0  0  0  0  0  0  0
   37.8060   32.7110   40.4680 C   0  0  0  0  0  0  0  0  0  0  0  0
   39.2150   32.5780   41.0480 C   0  0  0  0  0  0  0  0  0  0  0  0
   40.1090   33.0780   40.0040 N   0  0  0  0  0  0  0  0  0  0  0  0
   40.5490   34.3420   39.9650 N   0  0  0  0  0  0  0  0  0  0  0  0
   41.3350   34.5340   38.8960 C   0  0  0  0  0  0  0  0  0  0  0  0
   41.4030   33.3310   38.2180 C   0  0  0  0  0  0  0  0  0  0  0  0
   40.6110   32.4290   38.9530 C   0  0  0  0  0  0  0  0  0  0  0  0
   40.4510   31.0550   38.5330 C   0  0  0  0  0  0  0  0  0  0  0  0
   40.7340   29.9600   39.3620 C   0  0  0  0  0  0  0  0  0  0  0  0
   40.5310   28.7830   38.7330 N   0  0  0  0  0  0  0  0  0  0  0  0
   40.1130   29.0720   37.4830 C   0  0  0  0  0  0  0  0  0  0  0  0
   40.0840   30.4100   37.4240 N   0  0  0  0  0  0  0  0  0  0  0  0
   37.0714   32.2628   37.8665 H   0  0  0  0  0  0  0  0  0  0  0  0
   37.7104   30.6914   42.5633 H   0  0  0  0  0  0  0  0  0  0  0  0
   37.1997   28.3269   43.2188 H   0  0  0  0  0  0  0  0  0  0  0  0
   36.3607   26.7108   41.5463 H   0  0  0  0  0  0  0  0  0  0  0  0
   35.9989   27.3827   39.1964 H   0  0  0  0  0  0  0  0  0  0  0  0
   33.3789   28.3656   35.6786 H   0  0  0  0  0  0  0  0  0  0  0  0
   34.9473   28.1001   33.7195 H   0  0  0  0  0  0  0  0  0  0  0  0
   37.3726   28.8383   34.0159 H   0  0  0  0  0  0  0  0  0  0  0  0
   37.8194   33.4908   39.6923 H   0  0  0  0  0  0  0  0  0  0  0  0
   37.1330   32.9669   41.2996 H   0  0  0  0  0  0  0  0  0  0  0  0
   39.3142   33.1816   41.9622 H   0  0  0  0  0  0  0  0  0  0  0  0
   39.4484   31.5397   41.3262 H   0  0  0  0  0  0  0  0  0  0  0  0
   41.8326   35.4729   38.6116 H   0  0  0  0  0  0  0  0  0  0  0  0
   41.9615   33.1217   37.2937 H   0  0  0  0  0  0  0  0  0  0  0  0
   41.0805   30.0496   40.4021 H   0  0  0  0  0  0  0  0  0  0  0  0
   39.8522   28.3619   36.6844 H   0  0  0  0  0  0  0  0  0  0  0  0
   39.7952   30.9117   36.5721 H   0  0  0  0  0  0  0  0  0  0  0  0
  1  2  2  0
  1  9  1  0
  2  3  1  0
  3 16  1  0
  3  4  1  0
  4  5  2  0
  5  6  1  0
  7  6  2  0
  8  7  1  0
  9  8  2  0
  9  4  1  0
 10 15  2  0
 11 12  2  0
 11 10  1  0
 12 13  1  0
 13 14  2  0
 14  1  1  0
 15 14  1  0
 16 17  1  0
 18 17  1  0
 19 18  1  0
 20 19  2  0
 21 20  1  0
 21 22  2  0
 22 18  1  0
 23 22  1  0
 23 24  2  0
 25 24  1  0
 26 25  2  0
 27 26  1  0
 27 23  1  0
  2 28  1  0
  5 29  1  0
  6 30  1  0
  7 31  1  0
  8 32  1  0
 10 33  1  0
 11 34  1  0
 12 35  1  0
 16 36  1  0
 16 37  1  0
 17 38  1  0
 17 39  1  0
 20 40  1  0
 21 41  1  0
 24 42  1  0
 26 43  1  0
 27 44  1  0
M  ISO  8  28  14  29  14  30  14  31  14  32  14  33  14  34  14  35  14
M  ISO  8  36   8  37   8  38   8  39   8  40  14  41  14  42  14  43  14
M  ISO  1  44   9
M  END
>  <minimizedAffinity>  (1) 
-5.30634356

>  <minimizedRMSD>  (1) 
4.13150454

$$$$
