
     RDKit          3D

 48 52  0  0  0  0  0  0  0  0999 V2000
   39.6520   36.3500   40.1030 S   0  0  0  0  0  0  0  0  0  0  0  0
   43.1320   34.5930   40.8200 C   0  0  0  0  0  0  0  0  0  0  0  0
   43.6180   35.2630   41.9610 C   0  0  0  0  0  0  0  0  0  0  0  0
   42.8700   36.2630   42.5260 C   0  0  0  0  0  0  0  0  0  0  0  0
   41.6770   36.5700   41.9560 N   0  0  0  0  0  0  0  0  0  0  0  0
   41.2240   35.9130   40.8560 C   0  0  0  0  0  0  0  0  0  0  0  0
   41.9430   34.9460   40.3080 N   0  0  0  0  0  0  0  0  0  0  0  0
   43.4320   36.9350   43.6850 C   0  0  0  0  0  0  0  0  0  0  0  0
   44.8850   36.8630   43.8720 C   0  0  0  0  0  0  0  0  0  0  0  0
   45.4450   35.6410   44.4500 C   0  0  0  0  0  0  0  0  0  0  0  0
   45.0070   35.3840   45.7690 C   0  0  0  0  0  0  0  0  0  0  0  0
   45.3730   34.3280   46.5590 C   0  0  0  0  0  0  0  0  0  0  0  0
   46.2470   33.4020   46.0700 C   0  0  0  0  0  0  0  0  0  0  0  0
   46.7200   33.5830   44.7900 C   0  0  0  0  0  0  0  0  0  0  0  0
   46.3150   34.6640   44.0490 C   0  0  0  0  0  0  0  0  0  0  0  0
   37.0150   33.4220   39.8470 N   0  0  0  0  0  0  0  0  0  0  0  0
   37.3530   34.6510   39.5480 N   0  0  0  0  0  0  0  0  0  0  0  0
   38.5900   34.8960   40.0590 C   0  0  0  0  0  0  0  0  0  0  0  0
   38.9480   33.7060   40.6770 C   0  0  0  0  0  0  0  0  0  0  0  0
   37.9040   32.7670   40.5240 C   0  0  0  0  0  0  0  0  0  0  0  0
   38.0260   31.4950   41.1280 C   0  0  0  0  0  0  0  0  0  0  0  0
   39.0930   31.2450   41.9460 N   0  0  0  0  0  0  0  0  0  0  0  0
   39.3100   30.1270   42.6150 C   0  0  0  0  0  0  0  0  0  0  0  0
   38.4710   29.0860   42.5560 N   0  0  0  0  0  0  0  0  0  0  0  0
   37.3820   29.2090   41.7800 C   0  0  0  0  0  0  0  0  0  0  0  0
   36.4780   28.1920   41.6700 C   0  0  0  0  0  0  0  0  0  0  0  0
   35.3380   28.2930   40.8690 C   0  0  0  0  0  0  0  0  0  0  0  0
   35.1720   29.4930   40.1850 C   0  0  0  0  0  0  0  0  0  0  0  0
   36.1200   30.4640   40.3490 C   0  0  0  0  0  0  0  0  0  0  0  0
   37.2280   30.4050   41.1130 C   0  0  0  0  0  0  0  0  0  0  0  0
   43.7212   33.7893   40.3543 H   0  0  0  0  0  0  0  0  0  0  0  0
   44.5901   34.9854   42.3946 H   0  0  0  0  0  0  0  0  0  0  0  0
   43.1616   37.9988   43.6121 H   0  0  0  0  0  0  0  0  0  0  0  0
   43.0117   36.4004   44.5496 H   0  0  0  0  0  0  0  0  0  0  0  0
   45.3488   36.9995   42.8839 H   0  0  0  0  0  0  0  0  0  0  0  0
   45.1046   37.6434   44.6155 H   0  0  0  0  0  0  0  0  0  0  0  0
   44.3004   36.1058   46.2047 H   0  0  0  0  0  0  0  0  0  0  0  0
   44.9671   34.2272   47.5764 H   0  0  0  0  0  0  0  0  0  0  0  0
   46.5628   32.5408   46.6772 H   0  0  0  0  0  0  0  0  0  0  0  0
   47.4259   32.8575   44.3594 H   0  0  0  0  0  0  0  0  0  0  0  0
   46.7298   34.7542   43.0342 H   0  0  0  0  0  0  0  0  0  0  0  0
   36.1141   33.0090   39.5663 H   0  0  0  0  0  0  0  0  0  0  0  0
   39.8963   33.5228   41.2035 H   0  0  0  0  0  0  0  0  0  0  0  0
   40.2106   30.0489   43.2417 H   0  0  0  0  0  0  0  0  0  0  0  0
   36.6531   27.2620   42.2308 H   0  0  0  0  0  0  0  0  0  0  0  0
   34.6127   27.4704   40.7839 H   0  0  0  0  0  0  0  0  0  0  0  0
   34.3027   29.6558   39.5309 H   0  0  0  0  0  0  0  0  0  0  0  0
   35.9600   31.4001   39.7940 H   0  0  0  0  0  0  0  0  0  0  0  0
  1  6  1  0
  2  3  2  0
  3  4  1  0
  4  8  1  0
  5  4  2  0
  6  5  1  0
  7  2  1  0
  7  6  2  0
  8  9  1  0
  9 10  1  0
 10 11  2  0
 11 12  1  0
 13 12  2  0
 14 13  1  0
 15 10  1  0
 15 14  2  0
 16 20  1  0
 17 16  1  0
 17 18  2  0
 18  1  1  0
 18 19  1  0
 20 19  2  0
 20 21  1  0
 21 22  2  0
 22 23  1  0
 24 23  2  0
 25 24  1  0
 26 25  2  0
 27 26  1  0
 28 29  1  0
 28 27  2  0
 29 30  2  0
 30 21  1  0
 30 25  1  0
  2 31  1  0
  3 32  1  0
  8 33  1  0
  8 34  1  0
  9 35  1  0
  9 36  1  0
 11 37  1  0
 12 38  1  0
 13 39  1  0
 14 40  1  0
 15 41  1  0
 16 42  1  0
 19 43  1  0
 23 44  1  0
 26 45  1  0
 27 46  1  0
 28 47  1  0
 29 48  1  0
M  END
>  <minimizedAffinity>  (1) 
-7.7295742

>  <minimizedRMSD>  (1) 
1.49533248

$$$$
