
     RDKit          3D

 30 32  0  0  1  0  0  0  0  0999 V2000
   39.5820   30.1680   42.4290 C   0  0  2  0  0  0  0  0  0  0  0  0
   41.0280   30.2380   42.1350 C   0  0  0  0  0  0  0  0  0  0  0  0
   41.5920   28.9210   42.6740 C   0  0  0  0  0  0  0  0  0  0  0  0
   40.4130   28.1430   43.1630 C   0  0  0  0  0  0  0  0  0  0  0  0
   39.2610   28.7020   42.2970 C   0  0  1  0  0  0  0  0  0  0  0  0
   37.4580   30.6250   41.0620 C   0  0  0  0  0  0  0  0  0  0  0  0
   38.7290   30.9910   41.5600 C   0  0  0  0  0  0  0  0  0  0  0  0
   39.2330   32.2470   41.2230 C   0  0  0  0  0  0  0  0  0  0  0  0
   38.4790   33.0570   40.4310 N   0  0  0  0  0  0  0  0  0  0  0  0
   37.2490   32.6820   39.9580 C   0  0  0  0  0  0  0  0  0  0  0  0
   36.7500   31.4490   40.2880 N   0  0  0  0  0  0  0  0  0  0  0  0
   38.0550   28.2530   43.0330 C   0  0  0  0  0  0  0  0  0  0  0  0
   37.2230   27.1950   42.6360 C   0  0  0  0  0  0  0  0  0  0  0  0
   36.2930   27.1280   43.5790 N   0  0  0  0  0  0  0  0  0  0  0  0
   36.5300   28.0790   44.5000 C   0  0  0  0  0  0  0  0  0  0  0  0
   37.6180   28.8060   44.2040 N   0  0  0  0  0  0  0  0  0  0  0  0
   39.3715   30.5832   43.4256 H   0  0  0  0  0  0  0  0  0  0  0  0
   41.2011   30.3209   41.0519 H   0  0  0  0  0  0  0  0  0  0  0  0
   41.5062   31.1166   42.5926 H   0  0  0  0  0  0  0  0  0  0  0  0
   42.1096   28.3703   41.8747 H   0  0  0  0  0  0  0  0  0  0  0  0
   42.3249   29.0925   43.4762 H   0  0  0  0  0  0  0  0  0  0  0  0
   40.5503   27.0648   42.9939 H   0  0  0  0  0  0  0  0  0  0  0  0
   40.2382   28.2449   44.2442 H   0  0  0  0  0  0  0  0  0  0  0  0
   39.1276   28.4177   41.2428 H   0  0  0  0  0  0  0  0  0  0  0  0
   37.0435   29.6389   41.3183 H   0  0  0  0  0  0  0  0  0  0  0  0
   40.2171   32.5752   41.5889 H   0  0  0  0  0  0  0  0  0  0  0  0
   36.6678   33.3638   39.3197 H   0  0  0  0  0  0  0  0  0  0  0  0
   37.3205   26.5621   41.7416 H   0  0  0  0  0  0  0  0  0  0  0  0
   35.9055   28.2415   45.3908 H   0  0  0  0  0  0  0  0  0  0  0  0
   38.0255   29.5911   44.7317 H   0  0  0  0  0  0  0  0  0  0  0  0
  2  1  1  0
  2  3  1  0
  3  4  1  0
  5  1  1  0
  5 12  1  0
  5  4  1  0
  6  7  2  0
  7  1  1  0
  8  7  1  0
  9  8  2  0
 10 11  2  0
 10  9  1  0
 11  6  1  0
 12 16  1  0
 13 12  2  0
 13 14  1  0
 14 15  2  0
 16 15  1  0
  1 17  1  1
  2 18  1  0
  2 19  1  0
  3 20  1  0
  3 21  1  0
  4 22  1  0
  4 23  1  0
  5 24  1  6
  6 25  1  0
  8 26  1  0
 10 27  1  0
 13 28  1  0
 15 29  1  0
 16 30  1  0
M  ISO  8  17  13  18  13  19  13  20  13  21  13  22  13  23  13  24  13
M  ISO  6  25  14  26  14  27  14  28  14  29  14  30   9
M  END
>  <minimizedAffinity>  (1) 
-4.45874214

>  <minimizedRMSD>  (1) 
3.6462028

$$$$
