
     RDKit          3D

 40 43  0  0  1  0  0  0  0  0999 V2000
   37.5570   28.9010   41.8490 N   0  0  0  0  0  0  0  0  0  0  0  0
   37.0220   28.6040   43.0280 C   0  0  0  0  0  0  0  0  0  0  0  0
   36.6670   27.3170   43.4030 C   0  0  0  0  0  0  0  0  0  0  0  0
   36.8670   26.2500   42.5290 C   0  0  0  0  0  0  0  0  0  0  0  0
   36.5580   25.0980   42.8460 O   0  0  0  0  0  0  0  0  0  0  0  0
   37.4130   26.5980   41.3420 N   0  0  0  0  0  0  0  0  0  0  0  0
   37.7360   27.8600   41.0330 C   0  0  0  0  0  0  0  0  0  0  0  0
   38.2470   28.0720   39.8840 O   0  0  0  0  0  0  0  0  0  0  0  0
   37.6380   25.5310   40.3760 C   0  0  2  0  0  0  0  0  0  0  0  0
   36.4650   24.7340   40.0000 C   0  0  0  0  0  0  0  0  0  0  0  0
   37.1160   23.4490   39.4450 C   0  0  0  0  0  0  0  0  0  0  0  0
   38.1260   23.1550   40.4930 C   0  0  0  0  0  0  0  0  0  0  0  0
   38.6410   24.5210   40.8820 C   0  0  1  0  0  0  0  0  0  0  0  0
   40.0070   24.7230   40.3990 C   0  0  0  0  0  0  0  0  0  0  0  0
   41.0400   25.3710   41.0400 C   0  0  0  0  0  0  0  0  0  0  0  0
   42.1480   25.3390   40.2490 N   0  0  0  0  0  0  0  0  0  0  0  0
   41.8360   24.6860   39.1240 C   0  0  0  0  0  0  0  0  0  0  0  0
   40.5400   24.3130   39.2150 N   0  0  0  0  0  0  0  0  0  0  0  0
   37.9170   30.2050   41.4650 C   0  0  0  0  0  0  0  0  0  0  0  0
   39.1840   30.8010   41.7600 C   0  0  0  0  0  0  0  0  0  0  0  0
   39.3720   32.1160   41.2980 C   0  0  0  0  0  0  0  0  0  0  0  0
   38.3880   32.7320   40.6250 N   0  0  0  0  0  0  0  0  0  0  0  0
   37.2000   32.1460   40.3600 C   0  0  0  0  0  0  0  0  0  0  0  0
   36.9880   30.8960   40.7850 N   0  0  0  0  0  0  0  0  0  0  0  0
   36.8517   29.4214   43.7441 H   0  0  0  0  0  0  0  0  0  0  0  0
   36.2257   27.1375   44.3945 H   0  0  0  0  0  0  0  0  0  0  0  0
   37.9812   26.0983   39.4983 H   0  0  0  0  0  0  0  0  0  0  0  0
   35.8325   24.5167   40.8734 H   0  0  0  0  0  0  0  0  0  0  0  0
   35.7967   25.2373   39.2857 H   0  0  0  0  0  0  0  0  0  0  0  0
   36.3829   22.6341   39.3531 H   0  0  0  0  0  0  0  0  0  0  0  0
   37.5360   23.5585   38.4343 H   0  0  0  0  0  0  0  0  0  0  0  0
   37.6635   22.6497   41.3537 H   0  0  0  0  0  0  0  0  0  0  0  0
   38.9221   22.4815   40.1429 H   0  0  0  0  0  0  0  0  0  0  0  0
   38.7250   24.6363   41.9727 H   0  0  0  0  0  0  0  0  0  0  0  0
   40.9794   25.8399   42.0332 H   0  0  0  0  0  0  0  0  0  0  0  0
   42.5114   24.4885   38.2785 H   0  0  0  0  0  0  0  0  0  0  0  0
   40.0272   23.7914   38.4899 H   0  0  0  0  0  0  0  0  0  0  0  0
   39.9654   30.2620   42.3158 H   0  0  0  0  0  0  0  0  0  0  0  0
   40.3218   32.6374   41.4876 H   0  0  0  0  0  0  0  0  0  0  0  0
   36.4205   32.6878   39.8042 H   0  0  0  0  0  0  0  0  0  0  0  0
  1  2  1  0
  2  3  2  0
  4  5  2  0
  4  3  1  0
  6  4  1  0
  7  6  1  0
  7  1  1  0
  8  7  2  0
  9 13  1  0
  9  6  1  0
 10  9  1  0
 11 10  1  0
 11 12  1  0
 12 13  1  0
 14 13  1  0
 14 15  2  0
 16 15  1  0
 17 18  1  0
 17 16  2  0
 18 14  1  0
 19 20  2  0
 19  1  1  0
 21 20  1  0
 22 21  2  0
 23 22  1  0
 23 24  2  0
 24 19  1  0
  2 25  1  0
  3 26  1  0
  9 27  1  6
 10 28  1  0
 10 29  1  0
 11 30  1  0
 11 31  1  0
 12 32  1  0
 12 33  1  0
 13 34  1  1
 15 35  1  0
 17 36  1  0
 18 37  1  0
 20 38  1  0
 21 39  1  0
 23 40  1  0
M  ISO  8  25  14  26  14  27  13  28  13  29  13  30  13  31  13  32  13
M  ISO  8  33  13  34  13  35  14  36  14  37   9  38  14  39  14  40  14
M  END
>  <minimizedAffinity>  (1) 
-5.11530781

>  <minimizedRMSD>  (1) 
0.491660744

$$$$
