
     RDKit          3D

 20 22  0  0  0  0  0  0  0  0999 V2000
   38.5550   31.9350   40.8090 C   0  0  0  0  0  0  0  0  0  0  0  0
   37.2630   32.0440   40.4360 N   0  0  0  0  0  0  0  0  0  0  0  0
   36.5980   31.0420   40.9690 O   0  0  0  0  0  0  0  0  0  0  0  0
   37.4000   30.2840   41.6740 C   0  0  0  0  0  0  0  0  0  0  0  0
   38.6470   30.8270   41.5900 N   0  0  0  0  0  0  0  0  0  0  0  0
   41.0500   32.4610   40.6970 C   0  0  0  0  0  0  0  0  0  0  0  0
   39.6990   32.7890   40.4900 C   0  0  0  0  0  0  0  0  0  0  0  0
   39.3840   34.0320   39.9300 C   0  0  0  0  0  0  0  0  0  0  0  0
   40.4210   34.8790   39.6080 N   0  0  0  0  0  0  0  0  0  0  0  0
   41.7180   34.5150   39.8290 C   0  0  0  0  0  0  0  0  0  0  0  0
   42.0110   33.3170   40.3680 N   0  0  0  0  0  0  0  0  0  0  0  0
   37.1480   29.0730   42.4460 C   0  0  0  0  0  0  0  0  0  0  0  0
   36.4520   27.9690   42.1060 N   0  0  0  0  0  0  0  0  0  0  0  0
   36.4620   27.1060   43.0800 O   0  0  0  0  0  0  0  0  0  0  0  0
   37.1550   27.6050   44.0820 C   0  0  0  0  0  0  0  0  0  0  0  0
   37.5990   28.8420   43.7110 N   0  0  0  0  0  0  0  0  0  0  0  0
   41.3137   31.4871   41.1352 H   0  0  0  0  0  0  0  0  0  0  0  0
   38.3385   34.3241   39.7521 H   0  0  0  0  0  0  0  0  0  0  0  0
   42.5310   35.2070   39.5642 H   0  0  0  0  0  0  0  0  0  0  0  0
   37.3431   27.1126   45.0475 H   0  0  0  0  0  0  0  0  0  0  0  0
  1  5  1  0
  2  1  2  0
  2  3  1  0
  3  4  1  0
  4 12  1  0
  5  4  2  0
  7  6  2  0
  7  1  1  0
  8  7  1  0
  9 10  1  0
  9  8  2  0
 10 11  2  0
 11  6  1  0
 12 16  1  0
 13 12  2  0
 13 14  1  0
 14 15  1  0
 16 15  2  0
  6 17  1  0
  8 18  1  0
 10 19  1  0
 15 20  1  0
M  ISO  4  17  14  18  14  19  14  20  14
M  END
>  <minimizedAffinity>  (1) 
-4.47431231

>  <minimizedRMSD>  (1) 
6.03829813

$$$$
