
     RDKit          3D

 23 25  0  0  0  0  0  0  0  0999 V2000
   37.1440   30.1490   40.4080 C   0  0  0  0  0  0  0  0  0  0  0  0
   37.1400   31.5220   40.5200 C   0  0  0  0  0  0  0  0  0  0  0  0
   37.1340   32.2510   39.3460 C   0  0  0  0  0  0  0  0  0  0  0  0
   37.1310   31.6510   38.1220 N   0  0  0  0  0  0  0  0  0  0  0  0
   37.1350   30.2980   38.0540 C   0  0  0  0  0  0  0  0  0  0  0  0
   37.1410   29.5750   39.1960 N   0  0  0  0  0  0  0  0  0  0  0  0
   37.9610   28.8540   43.7390 C   0  0  0  0  0  0  0  0  0  0  0  0
   37.1210   27.7160   43.8420 C   0  0  0  0  0  0  0  0  0  0  0  0
   36.2970   27.4280   42.7610 C   0  0  0  0  0  0  0  0  0  0  0  0
   36.3470   28.2530   41.6720 N   0  0  0  0  0  0  0  0  0  0  0  0
   37.1500   29.3210   41.6020 C   0  0  0  0  0  0  0  0  0  0  0  0
   37.9470   29.6130   42.6300 N   0  0  0  0  0  0  0  0  0  0  0  0
   37.1330   29.6150   36.7650 C   0  0  0  0  0  0  0  0  0  0  0  0
   37.8690   28.5510   36.4080 N   0  0  0  0  0  0  0  0  0  0  0  0
   37.5640   28.2600   35.1800 O   0  0  0  0  0  0  0  0  0  0  0  0
   36.6560   29.0810   34.6970 C   0  0  0  0  0  0  0  0  0  0  0  0
   36.3750   29.9520   35.7070 N   0  0  0  0  0  0  0  0  0  0  0  0
   37.1415   32.0171   41.5023 H   0  0  0  0  0  0  0  0  0  0  0  0
   37.1316   33.3496   39.4009 H   0  0  0  0  0  0  0  0  0  0  0  0
   38.6286   29.1173   44.5726 H   0  0  0  0  0  0  0  0  0  0  0  0
   37.1218   27.0854   44.7433 H   0  0  0  0  0  0  0  0  0  0  0  0
   35.6224   26.5594   42.7809 H   0  0  0  0  0  0  0  0  0  0  0  0
   36.2159   29.0672   33.6890 H   0  0  0  0  0  0  0  0  0  0  0  0
  1  2  2  0
  1 11  1  0
  3  2  1  0
  4  3  2  0
  5  4  1  0
  5  6  2  0
  6  1  1  0
  7  8  2  0
  9  8  1  0
 10  9  2  0
 11 10  1  0
 11 12  2  0
 12  7  1  0
 13  5  1  0
 14 13  2  0
 15 14  1  0
 16 15  1  0
 16 17  2  0
 17 13  1  0
  2 18  1  0
  3 19  1  0
  7 20  1  0
  8 21  1  0
  9 22  1  0
 16 23  1  0
M  ISO  6  18  14  19  14  20  14  21  14  22  14  23  14
M  END
>  <minimizedAffinity>  (1) 
-4.33315992

>  <minimizedRMSD>  (1) 
0.863121629

$$$$
