
     RDKit          3D

 40 44  0  0  0  0  0  0  0  0999 V2000
   39.7360   32.4350   40.9520 C   0  0  0  0  0  0  0  0  0  0  0  0
   40.8440   31.8730   41.6270 C   0  0  0  0  0  0  0  0  0  0  0  0
   40.8590   30.5920   42.1530 C   0  0  0  0  0  0  0  0  0  0  0  0
   39.7180   29.8100   42.0120 C   0  0  0  0  0  0  0  0  0  0  0  0
   38.6270   30.3060   41.3710 C   0  0  0  0  0  0  0  0  0  0  0  0
   37.5430   29.5050   41.2570 C   0  0  0  0  0  0  0  0  0  0  0  0
   36.3720   29.9590   40.5940 C   0  0  0  0  0  0  0  0  0  0  0  0
   36.4380   31.2700   40.0870 C   0  0  0  0  0  0  0  0  0  0  0  0
   37.5670   32.0190   40.2420 C   0  0  0  0  0  0  0  0  0  0  0  0
   38.6960   31.5750   40.8820 C   0  0  0  0  0  0  0  0  0  0  0  0
   39.9090   33.7660   40.4920 C   0  0  0  0  0  0  0  0  0  0  0  0
   39.1010   34.9130   40.6830 C   0  0  0  0  0  0  0  0  0  0  0  0
   39.4390   36.1560   40.1680 C   0  0  0  0  0  0  0  0  0  0  0  0
   40.6060   36.2190   39.4600 N   0  0  0  0  0  0  0  0  0  0  0  0
   41.3720   35.1620   39.2710 C   0  0  0  0  0  0  0  0  0  0  0  0
   41.0340   33.9710   39.7720 N   0  0  0  0  0  0  0  0  0  0  0  0
   37.3330   28.1590   41.7340 C   0  0  0  0  0  0  0  0  0  0  0  0
   36.7530   27.7440   42.9170 C   0  0  0  0  0  0  0  0  0  0  0  0
   36.5590   26.4380   43.2840 C   0  0  0  0  0  0  0  0  0  0  0  0
   36.9520   25.4160   42.4550 C   0  0  0  0  0  0  0  0  0  0  0  0
   37.5230   25.8450   41.2920 C   0  0  0  0  0  0  0  0  0  0  0  0
   37.7080   27.1350   40.9410 N   0  0  0  0  0  0  0  0  0  0  0  0
   37.9880   24.8480   40.3140 C   0  0  0  0  0  0  0  0  0  0  0  0
   38.5750   23.6960   40.6730 N   0  0  0  0  0  0  0  0  0  0  0  0
   38.8930   22.9870   39.6390 O   0  0  0  0  0  0  0  0  0  0  0  0
   38.5240   23.6570   38.5760 C   0  0  0  0  0  0  0  0  0  0  0  0
   37.9510   24.8320   38.9500 N   0  0  0  0  0  0  0  0  0  0  0  0
   41.7476   32.4898   41.7411 H   0  0  0  0  0  0  0  0  0  0  0  0
   41.7497   30.2036   42.6685 H   0  0  0  0  0  0  0  0  0  0  0  0
   39.6983   28.7886   42.4198 H   0  0  0  0  0  0  0  0  0  0  0  0
   35.4763   29.3300   40.4845 H   0  0  0  0  0  0  0  0  0  0  0  0
   35.5706   31.6947   39.5606 H   0  0  0  0  0  0  0  0  0  0  0  0
   37.5726   33.0388   39.8297 H   0  0  0  0  0  0  0  0  0  0  0  0
   38.1705   34.8148   41.2614 H   0  0  0  0  0  0  0  0  0  0  0  0
   38.8035   37.0408   40.3209 H   0  0  0  0  0  0  0  0  0  0  0  0
   42.3022   35.2628   38.6926 H   0  0  0  0  0  0  0  0  0  0  0  0
   36.4209   28.5227   43.6194 H   0  0  0  0  0  0  0  0  0  0  0  0
   36.0852   26.2066   44.2494 H   0  0  0  0  0  0  0  0  0  0  0  0
   36.8192   24.3530   42.7046 H   0  0  0  0  0  0  0  0  0  0  0  0
   38.6575   23.3201   37.5374 H   0  0  0  0  0  0  0  0  0  0  0  0
  1  2  2  0
  2  3  1  0
  4  3  2  0
  5  4  1  0
  6  5  2  0
  6 17  1  0
  7  6  1  0
  8  9  1  0
  8  7  2  0
  9 10  2  0
 10  1  1  0
 10  5  1  0
 11 12  2  0
 11  1  1  0
 13 12  1  0
 14 13  2  0
 15 14  1  0
 15 16  2  0
 16 11  1  0
 17 18  2  0
 18 19  1  0
 20 19  2  0
 21 20  1  0
 22 21  2  0
 22 17  1  0
 23 24  2  0
 23 21  1  0
 25 24  1  0
 26 27  2  0
 26 25  1  0
 27 23  1  0
  2 28  1  0
  3 29  1  0
  4 30  1  0
  7 31  1  0
  8 32  1  0
  9 33  1  0
 12 34  1  0
 13 35  1  0
 15 36  1  0
 18 37  1  0
 19 38  1  0
 20 39  1  0
 26 40  1  0
M  ISO  8  28  14  29  14  30  14  31  14  32  14  33  14  34  14  35  14
M  ISO  5  36  14  37  14  38  14  39  14  40  14
M  END
>  <minimizedAffinity>  (1) 
-6.50155783

>  <minimizedRMSD>  (1) 
1.42941046

$$$$
