
     RDKit          3D

 42 45  0  0  0  0  0  0  0  0999 V2000
   38.4650   28.3780   43.2600 C   0  0  0  0  0  0  0  0  0  0  0  0
   38.1630   27.1770   42.5640 C   0  0  0  0  0  0  0  0  0  0  0  0
   37.2580   27.2620   41.5080 C   0  0  0  0  0  0  0  0  0  0  0  0
   36.7260   28.4600   41.2100 N   0  0  0  0  0  0  0  0  0  0  0  0
   37.0240   29.5710   41.8760 C   0  0  0  0  0  0  0  0  0  0  0  0
   37.9000   29.5300   42.9090 N   0  0  0  0  0  0  0  0  0  0  0  0
   36.9860   26.0080   40.8330 C   0  0  0  0  0  0  0  0  0  0  0  0
   37.0380   24.7870   41.7210 C   0  0  0  0  0  0  0  0  0  0  0  0
   36.6480   21.5260   38.9430 C   0  0  0  0  0  0  0  0  0  0  0  0
   37.7590   21.6470   39.7330 C   0  0  0  0  0  0  0  0  0  0  0  0
   37.9650   22.6550   40.6450 C   0  0  0  0  0  0  0  0  0  0  0  0
   36.9800   23.6140   40.7740 C   0  0  0  0  0  0  0  0  0  0  0  0
   35.8440   23.4950   39.9690 C   0  0  0  0  0  0  0  0  0  0  0  0
   35.6610   22.4720   39.0610 C   0  0  0  0  0  0  0  0  0  0  0  0
   36.4620   20.2180   37.8110 S   0  0  0  0  0  0  0  0  0  0  0  0
   37.0300   18.9590   38.3850 O   0  0  0  0  0  0  0  0  0  0  0  0
   34.9910   19.9970   37.5950 O   0  0  0  0  0  0  0  0  0  0  0  0
   36.3520   30.6520   41.3760 O   0  0  0  0  0  0  0  0  0  0  0  0
   36.9920   31.5350   40.5140 C   0  0  0  0  0  0  0  0  0  0  0  0
   36.8620   31.6920   39.1660 N   0  0  0  0  0  0  0  0  0  0  0  0
   37.6740   32.6530   38.7820 O   0  0  0  0  0  0  0  0  0  0  0  0
   38.3000   33.0940   39.8590 C   0  0  0  0  0  0  0  0  0  0  0  0
   37.9050   32.4280   40.9340 N   0  0  0  0  0  0  0  0  0  0  0  0
   39.2850   34.1670   39.8140 C   0  0  0  0  0  0  0  0  0  0  0  0
   39.0900   35.4880   40.2030 C   0  0  0  0  0  0  0  0  0  0  0  0
   40.2360   36.2040   40.0170 C   0  0  0  0  0  0  0  0  0  0  0  0
   41.1340   35.2740   39.5020 C   0  0  0  0  0  0  0  0  0  0  0  0
   40.5190   34.1310   39.4130 O   0  0  0  0  0  0  0  0  0  0  0  0
   39.1751   28.3551   44.0998 H   0  0  0  0  0  0  0  0  0  0  0  0
   38.6246   26.2195   42.8470 H   0  0  0  0  0  0  0  0  0  0  0  0
   35.9801   26.0679   40.3919 H   0  0  0  0  0  0  0  0  0  0  0  0
   37.7812   25.8804   40.0838 H   0  0  0  0  0  0  0  0  0  0  0  0
   37.9725   24.7700   42.3010 H   0  0  0  0  0  0  0  0  0  0  0  0
   36.2148   24.7707   42.4505 H   0  0  0  0  0  0  0  0  0  0  0  0
   38.5436   20.8828   39.6309 H   0  0  0  0  0  0  0  0  0  0  0  0
   38.8823   22.6961   41.2507 H   0  0  0  0  0  0  0  0  0  0  0  0
   35.0552   24.2558   40.0639 H   0  0  0  0  0  0  0  0  0  0  0  0
   34.7489   22.4164   38.4486 H   0  0  0  0  0  0  0  0  0  0  0  0
   37.1071   20.5287   36.6430 H   0  0  0  0  0  0  0  0  0  0  0  0
   38.1495   35.8956   40.6021 H   0  0  0  0  0  0  0  0  0  0  0  0
   40.4101   37.2699   40.2258 H   0  0  0  0  0  0  0  0  0  0  0  0
   42.1789   35.4705   39.2200 H   0  0  0  0  0  0  0  0  0  0  0  0
  2  1  2  0
  3  2  1  0
  4  3  2  0
  4  5  1  0
  5  6  2  0
  6  1  1  0
  7  3  1  0
  7  8  1  0
  9 14  2  0
  9 10  1  0
 10 11  2  0
 11 12  1  0
 12  8  1  0
 13 12  2  0
 14 13  1  0
 15 16  2  0
 15  9  1  0
 17 15  2  0
 18  5  1  0
 19 23  1  0
 19 18  1  0
 20 19  2  0
 21 20  1  0
 21 22  1  0
 22 23  2  0
 24 22  1  0
 24 25  2  0
 26 25  1  0
 27 26  2  0
 28 27  1  0
 28 24  1  0
  1 29  1  0
  2 30  1  0
  7 31  1  0
  7 32  1  0
  8 33  1  0
  8 34  1  0
 10 35  1  0
 11 36  1  0
 13 37  1  0
 14 38  1  0
 15 39  1  0
 25 40  1  0
 26 41  1  0
 27 42  1  0
M  ISO  8  29  14  30  14  31   8  32   8  33   8  34   8  35  14  36  14
M  ISO  6  37  14  38  14  39  11  40  14  41  14  42  14
M  END
>  <minimizedAffinity>  (1) 
-6.03261232

>  <minimizedRMSD>  (1) 
0.434707761

$$$$
