
     RDKit          3D

 35 38  0  0  1  0  0  0  0  0999 V2000
   38.2020   30.8740   40.6770 N   0  0  0  0  0  0  0  0  0  0  0  0
   36.7410   30.9610   40.9330 C   0  0  0  0  0  0  0  0  0  0  0  0
   35.9470   30.3640   39.8110 C   0  0  0  0  0  0  0  0  0  0  0  0
   36.4530   30.7350   38.5750 O   0  0  0  0  0  0  0  0  0  0  0  0
   37.1550   31.9110   38.7330 C   0  0  0  0  0  0  0  0  0  0  0  0
   38.4490   31.6940   39.5460 C   0  0  1  0  0  0  0  0  0  0  0  0
   39.1500   30.0400   42.9360 C   0  0  1  0  0  0  0  0  0  0  0  0
   40.2690   30.6480   42.1830 C   0  0  0  0  0  0  0  0  0  0  0  0
   38.9220   31.1190   41.8540 C   0  0  1  0  0  0  0  0  0  0  0  0
   39.3870   26.6420   41.5470 C   0  0  0  0  0  0  0  0  0  0  0  0
   38.1630   26.0560   41.9490 C   0  0  0  0  0  0  0  0  0  0  0  0
   37.2590   26.8680   42.6960 C   0  0  0  0  0  0  0  0  0  0  0  0
   37.6180   28.1760   42.9880 N   0  0  0  0  0  0  0  0  0  0  0  0
   38.7950   28.6470   42.5690 C   0  0  0  0  0  0  0  0  0  0  0  0
   39.6790   27.9130   41.8590 N   0  0  0  0  0  0  0  0  0  0  0  0
   39.0000   33.0370   39.8240 C   0  0  0  0  0  0  0  0  0  0  0  0
   40.2500   33.5800   39.9200 N   0  0  0  0  0  0  0  0  0  0  0  0
   40.1830   34.8250   40.1880 O   0  0  0  0  0  0  0  0  0  0  0  0
   38.9270   35.1370   40.2760 C   0  0  0  0  0  0  0  0  0  0  0  0
   38.1710   34.0500   40.0550 N   0  0  0  0  0  0  0  0  0  0  0  0
   36.5087   30.4197   41.8620 H   0  0  0  0  0  0  0  0  0  0  0  0
   36.4697   32.0236   41.0186 H   0  0  0  0  0  0  0  0  0  0  0  0
   35.9783   29.2677   39.8952 H   0  0  0  0  0  0  0  0  0  0  0  0
   34.9138   30.7340   39.8853 H   0  0  0  0  0  0  0  0  0  0  0  0
   37.4186   32.3057   37.7407 H   0  0  0  0  0  0  0  0  0  0  0  0
   36.5186   32.6212   39.2813 H   0  0  0  0  0  0  0  0  0  0  0  0
   39.2160   31.1290   38.9961 H   0  0  0  0  0  0  0  0  0  0  0  0
   38.8813   29.9160   43.9954 H   0  0  0  0  0  0  0  0  0  0  0  0
   40.9660   31.3228   42.7015 H   0  0  0  0  0  0  0  0  0  0  0  0
   41.0939   30.2333   41.5851 H   0  0  0  0  0  0  0  0  0  0  0  0
   38.4605   32.1150   41.7831 H   0  0  0  0  0  0  0  0  0  0  0  0
   40.1094   26.0460   40.9701 H   0  0  0  0  0  0  0  0  0  0  0  0
   37.9182   25.0141   41.6950 H   0  0  0  0  0  0  0  0  0  0  0  0
   36.2936   26.4640   43.0348 H   0  0  0  0  0  0  0  0  0  0  0  0
   38.5393   36.1421   40.4985 H   0  0  0  0  0  0  0  0  0  0  0  0
  1  2  1  0
  1  9  1  0
  3  2  1  0
  4  5  1  0
  4  3  1  0
  5  6  1  0
  6 16  1  0
  6  1  1  0
  8  7  1  0
  9  8  1  0
  9  7  1  0
 10 15  2  0
 10 11  1  0
 11 12  2  0
 12 13  1  0
 14  7  1  0
 14 13  2  0
 15 14  1  0
 16 17  2  0
 16 20  1  0
 17 18  1  0
 18 19  1  0
 20 19  2  0
  2 21  1  0
  2 22  1  0
  3 23  1  0
  3 24  1  0
  5 25  1  0
  5 26  1  0
  6 27  1  6
  7 28  1  1
  8 29  1  0
  8 30  1  0
  9 31  1  1
 10 32  1  0
 11 33  1  0
 12 34  1  0
 19 35  1  0
M  ISO  8  21  13  22  13  23  13  24  13  25  13  26  13  27  13  28  13
M  ISO  7  29  13  30  13  31  13  32  14  33  14  34  14  35  14
M  END
>  <minimizedAffinity>  (1) 
-5.01857615

>  <minimizedRMSD>  (1) 
2.72090816

$$$$
