
     RDKit          3D

 31 34  0  0  0  0  0  0  0  0999 V2000
   38.6590   28.8740   41.5770 C   0  0  0  0  0  0  0  0  0  0  0  0
   39.4220   30.0600   41.6500 C   0  0  0  0  0  0  0  0  0  0  0  0
   40.6010   30.1920   42.3560 C   0  0  0  0  0  0  0  0  0  0  0  0
   41.0720   29.0900   43.0410 C   0  0  0  0  0  0  0  0  0  0  0  0
   40.3890   27.9070   43.0170 C   0  0  0  0  0  0  0  0  0  0  0  0
   40.8670   26.8250   43.6980 C   0  0  0  0  0  0  0  0  0  0  0  0
   40.1910   25.5950   43.6950 C   0  0  0  0  0  0  0  0  0  0  0  0
   39.0120   25.5620   42.9540 C   0  0  0  0  0  0  0  0  0  0  0  0
   38.5720   26.6700   42.2880 C   0  0  0  0  0  0  0  0  0  0  0  0
   39.2240   27.8640   42.2880 C   0  0  0  0  0  0  0  0  0  0  0  0
   37.4670   28.9440   40.7920 C   0  0  0  0  0  0  0  0  0  0  0  0
   36.1300   29.0670   41.1980 C   0  0  0  0  0  0  0  0  0  0  0  0
   35.0770   29.1640   40.2900 C   0  0  0  0  0  0  0  0  0  0  0  0
   35.4260   29.1320   38.9780 N   0  0  0  0  0  0  0  0  0  0  0  0
   36.6840   29.0150   38.5690 C   0  0  0  0  0  0  0  0  0  0  0  0
   37.6730   28.9240   39.4640 N   0  0  0  0  0  0  0  0  0  0  0  0
   42.1250   26.8580   44.4900 C   0  0  0  0  0  0  0  0  0  0  0  0
   43.2620   26.3430   43.9900 N   0  0  0  0  0  0  0  0  0  0  0  0
   44.2420   26.4530   44.7950 O   0  0  0  0  0  0  0  0  0  0  0  0
   43.7900   27.0490   45.8630 C   0  0  0  0  0  0  0  0  0  0  0  0
   42.4980   27.2920   45.6670 N   0  0  0  0  0  0  0  0  0  0  0  0
   39.0507   30.9409   41.1059 H   0  0  0  0  0  0  0  0  0  0  0  0
   41.1483   31.1461   42.3722 H   0  0  0  0  0  0  0  0  0  0  0  0
   42.0085   29.1652   43.6131 H   0  0  0  0  0  0  0  0  0  0  0  0
   40.5667   24.7169   44.2407 H   0  0  0  0  0  0  0  0  0  0  0  0
   38.4277   24.6313   42.9047 H   0  0  0  0  0  0  0  0  0  0  0  0
   37.6346   26.5925   41.7176 H   0  0  0  0  0  0  0  0  0  0  0  0
   35.9039   29.0877   42.2743 H   0  0  0  0  0  0  0  0  0  0  0  0
   34.0306   29.2603   40.6152 H   0  0  0  0  0  0  0  0  0  0  0  0
   36.9124   28.9929   37.4932 H   0  0  0  0  0  0  0  0  0  0  0  0
   44.3713   27.3039   46.7614 H   0  0  0  0  0  0  0  0  0  0  0  0
  1  2  2  0
  1 10  1  0
  2  3  1  0
  3  4  2  0
  5  4  1  0
  5  6  2  0
  6 17  1  0
  7  6  1  0
  8  7  2  0
  9  8  1  0
 10  9  2  0
 10  5  1  0
 11 12  2  0
 11  1  1  0
 13 12  1  0
 14 13  2  0
 15 14  1  0
 15 16  2  0
 16 11  1  0
 17 21  1  0
 18 17  2  0
 18 19  1  0
 19 20  1  0
 21 20  2  0
  2 22  1  0
  3 23  1  0
  4 24  1  0
  7 25  1  0
  8 26  1  0
  9 27  1  0
 12 28  1  0
 13 29  1  0
 15 30  1  0
 20 31  1  0
M  ISO  8  22  14  23  14  24  14  25  14  26  14  27  14  28  14  29  14
M  ISO  2  30  14  31  14
M  END
>  <minimizedAffinity>  (1) 
-5.09406424

>  <minimizedRMSD>  (1) 
4.43716431

$$$$
