
     RDKit          3D

 48 52  0  0  1  0  0  0  0  0999 V2000
   38.8980   35.4610   40.2220 C   0  0  0  0  0  0  0  0  0  0  0  0
   40.2500   35.7940   40.3520 C   0  0  0  0  0  0  0  0  0  0  0  0
   41.1460   34.7210   40.5630 C   0  0  0  0  0  0  0  0  0  0  0  0
   40.6090   33.5180   40.6130 N   0  0  0  0  0  0  0  0  0  0  0  0
   39.3480   33.1630   40.4970 C   0  0  0  0  0  0  0  0  0  0  0  0
   38.5230   34.1890   40.2980 N   0  0  0  0  0  0  0  0  0  0  0  0
   38.6540   31.8890   40.5380 C   0  0  0  0  0  0  0  0  0  0  0  0
   38.5030   31.1540   41.6610 N   0  0  0  0  0  0  0  0  0  0  0  0
   37.8760   29.9920   41.7310 C   0  0  0  0  0  0  0  0  0  0  0  0
   37.3350   29.4440   40.6640 N   0  0  0  0  0  0  0  0  0  0  0  0
   37.4150   30.0790   39.4700 C   0  0  0  0  0  0  0  0  0  0  0  0
   36.8480   29.5140   38.3390 C   0  0  0  0  0  0  0  0  0  0  0  0
   36.9160   30.1300   37.1370 C   0  0  0  0  0  0  0  0  0  0  0  0
   37.5840   31.3770   37.0540 C   0  0  0  0  0  0  0  0  0  0  0  0
   38.1230   31.8750   38.2180 C   0  0  0  0  0  0  0  0  0  0  0  0
   38.0760   31.2870   39.4430 C   0  0  0  0  0  0  0  0  0  0  0  0
   42.4420   34.9250   40.7010 O   0  0  0  0  0  0  0  0  0  0  0  0
   43.1700   34.7660   41.9080 C   0  0  2  0  0  0  0  0  0  0  0  0
   43.0330   36.1640   42.6230 C   0  0  0  0  0  0  0  0  0  0  0  0
   44.6110   34.5080   41.6670 C   0  0  0  0  0  0  0  0  0  0  0  0
   45.1870   34.0410   42.9190 N   0  0  0  0  0  0  0  0  0  0  0  0
   46.2740   34.6030   43.5110 C   0  0  0  0  0  0  0  0  0  0  0  0
   46.5440   33.9180   44.6610 N   0  0  0  0  0  0  0  0  0  0  0  0
   45.6130   32.9340   44.7610 C   0  0  0  0  0  0  0  0  0  0  0  0
   44.7900   33.0360   43.6720 N   0  0  0  0  0  0  0  0  0  0  0  0
   45.5080   31.9470   45.8340 C   0  0  0  0  0  0  0  0  0  0  0  0
   44.3210   31.8590   46.5340 C   0  0  0  0  0  0  0  0  0  0  0  0
   44.2860   30.8970   47.5460 C   0  0  0  0  0  0  0  0  0  0  0  0
   45.3470   30.1270   47.8000 N   0  0  0  0  0  0  0  0  0  0  0  0
   46.4950   30.2270   47.1070 C   0  0  0  0  0  0  0  0  0  0  0  0
   46.5630   31.1590   46.1100 N   0  0  0  0  0  0  0  0  0  0  0  0
   38.1484   36.2490   40.0575 H   0  0  0  0  0  0  0  0  0  0  0  0
   40.5979   36.8359   40.2932 H   0  0  0  0  0  0  0  0  0  0  0  0
   37.8053   29.4740   42.6988 H   0  0  0  0  0  0  0  0  0  0  0  0
   36.3326   28.5456   38.4204 H   0  0  0  0  0  0  0  0  0  0  0  0
   36.4633   29.6736   36.2444 H   0  0  0  0  0  0  0  0  0  0  0  0
   37.6678   31.9221   36.1023 H   0  0  0  0  0  0  0  0  0  0  0  0
   38.6422   32.8425   38.1509 H   0  0  0  0  0  0  0  0  0  0  0  0
   42.7863   33.9129   42.4867 H   0  0  0  0  0  0  0  0  0  0  0  0
   43.0470   36.0210   43.7136 H   0  0  0  0  0  0  0  0  0  0  0  0
   43.8721   36.8109   42.3272 H   0  0  0  0  0  0  0  0  0  0  0  0
   42.0843   36.6357   42.3272 H   0  0  0  0  0  0  0  0  0  0  0  0
   44.7300   33.7394   40.8891 H   0  0  0  0  0  0  0  0  0  0  0  0
   45.1167   35.4232   41.3254 H   0  0  0  0  0  0  0  0  0  0  0  0
   46.8407   35.4645   43.1281 H   0  0  0  0  0  0  0  0  0  0  0  0
   43.4591   32.5045   46.3093 H   0  0  0  0  0  0  0  0  0  0  0  0
   43.3705   30.7718   48.1428 H   0  0  0  0  0  0  0  0  0  0  0  0
   47.3534   29.5782   47.3357 H   0  0  0  0  0  0  0  0  0  0  0  0
  1  6  2  0
  1  2  1  0
  2  3  2  0
  3  4  1  0
  3 17  1  0
  5  7  1  0
  5  4  2  0
  6  5  1  0
  7  8  2  0
  8  9  1  0
 10  9  2  0
 11 10  1  0
 12 11  2  0
 13 12  1  0
 14 13  2  0
 14 15  1  0
 15 16  2  0
 16 11  1  0
 16  7  1  0
 17 18  1  0
 18 19  1  0
 20 18  1  0
 20 21  1  0
 21 22  1  0
 21 25  1  0
 22 23  2  0
 23 24  1  0
 24 26  1  0
 25 24  2  0
 26 31  1  0
 26 27  2  0
 27 28  1  0
 28 29  2  0
 30 29  1  0
 31 30  2  0
  1 32  1  0
  2 33  1  0
  9 34  1  0
 12 35  1  0
 13 36  1  0
 14 37  1  0
 15 38  1  0
 18 39  1  1
 19 40  1  0
 19 41  1  0
 19 42  1  0
 20 43  1  0
 20 44  1  0
 22 45  1  0
 27 46  1  0
 28 47  1  0
 30 48  1  0
M  ISO  8  32  14  33  14  34  14  35  14  36  14  37  14  38  14  39   8
M  ISO  8  40   8  41   8  42   8  43   8  44   8  45  14  46  14  47  14
M  ISO  1  48  14
M  END
>  <minimizedAffinity>  (1) 
-6.80968618

>  <minimizedRMSD>  (1) 
0.182256356

$$$$
