
     RDKit          3D

 48 52  0  0  0  0  0  0  0  0999 V2000
   35.9930   29.9880   40.9360 C   0  0  0  0  0  0  0  0  0  0  0  0
   38.4320   28.1040   42.6190 C   0  0  0  0  0  0  0  0  0  0  0  0
   37.3500   27.2680   42.7070 C   0  0  0  0  0  0  0  0  0  0  0  0
   36.2940   27.9160   42.0580 C   0  0  0  0  0  0  0  0  0  0  0  0
   36.8250   29.0790   41.6390 N   0  0  0  0  0  0  0  0  0  0  0  0
   38.0710   29.2190   41.9500 N   0  0  0  0  0  0  0  0  0  0  0  0
   41.3370   26.4580   44.2780 C   0  0  0  0  0  0  0  0  0  0  0  0
   40.0420   26.6410   43.7800 C   0  0  0  0  0  0  0  0  0  0  0  0
   39.7580   27.8620   43.1490 C   0  0  0  0  0  0  0  0  0  0  0  0
   40.7260   28.8080   43.0430 N   0  0  0  0  0  0  0  0  0  0  0  0
   41.9730   28.5640   43.5530 C   0  0  0  0  0  0  0  0  0  0  0  0
   42.2670   27.4090   44.1570 N   0  0  0  0  0  0  0  0  0  0  0  0
   42.9730   29.6170   43.4100 C   0  0  0  0  0  0  0  0  0  0  0  0
   42.5530   30.9170   43.2200 C   0  0  0  0  0  0  0  0  0  0  0  0
   43.4620   31.9680   43.0760 C   0  0  0  0  0  0  0  0  0  0  0  0
   44.7760   31.6410   43.1340 N   0  0  0  0  0  0  0  0  0  0  0  0
   45.1690   30.3570   43.3210 C   0  0  0  0  0  0  0  0  0  0  0  0
   44.2720   29.3650   43.4560 N   0  0  0  0  0  0  0  0  0  0  0  0
   35.1380   29.4010   39.8610 C   0  0  0  0  0  0  0  0  0  0  0  0
   35.7610   29.3730   38.5170 C   0  0  0  0  0  0  0  0  0  0  0  0
   37.0860   29.5180   38.2110 C   0  0  0  0  0  0  0  0  0  0  0  0
   37.6170   29.5470   36.9520 C   0  0  0  0  0  0  0  0  0  0  0  0
   36.7880   29.4240   35.8710 C   0  0  0  0  0  0  0  0  0  0  0  0
   35.4380   29.2750   36.1070 C   0  0  0  0  0  0  0  0  0  0  0  0
   34.6570   29.1660   34.9840 C   0  0  0  0  0  0  0  0  0  0  0  0
   33.2970   29.0180   35.1110 C   0  0  0  0  0  0  0  0  0  0  0  0
   32.7390   28.9780   36.3700 C   0  0  0  0  0  0  0  0  0  0  0  0
   33.5720   29.0900   37.4540 C   0  0  0  0  0  0  0  0  0  0  0  0
   34.9170   29.2440   37.3990 C   0  0  0  0  0  0  0  0  0  0  0  0
   32.9520   29.0270   38.6900 O   0  0  0  0  0  0  0  0  0  0  0  0
   35.3284   30.4701   41.6680 H   0  0  0  0  0  0  0  0  0  0  0  0
   36.6782   30.6793   40.4236 H   0  0  0  0  0  0  0  0  0  0  0  0
   37.3181   26.2814   43.1925 H   0  0  0  0  0  0  0  0  0  0  0  0
   35.2635   27.5564   41.9212 H   0  0  0  0  0  0  0  0  0  0  0  0
   41.5939   25.5128   44.7787 H   0  0  0  0  0  0  0  0  0  0  0  0
   39.2760   25.8578   43.8793 H   0  0  0  0  0  0  0  0  0  0  0  0
   41.4749   31.1317   43.1809 H   0  0  0  0  0  0  0  0  0  0  0  0
   43.1291   33.0053   42.9237 H   0  0  0  0  0  0  0  0  0  0  0  0
   46.2429   30.1224   43.3631 H   0  0  0  0  0  0  0  0  0  0  0  0
   34.8920   28.3673   40.1457 H   0  0  0  0  0  0  0  0  0  0  0  0
   34.2542   30.0508   39.7790 H   0  0  0  0  0  0  0  0  0  0  0  0
   37.7865   29.6204   39.0529 H   0  0  0  0  0  0  0  0  0  0  0  0
   38.7010   29.6681   36.8094 H   0  0  0  0  0  0  0  0  0  0  0  0
   37.1860   29.4434   34.8457 H   0  0  0  0  0  0  0  0  0  0  0  0
   35.1181   29.1970   33.9858 H   0  0  0  0  0  0  0  0  0  0  0  0
   32.6609   28.9324   34.2176 H   0  0  0  0  0  0  0  0  0  0  0  0
   31.6535   28.8593   36.5025 H   0  0  0  0  0  0  0  0  0  0  0  0
   33.4898   29.1006   39.5179 H   0  0  0  0  0  0  0  0  0  0  0  0
  1  5  1  0
  2  3  1  0
  2  9  1  0
  4  3  2  0
  5  6  1  0
  5  4  1  0
  6  2  2  0
  8  7  2  0
  9  8  1  0
 10  9  2  0
 10 11  1  0
 11 12  2  0
 12  7  1  0
 13 18  1  0
 13 11  1  0
 14 13  2  0
 15 16  2  0
 15 14  1  0
 16 17  1  0
 17 18  2  0
 19  1  1  0
 20 19  1  0
 21 20  2  0
 22 21  1  0
 23 24  1  0
 23 22  2  0
 24 29  2  0
 25 26  2  0
 25 24  1  0
 26 27  1  0
 27 28  2  0
 28 30  1  0
 29 28  1  0
 29 20  1  0
  1 31  1  0
  1 32  1  0
  3 33  1  0
  4 34  1  0
  7 35  1  0
  8 36  1  0
 14 37  1  0
 15 38  1  0
 17 39  1  0
 19 40  1  0
 19 41  1  0
 21 42  1  0
 22 43  1  0
 23 44  1  0
 25 45  1  0
 26 46  1  0
 27 47  1  0
 30 48  1  0
M  ISO  8  31   8  32   8  33  14  34  14  35  14  36  14  37  14  38  14
M  ISO  8  39  14  40   8  41   8  42  14  43  14  44  14  45  14  46  14
M  ISO  2  47  14  48   3
M  END
>  <minimizedAffinity>  (1) 
-6.09294891

>  <minimizedRMSD>  (1) 
0.474375963

$$$$
