
     RDKit          3D

 38 41  0  0  1  0  0  0  0  0999 V2000
   39.3280   31.7480   39.9230 N   0  0  0  0  0  0  0  0  0  0  0  0
   40.4910   31.0960   39.2630 C   0  0  0  0  0  0  0  0  0  0  0  0
   41.2360   30.2100   40.2130 C   0  0  0  0  0  0  0  0  0  0  0  0
   41.3990   30.8210   41.4540 O   0  0  0  0  0  0  0  0  0  0  0  0
   41.3140   32.1810   41.2700 C   0  0  0  0  0  0  0  0  0  0  0  0
   39.8790   32.6210   40.8990 C   0  0  1  0  0  0  0  0  0  0  0  0
   37.2420   31.5230   38.4090 C   0  0  1  0  0  0  0  0  0  0  0  0
   37.0980   32.7770   39.1790 C   0  0  0  0  0  0  0  0  0  0  0  0
   38.4620   32.2910   38.9630 C   0  0  1  0  0  0  0  0  0  0  0  0
   35.6020   29.2140   40.7620 C   0  0  0  0  0  0  0  0  0  0  0  0
   36.1360   27.9550   40.3780 C   0  0  0  0  0  0  0  0  0  0  0  0
   37.0730   27.9380   39.3060 C   0  0  0  0  0  0  0  0  0  0  0  0
   37.4160   29.1350   38.6970 N   0  0  0  0  0  0  0  0  0  0  0  0
   36.8660   30.2760   39.1190 C   0  0  0  0  0  0  0  0  0  0  0  0
   35.9740   30.3400   40.1330 N   0  0  0  0  0  0  0  0  0  0  0  0
   40.0380   34.0390   40.4540 C   0  0  0  0  0  0  0  0  0  0  0  0
   39.2180   35.1530   40.6780 C   0  0  0  0  0  0  0  0  0  0  0  0
   39.6210   36.3540   40.1390 C   0  0  0  0  0  0  0  0  0  0  0  0
   40.7540   36.4380   39.4270 N   0  0  0  0  0  0  0  0  0  0  0  0
   41.5530   35.3790   39.2000 C   0  0  0  0  0  0  0  0  0  0  0  0
   41.1650   34.2030   39.7260 N   0  0  0  0  0  0  0  0  0  0  0  0
   40.1296   30.4907   38.4186 H   0  0  0  0  0  0  0  0  0  0  0  0
   41.1765   31.8831   38.9158 H   0  0  0  0  0  0  0  0  0  0  0  0
   40.6736   29.2740   40.3457 H   0  0  0  0  0  0  0  0  0  0  0  0
   42.2321   30.0096   39.7916 H   0  0  0  0  0  0  0  0  0  0  0  0
   41.6118   32.6857   42.2009 H   0  0  0  0  0  0  0  0  0  0  0  0
   41.9816   32.4564   40.4403 H   0  0  0  0  0  0  0  0  0  0  0  0
   39.1587   32.5657   41.7285 H   0  0  0  0  0  0  0  0  0  0  0  0
   36.9230   31.1563   37.4222 H   0  0  0  0  0  0  0  0  0  0  0  0
   36.7621   33.6905   38.6665 H   0  0  0  0  0  0  0  0  0  0  0  0
   36.5253   33.0536   40.0765 H   0  0  0  0  0  0  0  0  0  0  0  0
   39.3805   32.7507   38.5692 H   0  0  0  0  0  0  0  0  0  0  0  0
   34.8744   29.2669   41.5853 H   0  0  0  0  0  0  0  0  0  0  0  0
   35.8370   27.0282   40.8895 H   0  0  0  0  0  0  0  0  0  0  0  0
   37.5173   26.9906   38.9667 H   0  0  0  0  0  0  0  0  0  0  0  0
   38.2891   35.0711   41.2614 H   0  0  0  0  0  0  0  0  0  0  0  0
   39.0073   37.2537   40.2940 H   0  0  0  0  0  0  0  0  0  0  0  0
   42.4786   35.4705   38.6127 H   0  0  0  0  0  0  0  0  0  0  0  0
  1  2  1  0
  1  6  1  0
  2  3  1  0
  3  4  1  0
  5  4  1  0
  6  5  1  0
  7  9  1  0
  7 14  1  0
  7  8  1  0
  9  8  1  0
  9  1  1  0
 11 10  2  0
 12 11  1  0
 13 14  1  0
 13 12  2  0
 14 15  2  0
 15 10  1  0
 16 17  2  0
 16  6  1  0
 18 17  1  0
 19 18  2  0
 20 19  1  0
 20 21  2  0
 21 16  1  0
  2 22  1  0
  2 23  1  0
  3 24  1  0
  3 25  1  0
  5 26  1  0
  5 27  1  0
  6 28  1  1
  7 29  1  6
  8 30  1  0
  8 31  1  0
  9 32  1  6
 10 33  1  0
 11 34  1  0
 12 35  1  0
 17 36  1  0
 18 37  1  0
 20 38  1  0
M  ISO  8  22  13  23  13  24  13  25  13  26  13  27  13  28  13  29  13
M  ISO  8  30  13  31  13  32  13  33  14  34  14  35  14  36  14  37  14
M  ISO  1  38  14
M  END
>  <minimizedAffinity>  (1) 
-5.06898355

>  <minimizedRMSD>  (1) 
3.13317943

$$$$
