
     RDKit          3D

 49 53  0  0  1  0  0  0  0  0999 V2000
   39.1840   30.7770   41.9450 C   0  0  0  0  0  0  0  0  0  0  0  0
   38.8100   29.6670   42.6860 C   0  0  0  0  0  0  0  0  0  0  0  0
   37.5750   29.0460   42.6880 C   0  0  0  0  0  0  0  0  0  0  0  0
   36.7040   29.6440   41.8580 N   0  0  0  0  0  0  0  0  0  0  0  0
   36.9980   30.7120   41.1210 C   0  0  0  0  0  0  0  0  0  0  0  0
   38.2100   31.2440   41.1830 N   0  0  0  0  0  0  0  0  0  0  0  0
   40.4430   31.4460   41.9220 C   0  0  0  0  0  0  0  0  0  0  0  0
   41.4400   31.0230   42.7930 C   0  0  0  0  0  0  0  0  0  0  0  0
   42.6860   31.6050   42.9040 C   0  0  0  0  0  0  0  0  0  0  0  0
   42.9850   32.6780   42.1120 C   0  0  0  0  0  0  0  0  0  0  0  0
   42.0360   33.1550   41.2170 C   0  0  0  0  0  0  0  0  0  0  0  0
   42.3270   34.2270   40.4090 C   0  0  0  0  0  0  0  0  0  0  0  0
   41.4250   34.7260   39.4990 C   0  0  0  0  0  0  0  0  0  0  0  0
   40.1920   34.0710   39.4480 C   0  0  0  0  0  0  0  0  0  0  0  0
   39.9620   33.0100   40.2810 C   0  0  0  0  0  0  0  0  0  0  0  0
   40.8490   32.5180   41.1810 C   0  0  0  0  0  0  0  0  0  0  0  0
   37.3150   27.8940   43.5780 C   0  0  2  0  0  0  0  0  0  0  0  0
   36.7290   28.2650   44.8900 C   0  0  0  0  0  0  0  0  0  0  0  0
   38.5750   27.0550   43.6740 C   0  0  0  0  0  0  0  0  0  0  0  0
   38.6040   25.8670   42.8570 C   0  0  0  0  0  0  0  0  0  0  0  0
   39.5990   24.9660   43.3400 C   0  0  0  0  0  0  0  0  0  0  0  0
   39.5800   23.7810   42.6510 N   0  0  0  0  0  0  0  0  0  0  0  0
   38.6150   23.8520   41.7230 C   0  0  0  0  0  0  0  0  0  0  0  0
   38.1320   23.0250   40.7390 C   0  0  0  0  0  0  0  0  0  0  0  0
   37.0860   23.3740   39.8520 C   0  0  0  0  0  0  0  0  0  0  0  0
   36.6520   24.6300   40.1240 C   0  0  0  0  0  0  0  0  0  0  0  0
   37.0230   25.5490   41.0470 C   0  0  0  0  0  0  0  0  0  0  0  0
   38.0620   25.1000   41.8750 C   0  0  0  0  0  0  0  0  0  0  0  0
   39.5785   29.2337   43.3431 H   0  0  0  0  0  0  0  0  0  0  0  0
   36.2361   31.1527   40.4612 H   0  0  0  0  0  0  0  0  0  0  0  0
   41.2197   30.1617   43.4409 H   0  0  0  0  0  0  0  0  0  0  0  0
   43.4257   31.2124   43.6173 H   0  0  0  0  0  0  0  0  0  0  0  0
   43.9709   33.1607   42.1829 H   0  0  0  0  0  0  0  0  0  0  0  0
   43.3154   34.7025   40.4928 H   0  0  0  0  0  0  0  0  0  0  0  0
   41.6590   35.5851   38.8531 H   0  0  0  0  0  0  0  0  0  0  0  0
   39.4141   34.4047   38.7455 H   0  0  0  0  0  0  0  0  0  0  0  0
   38.9806   32.5176   40.2154 H   0  0  0  0  0  0  0  0  0  0  0  0
   36.5221   27.2771   43.1301 H   0  0  0  0  0  0  0  0  0  0  0  0
   37.3589   27.8662   45.6988 H   0  0  0  0  0  0  0  0  0  0  0  0
   36.6773   29.3607   44.9718 H   0  0  0  0  0  0  0  0  0  0  0  0
   35.7165   27.8430   44.9718 H   0  0  0  0  0  0  0  0  0  0  0  0
   39.4248   27.6880   43.3788 H   0  0  0  0  0  0  0  0  0  0  0  0
   38.6191   26.7018   44.7148 H   0  0  0  0  0  0  0  0  0  0  0  0
   40.2939   25.1935   44.1618 H   0  0  0  0  0  0  0  0  0  0  0  0
   40.1999   22.9754   42.8175 H   0  0  0  0  0  0  0  0  0  0  0  0
   38.5866   22.0289   40.6336 H   0  0  0  0  0  0  0  0  0  0  0  0
   36.6849   22.7240   39.0604 H   0  0  0  0  0  0  0  0  0  0  0  0
   35.8387   24.9688   39.4653 H   0  0  0  0  0  0  0  0  0  0  0  0
   36.5587   26.5421   41.1376 H   0  0  0  0  0  0  0  0  0  0  0  0
  1  2  2  0
  2  3  1  0
  3 17  1  0
  4  3  2  0
  5  6  2  0
  5  4  1  0
  6  1  1  0
  7  1  1  0
  7  8  2  0
  8  9  1  0
 10  9  2  0
 11 10  1  0
 12 11  2  0
 13 12  1  0
 14 13  2  0
 14 15  1  0
 15 16  2  0
 16 11  1  0
 16  7  1  0
 17 19  1  0
 17 18  1  0
 20 21  2  0
 20 19  1  0
 22 21  1  0
 23 28  2  0
 23 22  1  0
 24 23  1  0
 25 26  1  0
 25 24  2  0
 26 27  2  0
 27 28  1  0
 28 20  1  0
  2 29  1  0
  5 30  1  0
  8 31  1  0
  9 32  1  0
 10 33  1  0
 12 34  1  0
 13 35  1  0
 14 36  1  0
 15 37  1  0
 17 38  1  6
 18 39  1  0
 18 40  1  0
 18 41  1  0
 19 42  1  0
 19 43  1  0
 21 44  1  0
 22 45  1  0
 24 46  1  0
 25 47  1  0
 26 48  1  0
 27 49  1  0
M  END
>  <minimizedAffinity>  (1) 
-7.34741068

>  <minimizedRMSD>  (1) 
1.61415994

$$$$
