
     RDKit          3D

 56 60  0  0  0  0  0  0  0  0999 V2000
   38.9230   31.7570   38.3180 C   0  0  0  0  0  0  0  0  0  0  0  0
   39.5260   31.5030   39.5400 C   0  0  0  0  0  0  0  0  0  0  0  0
   39.0080   30.4920   40.3590 C   0  0  0  0  0  0  0  0  0  0  0  0
   37.9000   29.8210   39.8460 N   0  0  0  0  0  0  0  0  0  0  0  0
   37.3580   30.1080   38.6580 C   0  0  0  0  0  0  0  0  0  0  0  0
   37.8670   31.0710   37.8980 N   0  0  0  0  0  0  0  0  0  0  0  0
   40.6710   32.2020   40.0830 C   0  0  0  0  0  0  0  0  0  0  0  0
   40.7650   33.1980   40.9430 N   0  0  0  0  0  0  0  0  0  0  0  0
   41.9970   33.5120   41.1550 O   0  0  0  0  0  0  0  0  0  0  0  0
   42.7820   32.7430   40.4480 C   0  0  0  0  0  0  0  0  0  0  0  0
   41.9680   31.9170   39.7700 N   0  0  0  0  0  0  0  0  0  0  0  0
   44.1890   32.6390   40.2910 N   0  0  0  0  0  0  0  0  0  0  0  0
   44.6430   31.4600   39.8360 C   0  0  0  0  0  0  0  0  0  0  0  0
   45.9940   31.2640   39.6450 C   0  0  0  0  0  0  0  0  0  0  0  0
   46.7980   32.3700   39.9600 C   0  0  0  0  0  0  0  0  0  0  0  0
   48.0430   32.2430   39.8020 O   0  0  0  0  0  0  0  0  0  0  0  0
   46.3140   33.5550   40.4180 N   0  0  0  0  0  0  0  0  0  0  0  0
   45.0010   33.6800   40.5810 C   0  0  0  0  0  0  0  0  0  0  0  0
   44.5240   34.7420   40.9970 O   0  0  0  0  0  0  0  0  0  0  0  0
   36.1810   29.3200   38.2480 C   0  0  0  0  0  0  0  0  0  0  0  0
   35.7270   29.7480   37.0230 F   0  0  0  0  0  0  0  0  0  0  0  0
   36.4810   27.9990   38.1980 F   0  0  0  0  0  0  0  0  0  0  0  0
   35.1260   29.5400   39.1550 F   0  0  0  0  0  0  0  0  0  0  0  0
   39.4770   30.0570   41.7060 C   0  0  0  0  0  0  0  0  0  0  0  0
   40.1130   31.1570   42.5030 C   0  0  0  0  0  0  0  0  0  0  0  0
   40.6930   29.0940   41.4610 C   0  0  0  0  0  0  0  0  0  0  0  0
   38.5060   29.2280   42.4630 C   0  0  0  0  0  0  0  0  0  0  0  0
   38.9390   27.7960   42.6650 C   0  0  0  0  0  0  0  0  0  0  0  0
   39.9780   27.5560   43.5930 C   0  0  0  0  0  0  0  0  0  0  0  0
   40.4780   26.3350   43.9830 C   0  0  0  0  0  0  0  0  0  0  0  0
   39.9120   25.2210   43.4110 C   0  0  0  0  0  0  0  0  0  0  0  0
   38.8960   25.3670   42.4960 C   0  0  0  0  0  0  0  0  0  0  0  0
   38.3240   24.2730   41.8890 C   0  0  0  0  0  0  0  0  0  0  0  0
   37.3060   24.3840   40.9340 C   0  0  0  0  0  0  0  0  0  0  0  0
   36.8750   25.6760   40.6090 C   0  0  0  0  0  0  0  0  0  0  0  0
   37.4760   26.7290   41.2420 C   0  0  0  0  0  0  0  0  0  0  0  0
   38.4630   26.6260   42.1700 C   0  0  0  0  0  0  0  0  0  0  0  0
   39.3321   32.5515   37.6766 H   0  0  0  0  0  0  0  0  0  0  0  0
   43.9346   30.6480   39.6150 H   0  0  0  0  0  0  0  0  0  0  0  0
   46.4092   30.3151   39.2747 H   0  0  0  0  0  0  0  0  0  0  0  0
   46.9493   34.3366   40.6334 H   0  0  0  0  0  0  0  0  0  0  0  0
   39.9926   30.9488   43.5764 H   0  0  0  0  0  0  0  0  0  0  0  0
   41.1839   31.2149   42.2586 H   0  0  0  0  0  0  0  0  0  0  0  0
   39.6289   32.1140   42.2586 H   0  0  0  0  0  0  0  0  0  0  0  0
   41.1038   28.7687   42.4282 H   0  0  0  0  0  0  0  0  0  0  0  0
   40.3559   28.2153   40.8916 H   0  0  0  0  0  0  0  0  0  0  0  0
   41.4711   29.6235   40.8916 H   0  0  0  0  0  0  0  0  0  0  0  0
   38.3585   29.6864   43.4520 H   0  0  0  0  0  0  0  0  0  0  0  0
   37.5832   29.1975   41.8651 H   0  0  0  0  0  0  0  0  0  0  0  0
   40.4372   28.4429   44.0540 H   0  0  0  0  0  0  0  0  0  0  0  0
   41.2924   26.2543   44.7180 H   0  0  0  0  0  0  0  0  0  0  0  0
   40.2700   24.2173   43.6838 H   0  0  0  0  0  0  0  0  0  0  0  0
   38.6810   23.2699   42.1652 H   0  0  0  0  0  0  0  0  0  0  0  0
   36.8642   23.4952   40.4599 H   0  0  0  0  0  0  0  0  0  0  0  0
   36.0784   25.8389   39.8681 H   0  0  0  0  0  0  0  0  0  0  0  0
   37.1327   27.7403   40.9786 H   0  0  0  0  0  0  0  0  0  0  0  0
  1  2  2  0
  2  7  1  0
  2  3  1  0
  3 24  1  0
  4  3  2  0
  5  4  1  0
  6  1  1  0
  6  5  2  0
  7  8  2  0
  8  9  1  0
 10  9  1  0
 11  7  1  0
 11 10  2  0
 12 10  1  0
 12 18  1  0
 13 12  1  0
 14 13  2  0
 14 15  1  0
 15 17  1  0
 16 15  2  0
 17 18  1  0
 18 19  2  0
 20  5  1  0
 20 23  1  0
 21 20  1  0
 22 20  1  0
 24 27  1  0
 24 25  1  0
 26 24  1  0
 27 28  1  0
 28 29  2  0
 29 30  1  0
 31 30  2  0
 32 31  1  0
 33 32  2  0
 34 33  1  0
 35 34  2  0
 35 36  1  0
 36 37  2  0
 37 32  1  0
 37 28  1  0
  1 38  1  0
 13 39  1  0
 14 40  1  0
 17 41  1  0
 25 42  1  0
 25 43  1  0
 25 44  1  0
 26 45  1  0
 26 46  1  0
 26 47  1  0
 27 48  1  0
 27 49  1  0
 29 50  1  0
 30 51  1  0
 31 52  1  0
 33 53  1  0
 34 54  1  0
 35 55  1  0
 36 56  1  0
M  END
>  <minimizedAffinity>  (1) 
-7.02705383

>  <minimizedRMSD>  (1) 
4.79312277

$$$$
