
     RDKit          3D

 18 19  0  0  0  0  0  0  0  0999 V2000
   40.0230   26.7720   43.7960 C   0  0  0  0  0  0  0  0  0  0  0  0
   39.7430   25.4400   43.4500 C   0  0  0  0  0  0  0  0  0  0  0  0
   38.6560   25.1580   42.6420 C   0  0  0  0  0  0  0  0  0  0  0  0
   37.8910   26.2030   42.2100 N   0  0  0  0  0  0  0  0  0  0  0  0
   38.1730   27.4750   42.5500 C   0  0  0  0  0  0  0  0  0  0  0  0
   39.2320   27.7550   43.3370 N   0  0  0  0  0  0  0  0  0  0  0  0
   37.2450   28.4520   41.9910 C   0  0  0  0  0  0  0  0  0  0  0  0
   37.6670   29.7640   41.9280 C   0  0  0  0  0  0  0  0  0  0  0  0
   36.6080   30.4800   41.3630 C   0  0  0  0  0  0  0  0  0  0  0  0
   35.6060   29.6020   41.1090 N   0  0  0  0  0  0  0  0  0  0  0  0
   35.9810   28.3840   41.4820 N   0  0  0  0  0  0  0  0  0  0  0  0
   38.4220   23.8460   42.3330 O   0  0  0  0  0  0  0  0  0  0  0  0
   40.8841   27.0082   44.4384 H   0  0  0  0  0  0  0  0  0  0  0  0
   40.3841   24.6259   43.8192 H   0  0  0  0  0  0  0  0  0  0  0  0
   38.6378   30.1644   42.2553 H   0  0  0  0  0  0  0  0  0  0  0  0
   36.5904   31.5611   41.1607 H   0  0  0  0  0  0  0  0  0  0  0  0
   34.6956   29.8426   40.6916 H   0  0  0  0  0  0  0  0  0  0  0  0
   37.6542   23.6023   41.7575 H   0  0  0  0  0  0  0  0  0  0  0  0
  2  1  2  0
  3  2  1  0
  4  5  1  0
  4  3  2  0
  5  6  2  0
  6  1  1  0
  7  5  1  0
  8  7  1  0
  9  8  2  0
 10  9  1  0
 10 11  1  0
 11  7  2  0
 12  3  1  0
  1 13  1  0
  2 14  1  0
  8 15  1  0
  9 16  1  0
 10 17  1  0
 12 18  1  0
M  ISO  6  13  14  14  14  15  14  16  14  17   9  18   3
M  END
>  <minimizedAffinity>  (1) 
-4.14210463

>  <minimizedRMSD>  (1) 
2.74325705

$$$$
