
     RDKit          3D

 25 27  0  0  0  0  0  0  0  0999 V2000
   37.2000   30.2580   40.3680 C   0  0  0  0  0  0  0  0  0  0  0  0
   37.1470   31.6250   40.5110 C   0  0  0  0  0  0  0  0  0  0  0  0
   37.1410   32.3550   39.3320 C   0  0  0  0  0  0  0  0  0  0  0  0
   37.1830   31.7860   38.1140 N   0  0  0  0  0  0  0  0  0  0  0  0
   37.2340   30.4290   38.0100 C   0  0  0  0  0  0  0  0  0  0  0  0
   37.2420   29.6700   39.1460 N   0  0  0  0  0  0  0  0  0  0  0  0
   38.0800   28.8840   43.6560 C   0  0  0  0  0  0  0  0  0  0  0  0
   37.2000   27.7590   43.7520 C   0  0  0  0  0  0  0  0  0  0  0  0
   36.3400   27.5080   42.6970 C   0  0  0  0  0  0  0  0  0  0  0  0
   36.3860   28.3520   41.6320 N   0  0  0  0  0  0  0  0  0  0  0  0
   37.2100   29.3950   41.5520 C   0  0  0  0  0  0  0  0  0  0  0  0
   38.0480   29.6570   42.5570 N   0  0  0  0  0  0  0  0  0  0  0  0
   37.2840   29.6460   36.7790 C   0  0  0  0  0  0  0  0  0  0  0  0
   36.4120   29.9740   35.7340 C   0  0  0  0  0  0  0  0  0  0  0  0
   36.6440   29.0990   34.6810 C   0  0  0  0  0  0  0  0  0  0  0  0
   37.6250   28.2870   35.1110 N   0  0  0  0  0  0  0  0  0  0  0  0
   38.0120   28.5980   36.3440 N   0  0  0  0  0  0  0  0  0  0  0  0
   37.1116   32.1087   41.4983 H   0  0  0  0  0  0  0  0  0  0  0  0
   37.0999   33.4524   39.3960 H   0  0  0  0  0  0  0  0  0  0  0  0
   38.7770   29.1140   44.4753 H   0  0  0  0  0  0  0  0  0  0  0  0
   37.2071   27.1110   44.6409 H   0  0  0  0  0  0  0  0  0  0  0  0
   35.6443   26.6563   42.7193 H   0  0  0  0  0  0  0  0  0  0  0  0
   35.6700   30.7860   35.7452 H   0  0  0  0  0  0  0  0  0  0  0  0
   36.1351   29.0755   33.7061 H   0  0  0  0  0  0  0  0  0  0  0  0
   38.0269   27.5192   34.5543 H   0  0  0  0  0  0  0  0  0  0  0  0
  1  2  2  0
  1 11  1  0
  3  2  1  0
  4  3  2  0
  5  4  1  0
  5  6  2  0
  6  1  1  0
  7  8  2  0
  9  8  1  0
 10  9  2  0
 11 10  1  0
 11 12  2  0
 12  7  1  0
 13  5  1  0
 14 13  1  0
 15 16  1  0
 15 14  2  0
 16 17  1  0
 17 13  2  0
  2 18  1  0
  3 19  1  0
  7 20  1  0
  8 21  1  0
  9 22  1  0
 14 23  1  0
 15 24  1  0
 16 25  1  0
M  ISO  8  18  14  19  14  20  14  21  14  22  14  23  14  24  14  25   9
M  END
>  <minimizedAffinity>  (1) 
-4.76127529

>  <minimizedRMSD>  (1) 
0.632576466

$$$$
