
     RDKit          3D

 42 45  0  0  1  0  0  0  0  0999 V2000
   34.9910   29.3290   37.3750 N   0  0  0  0  0  0  0  0  0  0  0  0
   34.6610   28.7170   38.6300 C   0  0  0  0  0  0  0  0  0  0  0  0
   35.0420   29.5690   39.8220 C   0  0  0  0  0  0  0  0  0  0  0  0
   36.2100   30.4590   39.5120 C   0  0  2  0  0  0  0  0  0  0  0  0
   37.1190   29.8630   38.4480 C   0  0  0  0  0  0  0  0  0  0  0  0
   36.4130   29.5350   37.1820 C   0  0  1  0  0  0  0  0  0  0  0  0
   36.9700   28.2690   36.6360 C   0  0  0  0  0  0  0  0  0  0  0  0
   37.9670   27.3930   36.9980 C   0  0  0  0  0  0  0  0  0  0  0  0
   38.0450   26.3590   36.0960 C   0  0  0  0  0  0  0  0  0  0  0  0
   37.0810   26.6160   35.1770 N   0  0  0  0  0  0  0  0  0  0  0  0
   36.4470   27.7410   35.4940 N   0  0  0  0  0  0  0  0  0  0  0  0
   37.2360   30.6080   41.0030 S   0  0  0  0  0  0  0  0  0  0  0  0
   37.3440   26.6810   41.8760 C   0  0  0  0  0  0  0  0  0  0  0  0
   37.4670   26.6270   43.2410 C   0  0  0  0  0  0  0  0  0  0  0  0
   37.5210   27.8200   43.9420 C   0  0  0  0  0  0  0  0  0  0  0  0
   37.4470   29.0090   43.2250 C   0  0  0  0  0  0  0  0  0  0  0  0
   37.3230   29.0480   41.8520 C   0  0  0  0  0  0  0  0  0  0  0  0
   37.2760   27.8670   41.2190 N   0  0  0  0  0  0  0  0  0  0  0  0
   37.8080   23.1710   40.9390 C   0  0  0  0  0  0  0  0  0  0  0  0
   37.2120   23.1050   39.6640 C   0  0  0  0  0  0  0  0  0  0  0  0
   36.6520   24.2720   39.1300 C   0  0  0  0  0  0  0  0  0  0  0  0
   36.7180   25.3950   39.8760 N   0  0  0  0  0  0  0  0  0  0  0  0
   37.2810   25.4460   41.0770 C   0  0  0  0  0  0  0  0  0  0  0  0
   37.8150   24.3340   41.5840 N   0  0  0  0  0  0  0  0  0  0  0  0
   34.6445   28.7236   36.6171 H   0  0  0  0  0  0  0  0  0  0  0  0
   33.5758   28.5393   38.6587 H   0  0  0  0  0  0  0  0  0  0  0  0
   35.2326   27.7797   38.6994 H   0  0  0  0  0  0  0  0  0  0  0  0
   34.1817   30.1938   40.1042 H   0  0  0  0  0  0  0  0  0  0  0  0
   35.3278   28.8998   40.6469 H   0  0  0  0  0  0  0  0  0  0  0  0
   35.8014   31.4189   39.1632 H   0  0  0  0  0  0  0  0  0  0  0  0
   37.9158   30.5878   38.2248 H   0  0  0  0  0  0  0  0  0  0  0  0
   37.5149   28.9195   38.8518 H   0  0  0  0  0  0  0  0  0  0  0  0
   36.5576   30.3867   36.5011 H   0  0  0  0  0  0  0  0  0  0  0  0
   38.6102   27.5043   37.8834 H   0  0  0  0  0  0  0  0  0  0  0  0
   38.7398   25.5064   36.1152 H   0  0  0  0  0  0  0  0  0  0  0  0
   36.8717   26.0284   34.3573 H   0  0  0  0  0  0  0  0  0  0  0  0
   37.5213   25.6614   43.7651 H   0  0  0  0  0  0  0  0  0  0  0  0
   37.6199   27.8268   45.0375 H   0  0  0  0  0  0  0  0  0  0  0  0
   37.4892   29.9597   43.7767 H   0  0  0  0  0  0  0  0  0  0  0  0
   38.2595   22.2765   41.3928 H   0  0  0  0  0  0  0  0  0  0  0  0
   37.1872   22.1598   39.1018 H   0  0  0  0  0  0  0  0  0  0  0  0
   36.1756   24.2736   38.1385 H   0  0  0  0  0  0  0  0  0  0  0  0
  1  2  1  0
  2  3  1  0
  4  3  1  0
  4 12  1  0
  5  4  1  0
  6  1  1  0
  6  5  1  0
  7  8  1  0
  7  6  1  0
  9  8  2  0
 10 11  1  0
 10  9  1  0
 11  7  2  0
 12 17  1  0
 13 14  2  0
 14 15  1  0
 16 15  2  0
 17 16  1  0
 18 17  2  0
 18 13  1  0
 19 24  2  0
 20 19  1  0
 21 20  2  0
 21 22  1  0
 22 23  2  0
 23 24  1  0
 23 13  1  0
  1 25  1  0
  2 26  1  0
  2 27  1  0
  3 28  1  0
  3 29  1  0
  4 30  1  6
  5 31  1  0
  5 32  1  0
  6 33  1  6
  8 34  1  0
  9 35  1  0
 10 36  1  0
 14 37  1  0
 15 38  1  0
 16 39  1  0
 19 40  1  0
 20 41  1  0
 21 42  1  0
M  ISO  8  25   5  26  13  27  13  28  13  29  13  30  13  31  13  32  13
M  ISO  8  33  13  34  14  35  14  36   9  37  14  38  14  39  14  40  14
M  ISO  2  41  14  42  14
M  END
>  <minimizedAffinity>  (1) 
-5.09038877

>  <minimizedRMSD>  (1) 
4.77635002

$$$$
