
     RDKit          3D

 31 34  0  0  1  0  0  0  0  0999 V2000
   38.4500   29.1030   42.6060 C   0  0  0  0  0  0  0  0  0  0  0  0
   37.4090   28.6650   43.4450 C   0  0  0  0  0  0  0  0  0  0  0  0
   37.8860   27.4800   44.0050 C   0  0  0  0  0  0  0  0  0  0  0  0
   39.1170   27.2540   43.5210 N   0  0  0  0  0  0  0  0  0  0  0  0
   39.4580   28.2260   42.6820 N   0  0  0  0  0  0  0  0  0  0  0  0
   36.9800   31.7140   40.4900 C   0  0  0  0  0  0  0  0  0  0  0  0
   38.0170   32.6520   40.3890 C   0  0  0  0  0  0  0  0  0  0  0  0
   39.2150   32.3830   41.0460 C   0  0  0  0  0  0  0  0  0  0  0  0
   39.3330   31.2330   41.7550 N   0  0  0  0  0  0  0  0  0  0  0  0
   38.3070   30.3380   41.8370 C   0  0  0  0  0  0  0  0  0  0  0  0
   37.1310   30.5930   41.1970 N   0  0  0  0  0  0  0  0  0  0  0  0
   39.9110   26.0960   43.9000 C   0  0  2  0  0  0  0  0  0  0  0  0
   41.0080   25.6690   42.8680 C   0  0  0  0  0  0  0  0  0  0  0  0
   39.7940   24.8250   43.1520 C   0  0  2  0  0  0  0  0  0  0  0  0
   38.7700   24.6650   42.0810 C   0  0  0  0  0  0  0  0  0  0  0  0
   37.4460   24.2850   42.1890 C   0  0  0  0  0  0  0  0  0  0  0  0
   36.9750   24.3060   40.8900 C   0  0  0  0  0  0  0  0  0  0  0  0
   37.9690   24.6810   40.0350 N   0  0  0  0  0  0  0  0  0  0  0  0
   39.0370   24.8910   40.7830 N   0  0  0  0  0  0  0  0  0  0  0  0
   36.4367   29.1487   43.6201 H   0  0  0  0  0  0  0  0  0  0  0  0
   37.3465   26.8412   44.7197 H   0  0  0  0  0  0  0  0  0  0  0  0
   36.0257   31.9057   39.9776 H   0  0  0  0  0  0  0  0  0  0  0  0
   37.8878   33.5760   39.8062 H   0  0  0  0  0  0  0  0  0  0  0  0
   40.0534   33.0930   40.9907 H   0  0  0  0  0  0  0  0  0  0  0  0
   39.8542   26.3478   44.9693 H   0  0  0  0  0  0  0  0  0  0  0  0
   42.0020   25.3482   43.2130 H   0  0  0  0  0  0  0  0  0  0  0  0
   41.4717   26.1143   41.9754 H   0  0  0  0  0  0  0  0  0  0  0  0
   39.6367   23.7840   43.4706 H   0  0  0  0  0  0  0  0  0  0  0  0
   36.8919   24.0245   43.1028 H   0  0  0  0  0  0  0  0  0  0  0  0
   35.9468   24.0563   40.5891 H   0  0  0  0  0  0  0  0  0  0  0  0
   37.9006   24.7804   39.0121 H   0  0  0  0  0  0  0  0  0  0  0  0
  1  5  2  0
  1  2  1  0
  2  3  2  0
  4 12  1  0
  4  3  1  0
  5  4  1  0
  6 11  2  0
  7  6  1  0
  7  8  2  0
  8  9  1  0
  9 10  2  0
 10  1  1  0
 11 10  1  0
 13 14  1  0
 13 12  1  0
 14 12  1  0
 15 16  1  0
 15 14  1  0
 17 16  2  0
 18 19  1  0
 18 17  1  0
 19 15  2  0
  2 20  1  0
  3 21  1  0
  6 22  1  0
  7 23  1  0
  8 24  1  0
 12 25  1  1
 13 26  1  0
 13 27  1  0
 14 28  1  1
 16 29  1  0
 17 30  1  0
 18 31  1  0
M  ISO  8  20  14  21  14  22  14  23  14  24  14  25  13  26  13  27  13
M  ISO  4  28  13  29  14  30  14  31   9
M  END
>  <minimizedAffinity>  (1) 
-5.06390142

>  <minimizedRMSD>  (1) 
1.77602899

$$$$
