
     RDKit          3D

 50 54  0  0  1  0  0  0  0  0999 V2000
   39.4520   35.6940   39.9610 C   0  0  0  0  0  0  0  0  0  0  0  0
   40.7190   36.1590   40.3300 C   0  0  0  0  0  0  0  0  0  0  0  0
   41.5770   35.2110   40.9090 C   0  0  0  0  0  0  0  0  0  0  0  0
   41.0970   33.9790   41.0410 N   0  0  0  0  0  0  0  0  0  0  0  0
   39.9030   33.5160   40.6990 C   0  0  0  0  0  0  0  0  0  0  0  0
   39.1170   34.4250   40.1590 N   0  0  0  0  0  0  0  0  0  0  0  0
   39.2750   32.2080   40.7940 C   0  0  0  0  0  0  0  0  0  0  0  0
   39.3170   31.4370   41.8850 N   0  0  0  0  0  0  0  0  0  0  0  0
   38.7530   30.2360   42.0070 C   0  0  0  0  0  0  0  0  0  0  0  0
   38.0900   29.7090   41.0180 N   0  0  0  0  0  0  0  0  0  0  0  0
   37.9650   30.3740   39.8530 C   0  0  0  0  0  0  0  0  0  0  0  0
   37.2580   29.8160   38.7980 C   0  0  0  0  0  0  0  0  0  0  0  0
   37.1190   30.4710   37.6200 C   0  0  0  0  0  0  0  0  0  0  0  0
   37.7150   31.7410   37.4940 C   0  0  0  0  0  0  0  0  0  0  0  0
   38.4070   32.2440   38.5770 C   0  0  0  0  0  0  0  0  0  0  0  0
   38.5650   31.6080   39.7780 C   0  0  0  0  0  0  0  0  0  0  0  0
   42.8150   35.4820   41.3180 O   0  0  0  0  0  0  0  0  0  0  0  0
   43.1870   35.7590   42.6580 C   0  0  2  0  0  0  0  0  0  0  0  0
   42.4920   37.0840   43.0620 C   0  0  0  0  0  0  0  0  0  0  0  0
   44.6770   35.9130   42.7660 C   0  0  0  0  0  0  0  0  0  0  0  0
   45.1440   35.3310   44.0390 C   0  0  0  0  0  0  0  0  0  0  0  0
   44.6110   35.6790   45.2890 C   0  0  0  0  0  0  0  0  0  0  0  0
   45.0400   35.1210   46.4750 C   0  0  0  0  0  0  0  0  0  0  0  0
   46.0410   34.1710   46.4540 C   0  0  0  0  0  0  0  0  0  0  0  0
   46.6080   33.7890   45.2320 C   0  0  0  0  0  0  0  0  0  0  0  0
   47.5970   32.8410   45.3240 C   0  0  0  0  0  0  0  0  0  0  0  0
   48.1940   32.4330   44.1270 C   0  0  0  0  0  0  0  0  0  0  0  0
   47.7510   33.0030   42.9530 C   0  0  0  0  0  0  0  0  0  0  0  0
   46.7610   33.9440   42.9230 C   0  0  0  0  0  0  0  0  0  0  0  0
   46.1390   34.3800   44.0790 C   0  0  0  0  0  0  0  0  0  0  0  0
   38.7285   36.3849   39.5036 H   0  0  0  0  0  0  0  0  0  0  0  0
   41.0243   37.2045   40.1757 H   0  0  0  0  0  0  0  0  0  0  0  0
   38.8485   29.6837   42.9535 H   0  0  0  0  0  0  0  0  0  0  0  0
   36.8014   28.8227   38.9201 H   0  0  0  0  0  0  0  0  0  0  0  0
   36.5572   30.0240   36.7866 H   0  0  0  0  0  0  0  0  0  0  0  0
   37.6313   32.3152   36.5595 H   0  0  0  0  0  0  0  0  0  0  0  0
   38.8687   33.2362   38.4656 H   0  0  0  0  0  0  0  0  0  0  0  0
   42.8828   34.9350   43.3201 H   0  0  0  0  0  0  0  0  0  0  0  0
   42.4532   37.1581   44.1588 H   0  0  0  0  0  0  0  0  0  0  0  0
   43.0601   37.9344   42.6570 H   0  0  0  0  0  0  0  0  0  0  0  0
   41.4694   37.1000   42.6570 H   0  0  0  0  0  0  0  0  0  0  0  0
   45.1606   35.3924   41.9263 H   0  0  0  0  0  0  0  0  0  0  0  0
   44.9369   36.9814   42.7358 H   0  0  0  0  0  0  0  0  0  0  0  0
   43.8117   36.4339   45.3250 H   0  0  0  0  0  0  0  0  0  0  0  0
   44.5884   35.4303   47.4292 H   0  0  0  0  0  0  0  0  0  0  0  0
   46.3915   33.7163   47.3923 H   0  0  0  0  0  0  0  0  0  0  0  0
   47.9052   32.4223   46.2934 H   0  0  0  0  0  0  0  0  0  0  0  0
   48.9945   31.6785   44.1226 H   0  0  0  0  0  0  0  0  0  0  0  0
   48.2117   32.6886   42.0049 H   0  0  0  0  0  0  0  0  0  0  0  0
   46.4508   34.3654   41.9554 H   0  0  0  0  0  0  0  0  0  0  0  0
  1  6  2  0
  1  2  1  0
  2  3  2  0
  3  4  1  0
  3 17  1  0
  5  7  1  0
  5  4  2  0
  6  5  1  0
  7  8  2  0
  8  9  1  0
 10  9  2  0
 11 10  1  0
 12 11  2  0
 13 12  1  0
 14 13  2  0
 14 15  1  0
 15 16  2  0
 16 11  1  0
 16  7  1  0
 17 18  1  0
 18 20  1  0
 18 19  1  0
 20 21  1  0
 21 30  1  0
 21 22  2  0
 22 23  1  0
 24 23  2  0
 25 26  2  0
 25 24  1  0
 27 26  1  0
 28 27  2  0
 29 28  1  0
 29 30  2  0
 30 25  1  0
  1 31  1  0
  2 32  1  0
  9 33  1  0
 12 34  1  0
 13 35  1  0
 14 36  1  0
 15 37  1  0
 18 38  1  1
 19 39  1  0
 19 40  1  0
 19 41  1  0
 20 42  1  0
 20 43  1  0
 22 44  1  0
 23 45  1  0
 24 46  1  0
 26 47  1  0
 27 48  1  0
 28 49  1  0
 29 50  1  0
M  ISO  8  31  14  32  14  33  14  34  14  35  14  36  14  37  14  38   8
M  ISO  8  39   8  40   8  41   8  42   8  43   8  44  14  45  14  46  14
M  ISO  4  47  14  48  14  49  14  50  14
M  END
>  <minimizedAffinity>  (1) 
-7.30086374

>  <minimizedRMSD>  (1) 
2.48409581

$$$$
