
     RDKit          3D

 18 19  0  0  0  0  0  0  0  0999 V2000
   40.1700   27.1900   43.6720 C   0  0  0  0  0  0  0  0  0  0  0  0
   40.4350   25.8040   43.6480 C   0  0  0  0  0  0  0  0  0  0  0  0
   39.4580   24.9310   43.1490 C   0  0  0  0  0  0  0  0  0  0  0  0
   38.3040   25.4930   42.7150 N   0  0  0  0  0  0  0  0  0  0  0  0
   38.0550   26.8120   42.7390 C   0  0  0  0  0  0  0  0  0  0  0  0
   38.9950   27.6530   43.2200 N   0  0  0  0  0  0  0  0  0  0  0  0
   36.7590   27.3210   42.2410 C   0  0  0  0  0  0  0  0  0  0  0  0
   36.5970   28.6720   41.7040 C   0  0  0  0  0  0  0  0  0  0  0  0
   36.7560   27.5420   40.7040 C   0  0  0  0  0  0  0  0  0  0  0  0
   39.7640   23.6000   43.1480 O   0  0  0  0  0  0  0  0  0  0  0  0
   40.9253   27.8890   44.0605 H   0  0  0  0  0  0  0  0  0  0  0  0
   41.3954   25.4138   44.0159 H   0  0  0  0  0  0  0  0  0  0  0  0
   36.1854   26.7789   43.0072 H   0  0  0  0  0  0  0  0  0  0  0  0
   35.6259   29.1800   41.7982 H   0  0  0  0  0  0  0  0  0  0  0  0
   37.1235   29.6240   41.8668 H   0  0  0  0  0  0  0  0  0  0  0  0
   35.9022   27.2119   40.0941 H   0  0  0  0  0  0  0  0  0  0  0  0
   37.4294   27.3104   39.8656 H   0  0  0  0  0  0  0  0  0  0  0  0
   39.1085   22.9416   42.8061 H   0  0  0  0  0  0  0  0  0  0  0  0
  2  1  2  0
  3  2  1  0
  4  5  1  0
  4  3  2  0
  5  6  2  0
  6  1  1  0
  7  5  1  0
  8  7  1  0
  9  8  1  0
  9  7  1  0
 10  3  1  0
  1 11  1  0
  2 12  1  0
  7 13  1  0
  8 14  1  0
  8 15  1  0
  9 16  1  0
  9 17  1  0
 10 18  1  0
M  ISO  8  11  14  12  14  13  13  14  13  15  13  16  13  17  13  18   3
M  END
>  <minimizedAffinity>  (1) 
-3.53817725

>  <minimizedRMSD>  (1) 
3.30054116

$$$$
