
     RDKit          3D

 48 52  0  0  0  0  0  0  0  0999 V2000
   39.7110   36.3590   40.1170 S   0  0  0  0  0  0  0  0  0  0  0  0
   43.1950   34.6150   40.8310 C   0  0  0  0  0  0  0  0  0  0  0  0
   43.6640   35.2670   41.9980 C   0  0  0  0  0  0  0  0  0  0  0  0
   42.8960   36.2430   42.5750 C   0  0  0  0  0  0  0  0  0  0  0  0
   41.7120   36.5400   41.9910 N   0  0  0  0  0  0  0  0  0  0  0  0
   41.2740   35.9140   40.8800 C   0  0  0  0  0  0  0  0  0  0  0  0
   42.0110   34.9680   40.3170 N   0  0  0  0  0  0  0  0  0  0  0  0
   43.4480   36.8810   43.7660 C   0  0  0  0  0  0  0  0  0  0  0  0
   44.8870   36.7050   44.0090 C   0  0  0  0  0  0  0  0  0  0  0  0
   45.3170   35.5470   44.7860 C   0  0  0  0  0  0  0  0  0  0  0  0
   46.1760   34.7070   44.0480 C   0  0  0  0  0  0  0  0  0  0  0  0
   46.7460   33.5290   44.4860 C   0  0  0  0  0  0  0  0  0  0  0  0
   46.4690   33.1020   45.7670 C   0  0  0  0  0  0  0  0  0  0  0  0
   45.6440   33.8720   46.5340 C   0  0  0  0  0  0  0  0  0  0  0  0
   45.1110   35.0290   46.0400 C   0  0  0  0  0  0  0  0  0  0  0  0
   37.0550   33.4530   39.8690 N   0  0  0  0  0  0  0  0  0  0  0  0
   37.4010   34.6740   39.5620 N   0  0  0  0  0  0  0  0  0  0  0  0
   38.6380   34.9160   40.0780 C   0  0  0  0  0  0  0  0  0  0  0  0
   38.9820   33.7260   40.7070 C   0  0  0  0  0  0  0  0  0  0  0  0
   37.9320   32.7940   40.5550 C   0  0  0  0  0  0  0  0  0  0  0  0
   38.0510   31.5220   41.1570 C   0  0  0  0  0  0  0  0  0  0  0  0
   39.1160   31.2460   41.9610 N   0  0  0  0  0  0  0  0  0  0  0  0
   39.3380   30.1260   42.6070 C   0  0  0  0  0  0  0  0  0  0  0  0
   38.5040   29.0840   42.5470 N   0  0  0  0  0  0  0  0  0  0  0  0
   37.3990   29.2290   41.7770 C   0  0  0  0  0  0  0  0  0  0  0  0
   36.5080   28.2020   41.6670 C   0  0  0  0  0  0  0  0  0  0  0  0
   35.3640   28.3150   40.8740 C   0  0  0  0  0  0  0  0  0  0  0  0
   35.1900   29.5220   40.2090 C   0  0  0  0  0  0  0  0  0  0  0  0
   36.1330   30.5010   40.3770 C   0  0  0  0  0  0  0  0  0  0  0  0
   37.2450   30.4320   41.1330 C   0  0  0  0  0  0  0  0  0  0  0  0
   43.7969   33.8280   40.3531 H   0  0  0  0  0  0  0  0  0  0  0  0
   44.6349   34.9922   42.4361 H   0  0  0  0  0  0  0  0  0  0  0  0
   43.2545   37.9608   43.6844 H   0  0  0  0  0  0  0  0  0  0  0  0
   42.9516   36.3847   44.6130 H   0  0  0  0  0  0  0  0  0  0  0  0
   45.3784   36.6400   43.0270 H   0  0  0  0  0  0  0  0  0  0  0  0
   45.1672   37.5694   44.6289 H   0  0  0  0  0  0  0  0  0  0  0  0
   46.4155   35.0218   43.0216 H   0  0  0  0  0  0  0  0  0  0  0  0
   47.4060   32.9444   43.8282 H   0  0  0  0  0  0  0  0  0  0  0  0
   46.8999   32.1689   46.1590 H   0  0  0  0  0  0  0  0  0  0  0  0
   45.4055   33.5579   47.5609 H   0  0  0  0  0  0  0  0  0  0  0  0
   44.4536   35.6002   46.7120 H   0  0  0  0  0  0  0  0  0  0  0  0
   36.1523   33.0453   39.5865 H   0  0  0  0  0  0  0  0  0  0  0  0
   39.9256   33.5388   41.2405 H   0  0  0  0  0  0  0  0  0  0  0  0
   40.2461   30.0415   43.2220 H   0  0  0  0  0  0  0  0  0  0  0  0
   36.6943   27.2660   42.2139 H   0  0  0  0  0  0  0  0  0  0  0  0
   34.6397   27.4924   40.7810 H   0  0  0  0  0  0  0  0  0  0  0  0
   34.3155   29.6877   39.5627 H   0  0  0  0  0  0  0  0  0  0  0  0
   35.9638   31.4441   39.8367 H   0  0  0  0  0  0  0  0  0  0  0  0
  1  6  1  0
  2  3  2  0
  3  4  1  0
  4  8  1  0
  5  4  2  0
  6  5  1  0
  7  2  1  0
  7  6  2  0
  8  9  1  0
  9 10  1  0
 10 15  2  0
 11 12  2  0
 11 10  1  0
 12 13  1  0
 13 14  2  0
 15 14  1  0
 16 20  1  0
 17 16  1  0
 17 18  2  0
 18  1  1  0
 18 19  1  0
 20 19  2  0
 20 21  1  0
 21 22  2  0
 22 23  1  0
 24 23  2  0
 25 24  1  0
 26 25  2  0
 27 26  1  0
 28 29  1  0
 28 27  2  0
 29 30  2  0
 30 21  1  0
 30 25  1  0
  2 31  1  0
  3 32  1  0
  8 33  1  0
  8 34  1  0
  9 35  1  0
  9 36  1  0
 11 37  1  0
 12 38  1  0
 13 39  1  0
 14 40  1  0
 15 41  1  0
 16 42  1  0
 19 43  1  0
 23 44  1  0
 26 45  1  0
 27 46  1  0
 28 47  1  0
 29 48  1  0
M  END
>  <minimizedAffinity>  (1) 
-7.72417593

>  <minimizedRMSD>  (1) 
1.38060856

$$$$
