
     RDKit          3D

 52 55  0  0  1  0  0  0  0  0999 V2000
   39.4530   30.0160   41.7820 N   0  0  0  0  0  0  0  0  0  0  0  0
   38.7650   29.6940   42.8680 C   0  0  0  0  0  0  0  0  0  0  0  0
   37.5110   29.1230   42.8200 C   0  0  0  0  0  0  0  0  0  0  0  0
   36.9000   28.8550   41.6080 C   0  0  0  0  0  0  0  0  0  0  0  0
   35.7680   28.3390   41.5570 O   0  0  0  0  0  0  0  0  0  0  0  0
   37.6400   29.2000   40.5100 N   0  0  0  0  0  0  0  0  0  0  0  0
   38.8470   29.7490   40.6100 C   0  0  0  0  0  0  0  0  0  0  0  0
   39.4560   30.0350   39.5350 O   0  0  0  0  0  0  0  0  0  0  0  0
   37.0490   28.9400   39.2280 C   0  0  2  0  0  0  0  0  0  0  0  0
   35.7710   29.5670   38.9360 C   0  0  0  0  0  0  0  0  0  0  0  0
   35.2260   28.6800   37.7940 C   0  0  0  0  0  0  0  0  0  0  0  0
   35.5210   27.3200   38.2690 C   0  0  0  0  0  0  0  0  0  0  0  0
   36.8260   27.4350   39.0050 C   0  0  1  0  0  0  0  0  0  0  0  0
   37.9830   26.7750   38.3350 C   0  0  0  0  0  0  0  0  0  0  0  0
   40.7430   30.6030   41.8170 C   0  0  0  0  0  0  0  0  0  0  0  0
   41.9220   29.9110   42.2570 C   0  0  0  0  0  0  0  0  0  0  0  0
   43.1210   30.6040   42.2410 C   0  0  0  0  0  0  0  0  0  0  0  0
   43.1120   31.8760   41.8160 N   0  0  0  0  0  0  0  0  0  0  0  0
   42.0110   32.5130   41.4080 C   0  0  0  0  0  0  0  0  0  0  0  0
   40.8310   31.8630   41.4140 N   0  0  0  0  0  0  0  0  0  0  0  0
   42.1390   33.9370   40.9570 C   0  0  0  0  0  0  0  0  0  0  0  0
   43.4260   34.0770   40.1570 C   0  0  0  0  0  0  0  0  0  0  0  0
   43.2030   33.7560   38.6860 C   0  0  0  0  0  0  0  0  0  0  0  0
   42.2430   34.7020   38.0240 C   0  0  0  0  0  0  0  0  0  0  0  0
   41.4810   35.4260   39.1320 C   0  0  0  0  0  0  0  0  0  0  0  0
   40.9650   34.3780   40.1140 C   0  0  0  0  0  0  0  0  0  0  0  0
   39.2148   29.8912   43.8523 H   0  0  0  0  0  0  0  0  0  0  0  0
   36.9898   28.8774   43.7570 H   0  0  0  0  0  0  0  0  0  0  0  0
   37.7984   29.3878   38.5588 H   0  0  0  0  0  0  0  0  0  0  0  0
   35.1057   29.5433   39.8117 H   0  0  0  0  0  0  0  0  0  0  0  0
   35.8518   30.6310   38.6687 H   0  0  0  0  0  0  0  0  0  0  0  0
   35.7447   28.8902   36.8470 H   0  0  0  0  0  0  0  0  0  0  0  0
   34.1590   28.8464   37.5846 H   0  0  0  0  0  0  0  0  0  0  0  0
   34.7274   26.9663   38.9436 H   0  0  0  0  0  0  0  0  0  0  0  0
   35.5779   26.5982   37.4409 H   0  0  0  0  0  0  0  0  0  0  0  0
   36.7631   26.8849   39.9555 H   0  0  0  0  0  0  0  0  0  0  0  0
   38.6723   26.3818   39.0967 H   0  0  0  0  0  0  0  0  0  0  0  0
   37.6201   25.9480   37.7070 H   0  0  0  0  0  0  0  0  0  0  0  0
   38.5102   27.5083   37.7070 H   0  0  0  0  0  0  0  0  0  0  0  0
   41.8743   28.8654   42.5954 H   0  0  0  0  0  0  0  0  0  0  0  0
   44.0553   30.1242   42.5680 H   0  0  0  0  0  0  0  0  0  0  0  0
   42.1579   34.5815   41.8482 H   0  0  0  0  0  0  0  0  0  0  0  0
   43.7923   35.1104   40.2463 H   0  0  0  0  0  0  0  0  0  0  0  0
   44.1626   33.3657   40.5588 H   0  0  0  0  0  0  0  0  0  0  0  0
   44.1692   33.8126   38.1633 H   0  0  0  0  0  0  0  0  0  0  0  0
   42.7673   32.7476   38.6290 H   0  0  0  0  0  0  0  0  0  0  0  0
   42.7944   35.4289   37.4095 H   0  0  0  0  0  0  0  0  0  0  0  0
   41.5495   34.1564   37.3672 H   0  0  0  0  0  0  0  0  0  0  0  0
   42.1529   36.1251   39.6514 H   0  0  0  0  0  0  0  0  0  0  0  0
   40.6420   35.9971   38.7077 H   0  0  0  0  0  0  0  0  0  0  0  0
   40.1842   34.8141   40.7544 H   0  0  0  0  0  0  0  0  0  0  0  0
   40.5273   33.5232   39.5776 H   0  0  0  0  0  0  0  0  0  0  0  0
  1 15  1  0
  1  2  1  0
  3  2  2  0
  4  3  1  0
  5  4  2  0
  6  7  1  0
  6  4  1  0
  7  1  1  0
  8  7  2  0
  9  6  1  0
 10  9  1  0
 11 12  1  0
 11 10  1  0
 12 13  1  0
 13  9  1  0
 14 13  1  0
 15 16  2  0
 17 16  1  0
 18 17  2  0
 19 20  2  0
 19 18  1  0
 20 15  1  0
 21 19  1  0
 22 21  1  0
 23 22  1  0
 24 23  1  0
 24 25  1  0
 25 26  1  0
 26 21  1  0
  2 27  1  0
  3 28  1  0
  9 29  1  6
 10 30  1  0
 10 31  1  0
 11 32  1  0
 11 33  1  0
 12 34  1  0
 12 35  1  0
 13 36  1  1
 14 37  1  0
 14 38  1  0
 14 39  1  0
 16 40  1  0
 17 41  1  0
 21 42  1  0
 22 43  1  0
 22 44  1  0
 23 45  1  0
 23 46  1  0
 24 47  1  0
 24 48  1  0
 25 49  1  0
 25 50  1  0
 26 51  1  0
 26 52  1  0
M  ISO  8  27  14  28  14  29  13  30  13  31  13  32  13  33  13  34  13
M  ISO  8  35  13  36  13  37   8  38   8  39   8  40  14  41  14  42  13
M  ISO  8  43  13  44  13  45  13  46  13  47  13  48  13  49  13  50  13
M  ISO  2  51  13  52  13
M  END
>  <minimizedAffinity>  (1) 
-5.19955873

>  <minimizedRMSD>  (1) 
4.45859766

$$$$
