
     RDKit          3D

 47 51  0  0  1  0  0  0  0  0999 V2000
   36.1150   30.6850   41.0560 C   0  0  0  0  0  0  0  0  0  0  0  0
   36.6390   29.5160   41.6480 C   0  0  0  0  0  0  0  0  0  0  0  0
   38.0220   29.3470   41.6590 C   0  0  0  0  0  0  0  0  0  0  0  0
   38.7740   30.3250   41.0950 N   0  0  0  0  0  0  0  0  0  0  0  0
   38.2540   31.4390   40.5320 C   0  0  0  0  0  0  0  0  0  0  0  0
   36.9120   31.6100   40.5180 N   0  0  0  0  0  0  0  0  0  0  0  0
   38.5770   28.1460   42.2570 C   0  0  0  0  0  0  0  0  0  0  0  0
   39.5910   28.0440   43.1820 C   0  0  0  0  0  0  0  0  0  0  0  0
   39.8000   26.7400   43.4750 N   0  0  0  0  0  0  0  0  0  0  0  0
   38.9460   25.9640   42.7660 C   0  0  0  0  0  0  0  0  0  0  0  0
   38.7250   24.5980   42.6760 C   0  0  0  0  0  0  0  0  0  0  0  0
   37.7530   24.0680   41.8420 C   0  0  0  0  0  0  0  0  0  0  0  0
   37.0160   24.9620   41.1040 C   0  0  0  0  0  0  0  0  0  0  0  0
   37.2260   26.3160   41.1850 C   0  0  0  0  0  0  0  0  0  0  0  0
   38.1920   26.8440   42.0150 C   0  0  0  0  0  0  0  0  0  0  0  0
   39.1540   32.4770   39.9370 C   0  0  1  0  0  0  0  0  0  0  0  0
   39.1340   33.8620   40.5730 C   0  0  0  0  0  0  0  0  0  0  0  0
   40.3130   32.9590   40.7430 C   0  0  2  0  0  0  0  0  0  0  0  0
   41.6300   33.2590   40.0560 C   0  0  0  0  0  0  0  0  0  0  0  0
   42.0380   32.0460   39.2810 C   0  0  0  0  0  0  0  0  0  0  0  0
   42.9920   32.2990   38.1610 C   0  0  0  0  0  0  0  0  0  0  0  0
   42.3760   33.3300   37.2240 C   0  0  0  0  0  0  0  0  0  0  0  0
   42.3040   34.6120   38.0310 C   0  0  0  0  0  0  0  0  0  0  0  0
   41.3720   34.4640   39.1930 C   0  0  0  0  0  0  0  0  0  0  0  0
   35.0257   30.8369   41.0377 H   0  0  0  0  0  0  0  0  0  0  0  0
   35.9737   28.7589   42.0887 H   0  0  0  0  0  0  0  0  0  0  0  0
   40.1446   28.8901   43.6151 H   0  0  0  0  0  0  0  0  0  0  0  0
   40.5046   26.3891   44.1393 H   0  0  0  0  0  0  0  0  0  0  0  0
   39.3382   23.9160   43.2834 H   0  0  0  0  0  0  0  0  0  0  0  0
   37.5801   22.9838   41.7744 H   0  0  0  0  0  0  0  0  0  0  0  0
   36.2352   24.5819   40.4288 H   0  0  0  0  0  0  0  0  0  0  0  0
   36.6108   26.9939   40.5751 H   0  0  0  0  0  0  0  0  0  0  0  0
   39.0320   32.0733   38.9211 H   0  0  0  0  0  0  0  0  0  0  0  0
   39.2127   34.7602   39.9428 H   0  0  0  0  0  0  0  0  0  0  0  0
   38.4573   34.4015   41.2520 H   0  0  0  0  0  0  0  0  0  0  0  0
   40.8630   32.5808   41.6173 H   0  0  0  0  0  0  0  0  0  0  0  0
   42.4582   33.4831   40.7444 H   0  0  0  0  0  0  0  0  0  0  0  0
   42.5118   31.3398   39.9787 H   0  0  0  0  0  0  0  0  0  0  0  0
   41.1196   31.6563   38.8178 H   0  0  0  0  0  0  0  0  0  0  0  0
   43.9416   32.6829   38.5622 H   0  0  0  0  0  0  0  0  0  0  0  0
   43.1887   31.3643   37.6154 H   0  0  0  0  0  0  0  0  0  0  0  0
   41.3696   33.0142   36.9119 H   0  0  0  0  0  0  0  0  0  0  0  0
   42.9691   33.4560   36.3062 H   0  0  0  0  0  0  0  0  0  0  0  0
   43.3087   34.8583   38.4051 H   0  0  0  0  0  0  0  0  0  0  0  0
   41.9271   35.4146   37.3801 H   0  0  0  0  0  0  0  0  0  0  0  0
   41.4632   35.3618   39.8220 H   0  0  0  0  0  0  0  0  0  0  0  0
   40.3654   34.3330   38.7693 H   0  0  0  0  0  0  0  0  0  0  0  0
  1  2  2  0
  2  3  1  0
  3  7  1  0
  4  3  2  0
  5  4  1  0
  6  5  2  0
  6  1  1  0
  7  8  2  0
  8  9  1  0
 10  9  1  0
 11 10  2  0
 12 11  1  0
 13 14  1  0
 13 12  2  0
 14 15  2  0
 15  7  1  0
 15 10  1  0
 16  5  1  0
 16 17  1  0
 16 18  1  0
 17 18  1  0
 19 18  1  0
 20 19  1  0
 21 20  1  0
 22 23  1  0
 22 21  1  0
 23 24  1  0
 24 19  1  0
  1 25  1  0
  2 26  1  0
  8 27  1  0
  9 28  1  0
 11 29  1  0
 12 30  1  0
 13 31  1  0
 14 32  1  0
 16 33  1  6
 17 34  1  0
 17 35  1  0
 18 36  1  1
 19 37  1  0
 20 38  1  0
 20 39  1  0
 21 40  1  0
 21 41  1  0
 22 42  1  0
 22 43  1  0
 23 44  1  0
 23 45  1  0
 24 46  1  0
 24 47  1  0
M  ISO  8  25  14  26  14  27  14  28   9  29  14  30  14  31  14  32  14
M  ISO  8  33  13  34  13  35  13  36  13  37  13  38  13  39  13  40  13
M  ISO  7  41  13  42  13  43  13  44  13  45  13  46  13  47  13
M  END
>  <minimizedAffinity>  (1) 
-6.12487411

>  <minimizedRMSD>  (1) 
0.54399693

$$$$
