
     RDKit          3D

 38 40  0  0  0  0  0  0  0  0999 V2000
   37.4870   29.9970   40.3530 C   0  0  0  0  0  0  0  0  0  0  0  0
   36.9630   28.8100   39.8260 C   0  0  0  0  0  0  0  0  0  0  0  0
   36.6040   27.7930   40.7490 C   0  0  0  0  0  0  0  0  0  0  0  0
   36.7720   27.9990   42.0710 N   0  0  0  0  0  0  0  0  0  0  0  0
   37.2840   29.1740   42.5360 C   0  0  0  0  0  0  0  0  0  0  0  0
   37.6290   30.1440   41.6760 N   0  0  0  0  0  0  0  0  0  0  0  0
   36.7600   28.5580   38.4710 N   0  0  0  0  0  0  0  0  0  0  0  0
   37.6380   27.8800   37.5390 C   0  0  0  0  0  0  0  0  0  0  0  0
   37.3780   28.5870   36.2160 C   0  0  0  0  0  0  0  0  0  0  0  0
   36.1880   29.4870   36.4480 C   0  0  0  0  0  0  0  0  0  0  0  0
   35.5990   28.9120   37.6880 C   0  0  0  0  0  0  0  0  0  0  0  0
   37.9290   31.1390   39.5110 C   0  0  0  0  0  0  0  0  0  0  0  0
   37.0240   32.3040   39.5150 C   0  0  0  0  0  0  0  0  0  0  0  0
   37.5780   33.6510   39.7590 C   0  0  0  0  0  0  0  0  0  0  0  0
   38.9050   33.7620   40.4040 C   0  0  0  0  0  0  0  0  0  0  0  0
   39.2870   32.4430   41.0700 C   0  0  0  0  0  0  0  0  0  0  0  0
   39.3640   31.4460   39.9670 C   0  0  0  0  0  0  0  0  0  0  0  0
   36.1902   26.8402   40.3871 H   0  0  0  0  0  0  0  0  0  0  0  0
   37.4143   29.3267   43.6175 H   0  0  0  0  0  0  0  0  0  0  0  0
   38.6900   27.9889   37.8415 H   0  0  0  0  0  0  0  0  0  0  0  0
   37.4495   26.7975   37.4873 H   0  0  0  0  0  0  0  0  0  0  0  0
   37.1532   27.8526   35.4286 H   0  0  0  0  0  0  0  0  0  0  0  0
   38.2573   29.1606   35.8877 H   0  0  0  0  0  0  0  0  0  0  0  0
   36.5005   30.5305   36.6011 H   0  0  0  0  0  0  0  0  0  0  0  0
   35.4877   29.5219   35.6004 H   0  0  0  0  0  0  0  0  0  0  0  0
   34.9810   29.6555   38.2127 H   0  0  0  0  0  0  0  0  0  0  0  0
   34.9329   28.0585   37.4938 H   0  0  0  0  0  0  0  0  0  0  0  0
   37.9008   30.8671   38.4455 H   0  0  0  0  0  0  0  0  0  0  0  0
   36.5339   32.3325   38.5306 H   0  0  0  0  0  0  0  0  0  0  0  0
   36.3773   32.1274   40.3871 H   0  0  0  0  0  0  0  0  0  0  0  0
   37.6477   34.1551   38.7838 H   0  0  0  0  0  0  0  0  0  0  0  0
   36.8861   34.0990   40.4873 H   0  0  0  0  0  0  0  0  0  0  0  0
   39.6577   34.0145   39.6426 H   0  0  0  0  0  0  0  0  0  0  0  0
   38.8632   34.5492   41.1712 H   0  0  0  0  0  0  0  0  0  0  0  0
   40.2607   32.5348   41.5735 H   0  0  0  0  0  0  0  0  0  0  0  0
   38.5556   32.1469   41.8364 H   0  0  0  0  0  0  0  0  0  0  0  0
   39.8472   30.5258   40.3273 H   0  0  0  0  0  0  0  0  0  0  0  0
   39.9566   31.8437   39.1299 H   0  0  0  0  0  0  0  0  0  0  0  0
  1  6  2  0
  2  1  1  0
  2  3  2  0
  3  4  1  0
  4  5  2  0
  6  5  1  0
  7  2  1  0
  8  7  1  0
  9 10  1  0
  9  8  1  0
 10 11  1  0
 11  7  1  0
 12 13  1  0
 12 17  1  0
 12  1  1  0
 13 14  1  0
 14 15  1  0
 15 16  1  0
 17 16  1  0
  3 18  1  0
  5 19  1  0
  8 20  1  0
  8 21  1  0
  9 22  1  0
  9 23  1  0
 10 24  1  0
 10 25  1  0
 11 26  1  0
 11 27  1  0
 12 28  1  0
 13 29  1  0
 13 30  1  0
 14 31  1  0
 14 32  1  0
 15 33  1  0
 15 34  1  0
 16 35  1  0
 16 36  1  0
 17 37  1  0
 17 38  1  0
M  ISO  8  18  14  19  14  20  13  21  13  22  13  23  13  24  13  25  13
M  ISO  8  26  13  27  13  28  13  29  13  30  13  31  13  32  13  33  13
M  ISO  5  34  13  35  13  36  13  37  13  38  13
M  END
>  <minimizedAffinity>  (1) 
-4.28573847

>  <minimizedRMSD>  (1) 
4.5243907

$$$$
