
     RDKit          3D

 33 34  0  0  0  0  0  0  0  0999 V2000
   38.4890   29.4820   42.4710 C   0  0  0  0  0  0  0  0  0  0  0  0
   38.0150   29.3250   41.1460 C   0  0  0  0  0  0  0  0  0  0  0  0
   37.8860   28.0040   40.7030 C   0  0  0  0  0  0  0  0  0  0  0  0
   38.2090   26.9800   41.5320 N   0  0  0  0  0  0  0  0  0  0  0  0
   38.6580   27.1780   42.7900 C   0  0  0  0  0  0  0  0  0  0  0  0
   38.7900   28.4300   43.2370 N   0  0  0  0  0  0  0  0  0  0  0  0
   37.7060   30.4790   40.3650 N   0  0  0  0  0  0  0  0  0  0  0  0
   36.7450   31.4410   40.7300 C   0  0  0  0  0  0  0  0  0  0  0  0
   35.6400   30.9770   41.2750 N   0  0  0  0  0  0  0  0  0  0  0  0
   37.1010   32.8170   40.4580 N   0  0  0  0  0  0  0  0  0  0  0  0
   34.8800   31.6070   41.5660 H   0  0  0  0  0  0  0  0  0  0  0  0
   37.3900   27.8010   39.3130 C   0  0  0  0  0  0  0  0  0  0  0  0
   35.8960   27.9850   39.3080 C   0  0  0  0  0  0  0  0  0  0  0  0
   35.3790   28.9320   38.2650 C   0  0  0  0  0  0  0  0  0  0  0  0
   36.0420   28.5740   36.9580 C   0  0  0  0  0  0  0  0  0  0  0  0
   37.4700   29.0000   37.0850 C   0  0  0  0  0  0  0  0  0  0  0  0
   38.0990   28.7690   38.4070 C   0  0  0  0  0  0  0  0  0  0  0  0
   38.6124   30.4958   42.8797 H   0  0  0  0  0  0  0  0  0  0  0  0
   38.9106   26.3237   43.4352 H   0  0  0  0  0  0  0  0  0  0  0  0
   38.2168   30.6163   39.4812 H   0  0  0  0  0  0  0  0  0  0  0  0
   36.4468   33.5754   40.6983 H   0  0  0  0  0  0  0  0  0  0  0  0
   38.0086   33.0380   40.0241 H   0  0  0  0  0  0  0  0  0  0  0  0
   37.6014   26.7861   38.9451 H   0  0  0  0  0  0  0  0  0  0  0  0
   35.4314   27.0026   39.1378 H   0  0  0  0  0  0  0  0  0  0  0  0
   35.6366   28.4269   40.2814 H   0  0  0  0  0  0  0  0  0  0  0  0
   34.2877   28.8296   38.1728 H   0  0  0  0  0  0  0  0  0  0  0  0
   35.6043   29.9727   38.5411 H   0  0  0  0  0  0  0  0  0  0  0  0
   35.5576   29.1064   36.1262 H   0  0  0  0  0  0  0  0  0  0  0  0
   35.9617   27.4970   36.7492 H   0  0  0  0  0  0  0  0  0  0  0  0
   38.0542   28.4494   36.3329 H   0  0  0  0  0  0  0  0  0  0  0  0
   37.4692   30.0907   36.9421 H   0  0  0  0  0  0  0  0  0  0  0  0
   39.1154   28.3856   38.2339 H   0  0  0  0  0  0  0  0  0  0  0  0
   38.0665   29.7389   38.9249 H   0  0  0  0  0  0  0  0  0  0  0  0
  1  6  2  0
  2  1  1  0
  3  2  2  0
  3  4  1  0
  4  5  2  0
  5  6  1  0
  7  8  1  0
  7  2  1  0
  8  9  2  0
  9 11  1  0
 10  8  1  0
 12  3  1  0
 13 12  1  0
 14 13  1  0
 15 16  1  0
 15 14  1  0
 16 17  1  0
 17 12  1  0
  1 18  1  0
  5 19  1  0
  7 20  1  0
 10 21  1  0
 10 22  1  0
 12 23  1  0
 13 24  1  0
 13 25  1  0
 14 26  1  0
 14 27  1  0
 15 28  1  0
 15 29  1  0
 16 30  1  0
 16 31  1  0
 17 32  1  0
 17 33  1  0
M  ISO  8  18  14  19  14  23  13  24  13  25  13  26  13  27  13  28  13
M  ISO  5  29  13  30  13  31  13  32  13  33  13
M  END
>  <minimizedAffinity>  (1) 
-4.9102726

>  <minimizedRMSD>  (1) 
0.777089119

$$$$
