
     RDKit          3D

 46 49  0  0  1  0  0  0  0  0999 V2000
   36.6610   30.4580   40.4470 C   0  0  1  0  0  0  0  0  0  0  0  0
   37.3090   31.7720   40.5900 C   0  0  0  0  0  0  0  0  0  0  0  0
   37.1480   32.3660   39.1960 C   0  0  0  0  0  0  0  0  0  0  0  0
   36.8890   31.2080   38.2650 C   0  0  0  0  0  0  0  0  0  0  0  0
   37.1560   29.9690   39.0930 C   0  0  2  0  0  0  0  0  0  0  0  0
   38.4130   28.9720   43.3410 C   0  0  0  0  0  0  0  0  0  0  0  0
   37.5620   27.8500   43.6620 C   0  0  0  0  0  0  0  0  0  0  0  0
   36.4110   27.6360   42.8570 C   0  0  0  0  0  0  0  0  0  0  0  0
   36.1400   28.4730   41.8250 N   0  0  0  0  0  0  0  0  0  0  0  0
   36.9840   29.5220   41.5680 C   0  0  0  0  0  0  0  0  0  0  0  0
   38.0990   29.7750   42.3030 N   0  0  0  0  0  0  0  0  0  0  0  0
   36.4620   28.7890   38.6160 C   0  0  0  0  0  0  0  0  0  0  0  0
   35.2210   28.4420   38.0910 C   0  0  0  0  0  0  0  0  0  0  0  0
   34.9820   27.1540   37.7630 C   0  0  0  0  0  0  0  0  0  0  0  0
   35.9660   26.2000   37.9500 C   0  0  0  0  0  0  0  0  0  0  0  0
   37.3860   27.1950   38.6620 S   0  0  0  0  0  0  0  0  0  0  0  0
   35.9780   24.8020   37.6940 C   0  0  0  0  0  0  0  0  0  0  0  0
   36.5490   24.0680   38.8510 C   0  0  0  0  0  0  0  0  0  0  0  0
   35.5450   23.4830   39.8040 C   0  0  0  0  0  0  0  0  0  0  0  0
   34.6130   22.6050   38.9940 C   0  0  0  0  0  0  0  0  0  0  0  0
   33.8200   23.5510   38.1280 C   0  0  0  0  0  0  0  0  0  0  0  0
   34.6730   24.3250   37.1690 C   0  0  0  0  0  0  0  0  0  0  0  0
   35.5637   30.5188   40.4949 H   0  0  0  0  0  0  0  0  0  0  0  0
   36.7999   32.3872   41.3465 H   0  0  0  0  0  0  0  0  0  0  0  0
   38.3548   31.7135   40.9261 H   0  0  0  0  0  0  0  0  0  0  0  0
   36.2999   33.0662   39.1768 H   0  0  0  0  0  0  0  0  0  0  0  0
   38.0463   32.9252   38.8954 H   0  0  0  0  0  0  0  0  0  0  0  0
   37.5678   31.2483   37.4004 H   0  0  0  0  0  0  0  0  0  0  0  0
   35.8649   31.2228   37.8638 H   0  0  0  0  0  0  0  0  0  0  0  0
   38.1998   29.6222   39.0787 H   0  0  0  0  0  0  0  0  0  0  0  0
   39.3136   29.1711   43.9404 H   0  0  0  0  0  0  0  0  0  0  0  0
   37.7977   27.1820   44.5035 H   0  0  0  0  0  0  0  0  0  0  0  0
   35.7396   26.7913   43.0709 H   0  0  0  0  0  0  0  0  0  0  0  0
   34.4444   29.2072   37.9450 H   0  0  0  0  0  0  0  0  0  0  0  0
   34.0057   26.8638   37.3475 H   0  0  0  0  0  0  0  0  0  0  0  0
   36.6645   24.5724   36.8657 H   0  0  0  0  0  0  0  0  0  0  0  0
   37.1650   23.2448   38.4599 H   0  0  0  0  0  0  0  0  0  0  0  0
   37.1181   24.8107   39.4294 H   0  0  0  0  0  0  0  0  0  0  0  0
   36.0581   22.8820   40.5692 H   0  0  0  0  0  0  0  0  0  0  0  0
   34.9837   24.2790   40.3153 H   0  0  0  0  0  0  0  0  0  0  0  0
   35.1889   21.9048   38.3711 H   0  0  0  0  0  0  0  0  0  0  0  0
   33.9607   21.9980   39.6390 H   0  0  0  0  0  0  0  0  0  0  0  0
   33.0869   22.9672   37.5520 H   0  0  0  0  0  0  0  0  0  0  0  0
   33.3344   24.2780   38.7956 H   0  0  0  0  0  0  0  0  0  0  0  0
   34.0993   25.2055   36.8440 H   0  0  0  0  0  0  0  0  0  0  0  0
   34.9191   23.6226   36.3590 H   0  0  0  0  0  0  0  0  0  0  0  0
  1  2  1  0
  1 10  1  0
  3  2  1  0
  4  5  1  0
  4  3  1  0
  5  1  1  0
  6  7  2  0
  8  7  1  0
  9  8  2  0
 10  9  1  0
 10 11  2  0
 11  6  1  0
 12 16  1  0
 12  5  1  0
 13 12  2  0
 14 15  2  0
 14 13  1  0
 15 16  1  0
 17 15  1  0
 17 18  1  0
 18 19  1  0
 20 19  1  0
 21 20  1  0
 22 17  1  0
 22 21  1  0
  1 23  1  6
  2 24  1  0
  2 25  1  0
  3 26  1  0
  3 27  1  0
  4 28  1  0
  4 29  1  0
  5 30  1  1
  6 31  1  0
  7 32  1  0
  8 33  1  0
 13 34  1  0
 14 35  1  0
 17 36  1  0
 18 37  1  0
 18 38  1  0
 19 39  1  0
 19 40  1  0
 20 41  1  0
 20 42  1  0
 21 43  1  0
 21 44  1  0
 22 45  1  0
 22 46  1  0
M  ISO  8  23  13  24  13  25  13  26  13  27  13  28  13  29  13  30  13
M  ISO  8  31  14  32  14  33  14  34  14  35  14  36  13  37  13  38  13
M  ISO  8  39  13  40  13  41  13  42  13  43  13  44  13  45  13  46  13
M  END
>  <minimizedAffinity>  (1) 
-5.27705669

>  <minimizedRMSD>  (1) 
1.26263344

$$$$
