
     RDKit          3D

 55 58  0  0  0  0  0  0  0  0999 V2000
   37.3240   26.5990   41.0760 C   0  0  0  0  0  0  0  0  0  0  0  0
   38.3730   26.3090   41.9770 C   0  0  0  0  0  0  0  0  0  0  0  0
   38.8460   27.3300   42.8080 C   0  0  0  0  0  0  0  0  0  0  0  0
   38.2550   28.5640   42.6970 N   0  0  0  0  0  0  0  0  0  0  0  0
   37.2510   28.8250   41.8300 C   0  0  0  0  0  0  0  0  0  0  0  0
   36.7790   27.8480   41.0160 N   0  0  0  0  0  0  0  0  0  0  0  0
   39.8740   27.0900   43.6990 N   0  0  0  0  0  0  0  0  0  0  0  0
   36.8160   25.6350   40.2220 N   0  0  0  0  0  0  0  0  0  0  0  0
   36.7520   30.1160   41.8290 O   0  0  0  0  0  0  0  0  0  0  0  0
   37.0090   31.0240   40.8280 C   0  0  0  0  0  0  0  0  0  0  0  0
   36.5940   31.3270   39.5860 N   0  0  0  0  0  0  0  0  0  0  0  0
   37.2570   32.3480   39.1360 O   0  0  0  0  0  0  0  0  0  0  0  0
   38.1190   32.7560   40.0430 C   0  0  0  0  0  0  0  0  0  0  0  0
   37.9770   31.9370   41.1080 N   0  0  0  0  0  0  0  0  0  0  0  0
   39.0620   33.8830   39.9300 C   0  0  0  0  0  0  0  0  0  0  0  0
   38.7580   35.1620   40.3470 C   0  0  0  0  0  0  0  0  0  0  0  0
   39.7070   36.1660   40.2020 C   0  0  0  0  0  0  0  0  0  0  0  0
   40.9520   35.9100   39.6490 C   0  0  0  0  0  0  0  0  0  0  0  0
   41.2440   34.6330   39.2380 C   0  0  0  0  0  0  0  0  0  0  0  0
   40.3070   33.6200   39.3750 C   0  0  0  0  0  0  0  0  0  0  0  0
   40.6860   32.2660   38.9110 C   0  0  0  0  0  0  0  0  0  0  0  0
   40.6840   32.1060   37.4270 C   0  0  0  0  0  0  0  0  0  0  0  0
   42.1430   32.0540   37.0380 C   0  0  0  0  0  0  0  0  0  0  0  0
   42.9170   31.6170   38.2570 C   0  0  0  0  0  0  0  0  0  0  0  0
   42.0010   31.7830   39.4390 C   0  0  0  0  0  0  0  0  0  0  0  0
   38.8600   24.9400   41.9460 C   0  0  0  0  0  0  0  0  0  0  0  0
   37.7380   23.9270   41.6960 C   0  0  0  0  0  0  0  0  0  0  0  0
   39.6150   24.4620   43.1360 C   0  0  0  0  0  0  0  0  0  0  0  0
   39.8140   24.8470   40.7580 C   0  0  0  0  0  0  0  0  0  0  0  0
   40.2159   27.8478   44.3071 H   0  0  0  0  0  0  0  0  0  0  0  0
   40.2986   26.1533   43.7553 H   0  0  0  0  0  0  0  0  0  0  0  0
   36.0509   25.8722   39.5745 H   0  0  0  0  0  0  0  0  0  0  0  0
   37.2032   24.6806   40.2341 H   0  0  0  0  0  0  0  0  0  0  0  0
   37.7757   35.3844   40.7892 H   0  0  0  0  0  0  0  0  0  0  0  0
   39.4652   37.1867   40.5333 H   0  0  0  0  0  0  0  0  0  0  0  0
   41.6930   36.7158   39.5413 H   0  0  0  0  0  0  0  0  0  0  0  0
   42.2273   34.4121   38.7973 H   0  0  0  0  0  0  0  0  0  0  0  0
   39.8855   31.6413   39.3340 H   0  0  0  0  0  0  0  0  0  0  0  0
   40.1736   31.1751   37.1391 H   0  0  0  0  0  0  0  0  0  0  0  0
   40.1508   32.9259   36.9235 H   0  0  0  0  0  0  0  0  0  0  0  0
   42.2892   31.3325   36.2207 H   0  0  0  0  0  0  0  0  0  0  0  0
   42.4885   33.0385   36.6896 H   0  0  0  0  0  0  0  0  0  0  0  0
   43.2178   30.5637   38.1565 H   0  0  0  0  0  0  0  0  0  0  0  0
   43.8305   32.2174   38.3795 H   0  0  0  0  0  0  0  0  0  0  0  0
   42.4197   32.5196   40.1405 H   0  0  0  0  0  0  0  0  0  0  0  0
   41.8813   30.8320   39.9787 H   0  0  0  0  0  0  0  0  0  0  0  0
   37.3439   23.5712   42.6594 H   0  0  0  0  0  0  0  0  0  0  0  0
   36.9304   24.4079   41.1246 H   0  0  0  0  0  0  0  0  0  0  0  0
   38.1342   23.0746   41.1246 H   0  0  0  0  0  0  0  0  0  0  0  0
   39.1003   24.7878   44.0519 H   0  0  0  0  0  0  0  0  0  0  0  0
   39.6709   23.3636   43.1178 H   0  0  0  0  0  0  0  0  0  0  0  0
   40.6318   24.8813   43.1178 H   0  0  0  0  0  0  0  0  0  0  0  0
   40.8465   24.7463   41.1239 H   0  0  0  0  0  0  0  0  0  0  0  0
   39.5544   23.9699   40.1470 H   0  0  0  0  0  0  0  0  0  0  0  0
   39.7286   25.7577   40.1470 H   0  0  0  0  0  0  0  0  0  0  0  0
  1  2  2  0
  2  3  1  0
  3  7  1  0
  4  3  2  0
  5  4  1  0
  6  1  1  0
  6  5  2  0
  8  1  1  0
  9  5  1  0
 10 14  1  0
 10  9  1  0
 11 10  2  0
 12 11  1  0
 12 13  1  0
 13 14  2  0
 15 13  1  0
 15 16  2  0
 17 16  1  0
 18 17  2  0
 19 20  2  0
 19 18  1  0
 20 15  1  0
 21 20  1  0
 21 25  1  0
 22 21  1  0
 23 22  1  0
 23 24  1  0
 24 25  1  0
 26  2  1  0
 26 28  1  0
 27 26  1  0
 29 26  1  0
  7 30  1  0
  7 31  1  0
  8 32  1  0
  8 33  1  0
 16 34  1  0
 17 35  1  0
 18 36  1  0
 19 37  1  0
 21 38  1  0
 22 39  1  0
 22 40  1  0
 23 41  1  0
 23 42  1  0
 24 43  1  0
 24 44  1  0
 25 45  1  0
 25 46  1  0
 27 47  1  0
 27 48  1  0
 27 49  1  0
 28 50  1  0
 28 51  1  0
 28 52  1  0
 29 53  1  0
 29 54  1  0
 29 55  1  0
M  END
>  <minimizedAffinity>  (1) 
-7.03113031

>  <minimizedRMSD>  (1) 
1.08914077

$$$$
