
     RDKit          3D

 40 43  0  0  0  0  0  0  0  0999 V2000
   36.5620   27.1900   43.0170 C   0  0  0  0  0  0  0  0  0  0  0  0
   39.4360   29.6570   42.8060 C   0  0  0  0  0  0  0  0  0  0  0  0
   38.6570   28.5260   43.1830 C   0  0  0  0  0  0  0  0  0  0  0  0
   37.3960   28.3580   42.6440 C   0  0  0  0  0  0  0  0  0  0  0  0
   36.9450   29.3000   41.7620 N   0  0  0  0  0  0  0  0  0  0  0  0
   37.6990   30.3720   41.4120 C   0  0  0  0  0  0  0  0  0  0  0  0
   38.9070   30.5410   41.9200 N   0  0  0  0  0  0  0  0  0  0  0  0
   37.1390   31.3600   40.4400 C   0  0  0  0  0  0  0  0  0  0  0  0
   37.9070   32.6560   40.6210 C   0  0  0  0  0  0  0  0  0  0  0  0
   37.4610   33.4210   39.3930 C   0  0  0  0  0  0  0  0  0  0  0  0
   37.1930   32.3690   38.3310 C   0  0  0  0  0  0  0  0  0  0  0  0
   37.3830   31.0270   39.0100 C   0  0  0  0  0  0  0  0  0  0  0  0
   36.9620   26.0100   42.2340 C   0  0  0  0  0  0  0  0  0  0  0  0
   37.3160   24.7450   42.5090 C   0  0  0  0  0  0  0  0  0  0  0  0
   37.6410   23.8520   41.5550 C   0  0  0  0  0  0  0  0  0  0  0  0
   37.5590   24.4210   40.2290 C   0  0  0  0  0  0  0  0  0  0  0  0
   37.0550   26.0830   40.4530 S   0  0  0  0  0  0  0  0  0  0  0  0
   37.8410   23.7470   38.9640 C   0  0  0  0  0  0  0  0  0  0  0  0
   39.0830   23.3350   38.5790 C   0  0  0  0  0  0  0  0  0  0  0  0
   38.8500   22.7600   37.3280 C   0  0  0  0  0  0  0  0  0  0  0  0
   37.5250   22.8460   37.0200 N   0  0  0  0  0  0  0  0  0  0  0  0
   36.9250   23.4570   38.0430 N   0  0  0  0  0  0  0  0  0  0  0  0
   36.6932   26.9770   44.0882 H   0  0  0  0  0  0  0  0  0  0  0  0
   35.5071   27.4200   42.8066 H   0  0  0  0  0  0  0  0  0  0  0  0
   40.4424   29.8113   43.2223 H   0  0  0  0  0  0  0  0  0  0  0  0
   39.0563   27.7916   43.8980 H   0  0  0  0  0  0  0  0  0  0  0  0
   36.0574   31.3916   40.6380 H   0  0  0  0  0  0  0  0  0  0  0  0
   37.6171   33.1728   41.5478 H   0  0  0  0  0  0  0  0  0  0  0  0
   38.9963   32.5322   40.7109 H   0  0  0  0  0  0  0  0  0  0  0  0
   36.5455   33.9917   39.6077 H   0  0  0  0  0  0  0  0  0  0  0  0
   38.2220   34.1447   39.0658 H   0  0  0  0  0  0  0  0  0  0  0  0
   37.9024   32.4788   37.4975 H   0  0  0  0  0  0  0  0  0  0  0  0
   36.1799   32.4682   37.9142 H   0  0  0  0  0  0  0  0  0  0  0  0
   36.6556   30.2879   38.6430 H   0  0  0  0  0  0  0  0  0  0  0  0
   38.3680   30.5740   38.8243 H   0  0  0  0  0  0  0  0  0  0  0  0
   37.3418   24.4233   43.5606 H   0  0  0  0  0  0  0  0  0  0  0  0
   37.9343   22.8120   41.7607 H   0  0  0  0  0  0  0  0  0  0  0  0
   40.0351   23.4320   39.1213 H   0  0  0  0  0  0  0  0  0  0  0  0
   39.6202   22.3058   36.6873 H   0  0  0  0  0  0  0  0  0  0  0  0
   37.0726   22.5040   36.1602 H   0  0  0  0  0  0  0  0  0  0  0  0
  2  3  2  0
  4  1  1  0
  4  3  1  0
  5  4  2  0
  6  5  1  0
  6  7  2  0
  7  2  1  0
  8  9  1  0
  8  6  1  0
 10  9  1  0
 11 12  1  0
 11 10  1  0
 12  8  1  0
 13 14  2  0
 13  1  1  0
 15 14  1  0
 16 17  1  0
 16 15  2  0
 17 13  1  0
 18 16  1  0
 19 18  1  0
 20 19  2  0
 21 20  1  0
 21 22  1  0
 22 18  2  0
  1 23  1  0
  1 24  1  0
  2 25  1  0
  3 26  1  0
  8 27  1  0
  9 28  1  0
  9 29  1  0
 10 30  1  0
 10 31  1  0
 11 32  1  0
 11 33  1  0
 12 34  1  0
 12 35  1  0
 14 36  1  0
 15 37  1  0
 19 38  1  0
 20 39  1  0
 21 40  1  0
M  ISO  8  23   8  24   8  25  14  26  14  27  13  28  13  29  13  30  13
M  ISO  8  31  13  32  13  33  13  34  13  35  13  36  14  37  14  38  14
M  ISO  2  39  14  40   9
M  END
>  <minimizedAffinity>  (1) 
-5.07736492

>  <minimizedRMSD>  (1) 
0.271142632

$$$$
