
     RDKit          3D

 49 54  0  0  1  0  0  0  0  0999 V2000
   36.2670   30.8630   41.0830 C   0  0  0  0  0  0  0  0  0  0  0  0
   36.8440   29.7200   41.6730 C   0  0  0  0  0  0  0  0  0  0  0  0
   38.2150   29.5670   41.6260 C   0  0  0  0  0  0  0  0  0  0  0  0
   38.9120   30.5540   41.0050 N   0  0  0  0  0  0  0  0  0  0  0  0
   38.3520   31.6450   40.4450 C   0  0  0  0  0  0  0  0  0  0  0  0
   37.0190   31.7940   40.4860 N   0  0  0  0  0  0  0  0  0  0  0  0
   38.8080   28.3980   42.2090 C   0  0  0  0  0  0  0  0  0  0  0  0
   39.9390   28.3310   43.0140 C   0  0  0  0  0  0  0  0  0  0  0  0
   40.1580   27.0380   43.3600 N   0  0  0  0  0  0  0  0  0  0  0  0
   39.2200   26.2440   42.8170 C   0  0  0  0  0  0  0  0  0  0  0  0
   38.9770   24.8850   42.8480 C   0  0  0  0  0  0  0  0  0  0  0  0
   37.8930   24.3260   42.1670 C   0  0  0  0  0  0  0  0  0  0  0  0
   37.0770   25.1890   41.4630 C   0  0  0  0  0  0  0  0  0  0  0  0
   37.3240   26.5340   41.4380 C   0  0  0  0  0  0  0  0  0  0  0  0
   38.3850   27.0840   42.1060 C   0  0  0  0  0  0  0  0  0  0  0  0
   39.2230   32.6950   39.8060 C   0  0  1  0  0  0  0  0  0  0  0  0
   39.2670   34.0650   40.5080 C   0  0  0  0  0  0  0  0  0  0  0  0
   40.4290   33.1500   40.5450 C   0  0  2  0  0  0  0  0  0  0  0  0
   41.6790   33.4700   39.8290 C   0  0  0  0  0  0  0  0  0  0  0  0
   41.8350   34.2450   38.7520 N   0  0  0  0  0  0  0  0  0  0  0  0
   43.0970   34.2700   38.4060 O   0  0  0  0  0  0  0  0  0  0  0  0
   43.8020   33.5240   39.2300 C   0  0  0  0  0  0  0  0  0  0  0  0
   42.9030   33.0240   40.1240 N   0  0  0  0  0  0  0  0  0  0  0  0
   45.2780   33.3660   39.0740 C   0  0  0  0  0  0  0  0  0  0  0  0
   45.9940   34.6750   39.1030 C   0  0  0  0  0  0  0  0  0  0  0  0
   46.9630   34.5930   37.9650 C   0  0  0  0  0  0  0  0  0  0  0  0
   46.4300   33.6020   36.9620 C   0  0  0  0  0  0  0  0  0  0  0  0
   45.6370   32.6390   37.8130 C   0  0  0  0  0  0  0  0  0  0  0  0
   35.1750   30.9919   41.1143 H   0  0  0  0  0  0  0  0  0  0  0  0
   36.2128   28.9635   42.1622 H   0  0  0  0  0  0  0  0  0  0  0  0
   40.5566   29.1880   43.3209 H   0  0  0  0  0  0  0  0  0  0  0  0
   40.9331   26.7113   43.9544 H   0  0  0  0  0  0  0  0  0  0  0  0
   39.6503   24.2298   43.4202 H   0  0  0  0  0  0  0  0  0  0  0  0
   37.6977   23.2437   42.1906 H   0  0  0  0  0  0  0  0  0  0  0  0
   36.2132   24.7879   40.9126 H   0  0  0  0  0  0  0  0  0  0  0  0
   36.6524   27.1912   40.8661 H   0  0  0  0  0  0  0  0  0  0  0  0
   39.0293   32.3263   38.7879 H   0  0  0  0  0  0  0  0  0  0  0  0
   39.3100   34.9897   39.9138 H   0  0  0  0  0  0  0  0  0  0  0  0
   38.6513   34.5813   41.2592 H   0  0  0  0  0  0  0  0  0  0  0  0
   41.0343   32.7230   41.3582 H   0  0  0  0  0  0  0  0  0  0  0  0
   45.6025   32.7665   39.9373 H   0  0  0  0  0  0  0  0  0  0  0  0
   45.2900   35.5073   38.9559 H   0  0  0  0  0  0  0  0  0  0  0  0
   46.4922   34.8598   40.0662 H   0  0  0  0  0  0  0  0  0  0  0  0
   47.0671   35.5810   37.4928 H   0  0  0  0  0  0  0  0  0  0  0  0
   47.9498   34.2712   38.3291 H   0  0  0  0  0  0  0  0  0  0  0  0
   47.2513   33.0855   36.4436 H   0  0  0  0  0  0  0  0  0  0  0  0
   45.8288   34.0722   36.1699 H   0  0  0  0  0  0  0  0  0  0  0  0
   44.7247   32.3284   37.2826 H   0  0  0  0  0  0  0  0  0  0  0  0
   46.2225   31.7342   38.0333 H   0  0  0  0  0  0  0  0  0  0  0  0
  1  2  2  0
  3  2  1  0
  3  7  1  0
  4  3  2  0
  5  6  2  0
  5  4  1  0
  6  1  1  0
  7  8  2  0
  8  9  1  0
 10 11  2  0
 10  9  1  0
 12 11  1  0
 13 12  2  0
 14 13  1  0
 14 15  2  0
 15  7  1  0
 15 10  1  0
 16  5  1  0
 16 17  1  0
 16 18  1  0
 17 18  1  0
 19 23  1  0
 19 18  1  0
 20 19  2  0
 21 20  1  0
 21 22  1  0
 22 23  2  0
 24 25  1  0
 24 22  1  0
 26 25  1  0
 27 28  1  0
 27 26  1  0
 28 24  1  0
  1 29  1  0
  2 30  1  0
  8 31  1  0
  9 32  1  0
 11 33  1  0
 12 34  1  0
 13 35  1  0
 14 36  1  0
 16 37  1  6
 17 38  1  0
 17 39  1  0
 18 40  1  1
 24 41  1  0
 25 42  1  0
 25 43  1  0
 26 44  1  0
 26 45  1  0
 27 46  1  0
 27 47  1  0
 28 48  1  0
 28 49  1  0
M  ISO  8  29  14  30  14  31  14  32   9  33  14  34  14  35  14  36  14
M  ISO  8  37  13  38  13  39  13  40  13  41  13  42  13  43  13  44  13
M  ISO  5  45  13  46  13  47  13  48  13  49  13
M  END
>  <minimizedAffinity>  (1) 
-6.53319311

>  <minimizedRMSD>  (1) 
1.83273506

$$$$
