
     RDKit          3D

 41 44  0  0  1  0  0  0  0  0999 V2000
   37.8900   27.3390   42.7180 C   0  0  2  0  0  0  0  0  0  0  0  0
   38.9370   27.6520   43.6970 C   0  0  0  0  0  0  0  0  0  0  0  0
   39.7150   26.3580   43.8650 C   0  0  0  0  0  0  0  0  0  0  0  0
   39.2780   25.4600   42.7570 C   0  0  0  0  0  0  0  0  0  0  0  0
   38.5420   26.3600   41.7630 C   0  0  1  0  0  0  0  0  0  0  0  0
   37.9060   29.7490   41.9000 C   0  0  0  0  0  0  0  0  0  0  0  0
   37.2950   28.4710   42.0240 C   0  0  0  0  0  0  0  0  0  0  0  0
   36.0540   28.2710   41.4430 C   0  0  0  0  0  0  0  0  0  0  0  0
   35.4650   29.3220   40.7700 N   0  0  0  0  0  0  0  0  0  0  0  0
   36.0840   30.5490   40.6700 C   0  0  0  0  0  0  0  0  0  0  0  0
   37.3230   30.7500   41.2480 N   0  0  0  0  0  0  0  0  0  0  0  0
   37.5840   25.3990   41.1440 C   0  0  0  0  0  0  0  0  0  0  0  0
   36.8360   24.5520   41.8710 N   0  0  0  0  0  0  0  0  0  0  0  0
   36.1120   23.8510   41.0230 O   0  0  0  0  0  0  0  0  0  0  0  0
   36.3960   24.2470   39.7990 C   0  0  0  0  0  0  0  0  0  0  0  0
   37.3110   25.2110   39.8320 N   0  0  0  0  0  0  0  0  0  0  0  0
   35.7370   23.6400   38.6210 C   0  0  0  0  0  0  0  0  0  0  0  0
   34.7950   24.5510   37.9030 C   0  0  0  0  0  0  0  0  0  0  0  0
   33.5510   23.6940   37.6470 C   0  0  0  0  0  0  0  0  0  0  0  0
   33.4730   22.8910   38.9310 C   0  0  0  0  0  0  0  0  0  0  0  0
   34.9140   22.4520   39.1090 C   0  0  0  0  0  0  0  0  0  0  0  0
   37.0146   26.9279   43.2421 H   0  0  0  0  0  0  0  0  0  0  0  0
   39.5922   28.4514   43.3206 H   0  0  0  0  0  0  0  0  0  0  0  0
   38.5194   28.0105   44.6494 H   0  0  0  0  0  0  0  0  0  0  0  0
   40.7956   26.5514   43.7948 H   0  0  0  0  0  0  0  0  0  0  0  0
   39.5250   25.9020   44.8478 H   0  0  0  0  0  0  0  0  0  0  0  0
   40.1493   24.9903   42.2772 H   0  0  0  0  0  0  0  0  0  0  0  0
   38.6344   24.6464   43.1227 H   0  0  0  0  0  0  0  0  0  0  0  0
   39.0838   26.8972   40.9706 H   0  0  0  0  0  0  0  0  0  0  0  0
   38.8923   29.9145   42.3581 H   0  0  0  0  0  0  0  0  0  0  0  0
   35.5491   27.2965   41.5163 H   0  0  0  0  0  0  0  0  0  0  0  0
   35.5909   31.3701   40.1290 H   0  0  0  0  0  0  0  0  0  0  0  0
   36.5394   23.3732   37.9175 H   0  0  0  0  0  0  0  0  0  0  0  0
   34.5453   25.4219   38.5268 H   0  0  0  0  0  0  0  0  0  0  0  0
   35.2265   24.9495   36.9729 H   0  0  0  0  0  0  0  0  0  0  0  0
   32.6551   24.3167   37.5066 H   0  0  0  0  0  0  0  0  0  0  0  0
   33.6065   23.0810   36.7353 H   0  0  0  0  0  0  0  0  0  0  0  0
   33.1368   23.5136   39.7732 H   0  0  0  0  0  0  0  0  0  0  0  0
   32.7547   22.0588   38.8936 H   0  0  0  0  0  0  0  0  0  0  0  0
   35.1257   21.5576   38.5046 H   0  0  0  0  0  0  0  0  0  0  0  0
   35.1441   22.1827   40.1504 H   0  0  0  0  0  0  0  0  0  0  0  0
  1  2  1  0
  2  3  1  0
  4  3  1  0
  5  1  1  0
  5  4  1  0
  6  7  2  0
  7  1  1  0
  8  7  1  0
  9  8  2  0
 10  9  1  0
 10 11  2  0
 11  6  1  0
 12  5  1  0
 12 13  2  0
 14 13  1  0
 15 16  2  0
 15 14  1  0
 16 12  1  0
 17 21  1  0
 17 15  1  0
 18 17  1  0
 19 18  1  0
 19 20  1  0
 20 21  1  0
  1 22  1  1
  2 23  1  0
  2 24  1  0
  3 25  1  0
  3 26  1  0
  4 27  1  0
  4 28  1  0
  5 29  1  6
  6 30  1  0
  8 31  1  0
 10 32  1  0
 17 33  1  0
 18 34  1  0
 18 35  1  0
 19 36  1  0
 19 37  1  0
 20 38  1  0
 20 39  1  0
 21 40  1  0
 21 41  1  0
M  ISO  8  22  13  23  13  24  13  25  13  26  13  27  13  28  13  29  13
M  ISO  8  30  14  31  14  32  14  33  13  34  13  35  13  36  13  37  13
M  ISO  4  38  13  39  13  40  13  41  13
M  END
>  <minimizedAffinity>  (1) 
-5.22093391

>  <minimizedRMSD>  (1) 
0.706268787

$$$$
