
     RDKit          3D

 50 54  0  0  1  0  0  0  0  0999 V2000
   42.4110   34.9400   40.7770 O   0  0  0  0  0  0  0  0  0  0  0  0
   38.8950   35.4740   40.1270 C   0  0  0  0  0  0  0  0  0  0  0  0
   40.2450   35.8060   40.3120 C   0  0  0  0  0  0  0  0  0  0  0  0
   41.1230   34.7340   40.5850 C   0  0  0  0  0  0  0  0  0  0  0  0
   40.5760   33.5350   40.6370 N   0  0  0  0  0  0  0  0  0  0  0  0
   39.3260   33.1750   40.4720 C   0  0  0  0  0  0  0  0  0  0  0  0
   38.5100   34.2050   40.2150 N   0  0  0  0  0  0  0  0  0  0  0  0
   38.6240   31.9070   40.5110 C   0  0  0  0  0  0  0  0  0  0  0  0
   38.4580   31.1800   41.6370 N   0  0  0  0  0  0  0  0  0  0  0  0
   37.8230   30.0200   41.7110 C   0  0  0  0  0  0  0  0  0  0  0  0
   37.2860   29.4730   40.6370 N   0  0  0  0  0  0  0  0  0  0  0  0
   37.3830   30.1020   39.4380 C   0  0  0  0  0  0  0  0  0  0  0  0
   36.8240   29.5380   38.3100 C   0  0  0  0  0  0  0  0  0  0  0  0
   36.9020   30.1390   37.1040 C   0  0  0  0  0  0  0  0  0  0  0  0
   37.5830   31.3860   37.0210 C   0  0  0  0  0  0  0  0  0  0  0  0
   38.1140   31.8860   38.1870 C   0  0  0  0  0  0  0  0  0  0  0  0
   38.0520   31.3060   39.4080 C   0  0  0  0  0  0  0  0  0  0  0  0
   43.0790   34.8190   42.0210 C   0  0  2  0  0  0  0  0  0  0  0  0
   43.0080   36.2730   42.6310 C   0  0  0  0  0  0  0  0  0  0  0  0
   44.5110   34.4600   41.8570 C   0  0  0  0  0  0  0  0  0  0  0  0
   44.9550   33.8580   43.1070 N   0  0  0  0  0  0  0  0  0  0  0  0
   46.0030   34.3300   43.8430 C   0  0  0  0  0  0  0  0  0  0  0  0
   46.1550   33.5520   44.9410 N   0  0  0  0  0  0  0  0  0  0  0  0
   45.1880   32.5960   44.8710 C   0  0  0  0  0  0  0  0  0  0  0  0
   44.4660   32.8110   43.7350 N   0  0  0  0  0  0  0  0  0  0  0  0
   44.7260   31.4430   45.6520 C   0  0  0  0  0  0  0  0  0  0  0  0
   44.4160   30.2340   45.0470 C   0  0  0  0  0  0  0  0  0  0  0  0
   43.9820   29.1840   45.8660 C   0  0  0  0  0  0  0  0  0  0  0  0
   43.8720   29.3800   47.2480 C   0  0  0  0  0  0  0  0  0  0  0  0
   44.1930   30.6110   47.8190 C   0  0  0  0  0  0  0  0  0  0  0  0
   44.6220   31.6520   47.0180 C   0  0  0  0  0  0  0  0  0  0  0  0
   38.1577   36.2609   39.9099 H   0  0  0  0  0  0  0  0  0  0  0  0
   40.6007   36.8449   40.2479 H   0  0  0  0  0  0  0  0  0  0  0  0
   37.7423   29.5061   42.6802 H   0  0  0  0  0  0  0  0  0  0  0  0
   36.3014   28.5739   38.3956 H   0  0  0  0  0  0  0  0  0  0  0  0
   36.4526   29.6787   36.2117 H   0  0  0  0  0  0  0  0  0  0  0  0
   37.6802   31.9255   36.0673 H   0  0  0  0  0  0  0  0  0  0  0  0
   38.6396   32.8500   38.1207 H   0  0  0  0  0  0  0  0  0  0  0  0
   42.6193   34.0336   42.6389 H   0  0  0  0  0  0  0  0  0  0  0  0
   43.0111   36.2104   43.7292 H   0  0  0  0  0  0  0  0  0  0  0  0
   43.8788   36.8547   42.2945 H   0  0  0  0  0  0  0  0  0  0  0  0
   42.0847   36.7671   42.2945 H   0  0  0  0  0  0  0  0  0  0  0  0
   44.6265   33.7418   41.0319 H   0  0  0  0  0  0  0  0  0  0  0  0
   45.1104   35.3516   41.6208 H   0  0  0  0  0  0  0  0  0  0  0  0
   46.6236   35.2011   43.5860 H   0  0  0  0  0  0  0  0  0  0  0  0
   44.5081   30.1040   43.9586 H   0  0  0  0  0  0  0  0  0  0  0  0
   43.7284   28.2087   45.4250 H   0  0  0  0  0  0  0  0  0  0  0  0
   43.5290   28.5549   47.8895 H   0  0  0  0  0  0  0  0  0  0  0  0
   44.1048   30.7532   48.9062 H   0  0  0  0  0  0  0  0  0  0  0  0
   44.8762   32.6283   47.4564 H   0  0  0  0  0  0  0  0  0  0  0  0
  1 18  1  0
  2  7  2  0
  2  3  1  0
  3  4  2  0
  4  5  1  0
  4  1  1  0
  6  8  1  0
  6  5  2  0
  7  6  1  0
  8  9  2  0
  9 10  1  0
 11 10  2  0
 12 11  1  0
 13 12  2  0
 14 13  1  0
 15 14  2  0
 15 16  1  0
 16 17  2  0
 17 12  1  0
 17  8  1  0
 18 19  1  0
 20 18  1  0
 20 21  1  0
 21 25  1  0
 21 22  1  0
 22 23  2  0
 24 23  1  0
 24 26  1  0
 25 24  2  0
 26 31  1  0
 27 26  2  0
 27 28  1  0
 28 29  2  0
 29 30  1  0
 31 30  2  0
  2 32  1  0
  3 33  1  0
 10 34  1  0
 13 35  1  0
 14 36  1  0
 15 37  1  0
 16 38  1  0
 18 39  1  1
 19 40  1  0
 19 41  1  0
 19 42  1  0
 20 43  1  0
 20 44  1  0
 22 45  1  0
 27 46  1  0
 28 47  1  0
 29 48  1  0
 30 49  1  0
 31 50  1  0
M  END
>  <minimizedAffinity>  (1) 
-7.06769848

>  <minimizedRMSD>  (1) 
0.4668369

$$$$
