
     RDKit          3D

 40 43  0  0  1  0  0  0  0  0999 V2000
   36.9250   30.7530   40.5350 C   0  0  1  0  0  0  0  0  0  0  0  0
   37.7460   31.9670   40.6790 C   0  0  0  0  0  0  0  0  0  0  0  0
   37.4940   32.6790   39.3540 C   0  0  0  0  0  0  0  0  0  0  0  0
   37.0390   31.6180   38.3800 C   0  0  0  0  0  0  0  0  0  0  0  0
   37.2210   30.3060   39.1090 C   0  0  2  0  0  0  0  0  0  0  0  0
   38.7670   28.8770   43.1300 C   0  0  0  0  0  0  0  0  0  0  0  0
   37.8120   27.8480   43.4760 C   0  0  0  0  0  0  0  0  0  0  0  0
   36.5650   27.8240   42.8000 C   0  0  0  0  0  0  0  0  0  0  0  0
   36.3000   28.7600   41.8510 N   0  0  0  0  0  0  0  0  0  0  0  0
   37.2370   29.7100   41.5620 C   0  0  0  0  0  0  0  0  0  0  0  0
   38.4460   29.7760   42.1800 N   0  0  0  0  0  0  0  0  0  0  0  0
   36.3400   29.2530   38.6400 C   0  0  0  0  0  0  0  0  0  0  0  0
   35.0470   29.1070   38.1660 C   0  0  0  0  0  0  0  0  0  0  0  0
   34.5920   27.8790   37.8300 C   0  0  0  0  0  0  0  0  0  0  0  0
   35.4280   26.7750   37.9640 C   0  0  0  0  0  0  0  0  0  0  0  0
   37.0050   27.5370   38.6280 S   0  0  0  0  0  0  0  0  0  0  0  0
   35.2140   25.4290   37.6960 C   0  0  0  0  0  0  0  0  0  0  0  0
   34.4780   25.0020   36.6100 C   0  0  0  0  0  0  0  0  0  0  0  0
   34.3150   23.6460   36.4190 C   0  0  0  0  0  0  0  0  0  0  0  0
   34.8600   22.7010   37.2730 C   0  0  0  0  0  0  0  0  0  0  0  0
   35.5940   23.1360   38.3550 C   0  0  0  0  0  0  0  0  0  0  0  0
   35.7730   24.4900   38.5700 C   0  0  0  0  0  0  0  0  0  0  0  0
   35.8540   30.9380   40.7046 H   0  0  0  0  0  0  0  0  0  0  0  0
   37.4111   32.5773   41.5307 H   0  0  0  0  0  0  0  0  0  0  0  0
   38.8085   31.7630   40.8779 H   0  0  0  0  0  0  0  0  0  0  0  0
   36.7130   33.4440   39.4756 H   0  0  0  0  0  0  0  0  0  0  0  0
   38.4013   33.1871   38.9953 H   0  0  0  0  0  0  0  0  0  0  0  0
   37.6546   31.6415   37.4687 H   0  0  0  0  0  0  0  0  0  0  0  0
   35.9968   31.7709   38.0629 H   0  0  0  0  0  0  0  0  0  0  0  0
   38.2076   29.8401   38.9692 H   0  0  0  0  0  0  0  0  0  0  0  0
   39.7426   28.9249   43.6359 H   0  0  0  0  0  0  0  0  0  0  0  0
   38.0474   27.0996   44.2471 H   0  0  0  0  0  0  0  0  0  0  0  0
   35.8182   27.0535   43.0422 H   0  0  0  0  0  0  0  0  0  0  0  0
   34.3934   29.9858   38.0634 H   0  0  0  0  0  0  0  0  0  0  0  0
   33.5664   27.7534   37.4527 H   0  0  0  0  0  0  0  0  0  0  0  0
   34.0316   25.7263   35.9127 H   0  0  0  0  0  0  0  0  0  0  0  0
   33.7290   23.3010   35.5543 H   0  0  0  0  0  0  0  0  0  0  0  0
   34.7100   21.6265   37.0912 H   0  0  0  0  0  0  0  0  0  0  0  0
   36.0376   22.4058   39.0479 H   0  0  0  0  0  0  0  0  0  0  0  0
   36.3597   24.8320   39.4353 H   0  0  0  0  0  0  0  0  0  0  0  0
  1  2  1  0
  1 10  1  0
  3  2  1  0
  4  5  1  0
  4  3  1  0
  5  1  1  0
  6  7  2  0
  8  7  1  0
  9  8  2  0
 10  9  1  0
 10 11  2  0
 11  6  1  0
 12  5  1  0
 13 12  2  0
 14 15  2  0
 14 13  1  0
 15 16  1  0
 16 12  1  0
 17 15  1  0
 17 22  1  0
 18 17  2  0
 19 18  1  0
 19 20  2  0
 20 21  1  0
 21 22  2  0
  1 23  1  6
  2 24  1  0
  2 25  1  0
  3 26  1  0
  3 27  1  0
  4 28  1  0
  4 29  1  0
  5 30  1  1
  6 31  1  0
  7 32  1  0
  8 33  1  0
 13 34  1  0
 14 35  1  0
 18 36  1  0
 19 37  1  0
 20 38  1  0
 21 39  1  0
 22 40  1  0
M  ISO  8  23  13  24  13  25  13  26  13  27  13  28  13  29  13  30  13
M  ISO  8  31  14  32  14  33  14  34  14  35  14  36  14  37  14  38  14
M  ISO  2  39  14  40  14
M  END
>  <minimizedAffinity>  (1) 
-4.97088623

>  <minimizedRMSD>  (1) 
0.975904942

$$$$
