
     RDKit          3D

 30 32  0  0  0  0  0  0  0  0999 V2000
   37.3670   25.9800   42.2850 C   0  0  0  0  0  0  0  0  0  0  0  0
   38.2600   25.0140   42.5830 C   0  0  0  0  0  0  0  0  0  0  0  0
   38.6790   24.0910   41.6980 C   0  0  0  0  0  0  0  0  0  0  0  0
   38.0480   24.2710   40.3920 C   0  0  0  0  0  0  0  0  0  0  0  0
   36.9930   25.6570   40.5730 S   0  0  0  0  0  0  0  0  0  0  0  0
   38.2690   23.4520   39.2010 C   0  0  0  0  0  0  0  0  0  0  0  0
   37.1110   23.0330   38.5850 C   0  0  0  0  0  0  0  0  0  0  0  0
   37.2800   22.2470   37.4390 C   0  0  0  0  0  0  0  0  0  0  0  0
   38.5750   21.9430   37.0060 C   0  0  0  0  0  0  0  0  0  0  0  0
   39.6970   22.4130   37.6970 C   0  0  0  0  0  0  0  0  0  0  0  0
   39.5590   23.2010   38.8440 C   0  0  0  0  0  0  0  0  0  0  0  0
   36.7350   27.0900   43.0070 C   0  0  0  0  0  0  0  0  0  0  0  0
   39.1340   30.0210   42.6750 C   0  0  0  0  0  0  0  0  0  0  0  0
   38.5970   28.7960   43.1060 C   0  0  0  0  0  0  0  0  0  0  0  0
   37.3700   28.3810   42.5960 C   0  0  0  0  0  0  0  0  0  0  0  0
   36.7540   29.1990   41.6980 N   0  0  0  0  0  0  0  0  0  0  0  0
   37.2880   30.3750   41.2960 C   0  0  0  0  0  0  0  0  0  0  0  0
   38.4560   30.7700   41.7810 N   0  0  0  0  0  0  0  0  0  0  0  0
   38.6675   24.9789   43.6041 H   0  0  0  0  0  0  0  0  0  0  0  0
   39.4065   23.2989   41.9289 H   0  0  0  0  0  0  0  0  0  0  0  0
   36.1153   23.2993   38.9694 H   0  0  0  0  0  0  0  0  0  0  0  0
   36.4056   21.8732   36.8860 H   0  0  0  0  0  0  0  0  0  0  0  0
   38.7134   21.3241   36.1072 H   0  0  0  0  0  0  0  0  0  0  0  0
   40.7032   22.1588   37.3325 H   0  0  0  0  0  0  0  0  0  0  0  0
   40.4200   23.5857   39.4102 H   0  0  0  0  0  0  0  0  0  0  0  0
   35.6614   27.1178   42.7689 H   0  0  0  0  0  0  0  0  0  0  0  0
   36.8680   26.9452   44.0893 H   0  0  0  0  0  0  0  0  0  0  0  0
   40.1025   30.3675   43.0647 H   0  0  0  0  0  0  0  0  0  0  0  0
   39.1378   28.1747   43.8350 H   0  0  0  0  0  0  0  0  0  0  0  0
   36.7534   31.0024   40.5676 H   0  0  0  0  0  0  0  0  0  0  0  0
  1  2  2  0
  1 12  1  0
  3  2  1  0
  4  5  1  0
  4  3  2  0
  5  1  1  0
  6  4  1  0
  7  6  2  0
  8  7  1  0
  9  8  2  0
  9 10  1  0
 10 11  2  0
 11  6  1  0
 13 14  2  0
 15 12  1  0
 15 14  1  0
 16 15  2  0
 17 16  1  0
 17 18  2  0
 18 13  1  0
  2 19  1  0
  3 20  1  0
  7 21  1  0
  8 22  1  0
  9 23  1  0
 10 24  1  0
 11 25  1  0
 12 26  1  0
 12 27  1  0
 13 28  1  0
 14 29  1  0
 17 30  1  0
M  ISO  8  19  14  20  14  21  14  22  14  23  14  24  14  25  14  26   8
M  ISO  4  27   8  28  14  29  14  30  14
M  END
>  <minimizedAffinity>  (1) 
-3.94504237

>  <minimizedRMSD>  (1) 
0.697259128

$$$$
