
     RDKit          3D

 45 49  0  0  0  0  0  0  0  0999 V2000
   40.3580   32.8910   40.7760 C   0  0  0  0  0  0  0  0  0  0  0  0
   41.4300   32.2920   41.4700 C   0  0  0  0  0  0  0  0  0  0  0  0
   41.3230   31.0990   42.1650 C   0  0  0  0  0  0  0  0  0  0  0  0
   40.0940   30.4530   42.1810 C   0  0  0  0  0  0  0  0  0  0  0  0
   39.0310   30.9930   41.5250 C   0  0  0  0  0  0  0  0  0  0  0  0
   37.8580   30.3220   41.5630 C   0  0  0  0  0  0  0  0  0  0  0  0
   36.7140   30.8290   40.8910 C   0  0  0  0  0  0  0  0  0  0  0  0
   36.9060   32.0430   40.2080 C   0  0  0  0  0  0  0  0  0  0  0  0
   38.1210   32.6620   40.2150 C   0  0  0  0  0  0  0  0  0  0  0  0
   39.2230   32.1640   40.8700 C   0  0  0  0  0  0  0  0  0  0  0  0
   40.6630   34.1260   40.1300 C   0  0  0  0  0  0  0  0  0  0  0  0
   40.2610   35.4390   40.4480 C   0  0  0  0  0  0  0  0  0  0  0  0
   40.6740   36.5430   39.7120 C   0  0  0  0  0  0  0  0  0  0  0  0
   41.5030   36.2830   38.6520 N   0  0  0  0  0  0  0  0  0  0  0  0
   41.8870   35.0610   38.3420 C   0  0  0  0  0  0  0  0  0  0  0  0
   41.4780   34.0130   39.0610 N   0  0  0  0  0  0  0  0  0  0  0  0
   37.5210   29.0840   42.2220 C   0  0  0  0  0  0  0  0  0  0  0  0
   37.2870   28.8550   43.5620 C   0  0  0  0  0  0  0  0  0  0  0  0
   36.9390   27.6460   44.1100 C   0  0  0  0  0  0  0  0  0  0  0  0
   36.7990   26.5420   43.3040 C   0  0  0  0  0  0  0  0  0  0  0  0
   37.0330   26.7790   41.9810 C   0  0  0  0  0  0  0  0  0  0  0  0
   37.3740   27.9780   41.4710 N   0  0  0  0  0  0  0  0  0  0  0  0
   36.9150   25.6790   41.0240 C   0  0  0  0  0  0  0  0  0  0  0  0
   37.0990   24.3470   41.3300 C   0  0  0  0  0  0  0  0  0  0  0  0
   36.9830   23.3290   40.4120 C   0  0  0  0  0  0  0  0  0  0  0  0
   36.6670   23.6140   39.1130 C   0  0  0  0  0  0  0  0  0  0  0  0
   36.4730   24.9130   38.7500 C   0  0  0  0  0  0  0  0  0  0  0  0
   36.6000   25.8820   39.6950 C   0  0  0  0  0  0  0  0  0  0  0  0
   42.4052   32.8008   41.4585 H   0  0  0  0  0  0  0  0  0  0  0  0
   42.1902   30.6736   42.6914 H   0  0  0  0  0  0  0  0  0  0  0  0
   39.9795   29.5036   42.7246 H   0  0  0  0  0  0  0  0  0  0  0  0
   35.7452   30.3082   40.9040 H   0  0  0  0  0  0  0  0  0  0  0  0
   36.0667   32.4985   39.6620 H   0  0  0  0  0  0  0  0  0  0  0  0
   38.2253   33.6103   39.6675 H   0  0  0  0  0  0  0  0  0  0  0  0
   39.5961   35.5955   41.3102 H   0  0  0  0  0  0  0  0  0  0  0  0
   40.3546   37.5647   39.9651 H   0  0  0  0  0  0  0  0  0  0  0  0
   42.5525   34.9026   37.4806 H   0  0  0  0  0  0  0  0  0  0  0  0
   37.3874   29.7103   44.2463 H   0  0  0  0  0  0  0  0  0  0  0  0
   36.7722   27.5607   45.1939 H   0  0  0  0  0  0  0  0  0  0  0  0
   36.5217   25.5510   43.6926 H   0  0  0  0  0  0  0  0  0  0  0  0
   37.3530   24.0835   42.3673 H   0  0  0  0  0  0  0  0  0  0  0  0
   37.1444   22.2863   40.7231 H   0  0  0  0  0  0  0  0  0  0  0  0
   36.5708   22.8069   38.3719 H   0  0  0  0  0  0  0  0  0  0  0  0
   36.2184   25.1727   37.7118 H   0  0  0  0  0  0  0  0  0  0  0  0
   36.4372   26.9208   39.3720 H   0  0  0  0  0  0  0  0  0  0  0  0
  1 10  1  0
  1  2  2  0
  2  3  1  0
  3  4  2  0
  5  6  2  0
  5  4  1  0
  6 17  1  0
  7  6  1  0
  8  9  1  0
  8  7  2  0
  9 10  2  0
 10  5  1  0
 11 12  2  0
 11  1  1  0
 13 12  1  0
 14 13  2  0
 15 14  1  0
 15 16  2  0
 16 11  1  0
 17 18  2  0
 18 19  1  0
 20 19  2  0
 21 20  1  0
 22 21  2  0
 22 17  1  0
 23 24  2  0
 23 21  1  0
 25 24  1  0
 26 25  2  0
 27 26  1  0
 27 28  2  0
 28 23  1  0
  2 29  1  0
  3 30  1  0
  4 31  1  0
  7 32  1  0
  8 33  1  0
  9 34  1  0
 12 35  1  0
 13 36  1  0
 15 37  1  0
 18 38  1  0
 19 39  1  0
 20 40  1  0
 24 41  1  0
 25 42  1  0
 26 43  1  0
 27 44  1  0
 28 45  1  0
M  END
>  <minimizedAffinity>  (1) 
-7.01001263

>  <minimizedRMSD>  (1) 
2.671983

$$$$
