
     RDKit          3D

 33 36  0  0  0  0  0  0  0  0999 V2000
   38.6390   27.2880   43.8150 C   0  0  0  0  0  0  0  0  0  0  0  0
   39.0780   26.3190   42.9100 C   0  0  0  0  0  0  0  0  0  0  0  0
   39.0480   26.6430   41.5590 C   0  0  0  0  0  0  0  0  0  0  0  0
   38.5930   27.8800   41.2110 N   0  0  0  0  0  0  0  0  0  0  0  0
   38.1720   28.7990   42.1220 C   0  0  0  0  0  0  0  0  0  0  0  0
   38.1990   28.4910   43.4280 N   0  0  0  0  0  0  0  0  0  0  0  0
   37.7510   30.0010   41.4940 N   0  0  0  0  0  0  0  0  0  0  0  0
   36.4400   30.1920   41.1540 C   0  0  0  0  0  0  0  0  0  0  0  0
   36.2830   31.3930   40.5770 N   0  0  0  0  0  0  0  0  0  0  0  0
   37.4830   31.9780   40.5410 C   0  0  0  0  0  0  0  0  0  0  0  0
   37.9730   33.1980   40.0800 C   0  0  0  0  0  0  0  0  0  0  0  0
   39.2910   33.4790   40.2060 N   0  0  0  0  0  0  0  0  0  0  0  0
   40.1430   32.6030   40.7680 C   0  0  0  0  0  0  0  0  0  0  0  0
   39.6900   31.3980   41.2300 N   0  0  0  0  0  0  0  0  0  0  0  0
   38.3820   31.1000   41.1140 C   0  0  0  0  0  0  0  0  0  0  0  0
   36.9840   34.0450   39.5040 N   0  0  0  0  0  0  0  0  0  0  0  0
   41.5590   32.9460   40.8840 C   0  0  0  0  0  0  0  0  0  0  0  0
   42.3210   32.3360   41.8730 C   0  0  0  0  0  0  0  0  0  0  0  0
   43.6610   32.6730   41.9690 C   0  0  0  0  0  0  0  0  0  0  0  0
   44.2230   33.5960   41.0970 C   0  0  0  0  0  0  0  0  0  0  0  0
   43.4280   34.1830   40.1220 C   0  0  0  0  0  0  0  0  0  0  0  0
   42.0710   33.8640   40.0000 C   0  0  0  0  0  0  0  0  0  0  0  0
   38.6556   27.0527   44.8894 H   0  0  0  0  0  0  0  0  0  0  0  0
   39.4340   25.3366   43.2536 H   0  0  0  0  0  0  0  0  0  0  0  0
   39.3806   25.9247   40.7952 H   0  0  0  0  0  0  0  0  0  0  0  0
   35.6319   29.4664   41.3283 H   0  0  0  0  0  0  0  0  0  0  0  0
   36.0033   33.7336   39.4568 H   0  0  0  0  0  0  0  0  0  0  0  0
   37.2492   34.9691   39.1345 H   0  0  0  0  0  0  0  0  0  0  0  0
   41.8719   31.6049   42.5614 H   0  0  0  0  0  0  0  0  0  0  0  0
   44.2861   32.2049   42.7436 H   0  0  0  0  0  0  0  0  0  0  0  0
   45.2879   33.8595   41.1780 H   0  0  0  0  0  0  0  0  0  0  0  0
   43.8739   34.9138   39.4313 H   0  0  0  0  0  0  0  0  0  0  0  0
   41.4404   34.3292   39.2280 H   0  0  0  0  0  0  0  0  0  0  0  0
  2  1  2  0
  3  2  1  0
  4  3  2  0
  4  5  1  0
  5  6  2  0
  6  1  1  0
  7  5  1  0
  8  7  1  0
  9  8  2  0
 10  9  1  0
 10 15  2  0
 11 12  2  0
 11 10  1  0
 12 13  1  0
 13 17  1  0
 13 14  2  0
 15 14  1  0
 15  7  1  0
 16 11  1  0
 17 18  2  0
 18 19  1  0
 20 19  2  0
 21 20  1  0
 22 21  2  0
 22 17  1  0
  1 23  1  0
  2 24  1  0
  3 25  1  0
  8 26  1  0
 16 27  1  0
 16 28  1  0
 18 29  1  0
 19 30  1  0
 20 31  1  0
 21 32  1  0
 22 33  1  0
M  ISO  8  23  14  24  14  25  14  26  14  29  14  30  14  31  14  32  14
M  ISO  1  33  14
M  END
>  <minimizedAffinity>  (1) 
-5.99282694

>  <minimizedRMSD>  (1) 
1.20478368

$$$$
