
     RDKit          3D

 36 39  0  0  0  0  0  0  0  0999 V2000
   39.3650   31.7770   40.9770 C   0  0  0  0  0  0  0  0  0  0  0  0
   40.2570   31.2680   41.9440 C   0  0  0  0  0  0  0  0  0  0  0  0
   40.2060   29.9900   42.4700 C   0  0  0  0  0  0  0  0  0  0  0  0
   39.2120   29.1380   42.0230 C   0  0  0  0  0  0  0  0  0  0  0  0
   38.3110   29.5770   41.0810 C   0  0  0  0  0  0  0  0  0  0  0  0
   37.3410   28.7190   40.6460 C   0  0  0  0  0  0  0  0  0  0  0  0
   36.4000   29.1000   39.6810 C   0  0  0  0  0  0  0  0  0  0  0  0
   36.5330   30.4130   39.2070 C   0  0  0  0  0  0  0  0  0  0  0  0
   37.5240   31.2250   39.6800 C   0  0  0  0  0  0  0  0  0  0  0  0
   38.4360   30.8490   40.6190 C   0  0  0  0  0  0  0  0  0  0  0  0
   39.5870   33.1200   40.5670 C   0  0  0  0  0  0  0  0  0  0  0  0
   38.8170   34.2700   40.7830 C   0  0  0  0  0  0  0  0  0  0  0  0
   39.1920   35.5380   40.3400 C   0  0  0  0  0  0  0  0  0  0  0  0
   40.3600   35.5930   39.6770 N   0  0  0  0  0  0  0  0  0  0  0  0
   41.1220   34.5200   39.4510 C   0  0  0  0  0  0  0  0  0  0  0  0
   40.7300   33.3170   39.8910 N   0  0  0  0  0  0  0  0  0  0  0  0
   37.1470   27.3610   41.1340 C   0  0  0  0  0  0  0  0  0  0  0  0
   36.9110   26.8940   42.4070 C   0  0  0  0  0  0  0  0  0  0  0  0
   36.7760   25.5410   42.6340 C   0  0  0  0  0  0  0  0  0  0  0  0
   36.8590   24.5840   41.6630 C   0  0  0  0  0  0  0  0  0  0  0  0
   37.0940   25.0350   40.3800 C   0  0  0  0  0  0  0  0  0  0  0  0
   37.2310   26.3870   40.1390 C   0  0  0  0  0  0  0  0  0  0  0  0
   41.0516   31.9368   42.3063 H   0  0  0  0  0  0  0  0  0  0  0  0
   40.9362   29.6598   43.2235 H   0  0  0  0  0  0  0  0  0  0  0  0
   39.1425   28.1141   42.4191 H   0  0  0  0  0  0  0  0  0  0  0  0
   35.6144   28.4192   39.3214 H   0  0  0  0  0  0  0  0  0  0  0  0
   35.8332   30.7922   38.4477 H   0  0  0  0  0  0  0  0  0  0  0  0
   37.5897   32.2466   39.2774 H   0  0  0  0  0  0  0  0  0  0  0  0
   37.8681   34.1677   41.3300 H   0  0  0  0  0  0  0  0  0  0  0  0
   38.5752   36.4307   40.5205 H   0  0  0  0  0  0  0  0  0  0  0  0
   42.0707   34.6238   38.9040 H   0  0  0  0  0  0  0  0  0  0  0  0
   36.8299   27.6019   43.2450 H   0  0  0  0  0  0  0  0  0  0  0  0
   36.5889   25.2100   43.6662 H   0  0  0  0  0  0  0  0  0  0  0  0
   36.7449   23.5139   41.8908 H   0  0  0  0  0  0  0  0  0  0  0  0
   37.1721   24.3173   39.5500 H   0  0  0  0  0  0  0  0  0  0  0  0
   37.4166   26.7145   39.1054 H   0  0  0  0  0  0  0  0  0  0  0  0
  1  2  2  0
  2  3  1  0
  4  3  2  0
  5  4  1  0
  6  5  2  0
  6 17  1  0
  7  6  1  0
  8  9  1  0
  8  7  2  0
  9 10  2  0
 10  1  1  0
 10  5  1  0
 11 12  2  0
 11  1  1  0
 13 12  1  0
 14 13  2  0
 15 14  1  0
 15 16  2  0
 16 11  1  0
 17 18  2  0
 18 19  1  0
 20 19  2  0
 21 20  1  0
 22 21  2  0
 22 17  1  0
  2 23  1  0
  3 24  1  0
  4 25  1  0
  7 26  1  0
  8 27  1  0
  9 28  1  0
 12 29  1  0
 13 30  1  0
 15 31  1  0
 18 32  1  0
 19 33  1  0
 20 34  1  0
 21 35  1  0
 22 36  1  0
M  ISO  8  23  14  24  14  25  14  26  14  27  14  28  14  29  14  30  14
M  ISO  6  31  14  32  14  33  14  34  14  35  14  36  14
M  END
>  <minimizedAffinity>  (1) 
-6.2337656

>  <minimizedRMSD>  (1) 
4.35812235

$$$$
