
     RDKit          3D

 37 41  0  0  0  0  0  0  0  0999 V2000
   37.7560   30.0630   41.4500 C   0  0  0  0  0  0  0  0  0  0  0  0
   39.1440   30.3190   41.1610 C   0  0  0  0  0  0  0  0  0  0  0  0
   39.5020   31.4410   40.4920 C   0  0  0  0  0  0  0  0  0  0  0  0
   38.4860   32.2880   40.1200 N   0  0  0  0  0  0  0  0  0  0  0  0
   37.1800   32.0330   40.3970 C   0  0  0  0  0  0  0  0  0  0  0  0
   36.8180   30.9270   41.0590 N   0  0  0  0  0  0  0  0  0  0  0  0
   40.8630   31.8160   40.1460 C   0  0  0  0  0  0  0  0  0  0  0  0
   41.8430   31.5710   39.3260 N   0  0  0  0  0  0  0  0  0  0  0  0
   42.8710   32.3000   39.5600 O   0  0  0  0  0  0  0  0  0  0  0  0
   42.6800   33.0930   40.5480 C   0  0  0  0  0  0  0  0  0  0  0  0
   41.4460   32.7900   40.9020 N   0  0  0  0  0  0  0  0  0  0  0  0
   43.4890   34.0740   41.1860 N   0  0  0  0  0  0  0  0  0  0  0  0
   44.7370   34.3930   40.8280 C   0  0  0  0  0  0  0  0  0  0  0  0
   45.1940   35.3630   41.6540 N   0  0  0  0  0  0  0  0  0  0  0  0
   44.2130   35.6410   42.5280 C   0  0  0  0  0  0  0  0  0  0  0  0
   43.1590   34.8310   42.2230 N   0  0  0  0  0  0  0  0  0  0  0  0
   40.0730   29.2940   41.6360 C   0  0  0  0  0  0  0  0  0  0  0  0
   40.1720   28.0780   40.8570 C   0  0  0  0  0  0  0  0  0  0  0  0
   41.4250   27.0800   41.7850 S   0  0  0  0  0  0  0  0  0  0  0  0
   41.5720   28.5170   43.0610 C   0  0  0  0  0  0  0  0  0  0  0  0
   40.8610   29.2810   42.6800 N   0  0  0  0  0  0  0  0  0  0  0  0
   42.5230   28.3430   44.2040 C   0  0  0  0  0  0  0  0  0  0  0  0
   42.3790   27.2460   45.0270 C   0  0  0  0  0  0  0  0  0  0  0  0
   43.2690   27.1140   46.0700 C   0  0  0  0  0  0  0  0  0  0  0  0
   44.2860   28.0050   46.3380 C   0  0  0  0  0  0  0  0  0  0  0  0
   44.3960   29.0870   45.4910 C   0  0  0  0  0  0  0  0  0  0  0  0
   43.5220   29.2510   44.4370 C   0  0  0  0  0  0  0  0  0  0  0  0
   37.4687   29.1517   41.9951 H   0  0  0  0  0  0  0  0  0  0  0  0
   36.4084   32.7465   40.0722 H   0  0  0  0  0  0  0  0  0  0  0  0
   45.3002   33.9412   39.9981 H   0  0  0  0  0  0  0  0  0  0  0  0
   44.2523   36.3835   43.3387 H   0  0  0  0  0  0  0  0  0  0  0  0
   39.6329   27.8113   39.9360 H   0  0  0  0  0  0  0  0  0  0  0  0
   41.5841   26.5049   44.8572 H   0  0  0  0  0  0  0  0  0  0  0  0
   43.1612   26.2417   46.7314 H   0  0  0  0  0  0  0  0  0  0  0  0
   44.9741   27.8601   47.1839 H   0  0  0  0  0  0  0  0  0  0  0  0
   45.1909   29.8288   45.6579 H   0  0  0  0  0  0  0  0  0  0  0  0
   43.6284   30.1226   43.7744 H   0  0  0  0  0  0  0  0  0  0  0  0
  2  1  2  0
  2 17  1  0
  3  2  1  0
  4  5  1  0
  4  3  2  0
  5  6  2  0
  6  1  1  0
  7  3  1  0
  7 11  1  0
  8  9  1  0
  8  7  2  0
  9 10  1  0
 10 11  2  0
 10 12  1  0
 12 16  1  0
 13 12  1  0
 13 14  2  0
 14 15  1  0
 16 15  2  0
 17 21  1  0
 18 17  2  0
 18 19  1  0
 19 20  1  0
 20 22  1  0
 21 20  2  0
 22 27  1  0
 22 23  2  0
 23 24  1  0
 24 25  2  0
 26 25  1  0
 27 26  2  0
  1 28  1  0
  5 29  1  0
 13 30  1  0
 15 31  1  0
 18 32  1  0
 23 33  1  0
 24 34  1  0
 25 35  1  0
 26 36  1  0
 27 37  1  0
M  ISO  8  28  14  29  14  30  14  31  14  32  14  33  14  34  14  35  14
M  ISO  2  36  14  37  14
M  END
>  <minimizedAffinity>  (1) 
-5.52288055

>  <minimizedRMSD>  (1) 
1.25778913

$$$$
