
     RDKit          3D

 29 31  0  0  0  0  0  0  0  0999 V2000
   36.4840   28.7110   41.8340 C   0  0  0  0  0  0  0  0  0  0  0  0
   35.6270   29.1270   40.8700 N   0  0  0  0  0  0  0  0  0  0  0  0
   36.0490   30.2550   40.3630 O   0  0  0  0  0  0  0  0  0  0  0  0
   37.1640   30.5660   40.9910 C   0  0  0  0  0  0  0  0  0  0  0  0
   37.4710   29.6350   41.9120 N   0  0  0  0  0  0  0  0  0  0  0  0
   39.4510   34.1030   40.2000 C   0  0  0  0  0  0  0  0  0  0  0  0
   40.0330   32.9770   40.7710 C   0  0  0  0  0  0  0  0  0  0  0  0
   39.3260   31.8230   41.0380 C   0  0  0  0  0  0  0  0  0  0  0  0
   37.9780   31.7650   40.7330 C   0  0  0  0  0  0  0  0  0  0  0  0
   37.4090   32.8760   40.1690 C   0  0  0  0  0  0  0  0  0  0  0  0
   38.1070   34.0350   39.8980 C   0  0  0  0  0  0  0  0  0  0  0  0
   40.3410   35.5560   39.8630 S   0  0  0  0  0  0  0  0  0  0  0  0
   41.4470   35.7460   40.8680 O   0  0  0  0  0  0  0  0  0  0  0  0
   39.4440   36.7560   39.9660 O   0  0  0  0  0  0  0  0  0  0  0  0
   36.4560   27.5860   42.6420 O   0  0  0  0  0  0  0  0  0  0  0  0
   39.6630   26.4940   43.9550 C   0  0  0  0  0  0  0  0  0  0  0  0
   39.7980   25.2900   43.2420 C   0  0  0  0  0  0  0  0  0  0  0  0
   38.7600   24.9300   42.3440 C   0  0  0  0  0  0  0  0  0  0  0  0
   37.6870   25.7770   42.2250 N   0  0  0  0  0  0  0  0  0  0  0  0
   37.6220   26.9180   42.9400 C   0  0  0  0  0  0  0  0  0  0  0  0
   38.5900   27.2780   43.7940 N   0  0  0  0  0  0  0  0  0  0  0  0
   41.1038   33.0076   41.0208 H   0  0  0  0  0  0  0  0  0  0  0  0
   39.8301   30.9559   41.4898 H   0  0  0  0  0  0  0  0  0  0  0  0
   36.3384   32.8425   39.9187 H   0  0  0  0  0  0  0  0  0  0  0  0
   37.5959   34.8973   39.4450 H   0  0  0  0  0  0  0  0  0  0  0  0
   40.8521   35.4353   38.5976 H   0  0  0  0  0  0  0  0  0  0  0  0
   40.4531   26.7972   44.6577 H   0  0  0  0  0  0  0  0  0  0  0  0
   40.6805   24.6472   43.3760 H   0  0  0  0  0  0  0  0  0  0  0  0
   38.8139   23.9992   41.7603 H   0  0  0  0  0  0  0  0  0  0  0  0
  1  5  1  0
  1 15  1  0
  2  1  2  0
  3  2  1  0
  3  4  1  0
  4  5  2  0
  6  7  2  0
  7  8  1  0
  9  4  1  0
  9  8  2  0
 10  9  1  0
 11 10  2  0
 11  6  1  0
 12 14  2  0
 12  6  1  0
 12 13  2  0
 15 20  1  0
 17 16  2  0
 18 17  1  0
 19 18  2  0
 19 20  1  0
 20 21  2  0
 21 16  1  0
  7 22  1  0
  8 23  1  0
 10 24  1  0
 11 25  1  0
 12 26  1  0
 16 27  1  0
 17 28  1  0
 18 29  1  0
M  ISO  8  22  14  23  14  24  14  25  14  26  11  27  14  28  14  29  14
M  END
>  <minimizedAffinity>  (1) 
-5.75707769

>  <minimizedRMSD>  (1) 
2.97735333

$$$$
