
     RDKit          3D

 53 57  0  0  1  0  0  0  0  0999 V2000
   43.0690   34.7610   41.9470 C   0  0  2  0  0  0  0  0  0  0  0  0
   43.1840   36.2220   42.5320 C   0  0  0  0  0  0  0  0  0  0  0  0
   44.4370   34.2270   41.7390 C   0  0  0  0  0  0  0  0  0  0  0  0
   44.8040   33.4900   42.9430 N   0  0  0  0  0  0  0  0  0  0  0  0
   45.9710   33.6650   43.6230 C   0  0  0  0  0  0  0  0  0  0  0  0
   46.0050   32.8390   44.6860 N   0  0  0  0  0  0  0  0  0  0  0  0
   44.8280   32.1410   44.6550 C   0  0  0  0  0  0  0  0  0  0  0  0
   44.1150   32.5590   43.5800 N   0  0  0  0  0  0  0  0  0  0  0  0
   43.8240   29.2550   47.6120 C   0  0  0  0  0  0  0  0  0  0  0  0
   43.8870   28.9070   46.2630 C   0  0  0  0  0  0  0  0  0  0  0  0
   44.2150   29.8380   45.2740 C   0  0  0  0  0  0  0  0  0  0  0  0
   44.4840   31.1400   45.6460 C   0  0  0  0  0  0  0  0  0  0  0  0
   44.4320   31.5230   46.9590 C   0  0  0  0  0  0  0  0  0  0  0  0
   44.1070   30.5890   47.9220 C   0  0  0  0  0  0  0  0  0  0  0  0
   43.4240   28.1460   48.8780 S   0  0  0  0  0  0  0  0  0  0  0  0
   42.0240   28.3600   49.4030 O   0  0  0  0  0  0  0  0  0  0  0  0
   44.3950   28.3810   50.0180 O   0  0  0  0  0  0  0  0  0  0  0  0
   42.3710   34.9350   40.7260 O   0  0  0  0  0  0  0  0  0  0  0  0
   38.8490   35.4640   40.1150 C   0  0  0  0  0  0  0  0  0  0  0  0
   40.2020   35.8020   40.2850 C   0  0  0  0  0  0  0  0  0  0  0  0
   41.0830   34.7280   40.5470 C   0  0  0  0  0  0  0  0  0  0  0  0
   40.5390   33.5230   40.6020 N   0  0  0  0  0  0  0  0  0  0  0  0
   39.2880   33.1650   40.4500 C   0  0  0  0  0  0  0  0  0  0  0  0
   38.4680   34.1960   40.2030 N   0  0  0  0  0  0  0  0  0  0  0  0
   38.5870   31.8970   40.4920 C   0  0  0  0  0  0  0  0  0  0  0  0
   38.4170   31.1770   41.6220 N   0  0  0  0  0  0  0  0  0  0  0  0
   37.7840   30.0210   41.7000 C   0  0  0  0  0  0  0  0  0  0  0  0
   37.2490   29.4640   40.6300 N   0  0  0  0  0  0  0  0  0  0  0  0
   37.3490   30.0860   39.4270 C   0  0  0  0  0  0  0  0  0  0  0  0
   36.7930   29.5110   38.3010 C   0  0  0  0  0  0  0  0  0  0  0  0
   36.8800   30.1130   37.0890 C   0  0  0  0  0  0  0  0  0  0  0  0
   37.5600   31.3550   37.0030 C   0  0  0  0  0  0  0  0  0  0  0  0
   38.0890   31.8680   38.1670 C   0  0  0  0  0  0  0  0  0  0  0  0
   38.0190   31.2910   39.3950 C   0  0  0  0  0  0  0  0  0  0  0  0
   42.5477   34.0469   42.6015 H   0  0  0  0  0  0  0  0  0  0  0  0
   43.1806   36.1782   43.6311 H   0  0  0  0  0  0  0  0  0  0  0  0
   44.1212   36.6827   42.1863 H   0  0  0  0  0  0  0  0  0  0  0  0
   42.3304   36.8236   42.1863 H   0  0  0  0  0  0  0  0  0  0  0  0
   44.4502   33.5553   40.8680 H   0  0  0  0  0  0  0  0  0  0  0  0
   45.1490   35.0441   41.5510 H   0  0  0  0  0  0  0  0  0  0  0  0
   46.7654   34.3737   43.3459 H   0  0  0  0  0  0  0  0  0  0  0  0
   43.6722   27.8691   45.9689 H   0  0  0  0  0  0  0  0  0  0  0  0
   44.2582   29.5384   44.2165 H   0  0  0  0  0  0  0  0  0  0  0  0
   44.6468   32.5636   47.2437 H   0  0  0  0  0  0  0  0  0  0  0  0
   44.0691   30.9064   48.9745 H   0  0  0  0  0  0  0  0  0  0  0  0
   43.4988   26.8725   48.3785 H   0  0  0  0  0  0  0  0  0  0  0  0
   38.1067   36.2493   39.9093 H   0  0  0  0  0  0  0  0  0  0  0  0
   40.5552   36.8416   40.2181 H   0  0  0  0  0  0  0  0  0  0  0  0
   37.7012   29.5140   42.6727 H   0  0  0  0  0  0  0  0  0  0  0  0
   36.2701   28.5472   38.3890 H   0  0  0  0  0  0  0  0  0  0  0  0
   36.4349   29.6503   36.1958 H   0  0  0  0  0  0  0  0  0  0  0  0
   37.6608   31.8870   36.0455 H   0  0  0  0  0  0  0  0  0  0  0  0
   38.6153   32.8313   38.0958 H   0  0  0  0  0  0  0  0  0  0  0  0
  1  2  1  0
  3  1  1  0
  3  4  1  0
  4  8  1  0
  4  5  1  0
  5  6  2  0
  7  6  1  0
  7 12  1  0
  8  7  2  0
  9 14  2  0
  9 15  1  0
 10  9  1  0
 11 12  1  0
 11 10  2  0
 12 13  2  0
 13 14  1  0
 15 16  2  0
 15 17  2  0
 18  1  1  0
 19 24  2  0
 19 20  1  0
 20 21  2  0
 21 22  1  0
 21 18  1  0
 23 25  1  0
 23 22  2  0
 24 23  1  0
 25 26  2  0
 26 27  1  0
 28 27  2  0
 29 28  1  0
 30 29  2  0
 31 30  1  0
 32 31  2  0
 32 33  1  0
 33 34  2  0
 34 29  1  0
 34 25  1  0
  1 35  1  1
  2 36  1  0
  2 37  1  0
  2 38  1  0
  3 39  1  0
  3 40  1  0
  5 41  1  0
 10 42  1  0
 11 43  1  0
 13 44  1  0
 14 45  1  0
 15 46  1  0
 19 47  1  0
 20 48  1  0
 27 49  1  0
 30 50  1  0
 31 51  1  0
 32 52  1  0
 33 53  1  0
M  END
>  <minimizedAffinity>  (1) 
-7.49291372

>  <minimizedRMSD>  (1) 
1.14318931

$$$$
