
     RDKit          3D

 36 39  0  0  0  0  0  0  0  0999 V2000
   38.8410   27.1630   43.8450 C   0  0  0  0  0  0  0  0  0  0  0  0
   39.3240   26.2250   42.9290 C   0  0  0  0  0  0  0  0  0  0  0  0
   39.2470   26.5480   41.5620 C   0  0  0  0  0  0  0  0  0  0  0  0
   38.7080   27.7480   41.2150 N   0  0  0  0  0  0  0  0  0  0  0  0
   38.2470   28.6400   42.1460 C   0  0  0  0  0  0  0  0  0  0  0  0
   38.3220   28.3280   43.4470 N   0  0  0  0  0  0  0  0  0  0  0  0
   37.7360   29.8100   41.5260 N   0  0  0  0  0  0  0  0  0  0  0  0
   36.4160   29.9170   41.2060 C   0  0  0  0  0  0  0  0  0  0  0  0
   36.1810   31.1150   40.6320 N   0  0  0  0  0  0  0  0  0  0  0  0
   37.3480   31.7770   40.5820 C   0  0  0  0  0  0  0  0  0  0  0  0
   37.7560   33.0210   40.1200 C   0  0  0  0  0  0  0  0  0  0  0  0
   39.0660   33.3790   40.2330 N   0  0  0  0  0  0  0  0  0  0  0  0
   39.9640   32.5580   40.7790 C   0  0  0  0  0  0  0  0  0  0  0  0
   39.5880   31.3320   41.2400 N   0  0  0  0  0  0  0  0  0  0  0  0
   38.2970   30.9510   41.1410 C   0  0  0  0  0  0  0  0  0  0  0  0
   36.7140   33.8030   39.5610 N   0  0  0  0  0  0  0  0  0  0  0  0
   44.0490   33.7020   41.1170 C   0  0  0  0  0  0  0  0  0  0  0  0
   43.2090   34.3540   40.2270 C   0  0  0  0  0  0  0  0  0  0  0  0
   41.8890   33.9590   40.1400 C   0  0  0  0  0  0  0  0  0  0  0  0
   41.3470   32.9420   40.8970 C   0  0  0  0  0  0  0  0  0  0  0  0
   42.2010   32.3140   41.7700 C   0  0  0  0  0  0  0  0  0  0  0  0
   43.5400   32.6810   41.8880 C   0  0  0  0  0  0  0  0  0  0  0  0
   45.6900   34.2900   41.1330 S   0  0  0  0  0  0  0  0  0  0  0  0
   46.0730   34.5990   39.7110 O   0  0  0  0  0  0  0  0  0  0  0  0
   45.6700   35.6200   41.8490 O   0  0  0  0  0  0  0  0  0  0  0  0
   38.8892   26.9367   44.9204 H   0  0  0  0  0  0  0  0  0  0  0  0
   39.7494   25.2678   43.2649 H   0  0  0  0  0  0  0  0  0  0  0  0
   39.6125   25.8496   40.7948 H   0  0  0  0  0  0  0  0  0  0  0  0
   35.6561   29.1429   41.3883 H   0  0  0  0  0  0  0  0  0  0  0  0
   35.7538   33.4320   39.5259 H   0  0  0  0  0  0  0  0  0  0  0  0
   36.9172   34.7421   39.1900 H   0  0  0  0  0  0  0  0  0  0  0  0
   43.5888   35.1738   39.5996 H   0  0  0  0  0  0  0  0  0  0  0  0
   41.2345   34.4838   39.4285 H   0  0  0  0  0  0  0  0  0  0  0  0
   41.8159   31.4955   42.3958 H   0  0  0  0  0  0  0  0  0  0  0  0
   44.1925   32.1534   42.5993 H   0  0  0  0  0  0  0  0  0  0  0  0
   46.5374   33.3840   41.7143 H   0  0  0  0  0  0  0  0  0  0  0  0
  2  1  2  0
  3  2  1  0
  4  3  2  0
  4  5  1  0
  5  6  2  0
  6  1  1  0
  7  5  1  0
  8  7  1  0
  9  8  2  0
 10  9  1  0
 10 15  2  0
 11 12  2  0
 11 10  1  0
 12 13  1  0
 13 20  1  0
 13 14  2  0
 15 14  1  0
 15  7  1  0
 16 11  1  0
 17 23  1  0
 17 22  2  0
 18 17  1  0
 19 18  2  0
 19 20  1  0
 20 21  2  0
 21 22  1  0
 23 25  2  0
 24 23  2  0
  1 26  1  0
  2 27  1  0
  3 28  1  0
  8 29  1  0
 16 30  1  0
 16 31  1  0
 18 32  1  0
 19 33  1  0
 21 34  1  0
 22 35  1  0
 23 36  1  0
M  ISO  8  26  14  27  14  28  14  29  14  32  14  33  14  34  14  35  14
M  ISO  1  36  11
M  END
>  <minimizedAffinity>  (1) 
-6.23503399

>  <minimizedRMSD>  (1) 
1.15803969

$$$$
