
     RDKit          3D

 53 57  0  0  0  0  0  0  0  0999 V2000
   38.8650   28.8450   42.4930 C   0  0  0  0  0  0  0  0  0  0  0  0
   37.9220   27.8810   42.7440 C   0  0  0  0  0  0  0  0  0  0  0  0
   36.7330   28.3360   42.1630 C   0  0  0  0  0  0  0  0  0  0  0  0
   37.0520   29.5140   41.6220 N   0  0  0  0  0  0  0  0  0  0  0  0
   38.2890   29.8450   41.7930 N   0  0  0  0  0  0  0  0  0  0  0  0
   42.1780   27.6490   43.7010 C   0  0  0  0  0  0  0  0  0  0  0  0
   40.8330   27.6060   43.3220 C   0  0  0  0  0  0  0  0  0  0  0  0
   40.2530   28.8180   42.8990 C   0  0  0  0  0  0  0  0  0  0  0  0
   40.9950   29.9530   42.8740 N   0  0  0  0  0  0  0  0  0  0  0  0
   42.3140   29.9200   43.2620 C   0  0  0  0  0  0  0  0  0  0  0  0
   42.8880   28.7850   43.6660 N   0  0  0  0  0  0  0  0  0  0  0  0
   44.4850   33.5360   43.1090 C   0  0  0  0  0  0  0  0  0  0  0  0
   44.8380   32.5730   44.0310 C   0  0  0  0  0  0  0  0  0  0  0  0
   44.1270   31.3890   44.0810 C   0  0  0  0  0  0  0  0  0  0  0  0
   43.0720   31.1660   43.2190 C   0  0  0  0  0  0  0  0  0  0  0  0
   42.7260   32.1350   42.3000 C   0  0  0  0  0  0  0  0  0  0  0  0
   43.4210   33.3420   42.2220 C   0  0  0  0  0  0  0  0  0  0  0  0
   45.4750   34.9810   43.1650 S   0  0  0  0  0  0  0  0  0  0  0  0
   46.9140   34.6370   43.4760 O   0  0  0  0  0  0  0  0  0  0  0  0
   45.4590   35.7500   41.8870 O   0  0  0  0  0  0  0  0  0  0  0  0
   36.0500   30.2600   40.9430 C   0  0  0  0  0  0  0  0  0  0  0  0
   35.2290   29.5000   39.9510 C   0  0  0  0  0  0  0  0  0  0  0  0
   35.8140   29.4170   38.5990 C   0  0  0  0  0  0  0  0  0  0  0  0
   37.1310   29.5490   38.2490 C   0  0  0  0  0  0  0  0  0  0  0  0
   37.6310   29.5330   36.9790 C   0  0  0  0  0  0  0  0  0  0  0  0
   36.7660   29.3740   35.9170 C   0  0  0  0  0  0  0  0  0  0  0  0
   35.4230   29.2330   36.2020 C   0  0  0  0  0  0  0  0  0  0  0  0
   34.6070   29.0830   35.1040 C   0  0  0  0  0  0  0  0  0  0  0  0
   33.2670   28.9380   35.2850 C   0  0  0  0  0  0  0  0  0  0  0  0
   32.7350   28.9410   36.5500 C   0  0  0  0  0  0  0  0  0  0  0  0
   33.6000   29.0960   37.6010 C   0  0  0  0  0  0  0  0  0  0  0  0
   34.9430   29.2510   37.5120 C   0  0  0  0  0  0  0  0  0  0  0  0
   33.0120   29.0740   38.8630 O   0  0  0  0  0  0  0  0  0  0  0  0
   38.0706   26.9390   43.2922 H   0  0  0  0  0  0  0  0  0  0  0  0
   35.7539   27.8348   42.1541 H   0  0  0  0  0  0  0  0  0  0  0  0
   42.6677   26.7234   44.0377 H   0  0  0  0  0  0  0  0  0  0  0  0
   40.2553   26.6704   43.3526 H   0  0  0  0  0  0  0  0  0  0  0  0
   45.6777   32.7457   44.7202 H   0  0  0  0  0  0  0  0  0  0  0  0
   44.4042   30.6173   44.8143 H   0  0  0  0  0  0  0  0  0  0  0  0
   41.8851   31.9522   41.6149 H   0  0  0  0  0  0  0  0  0  0  0  0
   43.1423   34.1136   41.4892 H   0  0  0  0  0  0  0  0  0  0  0  0
   44.9305   35.7576   44.1536 H   0  0  0  0  0  0  0  0  0  0  0  0
   35.3668   30.6732   41.6996 H   0  0  0  0  0  0  0  0  0  0  0  0
   36.5895   31.0219   40.3612 H   0  0  0  0  0  0  0  0  0  0  0  0
   35.0957   28.4759   40.3298 H   0  0  0  0  0  0  0  0  0  0  0  0
   34.2822   30.0500   39.8459 H   0  0  0  0  0  0  0  0  0  0  0  0
   37.8538   29.6802   39.0678 H   0  0  0  0  0  0  0  0  0  0  0  0
   38.7113   29.6456   36.8048 H   0  0  0  0  0  0  0  0  0  0  0  0
   37.1331   29.3600   34.8802 H   0  0  0  0  0  0  0  0  0  0  0  0
   35.0343   29.0804   34.0904 H   0  0  0  0  0  0  0  0  0  0  0  0
   32.6066   28.8178   34.4135 H   0  0  0  0  0  0  0  0  0  0  0  0
   31.6537   28.8233   36.7141 H   0  0  0  0  0  0  0  0  0  0  0  0
   33.5725   29.1798   39.6722 H   0  0  0  0  0  0  0  0  0  0  0  0
  1  2  1  0
  1  8  1  0
  3  2  2  0
  4  5  1  0
  4  3  1  0
  5  1  2  0
  7  6  2  0
  8  7  1  0
  9  8  2  0
  9 10  1  0
 10 11  2  0
 11  6  1  0
 12 18  1  0
 12 13  2  0
 13 14  1  0
 15 10  1  0
 15 14  2  0
 16 15  1  0
 17 16  2  0
 17 12  1  0
 18 19  2  0
 20 18  2  0
 21  4  1  0
 22 21  1  0
 23 22  1  0
 24 23  2  0
 25 24  1  0
 26 27  1  0
 26 25  2  0
 27 32  2  0
 28 29  2  0
 28 27  1  0
 29 30  1  0
 30 31  2  0
 31 33  1  0
 32 31  1  0
 32 23  1  0
  2 34  1  0
  3 35  1  0
  6 36  1  0
  7 37  1  0
 13 38  1  0
 14 39  1  0
 16 40  1  0
 17 41  1  0
 18 42  1  0
 21 43  1  0
 21 44  1  0
 22 45  1  0
 22 46  1  0
 24 47  1  0
 25 48  1  0
 26 49  1  0
 28 50  1  0
 29 51  1  0
 30 52  1  0
 33 53  1  0
M  ISO  8  34  14  35  14  36  14  37  14  38  14  39  14  40  14  41  14
M  ISO  8  42  11  43   8  44   8  45   8  46   8  47  14  48  14  49  14
M  ISO  4  50  14  51  14  52  14  53   3
M  END
>  <minimizedAffinity>  (1) 
-6.55585527

>  <minimizedRMSD>  (1) 
1.47487974

$$$$
