
     RDKit          3D

 30 31  0  0  0  0  0  0  0  0999 V2000
   38.5270   29.2170   42.5070 C   0  0  0  0  0  0  0  0  0  0  0  0
   37.7610   29.1170   41.2990 C   0  0  0  0  0  0  0  0  0  0  0  0
   37.2370   27.8640   41.0720 C   0  0  0  0  0  0  0  0  0  0  0  0
   37.4510   26.8370   41.9450 N   0  0  0  0  0  0  0  0  0  0  0  0
   38.1750   26.9960   43.0560 C   0  0  0  0  0  0  0  0  0  0  0  0
   38.7140   28.1790   43.3410 N   0  0  0  0  0  0  0  0  0  0  0  0
   37.6300   30.2720   40.5090 N   0  0  0  0  0  0  0  0  0  0  0  0
   36.7820   31.3700   40.8170 C   0  0  0  0  0  0  0  0  0  0  0  0
   35.6310   31.0800   41.3900 N   0  0  0  0  0  0  0  0  0  0  0  0
   37.2970   32.6670   40.4660 N   0  0  0  0  0  0  0  0  0  0  0  0
   34.9890   31.8280   41.6860 H   0  0  0  0  0  0  0  0  0  0  0  0
   35.1830   26.7520   37.5250 C   0  0  0  0  0  0  0  0  0  0  0  0
   36.1530   25.9880   38.1210 C   0  0  0  0  0  0  0  0  0  0  0  0
   36.7710   26.4320   39.2840 C   0  0  0  0  0  0  0  0  0  0  0  0
   36.4320   27.6550   39.8800 C   0  0  0  0  0  0  0  0  0  0  0  0
   35.4560   28.4040   39.2620 C   0  0  0  0  0  0  0  0  0  0  0  0
   34.8550   27.9520   38.1130 C   0  0  0  0  0  0  0  0  0  0  0  0
   34.2960   26.3770   36.0750 S   0  0  0  0  0  0  0  0  0  0  0  0
   35.2170   25.7320   35.0690 O   0  0  0  0  0  0  0  0  0  0  0  0
   33.6560   27.6120   35.5330 O   0  0  0  0  0  0  0  0  0  0  0  0
   38.9816   30.1855   42.7627 H   0  0  0  0  0  0  0  0  0  0  0  0
   38.3263   26.1462   43.7379 H   0  0  0  0  0  0  0  0  0  0  0  0
   38.1884   30.3265   39.6452 H   0  0  0  0  0  0  0  0  0  0  0  0
   36.7397   33.5116   40.6581 H   0  0  0  0  0  0  0  0  0  0  0  0
   38.2229   32.7507   40.0226 H   0  0  0  0  0  0  0  0  0  0  0  0
   36.4422   25.0233   37.6786 H   0  0  0  0  0  0  0  0  0  0  0  0
   37.5472   25.8069   39.7496 H   0  0  0  0  0  0  0  0  0  0  0  0
   35.1556   29.3711   39.6916 H   0  0  0  0  0  0  0  0  0  0  0  0
   34.0795   28.5749   37.6433 H   0  0  0  0  0  0  0  0  0  0  0  0
   33.2950   25.4862   36.3600 H   0  0  0  0  0  0  0  0  0  0  0  0
  1  6  2  0
  2  1  1  0
  3  2  2  0
  3  4  1  0
  4  5  2  0
  5  6  1  0
  7  8  1  0
  7  2  1  0
  8  9  2  0
  9 11  1  0
 10  8  1  0
 12 17  2  0
 12 13  1  0
 13 14  2  0
 14 15  1  0
 15  3  1  0
 16 15  2  0
 17 16  1  0
 18 12  1  0
 19 18  2  0
 20 18  2  0
  1 21  1  0
  5 22  1  0
  7 23  1  0
 10 24  1  0
 10 25  1  0
 13 26  1  0
 14 27  1  0
 16 28  1  0
 17 29  1  0
 18 30  1  0
M  ISO  7  21  14  22  14  26  14  27  14  28  14  29  14  30  11
M  END
>  <minimizedAffinity>  (1) 
-4.99555492

>  <minimizedRMSD>  (1) 
0.977591932

$$$$
