
     RDKit          3D

 36 39  0  0  0  0  0  0  0  0999 V2000
   38.6590   28.4720   43.2350 C   0  0  0  0  0  0  0  0  0  0  0  0
   38.3270   27.2430   42.6080 C   0  0  0  0  0  0  0  0  0  0  0  0
   37.3540   27.2610   41.5950 C   0  0  0  0  0  0  0  0  0  0  0  0
   36.8010   28.4610   41.2910 N   0  0  0  0  0  0  0  0  0  0  0  0
   37.1380   29.5840   41.9000 C   0  0  0  0  0  0  0  0  0  0  0  0
   38.0600   29.6080   42.8680 N   0  0  0  0  0  0  0  0  0  0  0  0
   36.1910   23.8390   39.4630 C   0  0  0  0  0  0  0  0  0  0  0  0
   36.6040   23.6510   40.7620 C   0  0  0  0  0  0  0  0  0  0  0  0
   36.9830   24.7820   41.4540 C   0  0  0  0  0  0  0  0  0  0  0  0
   36.9630   26.0350   40.9060 C   0  0  0  0  0  0  0  0  0  0  0  0
   36.5390   26.1450   39.5980 C   0  0  0  0  0  0  0  0  0  0  0  0
   36.1390   25.0730   38.8260 C   0  0  0  0  0  0  0  0  0  0  0  0
   35.6820   22.4650   38.4750 S   0  0  0  0  0  0  0  0  0  0  0  0
   35.3070   22.9730   37.0950 O   0  0  0  0  0  0  0  0  0  0  0  0
   34.4730   21.7990   39.0870 O   0  0  0  0  0  0  0  0  0  0  0  0
   36.4140   30.6470   41.3860 O   0  0  0  0  0  0  0  0  0  0  0  0
   37.0290   31.5490   40.5230 C   0  0  0  0  0  0  0  0  0  0  0  0
   36.8620   31.7180   39.1790 N   0  0  0  0  0  0  0  0  0  0  0  0
   37.6490   32.6870   38.7790 O   0  0  0  0  0  0  0  0  0  0  0  0
   38.3040   33.1250   39.8420 C   0  0  0  0  0  0  0  0  0  0  0  0
   37.9500   32.4480   40.9430 N   0  0  0  0  0  0  0  0  0  0  0  0
   39.2810   34.2080   39.7950 C   0  0  0  0  0  0  0  0  0  0  0  0
   39.0680   35.5160   40.2000 C   0  0  0  0  0  0  0  0  0  0  0  0
   40.2220   36.2450   40.0030 C   0  0  0  0  0  0  0  0  0  0  0  0
   41.1160   35.3310   39.4720 C   0  0  0  0  0  0  0  0  0  0  0  0
   40.5170   34.1840   39.3790 O   0  0  0  0  0  0  0  0  0  0  0  0
   39.4175   28.4893   44.0315 H   0  0  0  0  0  0  0  0  0  0  0  0
   38.8169   26.3044   42.9063 H   0  0  0  0  0  0  0  0  0  0  0  0
   36.6304   22.6528   41.2234 H   0  0  0  0  0  0  0  0  0  0  0  0
   37.3172   24.6712   42.4961 H   0  0  0  0  0  0  0  0  0  0  0  0
   36.5184   27.1464   39.1432 H   0  0  0  0  0  0  0  0  0  0  0  0
   35.8041   25.1869   37.7844 H   0  0  0  0  0  0  0  0  0  0  0  0
   36.7073   21.5594   38.4007 H   0  0  0  0  0  0  0  0  0  0  0  0
   38.1278   35.9102   40.6130 H   0  0  0  0  0  0  0  0  0  0  0  0
   40.3931   37.3100   40.2186 H   0  0  0  0  0  0  0  0  0  0  0  0
   42.1553   35.5411   39.1793 H   0  0  0  0  0  0  0  0  0  0  0  0
  2  1  2  0
  3  2  1  0
  4  3  2  0
  4  5  1  0
  5  6  2  0
  6  1  1  0
  7  8  2  0
  8  9  1  0
 10  9  2  0
 10  3  1  0
 11 10  1  0
 12  7  1  0
 12 11  2  0
 13 15  2  0
 13  7  1  0
 14 13  2  0
 16  5  1  0
 17 21  1  0
 17 16  1  0
 18 17  2  0
 19 18  1  0
 19 20  1  0
 20 21  2  0
 22 20  1  0
 22 23  2  0
 24 23  1  0
 25 24  2  0
 26 25  1  0
 26 22  1  0
  1 27  1  0
  2 28  1  0
  8 29  1  0
  9 30  1  0
 11 31  1  0
 12 32  1  0
 13 33  1  0
 23 34  1  0
 24 35  1  0
 25 36  1  0
M  ISO  8  27  14  28  14  29  14  30  14  31  14  32  14  33  11  34  14
M  ISO  2  35  14  36  14
M  END
>  <minimizedAffinity>  (1) 
-6.21560907

>  <minimizedRMSD>  (1) 
1.08134866

$$$$
