
     RDKit          3D

 35 38  0  0  0  0  0  0  0  0999 V2000
   40.1250   25.4400   43.6180 C   0  0  0  0  0  0  0  0  0  0  0  0
   39.5830   26.7160   43.9210 C   0  0  0  0  0  0  0  0  0  0  0  0
   38.3880   27.0770   43.2810 C   0  0  0  0  0  0  0  0  0  0  0  0
   37.7990   26.2150   42.4120 N   0  0  0  0  0  0  0  0  0  0  0  0
   38.3570   25.0060   42.1560 C   0  0  0  0  0  0  0  0  0  0  0  0
   39.5070   24.6180   42.7490 N   0  0  0  0  0  0  0  0  0  0  0  0
   36.4150   22.3420   39.4160 C   0  0  0  0  0  0  0  0  0  0  0  0
   35.7750   23.4710   39.9150 C   0  0  0  0  0  0  0  0  0  0  0  0
   36.4080   24.3390   40.8080 C   0  0  0  0  0  0  0  0  0  0  0  0
   37.7200   24.0760   41.2180 C   0  0  0  0  0  0  0  0  0  0  0  0
   38.3860   22.9640   40.7420 C   0  0  0  0  0  0  0  0  0  0  0  0
   37.7050   22.1480   39.8630 C   0  0  0  0  0  0  0  0  0  0  0  0
   35.6460   21.2500   38.3050 S   0  0  0  0  0  0  0  0  0  0  0  0
   36.7190   20.4500   37.6080 O   0  0  0  0  0  0  0  0  0  0  0  0
   34.7710   20.2390   39.0020 O   0  0  0  0  0  0  0  0  0  0  0  0
   37.9040   28.3210   43.6070 O   0  0  0  0  0  0  0  0  0  0  0  0
   39.5600   31.7640   41.1250 N   0  0  0  0  0  0  0  0  0  0  0  0
   40.4430   31.3250   42.0450 C   0  0  0  0  0  0  0  0  0  0  0  0
   39.8680   30.3170   42.7230 N   0  0  0  0  0  0  0  0  0  0  0  0
   38.6260   30.0880   42.2620 C   0  0  0  0  0  0  0  0  0  0  0  0
   37.6060   29.2000   42.5770 C   0  0  0  0  0  0  0  0  0  0  0  0
   36.4320   29.2510   41.8780 N   0  0  0  0  0  0  0  0  0  0  0  0
   36.2860   30.1630   40.8960 C   0  0  0  0  0  0  0  0  0  0  0  0
   37.2610   31.0500   40.5590 N   0  0  0  0  0  0  0  0  0  0  0  0
   38.4360   31.0200   41.2370 C   0  0  0  0  0  0  0  0  0  0  0  0
   41.0608   25.1188   44.0986 H   0  0  0  0  0  0  0  0  0  0  0  0
   40.0801   27.3950   44.6295 H   0  0  0  0  0  0  0  0  0  0  0  0
   34.7437   23.6862   39.5985 H   0  0  0  0  0  0  0  0  0  0  0  0
   35.8777   25.2250   41.1871 H   0  0  0  0  0  0  0  0  0  0  0  0
   39.4172   22.7382   41.0511 H   0  0  0  0  0  0  0  0  0  0  0  0
   38.2385   21.2635   39.4848 H   0  0  0  0  0  0  0  0  0  0  0  0
   34.8850   22.0093   37.4557 H   0  0  0  0  0  0  0  0  0  0  0  0
   39.7144   32.5309   40.4550 H   0  0  0  0  0  0  0  0  0  0  0  0
   41.4553   31.7219   42.2112 H   0  0  0  0  0  0  0  0  0  0  0  0
   35.3359   30.1913   40.3423 H   0  0  0  0  0  0  0  0  0  0  0  0
  1  2  2  0
  3 16  1  0
  3  2  1  0
  4  3  2  0
  5  4  1  0
  5  6  2  0
  6  1  1  0
  7 12  2  0
  7  8  1  0
  8  9  2  0
  9 10  1  0
 10  5  1  0
 11 10  2  0
 12 11  1  0
 13 15  2  0
 13  7  1  0
 14 13  2  0
 17 25  1  0
 17 18  1  0
 18 19  2  0
 20 21  2  0
 20 19  1  0
 21 16  1  0
 22 21  1  0
 23 22  2  0
 24 23  1  0
 24 25  2  0
 25 20  1  0
  1 26  1  0
  2 27  1  0
  8 28  1  0
  9 29  1  0
 11 30  1  0
 12 31  1  0
 13 32  1  0
 17 33  1  0
 18 34  1  0
 23 35  1  0
M  ISO  8  26  14  27  14  28  14  29  14  30  14  31  14  32  11  33   9
M  ISO  2  34  14  35  14
M  END
>  <minimizedAffinity>  (1) 
-5.67291641

>  <minimizedRMSD>  (1) 
7.24721622

$$$$
