
     RDKit          3D

 41 44  0  0  1  0  0  0  0  0999 V2000
   37.9850   27.3800   42.7620 C   0  0  2  0  0  0  0  0  0  0  0  0
   39.0730   27.6660   43.7030 C   0  0  0  0  0  0  0  0  0  0  0  0
   39.8170   26.3510   43.8560 C   0  0  0  0  0  0  0  0  0  0  0  0
   39.3280   25.4640   42.7600 C   0  0  0  0  0  0  0  0  0  0  0  0
   38.5740   26.3760   41.7910 C   0  0  1  0  0  0  0  0  0  0  0  0
   38.0470   29.7850   41.9310 C   0  0  0  0  0  0  0  0  0  0  0  0
   37.4020   28.5260   42.0810 C   0  0  0  0  0  0  0  0  0  0  0  0
   36.1310   28.3570   41.5430 C   0  0  0  0  0  0  0  0  0  0  0  0
   35.5600   29.4220   40.8870 N   0  0  0  0  0  0  0  0  0  0  0  0
   36.2040   30.6300   40.7530 C   0  0  0  0  0  0  0  0  0  0  0  0
   37.4620   30.7950   41.2880 N   0  0  0  0  0  0  0  0  0  0  0  0
   37.5650   25.4380   41.2160 C   0  0  0  0  0  0  0  0  0  0  0  0
   36.9360   24.5030   41.9630 N   0  0  0  0  0  0  0  0  0  0  0  0
   36.1220   23.8610   41.1550 O   0  0  0  0  0  0  0  0  0  0  0  0
   36.2380   24.3710   39.9440 C   0  0  0  0  0  0  0  0  0  0  0  0
   37.1260   25.3580   39.9320 N   0  0  0  0  0  0  0  0  0  0  0  0
   33.9550   22.8830   36.6830 C   0  0  0  0  0  0  0  0  0  0  0  0
   33.8760   22.3070   37.9340 C   0  0  0  0  0  0  0  0  0  0  0  0
   34.6130   22.7710   39.0290 C   0  0  0  0  0  0  0  0  0  0  0  0
   35.4490   23.8550   38.8210 C   0  0  0  0  0  0  0  0  0  0  0  0
   35.5290   24.4340   37.5640 C   0  0  0  0  0  0  0  0  0  0  0  0
   34.7990   23.9760   36.4730 C   0  0  0  0  0  0  0  0  0  0  0  0
   32.9740   22.1880   35.4200 S   0  0  0  0  0  0  0  0  0  0  0  0
   33.1160   20.6970   35.3660 O   0  0  0  0  0  0  0  0  0  0  0  0
   31.5250   22.4900   35.6850 O   0  0  0  0  0  0  0  0  0  0  0  0
   37.1160   26.9985   43.3182 H   0  0  0  0  0  0  0  0  0  0  0  0
   39.7394   28.4424   43.2990 H   0  0  0  0  0  0  0  0  0  0  0  0
   38.6977   28.0426   44.6660 H   0  0  0  0  0  0  0  0  0  0  0  0
   40.9008   26.5130   43.7601 H   0  0  0  0  0  0  0  0  0  0  0  0
   39.6374   25.9023   44.8441 H   0  0  0  0  0  0  0  0  0  0  0  0
   40.1753   24.9813   42.2510 H   0  0  0  0  0  0  0  0  0  0  0  0
   38.6823   24.6615   43.1462 H   0  0  0  0  0  0  0  0  0  0  0  0
   39.0991   26.8927   40.9741 H   0  0  0  0  0  0  0  0  0  0  0  0
   39.0517   29.9281   42.3555 H   0  0  0  0  0  0  0  0  0  0  0  0
   35.5981   27.3996   41.6394 H   0  0  0  0  0  0  0  0  0  0  0  0
   35.7164   31.4602   40.2210 H   0  0  0  0  0  0  0  0  0  0  0  0
   33.2054   21.4468   38.0766 H   0  0  0  0  0  0  0  0  0  0  0  0
   34.5315   22.2933   40.0165 H   0  0  0  0  0  0  0  0  0  0  0  0
   36.2000   25.2942   37.4235 H   0  0  0  0  0  0  0  0  0  0  0  0
   34.8826   24.4543   35.4859 H   0  0  0  0  0  0  0  0  0  0  0  0
   33.3941   22.7304   34.2342 H   0  0  0  0  0  0  0  0  0  0  0  0
  1  2  1  0
  2  3  1  0
  4  3  1  0
  5  4  1  0
  5  1  1  0
  6  7  2  0
  7  1  1  0
  8  7  1  0
  9  8  2  0
 10  9  1  0
 10 11  2  0
 11  6  1  0
 12  5  1  0
 12 13  2  0
 14 13  1  0
 15 14  1  0
 16 15  2  0
 16 12  1  0
 17 18  2  0
 18 19  1  0
 20 19  2  0
 20 15  1  0
 21 20  1  0
 22 17  1  0
 22 21  2  0
 23 25  2  0
 23 17  1  0
 24 23  2  0
  1 26  1  1
  2 27  1  0
  2 28  1  0
  3 29  1  0
  3 30  1  0
  4 31  1  0
  4 32  1  0
  5 33  1  6
  6 34  1  0
  8 35  1  0
 10 36  1  0
 18 37  1  0
 19 38  1  0
 21 39  1  0
 22 40  1  0
 23 41  1  0
M  ISO  8  26  13  27  13  28  13  29  13  30  13  31  13  32  13  33  13
M  ISO  8  34  14  35  14  36  14  37  14  38  14  39  14  40  14  41  11
M  END
>  <minimizedAffinity>  (1) 
-4.93986368

>  <minimizedRMSD>  (1) 
1.03483689

$$$$
