
     RDKit          3D

 27 29  0  0  0  0  0  0  0  0999 V2000
   38.6000   30.5960   41.6670 C   0  0  0  0  0  0  0  0  0  0  0  0
   38.6550   29.8170   42.8250 C   0  0  0  0  0  0  0  0  0  0  0  0
   37.6270   28.9750   42.7830 N   0  0  0  0  0  0  0  0  0  0  0  0
   36.8910   29.1430   41.6700 C   0  0  0  0  0  0  0  0  0  0  0  0
   35.7540   28.4840   41.2400 C   0  0  0  0  0  0  0  0  0  0  0  0
   35.2060   28.8820   40.0300 C   0  0  0  0  0  0  0  0  0  0  0  0
   35.7830   29.8970   39.2950 C   0  0  0  0  0  0  0  0  0  0  0  0
   36.9230   30.5550   39.7270 C   0  0  0  0  0  0  0  0  0  0  0  0
   37.4960   30.1780   40.9370 C   0  0  0  0  0  0  0  0  0  0  0  0
   39.8230   33.8680   40.6190 C   0  0  0  0  0  0  0  0  0  0  0  0
   41.2390   33.6780   40.5560 C   0  0  0  0  0  0  0  0  0  0  0  0
   41.7370   32.4180   40.8790 C   0  0  0  0  0  0  0  0  0  0  0  0
   40.8560   31.4580   41.2300 N   0  0  0  0  0  0  0  0  0  0  0  0
   39.5250   31.6550   41.2830 C   0  0  0  0  0  0  0  0  0  0  0  0
   39.0080   32.8580   40.9780 N   0  0  0  0  0  0  0  0  0  0  0  0
   37.3380   27.9930   43.8170 C   0  0  0  0  0  0  0  0  0  0  0  0
   38.5280   27.3490   44.1010 F   0  0  0  0  0  0  0  0  0  0  0  0
   36.3950   27.0620   43.3570 F   0  0  0  0  0  0  0  0  0  0  0  0
   36.8110   28.6050   44.9410 F   0  0  0  0  0  0  0  0  0  0  0  0
   39.4086   29.8871   43.6232 H   0  0  0  0  0  0  0  0  0  0  0  0
   35.3021   27.6761   41.8342 H   0  0  0  0  0  0  0  0  0  0  0  0
   34.3014   28.3830   39.6521 H   0  0  0  0  0  0  0  0  0  0  0  0
   35.3251   30.1920   38.3393 H   0  0  0  0  0  0  0  0  0  0  0  0
   37.3669   31.3609   39.1241 H   0  0  0  0  0  0  0  0  0  0  0  0
   39.3947   34.8505   40.3714 H   0  0  0  0  0  0  0  0  0  0  0  0
   41.9111   34.4980   40.2628 H   0  0  0  0  0  0  0  0  0  0  0  0
   42.8170   32.2115   40.8489 H   0  0  0  0  0  0  0  0  0  0  0  0
  1  2  2  0
  3  2  1  0
  3 16  1  0
  4  3  1  0
  5  4  2  0
  6  5  1  0
  7  8  1  0
  7  6  2  0
  8  9  2  0
  9  1  1  0
  9  4  1  0
 10 15  2  0
 11 10  1  0
 11 12  2  0
 12 13  1  0
 13 14  2  0
 14  1  1  0
 15 14  1  0
 16 17  1  0
 16 19  1  0
 18 16  1  0
  2 20  1  0
  5 21  1  0
  6 22  1  0
  7 23  1  0
  8 24  1  0
 10 25  1  0
 11 26  1  0
 12 27  1  0
M  ISO  8  20  14  21  14  22  14  23  14  24  14  25  14  26  14  27  14
M  END
>  <minimizedAffinity>  (1) 
-5.8570323

>  <minimizedRMSD>  (1) 
4.62970495

$$$$
