
     RDKit          3D

 37 39  0  0  0  0  0  0  0  0999 V2000
   38.7400   28.2670   42.7330 C   0  0  0  0  0  0  0  0  0  0  0  0
   37.6440   27.4780   42.8260 C   0  0  0  0  0  0  0  0  0  0  0  0
   36.5680   28.0990   42.2710 C   0  0  0  0  0  0  0  0  0  0  0  0
   37.0940   29.3100   41.8400 N   0  0  0  0  0  0  0  0  0  0  0  0
   38.3730   29.3800   42.1260 N   0  0  0  0  0  0  0  0  0  0  0  0
   41.6030   26.4870   44.3530 C   0  0  0  0  0  0  0  0  0  0  0  0
   40.3110   26.7680   43.9220 C   0  0  0  0  0  0  0  0  0  0  0  0
   40.0490   27.9230   43.2040 C   0  0  0  0  0  0  0  0  0  0  0  0
   41.0910   28.7720   42.9310 N   0  0  0  0  0  0  0  0  0  0  0  0
   42.3490   28.4600   43.3720 C   0  0  0  0  0  0  0  0  0  0  0  0
   42.6010   27.3350   44.0730 N   0  0  0  0  0  0  0  0  0  0  0  0
   36.2720   30.3250   41.1390 C   0  0  0  0  0  0  0  0  0  0  0  0
   35.5660   29.6840   39.9720 C   0  0  0  0  0  0  0  0  0  0  0  0
   36.1370   30.1960   38.7330 N   0  0  0  0  0  0  0  0  0  0  0  0
   36.9370   31.3840   38.9950 C   0  0  0  0  0  0  0  0  0  0  0  0
   37.6790   31.7500   37.7300 C   0  0  0  0  0  0  0  0  0  0  0  0
   38.6050   30.7040   37.3390 N   0  0  0  0  0  0  0  0  0  0  0  0
   38.4520   29.5720   38.2240 C   0  0  0  0  0  0  0  0  0  0  0  0
   37.0110   29.1390   38.2320 C   0  0  0  0  0  0  0  0  0  0  0  0
   37.6258   26.4783   43.2845 H   0  0  0  0  0  0  0  0  0  0  0  0
   35.5347   27.7318   42.1848 H   0  0  0  0  0  0  0  0  0  0  0  0
   41.8051   25.5686   44.9237 H   0  0  0  0  0  0  0  0  0  0  0  0
   39.4931   26.0695   44.1525 H   0  0  0  0  0  0  0  0  0  0  0  0
   43.1787   29.1467   43.1483 H   0  0  0  0  0  0  0  0  0  0  0  0
   35.5275   30.7381   41.8355 H   0  0  0  0  0  0  0  0  0  0  0  0
   36.9223   31.1336   40.7738 H   0  0  0  0  0  0  0  0  0  0  0  0
   35.6976   28.5928   40.0155 H   0  0  0  0  0  0  0  0  0  0  0  0
   34.4923   29.9199   40.0119 H   0  0  0  0  0  0  0  0  0  0  0  0
   36.2810   32.2148   39.2941 H   0  0  0  0  0  0  0  0  0  0  0  0
   37.6515   31.1861   39.8076 H   0  0  0  0  0  0  0  0  0  0  0  0
   36.9510   31.9049   36.9200 H   0  0  0  0  0  0  0  0  0  0  0  0
   38.2536   32.6688   37.9188 H   0  0  0  0  0  0  0  0  0  0  0  0
   38.4059   30.4130   36.3712 H   0  0  0  0  0  0  0  0  0  0  0  0
   39.0831   28.7425   37.8723 H   0  0  0  0  0  0  0  0  0  0  0  0
   38.7574   29.8558   39.2419 H   0  0  0  0  0  0  0  0  0  0  0  0
   36.7093   28.8823   37.2058 H   0  0  0  0  0  0  0  0  0  0  0  0
   36.9161   28.2685   38.8977 H   0  0  0  0  0  0  0  0  0  0  0  0
  1  2  1  0
  1  8  1  0
  3  2  2  0
  4  5  1  0
  4  3  1  0
  5  1  2  0
  7  6  2  0
  8  7  1  0
  9  8  2  0
  9 10  1  0
 10 11  2  0
 11  6  1  0
 12  4  1  0
 13 12  1  0
 14 15  1  0
 14 13  1  0
 16 15  1  0
 17 16  1  0
 17 18  1  0
 18 19  1  0
 19 14  1  0
  2 20  1  0
  3 21  1  0
  6 22  1  0
  7 23  1  0
 10 24  1  0
 12 25  1  0
 12 26  1  0
 13 27  1  0
 13 28  1  0
 15 29  1  0
 15 30  1  0
 16 31  1  0
 16 32  1  0
 17 33  1  0
 18 34  1  0
 18 35  1  0
 19 36  1  0
 19 37  1  0
M  ISO  8  20  14  21  14  22  14  23  14  24  14  25   8  26   8  27   8
M  ISO  8  28   8  29  13  30  13  31  13  32  13  33   5  34  13  35  13
M  ISO  2  36  13  37  13
M  END
>  <minimizedAffinity>  (1) 
-4.48413324

>  <minimizedRMSD>  (1) 
2.15732265

$$$$
