
     RDKit          3D

 54 58  0  0  0  0  0  0  0  0999 V2000
   35.9710   29.9740   40.9410 C   0  0  0  0  0  0  0  0  0  0  0  0
   38.4290   28.0820   42.5970 C   0  0  0  0  0  0  0  0  0  0  0  0
   37.3460   27.2440   42.6970 C   0  0  0  0  0  0  0  0  0  0  0  0
   36.2880   27.8970   42.0620 C   0  0  0  0  0  0  0  0  0  0  0  0
   36.8130   29.0660   41.6340 N   0  0  0  0  0  0  0  0  0  0  0  0
   38.0600   29.2000   41.9330 N   0  0  0  0  0  0  0  0  0  0  0  0
   41.3720   26.4120   44.1650 C   0  0  0  0  0  0  0  0  0  0  0  0
   40.0870   26.5890   43.6670 C   0  0  0  0  0  0  0  0  0  0  0  0
   39.7580   27.8530   43.1100 C   0  0  0  0  0  0  0  0  0  0  0  0
   40.6900   28.8520   43.0720 N   0  0  0  0  0  0  0  0  0  0  0  0
   41.9450   28.5870   43.5900 C   0  0  0  0  0  0  0  0  0  0  0  0
   42.2550   27.4100   44.1110 N   0  0  0  0  0  0  0  0  0  0  0  0
   42.8950   29.6460   43.5390 N   0  0  0  0  0  0  0  0  0  0  0  0
   43.9210   29.7300   44.5600 C   0  0  0  0  0  0  0  0  0  0  0  0
   44.0290   31.1800   45.0460 C   0  0  0  0  0  0  0  0  0  0  0  0
   44.5060   31.9180   43.9160 N   0  0  0  0  0  0  0  0  0  0  0  0
   43.5120   31.9400   42.8980 C   0  0  0  0  0  0  0  0  0  0  0  0
   42.9000   30.6500   42.5220 C   0  0  0  0  0  0  0  0  0  0  0  0
   35.1240   29.3880   39.8570 C   0  0  0  0  0  0  0  0  0  0  0  0
   35.7640   29.3610   38.5220 C   0  0  0  0  0  0  0  0  0  0  0  0
   37.0900   29.4950   38.2330 C   0  0  0  0  0  0  0  0  0  0  0  0
   37.6400   29.5250   36.9850 C   0  0  0  0  0  0  0  0  0  0  0  0
   36.8090   29.4120   35.8800 C   0  0  0  0  0  0  0  0  0  0  0  0
   35.4460   29.2710   36.1100 C   0  0  0  0  0  0  0  0  0  0  0  0
   34.6930   29.1640   34.9790 C   0  0  0  0  0  0  0  0  0  0  0  0
   33.3330   29.0150   35.0950 C   0  0  0  0  0  0  0  0  0  0  0  0
   32.7630   28.9760   36.3450 C   0  0  0  0  0  0  0  0  0  0  0  0
   33.5840   29.0890   37.4250 C   0  0  0  0  0  0  0  0  0  0  0  0
   34.9380   29.2440   37.3910 C   0  0  0  0  0  0  0  0  0  0  0  0
   32.9500   29.0230   38.6650 O   0  0  0  0  0  0  0  0  0  0  0  0
   35.2997   30.4393   41.6778 H   0  0  0  0  0  0  0  0  0  0  0  0
   36.6479   30.6804   40.4383 H   0  0  0  0  0  0  0  0  0  0  0  0
   37.3177   26.2563   43.1804 H   0  0  0  0  0  0  0  0  0  0  0  0
   35.2554   27.5390   41.9376 H   0  0  0  0  0  0  0  0  0  0  0  0
   41.6617   25.4463   44.6049 H   0  0  0  0  0  0  0  0  0  0  0  0
   39.3476   25.7753   43.7031 H   0  0  0  0  0  0  0  0  0  0  0  0
   43.6543   29.0776   45.4045 H   0  0  0  0  0  0  0  0  0  0  0  0
   44.8860   29.4067   44.1425 H   0  0  0  0  0  0  0  0  0  0  0  0
   43.0451   31.5547   45.3645 H   0  0  0  0  0  0  0  0  0  0  0  0
   44.6994   31.2751   45.9129 H   0  0  0  0  0  0  0  0  0  0  0  0
   44.7211   32.8831   44.2044 H   0  0  0  0  0  0  0  0  0  0  0  0
   42.7031   32.6024   43.2401 H   0  0  0  0  0  0  0  0  0  0  0  0
   44.0407   32.2762   41.9939 H   0  0  0  0  0  0  0  0  0  0  0  0
   41.8565   30.8428   42.2325 H   0  0  0  0  0  0  0  0  0  0  0  0
   43.5223   30.2491   41.7083 H   0  0  0  0  0  0  0  0  0  0  0  0
   34.8731   28.3546   40.1383 H   0  0  0  0  0  0  0  0  0  0  0  0
   34.2404   30.0368   39.7663 H   0  0  0  0  0  0  0  0  0  0  0  0
   37.7798   29.5874   39.0849 H   0  0  0  0  0  0  0  0  0  0  0  0
   38.7267   29.6372   36.8567 H   0  0  0  0  0  0  0  0  0  0  0  0
   37.2148   29.4333   34.8578 H   0  0  0  0  0  0  0  0  0  0  0  0
   35.1680   29.1965   33.9874 H   0  0  0  0  0  0  0  0  0  0  0  0
   32.7055   28.9277   34.1958 H   0  0  0  0  0  0  0  0  0  0  0  0
   31.6765   28.8571   36.4690 H   0  0  0  0  0  0  0  0  0  0  0  0
   33.4812   29.0975   39.4971 H   0  0  0  0  0  0  0  0  0  0  0  0
  1  5  1  0
  2  3  1  0
  2  9  1  0
  4  3  2  0
  5  6  1  0
  5  4  1  0
  6  2  2  0
  8  7  2  0
  9  8  1  0
 10  9  2  0
 10 11  1  0
 11 12  2  0
 12  7  1  0
 13 11  1  0
 13 14  1  0
 14 15  1  0
 16 15  1  0
 17 16  1  0
 18 17  1  0
 18 13  1  0
 19  1  1  0
 20 19  1  0
 21 20  2  0
 22 21  1  0
 23 24  1  0
 23 22  2  0
 24 29  2  0
 25 26  2  0
 25 24  1  0
 26 27  1  0
 27 28  2  0
 28 30  1  0
 29 28  1  0
 29 20  1  0
  1 31  1  0
  1 32  1  0
  3 33  1  0
  4 34  1  0
  7 35  1  0
  8 36  1  0
 14 37  1  0
 14 38  1  0
 15 39  1  0
 15 40  1  0
 16 41  1  0
 17 42  1  0
 17 43  1  0
 18 44  1  0
 18 45  1  0
 19 46  1  0
 19 47  1  0
 21 48  1  0
 22 49  1  0
 23 50  1  0
 25 51  1  0
 26 52  1  0
 27 53  1  0
 30 54  1  0
M  ISO  8  31   8  32   8  33  14  34  14  35  14  36  14  37  13  38  13
M  ISO  8  39  13  40  13  41   5  42  13  43  13  44  13  45  13  46   8
M  ISO  8  47   8  48  14  49  14  50  14  51  14  52  14  53  14  54   3
M  END
>  <minimizedAffinity>  (1) 
-6.40096617

>  <minimizedRMSD>  (1) 
0.498801887

$$$$
