
     RDKit          3D

 42 44  0  0  1  0  0  0  0  0999 V2000
   38.2800   29.8310   42.6040 C   0  0  0  0  0  0  0  0  0  0  0  0
   38.8950   28.5770   42.7470 C   0  0  0  0  0  0  0  0  0  0  0  0
   38.4040   27.5040   42.0080 C   0  0  0  0  0  0  0  0  0  0  0  0
   37.3600   27.7160   41.1840 N   0  0  0  0  0  0  0  0  0  0  0  0
   36.7850   28.9320   41.0630 C   0  0  0  0  0  0  0  0  0  0  0  0
   37.2340   29.9850   41.7610 N   0  0  0  0  0  0  0  0  0  0  0  0
   38.9730   26.2110   42.1040 N   0  0  0  0  0  0  0  0  0  0  0  0
   39.5730   25.7170   43.3340 C   0  0  0  0  0  0  0  0  0  0  0  0
   40.7680   24.8580   42.9270 C   0  0  0  0  0  0  0  0  0  0  0  0
   41.3830   25.4290   41.6800 C   0  0  0  0  0  0  0  0  0  0  0  0
   40.4260   25.1700   40.5300 C   0  0  0  0  0  0  0  0  0  0  0  0
   39.0070   25.2810   41.0160 C   0  0  1  0  0  0  0  0  0  0  0  0
   38.4390   23.9950   41.3400 N   0  0  0  0  0  0  0  0  0  0  0  0
   38.7140   23.0990   40.2330 C   0  0  0  0  0  0  0  0  0  0  0  0
   37.6100   22.0760   40.0400 C   0  0  0  0  0  0  0  0  0  0  0  0
   36.4490   22.7880   39.5410 N   0  0  0  0  0  0  0  0  0  0  0  0
   36.2380   24.0360   40.2440 C   0  0  0  0  0  0  0  0  0  0  0  0
   37.0210   24.0890   41.5420 C   0  0  0  0  0  0  0  0  0  0  0  0
   35.6450   28.9180   40.0880 C   0  0  0  0  0  0  0  0  0  0  0  0
   35.7460   29.9850   39.2080 F   0  0  0  0  0  0  0  0  0  0  0  0
   34.4570   28.9700   40.7520 F   0  0  0  0  0  0  0  0  0  0  0  0
   35.6630   27.7360   39.3600 F   0  0  0  0  0  0  0  0  0  0  0  0
   38.6506   30.6917   43.1801 H   0  0  0  0  0  0  0  0  0  0  0  0
   39.7477   28.4449   43.4292 H   0  0  0  0  0  0  0  0  0  0  0  0
   39.9069   26.5594   43.9576 H   0  0  0  0  0  0  0  0  0  0  0  0
   38.8482   25.1331   43.9203 H   0  0  0  0  0  0  0  0  0  0  0  0
   41.5124   24.8554   43.7368 H   0  0  0  0  0  0  0  0  0  0  0  0
   40.4353   23.8269   42.7371 H   0  0  0  0  0  0  0  0  0  0  0  0
   41.5383   26.5112   41.8011 H   0  0  0  0  0  0  0  0  0  0  0  0
   42.3576   24.9588   41.4822 H   0  0  0  0  0  0  0  0  0  0  0  0
   40.5980   24.1591   40.1318 H   0  0  0  0  0  0  0  0  0  0  0  0
   40.5988   25.9135   39.7380 H   0  0  0  0  0  0  0  0  0  0  0  0
   38.3656   25.6659   40.2095 H   0  0  0  0  0  0  0  0  0  0  0  0
   38.8127   23.6925   39.3122 H   0  0  0  0  0  0  0  0  0  0  0  0
   39.6436   22.5561   40.4590 H   0  0  0  0  0  0  0  0  0  0  0  0
   37.9257   21.3132   39.3130 H   0  0  0  0  0  0  0  0  0  0  0  0
   37.3789   21.5670   40.9874 H   0  0  0  0  0  0  0  0  0  0  0  0
   36.5862   22.9886   38.5401 H   0  0  0  0  0  0  0  0  0  0  0  0
   36.5602   24.8670   39.5993 H   0  0  0  0  0  0  0  0  0  0  0  0
   35.1679   24.1162   40.4859 H   0  0  0  0  0  0  0  0  0  0  0  0
   36.7006   23.2523   42.1802 H   0  0  0  0  0  0  0  0  0  0  0  0
   36.8171   25.0622   42.0125 H   0  0  0  0  0  0  0  0  0  0  0  0
  1  2  2  0
  3  7  1  0
  3  2  1  0
  4  3  2  0
  5  4  1  0
  5  6  2  0
  6  1  1  0
  7  8  1  0
  9  8  1  0
 10  9  1  0
 11 12  1  0
 11 10  1  0
 12 13  1  0
 12  7  1  0
 13 18  1  0
 14 13  1  0
 15 14  1  0
 16 15  1  0
 16 17  1  0
 17 18  1  0
 19 21  1  0
 19  5  1  0
 20 19  1  0
 22 19  1  0
  1 23  1  0
  2 24  1  0
  8 25  1  0
  8 26  1  0
  9 27  1  0
  9 28  1  0
 10 29  1  0
 10 30  1  0
 11 31  1  0
 11 32  1  0
 12 33  1  6
 14 34  1  0
 14 35  1  0
 15 36  1  0
 15 37  1  0
 16 38  1  0
 17 39  1  0
 17 40  1  0
 18 41  1  0
 18 42  1  0
M  ISO  8  23  14  24  14  25  13  26  13  27  13  28  13  29  13  30  13
M  ISO  8  31  13  32  13  33  13  34  13  35  13  36  13  37  13  38   5
M  ISO  4  39  13  40  13  41  13  42  13
M  END
>  <minimizedAffinity>  (1) 
-5.29026079

>  <minimizedRMSD>  (1) 
3.1748786

$$$$
