
     RDKit          3D

 54 59  0  0  1  0  0  0  0  0999 V2000
   42.9220   35.2800   42.2200 C   0  0  2  0  0  0  0  0  0  0  0  0
   42.7240   36.7140   42.8540 C   0  0  0  0  0  0  0  0  0  0  0  0
   44.3760   35.0010   42.1280 C   0  0  0  0  0  0  0  0  0  0  0  0
   44.6890   33.9780   43.1160 N   0  0  0  0  0  0  0  0  0  0  0  0
   45.5980   34.1320   44.1190 C   0  0  0  0  0  0  0  0  0  0  0  0
   45.6520   33.0060   44.8580 N   0  0  0  0  0  0  0  0  0  0  0  0
   44.7600   32.1460   44.2970 C   0  0  0  0  0  0  0  0  0  0  0  0
   44.1840   32.7710   43.2300 N   0  0  0  0  0  0  0  0  0  0  0  0
   44.3840   30.7690   44.6670 C   0  0  0  0  0  0  0  0  0  0  0  0
   44.1920   29.6580   43.8470 C   0  0  0  0  0  0  0  0  0  0  0  0
   43.8570   28.6280   44.6480 N   0  0  0  0  0  0  0  0  0  0  0  0
   43.8280   29.0360   45.9290 C   0  0  0  0  0  0  0  0  0  0  0  0
   43.5280   28.2740   47.0400 C   0  0  0  0  0  0  0  0  0  0  0  0
   43.5470   28.8740   48.3030 C   0  0  0  0  0  0  0  0  0  0  0  0
   43.8760   30.2150   48.3260 C   0  0  0  0  0  0  0  0  0  0  0  0
   44.1810   30.9950   47.2150 C   0  0  0  0  0  0  0  0  0  0  0  0
   44.1540   30.3760   45.9770 C   0  0  0  0  0  0  0  0  0  0  0  0
   42.3060   35.3810   40.9500 O   0  0  0  0  0  0  0  0  0  0  0  0
   38.8150   35.6080   40.0380 C   0  0  0  0  0  0  0  0  0  0  0  0
   40.1220   36.0550   40.2970 C   0  0  0  0  0  0  0  0  0  0  0  0
   41.0540   35.0660   40.6810 C   0  0  0  0  0  0  0  0  0  0  0  0
   40.6000   33.8310   40.7570 N   0  0  0  0  0  0  0  0  0  0  0  0
   39.3870   33.3760   40.5230 C   0  0  0  0  0  0  0  0  0  0  0  0
   38.5230   34.3200   40.1630 N   0  0  0  0  0  0  0  0  0  0  0  0
   38.7820   32.0560   40.5780 C   0  0  0  0  0  0  0  0  0  0  0  0
   38.7200   31.3070   41.6990 N   0  0  0  0  0  0  0  0  0  0  0  0
   38.1760   30.1020   41.7820 C   0  0  0  0  0  0  0  0  0  0  0  0
   37.6380   29.5280   40.7260 N   0  0  0  0  0  0  0  0  0  0  0  0
   37.6350   30.1730   39.5400 C   0  0  0  0  0  0  0  0  0  0  0  0
   37.0670   29.5740   38.4220 C   0  0  0  0  0  0  0  0  0  0  0  0
   37.0540   30.2060   37.2200 C   0  0  0  0  0  0  0  0  0  0  0  0
   37.6320   31.4900   37.1280 C   0  0  0  0  0  0  0  0  0  0  0  0
   38.1760   32.0210   38.2760 C   0  0  0  0  0  0  0  0  0  0  0  0
   38.2090   31.4250   39.4910 C   0  0  0  0  0  0  0  0  0  0  0  0
   42.4845   34.4556   42.8021 H   0  0  0  0  0  0  0  0  0  0  0  0
   42.7350   36.6346   43.9511 H   0  0  0  0  0  0  0  0  0  0  0  0
   43.5393   37.3756   42.5261 H   0  0  0  0  0  0  0  0  0  0  0  0
   41.7599   37.1299   42.5261 H   0  0  0  0  0  0  0  0  0  0  0  0
   44.6258   34.6384   41.1200 H   0  0  0  0  0  0  0  0  0  0  0  0
   44.9585   35.9145   42.3184 H   0  0  0  0  0  0  0  0  0  0  0  0
   46.1966   35.0372   44.2984 H   0  0  0  0  0  0  0  0  0  0  0  0
   44.2947   29.6281   42.7522 H   0  0  0  0  0  0  0  0  0  0  0  0
   43.6534   27.6707   44.3271 H   0  0  0  0  0  0  0  0  0  0  0  0
   43.2772   27.2083   46.9333 H   0  0  0  0  0  0  0  0  0  0  0  0
   43.3145   28.3132   49.2203 H   0  0  0  0  0  0  0  0  0  0  0  0
   43.8989   30.7096   49.3083 H   0  0  0  0  0  0  0  0  0  0  0  0
   44.4335   32.0608   47.3162 H   0  0  0  0  0  0  0  0  0  0  0  0
   38.0371   36.3234   39.7328 H   0  0  0  0  0  0  0  0  0  0  0  0
   40.4029   37.1146   40.2058 H   0  0  0  0  0  0  0  0  0  0  0  0
   38.1737   29.5734   42.7467 H   0  0  0  0  0  0  0  0  0  0  0  0
   36.6210   28.5725   38.5120 H   0  0  0  0  0  0  0  0  0  0  0  0
   36.6031   29.7277   36.3380 H   0  0  0  0  0  0  0  0  0  0  0  0
   37.6473   32.0441   36.1779 H   0  0  0  0  0  0  0  0  0  0  0  0
   38.6253   33.0221   38.1987 H   0  0  0  0  0  0  0  0  0  0  0  0
  1  2  1  0
  3  1  1  0
  3  4  1  0
  4  8  1  0
  4  5  1  0
  5  6  2  0
  7  9  1  0
  7  6  1  0
  8  7  2  0
  9 17  1  0
 10 11  1  0
 10  9  2  0
 11 12  1  0
 12 17  2  0
 12 13  1  0
 13 14  2  0
 14 15  1  0
 16 15  2  0
 17 16  1  0
 18  1  1  0
 19 24  2  0
 19 20  1  0
 20 21  2  0
 21 22  1  0
 21 18  1  0
 23 25  1  0
 23 22  2  0
 24 23  1  0
 25 26  2  0
 26 27  1  0
 28 27  2  0
 29 28  1  0
 30 29  2  0
 31 30  1  0
 32 31  2  0
 32 33  1  0
 33 34  2  0
 34 29  1  0
 34 25  1  0
  1 35  1  1
  2 36  1  0
  2 37  1  0
  2 38  1  0
  3 39  1  0
  3 40  1  0
  5 41  1  0
 10 42  1  0
 11 43  1  0
 13 44  1  0
 14 45  1  0
 15 46  1  0
 16 47  1  0
 19 48  1  0
 20 49  1  0
 27 50  1  0
 30 51  1  0
 31 52  1  0
 32 53  1  0
 33 54  1  0
M  ISO  8  35   8  36   8  37   8  38   8  39   8  40   8  41  14  42  14
M  ISO  8  43   9  44  14  45  14  46  14  47  14  48  14  49  14  50  14
M  ISO  4  51  14  52  14  53  14  54  14
M  END
>  <minimizedAffinity>  (1) 
-7.60740519

>  <minimizedRMSD>  (1) 
1.50150681

$$$$
