
     RDKit          3D

 29 32  0  0  0  0  0  0  0  0999 V2000
   37.9850   32.2050   40.5440 C   0  0  0  0  0  0  0  0  0  0  0  0
   36.6880   32.0060   40.2840 N   0  0  0  0  0  0  0  0  0  0  0  0
   36.2900   30.8850   40.8130 O   0  0  0  0  0  0  0  0  0  0  0  0
   37.2870   30.3110   41.4310 C   0  0  0  0  0  0  0  0  0  0  0  0
   38.3620   31.1260   41.2730 N   0  0  0  0  0  0  0  0  0  0  0  0
   37.3670   29.0550   42.1750 C   0  0  0  0  0  0  0  0  0  0  0  0
   37.6300   28.8080   43.5070 C   0  0  0  0  0  0  0  0  0  0  0  0
   37.6050   27.4990   43.7560 N   0  0  0  0  0  0  0  0  0  0  0  0
   37.3240   26.8670   42.5890 C   0  0  0  0  0  0  0  0  0  0  0  0
   37.1900   25.5130   42.3260 C   0  0  0  0  0  0  0  0  0  0  0  0
   36.9010   25.1180   41.0430 C   0  0  0  0  0  0  0  0  0  0  0  0
   36.7400   26.0290   40.0110 C   0  0  0  0  0  0  0  0  0  0  0  0
   36.8820   27.3780   40.3110 C   0  0  0  0  0  0  0  0  0  0  0  0
   37.1730   27.8190   41.5910 C   0  0  0  0  0  0  0  0  0  0  0  0
   40.9570   34.2500   39.3960 C   0  0  0  0  0  0  0  0  0  0  0  0
   40.2080   33.0920   39.6620 C   0  0  0  0  0  0  0  0  0  0  0  0
   38.9220   33.2770   40.1980 C   0  0  0  0  0  0  0  0  0  0  0  0
   38.5070   34.5450   40.4180 N   0  0  0  0  0  0  0  0  0  0  0  0
   39.2600   35.6280   40.1480 C   0  0  0  0  0  0  0  0  0  0  0  0
   40.5030   35.4760   39.6300 N   0  0  0  0  0  0  0  0  0  0  0  0
   37.8324   29.5845   44.2594 H   0  0  0  0  0  0  0  0  0  0  0  0
   37.7691   27.0493   44.6680 H   0  0  0  0  0  0  0  0  0  0  0  0
   37.3126   24.7703   43.1281 H   0  0  0  0  0  0  0  0  0  0  0  0
   36.7939   24.0446   40.8275 H   0  0  0  0  0  0  0  0  0  0  0  0
   36.5076   25.6952   38.9890 H   0  0  0  0  0  0  0  0  0  0  0  0
   36.7595   28.1186   39.5070 H   0  0  0  0  0  0  0  0  0  0  0  0
   41.9666   34.1362   38.9743 H   0  0  0  0  0  0  0  0  0  0  0  0
   40.6090   32.0877   39.4603 H   0  0  0  0  0  0  0  0  0  0  0  0
   38.8665   36.6356   40.3478 H   0  0  0  0  0  0  0  0  0  0  0  0
  1  5  1  0
  2  1  2  0
  2  3  1  0
  3  4  1  0
  4  6  1  0
  5  4  2  0
  6  7  2  0
  7  8  1  0
  9  8  1  0
 10  9  2  0
 11 10  1  0
 12 13  1  0
 12 11  2  0
 13 14  2  0
 14  6  1  0
 14  9  1  0
 15 20  2  0
 15 16  1  0
 16 17  2  0
 17 18  1  0
 17  1  1  0
 19 18  2  0
 20 19  1  0
  7 21  1  0
  8 22  1  0
 10 23  1  0
 11 24  1  0
 12 25  1  0
 13 26  1  0
 15 27  1  0
 16 28  1  0
 19 29  1  0
M  ISO  8  21  14  22   9  23  14  24  14  25  14  26  14  27  14  28  14
M  ISO  1  29  14
M  END
>  <minimizedAffinity>  (1) 
-6.19234896

>  <minimizedRMSD>  (1) 
4.66130924

$$$$
