
     RDKit          3D

 40 43  0  0  1  0  0  0  0  0999 V2000
   37.5670   29.1050   41.9230 C   0  0  2  0  0  0  0  0  0  0  0  0
   37.4370   28.9180   43.3810 C   0  0  0  0  0  0  0  0  0  0  0  0
   36.8160   27.6140   43.7970 C   0  0  0  0  0  0  0  0  0  0  0  0
   36.8900   26.5260   42.7920 C   0  0  0  0  0  0  0  0  0  0  0  0
   38.1290   26.6770   41.9530 C   0  0  0  0  0  0  0  0  0  0  0  0
   38.1240   27.9320   41.1520 C   0  0  1  0  0  0  0  0  0  0  0  0
   37.4310   27.6960   39.8720 C   0  0  0  0  0  0  0  0  0  0  0  0
   37.8880   26.9730   38.7790 C   0  0  0  0  0  0  0  0  0  0  0  0
   36.9800   26.9710   37.7830 N   0  0  0  0  0  0  0  0  0  0  0  0
   35.9280   27.6810   38.1930 C   0  0  0  0  0  0  0  0  0  0  0  0
   34.7110   28.0440   37.6580 C   0  0  0  0  0  0  0  0  0  0  0  0
   33.7710   28.8150   38.3290 C   0  0  0  0  0  0  0  0  0  0  0  0
   34.0660   29.2530   39.6150 C   0  0  0  0  0  0  0  0  0  0  0  0
   35.2670   28.9020   40.1580 C   0  0  0  0  0  0  0  0  0  0  0  0
   36.1770   28.1340   39.4620 C   0  0  0  0  0  0  0  0  0  0  0  0
   38.3920   30.3050   41.6570 C   0  0  0  0  0  0  0  0  0  0  0  0
   39.6740   30.2690   42.2240 C   0  0  0  0  0  0  0  0  0  0  0  0
   40.5430   31.3500   42.0460 C   0  0  0  0  0  0  0  0  0  0  0  0
   40.0700   32.4060   41.3060 N   0  0  0  0  0  0  0  0  0  0  0  0
   38.8290   32.4140   40.7710 C   0  0  0  0  0  0  0  0  0  0  0  0
   37.9830   31.3610   40.9430 N   0  0  0  0  0  0  0  0  0  0  0  0
   36.5361   29.2192   41.5567 H   0  0  0  0  0  0  0  0  0  0  0  0
   38.4422   28.9750   43.8241 H   0  0  0  0  0  0  0  0  0  0  0  0
   36.7606   29.7097   43.7353 H   0  0  0  0  0  0  0  0  0  0  0  0
   37.3272   27.2699   44.7082 H   0  0  0  0  0  0  0  0  0  0  0  0
   35.7454   27.8205   43.9425 H   0  0  0  0  0  0  0  0  0  0  0  0
   36.9172   25.5553   43.3088 H   0  0  0  0  0  0  0  0  0  0  0  0
   36.0061   26.5795   42.1395 H   0  0  0  0  0  0  0  0  0  0  0  0
   39.0060   26.6854   42.6169 H   0  0  0  0  0  0  0  0  0  0  0  0
   38.1627   25.8314   41.2503 H   0  0  0  0  0  0  0  0  0  0  0  0
   39.1634   28.2135   40.9275 H   0  0  0  0  0  0  0  0  0  0  0  0
   38.8639   26.4676   38.7318 H   0  0  0  0  0  0  0  0  0  0  0  0
   37.0804   26.5052   36.8699 H   0  0  0  0  0  0  0  0  0  0  0  0
   34.4702   27.7032   36.6402 H   0  0  0  0  0  0  0  0  0  0  0  0
   32.8135   29.0736   37.8532 H   0  0  0  0  0  0  0  0  0  0  0  0
   33.3492   29.8669   40.1801 H   0  0  0  0  0  0  0  0  0  0  0  0
   35.5157   29.2394   41.1750 H   0  0  0  0  0  0  0  0  0  0  0  0
   39.9951   29.3932   42.8070 H   0  0  0  0  0  0  0  0  0  0  0  0
   41.5550   31.3544   42.4771 H   0  0  0  0  0  0  0  0  0  0  0  0
   38.4970   33.2852   40.1872 H   0  0  0  0  0  0  0  0  0  0  0  0
  1  2  1  0
  2  3  1  0
  4  3  1  0
  5  4  1  0
  6  1  1  0
  6  5  1  0
  7  6  1  0
  8  7  2  0
  9 10  1  0
  9  8  1  0
 10 15  2  0
 11 10  1  0
 11 12  2  0
 12 13  1  0
 13 14  2  0
 15  7  1  0
 15 14  1  0
 16  1  1  0
 16 17  2  0
 18 17  1  0
 19 18  2  0
 20 21  2  0
 20 19  1  0
 21 16  1  0
  1 22  1  6
  2 23  1  0
  2 24  1  0
  3 25  1  0
  3 26  1  0
  4 27  1  0
  4 28  1  0
  5 29  1  0
  5 30  1  0
  6 31  1  6
  8 32  1  0
  9 33  1  0
 11 34  1  0
 12 35  1  0
 13 36  1  0
 14 37  1  0
 17 38  1  0
 18 39  1  0
 20 40  1  0
M  ISO  8  22  13  23  13  24  13  25  13  26  13  27  13  28  13  29  13
M  ISO  8  30  13  31  13  32  14  33   9  34  14  35  14  36  14  37  14
M  ISO  3  38  14  39  14  40  14
M  END
>  <minimizedAffinity>  (1) 
-5.55727482

>  <minimizedRMSD>  (1) 
2.53685522

$$$$
