
     RDKit          3D

 46 51  0  0  0  0  0  0  0  0999 V2000
   36.9640   28.4020   41.8790 N   0  0  0  0  0  0  0  0  0  0  0  0
   36.7190   27.4880   42.8290 C   0  0  0  0  0  0  0  0  0  0  0  0
   37.6670   27.7400   43.7930 C   0  0  0  0  0  0  0  0  0  0  0  0
   38.4630   28.7850   43.4300 N   0  0  0  0  0  0  0  0  0  0  0  0
   38.0030   29.1780   42.2340 C   0  0  0  0  0  0  0  0  0  0  0  0
   38.7010   30.2810   41.6460 N   0  0  0  0  0  0  0  0  0  0  0  0
   40.0560   30.4330   41.7760 C   0  0  0  0  0  0  0  0  0  0  0  0
   40.4760   31.5560   41.1240 N   0  0  0  0  0  0  0  0  0  0  0  0
   39.3860   32.1220   40.5760 C   0  0  0  0  0  0  0  0  0  0  0  0
   39.2040   33.2590   39.8140 C   0  0  0  0  0  0  0  0  0  0  0  0
   37.9350   33.5160   39.4360 N   0  0  0  0  0  0  0  0  0  0  0  0
   36.8840   32.7420   39.7570 C   0  0  0  0  0  0  0  0  0  0  0  0
   37.0480   31.6250   40.5040 N   0  0  0  0  0  0  0  0  0  0  0  0
   38.2920   31.3410   40.8950 C   0  0  0  0  0  0  0  0  0  0  0  0
   35.0090   29.1340   40.5880 C   0  0  0  0  0  0  0  0  0  0  0  0
   36.2500   28.5460   40.6840 C   0  0  0  0  0  0  0  0  0  0  0  0
   36.8000   28.0750   39.4730 C   0  0  0  0  0  0  0  0  0  0  0  0
   36.1000   28.2280   38.3360 N   0  0  0  0  0  0  0  0  0  0  0  0
   34.8920   28.8070   38.2720 C   0  0  0  0  0  0  0  0  0  0  0  0
   34.3480   29.2640   39.4250 N   0  0  0  0  0  0  0  0  0  0  0  0
   34.0130   29.0500   37.1440 C   0  0  0  0  0  0  0  0  0  0  0  0
   34.4110   28.9360   35.8050 C   0  0  0  0  0  0  0  0  0  0  0  0
   33.5980   29.1610   34.7310 C   0  0  0  0  0  0  0  0  0  0  0  0
   32.2880   29.5260   34.9200 C   0  0  0  0  0  0  0  0  0  0  0  0
   31.8250   29.6590   36.2060 C   0  0  0  0  0  0  0  0  0  0  0  0
   30.5060   30.0260   36.3460 C   0  0  0  0  0  0  0  0  0  0  0  0
   29.9700   30.1780   37.6070 C   0  0  0  0  0  0  0  0  0  0  0  0
   30.7940   29.9500   38.6940 C   0  0  0  0  0  0  0  0  0  0  0  0
   32.1050   29.5850   38.4740 C   0  0  0  0  0  0  0  0  0  0  0  0
   32.6920   29.4180   37.2440 C   0  0  0  0  0  0  0  0  0  0  0  0
   40.2950   34.1050   39.4520 N   0  0  0  0  0  0  0  0  0  0  0  0
   35.9380   26.7134   42.8358 H   0  0  0  0  0  0  0  0  0  0  0  0
   37.7690   27.1742   44.7308 H   0  0  0  0  0  0  0  0  0  0  0  0
   40.7137   29.7460   42.3286 H   0  0  0  0  0  0  0  0  0  0  0  0
   35.8783   33.0196   39.4084 H   0  0  0  0  0  0  0  0  0  0  0  0
   34.5366   29.5150   41.5054 H   0  0  0  0  0  0  0  0  0  0  0  0
   37.7871   27.5898   39.4597 H   0  0  0  0  0  0  0  0  0  0  0  0
   35.4526   28.6445   35.6049 H   0  0  0  0  0  0  0  0  0  0  0  0
   33.9941   29.0494   33.7109 H   0  0  0  0  0  0  0  0  0  0  0  0
   31.6248   29.7077   34.0614 H   0  0  0  0  0  0  0  0  0  0  0  0
   29.8825   30.1972   35.4561 H   0  0  0  0  0  0  0  0  0  0  0  0
   28.9189   30.4717   37.7444 H   0  0  0  0  0  0  0  0  0  0  0  0
   30.4091   30.0583   39.7188 H   0  0  0  0  0  0  0  0  0  0  0  0
   32.7346   29.4128   39.3594 H   0  0  0  0  0  0  0  0  0  0  0  0
   40.1271   34.9466   38.8824 H   0  0  0  0  0  0  0  0  0  0  0  0
   41.2502   33.8739   39.7603 H   0  0  0  0  0  0  0  0  0  0  0  0
  1  5  1  0
  1  2  1  0
  2  3  2  0
  4  3  1  0
  5  4  2  0
  6  7  1  0
  6  5  1  0
  8  7  2  0
  9 14  2  0
  9  8  1  0
 10  9  1  0
 11 12  1  0
 11 10  2  0
 12 13  2  0
 13 14  1  0
 14  6  1  0
 15 16  2  0
 16  1  1  0
 17 16  1  0
 18 17  2  0
 19 18  1  0
 19 20  2  0
 20 15  1  0
 21 30  1  0
 21 19  1  0
 22 21  2  0
 23 24  2  0
 23 22  1  0
 24 25  1  0
 25 26  1  0
 25 30  2  0
 26 27  2  0
 27 28  1  0
 29 28  2  0
 30 29  1  0
 31 10  1  0
  2 32  1  0
  3 33  1  0
  7 34  1  0
 12 35  1  0
 15 36  1  0
 17 37  1  0
 22 38  1  0
 23 39  1  0
 24 40  1  0
 26 41  1  0
 27 42  1  0
 28 43  1  0
 29 44  1  0
 31 45  1  0
 31 46  1  0
M  END
>  <minimizedAffinity>  (1) 
-7.15080547

>  <minimizedRMSD>  (1) 
2.44134736

$$$$
