
     RDKit          3D

 44 48  0  0  1  0  0  0  0  0999 V2000
   37.9170   27.3740   42.7290 C   0  0  2  0  0  0  0  0  0  0  0  0
   39.0100   27.7020   43.6560 C   0  0  0  0  0  0  0  0  0  0  0  0
   39.7500   26.3910   43.8620 C   0  0  0  0  0  0  0  0  0  0  0  0
   39.2940   25.4890   42.7720 C   0  0  0  0  0  0  0  0  0  0  0  0
   38.5280   26.3690   41.7740 C   0  0  1  0  0  0  0  0  0  0  0  0
   37.9270   29.7720   41.8700 C   0  0  0  0  0  0  0  0  0  0  0  0
   37.3150   28.4980   42.0260 C   0  0  0  0  0  0  0  0  0  0  0  0
   36.0640   28.2970   41.4720 C   0  0  0  0  0  0  0  0  0  0  0  0
   35.4690   29.3380   40.7970 N   0  0  0  0  0  0  0  0  0  0  0  0
   36.0880   30.5630   40.6620 C   0  0  0  0  0  0  0  0  0  0  0  0
   37.3380   30.7670   41.2130 N   0  0  0  0  0  0  0  0  0  0  0  0
   37.5390   25.4050   41.2230 C   0  0  0  0  0  0  0  0  0  0  0  0
   36.9160   24.4800   41.9490 N   0  0  0  0  0  0  0  0  0  0  0  0
   36.1360   23.8180   41.1380 O   0  0  0  0  0  0  0  0  0  0  0  0
   36.2450   24.2940   39.9260 C   0  0  0  0  0  0  0  0  0  0  0  0
   37.1180   25.2900   39.9500 N   0  0  0  0  0  0  0  0  0  0  0  0
   35.6450   23.9810   38.6220 C   0  0  0  0  0  0  0  0  0  0  0  0
   36.2060   24.2840   37.4010 C   0  0  0  0  0  0  0  0  0  0  0  0
   35.6410   23.9890   36.1870 C   0  0  0  0  0  0  0  0  0  0  0  0
   34.4280   23.3450   36.1330 C   0  0  0  0  0  0  0  0  0  0  0  0
   33.8160   23.0160   37.3210 C   0  0  0  0  0  0  0  0  0  0  0  0
   32.6070   22.3740   37.2120 C   0  0  0  0  0  0  0  0  0  0  0  0
   31.9260   22.0080   38.3530 C   0  0  0  0  0  0  0  0  0  0  0  0
   32.4950   22.3050   39.5730 C   0  0  0  0  0  0  0  0  0  0  0  0
   33.7110   22.9510   39.6080 C   0  0  0  0  0  0  0  0  0  0  0  0
   34.4370   23.3400   38.5070 C   0  0  0  0  0  0  0  0  0  0  0  0
   37.0575   26.9852   43.2947 H   0  0  0  0  0  0  0  0  0  0  0  0
   39.6768   28.4586   43.2168 H   0  0  0  0  0  0  0  0  0  0  0  0
   38.6398   28.1233   44.6023 H   0  0  0  0  0  0  0  0  0  0  0  0
   40.8364   26.5507   43.7969 H   0  0  0  0  0  0  0  0  0  0  0  0
   39.5429   25.9623   44.8536 H   0  0  0  0  0  0  0  0  0  0  0  0
   40.1585   25.0195   42.2799 H   0  0  0  0  0  0  0  0  0  0  0  0
   38.6573   24.6814   43.1625 H   0  0  0  0  0  0  0  0  0  0  0  0
   39.0458   26.8765   40.9468 H   0  0  0  0  0  0  0  0  0  0  0  0
   38.9220   29.9404   42.3079 H   0  0  0  0  0  0  0  0  0  0  0  0
   35.5557   27.3263   41.5688 H   0  0  0  0  0  0  0  0  0  0  0  0
   35.5870   31.3762   40.1164 H   0  0  0  0  0  0  0  0  0  0  0  0
   37.1775   24.7999   37.3998 H   0  0  0  0  0  0  0  0  0  0  0  0
   36.1582   24.2676   35.2570 H   0  0  0  0  0  0  0  0  0  0  0  0
   33.9599   23.0997   35.1683 H   0  0  0  0  0  0  0  0  0  0  0  0
   32.1848   22.1533   36.2205 H   0  0  0  0  0  0  0  0  0  0  0  0
   30.9557   21.4934   38.2919 H   0  0  0  0  0  0  0  0  0  0  0  0
   31.9841   22.0294   40.5073 H   0  0  0  0  0  0  0  0  0  0  0  0
   34.1361   23.1739   40.5977 H   0  0  0  0  0  0  0  0  0  0  0  0
  1  2  1  0
  2  3  1  0
  4  3  1  0
  5  1  1  0
  5  4  1  0
  6  7  2  0
  7  1  1  0
  8  7  1  0
  9  8  2  0
 10  9  1  0
 10 11  2  0
 11  6  1  0
 12  5  1  0
 12 13  2  0
 14 13  1  0
 15 16  2  0
 15 14  1  0
 16 12  1  0
 17 15  1  0
 18 17  2  0
 19 18  1  0
 20 19  2  0
 20 21  1  0
 21 26  2  0
 22 21  1  0
 22 23  2  0
 23 24  1  0
 24 25  2  0
 26 17  1  0
 26 25  1  0
  1 27  1  1
  2 28  1  0
  2 29  1  0
  3 30  1  0
  3 31  1  0
  4 32  1  0
  4 33  1  0
  5 34  1  6
  6 35  1  0
  8 36  1  0
 10 37  1  0
 18 38  1  0
 19 39  1  0
 20 40  1  0
 22 41  1  0
 23 42  1  0
 24 43  1  0
 25 44  1  0
M  ISO  8  27  13  28  13  29  13  30  13  31  13  32  13  33  13  34  13
M  ISO  8  35  14  36  14  37  14  38  14  39  14  40  14  41  14  42  14
M  ISO  2  43  14  44  14
M  END
>  <minimizedAffinity>  (1) 
-5.65419912

>  <minimizedRMSD>  (1) 
0.6776191

$$$$
