
     RDKit          3D

 55 60  0  0  0  0  0  0  0  0999 V2000
   39.5940   30.1100   37.7750 C   0  0  0  0  0  0  0  0  0  0  0  0
   40.7280   30.9040   37.7330 C   0  0  0  0  0  0  0  0  0  0  0  0
   41.9790   30.5250   37.3270 C   0  0  0  0  0  0  0  0  0  0  0  0
   42.1730   29.2280   36.9090 C   0  0  0  0  0  0  0  0  0  0  0  0
   41.0820   28.3690   36.9250 C   0  0  0  0  0  0  0  0  0  0  0  0
   41.3490   27.0990   36.5030 C   0  0  0  0  0  0  0  0  0  0  0  0
   40.3430   26.1820   36.4900 C   0  0  0  0  0  0  0  0  0  0  0  0
   39.0750   26.5540   36.9030 C   0  0  0  0  0  0  0  0  0  0  0  0
   38.8850   27.8570   37.3140 C   0  0  0  0  0  0  0  0  0  0  0  0
   39.8480   28.8140   37.3470 C   0  0  0  0  0  0  0  0  0  0  0  0
   37.5080   27.9740   37.7670 C   0  0  0  0  0  0  0  0  0  0  0  0
   36.8470   27.8290   38.9820 C   0  0  0  0  0  0  0  0  0  0  0  0
   35.5100   28.0710   39.1600 C   0  0  0  0  0  0  0  0  0  0  0  0
   34.7360   28.4840   38.1010 C   0  0  0  0  0  0  0  0  0  0  0  0
   35.3410   28.6430   36.8800 C   0  0  0  0  0  0  0  0  0  0  0  0
   34.4900   29.0590   35.8780 C   0  0  0  0  0  0  0  0  0  0  0  0
   34.9980   29.2470   34.6130 C   0  0  0  0  0  0  0  0  0  0  0  0
   36.3310   29.0260   34.3520 C   0  0  0  0  0  0  0  0  0  0  0  0
   37.1410   28.6120   35.3830 C   0  0  0  0  0  0  0  0  0  0  0  0
   36.7020   28.4020   36.6740 C   0  0  0  0  0  0  0  0  0  0  0  0
   38.2380   30.5260   38.1370 C   0  0  0  0  0  0  0  0  0  0  0  0
   38.1430   31.2540   39.4630 C   0  0  0  0  0  0  0  0  0  0  0  0
   38.8850   29.0730   42.1320 C   0  0  0  0  0  0  0  0  0  0  0  0
   37.6570   29.5220   42.5080 C   0  0  0  0  0  0  0  0  0  0  0  0
   37.2430   30.4020   41.5170 C   0  0  0  0  0  0  0  0  0  0  0  0
   38.2430   30.4280   40.6110 N   0  0  0  0  0  0  0  0  0  0  0  0
   39.2030   29.6550   40.9630 N   0  0  0  0  0  0  0  0  0  0  0  0
   40.0430   26.0700   44.0160 C   0  0  0  0  0  0  0  0  0  0  0  0
   39.1930   26.9360   43.3150 C   0  0  0  0  0  0  0  0  0  0  0  0
   39.7240   28.1400   42.8530 C   0  0  0  0  0  0  0  0  0  0  0  0
   41.0410   28.4550   43.0840 N   0  0  0  0  0  0  0  0  0  0  0  0
   41.8190   27.5630   43.7750 C   0  0  0  0  0  0  0  0  0  0  0  0
   41.3230   26.3920   44.2310 N   0  0  0  0  0  0  0  0  0  0  0  0
   40.6111   31.9478   38.0599 H   0  0  0  0  0  0  0  0  0  0  0  0
   42.8127   31.2426   37.3346 H   0  0  0  0  0  0  0  0  0  0  0  0
   43.1617   28.8826   36.5727 H   0  0  0  0  0  0  0  0  0  0  0  0
   42.3623   26.8204   36.1781 H   0  0  0  0  0  0  0  0  0  0  0  0
   40.5362   25.1526   36.1537 H   0  0  0  0  0  0  0  0  0  0  0  0
   38.2445   25.8327   36.9034 H   0  0  0  0  0  0  0  0  0  0  0  0
   37.4330   27.5001   39.8529 H   0  0  0  0  0  0  0  0  0  0  0  0
   35.0549   27.9346   40.1521 H   0  0  0  0  0  0  0  0  0  0  0  0
   33.6615   28.6814   38.2294 H   0  0  0  0  0  0  0  0  0  0  0  0
   33.4247   29.2373   36.0860 H   0  0  0  0  0  0  0  0  0  0  0  0
   34.3319   29.5772   33.8023 H   0  0  0  0  0  0  0  0  0  0  0  0
   36.7391   29.1771   33.3417 H   0  0  0  0  0  0  0  0  0  0  0  0
   38.2050   28.4374   35.1650 H   0  0  0  0  0  0  0  0  0  0  0  0
   37.8606   31.1943   37.3490 H   0  0  0  0  0  0  0  0  0  0  0  0
   37.6426   29.6067   38.2385 H   0  0  0  0  0  0  0  0  0  0  0  0
   38.9554   31.9945   39.5042 H   0  0  0  0  0  0  0  0  0  0  0  0
   37.1392   31.7027   39.4949 H   0  0  0  0  0  0  0  0  0  0  0  0
   37.1025   29.2434   43.4162 H   0  0  0  0  0  0  0  0  0  0  0  0
   36.2968   30.9616   41.4784 H   0  0  0  0  0  0  0  0  0  0  0  0
   39.6525   25.1136   44.3940 H   0  0  0  0  0  0  0  0  0  0  0  0
   38.1399   26.6743   43.1348 H   0  0  0  0  0  0  0  0  0  0  0  0
   42.8750   27.8069   43.9632 H   0  0  0  0  0  0  0  0  0  0  0  0
  1 21  1  0
  2  1  2  0
  3  2  1  0
  4  5  1  0
  4  3  2  0
  5 10  2  0
  6  5  1  0
  7  6  2  0
  7  8  1  0
  8  9  2  0
  9 10  1  0
  9 11  1  0
 10  1  1  0
 11 12  2  0
 12 13  1  0
 14 13  2  0
 15 14  1  0
 16 15  2  0
 17 16  1  0
 18 17  2  0
 18 19  1  0
 19 20  2  0
 20 15  1  0
 20 11  1  0
 21 22  1  0
 22 26  1  0
 23 24  1  0
 23 30  1  0
 25 24  2  0
 26 27  1  0
 26 25  1  0
 27 23  2  0
 28 33  2  0
 29 28  1  0
 30 31  1  0
 30 29  2  0
 31 32  2  0
 32 33  1  0
  2 34  1  0
  3 35  1  0
  4 36  1  0
  6 37  1  0
  7 38  1  0
  8 39  1  0
 12 40  1  0
 13 41  1  0
 14 42  1  0
 16 43  1  0
 17 44  1  0
 18 45  1  0
 19 46  1  0
 21 47  1  0
 21 48  1  0
 22 49  1  0
 22 50  1  0
 24 51  1  0
 25 52  1  0
 28 53  1  0
 29 54  1  0
 32 55  1  0
M  ISO  8  34  14  35  14  36  14  37  14  38  14  39  14  40  14  41  14
M  ISO  8  42  14  43  14  44  14  45  14  46  14  47   8  48   8  49   8
M  ISO  6  50   8  51  14  52  14  53  14  54  14  55  14
M  END
>  <minimizedAffinity>  (1) 
-5.94007301

>  <minimizedRMSD>  (1) 
4.50047207

$$$$
