
     RDKit          3D

 36 39  0  0  0  0  0  0  0  0999 V2000
   38.1790   27.4760   43.1230 C   0  0  0  0  0  0  0  0  0  0  0  0
   39.1540   26.6810   43.5860 C   0  0  0  0  0  0  0  0  0  0  0  0
   39.5800   25.5410   42.9870 C   0  0  0  0  0  0  0  0  0  0  0  0
   38.8570   25.2750   41.7740 C   0  0  0  0  0  0  0  0  0  0  0  0
   37.7270   26.6120   41.6630 S   0  0  0  0  0  0  0  0  0  0  0  0
   38.8460   24.1970   40.8070 C   0  0  0  0  0  0  0  0  0  0  0  0
   37.8330   23.2440   40.9730 C   0  0  0  0  0  0  0  0  0  0  0  0
   37.6820   22.1710   40.1420 C   0  0  0  0  0  0  0  0  0  0  0  0
   38.5390   21.9860   39.0860 C   0  0  0  0  0  0  0  0  0  0  0  0
   39.5470   22.9000   38.8840 C   0  0  0  0  0  0  0  0  0  0  0  0
   40.3920   22.7390   37.8090 C   0  0  0  0  0  0  0  0  0  0  0  0
   41.3990   23.6400   37.5340 C   0  0  0  0  0  0  0  0  0  0  0  0
   41.4930   24.7190   38.4230 C   0  0  0  0  0  0  0  0  0  0  0  0
   40.6310   24.8420   39.4830 C   0  0  0  0  0  0  0  0  0  0  0  0
   39.6500   23.9590   39.7510 C   0  0  0  0  0  0  0  0  0  0  0  0
   37.5400   28.7020   43.5410 C   0  0  0  0  0  0  0  0  0  0  0  0
   38.9490   31.2680   41.1220 C   0  0  0  0  0  0  0  0  0  0  0  0
   38.9030   30.3090   42.1600 C   0  0  0  0  0  0  0  0  0  0  0  0
   37.6740   29.7350   42.4500 C   0  0  0  0  0  0  0  0  0  0  0  0
   36.5950   30.1350   41.7150 N   0  0  0  0  0  0  0  0  0  0  0  0
   36.6780   31.0520   40.7350 C   0  0  0  0  0  0  0  0  0  0  0  0
   37.8360   31.6100   40.4420 N   0  0  0  0  0  0  0  0  0  0  0  0
   39.6467   26.9759   44.5242 H   0  0  0  0  0  0  0  0  0  0  0  0
   40.3810   24.8986   43.3816 H   0  0  0  0  0  0  0  0  0  0  0  0
   37.1285   23.3652   41.8091 H   0  0  0  0  0  0  0  0  0  0  0  0
   36.8694   21.4513   40.3198 H   0  0  0  0  0  0  0  0  0  0  0  0
   38.4220   21.1231   38.4139 H   0  0  0  0  0  0  0  0  0  0  0  0
   40.2601   21.8673   37.1511 H   0  0  0  0  0  0  0  0  0  0  0  0
   42.0796   23.5203   36.6782 H   0  0  0  0  0  0  0  0  0  0  0  0
   42.2715   25.4806   38.2682 H   0  0  0  0  0  0  0  0  0  0  0  0
   40.7473   25.7088   40.1502 H   0  0  0  0  0  0  0  0  0  0  0  0
   36.4745   28.5119   43.7373 H   0  0  0  0  0  0  0  0  0  0  0  0
   38.0210   29.0724   44.4583 H   0  0  0  0  0  0  0  0  0  0  0  0
   39.9076   31.7424   40.8652 H   0  0  0  0  0  0  0  0  0  0  0  0
   39.8089   30.0283   42.7173 H   0  0  0  0  0  0  0  0  0  0  0  0
   35.7754   31.3380   40.1751 H   0  0  0  0  0  0  0  0  0  0  0  0
  1 16  1  0
  1  2  2  0
  3  2  1  0
  4  3  2  0
  5  4  1  0
  5  1  1  0
  6  7  2  0
  6  4  1  0
  8  7  1  0
  9  8  2  0
 10  9  1  0
 10 15  2  0
 11 10  1  0
 12 11  2  0
 12 13  1  0
 13 14  2  0
 14 15  1  0
 15  6  1  0
 17 18  2  0
 18 19  1  0
 19 16  1  0
 20 19  2  0
 21 20  1  0
 22 21  2  0
 22 17  1  0
  2 23  1  0
  3 24  1  0
  7 25  1  0
  8 26  1  0
  9 27  1  0
 11 28  1  0
 12 29  1  0
 13 30  1  0
 14 31  1  0
 16 32  1  0
 16 33  1  0
 17 34  1  0
 18 35  1  0
 21 36  1  0
M  ISO  8  23  14  24  14  25  14  26  14  27  14  28  14  29  14  30  14
M  ISO  6  31  14  32   8  33   8  34  14  35  14  36  14
M  END
>  <minimizedAffinity>  (1) 
-5.03836632

>  <minimizedRMSD>  (1) 
2.76374364

$$$$
