
     RDKit          3D

 47 52  0  0  1  0  0  0  0  0999 V2000
   36.1470   30.7530   41.0950 C   0  0  0  0  0  0  0  0  0  0  0  0
   36.7030   29.5980   41.6800 C   0  0  0  0  0  0  0  0  0  0  0  0
   38.0920   29.4270   41.6500 C   0  0  0  0  0  0  0  0  0  0  0  0
   38.7970   30.4100   41.0480 N   0  0  0  0  0  0  0  0  0  0  0  0
   38.2680   31.5090   40.4920 C   0  0  0  0  0  0  0  0  0  0  0  0
   36.9280   31.6860   40.5120 N   0  0  0  0  0  0  0  0  0  0  0  0
   38.6570   28.2390   42.2410 C   0  0  0  0  0  0  0  0  0  0  0  0
   39.7080   28.1510   43.1280 C   0  0  0  0  0  0  0  0  0  0  0  0
   39.9110   26.8370   43.4280 N   0  0  0  0  0  0  0  0  0  0  0  0
   39.0380   26.0640   42.7750 C   0  0  0  0  0  0  0  0  0  0  0  0
   38.8070   24.6980   42.7160 C   0  0  0  0  0  0  0  0  0  0  0  0
   37.7920   24.1600   41.9190 C   0  0  0  0  0  0  0  0  0  0  0  0
   37.0320   25.0490   41.1960 C   0  0  0  0  0  0  0  0  0  0  0  0
   37.2490   26.3970   41.2450 C   0  0  0  0  0  0  0  0  0  0  0  0
   38.2600   26.9320   42.0380 C   0  0  0  0  0  0  0  0  0  0  0  0
   39.1280   32.5480   39.8520 C   0  0  1  0  0  0  0  0  0  0  0  0
   39.2110   33.9130   40.5370 C   0  0  0  0  0  0  0  0  0  0  0  0
   40.3780   32.9680   40.5430 C   0  0  2  0  0  0  0  0  0  0  0  0
   41.4750   33.3510   39.5960 C   0  0  0  0  0  0  0  0  0  0  0  0
   41.3420   33.4250   38.2250 C   0  0  0  0  0  0  0  0  0  0  0  0
   42.3980   33.7860   37.4170 C   0  0  0  0  0  0  0  0  0  0  0  0
   43.6310   34.0810   38.0080 C   0  0  0  0  0  0  0  0  0  0  0  0
   43.8160   34.0210   39.3740 C   0  0  0  0  0  0  0  0  0  0  0  0
   45.0290   34.3150   39.9120 C   0  0  0  0  0  0  0  0  0  0  0  0
   45.2240   34.2580   41.2760 C   0  0  0  0  0  0  0  0  0  0  0  0
   44.1650   33.8980   42.0820 C   0  0  0  0  0  0  0  0  0  0  0  0
   42.9480   33.6060   41.5000 C   0  0  0  0  0  0  0  0  0  0  0  0
   42.7240   33.6540   40.1410 C   0  0  0  0  0  0  0  0  0  0  0  0
   35.0566   30.8966   41.1140 H   0  0  0  0  0  0  0  0  0  0  0  0
   36.0566   28.8436   42.1522 H   0  0  0  0  0  0  0  0  0  0  0  0
   40.2855   28.9981   43.5266 H   0  0  0  0  0  0  0  0  0  0  0  0
   40.6372   26.4879   44.0696 H   0  0  0  0  0  0  0  0  0  0  0  0
   39.4378   24.0210   43.3108 H   0  0  0  0  0  0  0  0  0  0  0  0
   37.6100   23.0762   41.8725 H   0  0  0  0  0  0  0  0  0  0  0  0
   36.2236   24.6626   40.5579 H   0  0  0  0  0  0  0  0  0  0  0  0
   36.6151   27.0697   40.6487 H   0  0  0  0  0  0  0  0  0  0  0  0
   38.8883   32.1871   38.8409 H   0  0  0  0  0  0  0  0  0  0  0  0
   39.2471   34.8329   39.9349 H   0  0  0  0  0  0  0  0  0  0  0  0
   38.6266   34.4431   41.3035 H   0  0  0  0  0  0  0  0  0  0  0  0
   41.0122   32.5361   41.3312 H   0  0  0  0  0  0  0  0  0  0  0  0
   40.3702   33.1903   37.7661 H   0  0  0  0  0  0  0  0  0  0  0  0
   42.2735   33.8413   36.3255 H   0  0  0  0  0  0  0  0  0  0  0  0
   44.4766   34.3688   37.3660 H   0  0  0  0  0  0  0  0  0  0  0  0
   45.8625   34.6009   39.2536 H   0  0  0  0  0  0  0  0  0  0  0  0
   46.2055   34.4952   41.7124 H   0  0  0  0  0  0  0  0  0  0  0  0
   44.2882   33.8442   43.1738 H   0  0  0  0  0  0  0  0  0  0  0  0
   42.1125   33.3198   42.1557 H   0  0  0  0  0  0  0  0  0  0  0  0
  1  2  2  0
  3  2  1  0
  3  7  1  0
  4  3  2  0
  5  6  2  0
  5  4  1  0
  6  1  1  0
  7  8  2  0
  8  9  1  0
 10  9  1  0
 11 10  2  0
 12 11  1  0
 13 14  1  0
 13 12  2  0
 14 15  2  0
 15  7  1  0
 15 10  1  0
 16  5  1  0
 16 17  1  0
 16 18  1  0
 17 18  1  0
 19 28  1  0
 19 18  1  0
 20 19  2  0
 21 22  2  0
 21 20  1  0
 22 23  1  0
 23 24  1  0
 23 28  2  0
 24 25  2  0
 25 26  1  0
 27 26  2  0
 28 27  1  0
  1 29  1  0
  2 30  1  0
  8 31  1  0
  9 32  1  0
 11 33  1  0
 12 34  1  0
 13 35  1  0
 14 36  1  0
 16 37  1  6
 17 38  1  0
 17 39  1  0
 18 40  1  1
 20 41  1  0
 21 42  1  0
 22 43  1  0
 24 44  1  0
 25 45  1  0
 26 46  1  0
 27 47  1  0
M  ISO  8  29  14  30  14  31  14  32   9  33  14  34  14  35  14  36  14
M  ISO  8  37  13  38  13  39  13  40  13  41  14  42  14  43  14  44  14
M  ISO  3  45  14  46  14  47  14
M  END
>  <minimizedAffinity>  (1) 
-6.85200214

>  <minimizedRMSD>  (1) 
0.781301439

$$$$
