
     RDKit          3D

 32 35  0  0  0  0  0  0  0  0999 V2000
   36.9600   31.4860   40.3840 C   0  0  0  0  0  0  0  0  0  0  0  0
   36.9970   31.5500   39.0350 N   0  0  0  0  0  0  0  0  0  0  0  0
   37.7880   32.5280   38.6870 O   0  0  0  0  0  0  0  0  0  0  0  0
   38.2610   33.0940   39.7530 C   0  0  0  0  0  0  0  0  0  0  0  0
   37.7550   32.4590   40.8110 N   0  0  0  0  0  0  0  0  0  0  0  0
   39.1790   34.2200   40.0420 C   0  0  0  0  0  0  0  0  0  0  0  0
   38.8260   35.5660   39.9750 C   0  0  0  0  0  0  0  0  0  0  0  0
   39.6930   36.5780   40.2470 C   0  0  0  0  0  0  0  0  0  0  0  0
   40.9800   36.3270   40.6060 C   0  0  0  0  0  0  0  0  0  0  0  0
   41.3850   35.0120   40.6870 C   0  0  0  0  0  0  0  0  0  0  0  0
   42.6930   34.7960   41.0530 C   0  0  0  0  0  0  0  0  0  0  0  0
   43.1830   33.5130   41.1590 C   0  0  0  0  0  0  0  0  0  0  0  0
   42.3180   32.4810   40.8880 C   0  0  0  0  0  0  0  0  0  0  0  0
   41.0200   32.7560   40.5270 C   0  0  0  0  0  0  0  0  0  0  0  0
   40.4900   34.0210   40.4080 C   0  0  0  0  0  0  0  0  0  0  0  0
   36.2760   30.6340   41.2500 O   0  0  0  0  0  0  0  0  0  0  0  0
   38.5850   28.6080   43.1890 C   0  0  0  0  0  0  0  0  0  0  0  0
   37.9950   27.3500   43.0050 C   0  0  0  0  0  0  0  0  0  0  0  0
   36.8320   27.2840   42.2180 C   0  0  0  0  0  0  0  0  0  0  0  0
   36.3500   28.4540   41.6840 N   0  0  0  0  0  0  0  0  0  0  0  0
   36.9600   29.6300   41.8960 C   0  0  0  0  0  0  0  0  0  0  0  0
   38.0690   29.7040   42.6430 N   0  0  0  0  0  0  0  0  0  0  0  0
   37.7956   35.8229   39.6881 H   0  0  0  0  0  0  0  0  0  0  0  0
   39.3463   37.6194   40.1751 H   0  0  0  0  0  0  0  0  0  0  0  0
   41.6774   37.1489   40.8253 H   0  0  0  0  0  0  0  0  0  0  0  0
   43.3512   35.6522   41.2622 H   0  0  0  0  0  0  0  0  0  0  0  0
   44.2267   33.3223   41.4494 H   0  0  0  0  0  0  0  0  0  0  0  0
   42.6623   31.4387   40.9595 H   0  0  0  0  0  0  0  0  0  0  0  0
   40.3570   31.9034   40.3182 H   0  0  0  0  0  0  0  0  0  0  0  0
   39.4963   28.6899   43.7996 H   0  0  0  0  0  0  0  0  0  0  0  0
   38.4266   26.4464   43.4602 H   0  0  0  0  0  0  0  0  0  0  0  0
   36.3240   26.3255   42.0356 H   0  0  0  0  0  0  0  0  0  0  0  0
  1  5  1  0
  1 16  1  0
  2  1  2  0
  3  2  1  0
  3  4  1  0
  4  6  1  0
  4  5  2  0
  6 15  1  0
  7  6  2  0
  7  8  1  0
  8  9  2  0
  9 10  1  0
 10 11  2  0
 11 12  1  0
 13 12  2  0
 14 13  1  0
 15 14  2  0
 15 10  1  0
 16 21  1  0
 18 17  2  0
 19 18  1  0
 20 21  1  0
 20 19  2  0
 21 22  2  0
 22 17  1  0
  7 23  1  0
  8 24  1  0
  9 25  1  0
 11 26  1  0
 12 27  1  0
 13 28  1  0
 14 29  1  0
 17 30  1  0
 18 31  1  0
 19 32  1  0
M  ISO  8  23  14  24  14  25  14  26  14  27  14  28  14  29  14  30  14
M  ISO  2  31  14  32  14
M  END
>  <minimizedAffinity>  (1) 
-6.26364326

>  <minimizedRMSD>  (1) 
1.38187826

$$$$
