
     RDKit          3D

 58 62  0  0  0  0  0  0  0  0999 V2000
   36.5880   30.2650   41.6120 O   0  0  0  0  0  0  0  0  0  0  0  0
   37.2500   26.7170   41.1470 C   0  0  0  0  0  0  0  0  0  0  0  0
   38.3640   26.5490   42.0030 C   0  0  0  0  0  0  0  0  0  0  0  0
   38.8470   27.6580   42.7050 C   0  0  0  0  0  0  0  0  0  0  0  0
   38.2010   28.8530   42.5190 N   0  0  0  0  0  0  0  0  0  0  0  0
   37.1390   28.9960   41.7000 C   0  0  0  0  0  0  0  0  0  0  0  0
   36.6570   27.9320   41.0100 N   0  0  0  0  0  0  0  0  0  0  0  0
   39.9330   27.5310   43.5490 N   0  0  0  0  0  0  0  0  0  0  0  0
   36.7300   25.6570   40.4190 N   0  0  0  0  0  0  0  0  0  0  0  0
   38.9030   25.1970   42.0590 C   0  0  0  0  0  0  0  0  0  0  0  0
   37.8130   24.1330   41.9390 C   0  0  0  0  0  0  0  0  0  0  0  0
   39.7260   24.8500   43.2510 C   0  0  0  0  0  0  0  0  0  0  0  0
   39.8180   25.0390   40.8470 C   0  0  0  0  0  0  0  0  0  0  0  0
   36.9060   31.1620   40.6190 C   0  0  0  0  0  0  0  0  0  0  0  0
   36.6050   31.4430   39.3510 N   0  0  0  0  0  0  0  0  0  0  0  0
   37.2780   32.4690   38.9530 O   0  0  0  0  0  0  0  0  0  0  0  0
   38.0500   32.9130   39.9280 C   0  0  0  0  0  0  0  0  0  0  0  0
   37.8170   32.0960   40.9680 N   0  0  0  0  0  0  0  0  0  0  0  0
   38.9740   34.0620   39.8900 C   0  0  0  0  0  0  0  0  0  0  0  0
   38.5920   35.3540   40.1610 C   0  0  0  0  0  0  0  0  0  0  0  0
   39.5420   36.3750   40.0940 C   0  0  0  0  0  0  0  0  0  0  0  0
   40.8600   36.1140   39.7600 C   0  0  0  0  0  0  0  0  0  0  0  0
   41.2200   34.8130   39.4920 C   0  0  0  0  0  0  0  0  0  0  0  0
   40.2890   33.8070   39.5570 C   0  0  0  0  0  0  0  0  0  0  0  0
   40.8510   32.4960   39.2460 C   0  0  0  0  0  0  0  0  0  0  0  0
   40.8800   32.2450   37.8880 C   0  0  0  0  0  0  0  0  0  0  0  0
   41.3820   31.0520   37.3860 C   0  0  0  0  0  0  0  0  0  0  0  0
   41.8590   30.1030   38.2820 C   0  0  0  0  0  0  0  0  0  0  0  0
   41.8310   30.3500   39.6430 C   0  0  0  0  0  0  0  0  0  0  0  0
   42.2970   29.4410   40.5860 C   0  0  0  0  0  0  0  0  0  0  0  0
   42.2460   29.7430   41.9360 C   0  0  0  0  0  0  0  0  0  0  0  0
   41.7320   30.9520   42.3580 C   0  0  0  0  0  0  0  0  0  0  0  0
   41.2580   31.8890   41.4550 C   0  0  0  0  0  0  0  0  0  0  0  0
   41.3290   31.5420   40.1210 C   0  0  0  0  0  0  0  0  0  0  0  0
   40.2842   28.3514   44.0634 H   0  0  0  0  0  0  0  0  0  0  0  0
   40.3916   26.6159   43.6640 H   0  0  0  0  0  0  0  0  0  0  0  0
   35.9182   25.8047   39.8025 H   0  0  0  0  0  0  0  0  0  0  0  0
   37.1557   24.7221   40.4949 H   0  0  0  0  0  0  0  0  0  0  0  0
   37.4931   23.8208   42.9441 H   0  0  0  0  0  0  0  0  0  0  0  0
   36.9532   24.5488   41.3933 H   0  0  0  0  0  0  0  0  0  0  0  0
   38.2079   23.2634   41.3933 H   0  0  0  0  0  0  0  0  0  0  0  0
   39.1638   25.0870   44.1663 H   0  0  0  0  0  0  0  0  0  0  0  0
   39.9620   23.7758   43.2335 H   0  0  0  0  0  0  0  0  0  0  0  0
   40.6599   25.4309   43.2335 H   0  0  0  0  0  0  0  0  0  0  0  0
   40.8490   24.8610   41.1867 H   0  0  0  0  0  0  0  0  0  0  0  0
   39.4793   24.1861   40.2406 H   0  0  0  0  0  0  0  0  0  0  0  0
   39.7849   25.9561   40.2406 H   0  0  0  0  0  0  0  0  0  0  0  0
   37.5493   35.5812   40.4278 H   0  0  0  0  0  0  0  0  0  0  0  0
   39.2367   37.4092   40.3113 H   0  0  0  0  0  0  0  0  0  0  0  0
   41.6006   36.9258   39.7101 H   0  0  0  0  0  0  0  0  0  0  0  0
   42.2607   34.5781   39.2240 H   0  0  0  0  0  0  0  0  0  0  0  0
   40.4979   33.0052   37.1908 H   0  0  0  0  0  0  0  0  0  0  0  0
   41.4017   30.8621   36.3027 H   0  0  0  0  0  0  0  0  0  0  0  0
   42.2610   29.1502   37.9071 H   0  0  0  0  0  0  0  0  0  0  0  0
   42.7089   28.4755   40.2573 H   0  0  0  0  0  0  0  0  0  0  0  0
   42.6164   29.0169   42.6746 H   0  0  0  0  0  0  0  0  0  0  0  0
   41.6980   31.1763   43.4343 H   0  0  0  0  0  0  0  0  0  0  0  0
   40.8479   32.8557   41.7826 H   0  0  0  0  0  0  0  0  0  0  0  0
  1  6  1  0
  2  3  2  0
  3 10  1  0
  3  4  1  0
  4  8  1  0
  5  4  2  0
  6  5  1  0
  7  2  1  0
  7  6  2  0
  9  2  1  0
 10 12  1  0
 11 10  1  0
 13 10  1  0
 14 18  1  0
 14  1  1  0
 15 14  2  0
 16 15  1  0
 16 17  1  0
 17 18  2  0
 19 17  1  0
 19 20  2  0
 21 20  1  0
 22 21  2  0
 23 24  2  0
 23 22  1  0
 24 19  1  0
 25 24  1  0
 25 34  1  0
 26 25  2  0
 27 26  1  0
 27 28  2  0
 28 29  1  0
 29 34  2  0
 29 30  1  0
 30 31  2  0
 31 32  1  0
 33 32  2  0
 34 33  1  0
  8 35  1  0
  8 36  1  0
  9 37  1  0
  9 38  1  0
 11 39  1  0
 11 40  1  0
 11 41  1  0
 12 42  1  0
 12 43  1  0
 12 44  1  0
 13 45  1  0
 13 46  1  0
 13 47  1  0
 20 48  1  0
 21 49  1  0
 22 50  1  0
 23 51  1  0
 26 52  1  0
 27 53  1  0
 28 54  1  0
 30 55  1  0
 31 56  1  0
 32 57  1  0
 33 58  1  0
M  END
>  <minimizedAffinity>  (1) 
-7.42385244

>  <minimizedRMSD>  (1) 
0.713663638

$$$$
