
     RDKit          3D

 39 42  0  0  1  0  0  0  0  0999 V2000
   37.9290   30.4250   39.6340 C   0  0  2  0  0  0  0  0  0  0  0  0
   38.9680   31.3650   39.0900 C   0  0  0  0  0  0  0  0  0  0  0  0
   39.9490   31.4970   40.2410 C   0  0  0  0  0  0  0  0  0  0  0  0
   39.7310   30.3020   41.1000 C   0  0  0  0  0  0  0  0  0  0  0  0
   38.7330   29.4110   40.3500 C   0  0  1  0  0  0  0  0  0  0  0  0
   38.1290   28.6090   41.3980 C   0  0  0  0  0  0  0  0  0  0  0  0
   37.9450   29.2750   42.5890 C   0  0  0  0  0  0  0  0  0  0  0  0
   37.3640   28.6280   43.6870 C   0  0  0  0  0  0  0  0  0  0  0  0
   36.9560   27.3000   43.6110 C   0  0  0  0  0  0  0  0  0  0  0  0
   37.1300   26.6150   42.4290 C   0  0  0  0  0  0  0  0  0  0  0  0
   36.7490   25.3070   42.2870 C   0  0  0  0  0  0  0  0  0  0  0  0
   36.9280   24.6350   41.0980 C   0  0  0  0  0  0  0  0  0  0  0  0
   37.5070   25.3190   40.0420 C   0  0  0  0  0  0  0  0  0  0  0  0
   37.8880   26.6360   40.1940 C   0  0  0  0  0  0  0  0  0  0  0  0
   37.7050   27.2920   41.3780 C   0  0  0  0  0  0  0  0  0  0  0  0
   37.4370   29.5020   37.2800 C   0  0  0  0  0  0  0  0  0  0  0  0
   37.0590   29.8680   38.6010 C   0  0  0  0  0  0  0  0  0  0  0  0
   35.7400   29.6900   38.9930 C   0  0  0  0  0  0  0  0  0  0  0  0
   34.8540   29.1620   38.0770 N   0  0  0  0  0  0  0  0  0  0  0  0
   35.2540   28.8210   36.8110 C   0  0  0  0  0  0  0  0  0  0  0  0
   36.5600   29.0020   36.4320 N   0  0  0  0  0  0  0  0  0  0  0  0
   37.2058   30.9243   40.2956 H   0  0  0  0  0  0  0  0  0  0  0  0
   39.4573   30.9410   38.2007 H   0  0  0  0  0  0  0  0  0  0  0  0
   38.5507   32.3294   38.7646 H   0  0  0  0  0  0  0  0  0  0  0  0
   40.9821   31.5138   39.8635 H   0  0  0  0  0  0  0  0  0  0  0  0
   39.7927   32.4311   40.8005 H   0  0  0  0  0  0  0  0  0  0  0  0
   40.6789   29.7659   41.2549 H   0  0  0  0  0  0  0  0  0  0  0  0
   39.3480   30.5859   42.0913 H   0  0  0  0  0  0  0  0  0  0  0  0
   39.0523   28.6734   39.5990 H   0  0  0  0  0  0  0  0  0  0  0  0
   38.2575   30.3258   42.6791 H   0  0  0  0  0  0  0  0  0  0  0  0
   37.2276   29.1808   44.6282 H   0  0  0  0  0  0  0  0  0  0  0  0
   36.5014   26.8048   44.4817 H   0  0  0  0  0  0  0  0  0  0  0  0
   36.2912   24.7831   43.1390 H   0  0  0  0  0  0  0  0  0  0  0  0
   36.6197   23.5846   40.9902 H   0  0  0  0  0  0  0  0  0  0  0  0
   37.6635   24.8105   39.0792 H   0  0  0  0  0  0  0  0  0  0  0  0
   38.3471   27.1671   39.3471 H   0  0  0  0  0  0  0  0  0  0  0  0
   38.4804   29.6386   36.9597 H   0  0  0  0  0  0  0  0  0  0  0  0
   35.4099   29.9624   40.0063 H   0  0  0  0  0  0  0  0  0  0  0  0
   34.5277   28.4022   36.0989 H   0  0  0  0  0  0  0  0  0  0  0  0
  1  5  1  0
  2  1  1  0
  2  3  1  0
  3  4  1  0
  5  4  1  0
  5  6  1  0
  6  7  2  0
  7  8  1  0
  9  8  2  0
 10  9  1  0
 11 10  2  0
 12 11  1  0
 13 14  1  0
 13 12  2  0
 14 15  2  0
 15  6  1  0
 15 10  1  0
 16 17  2  0
 17 18  1  0
 17  1  1  0
 19 18  2  0
 20 19  1  0
 21 20  2  0
 21 16  1  0
  1 22  1  1
  2 23  1  0
  2 24  1  0
  3 25  1  0
  3 26  1  0
  4 27  1  0
  4 28  1  0
  5 29  1  6
  7 30  1  0
  8 31  1  0
  9 32  1  0
 11 33  1  0
 12 34  1  0
 13 35  1  0
 14 36  1  0
 16 37  1  0
 18 38  1  0
 20 39  1  0
M  ISO  8  22  13  23  13  24  13  25  13  26  13  27  13  28  13  29  13
M  ISO  8  30  14  31  14  32  14  33  14  34  14  35  14  36  14  37  14
M  ISO  2  38  14  39  14
M  END
>  <minimizedAffinity>  (1) 
-5.38781357

>  <minimizedRMSD>  (1) 
4.52923203

$$$$
