
     RDKit          3D

 50 55  0  0  1  0  0  0  0  0999 V2000
   42.5030   29.9630   37.7980 C   0  0  0  0  0  0  0  0  0  0  0  0
   41.5410   29.9850   38.8100 C   0  0  0  0  0  0  0  0  0  0  0  0
   40.4090   29.2160   38.6500 C   0  0  0  0  0  0  0  0  0  0  0  0
   40.3070   28.4780   37.5020 N   0  0  0  0  0  0  0  0  0  0  0  0
   41.2490   28.4780   36.5470 C   0  0  0  0  0  0  0  0  0  0  0  0
   42.3420   29.2210   36.7040 N   0  0  0  0  0  0  0  0  0  0  0  0
   39.3120   29.0640   39.5060 N   0  0  0  0  0  0  0  0  0  0  0  0
   38.5330   30.0470   39.8750 C   0  0  0  0  0  0  0  0  0  0  0  0
   37.5720   29.5470   40.7000 N   0  0  0  0  0  0  0  0  0  0  0  0
   37.7790   28.2090   40.8350 C   0  0  0  0  0  0  0  0  0  0  0  0
   37.1670   27.1790   41.5160 C   0  0  0  0  0  0  0  0  0  0  0  0
   36.1540   27.4360   42.2200 O   0  0  0  0  0  0  0  0  0  0  0  0
   37.6800   25.9310   41.4020 N   0  0  0  0  0  0  0  0  0  0  0  0
   38.7680   25.6640   40.6470 C   0  0  0  0  0  0  0  0  0  0  0  0
   39.2830   24.3430   40.5440 N   0  0  0  0  0  0  0  0  0  0  0  0
   39.3750   26.6490   39.9800 N   0  0  0  0  0  0  0  0  0  0  0  0
   38.9070   27.8950   40.0590 C   0  0  0  0  0  0  0  0  0  0  0  0
   38.5600   31.5300   39.5730 C   0  0  1  0  0  0  0  0  0  0  0  0
   37.2970   32.2720   40.0450 C   0  0  0  0  0  0  0  0  0  0  0  0
   38.6540   32.4830   40.6680 C   0  0  2  0  0  0  0  0  0  0  0  0
   39.3320   33.7890   40.5350 C   0  0  0  0  0  0  0  0  0  0  0  0
   38.7020   34.9640   40.1730 C   0  0  0  0  0  0  0  0  0  0  0  0
   39.3670   36.1620   40.0600 C   0  0  0  0  0  0  0  0  0  0  0  0
   40.7210   36.2250   40.3140 C   0  0  0  0  0  0  0  0  0  0  0  0
   41.3910   35.0570   40.6830 C   0  0  0  0  0  0  0  0  0  0  0  0
   42.7450   35.1880   40.9230 C   0  0  0  0  0  0  0  0  0  0  0  0
   43.4550   34.0560   41.2910 C   0  0  0  0  0  0  0  0  0  0  0  0
   42.7970   32.8310   41.4100 C   0  0  0  0  0  0  0  0  0  0  0  0
   41.4440   32.7540   41.1610 C   0  0  0  0  0  0  0  0  0  0  0  0
   40.6880   33.8520   40.7890 C   0  0  0  0  0  0  0  0  0  0  0  0
   36.9880   24.8970   42.1430 C   0  0  0  0  0  0  0  0  0  0  0  0
   36.2580   25.3850   43.1810 F   0  0  0  0  0  0  0  0  0  0  0  0
   37.9890   24.0900   42.7250 F   0  0  0  0  0  0  0  0  0  0  0  0
   36.2200   24.0940   41.2970 F   0  0  0  0  0  0  0  0  0  0  0  0
   43.4129   30.5714   37.9068 H   0  0  0  0  0  0  0  0  0  0  0  0
   41.6832   30.5999   39.7109 H   0  0  0  0  0  0  0  0  0  0  0  0
   41.1191   27.8683   35.6407 H   0  0  0  0  0  0  0  0  0  0  0  0
   40.1136   24.1578   39.9637 H   0  0  0  0  0  0  0  0  0  0  0  0
   38.8256   23.5710   41.0497 H   0  0  0  0  0  0  0  0  0  0  0  0
   39.1328   31.4134   38.6412 H   0  0  0  0  0  0  0  0  0  0  0  0
   36.8426   33.0541   39.4191 H   0  0  0  0  0  0  0  0  0  0  0  0
   36.2948   31.9893   40.3996 H   0  0  0  0  0  0  0  0  0  0  0  0
   39.0639   32.4109   41.6862 H   0  0  0  0  0  0  0  0  0  0  0  0
   37.6219   34.9400   39.9663 H   0  0  0  0  0  0  0  0  0  0  0  0
   38.8193   37.0699   39.7671 H   0  0  0  0  0  0  0  0  0  0  0  0
   41.2633   37.1781   40.2275 H   0  0  0  0  0  0  0  0  0  0  0  0
   43.2453   36.1627   40.8249 H   0  0  0  0  0  0  0  0  0  0  0  0
   44.5350   34.1230   41.4889 H   0  0  0  0  0  0  0  0  0  0  0  0
   43.3566   31.9300   41.7016 H   0  0  0  0  0  0  0  0  0  0  0  0
   40.9440   31.7794   41.2621 H   0  0  0  0  0  0  0  0  0  0  0  0
  1  2  2  0
  3  2  1  0
  3  7  1  0
  4  3  2  0
  5  6  2  0
  5  4  1  0
  6  1  1  0
  7  8  1  0
  7 17  1  0
  8  9  2  0
  9 10  1  0
 10 11  1  0
 11 12  2  0
 13 11  1  0
 13 31  1  0
 14 13  1  0
 15 14  1  0
 16 17  1  0
 16 14  2  0
 17 10  2  0
 18  8  1  0
 18 19  1  0
 18 20  1  0
 19 20  1  0
 21 20  1  0
 21 30  1  0
 22 21  2  0
 23 22  1  0
 23 24  2  0
 24 25  1  0
 25 30  2  0
 25 26  1  0
 26 27  2  0
 27 28  1  0
 29 28  2  0
 30 29  1  0
 31 33  1  0
 31 32  1  0
 34 31  1  0
  1 35  1  0
  2 36  1  0
  5 37  1  0
 15 38  1  0
 15 39  1  0
 18 40  1  6
 19 41  1  0
 19 42  1  0
 20 43  1  1
 22 44  1  0
 23 45  1  0
 24 46  1  0
 26 47  1  0
 27 48  1  0
 28 49  1  0
 29 50  1  0
M  END
>  <minimizedAffinity>  (1) 
-7.23113918

>  <minimizedRMSD>  (1) 
2.8768208

$$$$
