
     RDKit          3D

 32 34  0  0  1  0  0  0  0  0999 V2000
   36.5900   30.7020   41.2530 C   0  0  0  0  0  0  0  0  0  0  0  0
   37.4770   29.8530   41.9290 C   0  0  0  0  0  0  0  0  0  0  0  0
   37.3170   28.4590   41.8050 C   0  0  0  0  0  0  0  0  0  0  0  0
   36.3000   28.0370   41.0280 N   0  0  0  0  0  0  0  0  0  0  0  0
   35.4660   28.8730   40.3920 C   0  0  0  0  0  0  0  0  0  0  0  0
   35.6050   30.2040   40.5010 N   0  0  0  0  0  0  0  0  0  0  0  0
   38.1610   27.5090   42.4470 N   0  0  0  0  0  0  0  0  0  0  0  0
   38.4030   27.3370   43.8490 C   0  0  0  0  0  0  0  0  0  0  0  0
   39.7370   26.6510   43.8990 C   0  0  0  0  0  0  0  0  0  0  0  0
   39.7220   25.7760   42.6860 C   0  0  0  0  0  0  0  0  0  0  0  0
   38.9150   26.5480   41.6770 C   0  0  1  0  0  0  0  0  0  0  0  0
   37.9730   25.6210   41.0030 C   0  0  0  0  0  0  0  0  0  0  0  0
   37.0850   24.7660   41.6640 C   0  0  0  0  0  0  0  0  0  0  0  0
   36.2420   23.9360   40.9520 C   0  0  0  0  0  0  0  0  0  0  0  0
   36.2340   23.9070   39.5690 C   0  0  0  0  0  0  0  0  0  0  0  0
   37.1030   24.7430   38.9080 C   0  0  0  0  0  0  0  0  0  0  0  0
   37.9390   25.5680   39.6280 C   0  0  0  0  0  0  0  0  0  0  0  0
   36.7066   31.7921   41.3430 H   0  0  0  0  0  0  0  0  0  0  0  0
   38.2861   30.2691   42.5472 H   0  0  0  0  0  0  0  0  0  0  0  0
   34.6559   28.4620   39.7717 H   0  0  0  0  0  0  0  0  0  0  0  0
   38.4425   28.3091   44.3623 H   0  0  0  0  0  0  0  0  0  0  0  0
   37.6099   26.7634   44.3510 H   0  0  0  0  0  0  0  0  0  0  0  0
   40.5576   27.3817   43.8472 H   0  0  0  0  0  0  0  0  0  0  0  0
   39.8969   26.0899   44.8315 H   0  0  0  0  0  0  0  0  0  0  0  0
   40.7441   25.6041   42.3175 H   0  0  0  0  0  0  0  0  0  0  0  0
   39.2968   24.7825   42.8911 H   0  0  0  0  0  0  0  0  0  0  0  0
   39.5465   27.0282   40.9150 H   0  0  0  0  0  0  0  0  0  0  0  0
   37.0579   24.7547   42.7636 H   0  0  0  0  0  0  0  0  0  0  0  0
   35.5546   23.2766   41.5022 H   0  0  0  0  0  0  0  0  0  0  0  0
   35.5564   23.2387   39.0174 H   0  0  0  0  0  0  0  0  0  0  0  0
   37.1305   24.7530   37.8084 H   0  0  0  0  0  0  0  0  0  0  0  0
   38.6217   26.2252   39.0694 H   0  0  0  0  0  0  0  0  0  0  0  0
  1  2  2  0
  3  2  1  0
  3  7  1  0
  4  3  2  0
  5  6  2  0
  5  4  1  0
  6  1  1  0
  7  8  1  0
  8  9  1  0
 10  9  1  0
 11  7  1  0
 11 10  1  0
 12 13  2  0
 12 11  1  0
 14 13  1  0
 15 14  2  0
 16 15  1  0
 16 17  2  0
 17 12  1  0
  1 18  1  0
  2 19  1  0
  5 20  1  0
  8 21  1  0
  8 22  1  0
  9 23  1  0
  9 24  1  0
 10 25  1  0
 10 26  1  0
 11 27  1  6
 13 28  1  0
 14 29  1  0
 15 30  1  0
 16 31  1  0
 17 32  1  0
M  ISO  8  18  14  19  14  20  14  21  13  22  13  23  13  24  13  25  13
M  ISO  7  26  13  27  13  28  14  29  14  30  14  31  14  32  14
M  END
>  <minimizedAffinity>  (1) 
-5.01615381

>  <minimizedRMSD>  (1) 
0.613977253

$$$$
