
     RDKit          3D

 52 55  0  0  0  0  0  0  0  0999 V2000
   37.2670   26.7410   41.1240 C   0  0  0  0  0  0  0  0  0  0  0  0
   38.3670   26.5400   41.9930 C   0  0  0  0  0  0  0  0  0  0  0  0
   38.8660   27.6370   42.7030 C   0  0  0  0  0  0  0  0  0  0  0  0
   38.2540   28.8470   42.5140 N   0  0  0  0  0  0  0  0  0  0  0  0
   37.2050   29.0210   41.6800 C   0  0  0  0  0  0  0  0  0  0  0  0
   36.7050   27.9680   40.9810 N   0  0  0  0  0  0  0  0  0  0  0  0
   39.9390   27.4800   43.5580 N   0  0  0  0  0  0  0  0  0  0  0  0
   36.7280   25.6970   40.3860 N   0  0  0  0  0  0  0  0  0  0  0  0
   36.6900   30.3030   41.5900 O   0  0  0  0  0  0  0  0  0  0  0  0
   37.0300   31.1860   40.5970 C   0  0  0  0  0  0  0  0  0  0  0  0
   36.7630   31.4290   39.3010 N   0  0  0  0  0  0  0  0  0  0  0  0
   37.4300   32.4630   38.9020 O   0  0  0  0  0  0  0  0  0  0  0  0
   38.1450   32.9360   39.8800 C   0  0  0  0  0  0  0  0  0  0  0  0
   37.9080   32.1480   40.9570 N   0  0  0  0  0  0  0  0  0  0  0  0
   39.0450   34.1010   39.8500 C   0  0  0  0  0  0  0  0  0  0  0  0
   38.6560   35.3810   40.1920 C   0  0  0  0  0  0  0  0  0  0  0  0
   39.6010   36.4120   40.1250 C   0  0  0  0  0  0  0  0  0  0  0  0
   40.9060   36.1810   39.7290 C   0  0  0  0  0  0  0  0  0  0  0  0
   41.2740   34.9170   39.3950 C   0  0  0  0  0  0  0  0  0  0  0  0
   40.3680   33.8830   39.4500 C   0  0  0  0  0  0  0  0  0  0  0  0
   40.9060   32.5790   39.0650 C   0  0  0  0  0  0  0  0  0  0  0  0
   41.2950   31.5250   39.8630 C   0  0  0  0  0  0  0  0  0  0  0  0
   41.7790   30.3720   39.2820 C   0  0  0  0  0  0  0  0  0  0  0  0
   41.9000   30.2140   37.9170 C   0  0  0  0  0  0  0  0  0  0  0  0
   41.5080   31.2800   37.1220 C   0  0  0  0  0  0  0  0  0  0  0  0
   41.0190   32.4460   37.6810 C   0  0  0  0  0  0  0  0  0  0  0  0
   38.8670   25.1760   42.0530 C   0  0  0  0  0  0  0  0  0  0  0  0
   37.7510   24.1390   41.9540 C   0  0  0  0  0  0  0  0  0  0  0  0
   39.6890   24.8200   43.2420 C   0  0  0  0  0  0  0  0  0  0  0  0
   39.7620   24.9830   40.8320 C   0  0  0  0  0  0  0  0  0  0  0  0
   40.3046   28.2894   44.0797 H   0  0  0  0  0  0  0  0  0  0  0  0
   40.3738   26.5535   43.6741 H   0  0  0  0  0  0  0  0  0  0  0  0
   35.9277   25.8679   39.7605 H   0  0  0  0  0  0  0  0  0  0  0  0
   37.1282   24.7511   40.4636 H   0  0  0  0  0  0  0  0  0  0  0  0
   37.6236   35.5867   40.5109 H   0  0  0  0  0  0  0  0  0  0  0  0
   39.2971   37.4342   40.3948 H   0  0  0  0  0  0  0  0  0  0  0  0
   41.6324   37.0059   39.6854 H   0  0  0  0  0  0  0  0  0  0  0  0
   42.3080   34.7177   39.0770 H   0  0  0  0  0  0  0  0  0  0  0  0
   41.2198   31.6031   40.9576 H   0  0  0  0  0  0  0  0  0  0  0  0
   42.0821   29.5412   39.9361 H   0  0  0  0  0  0  0  0  0  0  0  0
   42.2902   29.2836   37.4788 H   0  0  0  0  0  0  0  0  0  0  0  0
   41.5874   31.1966   36.0280 H   0  0  0  0  0  0  0  0  0  0  0  0
   40.7159   33.2775   37.0277 H   0  0  0  0  0  0  0  0  0  0  0  0
   37.4337   23.8442   42.9651 H   0  0  0  0  0  0  0  0  0  0  0  0
   36.8962   24.5708   41.4128 H   0  0  0  0  0  0  0  0  0  0  0  0
   38.1190   23.2549   41.4128 H   0  0  0  0  0  0  0  0  0  0  0  0
   39.1314   25.0615   44.1589 H   0  0  0  0  0  0  0  0  0  0  0  0
   39.9146   23.7435   43.2228 H   0  0  0  0  0  0  0  0  0  0  0  0
   40.6285   25.3919   43.2228 H   0  0  0  0  0  0  0  0  0  0  0  0
   40.7881   24.7617   41.1608 H   0  0  0  0  0  0  0  0  0  0  0  0
   39.3822   24.1461   40.2276 H   0  0  0  0  0  0  0  0  0  0  0  0
   39.7608   25.9020   40.2276 H   0  0  0  0  0  0  0  0  0  0  0  0
  1  2  2  0
  2 27  1  0
  2  3  1  0
  3  7  1  0
  4  3  2  0
  5  4  1  0
  6  1  1  0
  6  5  2  0
  8  1  1  0
  9  5  1  0
 10 14  1  0
 10  9  1  0
 11 10  2  0
 12 11  1  0
 12 13  1  0
 13 14  2  0
 15 13  1  0
 15 16  2  0
 17 16  1  0
 18 17  2  0
 19 20  2  0
 19 18  1  0
 20 15  1  0
 21 20  1  0
 21 22  2  0
 23 22  1  0
 24 23  2  0
 25 26  2  0
 25 24  1  0
 26 21  1  0
 27 29  1  0
 28 27  1  0
 30 27  1  0
  7 31  1  0
  7 32  1  0
  8 33  1  0
  8 34  1  0
 16 35  1  0
 17 36  1  0
 18 37  1  0
 19 38  1  0
 22 39  1  0
 23 40  1  0
 24 41  1  0
 25 42  1  0
 26 43  1  0
 28 44  1  0
 28 45  1  0
 28 46  1  0
 29 47  1  0
 29 48  1  0
 29 49  1  0
 30 50  1  0
 30 51  1  0
 30 52  1  0
M  END
>  <minimizedAffinity>  (1) 
-7.02465296

>  <minimizedRMSD>  (1) 
0.327826589

$$$$
