
     RDKit          3D

 35 38  0  0  0  0  0  0  0  0999 V2000
   44.5320   26.3670   44.3190 C   0  0  0  0  0  0  0  0  0  0  0  0
   43.3290   26.3840   43.5850 C   0  0  0  0  0  0  0  0  0  0  0  0
   42.1700   26.8860   44.1790 C   0  0  0  0  0  0  0  0  0  0  0  0
   42.2600   27.3430   45.4660 N   0  0  0  0  0  0  0  0  0  0  0  0
   43.4240   27.3150   46.1440 C   0  0  0  0  0  0  0  0  0  0  0  0
   44.5390   26.8370   45.5830 N   0  0  0  0  0  0  0  0  0  0  0  0
   43.4260   25.8550   42.2260 C   0  0  0  0  0  0  0  0  0  0  0  0
   42.4080   25.4210   41.4240 C   0  0  0  0  0  0  0  0  0  0  0  0
   42.6560   24.9440   40.1520 C   0  0  0  0  0  0  0  0  0  0  0  0
   43.9370   24.8850   39.6440 C   0  0  0  0  0  0  0  0  0  0  0  0
   45.0060   25.3180   40.4340 C   0  0  0  0  0  0  0  0  0  0  0  0
   44.7200   25.7870   41.6920 C   0  0  0  0  0  0  0  0  0  0  0  0
   43.4430   27.8320   47.5450 C   0  0  0  0  0  0  0  0  0  0  0  0
   43.4270   29.2120   47.5630 F   0  0  0  0  0  0  0  0  0  0  0  0
   42.2600   27.4610   48.2100 F   0  0  0  0  0  0  0  0  0  0  0  0
   44.5660   27.4350   48.2410 F   0  0  0  0  0  0  0  0  0  0  0  0
   41.0380   26.8790   43.4270 O   0  0  0  0  0  0  0  0  0  0  0  0
   37.0900   29.1070   43.3400 N   0  0  0  0  0  0  0  0  0  0  0  0
   36.9380   27.8680   43.8170 C   0  0  0  0  0  0  0  0  0  0  0  0
   38.1660   27.2880   43.8030 N   0  0  0  0  0  0  0  0  0  0  0  0
   39.0880   28.1660   43.3170 C   0  0  0  0  0  0  0  0  0  0  0  0
   40.4590   28.0890   43.0950 C   0  0  0  0  0  0  0  0  0  0  0  0
   41.0810   29.1840   42.5850 N   0  0  0  0  0  0  0  0  0  0  0  0
   40.3710   30.3000   42.3100 C   0  0  0  0  0  0  0  0  0  0  0  0
   39.0320   30.3900   42.5210 N   0  0  0  0  0  0  0  0  0  0  0  0
   38.3670   29.3170   43.0320 C   0  0  0  0  0  0  0  0  0  0  0  0
   45.4546   25.9749   43.8661 H   0  0  0  0  0  0  0  0  0  0  0  0
   41.3740   25.4522   41.7979 H   0  0  0  0  0  0  0  0  0  0  0  0
   41.8143   24.6039   39.5309 H   0  0  0  0  0  0  0  0  0  0  0  0
   44.1155   24.5015   38.6286 H   0  0  0  0  0  0  0  0  0  0  0  0
   46.0401   25.2841   40.0606 H   0  0  0  0  0  0  0  0  0  0  0  0
   45.5566   26.1300   42.3185 H   0  0  0  0  0  0  0  0  0  0  0  0
   36.3324   29.7957   43.2277 H   0  0  0  0  0  0  0  0  0  0  0  0
   35.9987   27.4065   44.1559 H   0  0  0  0  0  0  0  0  0  0  0  0
   40.8993   31.1724   41.8979 H   0  0  0  0  0  0  0  0  0  0  0  0
  1  6  2  0
  2  3  2  0
  2  1  1  0
  3  4  1  0
  4  5  2  0
  5 13  1  0
  6  5  1  0
  7  2  1  0
  8  7  2  0
  9  8  1  0
 10  9  2  0
 10 11  1  0
 11 12  2  0
 12  7  1  0
 13 14  1  0
 13 15  1  0
 13 16  1  0
 17  3  1  0
 18 19  1  0
 20 19  2  0
 21 20  1  0
 22 21  2  0
 22 17  1  0
 23 22  1  0
 24 25  1  0
 24 23  2  0
 25 26  2  0
 26 21  1  0
 26 18  1  0
  1 27  1  0
  8 28  1  0
  9 29  1  0
 10 30  1  0
 11 31  1  0
 12 32  1  0
 18 33  1  0
 19 34  1  0
 24 35  1  0
M  ISO  8  27  14  28  14  29  14  30  14  31  14  32  14  33   9  34  14
M  ISO  1  35  14
M  END
>  <minimizedAffinity>  (1) 
-5.70620918

>  <minimizedRMSD>  (1) 
0.247429669

$$$$
