
     RDKit          3D

 55 59  0  0  0  0  0  0  0  0999 V2000
   36.2440   30.0820   41.1800 C   0  0  0  0  0  0  0  0  0  0  0  0
   38.5500   27.9260   42.7360 C   0  0  0  0  0  0  0  0  0  0  0  0
   37.3860   27.2180   42.8990 C   0  0  0  0  0  0  0  0  0  0  0  0
   36.3740   27.9760   42.3160 C   0  0  0  0  0  0  0  0  0  0  0  0
   37.0010   29.0730   41.8480 N   0  0  0  0  0  0  0  0  0  0  0  0
   38.2800   29.0840   42.0750 N   0  0  0  0  0  0  0  0  0  0  0  0
   41.3780   25.9220   44.0890 C   0  0  0  0  0  0  0  0  0  0  0  0
   40.0820   26.2320   43.6730 C   0  0  0  0  0  0  0  0  0  0  0  0
   39.8720   27.5440   43.1800 C   0  0  0  0  0  0  0  0  0  0  0  0
   40.8910   28.4120   43.1330 N   0  0  0  0  0  0  0  0  0  0  0  0
   42.1350   28.0450   43.5560 C   0  0  0  0  0  0  0  0  0  0  0  0
   42.3790   26.8050   44.0320 N   0  0  0  0  0  0  0  0  0  0  0  0
   43.1910   28.9910   43.4920 N   0  0  0  0  0  0  0  0  0  0  0  0
   43.0480   30.1980   42.7010 C   0  0  0  0  0  0  0  0  0  0  0  0
   43.2430   31.4100   43.5690 C   0  0  0  0  0  0  0  0  0  0  0  0
   43.8420   31.0530   44.9130 C   0  0  0  0  0  0  0  0  0  0  0  0
   44.9750   30.0870   44.7050 C   0  0  0  0  0  0  0  0  0  0  0  0
   44.4290   28.7690   44.2130 C   0  0  0  0  0  0  0  0  0  0  0  0
   35.3150   29.5800   40.1160 C   0  0  0  0  0  0  0  0  0  0  0  0
   35.9240   29.4590   38.7630 C   0  0  0  0  0  0  0  0  0  0  0  0
   37.2400   29.5890   38.4290 C   0  0  0  0  0  0  0  0  0  0  0  0
   37.7510   29.5560   37.1720 C   0  0  0  0  0  0  0  0  0  0  0  0
   36.9000   29.3760   36.1030 C   0  0  0  0  0  0  0  0  0  0  0  0
   35.5470   29.2340   36.3730 C   0  0  0  0  0  0  0  0  0  0  0  0
   34.7500   29.0550   35.2580 C   0  0  0  0  0  0  0  0  0  0  0  0
   33.4090   28.8980   35.4300 C   0  0  0  0  0  0  0  0  0  0  0  0
   32.8690   28.9160   36.7000 C   0  0  0  0  0  0  0  0  0  0  0  0
   33.7240   29.1000   37.7600 C   0  0  0  0  0  0  0  0  0  0  0  0
   35.0660   29.2710   37.6710 C   0  0  0  0  0  0  0  0  0  0  0  0
   33.1200   29.0920   39.0100 O   0  0  0  0  0  0  0  0  0  0  0  0
   35.6438   30.6128   41.9337 H   0  0  0  0  0  0  0  0  0  0  0  0
   36.9752   30.7260   40.6694 H   0  0  0  0  0  0  0  0  0  0  0  0
   37.2742   26.2419   43.3938 H   0  0  0  0  0  0  0  0  0  0  0  0
   35.3029   27.7337   42.2519 H   0  0  0  0  0  0  0  0  0  0  0  0
   41.5826   24.9136   44.4780 H   0  0  0  0  0  0  0  0  0  0  0  0
   39.2661   25.4961   43.7252 H   0  0  0  0  0  0  0  0  0  0  0  0
   43.8015   30.1993   41.8996 H   0  0  0  0  0  0  0  0  0  0  0  0
   42.0384   30.2256   42.2652 H   0  0  0  0  0  0  0  0  0  0  0  0
   43.9168   32.1109   43.0545 H   0  0  0  0  0  0  0  0  0  0  0  0
   42.2569   31.8643   43.7457 H   0  0  0  0  0  0  0  0  0  0  0  0
   44.2191   31.9634   45.4019 H   0  0  0  0  0  0  0  0  0  0  0  0
   43.0736   30.5916   45.5507 H   0  0  0  0  0  0  0  0  0  0  0  0
   45.6731   30.4958   43.9596 H   0  0  0  0  0  0  0  0  0  0  0  0
   45.5040   29.9321   45.6569 H   0  0  0  0  0  0  0  0  0  0  0  0
   44.2385   28.1088   45.0719 H   0  0  0  0  0  0  0  0  0  0  0  0
   45.1624   28.2991   43.5411 H   0  0  0  0  0  0  0  0  0  0  0  0
   34.9529   28.5863   40.4186 H   0  0  0  0  0  0  0  0  0  0  0  0
   34.5115   30.3262   40.0287 H   0  0  0  0  0  0  0  0  0  0  0  0
   37.9527   29.7339   39.2542 H   0  0  0  0  0  0  0  0  0  0  0  0
   38.8326   29.6717   37.0083 H   0  0  0  0  0  0  0  0  0  0  0  0
   37.2806   29.3460   35.0714 H   0  0  0  0  0  0  0  0  0  0  0  0
   35.1912   29.0397   34.2505 H   0  0  0  0  0  0  0  0  0  0  0  0
   32.7554   28.7567   34.5566 H   0  0  0  0  0  0  0  0  0  0  0  0
   31.7882   28.7871   36.8587 H   0  0  0  0  0  0  0  0  0  0  0  0
   33.6675   29.2181   39.8251 H   0  0  0  0  0  0  0  0  0  0  0  0
  1  5  1  0
  2  3  1  0
  2  9  1  0
  4  3  2  0
  5  6  1  0
  5  4  1  0
  6  2  2  0
  8  7  2  0
  9  8  1  0
 10  9  2  0
 10 11  1  0
 11 12  2  0
 12  7  1  0
 13 11  1  0
 13 18  1  0
 14 13  1  0
 14 15  1  0
 15 16  1  0
 17 16  1  0
 18 17  1  0
 19  1  1  0
 20 19  1  0
 21 20  2  0
 22 21  1  0
 23 24  1  0
 23 22  2  0
 24 29  2  0
 25 26  2  0
 25 24  1  0
 26 27  1  0
 27 28  2  0
 28 30  1  0
 29 28  1  0
 29 20  1  0
  1 31  1  0
  1 32  1  0
  3 33  1  0
  4 34  1  0
  7 35  1  0
  8 36  1  0
 14 37  1  0
 14 38  1  0
 15 39  1  0
 15 40  1  0
 16 41  1  0
 16 42  1  0
 17 43  1  0
 17 44  1  0
 18 45  1  0
 18 46  1  0
 19 47  1  0
 19 48  1  0
 21 49  1  0
 22 50  1  0
 23 51  1  0
 25 52  1  0
 26 53  1  0
 27 54  1  0
 30 55  1  0
M  ISO  8  31   8  32   8  33  14  34  14  35  14  36  14  37  13  38  13
M  ISO  8  39  13  40  13  41  13  42  13  43  13  44  13  45  13  46  13
M  ISO  8  47   8  48   8  49  14  50  14  51  14  52  14  53  14  54  14
M  ISO  1  55   3
M  END
>  <minimizedAffinity>  (1) 
-6.49057007

>  <minimizedRMSD>  (1) 
0.506066084

$$$$
