
     RDKit          3D

 47 51  0  0  1  0  0  0  0  0999 V2000
   39.8890   26.1910   43.8950 C   0  0  2  0  0  0  0  0  0  0  0  0
   41.0430   25.7840   42.9680 C   0  0  0  0  0  0  0  0  0  0  0  0
   39.8400   24.9180   43.0990 C   0  0  2  0  0  0  0  0  0  0  0  0
   38.8540   24.7910   41.9860 C   0  0  0  0  0  0  0  0  0  0  0  0
   37.5950   24.2870   42.2670 C   0  0  0  0  0  0  0  0  0  0  0  0
   36.7860   24.1960   41.1630 C   0  0  0  0  0  0  0  0  0  0  0  0
   37.0980   24.5400   39.8910 N   0  0  0  0  0  0  0  0  0  0  0  0
   38.3430   25.0220   39.6980 C   0  0  0  0  0  0  0  0  0  0  0  0
   39.1930   25.1410   40.7270 N   0  0  0  0  0  0  0  0  0  0  0  0
   38.7530   25.4060   38.3920 N   0  0  0  0  0  0  0  0  0  0  0  0
   40.0850   25.9290   38.1490 C   0  0  0  0  0  0  0  0  0  0  0  0
   39.8920   27.3550   37.6710 C   0  0  0  0  0  0  0  0  0  0  0  0
   38.7240   27.5070   36.7480 C   0  0  0  0  0  0  0  0  0  0  0  0
   38.3870   26.1560   36.1450 C   0  0  0  0  0  0  0  0  0  0  0  0
   37.8400   25.2810   37.2720 C   0  0  0  0  0  0  0  0  0  0  0  0
   38.4510   29.1900   42.5600 C   0  0  0  0  0  0  0  0  0  0  0  0
   37.3950   28.7300   43.3650 C   0  0  0  0  0  0  0  0  0  0  0  0
   37.8490   27.5540   43.9390 C   0  0  0  0  0  0  0  0  0  0  0  0
   39.1000   27.3400   43.4930 N   0  0  0  0  0  0  0  0  0  0  0  0
   39.4700   28.3180   42.6640 N   0  0  0  0  0  0  0  0  0  0  0  0
   37.0130   31.8030   40.4350 C   0  0  0  0  0  0  0  0  0  0  0  0
   38.0520   32.7540   40.3490 C   0  0  0  0  0  0  0  0  0  0  0  0
   39.2480   32.4700   41.0370 C   0  0  0  0  0  0  0  0  0  0  0  0
   39.3530   31.3200   41.7400 N   0  0  0  0  0  0  0  0  0  0  0  0
   38.3190   30.4220   41.7970 C   0  0  0  0  0  0  0  0  0  0  0  0
   37.1400   30.6710   41.1380 N   0  0  0  0  0  0  0  0  0  0  0  0
   39.7568   26.4329   44.9599 H   0  0  0  0  0  0  0  0  0  0  0  0
   42.0042   25.4603   43.3938 H   0  0  0  0  0  0  0  0  0  0  0  0
   41.5757   26.2583   42.1306 H   0  0  0  0  0  0  0  0  0  0  0  0
   39.6973   23.8542   43.3395 H   0  0  0  0  0  0  0  0  0  0  0  0
   37.2752   23.9889   43.2764 H   0  0  0  0  0  0  0  0  0  0  0  0
   35.7731   23.8004   41.3291 H   0  0  0  0  0  0  0  0  0  0  0  0
   40.6770   25.9132   39.0760 H   0  0  0  0  0  0  0  0  0  0  0  0
   40.6265   25.3245   37.4065 H   0  0  0  0  0  0  0  0  0  0  0  0
   39.7330   28.0004   38.5474 H   0  0  0  0  0  0  0  0  0  0  0  0
   40.7946   27.6402   37.1107 H   0  0  0  0  0  0  0  0  0  0  0  0
   37.8576   27.8857   37.3100 H   0  0  0  0  0  0  0  0  0  0  0  0
   38.9755   28.2175   35.9468 H   0  0  0  0  0  0  0  0  0  0  0  0
   37.6282   26.2737   35.3573 H   0  0  0  0  0  0  0  0  0  0  0  0
   39.2786   25.6973   35.6927 H   0  0  0  0  0  0  0  0  0  0  0  0
   36.8366   25.6249   37.5633 H   0  0  0  0  0  0  0  0  0  0  0  0
   37.7588   24.2327   36.9488 H   0  0  0  0  0  0  0  0  0  0  0  0
   36.4132   29.2046   43.5091 H   0  0  0  0  0  0  0  0  0  0  0  0
   37.2882   26.9114   44.6337 H   0  0  0  0  0  0  0  0  0  0  0  0
   36.0679   31.9983   39.9071 H   0  0  0  0  0  0  0  0  0  0  0  0
   37.9327   33.6803   39.7678 H   0  0  0  0  0  0  0  0  0  0  0  0
   40.0893   33.1779   41.0025 H   0  0  0  0  0  0  0  0  0  0  0  0
  2  3  1  0
  2  1  1  0
  3  1  1  0
  4  5  2  0
  4  3  1  0
  6  5  1  0
  7  6  2  0
  8  7  1  0
  8  9  2  0
  9  4  1  0
 10  8  1  0
 11 10  1  0
 12 11  1  0
 13 12  1  0
 14 13  1  0
 14 15  1  0
 15 10  1  0
 16 20  2  0
 16 17  1  0
 17 18  2  0
 19  1  1  0
 19 18  1  0
 20 19  1  0
 21 26  2  0
 22 21  1  0
 22 23  2  0
 23 24  1  0
 24 25  2  0
 25 16  1  0
 26 25  1  0
  1 27  1  1
  2 28  1  0
  2 29  1  0
  3 30  1  1
  5 31  1  0
  6 32  1  0
 11 33  1  0
 11 34  1  0
 12 35  1  0
 12 36  1  0
 13 37  1  0
 13 38  1  0
 14 39  1  0
 14 40  1  0
 15 41  1  0
 15 42  1  0
 17 43  1  0
 18 44  1  0
 21 45  1  0
 22 46  1  0
 23 47  1  0
M  ISO  8  27  13  28  13  29  13  30  13  31  14  32  14  33  13  34  13
M  ISO  8  35  13  36  13  37  13  38  13  39  13  40  13  41  13  42  13
M  ISO  5  43  14  44  14  45  14  46  14  47  14
M  END
>  <minimizedAffinity>  (1) 
-5.87504196

>  <minimizedRMSD>  (1) 
0.0870171636

$$$$
