
     RDKit          3D

 50 54  0  0  0  0  0  0  0  0999 V2000
   39.8610   32.6810   40.9690 C   0  0  0  0  0  0  0  0  0  0  0  0
   40.9660   32.0920   41.6280 C   0  0  0  0  0  0  0  0  0  0  0  0
   40.9350   30.8340   42.2070 C   0  0  0  0  0  0  0  0  0  0  0  0
   39.7540   30.1060   42.1400 C   0  0  0  0  0  0  0  0  0  0  0  0
   38.6650   30.6350   41.5160 C   0  0  0  0  0  0  0  0  0  0  0  0
   37.5380   29.8850   41.4740 C   0  0  0  0  0  0  0  0  0  0  0  0
   36.3690   30.3780   40.8320 C   0  0  0  0  0  0  0  0  0  0  0  0
   36.4830   31.6530   40.2710 C   0  0  0  0  0  0  0  0  0  0  0  0
   37.6530   32.3530   40.3530 C   0  0  0  0  0  0  0  0  0  0  0  0
   38.7780   31.8730   40.9730 C   0  0  0  0  0  0  0  0  0  0  0  0
   37.2790   28.5670   42.0120 C   0  0  0  0  0  0  0  0  0  0  0  0
   36.8760   28.2220   43.2880 C   0  0  0  0  0  0  0  0  0  0  0  0
   36.6200   26.9450   43.7130 C   0  0  0  0  0  0  0  0  0  0  0  0
   36.7550   25.8870   42.8490 C   0  0  0  0  0  0  0  0  0  0  0  0
   37.1530   26.2470   41.5960 C   0  0  0  0  0  0  0  0  0  0  0  0
   37.4010   27.5090   41.1960 N   0  0  0  0  0  0  0  0  0  0  0  0
   37.3330   25.2350   40.5980 N   0  0  0  0  0  0  0  0  0  0  0  0
   36.3720   24.1440   40.4090 C   0  0  0  0  0  0  0  0  0  0  0  0
   37.0050   23.0280   39.6380 C   0  0  0  0  0  0  0  0  0  0  0  0
   38.4170   22.7150   40.0140 C   0  0  0  0  0  0  0  0  0  0  0  0
   39.2700   23.9530   40.1800 C   0  0  0  0  0  0  0  0  0  0  0  0
   38.4330   25.1270   39.6620 C   0  0  0  0  0  0  0  0  0  0  0  0
   40.0860   33.9860   40.4500 C   0  0  0  0  0  0  0  0  0  0  0  0
   39.3860   35.1930   40.6960 C   0  0  0  0  0  0  0  0  0  0  0  0
   39.7680   36.3970   40.1080 C   0  0  0  0  0  0  0  0  0  0  0  0
   40.8590   36.3470   39.2790 N   0  0  0  0  0  0  0  0  0  0  0  0
   41.5160   35.2300   39.0440 C   0  0  0  0  0  0  0  0  0  0  0  0
   41.1380   34.0840   39.6140 N   0  0  0  0  0  0  0  0  0  0  0  0
   41.9029   32.6657   41.6837 H   0  0  0  0  0  0  0  0  0  0  0  0
   41.8236   30.4218   42.7074 H   0  0  0  0  0  0  0  0  0  0  0  0
   39.6983   29.1039   42.5902 H   0  0  0  0  0  0  0  0  0  0  0  0
   35.4376   29.7951   40.7803 H   0  0  0  0  0  0  0  0  0  0  0  0
   35.6189   32.0987   39.7565 H   0  0  0  0  0  0  0  0  0  0  0  0
   37.6950   33.3537   39.8981 H   0  0  0  0  0  0  0  0  0  0  0  0
   36.7512   29.0350   44.0184 H   0  0  0  0  0  0  0  0  0  0  0  0
   36.3047   26.7667   44.7517 H   0  0  0  0  0  0  0  0  0  0  0  0
   36.5600   24.8445   43.1409 H   0  0  0  0  0  0  0  0  0  0  0  0
   36.0488   23.7697   41.3916 H   0  0  0  0  0  0  0  0  0  0  0  0
   35.5044   24.5219   39.8482 H   0  0  0  0  0  0  0  0  0  0  0  0
   36.9889   23.2990   38.5720 H   0  0  0  0  0  0  0  0  0  0  0  0
   36.4202   22.1260   39.8713 H   0  0  0  0  0  0  0  0  0  0  0  0
   38.4127   22.1617   40.9647 H   0  0  0  0  0  0  0  0  0  0  0  0
   38.8524   22.1212   39.1968 H   0  0  0  0  0  0  0  0  0  0  0  0
   39.5206   24.1030   41.2405 H   0  0  0  0  0  0  0  0  0  0  0  0
   40.2163   23.8627   39.6264 H   0  0  0  0  0  0  0  0  0  0  0  0
   39.0270   26.0528   39.6529 H   0  0  0  0  0  0  0  0  0  0  0  0
   38.0874   24.9685   38.6298 H   0  0  0  0  0  0  0  0  0  0  0  0
   38.5168   35.1792   41.3700 H   0  0  0  0  0  0  0  0  0  0  0  0
   39.2251   37.3346   40.2981 H   0  0  0  0  0  0  0  0  0  0  0  0
   42.3857   35.2418   38.3706 H   0  0  0  0  0  0  0  0  0  0  0  0
  1 10  1  0
  1  2  2  0
  2  3  1  0
  4  3  2  0
  5  4  1  0
  6  5  2  0
  6 11  1  0
  7  6  1  0
  8  9  1  0
  8  7  2  0
  9 10  2  0
 10  5  1  0
 11 12  2  0
 12 13  1  0
 14 13  2  0
 15 14  1  0
 16 15  2  0
 16 11  1  0
 17 15  1  0
 18 17  1  0
 19 20  1  0
 19 18  1  0
 20 21  1  0
 22 21  1  0
 22 17  1  0
 23 24  2  0
 23  1  1  0
 25 24  1  0
 26 25  2  0
 27 26  1  0
 27 28  2  0
 28 23  1  0
  2 29  1  0
  3 30  1  0
  4 31  1  0
  7 32  1  0
  8 33  1  0
  9 34  1  0
 12 35  1  0
 13 36  1  0
 14 37  1  0
 18 38  1  0
 18 39  1  0
 19 40  1  0
 19 41  1  0
 20 42  1  0
 20 43  1  0
 21 44  1  0
 21 45  1  0
 22 46  1  0
 22 47  1  0
 24 48  1  0
 25 49  1  0
 27 50  1  0
M  END
>  <minimizedAffinity>  (1) 
-7.21629858

>  <minimizedRMSD>  (1) 
1.98757446

$$$$
