
     RDKit          3D

 36 38  0  0  0  0  0  0  0  0999 V2000
   38.0800   28.5480   42.1220 C   0  0  0  0  0  0  0  0  0  0  0  0
   36.8310   28.0790   41.8770 C   0  0  0  0  0  0  0  0  0  0  0  0
   36.1020   29.0420   41.2370 C   0  0  0  0  0  0  0  0  0  0  0  0
   36.9920   30.1090   41.1180 N   0  0  0  0  0  0  0  0  0  0  0  0
   38.1250   29.7930   41.6380 N   0  0  0  0  0  0  0  0  0  0  0  0
   40.0120   25.8900   43.8990 C   0  0  0  0  0  0  0  0  0  0  0  0
   38.9590   26.5400   43.2620 C   0  0  0  0  0  0  0  0  0  0  0  0
   39.1310   27.8280   42.7770 C   0  0  0  0  0  0  0  0  0  0  0  0
   40.3420   28.4180   42.9400 N   0  0  0  0  0  0  0  0  0  0  0  0
   41.3590   27.7510   43.5690 C   0  0  0  0  0  0  0  0  0  0  0  0
   41.1980   26.5150   44.0380 N   0  0  0  0  0  0  0  0  0  0  0  0
   36.5690   31.3570   40.4710 C   0  0  0  0  0  0  0  0  0  0  0  0
   36.8950   31.3360   39.0010 C   0  0  0  0  0  0  0  0  0  0  0  0
   37.8090   32.4730   38.8110 N   0  0  0  0  0  0  0  0  0  0  0  0
   37.5400   33.5240   39.7110 C   0  0  0  0  0  0  0  0  0  0  0  0
   38.5990   34.1610   40.4940 C   0  0  0  0  0  0  0  0  0  0  0  0
   39.9460   34.1070   39.8260 C   0  0  0  0  0  0  0  0  0  0  0  0
   40.2610   32.7420   39.2830 C   0  0  0  0  0  0  0  0  0  0  0  0
   39.1410   31.9930   38.7230 C   0  0  0  0  0  0  0  0  0  0  0  0
   36.4623   27.0794   42.1507 H   0  0  0  0  0  0  0  0  0  0  0  0
   35.0577   28.9880   40.8957 H   0  0  0  0  0  0  0  0  0  0  0  0
   39.8768   24.8699   44.2876 H   0  0  0  0  0  0  0  0  0  0  0  0
   37.9904   26.0323   43.1432 H   0  0  0  0  0  0  0  0  0  0  0  0
   42.3328   28.2482   43.6899 H   0  0  0  0  0  0  0  0  0  0  0  0
   35.4831   31.4785   40.5976 H   0  0  0  0  0  0  0  0  0  0  0  0
   37.1059   32.1955   40.9387 H   0  0  0  0  0  0  0  0  0  0  0  0
   37.3866   30.3914   38.7251 H   0  0  0  0  0  0  0  0  0  0  0  0
   35.9960   31.4119   38.3717 H   0  0  0  0  0  0  0  0  0  0  0  0
   37.0700   34.3237   39.1197 H   0  0  0  0  0  0  0  0  0  0  0  0
   36.9486   33.0183   40.4885 H   0  0  0  0  0  0  0  0  0  0  0  0
   38.3298   35.2157   40.6528 H   0  0  0  0  0  0  0  0  0  0  0  0
   38.6821   33.6079   41.4412 H   0  0  0  0  0  0  0  0  0  0  0  0
   39.9581   34.8289   38.9961 H   0  0  0  0  0  0  0  0  0  0  0  0
   40.7061   34.3508   40.5829 H   0  0  0  0  0  0  0  0  0  0  0  0
   41.2805   32.3297   39.3063 H   0  0  0  0  0  0  0  0  0  0  0  0
   39.3341   31.0336   38.2208 H   0  0  0  0  0  0  0  0  0  0  0  0
  1  8  1  0
  2  1  1  0
  3  2  2  0
  4  3  1  0
  4  5  1  0
  5  1  2  0
  6 11  2  0
  7  6  1  0
  8  9  1  0
  8  7  2  0
  9 10  2  0
 10 11  1  0
 12  4  1  0
 13 12  1  0
 14 13  1  0
 14 15  1  0
 15 16  1  0
 17 16  1  0
 18 17  1  0
 19 14  1  0
 19 18  2  0
  2 20  1  0
  3 21  1  0
  6 22  1  0
  7 23  1  0
 10 24  1  0
 12 25  1  0
 12 26  1  0
 13 27  1  0
 13 28  1  0
 15 29  1  0
 15 30  1  0
 16 31  1  0
 16 32  1  0
 17 33  1  0
 17 34  1  0
 18 35  1  0
 19 36  1  0
M  ISO  8  20  14  21  14  22  14  23  14  24  14  25   8  26   8  27   8
M  ISO  8  28   8  29  13  30  13  31  13  32  13  33  13  34  13  35  13
M  ISO  1  36  13
M  END
>  <minimizedAffinity>  (1) 
-4.75994492

>  <minimizedRMSD>  (1) 
4.28201246

$$$$
