
     RDKit          3D

 45 48  0  0  0  0  0  0  0  0999 V2000
   36.7140   31.0640   40.4930 C   0  0  0  0  0  0  0  0  0  0  0  0
   36.5060   31.3650   39.1740 N   0  0  0  0  0  0  0  0  0  0  0  0
   37.4150   32.2430   38.8000 O   0  0  0  0  0  0  0  0  0  0  0  0
   38.1780   32.4930   39.8500 C   0  0  0  0  0  0  0  0  0  0  0  0
   37.7720   31.7850   40.9000 N   0  0  0  0  0  0  0  0  0  0  0  0
   39.2960   33.4210   39.8140 C   0  0  0  0  0  0  0  0  0  0  0  0
   39.2500   34.7750   40.1150 C   0  0  0  0  0  0  0  0  0  0  0  0
   40.5110   35.3120   39.9660 C   0  0  0  0  0  0  0  0  0  0  0  0
   41.2930   34.2520   39.5740 C   0  0  0  0  0  0  0  0  0  0  0  0
   40.5420   33.2010   39.5060 O   0  0  0  0  0  0  0  0  0  0  0  0
   42.6860   34.3010   39.2910 N   0  0  0  0  0  0  0  0  0  0  0  0
   43.1900   34.4030   37.9350 C   0  0  0  0  0  0  0  0  0  0  0  0
   44.1420   33.2670   37.6690 C   0  0  0  0  0  0  0  0  0  0  0  0
   45.0940   32.9620   38.7690 C   0  0  0  0  0  0  0  0  0  0  0  0
   44.4980   33.0110   40.1380 C   0  0  0  0  0  0  0  0  0  0  0  0
   43.6590   34.2490   40.3680 C   0  0  0  0  0  0  0  0  0  0  0  0
   36.0230   30.1920   41.3490 O   0  0  0  0  0  0  0  0  0  0  0  0
   37.9880   27.8780   43.3590 C   0  0  0  0  0  0  0  0  0  0  0  0
   37.8240   26.7190   42.5390 C   0  0  0  0  0  0  0  0  0  0  0  0
   37.0660   26.8340   41.3920 C   0  0  0  0  0  0  0  0  0  0  0  0
   36.5270   28.0400   41.1150 N   0  0  0  0  0  0  0  0  0  0  0  0
   36.6800   29.1100   41.8750 C   0  0  0  0  0  0  0  0  0  0  0  0
   37.4110   29.0460   43.0040 N   0  0  0  0  0  0  0  0  0  0  0  0
   36.9780   25.5920   40.6590 C   0  0  0  0  0  0  0  0  0  0  0  0
   36.9730   24.3550   41.4530 C   0  0  0  0  0  0  0  0  0  0  0  0
   37.9120   23.0150   40.6340 S   0  0  0  0  0  0  0  0  0  0  0  0
   38.3518   35.3304   40.4229 H   0  0  0  0  0  0  0  0  0  0  0  0
   40.8216   36.3552   40.1252 H   0  0  0  0  0  0  0  0  0  0  0  0
   42.3502   34.3517   37.2264 H   0  0  0  0  0  0  0  0  0  0  0  0
   43.7163   35.3607   37.8095 H   0  0  0  0  0  0  0  0  0  0  0  0
   43.5459   32.3629   37.4756 H   0  0  0  0  0  0  0  0  0  0  0  0
   44.7580   33.5818   36.8137 H   0  0  0  0  0  0  0  0  0  0  0  0
   45.4951   31.9509   38.6053 H   0  0  0  0  0  0  0  0  0  0  0  0
   45.8678   33.7431   38.7375 H   0  0  0  0  0  0  0  0  0  0  0  0
   43.8617   32.1245   40.2763 H   0  0  0  0  0  0  0  0  0  0  0  0
   45.3277   33.0342   40.8599 H   0  0  0  0  0  0  0  0  0  0  0  0
   44.2946   35.1466   40.3481 H   0  0  0  0  0  0  0  0  0  0  0  0
   43.1617   34.2129   41.3485 H   0  0  0  0  0  0  0  0  0  0  0  0
   38.5852   27.8184   44.2808 H   0  0  0  0  0  0  0  0  0  0  0  0
   38.2895   25.7613   42.8149 H   0  0  0  0  0  0  0  0  0  0  0  0
   36.0470   25.6159   40.0736 H   0  0  0  0  0  0  0  0  0  0  0  0
   37.8981   25.5456   40.0580 H   0  0  0  0  0  0  0  0  0  0  0  0
   37.4276   24.5599   42.4335 H   0  0  0  0  0  0  0  0  0  0  0  0
   35.9297   24.0235   41.5612 H   0  0  0  0  0  0  0  0  0  0  0  0
   38.4781   22.2071   41.5846 H   0  0  0  0  0  0  0  0  0  0  0  0
  1  5  1  0
  1 17  1  0
  2  1  2  0
  3  2  1  0
  3  4  1  0
  4  5  2  0
  6  4  1  0
  6  7  2  0
  8  7  1  0
  9  8  2  0
 10  9  1  0
 10  6  1  0
 11  9  1  0
 11 16  1  0
 12 11  1  0
 13 12  1  0
 13 14  1  0
 14 15  1  0
 15 16  1  0
 17 22  1  0
 19 18  2  0
 20 19  1  0
 21 20  2  0
 21 22  1  0
 22 23  2  0
 23 18  1  0
 24 20  1  0
 24 25  1  0
 26 25  1  0
  7 27  1  0
  8 28  1  0
 12 29  1  0
 12 30  1  0
 13 31  1  0
 13 32  1  0
 14 33  1  0
 14 34  1  0
 15 35  1  0
 15 36  1  0
 16 37  1  0
 16 38  1  0
 18 39  1  0
 19 40  1  0
 24 41  1  0
 24 42  1  0
 25 43  1  0
 25 44  1  0
 26 45  1  0
M  ISO  8  27  14  28  14  29  13  30  13  31  13  32  13  33  13  34  13
M  ISO  8  35  13  36  13  37  13  38  13  39  14  40  14  41   8  42   8
M  ISO  3  43   8  44   8  45  11
M  END
>  <minimizedAffinity>  (1) 
-5.6099925

>  <minimizedRMSD>  (1) 
0.794284999

$$$$
