
     RDKit          3D

 40 43  0  0  0  0  0  0  0  0999 V2000
   44.5320   26.3790   44.4110 C   0  0  0  0  0  0  0  0  0  0  0  0
   43.3450   26.3880   43.6580 C   0  0  0  0  0  0  0  0  0  0  0  0
   42.1760   26.9080   44.2250 C   0  0  0  0  0  0  0  0  0  0  0  0
   42.2520   27.3900   45.5080 N   0  0  0  0  0  0  0  0  0  0  0  0
   43.4050   27.3650   46.1960 C   0  0  0  0  0  0  0  0  0  0  0  0
   44.5370   26.8690   45.6650 N   0  0  0  0  0  0  0  0  0  0  0  0
   43.4290   25.8500   42.3360 N   0  0  0  0  0  0  0  0  0  0  0  0
   44.6840   25.8400   41.6180 C   0  0  0  0  0  0  0  0  0  0  0  0
   44.5490   26.7010   40.3820 C   0  0  0  0  0  0  0  0  0  0  0  0
   43.3930   26.1480   39.5610 C   0  0  0  0  0  0  0  0  0  0  0  0
   42.1120   26.1490   40.3570 C   0  0  0  0  0  0  0  0  0  0  0  0
   42.3350   25.2730   41.5730 C   0  0  0  0  0  0  0  0  0  0  0  0
   43.4100   27.9090   47.5890 C   0  0  0  0  0  0  0  0  0  0  0  0
   43.4480   29.3050   47.5570 F   0  0  0  0  0  0  0  0  0  0  0  0
   42.2190   27.6140   48.2350 F   0  0  0  0  0  0  0  0  0  0  0  0
   44.5130   27.5170   48.3110 F   0  0  0  0  0  0  0  0  0  0  0  0
   41.0550   26.8970   43.4650 O   0  0  0  0  0  0  0  0  0  0  0  0
   37.0950   29.0980   43.3200 N   0  0  0  0  0  0  0  0  0  0  0  0
   36.9430   27.8650   43.7990 C   0  0  0  0  0  0  0  0  0  0  0  0
   38.1760   27.2910   43.8030 N   0  0  0  0  0  0  0  0  0  0  0  0
   39.0980   28.1570   43.3300 C   0  0  0  0  0  0  0  0  0  0  0  0
   40.4730   28.0950   43.1230 C   0  0  0  0  0  0  0  0  0  0  0  0
   41.0980   29.1920   42.6150 N   0  0  0  0  0  0  0  0  0  0  0  0
   40.3780   30.3030   42.3280 C   0  0  0  0  0  0  0  0  0  0  0  0
   39.0370   30.3950   42.5170 N   0  0  0  0  0  0  0  0  0  0  0  0
   38.3730   29.3160   43.0260 C   0  0  0  0  0  0  0  0  0  0  0  0
   45.4565   25.9717   43.9758 H   0  0  0  0  0  0  0  0  0  0  0  0
   45.4808   26.2408   42.2618 H   0  0  0  0  0  0  0  0  0  0  0  0
   44.9390   24.8100   41.3282 H   0  0  0  0  0  0  0  0  0  0  0  0
   44.3402   27.7417   40.6706 H   0  0  0  0  0  0  0  0  0  0  0  0
   45.4804   26.6865   39.7970 H   0  0  0  0  0  0  0  0  0  0  0  0
   43.6277   25.1165   39.2594 H   0  0  0  0  0  0  0  0  0  0  0  0
   43.2552   26.7876   38.6768 H   0  0  0  0  0  0  0  0  0  0  0  0
   41.8654   27.1738   40.6717 H   0  0  0  0  0  0  0  0  0  0  0  0
   41.2771   25.7676   39.7508 H   0  0  0  0  0  0  0  0  0  0  0  0
   41.4230   25.2451   42.1874 H   0  0  0  0  0  0  0  0  0  0  0  0
   42.5771   24.2441   41.2685 H   0  0  0  0  0  0  0  0  0  0  0  0
   36.3348   29.7818   43.1956 H   0  0  0  0  0  0  0  0  0  0  0  0
   36.0018   27.4003   44.1280 H   0  0  0  0  0  0  0  0  0  0  0  0
   40.9079   31.1765   41.9204 H   0  0  0  0  0  0  0  0  0  0  0  0
  1  6  2  0
  2  3  2  0
  2  1  1  0
  3  4  1  0
  4  5  2  0
  5 13  1  0
  6  5  1  0
  7  2  1  0
  8  7  1  0
  9  8  1  0
 10 11  1  0
 10  9  1  0
 11 12  1  0
 12  7  1  0
 13 15  1  0
 13 16  1  0
 14 13  1  0
 17  3  1  0
 18 19  1  0
 19 20  2  0
 21 20  1  0
 22 21  2  0
 22 17  1  0
 23 22  1  0
 24 25  1  0
 24 23  2  0
 25 26  2  0
 26 18  1  0
 26 21  1  0
  1 27  1  0
  8 28  1  0
  8 29  1  0
  9 30  1  0
  9 31  1  0
 10 32  1  0
 10 33  1  0
 11 34  1  0
 11 35  1  0
 12 36  1  0
 12 37  1  0
 18 38  1  0
 19 39  1  0
 24 40  1  0
M  ISO  8  27  14  28  13  29  13  30  13  31  13  32  13  33  13  34  13
M  ISO  6  35  13  36  13  37  13  38   9  39  14  40  14
M  END
>  <minimizedAffinity>  (1) 
-5.486238

>  <minimizedRMSD>  (1) 
0.801147282

$$$$
