
     RDKit          3D

 51 56  0  0  1  0  0  0  0  0999 V2000
   35.9110   30.5050   40.8620 C   0  0  0  0  0  0  0  0  0  0  0  0
   36.4550   29.3620   41.4840 C   0  0  0  0  0  0  0  0  0  0  0  0
   37.8250   29.2470   41.5780 C   0  0  0  0  0  0  0  0  0  0  0  0
   38.5600   30.2710   41.0580 N   0  0  0  0  0  0  0  0  0  0  0  0
   38.0270   31.3570   40.4690 C   0  0  0  0  0  0  0  0  0  0  0  0
   36.6940   31.4710   40.3720 N   0  0  0  0  0  0  0  0  0  0  0  0
   38.3870   28.0770   42.1920 C   0  0  0  0  0  0  0  0  0  0  0  0
   39.3640   28.0270   43.1820 C   0  0  0  0  0  0  0  0  0  0  0  0
   39.6070   26.7260   43.4870 N   0  0  0  0  0  0  0  0  0  0  0  0
   38.8350   25.9160   42.7450 C   0  0  0  0  0  0  0  0  0  0  0  0
   38.6880   24.5470   42.6550 C   0  0  0  0  0  0  0  0  0  0  0  0
   37.7810   23.9740   41.7600 C   0  0  0  0  0  0  0  0  0  0  0  0
   37.0390   24.8320   40.9700 C   0  0  0  0  0  0  0  0  0  0  0  0
   37.1940   26.1870   41.0660 C   0  0  0  0  0  0  0  0  0  0  0  0
   38.0800   26.7520   41.9420 C   0  0  0  0  0  0  0  0  0  0  0  0
   38.9340   32.4460   39.9520 C   0  0  1  0  0  0  0  0  0  0  0  0
   38.9650   33.7500   40.7730 C   0  0  0  0  0  0  0  0  0  0  0  0
   40.1150   32.8210   40.7640 C   0  0  2  0  0  0  0  0  0  0  0  0
   41.4010   33.1650   40.1020 C   0  0  0  0  0  0  0  0  0  0  0  0
   41.9100   34.4000   39.9470 N   0  0  0  0  0  0  0  0  0  0  0  0
   43.0530   34.3020   39.2970 O   0  0  0  0  0  0  0  0  0  0  0  0
   43.3110   33.0480   39.0220 C   0  0  0  0  0  0  0  0  0  0  0  0
   42.2680   32.3240   39.5290 N   0  0  0  0  0  0  0  0  0  0  0  0
   44.4670   32.5870   38.3250 N   0  0  0  0  0  0  0  0  0  0  0  0
   45.8440   32.6230   38.7790 C   0  0  0  0  0  0  0  0  0  0  0  0
   46.6900   31.8230   37.8180 C   0  0  0  0  0  0  0  0  0  0  0  0
   46.1160   30.4630   37.5070 C   0  0  0  0  0  0  0  0  0  0  0  0
   44.6420   30.5280   37.1730 C   0  0  0  0  0  0  0  0  0  0  0  0
   44.3280   32.0110   37.0010 C   0  0  0  0  0  0  0  0  0  0  0  0
   34.8186   30.6035   40.7784 H   0  0  0  0  0  0  0  0  0  0  0  0
   35.7979   28.5770   41.8866 H   0  0  0  0  0  0  0  0  0  0  0  0
   39.8573   28.8965   43.6410 H   0  0  0  0  0  0  0  0  0  0  0  0
   40.2885   26.4054   44.1896 H   0  0  0  0  0  0  0  0  0  0  0  0
   39.2959   23.8950   43.2995 H   0  0  0  0  0  0  0  0  0  0  0  0
   37.6620   22.8829   41.6869 H   0  0  0  0  0  0  0  0  0  0  0  0
   36.3135   24.4187   40.2539 H   0  0  0  0  0  0  0  0  0  0  0  0
   36.5893   26.8413   40.4208 H   0  0  0  0  0  0  0  0  0  0  0  0
   38.7743   32.1671   38.9000 H   0  0  0  0  0  0  0  0  0  0  0  0
   39.0353   34.7228   40.2644 H   0  0  0  0  0  0  0  0  0  0  0  0
   38.3300   34.2061   41.5468 H   0  0  0  0  0  0  0  0  0  0  0  0
   40.6897   32.3300   41.5631 H   0  0  0  0  0  0  0  0  0  0  0  0
   46.1981   33.6641   38.8059 H   0  0  0  0  0  0  0  0  0  0  0  0
   45.9174   32.1950   39.7897 H   0  0  0  0  0  0  0  0  0  0  0  0
   46.7792   32.3875   36.8781 H   0  0  0  0  0  0  0  0  0  0  0  0
   47.6660   31.6623   38.2993 H   0  0  0  0  0  0  0  0  0  0  0  0
   46.6557   30.0388   36.6475 H   0  0  0  0  0  0  0  0  0  0  0  0
   46.2321   29.8345   38.4023 H   0  0  0  0  0  0  0  0  0  0  0  0
   44.4343   29.9806   36.2418 H   0  0  0  0  0  0  0  0  0  0  0  0
   44.0248   30.0687   37.9592 H   0  0  0  0  0  0  0  0  0  0  0  0
   45.0379   32.4767   36.3016 H   0  0  0  0  0  0  0  0  0  0  0  0
   43.3217   32.1721   36.5869 H   0  0  0  0  0  0  0  0  0  0  0  0
  1  2  2  0
  2  3  1  0
  3  7  1  0
  4  3  2  0
  5  4  1  0
  6  5  2  0
  6  1  1  0
  7  8  2  0
  8  9  1  0
 10  9  1  0
 11 10  2  0
 12 11  1  0
 13 14  1  0
 13 12  2  0
 14 15  2  0
 15  7  1  0
 15 10  1  0
 16  5  1  0
 16 18  1  0
 16 17  1  0
 18 17  1  0
 19 18  1  0
 20 19  2  0
 21 20  1  0
 22 21  1  0
 22 23  2  0
 23 19  1  0
 24 25  1  0
 24 22  1  0
 26 25  1  0
 27 26  1  0
 28 27  1  0
 29 28  1  0
 29 24  1  0
  1 30  1  0
  2 31  1  0
  8 32  1  0
  9 33  1  0
 11 34  1  0
 12 35  1  0
 13 36  1  0
 14 37  1  0
 16 38  1  6
 17 39  1  0
 17 40  1  0
 18 41  1  1
 25 42  1  0
 25 43  1  0
 26 44  1  0
 26 45  1  0
 27 46  1  0
 27 47  1  0
 28 48  1  0
 28 49  1  0
 29 50  1  0
 29 51  1  0
M  ISO  8  30  14  31  14  32  14  33   9  34  14  35  14  36  14  37  14
M  ISO  8  38  13  39  13  40  13  41  13  42  13  43  13  44  13  45  13
M  ISO  6  46  13  47  13  48  13  49  13  50  13  51  13
M  END
>  <minimizedAffinity>  (1) 
-6.43350983

>  <minimizedRMSD>  (1) 
1.78057337

$$$$
