
     RDKit          3D

 44 48  0  0  1  0  0  0  0  0999 V2000
   36.0950   29.8560   38.2630 C   0  0  0  0  0  0  0  0  0  0  0  0
   36.1440   28.7880   39.1770 C   0  0  0  0  0  0  0  0  0  0  0  0
   36.7950   28.9860   40.3920 C   0  0  0  0  0  0  0  0  0  0  0  0
   37.3550   30.2080   40.6450 N   0  0  0  0  0  0  0  0  0  0  0  0
   37.2830   31.2110   39.7320 C   0  0  0  0  0  0  0  0  0  0  0  0
   36.6530   31.0350   38.5400 N   0  0  0  0  0  0  0  0  0  0  0  0
   36.8470   27.8910   41.3360 C   0  0  0  0  0  0  0  0  0  0  0  0
   36.5520   27.9280   42.7000 C   0  0  0  0  0  0  0  0  0  0  0  0
   36.7260   26.6970   43.2140 N   0  0  0  0  0  0  0  0  0  0  0  0
   37.1240   25.8300   42.2490 C   0  0  0  0  0  0  0  0  0  0  0  0
   37.4370   24.4820   42.2270 C   0  0  0  0  0  0  0  0  0  0  0  0
   37.8260   23.8530   41.0600 C   0  0  0  0  0  0  0  0  0  0  0  0
   37.8920   24.6220   39.9030 C   0  0  0  0  0  0  0  0  0  0  0  0
   37.5840   25.9540   39.9210 C   0  0  0  0  0  0  0  0  0  0  0  0
   37.1960   26.5830   41.0870 C   0  0  0  0  0  0  0  0  0  0  0  0
   37.9070   32.5290   40.0720 C   0  0  1  0  0  0  0  0  0  0  0  0
   39.0620   32.5620   41.0260 C   0  0  0  0  0  0  0  0  0  0  0  0
   39.2860   32.8190   39.5770 C   0  0  1  0  0  0  0  0  0  0  0  0
   40.1040   31.8160   38.9220 N   0  0  0  0  0  0  0  0  0  0  0  0
   40.3100   32.1970   37.5150 C   0  0  0  0  0  0  0  0  0  0  0  0
   41.7540   32.0710   37.1430 C   0  0  0  0  0  0  0  0  0  0  0  0
   42.1710   30.7790   37.4720 O   0  0  0  0  0  0  0  0  0  0  0  0
   42.2690   30.6720   38.8590 C   0  0  0  0  0  0  0  0  0  0  0  0
   41.4040   31.7010   39.5580 C   0  0  0  0  0  0  0  0  0  0  0  0
   35.5851   29.7156   37.2985 H   0  0  0  0  0  0  0  0  0  0  0  0
   35.6794   27.8200   38.9379 H   0  0  0  0  0  0  0  0  0  0  0  0
   36.2303   28.8172   43.2619 H   0  0  0  0  0  0  0  0  0  0  0  0
   36.5778   26.4474   44.2022 H   0  0  0  0  0  0  0  0  0  0  0  0
   37.3748   23.8994   43.1579 H   0  0  0  0  0  0  0  0  0  0  0  0
   38.0748   22.7816   41.0464 H   0  0  0  0  0  0  0  0  0  0  0  0
   38.1972   24.1505   38.9572 H   0  0  0  0  0  0  0  0  0  0  0  0
   37.6465   26.5352   38.9892 H   0  0  0  0  0  0  0  0  0  0  0  0
   36.9324   33.0356   40.0123 H   0  0  0  0  0  0  0  0  0  0  0  0
   39.1532   33.3843   41.7510 H   0  0  0  0  0  0  0  0  0  0  0  0
   39.4800   31.8634   41.7658 H   0  0  0  0  0  0  0  0  0  0  0  0
   39.6723   33.6208   38.9305 H   0  0  0  0  0  0  0  0  0  0  0  0
   39.7113   31.5370   36.8700 H   0  0  0  0  0  0  0  0  0  0  0  0
   39.9985   33.2434   37.3809 H   0  0  0  0  0  0  0  0  0  0  0  0
   42.3493   32.8092   37.7004 H   0  0  0  0  0  0  0  0  0  0  0  0
   41.8900   32.2552   36.0671 H   0  0  0  0  0  0  0  0  0  0  0  0
   41.9446   29.6661   39.1637 H   0  0  0  0  0  0  0  0  0  0  0  0
   43.3161   30.8494   39.1456 H   0  0  0  0  0  0  0  0  0  0  0  0
   41.9086   32.6778   39.5215 H   0  0  0  0  0  0  0  0  0  0  0  0
   41.2542   31.3794   40.5992 H   0  0  0  0  0  0  0  0  0  0  0  0
  1  6  2  0
  1  2  1  0
  2  3  2  0
  3  4  1  0
  3  7  1  0
  5 16  1  0
  5  4  2  0
  6  5  1  0
  7  8  2  0
  8  9  1  0
 10  9  1  0
 11 10  2  0
 12 11  1  0
 13 14  1  0
 13 12  2  0
 14 15  2  0
 15  7  1  0
 15 10  1  0
 16 17  1  0
 18 16  1  0
 18 17  1  0
 19 24  1  0
 19 18  1  0
 20 19  1  0
 21 22  1  0
 21 20  1  0
 22 23  1  0
 23 24  1  0
  1 25  1  0
  2 26  1  0
  8 27  1  0
  9 28  1  0
 11 29  1  0
 12 30  1  0
 13 31  1  0
 14 32  1  0
 16 33  1  1
 17 34  1  0
 17 35  1  0
 18 36  1  1
 20 37  1  0
 20 38  1  0
 21 39  1  0
 21 40  1  0
 23 41  1  0
 23 42  1  0
 24 43  1  0
 24 44  1  0
M  ISO  8  25  14  26  14  27  14  28   9  29  14  30  14  31  14  32  14
M  ISO  8  33  13  34  13  35  13  36  13  37  13  38  13  39  13  40  13
M  ISO  4  41  13  42  13  43  13  44  13
M  END
>  <minimizedAffinity>  (1) 
-5.55523109

>  <minimizedRMSD>  (1) 
3.1458528

$$$$
