
     RDKit          3D

 36 38  0  0  1  0  0  0  0  0999 V2000
   38.7620   27.1360   43.1960 C   0  0  2  0  0  0  0  0  0  0  0  0
   40.1610   27.4350   43.5160 C   0  0  0  0  0  0  0  0  0  0  0  0
   40.6780   26.0630   43.9630 C   0  0  0  0  0  0  0  0  0  0  0  0
   39.7950   25.0420   43.3080 C   0  0  0  0  0  0  0  0  0  0  0  0
   38.8440   25.8210   42.4510 C   0  0  2  0  0  0  0  0  0  0  0  0
   36.6200   27.8280   42.1320 C   0  0  0  0  0  0  0  0  0  0  0  0
   37.9680   28.0990   42.4740 C   0  0  0  0  0  0  0  0  0  0  0  0
   38.5010   29.3270   42.0730 C   0  0  0  0  0  0  0  0  0  0  0  0
   37.6990   30.1670   41.3900 N   0  0  0  0  0  0  0  0  0  0  0  0
   36.4130   29.8940   41.0710 C   0  0  0  0  0  0  0  0  0  0  0  0
   35.8760   28.6940   41.4570 N   0  0  0  0  0  0  0  0  0  0  0  0
   39.0790   25.8740   41.0770 N   0  0  0  0  0  0  0  0  0  0  0  0
   40.3990   25.7970   40.5780 C   0  0  0  0  0  0  0  0  0  0  0  0
   40.3190   25.3690   39.1030 C   0  0  0  0  0  0  0  0  0  0  0  0
   40.0030   24.0200   39.1350 O   0  0  0  0  0  0  0  0  0  0  0  0
   38.7510   23.8650   39.6740 C   0  0  0  0  0  0  0  0  0  0  0  0
   38.1670   25.0740   40.3270 C   0  0  0  0  0  0  0  0  0  0  0  0
   38.2023   27.1323   44.1430 H   0  0  0  0  0  0  0  0  0  0  0  0
   40.7052   27.8001   42.6325 H   0  0  0  0  0  0  0  0  0  0  0  0
   40.2873   28.2267   44.2692 H   0  0  0  0  0  0  0  0  0  0  0  0
   41.7209   25.9263   43.6410 H   0  0  0  0  0  0  0  0  0  0  0  0
   40.6541   25.9660   45.0585 H   0  0  0  0  0  0  0  0  0  0  0  0
   40.3938   24.3559   42.6910 H   0  0  0  0  0  0  0  0  0  0  0  0
   39.2640   24.4276   44.0499 H   0  0  0  0  0  0  0  0  0  0  0  0
   37.8710   25.3183   42.3482 H   0  0  0  0  0  0  0  0  0  0  0  0
   36.1762   26.8685   42.4361 H   0  0  0  0  0  0  0  0  0  0  0  0
   39.5408   29.5988   42.3072 H   0  0  0  0  0  0  0  0  0  0  0  0
   35.8087   30.6230   40.5112 H   0  0  0  0  0  0  0  0  0  0  0  0
   40.8868   26.7798   40.6567 H   0  0  0  0  0  0  0  0  0  0  0  0
   40.9875   25.0707   41.1578 H   0  0  0  0  0  0  0  0  0  0  0  0
   41.2854   25.5275   38.6020 H   0  0  0  0  0  0  0  0  0  0  0  0
   39.5735   25.9537   38.5441 H   0  0  0  0  0  0  0  0  0  0  0  0
   38.0717   23.5577   38.8652 H   0  0  0  0  0  0  0  0  0  0  0  0
   38.8624   23.1191   40.4748 H   0  0  0  0  0  0  0  0  0  0  0  0
   37.7317   25.7064   39.5392 H   0  0  0  0  0  0  0  0  0  0  0  0
   37.4322   24.6966   41.0534 H   0  0  0  0  0  0  0  0  0  0  0  0
  1  2  1  0
  2  3  1  0
  4  3  1  0
  5  1  1  0
  5  4  1  0
  6  7  2  0
  7  1  1  0
  8  7  1  0
  9  8  2  0
 10  9  1  0
 10 11  2  0
 11  6  1  0
 12  5  1  0
 13 12  1  0
 14 15  1  0
 14 13  1  0
 15 16  1  0
 16 17  1  0
 17 12  1  0
  1 18  1  1
  2 19  1  0
  2 20  1  0
  3 21  1  0
  3 22  1  0
  4 23  1  0
  4 24  1  0
  5 25  1  6
  6 26  1  0
  8 27  1  0
 10 28  1  0
 13 29  1  0
 13 30  1  0
 14 31  1  0
 14 32  1  0
 16 33  1  0
 16 34  1  0
 17 35  1  0
 17 36  1  0
M  ISO  8  18  13  19  13  20  13  21  13  22  13  23  13  24  13  25  13
M  ISO  8  26  14  27  14  28  14  29  13  30  13  31  13  32  13  33  13
M  ISO  3  34  13  35  13  36  13
M  END
>  <minimizedAffinity>  (1) 
-4.22277212

>  <minimizedRMSD>  (1) 
1.71669114

$$$$
