
     RDKit          3D

 36 38  0  0  0  0  0  0  0  0999 V2000
   39.0550   27.3990   42.8140 C   0  0  0  0  0  0  0  0  0  0  0  0
   38.3230   26.2480   42.7930 C   0  0  0  0  0  0  0  0  0  0  0  0
   37.1060   26.5390   42.2450 C   0  0  0  0  0  0  0  0  0  0  0  0
   37.1510   27.8700   41.9520 N   0  0  0  0  0  0  0  0  0  0  0  0
   38.2930   28.3520   42.2910 N   0  0  0  0  0  0  0  0  0  0  0  0
   42.2470   26.8350   44.6780 C   0  0  0  0  0  0  0  0  0  0  0  0
   40.9430   26.6310   44.2160 C   0  0  0  0  0  0  0  0  0  0  0  0
   40.4000   27.5590   43.3160 C   0  0  0  0  0  0  0  0  0  0  0  0
   41.1500   28.6190   42.9210 N   0  0  0  0  0  0  0  0  0  0  0  0
   42.4140   28.7720   43.4000 C   0  0  0  0  0  0  0  0  0  0  0  0
   42.9530   27.8900   44.2670 N   0  0  0  0  0  0  0  0  0  0  0  0
   36.0200   28.5590   41.3570 C   0  0  0  0  0  0  0  0  0  0  0  0
   36.1090   28.6500   39.8870 C   0  0  0  0  0  0  0  0  0  0  0  0
   36.1270   29.8790   39.2490 N   0  0  0  0  0  0  0  0  0  0  0  0
   36.2690   30.0110   37.8610 C   0  0  0  0  0  0  0  0  0  0  0  0
   37.5720   30.7170   37.4560 C   0  0  0  0  0  0  0  0  0  0  0  0
   37.4360   32.0000   37.9920 O   0  0  0  0  0  0  0  0  0  0  0  0
   37.5880   31.8700   39.3730 C   0  0  0  0  0  0  0  0  0  0  0  0
   36.4680   31.0370   39.9790 C   0  0  0  0  0  0  0  0  0  0  0  0
   38.6535   25.2624   43.1528 H   0  0  0  0  0  0  0  0  0  0  0  0
   36.2679   25.8468   42.0760 H   0  0  0  0  0  0  0  0  0  0  0  0
   42.6939   26.1207   45.3852 H   0  0  0  0  0  0  0  0  0  0  0  0
   40.3568   25.7626   44.5509 H   0  0  0  0  0  0  0  0  0  0  0  0
   43.0111   29.6358   43.0725 H   0  0  0  0  0  0  0  0  0  0  0  0
   35.1006   28.0152   41.6196 H   0  0  0  0  0  0  0  0  0  0  0  0
   36.0161   29.5861   41.7507 H   0  0  0  0  0  0  0  0  0  0  0  0
   37.0358   28.1333   39.5971 H   0  0  0  0  0  0  0  0  0  0  0  0
   35.1507   28.2209   39.5592 H   0  0  0  0  0  0  0  0  0  0  0  0
   36.2593   29.0075   37.4105 H   0  0  0  0  0  0  0  0  0  0  0  0
   35.4337   30.6301   37.5019 H   0  0  0  0  0  0  0  0  0  0  0  0
   38.4454   30.2037   37.8846 H   0  0  0  0  0  0  0  0  0  0  0  0
   37.7310   30.7252   36.3676 H   0  0  0  0  0  0  0  0  0  0  0  0
   38.5510   31.3814   39.5826 H   0  0  0  0  0  0  0  0  0  0  0  0
   37.5539   32.8741   39.8210 H   0  0  0  0  0  0  0  0  0  0  0  0
   35.5720   31.6709   40.0523 H   0  0  0  0  0  0  0  0  0  0  0  0
   36.8362   30.6888   40.9553 H   0  0  0  0  0  0  0  0  0  0  0  0
  1  8  1  0
  2  1  1  0
  3  2  2  0
  4  3  1  0
  4  5  1  0
  5  1  2  0
  7  6  2  0
  8  7  1  0
  9  8  2  0
  9 10  1  0
 10 11  2  0
 11  6  1  0
 12  4  1  0
 13 12  1  0
 14 13  1  0
 14 19  1  0
 15 14  1  0
 16 15  1  0
 16 17  1  0
 17 18  1  0
 18 19  1  0
  2 20  1  0
  3 21  1  0
  6 22  1  0
  7 23  1  0
 10 24  1  0
 12 25  1  0
 12 26  1  0
 13 27  1  0
 13 28  1  0
 15 29  1  0
 15 30  1  0
 16 31  1  0
 16 32  1  0
 18 33  1  0
 18 34  1  0
 19 35  1  0
 19 36  1  0
M  ISO  8  20  14  21  14  22  14  23  14  24  14  25   8  26   8  27   8
M  ISO  8  28   8  29  13  30  13  31  13  32  13  33  13  34  13  35  13
M  ISO  1  36  13
M  END
>  <minimizedAffinity>  (1) 
-4.19634247

>  <minimizedRMSD>  (1) 
2.47600937

$$$$
