
     RDKit          3D

 53 57  0  0  1  0  0  0  0  0999 V2000
   38.8920   35.6160   40.1340 C   0  0  0  0  0  0  0  0  0  0  0  0
   40.2250   36.0260   40.3110 C   0  0  0  0  0  0  0  0  0  0  0  0
   41.1570   35.0070   40.6030 C   0  0  0  0  0  0  0  0  0  0  0  0
   40.6780   33.7800   40.6770 N   0  0  0  0  0  0  0  0  0  0  0  0
   39.4470   33.3540   40.5190 C   0  0  0  0  0  0  0  0  0  0  0  0
   38.5800   34.3270   40.2460 N   0  0  0  0  0  0  0  0  0  0  0  0
   38.8150   32.0480   40.5810 C   0  0  0  0  0  0  0  0  0  0  0  0
   38.7420   31.3060   41.7070 N   0  0  0  0  0  0  0  0  0  0  0  0
   38.1760   30.1170   41.8010 C   0  0  0  0  0  0  0  0  0  0  0  0
   37.6180   29.5440   40.7500 N   0  0  0  0  0  0  0  0  0  0  0  0
   37.6240   30.1840   39.5540 C   0  0  0  0  0  0  0  0  0  0  0  0
   37.0430   29.5940   38.4480 C   0  0  0  0  0  0  0  0  0  0  0  0
   37.0350   30.2150   37.2420 C   0  0  0  0  0  0  0  0  0  0  0  0
   37.6420   31.4930   37.1380 C   0  0  0  0  0  0  0  0  0  0  0  0
   38.2000   32.0160   38.2820 C   0  0  0  0  0  0  0  0  0  0  0  0
   38.2250   31.4230   39.5030 C   0  0  0  0  0  0  0  0  0  0  0  0
   42.4310   35.2890   40.7900 O   0  0  0  0  0  0  0  0  0  0  0  0
   43.1370   35.1310   42.0070 C   0  0  2  0  0  0  0  0  0  0  0  0
   42.8450   36.4660   42.7960 C   0  0  0  0  0  0  0  0  0  0  0  0
   44.6020   35.0130   41.8000 C   0  0  0  0  0  0  0  0  0  0  0  0
   45.1540   34.3460   42.9720 N   0  0  0  0  0  0  0  0  0  0  0  0
   46.3470   34.6470   43.5480 C   0  0  0  0  0  0  0  0  0  0  0  0
   46.5610   33.8450   44.6150 N   0  0  0  0  0  0  0  0  0  0  0  0
   45.4680   33.0350   44.6890 C   0  0  0  0  0  0  0  0  0  0  0  0
   44.6280   33.3580   43.6820 N   0  0  0  0  0  0  0  0  0  0  0  0
   45.0650   31.9740   45.5770 N   0  0  0  0  0  0  0  0  0  0  0  0
   45.6260   31.6510   46.8740 C   0  0  0  0  0  0  0  0  0  0  0  0
   44.5880   30.8110   47.5800 C   0  0  0  0  0  0  0  0  0  0  0  0
   44.5980   29.5800   46.9080 O   0  0  0  0  0  0  0  0  0  0  0  0
   44.1390   29.6980   45.6020 C   0  0  0  0  0  0  0  0  0  0  0  0
   43.9970   31.1300   45.1570 C   0  0  0  0  0  0  0  0  0  0  0  0
   38.1114   36.3562   39.9043 H   0  0  0  0  0  0  0  0  0  0  0  0
   40.5247   37.0810   40.2267 H   0  0  0  0  0  0  0  0  0  0  0  0
   38.1690   29.5956   42.7695 H   0  0  0  0  0  0  0  0  0  0  0  0
   36.5782   28.6020   38.5473 H   0  0  0  0  0  0  0  0  0  0  0  0
   36.5693   29.7393   36.3663 H   0  0  0  0  0  0  0  0  0  0  0  0
   37.6656   32.0417   36.1849 H   0  0  0  0  0  0  0  0  0  0  0  0
   38.6697   33.0072   38.1994 H   0  0  0  0  0  0  0  0  0  0  0  0
   42.8206   34.2151   42.5275 H   0  0  0  0  0  0  0  0  0  0  0  0
   42.8880   36.2696   43.8775 H   0  0  0  0  0  0  0  0  0  0  0  0
   43.5992   37.2214   42.5303 H   0  0  0  0  0  0  0  0  0  0  0  0
   41.8443   36.8376   42.5303 H   0  0  0  0  0  0  0  0  0  0  0  0
   44.8078   34.4190   40.8973 H   0  0  0  0  0  0  0  0  0  0  0  0
   45.0572   36.0055   41.6669 H   0  0  0  0  0  0  0  0  0  0  0  0
   47.0374   35.4284   43.1977 H   0  0  0  0  0  0  0  0  0  0  0  0
   46.5607   31.0833   46.7553 H   0  0  0  0  0  0  0  0  0  0  0  0
   45.8661   32.5592   47.4463 H   0  0  0  0  0  0  0  0  0  0  0  0
   44.8550   30.6757   48.6385 H   0  0  0  0  0  0  0  0  0  0  0  0
   43.5943   31.2825   47.5633 H   0  0  0  0  0  0  0  0  0  0  0  0
   44.8503   29.1916   44.9330 H   0  0  0  0  0  0  0  0  0  0  0  0
   43.1401   29.2393   45.5608 H   0  0  0  0  0  0  0  0  0  0  0  0
   43.0581   31.5290   45.5684 H   0  0  0  0  0  0  0  0  0  0  0  0
   44.0079   31.1249   44.0571 H   0  0  0  0  0  0  0  0  0  0  0  0
  1  6  2  0
  1  2  1  0
  2  3  2  0
  3  4  1  0
  3 17  1  0
  5  7  1  0
  5  4  2  0
  6  5  1  0
  7  8  2  0
  8  9  1  0
 10  9  2  0
 11 10  1  0
 12 11  2  0
 13 12  1  0
 14 13  2  0
 14 15  1  0
 15 16  2  0
 16 11  1  0
 16  7  1  0
 17 18  1  0
 18 19  1  0
 20 18  1  0
 20 21  1  0
 21 22  1  0
 21 25  1  0
 22 23  2  0
 23 24  1  0
 24 26  1  0
 25 24  2  0
 26 27  1  0
 27 28  1  0
 29 28  1  0
 30 29  1  0
 31 26  1  0
 31 30  1  0
  1 32  1  0
  2 33  1  0
  9 34  1  0
 12 35  1  0
 13 36  1  0
 14 37  1  0
 15 38  1  0
 18 39  1  1
 19 40  1  0
 19 41  1  0
 19 42  1  0
 20 43  1  0
 20 44  1  0
 22 45  1  0
 27 46  1  0
 27 47  1  0
 28 48  1  0
 28 49  1  0
 30 50  1  0
 30 51  1  0
 31 52  1  0
 31 53  1  0
M  END
>  <minimizedAffinity>  (1) 
-7.03743029

>  <minimizedRMSD>  (1) 
0.268577456

$$$$
