
     RDKit          3D

 43 46  0  0  0  0  0  0  0  0999 V2000
   37.0780   31.4100   40.5560 C   0  0  0  0  0  0  0  0  0  0  0  0
   36.8290   31.8050   39.2580 N   0  0  0  0  0  0  0  0  0  0  0  0
   37.7960   32.6100   38.8880 O   0  0  0  0  0  0  0  0  0  0  0  0
   38.6330   32.7290   39.9040 C   0  0  0  0  0  0  0  0  0  0  0  0
   38.2190   32.0090   40.9330 N   0  0  0  0  0  0  0  0  0  0  0  0
   39.8340   33.5520   39.8540 C   0  0  0  0  0  0  0  0  0  0  0  0
   39.8910   34.9370   40.0040 C   0  0  0  0  0  0  0  0  0  0  0  0
   41.2000   35.3430   39.8930 C   0  0  0  0  0  0  0  0  0  0  0  0
   41.9020   34.1690   39.6780 C   0  0  0  0  0  0  0  0  0  0  0  0
   41.0750   33.1720   39.6630 O   0  0  0  0  0  0  0  0  0  0  0  0
   43.3060   34.1310   39.5050 N   0  0  0  0  0  0  0  0  0  0  0  0
   44.1230   34.0550   38.3430 C   0  0  0  0  0  0  0  0  0  0  0  0
   45.4160   33.3120   38.5640 C   0  0  0  0  0  0  0  0  0  0  0  0
   46.0000   33.5650   39.7910 O   0  0  0  0  0  0  0  0  0  0  0  0
   45.4190   34.5760   40.5110 C   0  0  0  0  0  0  0  0  0  0  0  0
   43.9780   34.1810   40.7960 C   0  0  0  0  0  0  0  0  0  0  0  0
   36.3400   30.5620   41.3850 O   0  0  0  0  0  0  0  0  0  0  0  0
   38.2110   28.1760   43.3850 C   0  0  0  0  0  0  0  0  0  0  0  0
   37.9410   27.0080   42.6100 C   0  0  0  0  0  0  0  0  0  0  0  0
   37.1510   27.1460   41.4870 C   0  0  0  0  0  0  0  0  0  0  0  0
   36.6800   28.3710   41.1850 N   0  0  0  0  0  0  0  0  0  0  0  0
   36.9360   29.4540   41.9110 C   0  0  0  0  0  0  0  0  0  0  0  0
   37.7100   29.3650   43.0260 N   0  0  0  0  0  0  0  0  0  0  0  0
   36.9490   25.8910   40.7910 C   0  0  0  0  0  0  0  0  0  0  0  0
   36.9560   24.6720   41.6120 C   0  0  0  0  0  0  0  0  0  0  0  0
   37.9300   23.3330   40.8380 S   0  0  0  0  0  0  0  0  0  0  0  0
   39.0293   35.5972   40.1821 H   0  0  0  0  0  0  0  0  0  0  0  0
   41.5983   36.3662   39.9597 H   0  0  0  0  0  0  0  0  0  0  0  0
   44.3609   35.0784   38.0172 H   0  0  0  0  0  0  0  0  0  0  0  0
   43.5549   33.4968   37.5842 H   0  0  0  0  0  0  0  0  0  0  0  0
   45.2133   32.2333   38.4918 H   0  0  0  0  0  0  0  0  0  0  0  0
   46.1215   33.6591   37.7947 H   0  0  0  0  0  0  0  0  0  0  0  0
   45.9610   34.7197   41.4574 H   0  0  0  0  0  0  0  0  0  0  0  0
   45.4523   35.5177   39.9435 H   0  0  0  0  0  0  0  0  0  0  0  0
   43.4995   34.9283   41.4460 H   0  0  0  0  0  0  0  0  0  0  0  0
   43.9235   33.2118   41.3134 H   0  0  0  0  0  0  0  0  0  0  0  0
   38.8369   28.0987   44.2862 H   0  0  0  0  0  0  0  0  0  0  0  0
   38.3499   26.0286   42.8989 H   0  0  0  0  0  0  0  0  0  0  0  0
   35.9750   25.9448   40.2827 H   0  0  0  0  0  0  0  0  0  0  0  0
   37.8136   25.7913   40.1183 H   0  0  0  0  0  0  0  0  0  0  0  0
   37.3927   24.9073   42.5938 H   0  0  0  0  0  0  0  0  0  0  0  0
   35.9176   24.3233   41.7125 H   0  0  0  0  0  0  0  0  0  0  0  0
   38.4951   22.5561   41.8147 H   0  0  0  0  0  0  0  0  0  0  0  0
  1  5  1  0
  1 17  1  0
  2  1  2  0
  3  2  1  0
  3  4  1  0
  4  5  2  0
  6  4  1  0
  6  7  2  0
  8  7  1  0
  9  8  2  0
 10  9  1  0
 10  6  1  0
 11  9  1  0
 11 16  1  0
 12 13  1  0
 12 11  1  0
 13 14  1  0
 14 15  1  0
 15 16  1  0
 17 22  1  0
 19 18  2  0
 20 19  1  0
 21 20  2  0
 21 22  1  0
 22 23  2  0
 23 18  1  0
 24 20  1  0
 24 25  1  0
 26 25  1  0
  7 27  1  0
  8 28  1  0
 12 29  1  0
 12 30  1  0
 13 31  1  0
 13 32  1  0
 15 33  1  0
 15 34  1  0
 16 35  1  0
 16 36  1  0
 18 37  1  0
 19 38  1  0
 24 39  1  0
 24 40  1  0
 25 41  1  0
 25 42  1  0
 26 43  1  0
M  ISO  8  27  14  28  14  29  13  30  13  31  13  32  13  33  13  34  13
M  ISO  8  35  13  36  13  37  14  38  14  39   8  40   8  41   8  42   8
M  ISO  1  43  11
M  END
>  <minimizedAffinity>  (1) 
-5.65289497

>  <minimizedRMSD>  (1) 
1.16092205

$$$$
