
     RDKit          3D

 43 46  0  0  0  0  0  0  0  0999 V2000
   37.6280   28.1950   41.4300 C   0  0  0  0  0  0  0  0  0  0  0  0
   36.3690   27.9550   40.8630 C   0  0  0  0  0  0  0  0  0  0  0  0
   35.9400   29.1300   40.3680 N   0  0  0  0  0  0  0  0  0  0  0  0
   36.8280   30.1060   40.5750 C   0  0  0  0  0  0  0  0  0  0  0  0
   36.7490   31.4330   40.2190 C   0  0  0  0  0  0  0  0  0  0  0  0
   37.8290   32.2460   40.5590 C   0  0  0  0  0  0  0  0  0  0  0  0
   38.9280   31.7180   41.2310 C   0  0  0  0  0  0  0  0  0  0  0  0
   38.9930   30.3800   41.5840 C   0  0  0  0  0  0  0  0  0  0  0  0
   37.9180   29.5580   41.2470 C   0  0  0  0  0  0  0  0  0  0  0  0
   39.6410   26.6070   44.0430 C   0  0  0  0  0  0  0  0  0  0  0  0
   40.1290   25.4390   43.3910 C   0  0  0  0  0  0  0  0  0  0  0  0
   39.7530   25.2220   42.0570 C   0  0  0  0  0  0  0  0  0  0  0  0
   38.9480   26.1320   41.4670 N   0  0  0  0  0  0  0  0  0  0  0  0
   38.4980   27.2240   42.0940 C   0  0  0  0  0  0  0  0  0  0  0  0
   38.8470   27.4540   43.3750 N   0  0  0  0  0  0  0  0  0  0  0  0
   34.6560   29.1830   39.7190 C   0  0  0  0  0  0  0  0  0  0  0  0
   34.7340   29.0460   38.2260 C   0  0  0  0  0  0  0  0  0  0  0  0
   33.7500   28.1540   37.6560 N   0  0  0  0  0  0  0  0  0  0  0  0
   33.1230   28.9160   36.5660 C   0  0  0  0  0  0  0  0  0  0  0  0
   34.0750   29.0960   35.4040 C   0  0  0  0  0  0  0  0  0  0  0  0
   34.8090   27.9450   35.1440 O   0  0  0  0  0  0  0  0  0  0  0  0
   34.1010   26.8490   35.6870 C   0  0  0  0  0  0  0  0  0  0  0  0
   34.3080   26.9200   37.1850 C   0  0  0  0  0  0  0  0  0  0  0  0
   35.8357   26.9935   40.8293 H   0  0  0  0  0  0  0  0  0  0  0  0
   35.8723   31.8344   39.6895 H   0  0  0  0  0  0  0  0  0  0  0  0
   37.8128   33.3135   40.2942 H   0  0  0  0  0  0  0  0  0  0  0  0
   39.7671   32.3810   41.4885 H   0  0  0  0  0  0  0  0  0  0  0  0
   39.8680   29.9772   42.1152 H   0  0  0  0  0  0  0  0  0  0  0  0
   39.9143   26.8124   45.0885 H   0  0  0  0  0  0  0  0  0  0  0  0
   40.7818   24.7276   43.9180 H   0  0  0  0  0  0  0  0  0  0  0  0
   40.1037   24.3361   41.5073 H   0  0  0  0  0  0  0  0  0  0  0  0
   34.0333   28.3656   40.1117 H   0  0  0  0  0  0  0  0  0  0  0  0
   34.2266   30.1732   39.9312 H   0  0  0  0  0  0  0  0  0  0  0  0
   34.5937   30.0423   37.7813 H   0  0  0  0  0  0  0  0  0  0  0  0
   35.7192   28.6111   38.0017 H   0  0  0  0  0  0  0  0  0  0  0  0
   32.2305   28.3754   36.2178 H   0  0  0  0  0  0  0  0  0  0  0  0
   32.8502   29.9104   36.9492 H   0  0  0  0  0  0  0  0  0  0  0  0
   33.4939   29.3559   34.5069 H   0  0  0  0  0  0  0  0  0  0  0  0
   34.7828   29.8956   35.6679 H   0  0  0  0  0  0  0  0  0  0  0  0
   33.0309   26.9274   35.4448 H   0  0  0  0  0  0  0  0  0  0  0  0
   34.4592   25.8939   35.2754 H   0  0  0  0  0  0  0  0  0  0  0  0
   33.8023   26.0729   37.6714 H   0  0  0  0  0  0  0  0  0  0  0  0
   35.3809   26.8725   37.4232 H   0  0  0  0  0  0  0  0  0  0  0  0
  1 14  1  0
  2  1  2  0
  3  4  1  0
  3  2  1  0
  4  9  2  0
  5  6  2  0
  5  4  1  0
  6  7  1  0
  7  8  2  0
  9  1  1  0
  9  8  1  0
 11 10  2  0
 12 11  1  0
 13 12  2  0
 13 14  1  0
 14 15  2  0
 15 10  1  0
 16  3  1  0
 17 16  1  0
 18 17  1  0
 19 18  1  0
 20 19  1  0
 21 20  1  0
 21 22  1  0
 22 23  1  0
 23 18  1  0
  2 24  1  0
  5 25  1  0
  6 26  1  0
  7 27  1  0
  8 28  1  0
 10 29  1  0
 11 30  1  0
 12 31  1  0
 16 32  1  0
 16 33  1  0
 17 34  1  0
 17 35  1  0
 19 36  1  0
 19 37  1  0
 20 38  1  0
 20 39  1  0
 22 40  1  0
 22 41  1  0
 23 42  1  0
 23 43  1  0
M  ISO  8  24  14  25  14  26  14  27  14  28  14  29  14  30  14  31  14
M  ISO  8  32   8  33   8  34   8  35   8  36  13  37  13  38  13  39  13
M  ISO  4  40  13  41  13  42  13  43  13
M  END
>  <minimizedAffinity>  (1) 
-4.76425982

>  <minimizedRMSD>  (1) 
0.666477203

$$$$
