
     RDKit          3D

 48 52  0  0  0  0  0  0  0  0999 V2000
   39.7310   32.4540   40.9370 C   0  0  0  0  0  0  0  0  0  0  0  0
   40.8470   31.8850   41.5980 C   0  0  0  0  0  0  0  0  0  0  0  0
   40.8630   30.5990   42.1110 C   0  0  0  0  0  0  0  0  0  0  0  0
   39.7220   29.8190   41.9720 C   0  0  0  0  0  0  0  0  0  0  0  0
   38.6230   30.3230   41.3440 C   0  0  0  0  0  0  0  0  0  0  0  0
   37.5400   29.5230   41.2320 C   0  0  0  0  0  0  0  0  0  0  0  0
   36.3650   29.9860   40.5840 C   0  0  0  0  0  0  0  0  0  0  0  0
   36.4270   31.3020   40.0890 C   0  0  0  0  0  0  0  0  0  0  0  0
   37.5580   32.0470   40.2420 C   0  0  0  0  0  0  0  0  0  0  0  0
   38.6870   31.5940   40.8670 C   0  0  0  0  0  0  0  0  0  0  0  0
   37.3350   28.1690   41.6910 C   0  0  0  0  0  0  0  0  0  0  0  0
   36.7990   27.7390   42.8880 C   0  0  0  0  0  0  0  0  0  0  0  0
   36.6100   26.4280   43.2370 C   0  0  0  0  0  0  0  0  0  0  0  0
   36.9590   25.4180   42.3730 C   0  0  0  0  0  0  0  0  0  0  0  0
   37.4880   25.8600   41.1960 C   0  0  0  0  0  0  0  0  0  0  0  0
   37.6690   27.1570   40.8660 N   0  0  0  0  0  0  0  0  0  0  0  0
   37.8940   24.9130   40.2100 N   0  0  0  0  0  0  0  0  0  0  0  0
   38.9020   23.8840   40.3630 C   0  0  0  0  0  0  0  0  0  0  0  0
   38.1140   22.5780   40.5220 C   0  0  0  0  0  0  0  0  0  0  0  0
   37.0510   22.5600   39.6220 O   0  0  0  0  0  0  0  0  0  0  0  0
   37.2490   23.3720   38.5250 C   0  0  0  0  0  0  0  0  0  0  0  0
   37.3280   24.8530   38.8770 C   0  0  0  0  0  0  0  0  0  0  0  0
   39.9050   33.7910   40.4870 C   0  0  0  0  0  0  0  0  0  0  0  0
   39.0900   34.9310   40.6960 C   0  0  0  0  0  0  0  0  0  0  0  0
   39.4380   36.1830   40.1850 C   0  0  0  0  0  0  0  0  0  0  0  0
   40.6010   36.2490   39.4780 N   0  0  0  0  0  0  0  0  0  0  0  0
   41.3670   35.1950   39.2780 C   0  0  0  0  0  0  0  0  0  0  0  0
   41.0290   34.0000   39.7690 N   0  0  0  0  0  0  0  0  0  0  0  0
   41.7524   32.4996   41.7102 H   0  0  0  0  0  0  0  0  0  0  0  0
   41.7571   30.2048   42.6161 H   0  0  0  0  0  0  0  0  0  0  0  0
   39.7058   28.7934   42.3694 H   0  0  0  0  0  0  0  0  0  0  0  0
   35.4675   29.3592   40.4761 H   0  0  0  0  0  0  0  0  0  0  0  0
   35.5555   31.7328   39.5744 H   0  0  0  0  0  0  0  0  0  0  0  0
   37.5630   33.0709   39.8399 H   0  0  0  0  0  0  0  0  0  0  0  0
   36.5011   28.5072   43.6168 H   0  0  0  0  0  0  0  0  0  0  0  0
   36.1753   26.1816   44.2170 H   0  0  0  0  0  0  0  0  0  0  0  0
   36.8243   24.3520   42.6087 H   0  0  0  0  0  0  0  0  0  0  0  0
   39.5480   23.8401   39.4737 H   0  0  0  0  0  0  0  0  0  0  0  0
   39.5618   24.0760   41.2220 H   0  0  0  0  0  0  0  0  0  0  0  0
   38.7774   21.7237   40.3218 H   0  0  0  0  0  0  0  0  0  0  0  0
   37.7243   22.5097   41.5484 H   0  0  0  0  0  0  0  0  0  0  0  0
   36.4132   23.2236   37.8254 H   0  0  0  0  0  0  0  0  0  0  0  0
   38.2157   23.0906   38.0818 H   0  0  0  0  0  0  0  0  0  0  0  0
   37.9749   25.3826   38.1621 H   0  0  0  0  0  0  0  0  0  0  0  0
   36.3387   25.3321   38.8355 H   0  0  0  0  0  0  0  0  0  0  0  0
   38.1604   34.8272   41.2749 H   0  0  0  0  0  0  0  0  0  0  0  0
   38.8065   37.0694   40.3448 H   0  0  0  0  0  0  0  0  0  0  0  0
   42.2964   35.3012   38.6993 H   0  0  0  0  0  0  0  0  0  0  0  0
  1  2  2  0
  2  3  1  0
  4  3  2  0
  5  4  1  0
  6  5  2  0
  6 11  1  0
  7  6  1  0
  8  9  1  0
  8  7  2  0
  9 10  2  0
 10  1  1  0
 10  5  1  0
 11 12  2  0
 12 13  1  0
 14 13  2  0
 15 14  1  0
 16 15  2  0
 16 11  1  0
 17 18  1  0
 17 15  1  0
 18 19  1  0
 20 19  1  0
 21 22  1  0
 21 20  1  0
 22 17  1  0
 23 24  2  0
 23  1  1  0
 25 24  1  0
 26 25  2  0
 27 26  1  0
 27 28  2  0
 28 23  1  0
  2 29  1  0
  3 30  1  0
  4 31  1  0
  7 32  1  0
  8 33  1  0
  9 34  1  0
 12 35  1  0
 13 36  1  0
 14 37  1  0
 18 38  1  0
 18 39  1  0
 19 40  1  0
 19 41  1  0
 21 42  1  0
 21 43  1  0
 22 44  1  0
 22 45  1  0
 24 46  1  0
 25 47  1  0
 27 48  1  0
M  END
>  <minimizedAffinity>  (1) 
-7.1179471

>  <minimizedRMSD>  (1) 
1.51120448

$$$$
