
     RDKit          3D

 37 38  0  0  0  0  0  0  0  0999 V2000
   37.9960   26.7520   42.7630 C   0  0  0  0  0  0  0  0  0  0  0  0
   37.4780   25.5080   42.3510 C   0  0  0  0  0  0  0  0  0  0  0  0
   36.9700   25.4210   41.0520 C   0  0  0  0  0  0  0  0  0  0  0  0
   37.0000   26.5220   40.2660 N   0  0  0  0  0  0  0  0  0  0  0  0
   37.4960   27.6930   40.6770 C   0  0  0  0  0  0  0  0  0  0  0  0
   37.9970   27.8150   41.9300 N   0  0  0  0  0  0  0  0  0  0  0  0
   36.4260   24.2470   40.5120 N   0  0  0  0  0  0  0  0  0  0  0  0
   37.5360   28.8650   39.8610 N   0  0  0  0  0  0  0  0  0  0  0  0
   37.0180   28.7380   38.6250 C   0  0  0  0  0  0  0  0  0  0  0  0
   36.9650   29.7560   37.6920 C   0  0  0  0  0  0  0  0  0  0  0  0
   37.4910   30.9780   38.0900 C   0  0  0  0  0  0  0  0  0  0  0  0
   37.4840   31.9520   37.3090 O   0  0  0  0  0  0  0  0  0  0  0  0
   38.0030   31.0820   39.3300 N   0  0  0  0  0  0  0  0  0  0  0  0
   38.0370   30.0670   40.2110 C   0  0  0  0  0  0  0  0  0  0  0  0
   38.5070   30.1420   41.3640 O   0  0  0  0  0  0  0  0  0  0  0  0
   36.3780   29.5450   36.3410 C   0  0  0  0  0  0  0  0  0  0  0  0
   38.5700   32.3080   39.8290 C   0  0  0  0  0  0  0  0  0  0  0  0
   39.0510   32.1570   41.2610 C   0  0  0  0  0  0  0  0  0  0  0  0
   39.7780   32.6230   38.9540 C   0  0  0  0  0  0  0  0  0  0  0  0
   37.6790   33.4900   39.7840 C   0  0  0  0  0  0  0  0  0  0  0  0
   38.4057   26.8589   43.7783 H   0  0  0  0  0  0  0  0  0  0  0  0
   37.4737   24.6392   43.0256 H   0  0  0  0  0  0  0  0  0  0  0  0
   36.0662   24.2426   39.5469 H   0  0  0  0  0  0  0  0  0  0  0  0
   36.3862   23.3890   41.0804 H   0  0  0  0  0  0  0  0  0  0  0  0
   36.6093   27.7578   38.3384 H   0  0  0  0  0  0  0  0  0  0  0  0
   35.3473   29.1745   36.4428 H   0  0  0  0  0  0  0  0  0  0  0  0
   36.3726   30.4975   35.7907 H   0  0  0  0  0  0  0  0  0  0  0  0
   36.9802   28.8071   35.7907 H   0  0  0  0  0  0  0  0  0  0  0  0
   38.2338   32.4135   41.9513 H   0  0  0  0  0  0  0  0  0  0  0  0
   39.3648   31.1171   41.4347 H   0  0  0  0  0  0  0  0  0  0  0  0
   39.9028   32.8309   41.4347 H   0  0  0  0  0  0  0  0  0  0  0  0
   40.6445   32.8490   39.5928 H   0  0  0  0  0  0  0  0  0  0  0  0
   40.0072   31.7546   38.3189 H   0  0  0  0  0  0  0  0  0  0  0  0
   39.5539   33.4927   38.3189 H   0  0  0  0  0  0  0  0  0  0  0  0
   37.4394   33.8078   40.8095 H   0  0  0  0  0  0  0  0  0  0  0  0
   38.1851   34.3107   39.2546 H   0  0  0  0  0  0  0  0  0  0  0  0
   36.7507   33.2294   39.2546 H   0  0  0  0  0  0  0  0  0  0  0  0
  2  1  2  0
  3  2  1  0
  4  5  1  0
  4  3  2  0
  5  6  2  0
  6  1  1  0
  7  3  1  0
  8 14  1  0
  8  5  1  0
  9  8  1  0
 10 11  1  0
 10  9  2  0
 11 13  1  0
 12 11  2  0
 13 17  1  0
 13 14  1  0
 14 15  2  0
 16 10  1  0
 17 18  1  0
 19 17  1  0
 20 17  1  0
  1 21  1  0
  2 22  1  0
  7 23  1  0
  7 24  1  0
  9 25  1  0
 16 26  1  0
 16 27  1  0
 16 28  1  0
 18 29  1  0
 18 30  1  0
 18 31  1  0
 19 32  1  0
 19 33  1  0
 19 34  1  0
 20 35  1  0
 20 36  1  0
 20 37  1  0
M  ISO  8  21  14  22  14  25  14  26   8  27   8  28   8  29   8  30   8
M  ISO  7  31   8  32   8  33   8  34   8  35   8  36   8  37   8
M  END
>  <minimizedAffinity>  (1) 
-4.95631075

>  <minimizedRMSD>  (1) 
1.52472889

$$$$
