
     RDKit          3D

 44 48  0  0  0  0  0  0  0  0999 V2000
   38.4080   33.6930   40.9490 N   0  0  0  0  0  0  0  0  0  0  0  0
   39.1690   34.5350   40.2800 N   0  0  0  0  0  0  0  0  0  0  0  0
   40.2090   33.8590   39.7500 C   0  0  0  0  0  0  0  0  0  0  0  0
   40.0040   32.5600   40.1540 C   0  0  0  0  0  0  0  0  0  0  0  0
   38.8430   32.4540   40.9260 C   0  0  0  0  0  0  0  0  0  0  0  0
   38.4510   31.1880   41.4620 C   0  0  0  0  0  0  0  0  0  0  0  0
   39.1870   30.6260   42.4460 N   0  0  0  0  0  0  0  0  0  0  0  0
   38.9410   29.4710   43.0380 C   0  0  0  0  0  0  0  0  0  0  0  0
   37.8910   28.7170   42.7020 N   0  0  0  0  0  0  0  0  0  0  0  0
   37.0770   29.1750   41.7250 C   0  0  0  0  0  0  0  0  0  0  0  0
   35.9910   28.4370   41.3480 C   0  0  0  0  0  0  0  0  0  0  0  0
   35.1290   28.8720   40.3470 C   0  0  0  0  0  0  0  0  0  0  0  0
   35.4410   30.0990   39.7560 C   0  0  0  0  0  0  0  0  0  0  0  0
   36.5470   30.7790   40.1870 C   0  0  0  0  0  0  0  0  0  0  0  0
   37.4010   30.3770   41.1630 C   0  0  0  0  0  0  0  0  0  0  0  0
   41.6200   34.3450   38.7630 S   0  0  0  0  0  0  0  0  0  0  0  0
   45.3020   33.8220   40.1860 C   0  0  0  0  0  0  0  0  0  0  0  0
   45.2930   34.4840   41.4110 C   0  0  0  0  0  0  0  0  0  0  0  0
   44.1270   35.1120   41.8250 C   0  0  0  0  0  0  0  0  0  0  0  0
   43.0460   35.0460   40.9980 N   0  0  0  0  0  0  0  0  0  0  0  0
   43.0920   34.3920   39.8100 C   0  0  0  0  0  0  0  0  0  0  0  0
   44.2100   33.7980   39.4320 N   0  0  0  0  0  0  0  0  0  0  0  0
   43.9210   35.8340   43.0340 N   0  0  0  0  0  0  0  0  0  0  0  0
   44.7100   35.8740   44.2530 C   0  0  0  0  0  0  0  0  0  0  0  0
   45.0070   37.3760   44.3420 C   0  0  0  0  0  0  0  0  0  0  0  0
   43.6300   37.9460   44.0070 C   0  0  0  0  0  0  0  0  0  0  0  0
   42.8660   36.7500   43.4250 C   0  0  0  0  0  0  0  0  0  0  0  0
   37.5515   33.9797   41.4441 H   0  0  0  0  0  0  0  0  0  0  0  0
   40.6651   31.7173   39.9032 H   0  0  0  0  0  0  0  0  0  0  0  0
   39.6197   29.1205   43.8296 H   0  0  0  0  0  0  0  0  0  0  0  0
   35.7938   27.4770   41.8475 H   0  0  0  0  0  0  0  0  0  0  0  0
   34.2521   28.2839   40.0384 H   0  0  0  0  0  0  0  0  0  0  0  0
   34.8075   30.5116   38.9570 H   0  0  0  0  0  0  0  0  0  0  0  0
   36.7645   31.7399   39.6978 H   0  0  0  0  0  0  0  0  0  0  0  0
   46.2169   33.3174   39.8421 H   0  0  0  0  0  0  0  0  0  0  0  0
   46.1951   34.5087   42.0400 H   0  0  0  0  0  0  0  0  0  0  0  0
   44.1344   35.5214   45.1215 H   0  0  0  0  0  0  0  0  0  0  0  0
   45.6013   35.2294   44.2444 H   0  0  0  0  0  0  0  0  0  0  0  0
   45.3337   37.6673   45.3512 H   0  0  0  0  0  0  0  0  0  0  0  0
   45.8210   37.7242   43.6892 H   0  0  0  0  0  0  0  0  0  0  0  0
   43.1327   38.3249   44.9121 H   0  0  0  0  0  0  0  0  0  0  0  0
   43.6812   38.7958   43.3104 H   0  0  0  0  0  0  0  0  0  0  0  0
   42.2652   37.0527   42.5547 H   0  0  0  0  0  0  0  0  0  0  0  0
   42.1553   36.3067   44.1380 H   0  0  0  0  0  0  0  0  0  0  0  0
  2  1  1  0
  3  4  1  0
  3  2  2  0
  4  5  2  0
  5  1  1  0
  5  6  1  0
  6  7  2  0
  7  8  1  0
  9  8  2  0
 10  9  1  0
 11 10  2  0
 12 11  1  0
 13 14  1  0
 13 12  2  0
 14 15  2  0
 15  6  1  0
 15 10  1  0
 16  3  1  0
 16 21  1  0
 17 18  2  0
 18 19  1  0
 19 23  1  0
 20 19  2  0
 21 20  1  0
 22 21  2  0
 22 17  1  0
 23 27  1  0
 23 24  1  0
 24 25  1  0
 26 25  1  0
 27 26  1  0
  1 28  1  0
  4 29  1  0
  8 30  1  0
 11 31  1  0
 12 32  1  0
 13 33  1  0
 14 34  1  0
 17 35  1  0
 18 36  1  0
 24 37  1  0
 24 38  1  0
 25 39  1  0
 25 40  1  0
 26 41  1  0
 26 42  1  0
 27 43  1  0
 27 44  1  0
M  END
>  <minimizedAffinity>  (1) 
-7.10065937

>  <minimizedRMSD>  (1) 
1.95519733

$$$$
