
     RDKit          3D

 41 44  0  0  0  0  0  0  0  0999 V2000
   37.8020   28.0820   43.5870 C   0  0  0  0  0  0  0  0  0  0  0  0
   38.7480   26.9850   43.3900 C   0  0  0  0  0  0  0  0  0  0  0  0
   40.0260   26.9810   43.9630 C   0  0  0  0  0  0  0  0  0  0  0  0
   40.8850   25.9270   43.7560 C   0  0  0  0  0  0  0  0  0  0  0  0
   40.4740   24.8640   42.9720 C   0  0  0  0  0  0  0  0  0  0  0  0
   39.2200   24.8500   42.3980 C   0  0  0  0  0  0  0  0  0  0  0  0
   38.8090   23.7900   41.6190 C   0  0  0  0  0  0  0  0  0  0  0  0
   37.5650   23.7850   41.0580 C   0  0  0  0  0  0  0  0  0  0  0  0
   36.6680   24.8280   41.2420 C   0  0  0  0  0  0  0  0  0  0  0  0
   37.1210   25.8810   42.0370 C   0  0  0  0  0  0  0  0  0  0  0  0
   38.3610   25.9260   42.6180 C   0  0  0  0  0  0  0  0  0  0  0  0
   39.1850   30.0440   42.7900 C   0  0  0  0  0  0  0  0  0  0  0  0
   38.0280   29.2700   42.7300 C   0  0  0  0  0  0  0  0  0  0  0  0
   37.0720   29.6820   41.8100 C   0  0  0  0  0  0  0  0  0  0  0  0
   37.3100   30.7650   41.0560 N   0  0  0  0  0  0  0  0  0  0  0  0
   38.4290   31.4780   41.1420 C   0  0  0  0  0  0  0  0  0  0  0  0
   39.3810   31.1110   42.0230 N   0  0  0  0  0  0  0  0  0  0  0  0
   38.6280   32.6180   40.3180 N   0  0  0  0  0  0  0  0  0  0  0  0
   37.7740   33.7230   39.9620 C   0  0  0  0  0  0  0  0  0  0  0  0
   38.6790   34.9350   40.1910 C   0  0  0  0  0  0  0  0  0  0  0  0
   40.0840   34.3720   40.0940 C   0  0  0  0  0  0  0  0  0  0  0  0
   39.8420   32.9420   39.5940 C   0  0  0  0  0  0  0  0  0  0  0  0
   36.7909   27.7009   43.3811 H   0  0  0  0  0  0  0  0  0  0  0  0
   37.9398   28.4222   44.6240 H   0  0  0  0  0  0  0  0  0  0  0  0
   40.3461   27.8298   44.5852 H   0  0  0  0  0  0  0  0  0  0  0  0
   41.8875   25.9293   44.2088 H   0  0  0  0  0  0  0  0  0  0  0  0
   41.1568   24.0181   42.8040 H   0  0  0  0  0  0  0  0  0  0  0  0
   39.4885   22.9420   41.4482 H   0  0  0  0  0  0  0  0  0  0  0  0
   37.2634   22.9265   40.4399 H   0  0  0  0  0  0  0  0  0  0  0  0
   35.6650   24.8245   40.7903 H   0  0  0  0  0  0  0  0  0  0  0  0
   36.4403   26.7279   42.2081 H   0  0  0  0  0  0  0  0  0  0  0  0
   39.9714   29.7589   43.5044 H   0  0  0  0  0  0  0  0  0  0  0  0
   36.1294   29.1255   41.7012 H   0  0  0  0  0  0  0  0  0  0  0  0
   36.8861   33.7629   40.6101 H   0  0  0  0  0  0  0  0  0  0  0  0
   37.3818   33.6587   38.9363 H   0  0  0  0  0  0  0  0  0  0  0  0
   38.5106   35.6995   39.4182 H   0  0  0  0  0  0  0  0  0  0  0  0
   38.4877   35.4281   41.1555 H   0  0  0  0  0  0  0  0  0  0  0  0
   40.6920   34.9447   39.3782 H   0  0  0  0  0  0  0  0  0  0  0  0
   40.6370   34.4140   41.0439 H   0  0  0  0  0  0  0  0  0  0  0  0
   39.6873   32.9119   38.5054 H   0  0  0  0  0  0  0  0  0  0  0  0
   40.6782   32.2472   39.7617 H   0  0  0  0  0  0  0  0  0  0  0  0
  2  1  1  0
  2  3  2  0
  4  3  1  0
  5  4  2  0
  6 11  2  0
  6  5  1  0
  7  6  1  0
  8  9  1  0
  8  7  2  0
  9 10  2  0
 10 11  1  0
 11  2  1  0
 13 12  2  0
 13  1  1  0
 14 13  1  0
 15 16  1  0
 15 14  2  0
 16 17  2  0
 17 12  1  0
 18 16  1  0
 19 20  1  0
 19 18  1  0
 21 20  1  0
 22 21  1  0
 22 18  1  0
  1 23  1  0
  1 24  1  0
  3 25  1  0
  4 26  1  0
  5 27  1  0
  7 28  1  0
  8 29  1  0
  9 30  1  0
 10 31  1  0
 12 32  1  0
 14 33  1  0
 19 34  1  0
 19 35  1  0
 20 36  1  0
 20 37  1  0
 21 38  1  0
 21 39  1  0
 22 40  1  0
 22 41  1  0
M  END
>  <minimizedAffinity>  (1) 
-7.12228918

>  <minimizedRMSD>  (1) 
0.27329731

$$$$
