
     RDKit          3D

 36 39  0  0  1  0  0  0  0  0999 V2000
   39.4620   28.8960   40.2190 C   0  0  0  0  0  0  0  0  0  0  0  0
   40.3900   28.7110   39.2080 C   0  0  0  0  0  0  0  0  0  0  0  0
   40.1330   29.6010   38.2450 N   0  0  0  0  0  0  0  0  0  0  0  0
   39.0800   30.3650   38.5750 C   0  0  0  0  0  0  0  0  0  0  0  0
   38.4710   31.4020   37.8830 C   0  0  0  0  0  0  0  0  0  0  0  0
   37.3800   32.0250   38.4720 C   0  0  0  0  0  0  0  0  0  0  0  0
   36.9310   31.6140   39.7030 C   0  0  0  0  0  0  0  0  0  0  0  0
   37.5190   30.5880   40.4080 C   0  0  0  0  0  0  0  0  0  0  0  0
   38.6140   29.9470   39.8380 C   0  0  0  0  0  0  0  0  0  0  0  0
   38.0730   26.7810   42.8730 C   0  0  0  0  0  0  0  0  0  0  0  0
   39.1180   26.7610   43.8390 C   0  0  0  0  0  0  0  0  0  0  0  0
   40.2880   27.4870   43.5440 C   0  0  0  0  0  0  0  0  0  0  0  0
   40.3440   28.1530   42.3690 N   0  0  0  0  0  0  0  0  0  0  0  0
   39.3450   28.1550   41.4770 C   0  0  0  0  0  0  0  0  0  0  0  0
   38.2120   27.4710   41.7300 N   0  0  0  0  0  0  0  0  0  0  0  0
   41.7630   30.8800   36.9940 N   0  0  0  0  0  0  0  0  0  0  0  0
   42.8380   30.5860   36.0980 C   0  0  0  0  0  0  0  0  0  0  0  0
   42.9140   29.0800   35.9690 C   0  0  0  0  0  0  0  0  0  0  0  0
   41.7030   28.5170   36.6810 C   0  0  0  0  0  0  0  0  0  0  0  0
   40.8860   29.7320   37.0100 C   0  0  1  0  0  0  0  0  0  0  0  0
   41.1966   27.9631   39.1992 H   0  0  0  0  0  0  0  0  0  0  0  0
   38.8418   31.7205   36.8976 H   0  0  0  0  0  0  0  0  0  0  0  0
   36.8731   32.8508   37.9512 H   0  0  0  0  0  0  0  0  0  0  0  0
   36.0640   32.1268   40.1449 H   0  0  0  0  0  0  0  0  0  0  0  0
   37.1343   30.2842   41.3927 H   0  0  0  0  0  0  0  0  0  0  0  0
   37.1429   26.2259   43.0648 H   0  0  0  0  0  0  0  0  0  0  0  0
   39.0157   26.2001   44.7797 H   0  0  0  0  0  0  0  0  0  0  0  0
   41.1318   27.5114   44.2492 H   0  0  0  0  0  0  0  0  0  0  0  0
   41.2493   31.7106   36.6667 H   0  0  0  0  0  0  0  0  0  0  0  0
   42.6437   31.0391   35.1147 H   0  0  0  0  0  0  0  0  0  0  0  0
   43.7861   30.9936   36.4787 H   0  0  0  0  0  0  0  0  0  0  0  0
   42.8981   28.7898   34.9081 H   0  0  0  0  0  0  0  0  0  0  0  0
   43.8450   28.6933   36.4090 H   0  0  0  0  0  0  0  0  0  0  0  0
   41.1439   27.8346   36.0239 H   0  0  0  0  0  0  0  0  0  0  0  0
   41.9680   27.9280   37.5714 H   0  0  0  0  0  0  0  0  0  0  0  0
   40.1057   29.8617   36.2457 H   0  0  0  0  0  0  0  0  0  0  0  0
  1 14  1  0
  2  1  2  0
  3  4  1  0
  3  2  1  0
  4  9  2  0
  5  6  2  0
  5  4  1  0
  6  7  1  0
  7  8  2  0
  9  1  1  0
  9  8  1  0
 10 11  2  0
 12 11  1  0
 13 12  2  0
 14 15  2  0
 14 13  1  0
 15 10  1  0
 16 20  1  0
 17 16  1  0
 18 17  1  0
 18 19  1  0
 20 19  1  0
 20  3  1  0
  2 21  1  0
  5 22  1  0
  6 23  1  0
  7 24  1  0
  8 25  1  0
 10 26  1  0
 11 27  1  0
 12 28  1  0
 16 29  1  0
 17 30  1  0
 17 31  1  0
 18 32  1  0
 18 33  1  0
 19 34  1  0
 19 35  1  0
 20 36  1  6
M  ISO  8  21  14  22  14  23  14  24  14  25  14  26  14  27  14  28  14
M  ISO  8  29   5  30  13  31  13  32  13  33  13  34  13  35  13  36  13
M  END
>  <minimizedAffinity>  (1) 
-4.4161911

>  <minimizedRMSD>  (1) 
5.44394016

$$$$
