
     RDKit          3D

 43 47  0  0  1  0  0  0  0  0999 V2000
   36.0750   30.5480   41.0200 C   0  0  0  0  0  0  0  0  0  0  0  0
   36.9140   29.5940   41.6270 C   0  0  0  0  0  0  0  0  0  0  0  0
   38.2760   29.8140   41.6490 C   0  0  0  0  0  0  0  0  0  0  0  0
   38.7040   30.9670   41.0720 N   0  0  0  0  0  0  0  0  0  0  0  0
   37.9000   31.8790   40.4940 C   0  0  0  0  0  0  0  0  0  0  0  0
   36.5760   31.6590   40.4730 N   0  0  0  0  0  0  0  0  0  0  0  0
   39.1340   28.8350   42.2490 C   0  0  0  0  0  0  0  0  0  0  0  0
   40.3630   29.0510   42.8650 C   0  0  0  0  0  0  0  0  0  0  0  0
   40.8430   27.8580   43.3080 N   0  0  0  0  0  0  0  0  0  0  0  0
   39.9770   26.8640   43.0080 C   0  0  0  0  0  0  0  0  0  0  0  0
   39.9830   25.5060   43.2270 C   0  0  0  0  0  0  0  0  0  0  0  0
   38.9180   24.6980   42.7900 C   0  0  0  0  0  0  0  0  0  0  0  0
   37.8770   25.3320   42.1360 C   0  0  0  0  0  0  0  0  0  0  0  0
   37.8940   26.6850   41.9300 C   0  0  0  0  0  0  0  0  0  0  0  0
   38.9270   27.4750   42.3550 C   0  0  0  0  0  0  0  0  0  0  0  0
   38.4800   33.1410   39.9150 C   0  0  1  0  0  0  0  0  0  0  0  0
   38.6550   34.3230   40.8900 C   0  0  0  0  0  0  0  0  0  0  0  0
   39.8210   33.5690   40.3750 C   0  0  2  0  0  0  0  0  0  0  0  0
   40.7850   34.1820   39.4390 C   0  0  0  0  0  0  0  0  0  0  0  0
   41.0280   35.4930   39.2670 N   0  0  0  0  0  0  0  0  0  0  0  0
   41.9450   35.6350   38.3410 O   0  0  0  0  0  0  0  0  0  0  0  0
   42.3180   34.4620   37.8900 C   0  0  0  0  0  0  0  0  0  0  0  0
   41.5890   33.5450   38.5820 N   0  0  0  0  0  0  0  0  0  0  0  0
   43.2840   34.1890   36.8890 N   0  0  0  0  0  0  0  0  0  0  0  0
   44.4160   33.4010   37.2370 C   0  0  0  0  0  0  0  0  0  0  0  0
   44.3030   32.5520   38.2100 N   0  0  0  0  0  0  0  0  0  0  0  0
   45.6360   33.5750   36.5050 N   0  0  0  0  0  0  0  0  0  0  0  0
   45.1530   31.9890   38.4410 H   0  0  0  0  0  0  0  0  0  0  0  0
   34.9889   30.3756   40.9958 H   0  0  0  0  0  0  0  0  0  0  0  0
   36.4892   28.6850   42.0779 H   0  0  0  0  0  0  0  0  0  0  0  0
   40.8630   30.0245   42.9753 H   0  0  0  0  0  0  0  0  0  0  0  0
   41.7381   27.7301   43.8014 H   0  0  0  0  0  0  0  0  0  0  0  0
   40.8331   25.0453   43.7515 H   0  0  0  0  0  0  0  0  0  0  0  0
   38.9131   23.6113   42.9605 H   0  0  0  0  0  0  0  0  0  0  0  0
   37.0227   24.7399   41.7761 H   0  0  0  0  0  0  0  0  0  0  0  0
   37.0484   27.1531   41.4049 H   0  0  0  0  0  0  0  0  0  0  0  0
   38.0113   32.9806   38.9329 H   0  0  0  0  0  0  0  0  0  0  0  0
   38.4678   35.3527   40.5513 H   0  0  0  0  0  0  0  0  0  0  0  0
   38.2659   34.5853   41.8849 H   0  0  0  0  0  0  0  0  0  0  0  0
   40.6642   33.0541   40.8587 H   0  0  0  0  0  0  0  0  0  0  0  0
   43.1689   34.5527   35.9322 H   0  0  0  0  0  0  0  0  0  0  0  0
   46.4649   33.0123   36.7443 H   0  0  0  0  0  0  0  0  0  0  0  0
   45.6838   34.2627   35.7397 H   0  0  0  0  0  0  0  0  0  0  0  0
  1  2  2  0
  2  3  1  0
  3  7  1  0
  4  3  2  0
  5  4  1  0
  6  5  2  0
  6  1  1  0
  7 15  1  0
  7  8  2  0
  8  9  1  0
 10 11  2  0
 10  9  1  0
 12 11  1  0
 13 12  2  0
 14 13  1  0
 14 15  2  0
 15 10  1  0
 16 18  1  0
 16  5  1  0
 16 17  1  0
 18 17  1  0
 19 18  1  0
 20 19  2  0
 21 20  1  0
 22 21  1  0
 22 23  2  0
 23 19  1  0
 24 25  1  0
 24 22  1  0
 25 26  2  0
 26 28  1  0
 27 25  1  0
  1 29  1  0
  2 30  1  0
  8 31  1  0
  9 32  1  0
 11 33  1  0
 12 34  1  0
 13 35  1  0
 14 36  1  0
 16 37  1  6
 17 38  1  0
 17 39  1  0
 18 40  1  1
 24 41  1  0
 27 42  1  0
 27 43  1  0
M  END
>  <minimizedAffinity>  (1) 
-7.39827776

>  <minimizedRMSD>  (1) 
0.71471715

$$$$
