
     RDKit          3D

 30 31  0  0  1  0  0  0  0  0999 V2000
   38.6890   26.8530   43.0990 C   0  0  2  0  0  0  0  0  0  0  0  0
   39.9480   27.4850   43.5850 C   0  0  0  0  0  0  0  0  0  0  0  0
   40.7820   26.2830   44.0000 C   0  0  0  0  0  0  0  0  0  0  0  0
   40.3170   25.1590   43.1280 C   0  0  0  0  0  0  0  0  0  0  0  0
   39.1930   25.6970   42.2800 C   0  0  1  0  0  0  0  0  0  0  0  0
   37.6730   29.1030   42.5690 C   0  0  0  0  0  0  0  0  0  0  0  0
   37.8070   27.7270   42.3440 C   0  0  0  0  0  0  0  0  0  0  0  0
   37.0380   27.1580   41.3260 C   0  0  0  0  0  0  0  0  0  0  0  0
   36.1980   27.9620   40.6060 N   0  0  0  0  0  0  0  0  0  0  0  0
   36.0910   29.3000   40.8530 C   0  0  0  0  0  0  0  0  0  0  0  0
   36.8350   29.8560   41.8370 N   0  0  0  0  0  0  0  0  0  0  0  0
   38.1970   24.6060   42.3290 N   0  0  0  0  0  0  0  0  0  0  0  0
   38.4400   23.7580   41.2170 C   0  0  0  0  0  0  0  0  0  0  0  0
   39.1370   23.8140   40.1270 N   0  0  0  0  0  0  0  0  0  0  0  0
   37.9450   22.4570   40.9210 N   0  0  0  0  0  0  0  0  0  0  0  0
   39.7310   24.6150   39.8370 H   0  0  0  0  0  0  0  0  0  0  0  0
   38.0385   26.5616   43.9368 H   0  0  0  0  0  0  0  0  0  0  0  0
   40.4421   28.0538   42.7836 H   0  0  0  0  0  0  0  0  0  0  0  0
   39.7893   28.2096   44.3973 H   0  0  0  0  0  0  0  0  0  0  0  0
   41.8515   26.4810   43.8357 H   0  0  0  0  0  0  0  0  0  0  0  0
   40.6617   26.0498   45.0682 H   0  0  0  0  0  0  0  0  0  0  0  0
   41.1410   24.8117   42.4874 H   0  0  0  0  0  0  0  0  0  0  0  0
   39.9786   24.3055   43.7338 H   0  0  0  0  0  0  0  0  0  0  0  0
   39.4314   25.9924   41.2476 H   0  0  0  0  0  0  0  0  0  0  0  0
   38.2675   29.5780   43.3633 H   0  0  0  0  0  0  0  0  0  0  0  0
   37.1069   26.0822   41.1073 H   0  0  0  0  0  0  0  0  0  0  0  0
   35.4058   29.9210   40.2573 H   0  0  0  0  0  0  0  0  0  0  0  0
   37.4616   24.4836   43.0397 H   0  0  0  0  0  0  0  0  0  0  0  0
   38.2318   21.9820   40.0533 H   0  0  0  0  0  0  0  0  0  0  0  0
   37.2999   21.9904   41.5745 H   0  0  0  0  0  0  0  0  0  0  0  0
  1  2  1  0
  2  3  1  0
  4  3  1  0
  5 12  1  0
  5  1  1  0
  5  4  1  0
  7  6  2  0
  7  1  1  0
  8  7  1  0
  9 10  1  0
  9  8  2  0
 10 11  2  0
 11  6  1  0
 13 12  1  0
 14 13  2  0
 15 13  1  0
 16 14  1  0
  1 17  1  1
  2 18  1  0
  2 19  1  0
  3 20  1  0
  3 21  1  0
  4 22  1  0
  4 23  1  0
  5 24  1  6
  6 25  1  0
  8 26  1  0
 10 27  1  0
 12 28  1  0
 15 29  1  0
 15 30  1  0
M  ISO  8  17  13  18  13  19  13  20  13  21  13  22  13  23  13  24  13
M  ISO  3  25  14  26  14  27  14
M  END
>  <minimizedAffinity>  (1) 
-4.42878628

>  <minimizedRMSD>  (1) 
0.979503334

$$$$
