
     RDKit          3D

 37 39  0  0  0  0  0  0  0  0999 V2000
   36.8470   31.2270   40.3800 C   0  0  0  0  0  0  0  0  0  0  0  0
   36.8660   31.2720   39.0060 N   0  0  0  0  0  0  0  0  0  0  0  0
   37.6830   32.2300   38.6370 O   0  0  0  0  0  0  0  0  0  0  0  0
   38.1680   32.7730   39.7180 C   0  0  0  0  0  0  0  0  0  0  0  0
   37.6740   32.1800   40.8050 N   0  0  0  0  0  0  0  0  0  0  0  0
   39.1210   33.8810   39.7180 C   0  0  0  0  0  0  0  0  0  0  0  0
   38.9630   35.1260   40.3010 C   0  0  0  0  0  0  0  0  0  0  0  0
   40.0940   35.8870   40.0760 C   0  0  0  0  0  0  0  0  0  0  0  0
   40.9110   35.0550   39.3490 C   0  0  0  0  0  0  0  0  0  0  0  0
   40.3050   33.9400   39.1800 O   0  0  0  0  0  0  0  0  0  0  0  0
   42.2100   35.3800   38.8660 N   0  0  0  0  0  0  0  0  0  0  0  0
   42.8820   34.5800   37.9020 C   0  0  0  0  0  0  0  0  0  0  0  0
   42.1350   34.0470   36.9670 N   0  0  0  0  0  0  0  0  0  0  0  0
   44.3110   34.4030   38.0010 N   0  0  0  0  0  0  0  0  0  0  0  0
   42.5880   33.4590   36.2500 H   0  0  0  0  0  0  0  0  0  0  0  0
   36.1350   30.3840   41.2530 O   0  0  0  0  0  0  0  0  0  0  0  0
   38.0840   28.1250   43.3400 C   0  0  0  0  0  0  0  0  0  0  0  0
   37.8690   26.9330   42.5850 C   0  0  0  0  0  0  0  0  0  0  0  0
   37.0880   27.0070   41.4510 C   0  0  0  0  0  0  0  0  0  0  0  0
   36.5730   28.2090   41.1190 N   0  0  0  0  0  0  0  0  0  0  0  0
   36.7700   29.3140   41.8130 C   0  0  0  0  0  0  0  0  0  0  0  0
   37.5300   29.2880   42.9370 N   0  0  0  0  0  0  0  0  0  0  0  0
   36.9440   25.7310   40.7880 C   0  0  0  0  0  0  0  0  0  0  0  0
   37.0330   24.5310   41.6310 C   0  0  0  0  0  0  0  0  0  0  0  0
   37.8260   23.1340   40.7500 S   0  0  0  0  0  0  0  0  0  0  0  0
   38.0743   35.4584   40.8575 H   0  0  0  0  0  0  0  0  0  0  0  0
   40.2938   36.9182   40.4026 H   0  0  0  0  0  0  0  0  0  0  0  0
   42.6788   36.2231   39.2271 H   0  0  0  0  0  0  0  0  0  0  0  0
   44.8076   33.8254   37.3078 H   0  0  0  0  0  0  0  0  0  0  0  0
   44.8341   34.8543   38.7649 H   0  0  0  0  0  0  0  0  0  0  0  0
   38.7011   28.0959   44.2501 H   0  0  0  0  0  0  0  0  0  0  0  0
   38.3155   25.9784   42.9001 H   0  0  0  0  0  0  0  0  0  0  0  0
   35.9595   25.7204   40.2975 H   0  0  0  0  0  0  0  0  0  0  0  0
   37.8021   25.6649   40.1029 H   0  0  0  0  0  0  0  0  0  0  0  0
   37.6256   24.7688   42.5267 H   0  0  0  0  0  0  0  0  0  0  0  0
   36.0107   24.2275   41.9008 H   0  0  0  0  0  0  0  0  0  0  0  0
   38.3303   22.2456   41.6629 H   0  0  0  0  0  0  0  0  0  0  0  0
  1  5  1  0
  1 16  1  0
  2  1  2  0
  3  2  1  0
  3  4  1  0
  4  5  2  0
  6  4  1  0
  6  7  2  0
  8  7  1  0
  9  8  2  0
 10  9  1  0
 10  6  1  0
 11  9  1  0
 12 14  1  0
 12 11  1  0
 13 12  2  0
 15 13  1  0
 16 21  1  0
 18 17  2  0
 19 18  1  0
 20 19  2  0
 20 21  1  0
 21 22  2  0
 22 17  1  0
 23 19  1  0
 23 24  1  0
 25 24  1  0
  7 26  1  0
  8 27  1  0
 11 28  1  0
 14 29  1  0
 14 30  1  0
 17 31  1  0
 18 32  1  0
 23 33  1  0
 23 34  1  0
 24 35  1  0
 24 36  1  0
 25 37  1  0
M  ISO  8  26  14  27  14  31  14  32  14  33   8  34   8  35   8  36   8
M  ISO  1  37  11
M  END
>  <minimizedAffinity>  (1) 
-6.65385485

>  <minimizedRMSD>  (1) 
0.579981089

$$$$
