
     RDKit          3D

 24 24  0  0  0  0  0  0  0  0999 V2000
   39.0620   29.3990   42.3490 C   0  0  0  0  0  0  0  0  0  0  0  0
   38.0140   29.2750   41.4100 C   0  0  0  0  0  0  0  0  0  0  0  0
   37.3350   28.0530   41.4510 C   0  0  0  0  0  0  0  0  0  0  0  0
   37.6740   27.0820   42.3330 N   0  0  0  0  0  0  0  0  0  0  0  0
   38.6890   27.2610   43.2110 C   0  0  0  0  0  0  0  0  0  0  0  0
   39.3700   28.4230   43.2050 N   0  0  0  0  0  0  0  0  0  0  0  0
   37.6970   30.3220   40.5050 N   0  0  0  0  0  0  0  0  0  0  0  0
   36.7290   31.3280   40.7770 C   0  0  0  0  0  0  0  0  0  0  0  0
   35.6260   30.9140   41.3630 N   0  0  0  0  0  0  0  0  0  0  0  0
   37.0880   32.6710   40.3730 N   0  0  0  0  0  0  0  0  0  0  0  0
   34.8650   31.5700   41.5900 H   0  0  0  0  0  0  0  0  0  0  0  0
   36.2630   27.8370   40.5410 N   0  0  0  0  0  0  0  0  0  0  0  0
   36.3990   26.8840   39.4920 C   0  0  0  0  0  0  0  0  0  0  0  0
   37.1590   25.8640   39.6710 N   0  0  0  0  0  0  0  0  0  0  0  0
   35.6680   27.1220   38.2770 N   0  0  0  0  0  0  0  0  0  0  0  0
   37.3560   25.1020   39.0180 H   0  0  0  0  0  0  0  0  0  0  0  0
   39.6440   30.3320   42.3754 H   0  0  0  0  0  0  0  0  0  0  0  0
   38.9549   26.4652   43.9223 H   0  0  0  0  0  0  0  0  0  0  0  0
   38.1944   30.3548   39.6037 H   0  0  0  0  0  0  0  0  0  0  0  0
   36.4353   33.4504   40.5385 H   0  0  0  0  0  0  0  0  0  0  0  0
   37.9961   32.8471   39.9200 H   0  0  0  0  0  0  0  0  0  0  0  0
   35.3877   28.3705   40.6411 H   0  0  0  0  0  0  0  0  0  0  0  0
   35.0729   27.9581   38.1894 H   0  0  0  0  0  0  0  0  0  0  0  0
   35.7394   26.4564   37.4942 H   0  0  0  0  0  0  0  0  0  0  0  0
  1  6  2  0
  2  3  2  0
  2  1  1  0
  3  4  1  0
  4  5  2  0
  6  5  1  0
  7  8  1  0
  7  2  1  0
  8  9  2  0
  9 11  1  0
 10  8  1  0
 12  3  1  0
 13 14  2  0
 13 12  1  0
 15 13  1  0
 16 14  1  0
  1 17  1  0
  5 18  1  0
  7 19  1  0
 10 20  1  0
 10 21  1  0
 12 22  1  0
 15 23  1  0
 15 24  1  0
M  ISO  2  17  14  18  14
M  END
>  <minimizedAffinity>  (1) 
-4.48637819

>  <minimizedRMSD>  (1) 
0.978571832

$$$$
