
     RDKit          3D

 34 36  0  0  1  0  0  0  0  0999 V2000
   37.6700   28.1040   41.7710 C   0  0  0  0  0  0  0  0  0  0  0  0
   38.1900   27.1590   42.6490 C   0  0  0  0  0  0  0  0  0  0  0  0
   37.9680   25.8290   42.4970 C   0  0  0  0  0  0  0  0  0  0  0  0
   37.2010   25.4160   41.4320 C   0  0  0  0  0  0  0  0  0  0  0  0
   36.6770   26.3430   40.5450 C   0  0  0  0  0  0  0  0  0  0  0  0
   36.9250   27.6990   40.7290 C   0  0  0  0  0  0  0  0  0  0  0  0
   36.4000   28.3430   39.6140 N   0  0  0  0  0  0  0  0  0  0  0  0
   35.1660   28.9190   39.2500 C   0  0  0  0  0  0  0  0  0  0  0  0
   34.5870   29.3660   40.3320 N   0  0  0  0  0  0  0  0  0  0  0  0
   34.7310   28.9500   37.8720 N   0  0  0  0  0  0  0  0  0  0  0  0
   33.6630   29.8110   40.1570 H   0  0  0  0  0  0  0  0  0  0  0  0
   38.9480   30.2730   41.2910 C   0  0  1  0  0  0  0  0  0  0  0  0
   38.9920   30.0350   42.7490 C   0  0  0  0  0  0  0  0  0  0  0  0
   37.7840   29.5540   42.0930 C   0  0  2  0  0  0  0  0  0  0  0  0
   38.5580   31.6340   40.7830 C   0  0  0  0  0  0  0  0  0  0  0  0
   37.5380   31.7110   39.7900 C   0  0  0  0  0  0  0  0  0  0  0  0
   37.1820   32.9510   39.3120 C   0  0  0  0  0  0  0  0  0  0  0  0
   37.8280   34.0620   39.8200 N   0  0  0  0  0  0  0  0  0  0  0  0
   38.7960   33.9410   40.7700 C   0  0  0  0  0  0  0  0  0  0  0  0
   39.1540   32.7020   41.2480 N   0  0  0  0  0  0  0  0  0  0  0  0
   38.8025   27.5016   43.4960 H   0  0  0  0  0  0  0  0  0  0  0  0
   38.3896   25.1010   43.2057 H   0  0  0  0  0  0  0  0  0  0  0  0
   37.0026   24.3442   41.2838 H   0  0  0  0  0  0  0  0  0  0  0  0
   36.0649   26.0062   39.6954 H   0  0  0  0  0  0  0  0  0  0  0  0
   37.0938   28.4190   38.8565 H   0  0  0  0  0  0  0  0  0  0  0  0
   33.8256   29.3757   37.6272 H   0  0  0  0  0  0  0  0  0  0  0  0
   35.3264   28.5464   37.1348 H   0  0  0  0  0  0  0  0  0  0  0  0
   39.6400   30.0644   40.4618 H   0  0  0  0  0  0  0  0  0  0  0  0
   39.7097   29.3040   43.1497 H   0  0  0  0  0  0  0  0  0  0  0  0
   39.1575   30.7024   43.6076 H   0  0  0  0  0  0  0  0  0  0  0  0
   36.7103   29.6910   42.2890 H   0  0  0  0  0  0  0  0  0  0  0  0
   37.0473   30.8007   39.4149 H   0  0  0  0  0  0  0  0  0  0  0  0
   36.4017   33.0556   38.5437 H   0  0  0  0  0  0  0  0  0  0  0  0
   39.2954   34.8410   41.1581 H   0  0  0  0  0  0  0  0  0  0  0  0
  1 14  1  0
  1  2  2  0
  3  2  1  0
  4  3  2  0
  5  6  2  0
  5  4  1  0
  6  1  1  0
  7  6  1  0
  8  7  1  0
  8  9  2  0
 10  8  1  0
 11  9  1  0
 12 14  1  0
 12 13  1  0
 14 13  1  0
 15 20  1  0
 15 12  1  0
 16 15  2  0
 17 16  1  0
 17 18  2  0
 18 19  1  0
 19 20  2  0
  2 21  1  0
  3 22  1  0
  4 23  1  0
  5 24  1  0
  7 25  1  0
 10 26  1  0
 10 27  1  0
 12 28  1  6
 13 29  1  0
 13 30  1  0
 14 31  1  1
 16 32  1  0
 17 33  1  0
 19 34  1  0
M  ISO  8  21  14  22  14  23  14  24  14  28  13  29  13  30  13  31  13
M  ISO  3  32  14  33  14  34  14
M  END
>  <minimizedAffinity>  (1) 
-5.22086811

>  <minimizedRMSD>  (1) 
0.648000836

$$$$
