
     RDKit          3D

 34 37  0  0  1  0  0  0  0  0999 V2000
   36.1680   30.8020   41.1330 C   0  0  0  0  0  0  0  0  0  0  0  0
   36.7630   29.6860   41.7490 C   0  0  0  0  0  0  0  0  0  0  0  0
   38.1220   29.4650   41.5440 C   0  0  0  0  0  0  0  0  0  0  0  0
   38.7820   30.3500   40.7580 N   0  0  0  0  0  0  0  0  0  0  0  0
   38.1990   31.4120   40.1770 C   0  0  0  0  0  0  0  0  0  0  0  0
   36.8800   31.6470   40.3620 N   0  0  0  0  0  0  0  0  0  0  0  0
   38.7400   28.3130   42.1670 C   0  0  0  0  0  0  0  0  0  0  0  0
   39.8450   28.2830   42.9900 C   0  0  0  0  0  0  0  0  0  0  0  0
   40.0930   26.9990   43.3510 N   0  0  0  0  0  0  0  0  0  0  0  0
   39.1900   26.1870   42.7940 C   0  0  0  0  0  0  0  0  0  0  0  0
   38.9860   24.8130   42.8340 C   0  0  0  0  0  0  0  0  0  0  0  0
   37.9290   24.2130   42.1370 C   0  0  0  0  0  0  0  0  0  0  0  0
   37.1030   25.0520   41.4100 C   0  0  0  0  0  0  0  0  0  0  0  0
   37.3050   26.4000   41.3710 C   0  0  0  0  0  0  0  0  0  0  0  0
   38.3470   26.9920   42.0590 C   0  0  0  0  0  0  0  0  0  0  0  0
   39.0000   32.3490   39.3290 C   0  0  1  0  0  0  0  0  0  0  0  0
   39.8600   33.3840   40.0450 C   0  0  0  0  0  0  0  0  0  0  0  0
   40.4860   32.2270   39.3280 C   0  0  2  0  0  0  0  0  0  0  0  0
   41.2760   32.4280   38.1030 C   0  0  0  0  0  0  0  0  0  0  0  0
   42.5200   32.2140   38.0830 O   0  0  0  0  0  0  0  0  0  0  0  0
   40.7040   32.8580   36.9160 O   0  0  0  0  0  0  0  0  0  0  0  0
   35.0947   30.9895   41.2845 H   0  0  0  0  0  0  0  0  0  0  0  0
   36.1694   29.0052   42.3768 H   0  0  0  0  0  0  0  0  0  0  0  0
   40.4315   29.1591   43.3037 H   0  0  0  0  0  0  0  0  0  0  0  0
   40.8632   26.6952   43.9637 H   0  0  0  0  0  0  0  0  0  0  0  0
   39.6680   24.1838   43.4247 H   0  0  0  0  0  0  0  0  0  0  0  0
   37.7635   23.1259   42.1663 H   0  0  0  0  0  0  0  0  0  0  0  0
   36.2613   24.6202   40.8488 H   0  0  0  0  0  0  0  0  0  0  0  0
   36.6241   27.0295   40.7793 H   0  0  0  0  0  0  0  0  0  0  0  0
   38.2262   32.3709   38.5475 H   0  0  0  0  0  0  0  0  0  0  0  0
   39.9530   34.4018   39.6382 H   0  0  0  0  0  0  0  0  0  0  0  0
   39.9079   33.7913   41.0657 H   0  0  0  0  0  0  0  0  0  0  0  0
   41.1907   31.4315   39.6117 H   0  0  0  0  0  0  0  0  0  0  0  0
   41.2674   32.9822   36.1115 H   0  0  0  0  0  0  0  0  0  0  0  0
  1  2  2  0
  3  2  1  0
  3  7  1  0
  4  3  2  0
  5  6  2  0
  5  4  1  0
  6  1  1  0
  7  8  2  0
  8  9  1  0
 10 11  2  0
 10  9  1  0
 12 11  1  0
 13 12  2  0
 14 13  1  0
 14 15  2  0
 15  7  1  0
 15 10  1  0
 16 17  1  0
 16  5  1  0
 18 16  1  0
 18 17  1  0
 19 18  1  0
 20 19  2  0
 21 19  1  0
  1 22  1  0
  2 23  1  0
  8 24  1  0
  9 25  1  0
 11 26  1  0
 12 27  1  0
 13 28  1  0
 14 29  1  0
 16 30  1  6
 17 31  1  0
 17 32  1  0
 18 33  1  1
 21 34  1  0
M  ISO  8  22  14  23  14  24  14  25   9  26  14  27  14  28  14  29  14
M  ISO  5  30  13  31  13  32  13  33  13  34   3
M  END
>  <minimizedAffinity>  (1) 
-5.50434446

>  <minimizedRMSD>  (1) 
0.916810274

$$$$
