
     RDKit          3D

 25 27  0  0  0  0  0  0  0  0999 V2000
   40.0710   27.7350   43.2760 C   0  0  0  0  0  0  0  0  0  0  0  0
   39.0710   26.9290   43.7190 C   0  0  0  0  0  0  0  0  0  0  0  0
   37.9150   27.2320   43.0300 C   0  0  0  0  0  0  0  0  0  0  0  0
   38.3040   28.2380   42.1840 N   0  0  0  0  0  0  0  0  0  0  0  0
   39.5560   28.5270   42.3300 N   0  0  0  0  0  0  0  0  0  0  0  0
   43.2360   26.8110   45.0220 C   0  0  0  0  0  0  0  0  0  0  0  0
   41.9000   26.7450   44.6150 C   0  0  0  0  0  0  0  0  0  0  0  0
   41.4460   27.7340   43.7440 C   0  0  0  0  0  0  0  0  0  0  0  0
   42.2940   28.7130   43.3220 N   0  0  0  0  0  0  0  0  0  0  0  0
   43.5910   28.7380   43.7460 C   0  0  0  0  0  0  0  0  0  0  0  0
   44.0600   27.7840   44.5980 N   0  0  0  0  0  0  0  0  0  0  0  0
   37.3870   28.8480   41.2800 C   0  0  0  0  0  0  0  0  0  0  0  0
   36.0490   28.4820   41.3070 C   0  0  0  0  0  0  0  0  0  0  0  0
   35.1870   29.0960   40.4150 C   0  0  0  0  0  0  0  0  0  0  0  0
   35.6310   30.0200   39.5440 N   0  0  0  0  0  0  0  0  0  0  0  0
   36.9380   30.3800   39.5140 C   0  0  0  0  0  0  0  0  0  0  0  0
   37.7300   29.7700   40.3850 N   0  0  0  0  0  0  0  0  0  0  0  0
   39.1675   26.1602   44.4998 H   0  0  0  0  0  0  0  0  0  0  0  0
   36.9196   26.7757   43.1344 H   0  0  0  0  0  0  0  0  0  0  0  0
   43.6236   26.0444   45.7090 H   0  0  0  0  0  0  0  0  0  0  0  0
   41.2336   25.9443   44.9682 H   0  0  0  0  0  0  0  0  0  0  0  0
   44.2635   29.5354   43.3968 H   0  0  0  0  0  0  0  0  0  0  0  0
   35.6837   27.7254   42.0170 H   0  0  0  0  0  0  0  0  0  0  0  0
   34.1212   28.8239   40.4184 H   0  0  0  0  0  0  0  0  0  0  0  0
   37.3187   31.1335   38.8088 H   0  0  0  0  0  0  0  0  0  0  0  0
  1  2  1  0
  1  8  1  0
  3  2  2  0
  4  5  1  0
  4  3  1  0
  5  1  2  0
  7  6  2  0
  8  7  1  0
  9  8  2  0
  9 10  1  0
 10 11  2  0
 11  6  1  0
 12 13  2  0
 12  4  1  0
 14 13  1  0
 15 14  2  0
 16 15  1  0
 16 17  2  0
 17 12  1  0
  2 18  1  0
  3 19  1  0
  6 20  1  0
  7 21  1  0
 10 22  1  0
 13 23  1  0
 14 24  1  0
 16 25  1  0
M  ISO  8  18  14  19  14  20  14  21  14  22  14  23  14  24  14  25  14
M  END
>  <minimizedAffinity>  (1) 
-4.09399509

>  <minimizedRMSD>  (1) 
7.47528791

$$$$
