
     RDKit          3D

 39 43  0  0  1  0  0  0  0  0999 V2000
   35.2460   29.5400   40.3450 C   0  0  0  0  0  0  0  0  0  0  0  0
   36.0000   28.6610   41.1440 C   0  0  0  0  0  0  0  0  0  0  0  0
   37.3530   28.8860   41.2980 C   0  0  0  0  0  0  0  0  0  0  0  0
   37.8590   29.9700   40.6490 N   0  0  0  0  0  0  0  0  0  0  0  0
   37.1300   30.8090   39.8860 C   0  0  0  0  0  0  0  0  0  0  0  0
   35.8160   30.5860   39.7370 N   0  0  0  0  0  0  0  0  0  0  0  0
   38.1280   27.9830   42.0980 C   0  0  0  0  0  0  0  0  0  0  0  0
   38.9020   28.2930   43.2130 C   0  0  0  0  0  0  0  0  0  0  0  0
   39.4670   27.1550   43.6850 N   0  0  0  0  0  0  0  0  0  0  0  0
   39.0960   26.1010   42.9250 C   0  0  0  0  0  0  0  0  0  0  0  0
   39.3740   24.7430   42.9570 C   0  0  0  0  0  0  0  0  0  0  0  0
   38.8370   23.8720   42.0170 C   0  0  0  0  0  0  0  0  0  0  0  0
   38.0160   24.4180   41.0480 C   0  0  0  0  0  0  0  0  0  0  0  0
   37.7460   25.7590   41.0220 C   0  0  0  0  0  0  0  0  0  0  0  0
   38.2700   26.6210   41.9470 C   0  0  0  0  0  0  0  0  0  0  0  0
   37.7890   31.9990   39.2400 C   0  0  1  0  0  0  0  0  0  0  0  0
   37.1620   33.3760   39.5410 C   0  0  0  0  0  0  0  0  0  0  0  0
   38.4690   32.9840   40.1120 C   0  0  2  0  0  0  0  0  0  0  0  0
   39.7290   33.6280   39.6840 C   0  0  0  0  0  0  0  0  0  0  0  0
   40.2050   34.8170   40.0970 N   0  0  0  0  0  0  0  0  0  0  0  0
   41.3380   35.0550   39.4810 O   0  0  0  0  0  0  0  0  0  0  0  0
   41.6290   34.0630   38.6740 C   0  0  0  0  0  0  0  0  0  0  0  0
   40.6150   33.1560   38.7980 N   0  0  0  0  0  0  0  0  0  0  0  0
   42.7550   33.8320   37.7750 C   0  0  0  0  0  0  0  0  0  0  0  0
   43.7330   33.0870   38.0420 O   0  0  0  0  0  0  0  0  0  0  0  0
   42.7840   34.4600   36.5360 O   0  0  0  0  0  0  0  0  0  0  0  0
   34.1677   29.3636   40.2180 H   0  0  0  0  0  0  0  0  0  0  0  0
   35.5175   27.8056   41.6395 H   0  0  0  0  0  0  0  0  0  0  0  0
   39.0335   29.2977   43.6411 H   0  0  0  0  0  0  0  0  0  0  0  0
   40.0890   27.1013   44.5042 H   0  0  0  0  0  0  0  0  0  0  0  0
   40.0336   24.3468   43.7431 H   0  0  0  0  0  0  0  0  0  0  0  0
   39.0557   22.7943   42.0428 H   0  0  0  0  0  0  0  0  0  0  0  0
   37.5719   23.7626   40.2843 H   0  0  0  0  0  0  0  0  0  0  0  0
   37.0885   26.1560   40.2346 H   0  0  0  0  0  0  0  0  0  0  0  0
   38.0739   31.4309   38.3422 H   0  0  0  0  0  0  0  0  0  0  0  0
   37.1089   34.1440   38.7552 H   0  0  0  0  0  0  0  0  0  0  0  0
   36.2026   33.7310   39.9454 H   0  0  0  0  0  0  0  0  0  0  0  0
   38.8667   32.9552   41.1372 H   0  0  0  0  0  0  0  0  0  0  0  0
   42.0431   35.0591   36.2672 H   0  0  0  0  0  0  0  0  0  0  0  0
  1  2  2  0
  2  3  1  0
  3  7  1  0
  4  3  2  0
  5  4  1  0
  6  5  2  0
  6  1  1  0
  7  8  2  0
  8  9  1  0
 10 11  2  0
 10  9  1  0
 12 11  1  0
 13 12  2  0
 14 13  1  0
 14 15  2  0
 15  7  1  0
 15 10  1  0
 16 17  1  0
 16  5  1  0
 16 18  1  0
 17 18  1  0
 19 20  2  0
 19 18  1  0
 21 20  1  0
 22 23  2  0
 22 21  1  0
 23 19  1  0
 24 25  2  0
 24 22  1  0
 26 24  1  0
  1 27  1  0
  2 28  1  0
  8 29  1  0
  9 30  1  0
 11 31  1  0
 12 32  1  0
 13 33  1  0
 14 34  1  0
 16 35  1  6
 17 36  1  0
 17 37  1  0
 18 38  1  1
 26 39  1  0
M  ISO  8  27  14  28  14  29  14  30   9  31  14  32  14  33  14  34  14
M  ISO  5  35  13  36  13  37  13  38  13  39   3
M  END
>  <minimizedAffinity>  (1) 
-7.02281857

>  <minimizedRMSD>  (1) 
1.27705622

$$$$
