
     RDKit          3D

 20 21  0  0  1  0  0  0  0  0999 V2000
   37.8940   28.5060   43.3670 C   0  0  1  0  0  0  0  0  0  0  0  0
   36.8650   27.4950   43.4450 C   0  0  0  0  0  0  0  0  0  0  0  0
   38.0850   27.1140   42.6740 C   0  0  2  0  0  0  0  0  0  0  0  0
   37.8210   29.6540   42.3890 C   0  0  0  0  0  0  0  0  0  0  0  0
   39.0080   30.3900   42.1990 C   0  0  0  0  0  0  0  0  0  0  0  0
   38.9290   31.4490   41.3090 C   0  0  0  0  0  0  0  0  0  0  0  0
   37.7470   31.7180   40.6830 N   0  0  0  0  0  0  0  0  0  0  0  0
   36.6350   30.9920   40.8920 C   0  0  0  0  0  0  0  0  0  0  0  0
   36.6730   29.9480   41.7550 N   0  0  0  0  0  0  0  0  0  0  0  0
   39.0670   26.2390   43.3630 C   0  0  0  0  0  0  0  0  0  0  0  0
   39.2230   25.0580   42.9030 O   0  0  0  0  0  0  0  0  0  0  0  0
   39.8520   26.5200   44.4520 O   0  0  0  0  0  0  0  0  0  0  0  0
   38.3713   29.1247   44.1412 H   0  0  0  0  0  0  0  0  0  0  0  0
   36.6645   27.0058   44.4096 H   0  0  0  0  0  0  0  0  0  0  0  0
   35.7924   27.4951   43.2011 H   0  0  0  0  0  0  0  0  0  0  0  0
   38.2819   26.7211   41.6656 H   0  0  0  0  0  0  0  0  0  0  0  0
   39.9406   30.1388   42.7254 H   0  0  0  0  0  0  0  0  0  0  0  0
   39.8147   32.0696   41.1082 H   0  0  0  0  0  0  0  0  0  0  0  0
   35.7018   31.2434   40.3667 H   0  0  0  0  0  0  0  0  0  0  0  0
   40.4685   25.8323   44.8085 H   0  0  0  0  0  0  0  0  0  0  0  0
  1  2  1  0
  3 10  1  0
  3  1  1  0
  3  2  1  0
  4  1  1  0
  5  4  2  0
  6  5  1  0
  7  8  1  0
  7  6  2  0
  8  9  2  0
  9  4  1  0
 10 12  1  0
 11 10  2  0
  1 13  1  1
  2 14  1  0
  2 15  1  0
  3 16  1  6
  5 17  1  0
  6 18  1  0
  8 19  1  0
 12 20  1  0
M  ISO  8  13  13  14  13  15  13  16  13  17  14  18  14  19  14  20   3
M  END
>  <minimizedAffinity>  (1) 
-4.05728769

>  <minimizedRMSD>  (1) 
2.82943678

$$$$
