
     RDKit          3D

 33 35  0  0  0  0  0  0  0  0999 V2000
   36.4510   30.4870   41.5860 O   0  0  0  0  0  0  0  0  0  0  0  0
   38.4230   28.1020   43.4490 C   0  0  0  0  0  0  0  0  0  0  0  0
   38.1000   26.8940   42.7270 C   0  0  0  0  0  0  0  0  0  0  0  0
   37.2290   27.0750   41.6710 C   0  0  0  0  0  0  0  0  0  0  0  0
   36.7500   28.3020   41.3870 N   0  0  0  0  0  0  0  0  0  0  0  0
   37.0670   29.3860   42.0710 C   0  0  0  0  0  0  0  0  0  0  0  0
   37.9200   29.2890   43.1240 N   0  0  0  0  0  0  0  0  0  0  0  0
   36.9720   25.8360   40.9700 C   0  0  0  0  0  0  0  0  0  0  0  0
   36.9660   24.6020   41.7580 C   0  0  0  0  0  0  0  0  0  0  0  0
   37.8870   23.2950   40.8640 S   0  0  0  0  0  0  0  0  0  0  0  0
   37.0760   31.2590   40.6090 C   0  0  0  0  0  0  0  0  0  0  0  0
   36.7120   31.4800   39.3130 N   0  0  0  0  0  0  0  0  0  0  0  0
   37.5940   32.2730   38.7580 O   0  0  0  0  0  0  0  0  0  0  0  0
   38.5010   32.5510   39.6830 C   0  0  0  0  0  0  0  0  0  0  0  0
   38.1970   31.9390   40.8180 N   0  0  0  0  0  0  0  0  0  0  0  0
   39.6530   33.4100   39.4490 C   0  0  0  0  0  0  0  0  0  0  0  0
   39.9030   34.6410   40.0430 C   0  0  0  0  0  0  0  0  0  0  0  0
   41.0840   35.1450   39.5710 C   0  0  0  0  0  0  0  0  0  0  0  0
   41.5290   34.1840   38.6820 C   0  0  0  0  0  0  0  0  0  0  0  0
   40.6650   33.2180   38.6580 O   0  0  0  0  0  0  0  0  0  0  0  0
   42.7800   34.3080   37.9280 C   0  0  0  0  0  0  0  0  0  0  0  0
   43.8760   34.2780   38.5440 O   0  0  0  0  0  0  0  0  0  0  0  0
   42.7820   34.4580   36.5500 O   0  0  0  0  0  0  0  0  0  0  0  0
   39.1135   28.0376   44.3029 H   0  0  0  0  0  0  0  0  0  0  0  0
   38.5136   25.9109   42.9960 H   0  0  0  0  0  0  0  0  0  0  0  0
   35.9854   25.9264   40.4920 H   0  0  0  0  0  0  0  0  0  0  0  0
   37.8209   25.7234   40.2796 H   0  0  0  0  0  0  0  0  0  0  0  0
   37.4451   24.7869   42.7308 H   0  0  0  0  0  0  0  0  0  0  0  0
   35.9276   24.2743   41.9143 H   0  0  0  0  0  0  0  0  0  0  0  0
   38.4797   22.4539   41.7685 H   0  0  0  0  0  0  0  0  0  0  0  0
   39.2516   35.1343   40.7794 H   0  0  0  0  0  0  0  0  0  0  0  0
   41.5682   36.0961   39.8374 H   0  0  0  0  0  0  0  0  0  0  0  0
   41.9258   34.4831   36.0536 H   0  0  0  0  0  0  0  0  0  0  0  0
  1  6  1  0
  3  2  2  0
  4  3  1  0
  5  4  2  0
  5  6  1  0
  6  7  2  0
  7  2  1  0
  8  4  1  0
  8  9  1  0
 10  9  1  0
 11 15  1  0
 11  1  1  0
 12 11  2  0
 13 12  1  0
 13 14  1  0
 14 15  2  0
 16 14  1  0
 16 17  2  0
 18 17  1  0
 19 18  2  0
 20 19  1  0
 20 16  1  0
 21 22  2  0
 21 19  1  0
 23 21  1  0
  2 24  1  0
  3 25  1  0
  8 26  1  0
  8 27  1  0
  9 28  1  0
  9 29  1  0
 10 30  1  0
 17 31  1  0
 18 32  1  0
 23 33  1  0
M  ISO  8  24  14  25  14  26   8  27   8  28   8  29   8  30  11  31  14
M  ISO  2  32  14  33   3
M  END
>  <minimizedAffinity>  (1) 
-6.06088066

>  <minimizedRMSD>  (1) 
0.986205637

$$$$
