
     RDKit          3D

 43 46  0  0  0  0  0  0  0  0999 V2000
   36.1510   30.0960   41.0930 C   0  0  0  0  0  0  0  0  0  0  0  0
   38.5790   28.1240   42.6900 C   0  0  0  0  0  0  0  0  0  0  0  0
   37.4730   27.3170   42.8050 C   0  0  0  0  0  0  0  0  0  0  0  0
   36.4210   28.0050   42.1910 C   0  0  0  0  0  0  0  0  0  0  0  0
   36.9690   29.1460   41.7680 N   0  0  0  0  0  0  0  0  0  0  0  0
   38.2260   29.2500   42.0410 N   0  0  0  0  0  0  0  0  0  0  0  0
   41.4540   26.4260   44.3490 C   0  0  0  0  0  0  0  0  0  0  0  0
   40.1500   26.6550   43.8960 C   0  0  0  0  0  0  0  0  0  0  0  0
   39.9110   27.8370   43.1780 C   0  0  0  0  0  0  0  0  0  0  0  0
   40.9270   28.7080   42.9450 N   0  0  0  0  0  0  0  0  0  0  0  0
   42.1820   28.4230   43.4180 C   0  0  0  0  0  0  0  0  0  0  0  0
   42.4330   27.3000   44.1070 N   0  0  0  0  0  0  0  0  0  0  0  0
   43.2540   29.3790   43.1530 C   0  0  0  0  0  0  0  0  0  0  0  0
   43.3690   30.3730   43.9330 O   0  0  0  0  0  0  0  0  0  0  0  0
   44.1020   29.1950   42.0950 O   0  0  0  0  0  0  0  0  0  0  0  0
   35.2520   29.5440   40.0340 C   0  0  0  0  0  0  0  0  0  0  0  0
   35.8640   29.4590   38.6920 C   0  0  0  0  0  0  0  0  0  0  0  0
   37.1820   29.6040   38.3610 C   0  0  0  0  0  0  0  0  0  0  0  0
   37.7000   29.5790   37.0970 C   0  0  0  0  0  0  0  0  0  0  0  0
   36.8630   29.3950   36.0320 C   0  0  0  0  0  0  0  0  0  0  0  0
   35.5120   29.2390   36.2880 C   0  0  0  0  0  0  0  0  0  0  0  0
   34.7200   29.0620   35.1720 C   0  0  0  0  0  0  0  0  0  0  0  0
   33.3720   28.8990   35.3270 C   0  0  0  0  0  0  0  0  0  0  0  0
   32.8280   28.9120   36.5970 C   0  0  0  0  0  0  0  0  0  0  0  0
   33.6660   29.0900   37.6550 C   0  0  0  0  0  0  0  0  0  0  0  0
   35.0160   29.2660   37.5820 C   0  0  0  0  0  0  0  0  0  0  0  0
   33.0650   29.0770   38.9050 O   0  0  0  0  0  0  0  0  0  0  0  0
   35.5210   30.5937   41.8449 H   0  0  0  0  0  0  0  0  0  0  0  0
   36.8454   30.7723   40.5729 H   0  0  0  0  0  0  0  0  0  0  0  0
   37.4244   26.3279   43.2840 H   0  0  0  0  0  0  0  0  0  0  0  0
   35.3763   27.6787   42.0814 H   0  0  0  0  0  0  0  0  0  0  0  0
   41.6761   25.5091   44.9147 H   0  0  0  0  0  0  0  0  0  0  0  0
   39.3423   25.9354   44.0952 H   0  0  0  0  0  0  0  0  0  0  0  0
   44.8262   29.8474   41.9218 H   0  0  0  0  0  0  0  0  0  0  0  0
   34.9463   28.5316   40.3367 H   0  0  0  0  0  0  0  0  0  0  0  0
   34.4061   30.2418   39.9477 H   0  0  0  0  0  0  0  0  0  0  0  0
   37.8910   29.7547   39.1884 H   0  0  0  0  0  0  0  0  0  0  0  0
   38.7810   29.7058   36.9377 H   0  0  0  0  0  0  0  0  0  0  0  0
   37.2514   29.3717   35.0031 H   0  0  0  0  0  0  0  0  0  0  0  0
   35.1690   29.0522   34.1679 H   0  0  0  0  0  0  0  0  0  0  0  0
   32.7256   28.7586   34.4481 H   0  0  0  0  0  0  0  0  0  0  0  0
   31.7464   28.7820   36.7492 H   0  0  0  0  0  0  0  0  0  0  0  0
   33.6140   29.2005   39.7195 H   0  0  0  0  0  0  0  0  0  0  0  0
  1  5  1  0
  2  3  1  0
  2  9  1  0
  4  3  2  0
  5  6  1  0
  5  4  1  0
  6  2  2  0
  8  7  2  0
  9  8  1  0
 10  9  2  0
 10 11  1  0
 11 12  2  0
 12  7  1  0
 13 11  1  0
 13 14  2  0
 15 13  1  0
 16  1  1  0
 17 16  1  0
 18 17  2  0
 19 18  1  0
 20 21  1  0
 20 19  2  0
 21 26  2  0
 22 23  2  0
 22 21  1  0
 23 24  1  0
 24 25  2  0
 25 27  1  0
 26 25  1  0
 26 17  1  0
  1 28  1  0
  1 29  1  0
  3 30  1  0
  4 31  1  0
  7 32  1  0
  8 33  1  0
 15 34  1  0
 16 35  1  0
 16 36  1  0
 18 37  1  0
 19 38  1  0
 20 39  1  0
 22 40  1  0
 23 41  1  0
 24 42  1  0
 27 43  1  0
M  ISO  8  28   8  29   8  30  14  31  14  32  14  33  14  34   3  35   8
M  ISO  8  36   8  37  14  38  14  39  14  40  14  41  14  42  14  43   3
M  END
>  <minimizedAffinity>  (1) 
-5.75678825

>  <minimizedRMSD>  (1) 
0.113897994

$$$$
