
     RDKit          3D

 30 32  0  0  1  0  0  0  0  0999 V2000
   37.9030   27.3430   42.7250 C   0  0  2  0  0  0  0  0  0  0  0  0
   38.9580   27.6410   43.6990 C   0  0  0  0  0  0  0  0  0  0  0  0
   39.7100   26.3360   43.8740 C   0  0  0  0  0  0  0  0  0  0  0  0
   39.2960   25.4580   42.7390 C   0  0  0  0  0  0  0  0  0  0  0  0
   38.5500   26.3670   41.7580 C   0  0  1  0  0  0  0  0  0  0  0  0
   37.9440   29.7570   41.9250 C   0  0  0  0  0  0  0  0  0  0  0  0
   37.3160   28.4850   42.0400 C   0  0  0  0  0  0  0  0  0  0  0  0
   36.0670   28.2920   41.4610 C   0  0  0  0  0  0  0  0  0  0  0  0
   35.4960   29.3610   40.7980 N   0  0  0  0  0  0  0  0  0  0  0  0
   36.1230   30.5760   40.7010 C   0  0  0  0  0  0  0  0  0  0  0  0
   37.3530   30.7580   41.2750 N   0  0  0  0  0  0  0  0  0  0  0  0
   37.5840   25.4140   41.1370 C   0  0  0  0  0  0  0  0  0  0  0  0
   36.8490   24.5500   41.8560 N   0  0  0  0  0  0  0  0  0  0  0  0
   36.1140   23.8660   41.0040 O   0  0  0  0  0  0  0  0  0  0  0  0
   36.3810   24.2890   39.7840 C   0  0  0  0  0  0  0  0  0  0  0  0
   37.2930   25.2550   39.8260 N   0  0  0  0  0  0  0  0  0  0  0  0
   35.7060   23.7040   38.6310 C   0  0  0  0  0  0  0  0  0  0  0  0
   34.8260   24.3730   38.0300 O   0  0  0  0  0  0  0  0  0  0  0  0
   37.0260   26.9350   43.2488 H   0  0  0  0  0  0  0  0  0  0  0  0
   39.6278   28.4249   43.3158 H   0  0  0  0  0  0  0  0  0  0  0  0
   38.5494   28.0133   44.6500 H   0  0  0  0  0  0  0  0  0  0  0  0
   40.7950   26.5143   43.8414 H   0  0  0  0  0  0  0  0  0  0  0  0
   39.4815   25.8699   44.8438 H   0  0  0  0  0  0  0  0  0  0  0  0
   40.1793   25.0156   42.2552 H   0  0  0  0  0  0  0  0  0  0  0  0
   38.6629   24.6261   43.0811 H   0  0  0  0  0  0  0  0  0  0  0  0
   39.0887   26.9087   40.9666 H   0  0  0  0  0  0  0  0  0  0  0  0
   38.9328   29.9158   42.3800 H   0  0  0  0  0  0  0  0  0  0  0  0
   35.5517   27.3225   41.5284 H   0  0  0  0  0  0  0  0  0  0  0  0
   35.6387   31.4040   40.1627 H   0  0  0  0  0  0  0  0  0  0  0  0
   35.9632   22.6900   38.2909 H   0  0  0  0  0  0  0  0  0  0  0  0
  1  2  1  0
  2  3  1  0
  4  3  1  0
  5  1  1  0
  5  4  1  0
  6  7  2  0
  7  1  1  0
  8  7  1  0
  9  8  2  0
 10  9  1  0
 10 11  2  0
 11  6  1  0
 12  5  1  0
 12 13  2  0
 14 13  1  0
 15 16  2  0
 15 14  1  0
 16 12  1  0
 17 15  1  0
 18 17  2  0
  1 19  1  1
  2 20  1  0
  2 21  1  0
  3 22  1  0
  3 23  1  0
  4 24  1  0
  4 25  1  0
  5 26  1  6
  6 27  1  0
  8 28  1  0
 10 29  1  0
 17 30  1  0
M  ISO  8  19  13  20  13  21  13  22  13  23  13  24  13  25  13  26  13
M  ISO  4  27  14  28  14  29  14  30   6
M  END
>  <minimizedAffinity>  (1) 
-4.5549984

>  <minimizedRMSD>  (1) 
0.571471393

$$$$
