
     RDKit          3D

 48 52  0  0  0  0  0  0  0  0999 V2000
   40.0420   27.8020   43.3260 C   0  0  0  0  0  0  0  0  0  0  0  0
   39.3180   26.5820   43.4080 C   0  0  0  0  0  0  0  0  0  0  0  0
   38.2340   26.4370   42.5400 C   0  0  0  0  0  0  0  0  0  0  0  0
   37.9410   27.4360   41.6930 N   0  0  0  0  0  0  0  0  0  0  0  0
   38.6390   28.5800   41.6340 C   0  0  0  0  0  0  0  0  0  0  0  0
   39.6840   28.7650   42.4430 N   0  0  0  0  0  0  0  0  0  0  0  0
   37.4470   25.2930   42.5220 N   0  0  0  0  0  0  0  0  0  0  0  0
   38.3400   29.6450   40.7390 N   0  0  0  0  0  0  0  0  0  0  0  0
   37.3830   29.4040   39.8210 C   0  0  0  0  0  0  0  0  0  0  0  0
   36.9510   30.3130   38.8560 C   0  0  0  0  0  0  0  0  0  0  0  0
   37.5670   31.5350   38.8690 C   0  0  0  0  0  0  0  0  0  0  0  0
   37.2430   32.4150   38.0370 O   0  0  0  0  0  0  0  0  0  0  0  0
   38.5210   31.7600   39.7910 N   0  0  0  0  0  0  0  0  0  0  0  0
   38.9130   30.8600   40.7080 C   0  0  0  0  0  0  0  0  0  0  0  0
   39.7930   31.0500   41.5680 O   0  0  0  0  0  0  0  0  0  0  0  0
   39.1970   33.0090   39.8550 C   0  0  0  0  0  0  0  0  0  0  0  0
   38.6310   34.0270   40.6170 C   0  0  0  0  0  0  0  0  0  0  0  0
   39.2750   35.2410   40.6870 C   0  0  0  0  0  0  0  0  0  0  0  0
   40.4590   35.3910   39.9960 C   0  0  0  0  0  0  0  0  0  0  0  0
   41.0170   34.3990   39.2500 C   0  0  0  0  0  0  0  0  0  0  0  0
   40.3840   33.1610   39.1620 C   0  0  0  0  0  0  0  0  0  0  0  0
   35.8950   29.9470   37.8920 C   0  0  0  0  0  0  0  0  0  0  0  0
   36.2730   28.9080   36.9770 N   0  0  0  0  0  0  0  0  0  0  0  0
   37.2110   29.0460   36.0230 C   0  0  0  0  0  0  0  0  0  0  0  0
   37.3270   27.8930   35.3370 N   0  0  0  0  0  0  0  0  0  0  0  0
   36.4740   26.9760   35.8220 C   0  0  0  0  0  0  0  0  0  0  0  0
   36.1800   25.6620   35.5040 C   0  0  0  0  0  0  0  0  0  0  0  0
   35.2370   25.0240   36.2220 N   0  0  0  0  0  0  0  0  0  0  0  0
   34.6110   25.6760   37.2200 C   0  0  0  0  0  0  0  0  0  0  0  0
   34.8870   26.9700   37.5470 N   0  0  0  0  0  0  0  0  0  0  0  0
   35.8210   27.6470   36.8570 C   0  0  0  0  0  0  0  0  0  0  0  0
   36.9420   25.1290   34.4160 N   0  0  0  0  0  0  0  0  0  0  0  0
   40.9047   27.9666   43.9884 H   0  0  0  0  0  0  0  0  0  0  0  0
   39.5976   25.7913   44.1198 H   0  0  0  0  0  0  0  0  0  0  0  0
   36.6552   25.2228   41.8669 H   0  0  0  0  0  0  0  0  0  0  0  0
   37.6550   24.5146   43.1637 H   0  0  0  0  0  0  0  0  0  0  0  0
   36.9056   28.4131   39.8341 H   0  0  0  0  0  0  0  0  0  0  0  0
   37.6850   33.8638   41.1541 H   0  0  0  0  0  0  0  0  0  0  0  0
   38.8568   36.0692   41.2780 H   0  0  0  0  0  0  0  0  0  0  0  0
   40.9776   36.3596   40.0505 H   0  0  0  0  0  0  0  0  0  0  0  0
   41.9641   34.5739   38.7186 H   0  0  0  0  0  0  0  0  0  0  0  0
   40.8101   32.3398   38.5669 H   0  0  0  0  0  0  0  0  0  0  0  0
   35.0144   29.6069   38.4566 H   0  0  0  0  0  0  0  0  0  0  0  0
   35.6914   30.8436   37.2881 H   0  0  0  0  0  0  0  0  0  0  0  0
   37.7934   29.9595   35.8326 H   0  0  0  0  0  0  0  0  0  0  0  0
   33.8427   25.1405   37.7970 H   0  0  0  0  0  0  0  0  0  0  0  0
   36.7910   24.1576   34.1087 H   0  0  0  0  0  0  0  0  0  0  0  0
   37.6413   25.7168   33.9403 H   0  0  0  0  0  0  0  0  0  0  0  0
  1  2  2  0
  3  2  1  0
  4  3  2  0
  5  4  1  0
  5  6  2  0
  6  1  1  0
  7  3  1  0
  8  5  1  0
  9  8  1  0
 10 11  1  0
 10  9  2  0
 11 13  1  0
 12 11  2  0
 13 16  1  0
 13 14  1  0
 14  8  1  0
 14 15  2  0
 16 17  2  0
 17 18  1  0
 19 18  2  0
 20 19  1  0
 21 20  2  0
 21 16  1  0
 22 10  1  0
 23 22  1  0
 24 23  1  0
 25 26  1  0
 25 24  2  0
 26 31  2  0
 27 26  1  0
 27 28  2  0
 28 29  1  0
 29 30  2  0
 31 23  1  0
 31 30  1  0
 32 27  1  0
  1 33  1  0
  2 34  1  0
  7 35  1  0
  7 36  1  0
  9 37  1  0
 17 38  1  0
 18 39  1  0
 19 40  1  0
 20 41  1  0
 21 42  1  0
 22 43  1  0
 22 44  1  0
 24 45  1  0
 29 46  1  0
 32 47  1  0
 32 48  1  0
M  ISO  8  33  14  34  14  37  14  38  14  39  14  40  14  41  14  42  14
M  ISO  4  43   8  44   8  45  14  46  14
M  END
>  <minimizedAffinity>  (1) 
-6.5964756

>  <minimizedRMSD>  (1) 
3.37448573

$$$$
