
     RDKit          3D

 37 40  0  0  0  0  0  0  0  0999 V2000
   39.7160   32.4550   40.9350 C   0  0  0  0  0  0  0  0  0  0  0  0
   40.8360   31.8950   41.5900 C   0  0  0  0  0  0  0  0  0  0  0  0
   40.8620   30.6090   42.0970 C   0  0  0  0  0  0  0  0  0  0  0  0
   39.7260   29.8190   41.9570 C   0  0  0  0  0  0  0  0  0  0  0  0
   38.6270   30.3150   41.3350 C   0  0  0  0  0  0  0  0  0  0  0  0
   37.5470   29.5080   41.2150 C   0  0  0  0  0  0  0  0  0  0  0  0
   36.3740   29.9650   40.5680 C   0  0  0  0  0  0  0  0  0  0  0  0
   36.4240   31.2810   40.0790 C   0  0  0  0  0  0  0  0  0  0  0  0
   37.5460   32.0400   40.2350 C   0  0  0  0  0  0  0  0  0  0  0  0
   38.6720   31.5880   40.8600 C   0  0  0  0  0  0  0  0  0  0  0  0
   39.8780   33.8000   40.4910 C   0  0  0  0  0  0  0  0  0  0  0  0
   39.0620   34.9240   40.6850 C   0  0  0  0  0  0  0  0  0  0  0  0
   39.3970   36.1840   40.1870 C   0  0  0  0  0  0  0  0  0  0  0  0
   40.5600   36.2680   39.5020 N   0  0  0  0  0  0  0  0  0  0  0  0
   41.3480   35.2190   39.3060 C   0  0  0  0  0  0  0  0  0  0  0  0
   41.0130   34.0170   39.7890 N   0  0  0  0  0  0  0  0  0  0  0  0
   37.3550   28.1520   41.6720 C   0  0  0  0  0  0  0  0  0  0  0  0
   36.7810   27.7160   42.8490 C   0  0  0  0  0  0  0  0  0  0  0  0
   36.6040   26.4000   43.2030 C   0  0  0  0  0  0  0  0  0  0  0  0
   37.0120   25.3960   42.3600 C   0  0  0  0  0  0  0  0  0  0  0  0
   37.5790   25.8440   41.2030 C   0  0  0  0  0  0  0  0  0  0  0  0
   37.7450   27.1350   40.8680 N   0  0  0  0  0  0  0  0  0  0  0  0
   38.0550   24.8630   40.2220 C   0  0  0  0  0  0  0  0  0  0  0  0
   38.8850   23.9490   40.4630 O   0  0  0  0  0  0  0  0  0  0  0  0
   41.7366   32.5164   41.7027 H   0  0  0  0  0  0  0  0  0  0  0  0
   41.7600   30.2199   42.5992 H   0  0  0  0  0  0  0  0  0  0  0  0
   39.7185   28.7919   42.3506 H   0  0  0  0  0  0  0  0  0  0  0  0
   35.4819   29.3314   40.4555 H   0  0  0  0  0  0  0  0  0  0  0  0
   35.5484   31.7038   39.5646 H   0  0  0  0  0  0  0  0  0  0  0  0
   37.5435   33.0659   39.8381 H   0  0  0  0  0  0  0  0  0  0  0  0
   38.1250   34.8084   41.2495 H   0  0  0  0  0  0  0  0  0  0  0  0
   38.7507   37.0604   40.3431 H   0  0  0  0  0  0  0  0  0  0  0  0
   42.2846   35.3383   38.7417 H   0  0  0  0  0  0  0  0  0  0  0  0
   36.4382   28.4823   43.5598 H   0  0  0  0  0  0  0  0  0  0  0  0
   36.1336   26.1500   44.1654 H   0  0  0  0  0  0  0  0  0  0  0  0
   36.8926   24.3283   42.5960 H   0  0  0  0  0  0  0  0  0  0  0  0
   37.6564   24.9317   39.1991 H   0  0  0  0  0  0  0  0  0  0  0  0
  1  2  2  0
  2  3  1  0
  4  3  2  0
  5  4  1  0
  6  5  2  0
  6 17  1  0
  7  6  1  0
  8  9  1  0
  8  7  2  0
  9 10  2  0
 10  1  1  0
 10  5  1  0
 11 12  2  0
 11  1  1  0
 13 12  1  0
 14 13  2  0
 15 14  1  0
 15 16  2  0
 16 11  1  0
 17 18  2  0
 18 19  1  0
 20 19  2  0
 21 20  1  0
 22 21  2  0
 22 17  1  0
 23 24  2  0
 23 21  1  0
  2 25  1  0
  3 26  1  0
  4 27  1  0
  7 28  1  0
  8 29  1  0
  9 30  1  0
 12 31  1  0
 13 32  1  0
 15 33  1  0
 18 34  1  0
 19 35  1  0
 20 36  1  0
 23 37  1  0
M  ISO  8  25  14  26  14  27  14  28  14  29  14  30  14  31  14  32  14
M  ISO  5  33  14  34  14  35  14  36  14  37   6
M  END
>  <minimizedAffinity>  (1) 
-6.15784025

>  <minimizedRMSD>  (1) 
1.29168463

$$$$
