
     RDKit          3D

 25 27  0  0  0  0  0  0  0  0999 V2000
   37.0080   31.2680   40.6220 C   0  0  0  0  0  0  0  0  0  0  0  0
   36.7800   31.4720   39.3040 N   0  0  0  0  0  0  0  0  0  0  0  0
   37.5220   32.4690   38.8980 O   0  0  0  0  0  0  0  0  0  0  0  0
   38.2120   32.8970   39.9290 C   0  0  0  0  0  0  0  0  0  0  0  0
   37.9180   32.1770   41.0060 N   0  0  0  0  0  0  0  0  0  0  0  0
   39.1590   34.0030   39.8750 C   0  0  0  0  0  0  0  0  0  0  0  0
   38.9130   35.3210   40.2500 C   0  0  0  0  0  0  0  0  0  0  0  0
   40.0600   36.0630   40.0500 C   0  0  0  0  0  0  0  0  0  0  0  0
   40.9820   35.1500   39.5510 C   0  0  0  0  0  0  0  0  0  0  0  0
   40.3990   33.9990   39.4780 O   0  0  0  0  0  0  0  0  0  0  0  0
   36.4600   30.3300   41.4960 O   0  0  0  0  0  0  0  0  0  0  0  0
   38.9540   28.3550   43.2560 C   0  0  0  0  0  0  0  0  0  0  0  0
   38.5810   27.0770   42.7900 C   0  0  0  0  0  0  0  0  0  0  0  0
   37.4790   26.9830   41.8900 C   0  0  0  0  0  0  0  0  0  0  0  0
   36.8700   28.1650   41.5490 N   0  0  0  0  0  0  0  0  0  0  0  0
   37.2640   29.3370   42.0180 C   0  0  0  0  0  0  0  0  0  0  0  0
   38.2910   29.4340   42.8580 N   0  0  0  0  0  0  0  0  0  0  0  0
   37.0570   25.6700   41.3800 C   0  0  0  0  0  0  0  0  0  0  0  0
   36.8050   24.7710   42.2210 O   0  0  0  0  0  0  0  0  0  0  0  0
   37.9606   35.7079   40.6416 H   0  0  0  0  0  0  0  0  0  0  0  0
   40.2105   37.1356   40.2423 H   0  0  0  0  0  0  0  0  0  0  0  0
   42.0225   35.3684   39.2686 H   0  0  0  0  0  0  0  0  0  0  0  0
   39.7988   28.4581   43.9529 H   0  0  0  0  0  0  0  0  0  0  0  0
   39.1255   26.1772   43.1122 H   0  0  0  0  0  0  0  0  0  0  0  0
   36.9651   25.4814   40.3002 H   0  0  0  0  0  0  0  0  0  0  0  0
  1  5  1  0
  1 11  1  0
  2  1  2  0
  3  2  1  0
  3  4  1  0
  4  5  2  0
  6  4  1  0
  6  7  2  0
  8  7  1  0
  9  8  2  0
 10  9  1  0
 10  6  1  0
 11 16  1  0
 13 12  2  0
 14 13  1  0
 15 14  2  0
 15 16  1  0
 16 17  2  0
 17 12  1  0
 18 14  1  0
 18 19  2  0
  7 20  1  0
  8 21  1  0
  9 22  1  0
 12 23  1  0
 13 24  1  0
 18 25  1  0
M  ISO  6  20  14  21  14  22  14  23  14  24  14  25   6
M  END
>  <minimizedAffinity>  (1) 
-5.17487431

>  <minimizedRMSD>  (1) 
0.521070242

$$$$
