
     RDKit          3D

 41 44  0  0  0  0  0  0  0  0999 V2000
   45.3160   33.1860   41.1800 F   0  0  0  0  0  0  0  0  0  0  0  0
   46.4540   33.8920   41.0120 C   0  0  0  0  0  0  0  0  0  0  0  0
   46.9230   34.7050   41.9910 C   0  0  0  0  0  0  0  0  0  0  0  0
   48.0950   35.3900   41.7300 C   0  0  0  0  0  0  0  0  0  0  0  0
   48.7750   35.2710   40.5420 C   0  0  0  0  0  0  0  0  0  0  0  0
   48.2370   34.4310   39.6050 C   0  0  0  0  0  0  0  0  0  0  0  0
   47.0830   33.7250   39.7980 C   0  0  0  0  0  0  0  0  0  0  0  0
   46.6300   32.8790   38.7310 C   0  0  0  0  0  0  0  0  0  0  0  0
   46.1870   31.6030   39.0260 C   0  0  0  0  0  0  0  0  0  0  0  0
   45.7570   30.7960   38.0230 C   0  0  0  0  0  0  0  0  0  0  0  0
   45.7590   31.2490   36.6940 C   0  0  0  0  0  0  0  0  0  0  0  0
   46.2160   32.5460   36.4410 C   0  0  0  0  0  0  0  0  0  0  0  0
   46.6490   33.3540   37.4630 C   0  0  0  0  0  0  0  0  0  0  0  0
   47.0460   34.5740   36.9820 O   0  0  0  0  0  0  0  0  0  0  0  0
   44.4990   35.8230   44.6630 C   0  0  0  0  0  0  0  0  0  0  0  0
   45.1990   35.7650   43.4560 C   0  0  0  0  0  0  0  0  0  0  0  0
   46.1650   34.8010   43.2440 C   0  0  0  0  0  0  0  0  0  0  0  0
   46.3770   33.9410   44.2680 N   0  0  0  0  0  0  0  0  0  0  0  0
   45.7070   34.0000   45.4180 C   0  0  0  0  0  0  0  0  0  0  0  0
   44.7720   34.9390   45.6140 N   0  0  0  0  0  0  0  0  0  0  0  0
   45.9800   33.0430   46.4880 C   0  0  0  0  0  0  0  0  0  0  0  0
   47.0570   32.1770   46.4030 C   0  0  0  0  0  0  0  0  0  0  0  0
   47.3120   31.2720   47.4200 C   0  0  0  0  0  0  0  0  0  0  0  0
   46.4970   31.2090   48.5450 C   0  0  0  0  0  0  0  0  0  0  0  0
   45.4150   32.0760   48.6330 C   0  0  0  0  0  0  0  0  0  0  0  0
   45.1790   32.9720   47.6090 C   0  0  0  0  0  0  0  0  0  0  0  0
   48.4997   36.0576   42.5050 H   0  0  0  0  0  0  0  0  0  0  0  0
   49.7068   35.8242   40.3531 H   0  0  0  0  0  0  0  0  0  0  0  0
   48.7617   34.3181   38.6449 H   0  0  0  0  0  0  0  0  0  0  0  0
   46.1831   31.2445   40.0659 H   0  0  0  0  0  0  0  0  0  0  0  0
   45.4044   29.7797   38.2529 H   0  0  0  0  0  0  0  0  0  0  0  0
   45.4110   30.6020   35.8753 H   0  0  0  0  0  0  0  0  0  0  0  0
   46.2288   32.9244   35.4082 H   0  0  0  0  0  0  0  0  0  0  0  0
   47.3845   35.2653   37.6046 H   0  0  0  0  0  0  0  0  0  0  0  0
   43.7299   36.5929   44.8235 H   0  0  0  0  0  0  0  0  0  0  0  0
   44.9783   36.4961   42.6643 H   0  0  0  0  0  0  0  0  0  0  0  0
   47.7146   32.2080   45.5217 H   0  0  0  0  0  0  0  0  0  0  0  0
   48.1728   30.5923   47.3365 H   0  0  0  0  0  0  0  0  0  0  0  0
   46.7048   30.4874   49.3488 H   0  0  0  0  0  0  0  0  0  0  0  0
   44.7522   32.0490   49.5105 H   0  0  0  0  0  0  0  0  0  0  0  0
   44.3202   33.6546   47.6902 H   0  0  0  0  0  0  0  0  0  0  0  0
  2  1  1  0
  2  3  2  0
  3 17  1  0
  4  3  1  0
  5  4  2  0
  6  7  2  0
  6  5  1  0
  7  2  1  0
  8  9  2  0
  8  7  1  0
 10  9  1  0
 11 10  2  0
 12 11  1  0
 12 13  2  0
 13  8  1  0
 14 13  1  0
 15 20  2  0
 16 15  1  0
 17 16  2  0
 17 18  1  0
 18 19  2  0
 19 20  1  0
 19 21  1  0
 21 26  1  0
 22 21  2  0
 22 23  1  0
 23 24  2  0
 24 25  1  0
 26 25  2  0
  4 27  1  0
  5 28  1  0
  6 29  1  0
  9 30  1  0
 10 31  1  0
 11 32  1  0
 12 33  1  0
 14 34  1  0
 15 35  1  0
 16 36  1  0
 22 37  1  0
 23 38  1  0
 24 39  1  0
 25 40  1  0
 26 41  1  0
M  END
>  <Score>  (1) 
-7.79078

>  <Score_dual>  (1) 
-7.02

>  <Choices>  (1) 
[None, 8, ['9-18', 90], 19, ['1-25', 135], 29, ['2-1', 0], 30, ['1-27', 45]]

$$$$
