
     RDKit          3D

 39 43  0  0  0  0  0  0  0  0999 V2000
   47.4700   34.5730   42.8320 C   0  0  0  0  0  0  0  0  0  0  0  0
   46.5250   35.5530   42.5050 C   0  0  0  0  0  0  0  0  0  0  0  0
   45.3410   35.5830   43.2380 C   0  0  0  0  0  0  0  0  0  0  0  0
   45.1740   34.6690   44.2220 N   0  0  0  0  0  0  0  0  0  0  0  0
   46.1070   33.7410   44.5080 C   0  0  0  0  0  0  0  0  0  0  0  0
   47.2600   33.6840   43.8190 N   0  0  0  0  0  0  0  0  0  0  0  0
   45.9670   31.4080   45.2360 C   0  0  0  0  0  0  0  0  0  0  0  0
   45.9050   32.7560   45.5810 C   0  0  0  0  0  0  0  0  0  0  0  0
   45.6610   33.1120   46.8870 C   0  0  0  0  0  0  0  0  0  0  0  0
   45.4820   32.1310   47.8400 C   0  0  0  0  0  0  0  0  0  0  0  0
   45.2360   32.1580   49.1500 N   0  0  0  0  0  0  0  0  0  0  0  0
   45.1390   30.9270   49.6600 C   0  0  0  0  0  0  0  0  0  0  0  0
   45.3280   30.0330   48.6430 C   0  0  0  0  0  0  0  0  0  0  0  0
   45.5430   30.7880   47.5040 C   0  0  0  0  0  0  0  0  0  0  0  0
   45.7880   30.4250   46.1860 C   0  0  0  0  0  0  0  0  0  0  0  0
   48.6710   34.5960   42.0350 C   0  0  0  0  0  0  0  0  0  0  0  0
   49.7680   35.1470   42.3880 O   0  0  0  0  0  0  0  0  0  0  0  0
   49.4710   32.8930   40.3900 N   0  0  0  0  0  0  0  0  0  0  0  0
   48.6900   33.9500   40.7060 C   0  0  0  0  0  0  0  0  0  0  0  0
   47.9640   34.2870   39.6240 N   0  0  0  0  0  0  0  0  0  0  0  0
   48.2580   33.4670   38.6080 C   0  0  0  0  0  0  0  0  0  0  0  0
   47.8950   33.2710   37.2910 C   0  0  0  0  0  0  0  0  0  0  0  0
   48.3870   32.3230   36.4930 N   0  0  0  0  0  0  0  0  0  0  0  0
   49.3210   31.4730   36.9990 C   0  0  0  0  0  0  0  0  0  0  0  0
   49.6960   31.6380   38.2800 N   0  0  0  0  0  0  0  0  0  0  0  0
   49.2100   32.5870   39.0920 C   0  0  0  0  0  0  0  0  0  0  0  0
   46.9190   34.1540   36.7520 N   0  0  0  0  0  0  0  0  0  0  0  0
   46.7114   36.2750   41.6963 H   0  0  0  0  0  0  0  0  0  0  0  0
   44.5624   36.3297   43.0228 H   0  0  0  0  0  0  0  0  0  0  0  0
   46.1614   31.1238   44.1913 H   0  0  0  0  0  0  0  0  0  0  0  0
   45.6089   34.1737   47.1700 H   0  0  0  0  0  0  0  0  0  0  0  0
   45.1333   33.0220   49.7013 H   0  0  0  0  0  0  0  0  0  0  0  0
   44.9418   30.6768   50.7128 H   0  0  0  0  0  0  0  0  0  0  0  0
   45.3123   28.9355   48.7158 H   0  0  0  0  0  0  0  0  0  0  0  0
   45.8387   29.3633   45.9028 H   0  0  0  0  0  0  0  0  0  0  0  0
   50.1357   32.4123   41.0129 H   0  0  0  0  0  0  0  0  0  0  0  0
   49.7562   30.6751   36.3793 H   0  0  0  0  0  0  0  0  0  0  0  0
   46.6142   34.0494   35.7737 H   0  0  0  0  0  0  0  0  0  0  0  0
   46.5170   34.8981   37.3399 H   0  0  0  0  0  0  0  0  0  0  0  0
  1  6  1  0
  2  1  2  0
  2  3  1  0
  3  4  2  0
  4  5  1  0
  5  8  1  0
  6  5  2  0
  7  8  2  0
  7 15  1  0
  8  9  1  0
  9 10  2  0
 10 11  1  0
 11 12  1  0
 13 12  2  0
 14 10  1  0
 14 13  1  0
 15 14  2  0
 16 17  2  0
 16  1  1  0
 18 19  1  0
 19 16  1  0
 20 19  2  0
 21 26  2  0
 21 20  1  0
 22 21  1  0
 23 24  1  0
 23 22  2  0
 24 25  2  0
 25 26  1  0
 26 18  1  0
 27 22  1  0
  2 28  1  0
  3 29  1  0
  7 30  1  0
  9 31  1  0
 11 32  1  0
 12 33  1  0
 13 34  1  0
 15 35  1  0
 18 36  1  0
 24 37  1  0
 27 38  1  0
 27 39  1  0
M  END
>  <Score>  (1) 
-7.18327

>  <Score_dual>  (1) 
-7.57

>  <Choices>  (1) 
[None, 6, ['5-8', 120], 10, ['24-8', 150], 25, ['28-14', 90]]

$$$$
