
     RDKit          3D

 53 58  0  0  0  0  0  0  0  0999 V2000
   45.6960   33.8330   45.3360 C   0  0  0  0  0  0  0  0  0  0  0  0
   44.7730   34.7370   45.6940 N   0  0  0  0  0  0  0  0  0  0  0  0
   44.4430   35.8150   44.9940 C   0  0  0  0  0  0  0  0  0  0  0  0
   45.0540   36.0680   43.8220 N   0  0  0  0  0  0  0  0  0  0  0  0
   45.9980   35.2430   43.3470 C   0  0  0  0  0  0  0  0  0  0  0  0
   46.6280   35.4970   42.1460 C   0  0  0  0  0  0  0  0  0  0  0  0
   47.5860   34.6670   41.6540 C   0  0  0  0  0  0  0  0  0  0  0  0
   47.9150   33.5490   42.3980 C   0  0  0  0  0  0  0  0  0  0  0  0
   47.2500   33.3380   43.6050 C   0  0  0  0  0  0  0  0  0  0  0  0
   46.2950   34.1390   44.1230 C   0  0  0  0  0  0  0  0  0  0  0  0
   47.5640   32.0060   47.8360 C   0  0  0  0  0  0  0  0  0  0  0  0
   47.0640   30.6990   47.8190 C   0  0  0  0  0  0  0  0  0  0  0  0
   46.0450   30.4370   46.9350 C   0  0  0  0  0  0  0  0  0  0  0  0
   45.5890   31.4060   46.1480 N   0  0  0  0  0  0  0  0  0  0  0  0
   46.0460   32.6410   46.1440 C   0  0  0  0  0  0  0  0  0  0  0  0
   47.0480   32.9250   47.0100 N   0  0  0  0  0  0  0  0  0  0  0  0
   45.5020   29.1750   46.8840 N   0  0  0  0  0  0  0  0  0  0  0  0
   44.2910   28.8260   46.0880 C   0  0  0  0  0  0  0  0  0  0  0  0
   44.2320   27.3210   46.0750 C   0  0  0  0  0  0  0  0  0  0  0  0
   44.9230   26.9490   47.3430 C   0  0  0  0  0  0  0  0  0  0  0  0
   45.9590   28.0000   47.5530 C   0  0  0  0  0  0  0  0  0  0  0  0
   47.6440   29.7820   48.6550 N   0  0  0  0  0  0  0  0  0  0  0  0
   48.9170   32.7040   41.8570 N   0  0  0  0  0  0  0  0  0  0  0  0
   49.8660   31.9480   42.4670 C   0  0  0  0  0  0  0  0  0  0  0  0
   50.5750   31.3270   41.5010 N   0  0  0  0  0  0  0  0  0  0  0  0
   50.0990   31.6680   40.2770 C   0  0  0  0  0  0  0  0  0  0  0  0
   50.4860   31.3020   39.0210 C   0  0  0  0  0  0  0  0  0  0  0  0
   49.8140   31.8120   37.9770 N   0  0  0  0  0  0  0  0  0  0  0  0
   48.7830   32.6680   38.2230 C   0  0  0  0  0  0  0  0  0  0  0  0
   48.3800   33.0490   39.4390 N   0  0  0  0  0  0  0  0  0  0  0  0
   49.0370   32.5510   40.5080 C   0  0  0  0  0  0  0  0  0  0  0  0
   51.5450   30.4200   38.7560 N   0  0  0  0  0  0  0  0  0  0  0  0
   47.7190   32.1370   44.2340 N   0  0  0  0  0  0  0  0  0  0  0  0
   43.6706   36.5012   45.3715 H   0  0  0  0  0  0  0  0  0  0  0  0
   46.3483   36.3930   41.5725 H   0  0  0  0  0  0  0  0  0  0  0  0
   48.0829   34.8780   40.6956 H   0  0  0  0  0  0  0  0  0  0  0  0
   48.3775   32.2772   48.5250 H   0  0  0  0  0  0  0  0  0  0  0  0
   43.3886   29.2412   46.5605 H   0  0  0  0  0  0  0  0  0  0  0  0
   44.3412   29.2393   45.0698 H   0  0  0  0  0  0  0  0  0  0  0  0
   43.1909   26.9659   46.0729 H   0  0  0  0  0  0  0  0  0  0  0  0
   44.6947   26.8761   45.1817 H   0  0  0  0  0  0  0  0  0  0  0  0
   44.2103   26.9385   48.1808 H   0  0  0  0  0  0  0  0  0  0  0  0
   45.3659   25.9436   47.2875 H   0  0  0  0  0  0  0  0  0  0  0  0
   46.9200   27.6734   47.1290 H   0  0  0  0  0  0  0  0  0  0  0  0
   46.1115   28.1926   48.6252 H   0  0  0  0  0  0  0  0  0  0  0  0
   47.3025   28.8104   48.6699 H   0  0  0  0  0  0  0  0  0  0  0  0
   48.4216   30.0641   49.2687 H   0  0  0  0  0  0  0  0  0  0  0  0
   50.0275   31.8581   43.5514 H   0  0  0  0  0  0  0  0  0  0  0  0
   48.2421   33.0759   37.3564 H   0  0  0  0  0  0  0  0  0  0  0  0
   51.7873   30.1838   37.7832 H   0  0  0  0  0  0  0  0  0  0  0  0
   52.0799   30.0089   39.5343 H   0  0  0  0  0  0  0  0  0  0  0  0
   47.3240   31.8411   45.1380 H   0  0  0  0  0  0  0  0  0  0  0  0
   48.4507   31.5706   43.7816 H   0  0  0  0  0  0  0  0  0  0  0  0
  1  2  2  0
  1 15  1  0
  3  2  1  0
  4  3  2  0
  5  4  1  0
  5 10  2  0
  6  5  1  0
  7  6  2  0
  7  8  1  0
  8  9  2  0
  9 10  1  0
  9 33  1  0
 10  1  1  0
 12 11  2  0
 12 22  1  0
 13 12  1  0
 14 13  2  0
 15 14  1  0
 15 16  2  0
 16 11  1  0
 17 13  1  0
 17 21  1  0
 18 17  1  0
 19 18  1  0
 19 20  1  0
 20 21  1  0
 23  8  1  0
 23 24  1  0
 25 24  2  0
 26 31  2  0
 26 25  1  0
 27 26  1  0
 28 29  1  0
 28 27  2  0
 29 30  2  0
 30 31  1  0
 31 23  1  0
 32 27  1  0
  3 34  1  0
  6 35  1  0
  7 36  1  0
 11 37  1  0
 18 38  1  0
 18 39  1  0
 19 40  1  0
 19 41  1  0
 20 42  1  0
 20 43  1  0
 21 44  1  0
 21 45  1  0
 22 46  1  0
 22 47  1  0
 24 48  1  0
 29 49  1  0
 32 50  1  0
 32 51  1  0
 33 52  1  0
 33 53  1  0
M  END
>  <Score>  (1) 
-7.4529

>  <Score_dual>  (1) 
-7.25

>  <Choices>  (1) 
[None, 7, ['0-3', 0], 9, ['47-23', 255], 23, ['13-3', 105], 35, ['0-3', 0], 35, ['28-8', 75]]

$$$$
