
     RDKit          3D

 46 51  0  0  0  0  0  0  0  0999 V2000
   44.9680   34.8280   44.8010 C   0  0  0  0  0  0  0  0  0  0  0  0
   45.6390   34.6980   43.5910 C   0  0  0  0  0  0  0  0  0  0  0  0
   46.7050   33.7700   43.5220 C   0  0  0  0  0  0  0  0  0  0  0  0
   47.0020   33.0710   44.6330 N   0  0  0  0  0  0  0  0  0  0  0  0
   46.3430   33.2090   45.7930 C   0  0  0  0  0  0  0  0  0  0  0  0
   45.3070   34.1100   45.8640 N   0  0  0  0  0  0  0  0  0  0  0  0
   46.6210   32.4800   47.0270 C   0  0  0  0  0  0  0  0  0  0  0  0
   45.7130   32.4590   48.0790 C   0  0  0  0  0  0  0  0  0  0  0  0
   46.2910   31.6810   49.0840 C   0  0  0  0  0  0  0  0  0  0  0  0
   47.4900   31.2690   48.6250 N   0  0  0  0  0  0  0  0  0  0  0  0
   47.6610   31.7590   47.3980 N   0  0  0  0  0  0  0  0  0  0  0  0
   48.9200   29.3990   48.3450 C   0  0  0  0  0  0  0  0  0  0  0  0
   48.5370   30.4680   49.1580 C   0  0  0  0  0  0  0  0  0  0  0  0
   49.1600   30.6860   50.3750 C   0  0  0  0  0  0  0  0  0  0  0  0
   50.1730   29.8250   50.7780 C   0  0  0  0  0  0  0  0  0  0  0  0
   50.9060   29.8470   51.9060 N   0  0  0  0  0  0  0  0  0  0  0  0
   51.7580   28.7860   51.8040 C   0  0  0  0  0  0  0  0  0  0  0  0
   51.5320   28.1500   50.6400 N   0  0  0  0  0  0  0  0  0  0  0  0
   50.5350   28.7750   49.9580 C   0  0  0  0  0  0  0  0  0  0  0  0
   49.9370   28.5290   48.7400 C   0  0  0  0  0  0  0  0  0  0  0  0
   45.3420   35.4110   42.4450 O   0  0  0  0  0  0  0  0  0  0  0  0
   44.3810   35.0520   41.5120 C   0  0  0  0  0  0  0  0  0  0  0  0
   44.5510   34.2060   40.4420 C   0  0  0  0  0  0  0  0  0  0  0  0
   43.4890   33.9460   39.5960 C   0  0  0  0  0  0  0  0  0  0  0  0
   42.2380   34.5140   39.7880 C   0  0  0  0  0  0  0  0  0  0  0  0
   41.2590   34.2180   38.9320 N   0  0  0  0  0  0  0  0  0  0  0  0
   40.0220   34.7480   39.0770 C   0  0  0  0  0  0  0  0  0  0  0  0
   39.8210   35.6010   40.1410 C   0  0  0  0  0  0  0  0  0  0  0  0
   40.8450   35.9190   41.0480 C   0  0  0  0  0  0  0  0  0  0  0  0
   42.0860   35.3610   40.8670 C   0  0  0  0  0  0  0  0  0  0  0  0
   43.1410   35.6410   41.7360 C   0  0  0  0  0  0  0  0  0  0  0  0
   44.1360   35.5432   44.8793 H   0  0  0  0  0  0  0  0  0  0  0  0
   47.2723   33.6247   42.5908 H   0  0  0  0  0  0  0  0  0  0  0  0
   44.7327   32.9569   48.1131 H   0  0  0  0  0  0  0  0  0  0  0  0
   45.8512   31.4481   50.0650 H   0  0  0  0  0  0  0  0  0  0  0  0
   48.4137   29.2409   47.3813 H   0  0  0  0  0  0  0  0  0  0  0  0
   48.8572   31.5289   51.0137 H   0  0  0  0  0  0  0  0  0  0  0  0
   50.8384   30.5213   52.6816 H   0  0  0  0  0  0  0  0  0  0  0  0
   52.5094   28.4969   52.5535 H   0  0  0  0  0  0  0  0  0  0  0  0
   50.2479   27.6843   48.1077 H   0  0  0  0  0  0  0  0  0  0  0  0
   45.5292   33.7372   40.2594 H   0  0  0  0  0  0  0  0  0  0  0  0
   43.6407   33.2673   38.7437 H   0  0  0  0  0  0  0  0  0  0  0  0
   39.2103   34.5078   38.3745 H   0  0  0  0  0  0  0  0  0  0  0  0
   38.8259   36.0473   40.2844 H   0  0  0  0  0  0  0  0  0  0  0  0
   40.6559   36.6030   41.8885 H   0  0  0  0  0  0  0  0  0  0  0  0
   42.9938   36.3200   42.5888 H   0  0  0  0  0  0  0  0  0  0  0  0
  1  6  2  0
  2  1  1  0
  3  2  2  0
  3  4  1  0
  4  5  2  0
  5  6  1  0
  5  7  1  0
  7 11  2  0
  7  8  1  0
  8  9  2  0
 10  9  1  0
 10 13  1  0
 11 10  1  0
 12 20  2  0
 12 13  1  0
 13 14  2  0
 14 15  1  0
 15 16  1  0
 17 16  1  0
 18 17  2  0
 19 18  1  0
 19 15  2  0
 20 19  1  0
 21  2  1  0
 22 31  1  0
 22 21  1  0
 23 22  2  0
 24 25  2  0
 24 23  1  0
 25 30  1  0
 26 27  2  0
 26 25  1  0
 27 28  1  0
 28 29  2  0
 30 29  1  0
 30 31  2  0
  1 32  1  0
  3 33  1  0
  8 34  1  0
  9 35  1  0
 12 36  1  0
 14 37  1  0
 16 38  1  0
 17 39  1  0
 20 40  1  0
 23 41  1  0
 24 42  1  0
 27 43  1  0
 28 44  1  0
 29 45  1  0
 31 46  1  0
M  END
>  <Score>  (1) 
-7.70982

>  <Score_dual>  (1) 
-7.85

>  <Choices>  (1) 
[None, 7, ['2-1', 0], 10, ['36-22', 315], 25, ['22-8', 345], 32, ['34-14', 270]]

$$$$
