
     RDKit          3D

 43 47  0  0  0  0  0  0  0  0999 V2000
   44.4880   35.5740   44.7510 C   0  0  0  0  0  0  0  0  0  0  0  0
   44.6140   35.1700   43.4310 C   0  0  0  0  0  0  0  0  0  0  0  0
   45.2700   33.9330   43.1730 C   0  0  0  0  0  0  0  0  0  0  0  0
   45.7230   33.2390   44.2330 N   0  0  0  0  0  0  0  0  0  0  0  0
   45.5870   33.6570   45.5060 C   0  0  0  0  0  0  0  0  0  0  0  0
   44.9590   34.8380   45.7420 N   0  0  0  0  0  0  0  0  0  0  0  0
   46.0650   32.9310   46.6770 C   0  0  0  0  0  0  0  0  0  0  0  0
   45.2570   32.7590   47.8090 C   0  0  0  0  0  0  0  0  0  0  0  0
   46.0000   32.0360   48.7280 C   0  0  0  0  0  0  0  0  0  0  0  0
   47.1960   31.7930   48.1590 N   0  0  0  0  0  0  0  0  0  0  0  0
   47.2120   32.3350   46.9380 N   0  0  0  0  0  0  0  0  0  0  0  0
   47.3880   28.8820   47.4190 Cl  0  0  0  0  0  0  0  0  0  0  0  0
   48.5890   29.7560   48.3490 C   0  0  0  0  0  0  0  0  0  0  0  0
   48.3530   31.1080   48.6100 C   0  0  0  0  0  0  0  0  0  0  0  0
   49.2580   31.8530   49.3350 C   0  0  0  0  0  0  0  0  0  0  0  0
   50.4160   31.2510   49.8110 C   0  0  0  0  0  0  0  0  0  0  0  0
   50.6680   29.8970   49.5590 C   0  0  0  0  0  0  0  0  0  0  0  0
   49.7560   29.1480   48.8280 C   0  0  0  0  0  0  0  0  0  0  0  0
   44.1560   35.8680   42.3300 O   0  0  0  0  0  0  0  0  0  0  0  0
   43.4220   35.3150   41.2870 C   0  0  0  0  0  0  0  0  0  0  0  0
   43.9100   34.6120   40.2070 C   0  0  0  0  0  0  0  0  0  0  0  0
   43.0550   34.1240   39.2510 C   0  0  0  0  0  0  0  0  0  0  0  0
   41.6910   34.3090   39.3220 C   0  0  0  0  0  0  0  0  0  0  0  0
   40.9010   33.8160   38.3690 N   0  0  0  0  0  0  0  0  0  0  0  0
   39.5610   33.9820   38.4150 C   0  0  0  0  0  0  0  0  0  0  0  0
   39.0330   34.6770   39.4720 C   0  0  0  0  0  0  0  0  0  0  0  0
   39.8460   35.2050   40.4880 C   0  0  0  0  0  0  0  0  0  0  0  0
   41.2140   35.0130   40.4070 C   0  0  0  0  0  0  0  0  0  0  0  0
   42.0500   35.5280   41.4020 C   0  0  0  0  0  0  0  0  0  0  0  0
   43.9860   36.5261   44.9779 H   0  0  0  0  0  0  0  0  0  0  0  0
   45.4014   33.5591   42.1469 H   0  0  0  0  0  0  0  0  0  0  0  0
   44.2292   33.1276   47.9424 H   0  0  0  0  0  0  0  0  0  0  0  0
   45.6751   31.7208   49.7305 H   0  0  0  0  0  0  0  0  0  0  0  0
   49.0646   32.9172   49.5354 H   0  0  0  0  0  0  0  0  0  0  0  0
   51.1403   31.8425   50.3902 H   0  0  0  0  0  0  0  0  0  0  0  0
   51.5871   29.4275   49.9396 H   0  0  0  0  0  0  0  0  0  0  0  0
   49.9488   28.0840   48.6264 H   0  0  0  0  0  0  0  0  0  0  0  0
   44.9923   34.4408   40.1105 H   0  0  0  0  0  0  0  0  0  0  0  0
   43.4722   33.5665   38.3995 H   0  0  0  0  0  0  0  0  0  0  0  0
   38.9125   33.5714   37.6271 H   0  0  0  0  0  0  0  0  0  0  0  0
   37.9443   34.8249   39.5257 H   0  0  0  0  0  0  0  0  0  0  0  0
   39.4051   35.7591   41.3298 H   0  0  0  0  0  0  0  0  0  0  0  0
   41.6353   36.0870   42.2538 H   0  0  0  0  0  0  0  0  0  0  0  0
  1  6  2  0
  2  1  1  0
  3  2  2  0
  3  4  1  0
  4  5  2  0
  5  6  1  0
  5  7  1  0
  7 11  2  0
  7  8  1  0
  8  9  2  0
 10 14  1  0
 10  9  1  0
 11 10  1  0
 12 13  1  0
 13 14  2  0
 13 18  1  0
 14 15  1  0
 15 16  2  0
 17 16  1  0
 18 17  2  0
 19  2  1  0
 20 29  1  0
 20 19  1  0
 21 20  2  0
 22 23  2  0
 22 21  1  0
 23 28  1  0
 24 25  2  0
 24 23  1  0
 25 26  1  0
 26 27  2  0
 28 27  1  0
 28 29  2  0
  1 30  1  0
  3 31  1  0
  8 32  1  0
  9 33  1  0
 15 34  1  0
 16 35  1  0
 17 36  1  0
 18 37  1  0
 21 38  1  0
 22 39  1  0
 25 40  1  0
 26 41  1  0
 27 42  1  0
 29 43  1  0
M  END
>  <Score>  (1) 
-7.69548

>  <Score_dual>  (1) 
-7.45

>  <Choices>  (1) 
[None, 7, ['2-1', 0], 10, ['36-22', 315], 25, ['22-8', 345], 32, ['7-6', 270]]

$$$$
