
     RDKit          3D

 52 55  0  0  0  0  0  0  0  0999 V2000
   44.6610   35.7720   44.7710 C   0  0  0  0  0  0  0  0  0  0  0  0
   44.1020   35.9840   43.4990 C   0  0  0  0  0  0  0  0  0  0  0  0
   44.1790   34.9410   42.6100 C   0  0  0  0  0  0  0  0  0  0  0  0
   44.7710   33.7820   42.9670 N   0  0  0  0  0  0  0  0  0  0  0  0
   45.2890   33.6430   44.2060 C   0  0  0  0  0  0  0  0  0  0  0  0
   45.2450   34.5950   45.0910 N   0  0  0  0  0  0  0  0  0  0  0  0
   45.9210   32.3420   44.5280 C   0  0  0  0  0  0  0  0  0  0  0  0
   46.7240   32.4880   45.7880 C   0  0  0  0  0  0  0  0  0  0  0  0
   46.1390   31.7860   46.9070 C   0  0  0  0  0  0  0  0  0  0  0  0
   45.3850   32.2790   47.9400 C   0  0  0  0  0  0  0  0  0  0  0  0
   44.8830   31.5260   48.9460 C   0  0  0  0  0  0  0  0  0  0  0  0
   45.1450   30.1690   48.9350 C   0  0  0  0  0  0  0  0  0  0  0  0
   45.9010   29.6560   47.9060 C   0  0  0  0  0  0  0  0  0  0  0  0
   46.4000   30.4460   46.8960 C   0  0  0  0  0  0  0  0  0  0  0  0
   48.4890   29.3470   46.3840 C   0  0  0  0  0  0  0  0  0  0  0  0
   49.3120   29.6710   47.3170 O   0  0  0  0  0  0  0  0  0  0  0  0
   47.1370   29.5940   46.0000 N   0  0  0  0  0  0  0  0  0  0  0  0
   43.5850   35.1690   41.2570 C   0  0  0  0  0  0  0  0  0  0  0  0
   42.0910   35.3210   41.3300 C   0  0  0  0  0  0  0  0  0  0  0  0
   41.4430   35.2620   40.0150 C   0  0  0  0  0  0  0  0  0  0  0  0
   42.0620   35.9570   38.9850 C   0  0  0  0  0  0  0  0  0  0  0  0
   41.5700   35.9840   37.6820 C   0  0  0  0  0  0  0  0  0  0  0  0
   40.4140   35.2870   37.3980 C   0  0  0  0  0  0  0  0  0  0  0  0
   39.7840   34.5870   38.4140 C   0  0  0  0  0  0  0  0  0  0  0  0
   38.6210   33.8980   38.0980 C   0  0  0  0  0  0  0  0  0  0  0  0
   38.0140   33.2080   39.1500 C   0  0  0  0  0  0  0  0  0  0  0  0
   38.5110   33.1930   40.4260 C   0  0  0  0  0  0  0  0  0  0  0  0
   39.6680   33.8900   40.6970 C   0  0  0  0  0  0  0  0  0  0  0  0
   40.3010   34.5850   39.6930 C   0  0  0  0  0  0  0  0  0  0  0  0
   44.6228   36.5774   45.5192 H   0  0  0  0  0  0  0  0  0  0  0  0
   43.6264   36.9385   43.2293 H   0  0  0  0  0  0  0  0  0  0  0  0
   45.1418   31.5793   44.6734 H   0  0  0  0  0  0  0  0  0  0  0  0
   46.5783   32.0332   43.7018 H   0  0  0  0  0  0  0  0  0  0  0  0
   47.7332   32.0880   45.6104 H   0  0  0  0  0  0  0  0  0  0  0  0
   46.7493   33.5576   46.0436 H   0  0  0  0  0  0  0  0  0  0  0  0
   45.1739   33.3585   47.9520 H   0  0  0  0  0  0  0  0  0  0  0  0
   44.2840   31.9805   49.7489 H   0  0  0  0  0  0  0  0  0  0  0  0
   44.7583   29.5145   49.7301 H   0  0  0  0  0  0  0  0  0  0  0  0
   46.1138   28.5769   47.8903 H   0  0  0  0  0  0  0  0  0  0  0  0
   48.9750   28.6746   45.6617 H   0  0  0  0  0  0  0  0  0  0  0  0
   46.7206   29.1935   45.1473 H   0  0  0  0  0  0  0  0  0  0  0  0
   43.8260   34.3114   40.6116 H   0  0  0  0  0  0  0  0  0  0  0  0
   44.0070   36.0983   40.8468 H   0  0  0  0  0  0  0  0  0  0  0  0
   41.6867   34.5122   41.9564 H   0  0  0  0  0  0  0  0  0  0  0  0
   41.8820   36.3138   41.7551 H   0  0  0  0  0  0  0  0  0  0  0  0
   42.9847   36.5127   39.2083 H   0  0  0  0  0  0  0  0  0  0  0  0
   42.0924   36.5493   36.8961 H   0  0  0  0  0  0  0  0  0  0  0  0
   39.9984   35.2870   36.3795 H   0  0  0  0  0  0  0  0  0  0  0  0
   38.2027   33.8956   37.0806 H   0  0  0  0  0  0  0  0  0  0  0  0
   37.0899   32.6483   38.9430 H   0  0  0  0  0  0  0  0  0  0  0  0
   37.9953   32.6341   41.2208 H   0  0  0  0  0  0  0  0  0  0  0  0
   40.0850   33.8907   41.7149 H   0  0  0  0  0  0  0  0  0  0  0  0
  1  6  2  0
  2  1  1  0
  3  4  1  0
  3  2  2  0
  4  5  2  0
  5  7  1  0
  5  6  1  0
  7  8  1  0
  8  9  1  0
  9 10  2  0
 10 11  1  0
 12 11  2  0
 13 12  1  0
 14  9  1  0
 14 13  2  0
 15 16  2  0
 17 15  1  0
 17 14  1  0
 18 19  1  0
 18  3  1  0
 20 19  1  0
 21 20  2  0
 22 21  1  0
 23 22  2  0
 23 24  1  0
 24 29  2  0
 25 24  1  0
 25 26  2  0
 26 27  1  0
 27 28  2  0
 29 20  1  0
 29 28  1  0
  1 30  1  0
  2 31  1  0
  7 32  1  0
  7 33  1  0
  8 34  1  0
  8 35  1  0
 10 36  1  0
 11 37  1  0
 12 38  1  0
 13 39  1  0
 15 40  1  0
 17 41  1  0
 18 42  1  0
 18 43  1  0
 19 44  1  0
 19 45  1  0
 21 46  1  0
 22 47  1  0
 23 48  1  0
 25 49  1  0
 26 50  1  0
 27 51  1  0
 28 52  1  0
M  END
>  <Score>  (1) 
-7.20224

>  <Score_dual>  (1) 
-7.02

>  <Choices>  (1) 
[None, 9, ['4-11', 330], 15, ['1-23', 180], 25, ['12-6', 30], 29, ['4-11', 90], 35, ['26-22', 60]]

$$$$
