
     RDKit          3D

 56 61  0  0  0  0  0  0  0  0999 V2000
   45.6610   33.8390   45.4560 C   0  0  0  0  0  0  0  0  0  0  0  0
   44.7590   34.7510   45.8330 N   0  0  0  0  0  0  0  0  0  0  0  0
   44.4120   35.8200   45.1280 C   0  0  0  0  0  0  0  0  0  0  0  0
   44.9840   36.0500   43.9270 N   0  0  0  0  0  0  0  0  0  0  0  0
   45.9060   35.2100   43.4300 C   0  0  0  0  0  0  0  0  0  0  0  0
   46.5150   35.4370   42.2050 C   0  0  0  0  0  0  0  0  0  0  0  0
   47.4600   34.5990   41.7040 C   0  0  0  0  0  0  0  0  0  0  0  0
   47.7950   33.5070   42.4610 C   0  0  0  0  0  0  0  0  0  0  0  0
   47.1610   33.3110   43.6850 C   0  0  0  0  0  0  0  0  0  0  0  0
   46.2200   34.1210   44.2150 C   0  0  0  0  0  0  0  0  0  0  0  0
   47.5660   32.0210   47.9400 C   0  0  0  0  0  0  0  0  0  0  0  0
   47.0770   30.7100   47.9290 C   0  0  0  0  0  0  0  0  0  0  0  0
   46.0530   30.4400   47.0600 C   0  0  0  0  0  0  0  0  0  0  0  0
   45.5750   31.4120   46.2730 N   0  0  0  0  0  0  0  0  0  0  0  0
   46.0280   32.6550   46.2670 C   0  0  0  0  0  0  0  0  0  0  0  0
   47.0320   32.9380   47.1200 N   0  0  0  0  0  0  0  0  0  0  0  0
   45.5030   29.1800   47.0170 N   0  0  0  0  0  0  0  0  0  0  0  0
   44.2850   28.8250   46.2350 C   0  0  0  0  0  0  0  0  0  0  0  0
   44.2080   27.3260   46.2510 C   0  0  0  0  0  0  0  0  0  0  0  0
   44.9020   26.9710   47.5290 C   0  0  0  0  0  0  0  0  0  0  0  0
   45.9610   28.0060   47.6910 C   0  0  0  0  0  0  0  0  0  0  0  0
   47.6930   29.7890   48.7260 N   0  0  0  0  0  0  0  0  0  0  0  0
   48.8150   32.6230   41.9000 C   0  0  0  0  0  0  0  0  0  0  0  0
   50.1630   32.8970   42.1490 C   0  0  0  0  0  0  0  0  0  0  0  0
   51.1400   32.0730   41.6260 C   0  0  0  0  0  0  0  0  0  0  0  0
   50.8540   30.9770   40.8600 C   0  0  0  0  0  0  0  0  0  0  0  0
   49.5240   30.7180   40.6220 C   0  0  0  0  0  0  0  0  0  0  0  0
   49.1750   29.6280   39.8580 C   0  0  0  0  0  0  0  0  0  0  0  0
   47.8560   29.3300   39.5950 C   0  0  0  0  0  0  0  0  0  0  0  0
   46.8450   30.1190   40.0920 C   0  0  0  0  0  0  0  0  0  0  0  0
   47.2020   31.2200   40.8630 C   0  0  0  0  0  0  0  0  0  0  0  0
   48.5120   31.5130   41.1240 C   0  0  0  0  0  0  0  0  0  0  0  0
   47.6280   32.1070   44.3060 N   0  0  0  0  0  0  0  0  0  0  0  0
   43.6588   36.5183   45.5218 H   0  0  0  0  0  0  0  0  0  0  0  0
   46.2241   36.3226   41.6210 H   0  0  0  0  0  0  0  0  0  0  0  0
   47.9364   34.7893   40.7310 H   0  0  0  0  0  0  0  0  0  0  0  0
   48.3857   32.2985   48.6190 H   0  0  0  0  0  0  0  0  0  0  0  0
   44.3730   29.1926   45.2020 H   0  0  0  0  0  0  0  0  0  0  0  0
   43.3813   29.2804   46.6663 H   0  0  0  0  0  0  0  0  0  0  0  0
   43.1628   26.9832   46.2594 H   0  0  0  0  0  0  0  0  0  0  0  0
   44.6613   26.8575   45.3650 H   0  0  0  0  0  0  0  0  0  0  0  0
   44.1977   27.0025   48.3734 H   0  0  0  0  0  0  0  0  0  0  0  0
   45.3183   25.9531   47.5050 H   0  0  0  0  0  0  0  0  0  0  0  0
   46.9029   27.6563   47.2432 H   0  0  0  0  0  0  0  0  0  0  0  0
   46.1497   28.2120   48.7549 H   0  0  0  0  0  0  0  0  0  0  0  0
   47.3580   28.8151   48.7415 H   0  0  0  0  0  0  0  0  0  0  0  0
   48.4929   30.0678   49.3119 H   0  0  0  0  0  0  0  0  0  0  0  0
   50.4449   33.7671   42.7602 H   0  0  0  0  0  0  0  0  0  0  0  0
   52.1940   32.3085   41.8347 H   0  0  0  0  0  0  0  0  0  0  0  0
   51.6486   30.3338   40.4539 H   0  0  0  0  0  0  0  0  0  0  0  0
   49.9654   28.9815   39.4489 H   0  0  0  0  0  0  0  0  0  0  0  0
   47.6087   28.4515   38.9809 H   0  0  0  0  0  0  0  0  0  0  0  0
   45.7896   29.8870   39.8866 H   0  0  0  0  0  0  0  0  0  0  0  0
   46.4136   31.8692   41.2717 H   0  0  0  0  0  0  0  0  0  0  0  0
   47.2532   31.8210   45.2218 H   0  0  0  0  0  0  0  0  0  0  0  0
   48.3385   31.5276   43.8366 H   0  0  0  0  0  0  0  0  0  0  0  0
  1  2  2  0
  1 15  1  0
  3  2  1  0
  4  3  2  0
  5  4  1  0
  5 10  2  0
  6  5  1  0
  7  6  2  0
  7  8  1  0
  8  9  2  0
  9 10  1  0
  9 33  1  0
 10  1  1  0
 12 11  2  0
 12 22  1  0
 13 12  1  0
 14 13  2  0
 15 14  1  0
 15 16  2  0
 16 11  1  0
 17 13  1  0
 17 21  1  0
 18 19  1  0
 18 17  1  0
 19 20  1  0
 20 21  1  0
 23 24  2  0
 23  8  1  0
 25 24  1  0
 26 25  2  0
 27 26  1  0
 27 32  2  0
 28 27  1  0
 29 28  2  0
 29 30  1  0
 30 31  2  0
 31 32  1  0
 32 23  1  0
  3 34  1  0
  6 35  1  0
  7 36  1  0
 11 37  1  0
 18 38  1  0
 18 39  1  0
 19 40  1  0
 19 41  1  0
 20 42  1  0
 20 43  1  0
 21 44  1  0
 21 45  1  0
 22 46  1  0
 22 47  1  0
 24 48  1  0
 25 49  1  0
 26 50  1  0
 28 51  1  0
 29 52  1  0
 30 53  1  0
 31 54  1  0
 33 55  1  0
 33 56  1  0
M  END
>  <Score>  (1) 
-7.32524

>  <Score_dual>  (1) 
-7.37

>  <Choices>  (1) 
[None, 7, ['0-3', 0], 9, ['47-23', 255], 23, ['13-3', 105], 35, ['0-3', 0], 35, ['26-26', 30]]

$$$$
