
     RDKit          3D

 49 54  0  0  0  0  0  0  0  0999 V2000
   44.4550   35.6830   44.5910 C   0  0  0  0  0  0  0  0  0  0  0  0
   44.4150   35.2300   43.2850 C   0  0  0  0  0  0  0  0  0  0  0  0
   44.9520   33.9480   43.0200 C   0  0  0  0  0  0  0  0  0  0  0  0
   45.4680   33.2450   44.0400 N   0  0  0  0  0  0  0  0  0  0  0  0
   45.4980   33.6990   45.2940 C   0  0  0  0  0  0  0  0  0  0  0  0
   44.9780   34.9460   45.5670 N   0  0  0  0  0  0  0  0  0  0  0  0
   46.0410   32.9920   46.4440 C   0  0  0  0  0  0  0  0  0  0  0  0
   45.3190   32.8570   47.6390 C   0  0  0  0  0  0  0  0  0  0  0  0
   46.1070   32.1400   48.5220 C   0  0  0  0  0  0  0  0  0  0  0  0
   47.2550   31.8640   47.8690 N   0  0  0  0  0  0  0  0  0  0  0  0
   47.2020   32.3790   46.6260 N   0  0  0  0  0  0  0  0  0  0  0  0
   48.2930   31.1290   48.5050 C   0  0  0  0  0  0  0  0  0  0  0  0
   49.1220   31.8110   49.3480 C   0  0  0  0  0  0  0  0  0  0  0  0
   50.1590   31.2200   50.0220 C   0  0  0  0  0  0  0  0  0  0  0  0
   50.3890   29.8530   49.8450 C   0  0  0  0  0  0  0  0  0  0  0  0
   49.5460   29.1780   48.9920 C   0  0  0  0  0  0  0  0  0  0  0  0
   49.7480   27.8300   48.7970 C   0  0  0  0  0  0  0  0  0  0  0  0
   48.9050   27.1190   47.9350 C   0  0  0  0  0  0  0  0  0  0  0  0
   47.8570   27.7600   47.2660 C   0  0  0  0  0  0  0  0  0  0  0  0
   47.6470   29.1270   47.4600 C   0  0  0  0  0  0  0  0  0  0  0  0
   48.5040   29.7760   48.3170 C   0  0  0  0  0  0  0  0  0  0  0  0
   43.8890   35.9340   42.2190 O   0  0  0  0  0  0  0  0  0  0  0  0
   43.1670   35.3680   41.1650 C   0  0  0  0  0  0  0  0  0  0  0  0
   43.6740   34.7670   40.0490 C   0  0  0  0  0  0  0  0  0  0  0  0
   42.8290   34.2590   39.1010 C   0  0  0  0  0  0  0  0  0  0  0  0
   41.4470   34.3230   39.2160 C   0  0  0  0  0  0  0  0  0  0  0  0
   40.6640   33.8190   38.2770 N   0  0  0  0  0  0  0  0  0  0  0  0
   39.3290   33.8590   38.3490 C   0  0  0  0  0  0  0  0  0  0  0  0
   38.7890   34.4640   39.4720 C   0  0  0  0  0  0  0  0  0  0  0  0
   39.5920   35.0060   40.4840 C   0  0  0  0  0  0  0  0  0  0  0  0
   40.9580   34.9300   40.3460 C   0  0  0  0  0  0  0  0  0  0  0  0
   41.7870   35.4670   41.3450 C   0  0  0  0  0  0  0  0  0  0  0  0
   44.0448   36.6757   44.8282 H   0  0  0  0  0  0  0  0  0  0  0  0
   44.9466   33.5365   41.9999 H   0  0  0  0  0  0  0  0  0  0  0  0
   44.3108   33.2494   47.8378 H   0  0  0  0  0  0  0  0  0  0  0  0
   45.8488   31.8522   49.5518 H   0  0  0  0  0  0  0  0  0  0  0  0
   48.9495   32.8876   49.4936 H   0  0  0  0  0  0  0  0  0  0  0  0
   50.8000   31.8123   50.6916 H   0  0  0  0  0  0  0  0  0  0  0  0
   51.2097   29.3380   50.3658 H   0  0  0  0  0  0  0  0  0  0  0  0
   50.5687   27.3139   49.3166 H   0  0  0  0  0  0  0  0  0  0  0  0
   49.0688   26.0421   47.7817 H   0  0  0  0  0  0  0  0  0  0  0  0
   47.2017   27.1903   46.5907 H   0  0  0  0  0  0  0  0  0  0  0  0
   46.8318   29.6609   46.9496 H   0  0  0  0  0  0  0  0  0  0  0  0
   44.7628   34.6912   39.9121 H   0  0  0  0  0  0  0  0  0  0  0  0
   43.2624   33.7799   38.2107 H   0  0  0  0  0  0  0  0  0  0  0  0
   38.6935   33.4339   37.5582 H   0  0  0  0  0  0  0  0  0  0  0  0
   37.6951   34.5207   39.5724 H   0  0  0  0  0  0  0  0  0  0  0  0
   39.1407   35.4809   41.3676 H   0  0  0  0  0  0  0  0  0  0  0  0
   41.3628   35.9489   42.2382 H   0  0  0  0  0  0  0  0  0  0  0  0
  1  6  2  0
  2  1  1  0
  3  2  2  0
  3  4  1  0
  4  5  2  0
  5  6  1  0
  5  7  1  0
  7 11  2  0
  7  8  1  0
  8  9  2  0
 10 12  1  0
 10  9  1  0
 11 10  1  0
 12 13  2  0
 13 14  1  0
 15 14  2  0
 16 15  1  0
 17 16  2  0
 18 17  1  0
 19 20  1  0
 19 18  2  0
 20 21  2  0
 21 12  1  0
 21 16  1  0
 22  2  1  0
 23 32  1  0
 23 22  1  0
 24 23  2  0
 25 26  2  0
 25 24  1  0
 26 31  1  0
 27 28  2  0
 27 26  1  0
 28 29  1  0
 29 30  2  0
 31 30  1  0
 31 32  2  0
  1 33  1  0
  3 34  1  0
  8 35  1  0
  9 36  1  0
 13 37  1  0
 14 38  1  0
 15 39  1  0
 17 40  1  0
 18 41  1  0
 19 42  1  0
 20 43  1  0
 24 44  1  0
 25 45  1  0
 28 46  1  0
 29 47  1  0
 30 48  1  0
 32 49  1  0
M  END
>  <Score>  (1) 
-7.97751

>  <Score_dual>  (1) 
-7.7

>  <Choices>  (1) 
[None, 7, ['2-1', 0], 10, ['36-22', 315], 25, ['22-8', 345], 32, ['26-18', 345]]

$$$$
