
     RDKit          3D

 40 44  0  0  0  0  0  0  0  0999 V2000
   45.6160   34.8080   43.5060 C   0  0  0  0  0  0  0  0  0  0  0  0
   46.3150   33.7320   44.1080 C   0  0  0  0  0  0  0  0  0  0  0  0
   46.0820   33.5080   45.4630 C   0  0  0  0  0  0  0  0  0  0  0  0
   45.2320   34.2970   46.1180 N   0  0  0  0  0  0  0  0  0  0  0  0
   44.5720   35.3220   45.5240 C   0  0  0  0  0  0  0  0  0  0  0  0
   44.7690   35.5630   44.2380 N   0  0  0  0  0  0  0  0  0  0  0  0
   46.9890   32.6800   47.5620 C   0  0  0  0  0  0  0  0  0  0  0  0
   46.7490   32.4260   46.2010 C   0  0  0  0  0  0  0  0  0  0  0  0
   47.1400   31.2360   45.6700 C   0  0  0  0  0  0  0  0  0  0  0  0
   47.7640   30.2640   46.4170 C   0  0  0  0  0  0  0  0  0  0  0  0
   48.2300   29.0330   46.1070 N   0  0  0  0  0  0  0  0  0  0  0  0
   48.7660   28.5060   47.2680 C   0  0  0  0  0  0  0  0  0  0  0  0
   48.6180   29.4150   48.2560 N   0  0  0  0  0  0  0  0  0  0  0  0
   48.0100   30.4870   47.7480 C   0  0  0  0  0  0  0  0  0  0  0  0
   47.6210   31.6970   48.3230 C   0  0  0  0  0  0  0  0  0  0  0  0
   45.8480   35.0350   42.1440 O   0  0  0  0  0  0  0  0  0  0  0  0
   44.8970   34.6440   41.2120 C   0  0  0  0  0  0  0  0  0  0  0  0
   45.6070   33.7550   40.4840 C   0  0  0  0  0  0  0  0  0  0  0  0
   44.3110   33.2110   39.2050 S   0  0  0  0  0  0  0  0  0  0  0  0
   43.0590   34.3620   39.9850 C   0  0  0  0  0  0  0  0  0  0  0  0
   43.6620   34.7960   40.7980 N   0  0  0  0  0  0  0  0  0  0  0  0
   40.7980   32.9440   41.4830 Cl  0  0  0  0  0  0  0  0  0  0  0  0
   40.6150   33.8270   39.9840 C   0  0  0  0  0  0  0  0  0  0  0  0
   41.6890   34.4240   39.3990 C   0  0  0  0  0  0  0  0  0  0  0  0
   41.6480   35.1280   38.2420 C   0  0  0  0  0  0  0  0  0  0  0  0
   40.3950   35.2320   37.6270 C   0  0  0  0  0  0  0  0  0  0  0  0
   39.3000   34.6310   38.2120 C   0  0  0  0  0  0  0  0  0  0  0  0
   39.3730   33.9190   39.3920 C   0  0  0  0  0  0  0  0  0  0  0  0
   47.0094   33.1028   43.5319 H   0  0  0  0  0  0  0  0  0  0  0  0
   43.8791   35.9474   46.1061 H   0  0  0  0  0  0  0  0  0  0  0  0
   46.6848   33.6339   48.0175 H   0  0  0  0  0  0  0  0  0  0  0  0
   46.9501   31.0440   44.6037 H   0  0  0  0  0  0  0  0  0  0  0  0
   48.1929   28.5762   45.1846 H   0  0  0  0  0  0  0  0  0  0  0  0
   49.2332   27.5153   47.3694 H   0  0  0  0  0  0  0  0  0  0  0  0
   47.8153   31.8781   49.3905 H   0  0  0  0  0  0  0  0  0  0  0  0
   46.6524   33.4330   40.6000 H   0  0  0  0  0  0  0  0  0  0  0  0
   42.5478   35.5912   37.8108 H   0  0  0  0  0  0  0  0  0  0  0  0
   40.2844   35.7886   36.6847 H   0  0  0  0  0  0  0  0  0  0  0  0
   38.3231   34.7235   37.7149 H   0  0  0  0  0  0  0  0  0  0  0  0
   38.4845   33.4483   39.8381 H   0  0  0  0  0  0  0  0  0  0  0  0
  1  2  2  0
  1  6  1  0
  2  3  1  0
  3  4  2  0
  3  8  1  0
  5  4  1  0
  6  5  2  0
  7 15  2  0
  8  7  1  0
  9  8  2  0
  9 10  1  0
 10 14  2  0
 11 10  1  0
 11 12  1  0
 12 13  2  0
 14 13  1  0
 14 15  1  0
 16  1  1  0
 17 16  1  0
 18 17  2  0
 19 20  1  0
 19 18  1  0
 20 21  2  0
 21 17  1  0
 23 22  1  0
 24 23  2  0
 24 20  1  0
 25 24  1  0
 26 27  1  0
 26 25  2  0
 27 28  2  0
 28 23  1  0
  2 29  1  0
  5 30  1  0
  7 31  1  0
  9 32  1  0
 11 33  1  0
 12 34  1  0
 15 35  1  0
 18 36  1  0
 25 37  1  0
 26 38  1  0
 27 39  1  0
 28 40  1  0
M  END
>  <Score>  (1) 
-7.09103

>  <Score_dual>  (1) 
-7.23

>  <Choices>  (1) 
[None, 8, ['34-20', 300], 20, ['2-1', 315], 23, ['33-13', 75], 29, ['7-16', 120]]

$$$$
