
     RDKit          3D

 45 48  0  0  1  0  0  0  0  0999 V2000
   44.5750   35.5860   44.6040 C   0  0  0  0  0  0  0  0  0  0  0  0
   45.2340   35.5980   43.3530 C   0  0  0  0  0  0  0  0  0  0  0  0
   46.3210   34.6870   43.1770 C   0  0  0  0  0  0  0  0  0  0  0  0
   46.6670   33.8670   44.1950 N   0  0  0  0  0  0  0  0  0  0  0  0
   46.0040   33.8970   45.3680 C   0  0  0  0  0  0  0  0  0  0  0  0
   44.9580   34.7520   45.5830 N   0  0  0  0  0  0  0  0  0  0  0  0
   46.4360   32.9710   46.4530 C   0  0  2  0  0  0  0  0  0  0  0  0
   46.9570   31.7450   45.7580 C   0  0  0  0  0  0  0  0  0  0  0  0
   46.1000   30.5560   45.7830 C   0  0  0  0  0  0  0  0  0  0  0  0
   45.7970   30.2990   47.2610 C   0  0  0  0  0  0  0  0  0  0  0  0
   45.0150   31.3680   47.8590 C   0  0  0  0  0  0  0  0  0  0  0  0
   45.3780   32.7390   47.4120 C   0  0  0  0  0  0  0  0  0  0  0  0
   44.6810   33.8770   47.9250 N   0  0  0  0  0  0  0  0  0  0  0  0
   47.0140   34.6770   41.8990 C   0  0  0  0  0  0  0  0  0  0  0  0
   48.1660   35.3840   41.7740 C   0  0  0  0  0  0  0  0  0  0  0  0
   48.7920   35.3410   40.5200 C   0  0  0  0  0  0  0  0  0  0  0  0
   48.1830   34.5900   39.5430 C   0  0  0  0  0  0  0  0  0  0  0  0
   47.0290   33.8830   39.6670 C   0  0  0  0  0  0  0  0  0  0  0  0
   46.4590   33.9580   40.9050 N   0  0  0  0  0  0  0  0  0  0  0  0
   46.3870   33.1000   38.6550 C   0  0  0  0  0  0  0  0  0  0  0  0
   46.6970   33.3400   37.3310 C   0  0  0  0  0  0  0  0  0  0  0  0
   46.0970   32.6030   36.3160 C   0  0  0  0  0  0  0  0  0  0  0  0
   45.1770   31.6120   36.5910 C   0  0  0  0  0  0  0  0  0  0  0  0
   44.9170   31.4270   37.9290 C   0  0  0  0  0  0  0  0  0  0  0  0
   45.4730   32.1200   38.9840 C   0  0  0  0  0  0  0  0  0  0  0  0
   43.7333   36.2726   44.7778 H   0  0  0  0  0  0  0  0  0  0  0  0
   44.9228   36.2804   42.5484 H   0  0  0  0  0  0  0  0  0  0  0  0
   47.2363   33.3923   47.0791 H   0  0  0  0  0  0  0  0  0  0  0  0
   47.9132   31.4758   46.2304 H   0  0  0  0  0  0  0  0  0  0  0  0
   47.0295   32.0250   44.6967 H   0  0  0  0  0  0  0  0  0  0  0  0
   45.1693   30.7416   45.2267 H   0  0  0  0  0  0  0  0  0  0  0  0
   46.5894   29.6912   45.3112 H   0  0  0  0  0  0  0  0  0  0  0  0
   45.2341   29.3580   47.3480 H   0  0  0  0  0  0  0  0  0  0  0  0
   46.7565   30.2449   47.7962 H   0  0  0  0  0  0  0  0  0  0  0  0
   44.2139   31.1771   48.5883 H   0  0  0  0  0  0  0  0  0  0  0  0
   43.9218   33.7505   48.6095 H   0  0  0  0  0  0  0  0  0  0  0  0
   44.9381   34.8234   47.6101 H   0  0  0  0  0  0  0  0  0  0  0  0
   48.5861   35.9599   42.6118 H   0  0  0  0  0  0  0  0  0  0  0  0
   49.7288   35.8841   40.3267 H   0  0  0  0  0  0  0  0  0  0  0  0
   48.6797   34.5580   38.5620 H   0  0  0  0  0  0  0  0  0  0  0  0
   47.4266   34.1228   37.0764 H   0  0  0  0  0  0  0  0  0  0  0  0
   46.3619   32.8148   35.2696 H   0  0  0  0  0  0  0  0  0  0  0  0
   44.6906   31.0177   35.8035 H   0  0  0  0  0  0  0  0  0  0  0  0
   44.1885   30.6434   38.1847 H   0  0  0  0  0  0  0  0  0  0  0  0
   45.2032   31.9038   40.0282 H   0  0  0  0  0  0  0  0  0  0  0  0
  1  6  2  0
  2  1  1  0
  3  2  2  0
  3  4  1  0
  4  5  2  0
  5  6  1  0
  5  7  1  0
  7 12  1  0
  8  9  1  0
  8  7  1  0
  9 10  1  0
 10 11  1  0
 12 11  2  0
 12 13  1  0
 14  3  1  0
 15 14  2  0
 16 15  1  0
 17 18  1  0
 17 16  2  0
 18 19  2  0
 19 14  1  0
 20 25  1  0
 20 18  1  0
 21 20  2  0
 22 23  2  0
 22 21  1  0
 23 24  1  0
 24 25  2  0
  1 26  1  0
  2 27  1  0
  7 28  1  1
  8 29  1  0
  8 30  1  0
  9 31  1  0
  9 32  1  0
 10 33  1  0
 10 34  1  0
 11 35  1  0
 13 36  1  0
 13 37  1  0
 15 38  1  0
 16 39  1  0
 17 40  1  0
 21 41  1  0
 22 42  1  0
 23 43  1  0
 24 44  1  0
 25 45  1  0
M  END
>  <Score>  (1) 
-7.38674

>  <Score_dual>  (1) 
-7.07

>  <Choices>  (1) 
[None, 9, ['18-27', 315], 23, ['0-3', 0], 23, ['6-16', 270], 32, ['1-27', 195]]

$$$$
