
     RDKit          3D

 45 48  0  0  1  0  0  0  0  0999 V2000
   46.0980   32.6020   38.8790 C   0  0  2  0  0  0  0  0  0  0  0  0
   46.9870   31.5900   38.2620 C   0  0  0  0  0  0  0  0  0  0  0  0
   46.3790   32.7460   37.4620 C   0  0  1  0  0  0  0  0  0  0  0  0
   46.5590   34.6140   41.9300 C   0  0  0  0  0  0  0  0  0  0  0  0
   47.7660   35.1930   41.5880 C   0  0  0  0  0  0  0  0  0  0  0  0
   48.4490   34.9670   40.4130 C   0  0  0  0  0  0  0  0  0  0  0  0
   47.8860   34.0900   39.5020 C   0  0  0  0  0  0  0  0  0  0  0  0
   46.6920   33.5280   39.8610 C   0  0  0  0  0  0  0  0  0  0  0  0
   46.0750   33.7810   41.0040 N   0  0  0  0  0  0  0  0  0  0  0  0
   44.5100   36.1160   44.7070 C   0  0  0  0  0  0  0  0  0  0  0  0
   45.0950   36.0050   43.4430 C   0  0  0  0  0  0  0  0  0  0  0  0
   45.8750   34.8880   43.1940 C   0  0  0  0  0  0  0  0  0  0  0  0
   46.0320   33.9690   44.1680 N   0  0  0  0  0  0  0  0  0  0  0  0
   45.4400   34.1150   45.3930 C   0  0  0  0  0  0  0  0  0  0  0  0
   44.6910   35.1840   45.6410 N   0  0  0  0  0  0  0  0  0  0  0  0
   45.4210   32.3800   36.5030 O   0  0  0  0  0  0  0  0  0  0  0  0
   45.9510   30.6560   34.6940 O   0  0  0  0  0  0  0  0  0  0  0  0
   46.0760   32.1610   34.9670 P   0  0  1  0  0  0  0  0  0  0  0  0
   45.1480   32.9370   33.8120 O   0  0  0  0  0  0  0  0  0  0  0  0
   47.7160   32.5040   34.8590 O   0  0  0  0  0  0  0  0  0  0  0  0
   48.1920   32.0910   32.5400 C   0  0  2  0  0  0  0  0  0  0  0  0
   48.3800   31.6610   33.9720 C   0  0  1  0  0  0  0  0  0  0  0  0
   49.7270   31.5840   34.2170 O   0  0  0  0  0  0  0  0  0  0  0  0
   50.4370   31.7370   33.0580 C   0  0  0  0  0  0  0  0  0  0  0  0
   49.4700   31.5840   31.9020 C   0  0  2  0  0  0  0  0  0  0  0  0
   48.0600   33.4520   32.3890 O   0  0  0  0  0  0  0  0  0  0  0  0
   49.8420   32.3490   30.8060 O   0  0  0  0  0  0  0  0  0  0  0  0
   45.1583   32.5674   39.4497 H   0  0  0  0  0  0  0  0  0  0  0  0
   48.0623   31.5784   38.4937 H   0  0  0  0  0  0  0  0  0  0  0  0
   47.0020   30.4931   38.1815 H   0  0  0  0  0  0  0  0  0  0  0  0
   46.7394   33.5848   36.8484 H   0  0  0  0  0  0  0  0  0  0  0  0
   48.2170   35.8890   42.3106 H   0  0  0  0  0  0  0  0  0  0  0  0
   49.4074   35.4657   40.2062 H   0  0  0  0  0  0  0  0  0  0  0  0
   48.3719   33.8580   38.5428 H   0  0  0  0  0  0  0  0  0  0  0  0
   43.8861   36.9926   44.9358 H   0  0  0  0  0  0  0  0  0  0  0  0
   44.9417   36.7764   42.6740 H   0  0  0  0  0  0  0  0  0  0  0  0
   45.5838   33.3497   46.1700 H   0  0  0  0  0  0  0  0  0  0  0  0
   44.4704   33.5036   34.2592 H   0  0  0  0  0  0  0  0  0  0  0  0
   47.2660   31.6986   32.0944 H   0  0  0  0  0  0  0  0  0  0  0  0
   47.9284   30.6707   34.1316 H   0  0  0  0  0  0  0  0  0  0  0  0
   50.8989   32.7350   33.0305 H   0  0  0  0  0  0  0  0  0  0  0  0
   51.2365   30.9843   32.9937 H   0  0  0  0  0  0  0  0  0  0  0  0
   49.4046   30.5642   31.4948 H   0  0  0  0  0  0  0  0  0  0  0  0
   48.0184   33.8804   33.2805 H   0  0  0  0  0  0  0  0  0  0  0  0
   50.2529   33.1941   31.1176 H   0  0  0  0  0  0  0  0  0  0  0  0
  1  8  1  0
  2  1  1  0
  3  2  1  0
  3  1  1  0
  4 12  1  0
  5  4  2  0
  6  5  1  0
  7  8  1  0
  7  6  2  0
  8  9  2  0
  9  4  1  0
 10 15  2  0
 11 10  1  0
 12 11  2  0
 12 13  1  0
 13 14  2  0
 14 15  1  0
 16  3  1  0
 18 17  2  0
 18 16  1  1
 19 18  1  0
 20 18  1  0
 21 26  1  0
 21 22  1  0
 22 23  1  0
 22 20  1  0
 24 23  1  0
 25 27  1  0
 25 21  1  0
 25 24  1  0
  1 28  1  6
  2 29  1  0
  2 30  1  0
  3 31  1  1
  5 32  1  0
  6 33  1  0
  7 34  1  0
 10 35  1  0
 11 36  1  0
 14 37  1  0
 19 38  1  0
 21 39  1  6
 22 40  1  6
 24 41  1  0
 24 42  1  0
 25 43  1  6
 26 44  1  0
 27 45  1  0
M  END
>  <Score>  (1) 
-7.35988

>  <Score_dual>  (1) 
-7.32

>  <Choices>  (1) 
[None, 8, ['6-16', 270], 18, ['16-23', 150], 25, ['10-2', 165], 31, ['14-6', 300]]

$$$$
