
     RDKit          3D

 46 50  0  0  1  0  0  0  0  0999 V2000
   45.6920   34.7900   43.4790 C   0  0  0  0  0  0  0  0  0  0  0  0
   46.3890   33.7190   44.0950 C   0  0  0  0  0  0  0  0  0  0  0  0
   46.1290   33.4930   45.4450 C   0  0  0  0  0  0  0  0  0  0  0  0
   45.2590   34.2710   46.0850 N   0  0  0  0  0  0  0  0  0  0  0  0
   44.6040   35.2890   45.4770 C   0  0  0  0  0  0  0  0  0  0  0  0
   44.8230   35.5390   44.1910 N   0  0  0  0  0  0  0  0  0  0  0  0
   47.0140   32.6700   47.5560 C   0  0  0  0  0  0  0  0  0  0  0  0
   46.7840   32.4170   46.2020 C   0  0  0  0  0  0  0  0  0  0  0  0
   47.1730   31.2240   45.6880 C   0  0  0  0  0  0  0  0  0  0  0  0
   47.7860   30.2440   46.4420 C   0  0  0  0  0  0  0  0  0  0  0  0
   48.2460   29.0110   46.1380 N   0  0  0  0  0  0  0  0  0  0  0  0
   48.7700   28.4760   47.3060 C   0  0  0  0  0  0  0  0  0  0  0  0
   48.6170   29.3980   48.2900 N   0  0  0  0  0  0  0  0  0  0  0  0
   48.0220   30.4710   47.7700 C   0  0  0  0  0  0  0  0  0  0  0  0
   47.6380   31.6750   48.3230 C   0  0  0  0  0  0  0  0  0  0  0  0
   45.9440   35.0260   42.1270 O   0  0  0  0  0  0  0  0  0  0  0  0
   45.0710   34.5310   41.1640 C   0  0  0  0  0  0  0  0  0  0  0  0
   45.8990   33.7660   40.4300 C   0  0  0  0  0  0  0  0  0  0  0  0
   44.7200   33.0760   39.1040 S   0  0  0  0  0  0  0  0  0  0  0  0
   43.2990   34.0400   39.9000 C   0  0  0  0  0  0  0  0  0  0  0  0
   43.8280   34.5300   40.7330 N   0  0  0  0  0  0  0  0  0  0  0  0
   41.0330   33.5070   40.4550 C   0  0  1  0  0  0  0  0  0  0  0  0
   41.9190   33.9940   39.3620 C   0  0  1  0  0  0  0  0  0  0  0  0
   41.5320   35.4040   38.9710 C   0  0  0  0  0  0  0  0  0  0  0  0
   40.3020   35.7700   39.5350 O   0  0  0  0  0  0  0  0  0  0  0  0
   40.4300   35.8530   40.9210 C   0  0  0  0  0  0  0  0  0  0  0  0
   40.8310   34.5380   41.5140 C   0  0  1  0  0  0  0  0  0  0  0  0
   39.7960   33.0810   39.9260 O   0  0  0  0  0  0  0  0  0  0  0  0
   39.8470   34.0500   42.3850 O   0  0  0  0  0  0  0  0  0  0  0  0
   47.1010   33.0964   43.5334 H   0  0  0  0  0  0  0  0  0  0  0  0
   43.8934   35.9063   46.0462 H   0  0  0  0  0  0  0  0  0  0  0  0
   46.7133   33.6258   48.0098 H   0  0  0  0  0  0  0  0  0  0  0  0
   46.9916   31.0283   44.6209 H   0  0  0  0  0  0  0  0  0  0  0  0
   48.2139   28.5549   45.2151 H   0  0  0  0  0  0  0  0  0  0  0  0
   49.2278   27.4818   47.4150 H   0  0  0  0  0  0  0  0  0  0  0  0
   47.8256   31.8593   49.3911 H   0  0  0  0  0  0  0  0  0  0  0  0
   46.9762   33.5861   40.5616 H   0  0  0  0  0  0  0  0  0  0  0  0
   41.5315   32.6504   40.9322 H   0  0  0  0  0  0  0  0  0  0  0  0
   41.8351   33.3316   38.4878 H   0  0  0  0  0  0  0  0  0  0  0  0
   42.3085   36.0992   39.3228 H   0  0  0  0  0  0  0  0  0  0  0  0
   41.4381   35.4470   37.8759 H   0  0  0  0  0  0  0  0  0  0  0  0
   41.1960   36.6038   41.1650 H   0  0  0  0  0  0  0  0  0  0  0  0
   39.4545   36.1385   41.3415 H   0  0  0  0  0  0  0  0  0  0  0  0
   41.7692   34.7190   42.0590 H   0  0  0  0  0  0  0  0  0  0  0  0
   39.1759   32.8675   40.6676 H   0  0  0  0  0  0  0  0  0  0  0  0
   40.1349   34.1928   43.3214 H   0  0  0  0  0  0  0  0  0  0  0  0
  1  2  2  0
  1  6  1  0
  2  3  1  0
  3  4  2  0
  3  8  1  0
  5  4  1  0
  6  5  2  0
  7 15  2  0
  8  7  1  0
  9  8  2  0
  9 10  1  0
 10 14  2  0
 11 10  1  0
 11 12  1  0
 12 13  2  0
 14 13  1  0
 14 15  1  0
 16  1  1  0
 17 16  1  0
 18 17  2  0
 19 20  1  0
 19 18  1  0
 20 21  2  0
 21 17  1  0
 22 28  1  0
 22 27  1  0
 23 20  1  0
 23 22  1  0
 24 23  1  0
 24 25  1  0
 25 26  1  0
 26 27  1  0
 27 29  1  0
  2 30  1  0
  5 31  1  0
  7 32  1  0
  9 33  1  0
 11 34  1  0
 12 35  1  0
 15 36  1  0
 18 37  1  0
 22 38  1  1
 23 39  1  6
 24 40  1  0
 24 41  1  0
 26 42  1  0
 26 43  1  0
 27 44  1  1
 28 45  1  0
 29 46  1  0
M  END
>  <Score>  (1) 
-7.27228

>  <Score_dual>  (1) 
-7.46

>  <Choices>  (1) 
[None, 8, ['34-20', 300], 20, ['2-1', 315], 23, ['33-13', 75], 29, ['59-11', 330]]

$$$$
