
     RDKit          3D

 46 49  0  0  0  0  0  0  0  0999 V2000
   45.2980   33.1970   41.1840 F   0  0  0  0  0  0  0  0  0  0  0  0
   46.4480   33.9040   41.0230 C   0  0  0  0  0  0  0  0  0  0  0  0
   46.9120   34.7140   42.0010 C   0  0  0  0  0  0  0  0  0  0  0  0
   48.0850   35.3930   41.7490 C   0  0  0  0  0  0  0  0  0  0  0  0
   48.7740   35.2700   40.5650 C   0  0  0  0  0  0  0  0  0  0  0  0
   48.2390   34.4340   39.6310 C   0  0  0  0  0  0  0  0  0  0  0  0
   47.0860   33.7350   39.8160 C   0  0  0  0  0  0  0  0  0  0  0  0
   44.5170   35.8810   44.6840 C   0  0  0  0  0  0  0  0  0  0  0  0
   45.2290   35.8210   43.4800 C   0  0  0  0  0  0  0  0  0  0  0  0
   46.1430   34.8140   43.2500 C   0  0  0  0  0  0  0  0  0  0  0  0
   46.2890   33.9160   44.2510 N   0  0  0  0  0  0  0  0  0  0  0  0
   45.6100   33.9770   45.3920 C   0  0  0  0  0  0  0  0  0  0  0  0
   44.7210   34.9660   45.6050 N   0  0  0  0  0  0  0  0  0  0  0  0
   45.8470   32.9710   46.3830 N   0  0  0  0  0  0  0  0  0  0  0  0
   45.1260   33.0220   47.6140 C   0  0  0  0  0  0  0  0  0  0  0  0
   45.8400   32.4350   48.7820 C   0  0  0  0  0  0  0  0  0  0  0  0
   46.5650   31.1490   48.4590 C   0  0  0  0  0  0  0  0  0  0  0  0
   47.5340   31.4620   47.3380 C   0  0  0  0  0  0  0  0  0  0  0  0
   46.8130   31.9340   46.0980 C   0  0  0  0  0  0  0  0  0  0  0  0
   46.6350   32.8880   38.7490 C   0  0  0  0  0  0  0  0  0  0  0  0
   46.1840   31.6070   39.0350 C   0  0  0  0  0  0  0  0  0  0  0  0
   45.7570   30.8060   38.0220 C   0  0  0  0  0  0  0  0  0  0  0  0
   45.7680   31.2540   36.7060 C   0  0  0  0  0  0  0  0  0  0  0  0
   46.2300   32.5500   36.4590 C   0  0  0  0  0  0  0  0  0  0  0  0
   46.6620   33.3650   37.4820 C   0  0  0  0  0  0  0  0  0  0  0  0
   47.0640   34.5790   36.9970 O   0  0  0  0  0  0  0  0  0  0  0  0
   48.4861   36.0601   42.5262 H   0  0  0  0  0  0  0  0  0  0  0  0
   49.7095   35.8186   40.3812 H   0  0  0  0  0  0  0  0  0  0  0  0
   48.7688   34.3177   38.6740 H   0  0  0  0  0  0  0  0  0  0  0  0
   43.7913   36.6891   44.8580 H   0  0  0  0  0  0  0  0  0  0  0  0
   45.0574   36.5860   42.7084 H   0  0  0  0  0  0  0  0  0  0  0  0
   44.9096   34.0765   47.8401 H   0  0  0  0  0  0  0  0  0  0  0  0
   44.2209   32.4143   47.4676 H   0  0  0  0  0  0  0  0  0  0  0  0
   46.5755   33.1679   49.1452 H   0  0  0  0  0  0  0  0  0  0  0  0
   45.0799   32.1970   49.5407 H   0  0  0  0  0  0  0  0  0  0  0  0
   47.1122   30.7905   49.3433 H   0  0  0  0  0  0  0  0  0  0  0  0
   45.8574   30.3615   48.1604 H   0  0  0  0  0  0  0  0  0  0  0  0
   48.2241   32.2507   47.6721 H   0  0  0  0  0  0  0  0  0  0  0  0
   48.0821   30.5414   47.0888 H   0  0  0  0  0  0  0  0  0  0  0  0
   46.2897   31.0783   45.6464 H   0  0  0  0  0  0  0  0  0  0  0  0
   47.5640   32.3545   45.4131 H   0  0  0  0  0  0  0  0  0  0  0  0
   46.1720   31.2424   40.0727 H   0  0  0  0  0  0  0  0  0  0  0  0
   45.3984   29.7907   38.2469 H   0  0  0  0  0  0  0  0  0  0  0  0
   45.4238   30.6086   35.8845 H   0  0  0  0  0  0  0  0  0  0  0  0
   46.2490   32.9270   35.4258 H   0  0  0  0  0  0  0  0  0  0  0  0
   47.4016   35.2727   37.6174 H   0  0  0  0  0  0  0  0  0  0  0  0
  2  1  1  0
  2  3  2  0
  3 10  1  0
  4  3  1  0
  5  4  2  0
  6  7  2  0
  6  5  1  0
  7  2  1  0
  8 13  2  0
  9  8  1  0
 10  9  2  0
 10 11  1  0
 11 12  2  0
 12 13  1  0
 12 14  1  0
 14 15  1  0
 15 16  1  0
 17 16  1  0
 18 17  1  0
 19 14  1  0
 19 18  1  0
 20 21  2  0
 20  7  1  0
 22 21  1  0
 23 22  2  0
 24 23  1  0
 24 25  2  0
 25 20  1  0
 26 25  1  0
  4 27  1  0
  5 28  1  0
  6 29  1  0
  8 30  1  0
  9 31  1  0
 15 32  1  0
 15 33  1  0
 16 34  1  0
 16 35  1  0
 17 36  1  0
 17 37  1  0
 18 38  1  0
 18 39  1  0
 19 40  1  0
 19 41  1  0
 21 42  1  0
 22 43  1  0
 23 44  1  0
 24 45  1  0
 26 46  1  0
M  END
>  <Score>  (1) 
-7.96656

>  <Score_dual>  (1) 
-7.01

>  <Choices>  (1) 
[None, 8, ['9-18', 90], 19, ['1-25', 135], 29, ['2-1', 0], 30, ['8-4', 180]]

$$$$
