
     RDKit          3D

 52 56  0  0  1  0  0  0  0  0999 V2000
   44.7520   35.0360   45.3180 C   0  0  0  0  0  0  0  0  0  0  0  0
   45.5440   34.9280   44.1590 C   0  0  0  0  0  0  0  0  0  0  0  0
   46.5070   33.9210   44.0990 C   0  0  0  0  0  0  0  0  0  0  0  0
   46.6030   33.1100   45.1900 N   0  0  0  0  0  0  0  0  0  0  0  0
   45.8310   33.2420   46.2780 C   0  0  0  0  0  0  0  0  0  0  0  0
   44.8920   34.2170   46.3480 N   0  0  0  0  0  0  0  0  0  0  0  0
   47.3720   33.6970   42.9970 N   0  0  0  0  0  0  0  0  0  0  0  0
   46.9690   32.8580   41.9040 C   0  0  0  0  0  0  0  0  0  0  0  0
   48.1490   32.3480   41.1280 C   0  0  0  0  0  0  0  0  0  0  0  0
   49.0880   33.3330   40.7420 N   0  0  0  0  0  0  0  0  0  0  0  0
   49.3130   34.4070   41.6480 C   0  0  2  0  0  0  0  0  0  0  0  0
   48.6750   34.3210   42.9740 C   0  0  0  0  0  0  0  0  0  0  0  0
   48.8480   35.6950   40.9980 C   0  0  0  0  0  0  0  0  0  0  0  0
   49.6510   36.7460   41.3930 F   0  0  0  0  0  0  0  0  0  0  0  0
   47.5770   35.9460   41.5060 F   0  0  0  0  0  0  0  0  0  0  0  0
   48.8570   35.6420   39.6300 F   0  0  0  0  0  0  0  0  0  0  0  0
   45.9910   32.3350   47.4180 C   0  0  0  0  0  0  0  0  0  0  0  0
   44.9890   32.1600   48.3280 C   0  0  0  0  0  0  0  0  0  0  0  0
   45.2080   31.2930   49.3850 C   0  0  0  0  0  0  0  0  0  0  0  0
   46.4230   30.6760   49.4320 C   0  0  0  0  0  0  0  0  0  0  0  0
   47.4480   30.8180   48.5490 C   0  0  0  0  0  0  0  0  0  0  0  0
   47.1730   31.6890   47.5270 N   0  0  0  0  0  0  0  0  0  0  0  0
   48.7830   30.2790   48.5300 C   0  0  0  0  0  0  0  0  0  0  0  0
   48.9510   29.0210   47.9230 C   0  0  0  0  0  0  0  0  0  0  0  0
   50.1280   28.3410   47.8140 C   0  0  0  0  0  0  0  0  0  0  0  0
   51.2600   28.9100   48.3340 C   0  0  0  0  0  0  0  0  0  0  0  0
   51.1880   30.1360   48.9470 C   0  0  0  0  0  0  0  0  0  0  0  0
   52.3130   30.7000   49.5040 C   0  0  0  0  0  0  0  0  0  0  0  0
   52.2800   31.9250   50.1690 C   0  0  0  0  0  0  0  0  0  0  0  0
   51.0240   32.5390   50.2330 C   0  0  0  0  0  0  0  0  0  0  0  0
   49.9230   31.9440   49.6640 C   0  0  0  0  0  0  0  0  0  0  0  0
   49.9690   30.7520   49.0160 C   0  0  0  0  0  0  0  0  0  0  0  0
   43.9907   35.8284   45.3691 H   0  0  0  0  0  0  0  0  0  0  0  0
   45.4061   35.6236   43.3181 H   0  0  0  0  0  0  0  0  0  0  0  0
   46.4069   32.0003   42.3020 H   0  0  0  0  0  0  0  0  0  0  0  0
   46.3461   33.4578   41.2242 H   0  0  0  0  0  0  0  0  0  0  0  0
   48.6706   31.6061   41.7505 H   0  0  0  0  0  0  0  0  0  0  0  0
   47.7430   31.9312   40.1945 H   0  0  0  0  0  0  0  0  0  0  0  0
   49.9903   32.8593   40.5926 H   0  0  0  0  0  0  0  0  0  0  0  0
   50.3938   34.3629   41.8478 H   0  0  0  0  0  0  0  0  0  0  0  0
   49.3394   33.7430   43.6331 H   0  0  0  0  0  0  0  0  0  0  0  0
   48.5190   35.3592   43.3025 H   0  0  0  0  0  0  0  0  0  0  0  0
   44.0327   32.6937   48.2244 H   0  0  0  0  0  0  0  0  0  0  0  0
   44.4389   31.1107   50.1500 H   0  0  0  0  0  0  0  0  0  0  0  0
   46.5926   29.9895   50.2746 H   0  0  0  0  0  0  0  0  0  0  0  0
   48.0547   28.5443   47.4994 H   0  0  0  0  0  0  0  0  0  0  0  0
   50.1673   27.3589   47.3202 H   0  0  0  0  0  0  0  0  0  0  0  0
   52.2243   28.3859   48.2606 H   0  0  0  0  0  0  0  0  0  0  0  0
   53.2712   30.1660   49.4217 H   0  0  0  0  0  0  0  0  0  0  0  0
   53.1790   32.3776   50.6127 H   0  0  0  0  0  0  0  0  0  0  0  0
   50.9167   33.5073   50.7437 H   0  0  0  0  0  0  0  0  0  0  0  0
   48.9546   32.4605   49.7376 H   0  0  0  0  0  0  0  0  0  0  0  0
  1  6  2  0
  2  1  1  0
  3  2  2  0
  3  4  1  0
  4  5  2  0
  5  6  1  0
  5 17  1  0
  7  3  1  0
  8  7  1  0
  9  8  1  0
 10  9  1  0
 10 11  1  0
 11 12  1  0
 12  7  1  0
 13 14  1  0
 13 15  1  0
 13 11  1  0
 16 13  1  0
 17 22  1  0
 17 18  2  0
 18 19  1  0
 19 20  2  0
 21 20  1  0
 22 21  2  0
 23 21  1  0
 23 32  1  0
 24 23  2  0
 25 24  1  0
 25 26  2  0
 26 27  1  0
 27 32  2  0
 27 28  1  0
 28 29  2  0
 29 30  1  0
 31 30  2  0
 32 31  1  0
  1 33  1  0
  2 34  1  0
  8 35  1  0
  8 36  1  0
  9 37  1  0
  9 38  1  0
 10 39  1  0
 11 40  1  1
 12 41  1  0
 12 42  1  0
 18 43  1  0
 19 44  1  0
 20 45  1  0
 24 46  1  0
 25 47  1  0
 26 48  1  0
 28 49  1  0
 29 50  1  0
 30 51  1  0
 31 52  1  0
M  END
>  <Score>  (1) 
-8.00954

>  <Score_dual>  (1) 
-7.45

>  <Choices>  (1) 
[None, 8, ['15-7', 60], 21, ['11-13', 165], 26, ['6-15', 345], 35, ['26-25', 210]]

$$$$
