
     RDKit          3D

 43 47  0  0  0  0  0  0  0  0999 V2000
   48.7250   33.0570   37.7480 Cl  0  0  0  0  0  0  0  0  0  0  0  0
   46.9760   32.9820   37.7760 C   0  0  0  0  0  0  0  0  0  0  0  0
   46.3150   33.2960   38.9140 C   0  0  0  0  0  0  0  0  0  0  0  0
   44.9520   33.0660   38.8610 C   0  0  0  0  0  0  0  0  0  0  0  0
   44.2680   32.5680   37.7720 C   0  0  0  0  0  0  0  0  0  0  0  0
   44.9910   32.2680   36.6290 C   0  0  0  0  0  0  0  0  0  0  0  0
   46.3530   32.4840   36.6500 C   0  0  0  0  0  0  0  0  0  0  0  0
   48.2670   32.7710   35.1770 C   0  0  0  0  0  0  0  0  0  0  0  0
   47.0380   32.1420   35.4080 C   0  0  0  0  0  0  0  0  0  0  0  0
   46.6320   31.2720   34.4170 C   0  0  0  0  0  0  0  0  0  0  0  0
   47.4120   31.0690   33.2980 C   0  0  0  0  0  0  0  0  0  0  0  0
   47.1630   30.2540   32.2350 N   0  0  0  0  0  0  0  0  0  0  0  0
   48.2010   30.3800   31.3850 C   0  0  0  0  0  0  0  0  0  0  0  0
   49.0860   31.2640   31.9160 N   0  0  0  0  0  0  0  0  0  0  0  0
   48.6050   31.6900   33.0910 C   0  0  0  0  0  0  0  0  0  0  0  0
   49.0530   32.5720   34.0600 C   0  0  0  0  0  0  0  0  0  0  0  0
   48.7350   35.1930   41.0310 C   0  0  0  0  0  0  0  0  0  0  0  0
   48.0830   34.7000   39.8900 C   0  0  0  0  0  0  0  0  0  0  0  0
   46.9910   33.8570   40.0470 C   0  0  0  0  0  0  0  0  0  0  0  0
   46.6090   33.5620   41.3150 N   0  0  0  0  0  0  0  0  0  0  0  0
   47.2320   34.0410   42.4040 C   0  0  0  0  0  0  0  0  0  0  0  0
   48.2970   34.8550   42.2660 N   0  0  0  0  0  0  0  0  0  0  0  0
   45.0230   35.8660   43.4760 Cl  0  0  0  0  0  0  0  0  0  0  0  0
   45.7420   34.5170   44.3260 C   0  0  0  0  0  0  0  0  0  0  0  0
   46.7450   33.7500   43.7360 C   0  0  0  0  0  0  0  0  0  0  0  0
   47.2220   32.7290   44.4850 C   0  0  0  0  0  0  0  0  0  0  0  0
   46.7750   32.4250   45.7630 C   0  0  0  0  0  0  0  0  0  0  0  0
   45.7880   33.1940   46.3200 C   0  0  0  0  0  0  0  0  0  0  0  0
   45.3100   32.7150   47.9350 Cl  0  0  0  0  0  0  0  0  0  0  0  0
   45.2740   34.2350   45.6050 C   0  0  0  0  0  0  0  0  0  0  0  0
   44.3654   33.2996   39.7617 H   0  0  0  0  0  0  0  0  0  0  0  0
   43.1796   32.4134   37.8098 H   0  0  0  0  0  0  0  0  0  0  0  0
   44.4940   31.8697   35.7321 H   0  0  0  0  0  0  0  0  0  0  0  0
   48.6324   33.4740   35.9401 H   0  0  0  0  0  0  0  0  0  0  0  0
   45.6774   30.7354   34.5205 H   0  0  0  0  0  0  0  0  0  0  0  0
   46.3360   29.6538   32.1053 H   0  0  0  0  0  0  0  0  0  0  0  0
   48.3130   29.8561   30.4243 H   0  0  0  0  0  0  0  0  0  0  0  0
   50.0106   33.1004   33.9426 H   0  0  0  0  0  0  0  0  0  0  0  0
   49.6053   35.8566   40.9209 H   0  0  0  0  0  0  0  0  0  0  0  0
   48.4325   34.9778   38.8847 H   0  0  0  0  0  0  0  0  0  0  0  0
   48.0145   32.1000   44.0533 H   0  0  0  0  0  0  0  0  0  0  0  0
   47.2064   31.5800   46.3197 H   0  0  0  0  0  0  0  0  0  0  0  0
   44.4811   34.8582   46.0442 H   0  0  0  0  0  0  0  0  0  0  0  0
  1  2  1  0
  2  3  2  0
  3 19  1  0
  4  3  1  0
  5  4  2  0
  6  7  2  0
  6  5  1  0
  7  2  1  0
  8  9  2  0
  9  7  1  0
 10  9  1  0
 11 10  2  0
 12 11  1  0
 13 14  2  0
 13 12  1  0
 14 15  1  0
 15 11  1  0
 15 16  2  0
 16  8  1  0
 17 22  2  0
 18 19  2  0
 18 17  1  0
 19 20  1  0
 20 21  2  0
 21 25  1  0
 22 21  1  0
 23 24  1  0
 24 30  2  0
 25 24  1  0
 25 26  2  0
 26 27  1  0
 27 28  2  0
 28 29  1  0
 30 28  1  0
  4 31  1  0
  5 32  1  0
  6 33  1  0
  8 34  1  0
 10 35  1  0
 12 36  1  0
 13 37  1  0
 16 38  1  0
 17 39  1  0
 18 40  1  0
 26 41  1  0
 27 42  1  0
 30 43  1  0
M  END
>  <Score>  (1) 
-7.2881

>  <Score_dual>  (1) 
-7.67

>  <Choices>  (1) 
[None, 9, ['29-22', 180], 19, ['7-16', 195], 29, ['34-22', 105]]

$$$$
