
     RDKit          3D

 53 56  0  0  1  0  0  0  0  0999 V2000
   44.4250   35.4950   45.6310 C   0  0  0  0  0  0  0  0  0  0  0  0
   44.9590   35.4580   44.3330 C   0  0  0  0  0  0  0  0  0  0  0  0
   45.8020   34.3910   44.0010 C   0  0  0  0  0  0  0  0  0  0  0  0
   46.0410   33.4620   44.9660 N   0  0  0  0  0  0  0  0  0  0  0  0
   45.5030   33.5390   46.2060 C   0  0  0  0  0  0  0  0  0  0  0  0
   44.6880   34.5680   46.5370 N   0  0  0  0  0  0  0  0  0  0  0  0
   46.4120   34.2270   42.7260 N   0  0  0  0  0  0  0  0  0  0  0  0
   45.6380   34.4080   41.5180 C   0  0  0  0  0  0  0  0  0  0  0  0
   46.2770   33.7110   40.3420 C   0  0  0  0  0  0  0  0  0  0  0  0
   47.6330   33.9920   40.1560 N   0  0  0  0  0  0  0  0  0  0  0  0
   48.4320   34.1530   41.3280 C   0  0  2  0  0  0  0  0  0  0  0  0
   47.7930   33.8800   42.6330 C   0  0  0  0  0  0  0  0  0  0  0  0
   48.9520   35.5680   41.3710 C   0  0  0  0  0  0  0  0  0  0  0  0
   50.1760   35.6210   42.0270 F   0  0  0  0  0  0  0  0  0  0  0  0
   48.0570   36.2870   42.1470 F   0  0  0  0  0  0  0  0  0  0  0  0
   49.1140   36.1270   40.1380 F   0  0  0  0  0  0  0  0  0  0  0  0
   45.8060   32.5080   47.1870 C   0  0  0  0  0  0  0  0  0  0  0  0
   44.8700   32.2000   48.1640 C   0  0  0  0  0  0  0  0  0  0  0  0
   45.2020   31.2040   49.0850 C   0  0  0  0  0  0  0  0  0  0  0  0
   46.4280   30.6110   48.9450 C   0  0  0  0  0  0  0  0  0  0  0  0
   47.3560   30.9100   47.9830 C   0  0  0  0  0  0  0  0  0  0  0  0
   47.0030   31.8870   47.0990 N   0  0  0  0  0  0  0  0  0  0  0  0
   49.6870   30.8300   48.8400 C   0  0  2  0  0  0  0  0  0  0  0  0
   48.6670   30.2050   47.9160 C   0  0  1  0  0  0  0  0  0  0  0  0
   48.4710   28.8900   48.3490 O   0  0  0  0  0  0  0  0  0  0  0  0
   49.6290   28.1730   48.0050 C   0  0  0  0  0  0  0  0  0  0  0  0
   50.8360   28.6790   48.7410 C   0  0  2  0  0  0  0  0  0  0  0  0
   50.4750   29.8450   49.6370 C   0  0  2  0  0  0  0  0  0  0  0  0
   48.9620   31.6240   49.7540 O   0  0  0  0  0  0  0  0  0  0  0  0
   51.8310   29.1280   47.8570 O   0  0  0  0  0  0  0  0  0  0  0  0
   49.8000   29.4570   50.7880 O   0  0  0  0  0  0  0  0  0  0  0  0
   43.7614   36.3283   45.9054 H   0  0  0  0  0  0  0  0  0  0  0  0
   44.7223   36.2431   43.5998 H   0  0  0  0  0  0  0  0  0  0  0  0
   44.6304   33.9951   41.6739 H   0  0  0  0  0  0  0  0  0  0  0  0
   45.5902   35.4845   41.2968 H   0  0  0  0  0  0  0  0  0  0  0  0
   46.1701   32.6261   40.4888 H   0  0  0  0  0  0  0  0  0  0  0  0
   45.7596   34.0828   39.4453 H   0  0  0  0  0  0  0  0  0  0  0  0
   48.0376   33.2188   39.6088 H   0  0  0  0  0  0  0  0  0  0  0  0
   49.2098   33.3828   41.2196 H   0  0  0  0  0  0  0  0  0  0  0  0
   47.8862   32.8031   42.8372 H   0  0  0  0  0  0  0  0  0  0  0  0
   48.3139   34.5168   43.3631 H   0  0  0  0  0  0  0  0  0  0  0  0
   43.9024   32.7210   48.2113 H   0  0  0  0  0  0  0  0  0  0  0  0
   44.5094   30.9091   49.8871 H   0  0  0  0  0  0  0  0  0  0  0  0
   46.6909   29.8254   49.6687 H   0  0  0  0  0  0  0  0  0  0  0  0
   50.4053   31.3858   48.2194 H   0  0  0  0  0  0  0  0  0  0  0  0
   49.0367   30.2627   46.8816 H   0  0  0  0  0  0  0  0  0  0  0  0
   49.4785   27.1123   48.2543 H   0  0  0  0  0  0  0  0  0  0  0  0
   49.8053   28.3040   46.9272 H   0  0  0  0  0  0  0  0  0  0  0  0
   51.2115   27.8324   49.3345 H   0  0  0  0  0  0  0  0  0  0  0  0
   51.4050   30.3117   49.9939 H   0  0  0  0  0  0  0  0  0  0  0  0
   49.2001   31.3632   50.6789 H   0  0  0  0  0  0  0  0  0  0  0  0
   52.6002   29.4751   48.3747 H   0  0  0  0  0  0  0  0  0  0  0  0
   50.3100   29.7501   51.5843 H   0  0  0  0  0  0  0  0  0  0  0  0
  1  6  2  0
  2  1  1  0
  3  2  2  0
  3  4  1  0
  4  5  2  0
  5  6  1  0
  5 17  1  0
  7  3  1  0
  8  7  1  0
  9  8  1  0
 10  9  1  0
 10 11  1  0
 11 13  1  0
 11 12  1  0
 12  7  1  0
 13 14  1  0
 13 15  1  0
 16 13  1  0
 17 18  2  0
 18 19  1  0
 20 19  2  0
 21 20  1  0
 22 17  1  0
 22 21  2  0
 23 28  1  0
 23 29  1  0
 24 21  1  0
 24 25  1  0
 24 23  1  0
 26 25  1  0
 26 27  1  0
 27 30  1  0
 27 28  1  0
 28 31  1  0
  1 32  1  0
  2 33  1  0
  8 34  1  0
  8 35  1  0
  9 36  1  0
  9 37  1  0
 10 38  1  0
 11 39  1  6
 12 40  1  0
 12 41  1  0
 18 42  1  0
 19 43  1  0
 20 44  1  0
 23 45  1  6
 24 46  1  6
 26 47  1  0
 26 48  1  0
 27 49  1  1
 28 50  1  1
 29 51  1  0
 30 52  1  0
 31 53  1  0
M  END
>  <Score>  (1) 
-7.66032

>  <Score_dual>  (1) 
-7.87

>  <Choices>  (1) 
[None, 8, ['15-7', 60], 21, ['11-13', 165], 26, ['6-15', 345], 35, ['21-24', 60]]

$$$$
