
     RDKit          3D

 51 55  0  0  1  0  0  0  0  0999 V2000
   44.5540   35.6970   44.5910 C   0  0  0  0  0  0  0  0  0  0  0  0
   45.0250   35.5430   43.2650 C   0  0  0  0  0  0  0  0  0  0  0  0
   45.9830   34.5070   43.0300 C   0  0  0  0  0  0  0  0  0  0  0  0
   46.3880   33.7370   44.0640 N   0  0  0  0  0  0  0  0  0  0  0  0
   45.9180   33.9160   45.3020 C   0  0  0  0  0  0  0  0  0  0  0  0
   44.9940   34.9000   45.5780 N   0  0  0  0  0  0  0  0  0  0  0  0
   46.3940   33.0490   46.4140 C   0  0  2  0  0  0  0  0  0  0  0  0
   46.9520   31.8190   45.7280 C   0  0  0  0  0  0  0  0  0  0  0  0
   46.1270   30.6010   45.7930 C   0  0  0  0  0  0  0  0  0  0  0  0
   45.8970   30.3710   47.2880 C   0  0  0  0  0  0  0  0  0  0  0  0
   45.0640   31.4180   47.8980 C   0  0  0  0  0  0  0  0  0  0  0  0
   45.3780   32.7890   47.3930 C   0  0  0  0  0  0  0  0  0  0  0  0
   44.6490   33.9120   47.8900 N   0  0  0  0  0  0  0  0  0  0  0  0
   46.4890   34.3160   41.6740 C   0  0  0  0  0  0  0  0  0  0  0  0
   47.7480   34.7030   41.3890 C   0  0  0  0  0  0  0  0  0  0  0  0
   48.1720   34.4890   40.0620 C   0  0  0  0  0  0  0  0  0  0  0  0
   47.2600   33.9070   39.1950 C   0  0  0  0  0  0  0  0  0  0  0  0
   45.9790   33.5150   39.4950 C   0  0  0  0  0  0  0  0  0  0  0  0
   45.6330   33.7510   40.7940 N   0  0  0  0  0  0  0  0  0  0  0  0
   45.1420   32.9450   38.5660 O   0  0  0  0  0  0  0  0  0  0  0  0
   43.7790   33.2150   38.7010 C   0  0  0  0  0  0  0  0  0  0  0  0
   43.0060   32.2460   38.0530 C   0  0  0  0  0  0  0  0  0  0  0  0
   41.6170   32.3960   38.1100 C   0  0  0  0  0  0  0  0  0  0  0  0
   41.0030   33.4330   38.7610 C   0  0  0  0  0  0  0  0  0  0  0  0
   39.6770   33.5350   38.7900 N   0  0  0  0  0  0  0  0  0  0  0  0
   39.1490   34.5920   39.4570 C   0  0  0  0  0  0  0  0  0  0  0  0
   39.9200   35.5510   40.0990 C   0  0  0  0  0  0  0  0  0  0  0  0
   41.3010   35.4460   40.0710 C   0  0  0  0  0  0  0  0  0  0  0  0
   41.8160   34.3560   39.3810 C   0  0  0  0  0  0  0  0  0  0  0  0
   43.1920   34.2720   39.3670 C   0  0  0  0  0  0  0  0  0  0  0  0
   43.8164   36.4814   44.8162 H   0  0  0  0  0  0  0  0  0  0  0  0
   44.6698   36.1917   42.4508 H   0  0  0  0  0  0  0  0  0  0  0  0
   47.1712   33.5327   47.0239 H   0  0  0  0  0  0  0  0  0  0  0  0
   47.9235   31.5900   46.1902 H   0  0  0  0  0  0  0  0  0  0  0  0
   47.0048   32.0790   44.6605 H   0  0  0  0  0  0  0  0  0  0  0  0
   45.1703   30.7515   45.2714 H   0  0  0  0  0  0  0  0  0  0  0  0
   46.6128   29.7413   45.3082 H   0  0  0  0  0  0  0  0  0  0  0  0
   45.3978   29.4001   47.4227 H   0  0  0  0  0  0  0  0  0  0  0  0
   46.8785   30.3939   47.7842 H   0  0  0  0  0  0  0  0  0  0  0  0
   44.2880   31.2128   48.6502 H   0  0  0  0  0  0  0  0  0  0  0  0
   43.9097   33.7754   48.5941 H   0  0  0  0  0  0  0  0  0  0  0  0
   44.8625   34.8585   47.5444 H   0  0  0  0  0  0  0  0  0  0  0  0
   48.4044   35.1579   42.1455 H   0  0  0  0  0  0  0  0  0  0  0  0
   49.1817   34.7712   39.7290 H   0  0  0  0  0  0  0  0  0  0  0  0
   47.5973   33.7425   38.1610 H   0  0  0  0  0  0  0  0  0  0  0  0
   43.4707   31.4024   37.5215 H   0  0  0  0  0  0  0  0  0  0  0  0
   40.9878   31.6460   37.6085 H   0  0  0  0  0  0  0  0  0  0  0  0
   38.0543   34.6941   39.4906 H   0  0  0  0  0  0  0  0  0  0  0  0
   39.4383   36.3878   40.6259 H   0  0  0  0  0  0  0  0  0  0  0  0
   41.9513   36.1823   40.5659 H   0  0  0  0  0  0  0  0  0  0  0  0
   43.8075   35.0293   39.8745 H   0  0  0  0  0  0  0  0  0  0  0  0
  1  6  2  0
  2  1  1  0
  3  2  2  0
  3  4  1  0
  4  5  2  0
  5  6  1  0
  5  7  1  0
  7 12  1  0
  8  9  1  0
  8  7  1  0
  9 10  1  0
 10 11  1  0
 12 13  1  0
 12 11  2  0
 14  3  1  0
 15 14  2  0
 16 15  1  0
 17 18  1  0
 17 16  2  0
 18 19  2  0
 19 14  1  0
 20 21  1  0
 20 18  1  0
 21 30  2  0
 22 23  2  0
 22 21  1  0
 23 24  1  0
 24 25  2  0
 24 29  1  0
 25 26  1  0
 26 27  2  0
 28 27  1  0
 29 28  2  0
 30 29  1  0
  1 31  1  0
  2 32  1  0
  7 33  1  1
  8 34  1  0
  8 35  1  0
  9 36  1  0
  9 37  1  0
 10 38  1  0
 10 39  1  0
 11 40  1  0
 13 41  1  0
 13 42  1  0
 15 43  1  0
 16 44  1  0
 17 45  1  0
 22 46  1  0
 23 47  1  0
 26 48  1  0
 27 49  1  0
 28 50  1  0
 30 51  1  0
M  END
>  <Score>  (1) 
-8.28457

>  <Score_dual>  (1) 
-7.27

>  <Choices>  (1) 
[None, 9, ['18-27', 315], 23, ['0-3', 0], 23, ['6-16', 270], 32, ['2-1', 0], 35, ['36-23', 105]]

$$$$
