
     RDKit          3D

 48 51  0  0  1  0  0  0  0  0999 V2000
   45.4070   34.2660   42.1190 C   0  0  0  0  0  0  0  0  0  0  0  0
   46.4790   35.0810   41.6530 C   0  0  0  0  0  0  0  0  0  0  0  0
   47.7750   34.6660   42.0180 C   0  0  0  0  0  0  0  0  0  0  0  0
   47.9000   33.5580   42.7610 N   0  0  0  0  0  0  0  0  0  0  0  0
   46.8480   32.8150   43.1810 C   0  0  0  0  0  0  0  0  0  0  0  0
   45.5920   33.1830   42.8500 N   0  0  0  0  0  0  0  0  0  0  0  0
   43.7590   34.3110   40.4520 C   0  0  0  0  0  0  0  0  0  0  0  0
   44.6760   33.8240   39.7070 O   0  0  0  0  0  0  0  0  0  0  0  0
   44.0550   34.6170   41.7940 N   0  0  0  0  0  0  0  0  0  0  0  0
   42.4860   34.5110   39.8610 N   0  0  0  0  0  0  0  0  0  0  0  0
   42.3520   34.4940   38.3920 C   0  0  0  0  0  0  0  0  0  0  0  0
   41.2170   35.4430   38.1640 C   0  0  0  0  0  0  0  0  0  0  0  0
   40.7300   35.8470   39.5250 C   0  0  0  0  0  0  0  0  0  0  0  0
   41.1840   34.7230   40.4270 C   0  0  1  0  0  0  0  0  0  0  0  0
   39.7680   32.8350   41.4460 C   0  0  0  0  0  0  0  0  0  0  0  0
   39.7590   33.5890   42.4410 O   0  0  0  0  0  0  0  0  0  0  0  0
   40.4050   33.4980   40.3230 N   0  0  0  0  0  0  0  0  0  0  0  0
   39.2310   31.5110   41.4100 C   0  0  0  0  0  0  0  0  0  0  0  0
   37.8970   31.4140   41.0840 C   0  0  0  0  0  0  0  0  0  0  0  0
   37.3140   30.1460   41.0330 C   0  0  0  0  0  0  0  0  0  0  0  0
   38.1060   29.0490   41.3120 C   0  0  0  0  0  0  0  0  0  0  0  0
   37.4960   27.8510   41.2500 N   0  0  0  0  0  0  0  0  0  0  0  0
   38.2230   26.7360   41.5140 C   0  0  0  0  0  0  0  0  0  0  0  0
   39.5670   26.8190   41.8440 C   0  0  0  0  0  0  0  0  0  0  0  0
   40.1990   28.0390   41.9100 C   0  0  0  0  0  0  0  0  0  0  0  0
   39.4420   29.1680   41.6370 C   0  0  0  0  0  0  0  0  0  0  0  0
   40.0230   30.4180   41.6890 C   0  0  0  0  0  0  0  0  0  0  0  0
   48.8530   35.5200   41.5280 C   0  0  0  0  0  0  0  0  0  0  0  0
   50.0700   34.9670   41.9000 F   0  0  0  0  0  0  0  0  0  0  0  0
   48.7640   36.7320   42.2400 F   0  0  0  0  0  0  0  0  0  0  0  0
   48.8480   35.7020   40.1760 F   0  0  0  0  0  0  0  0  0  0  0  0
   46.3050   35.9807   41.0445 H   0  0  0  0  0  0  0  0  0  0  0  0
   47.0167   31.9146   43.7899 H   0  0  0  0  0  0  0  0  0  0  0  0
   43.3876   35.0380   42.4560 H   0  0  0  0  0  0  0  0  0  0  0  0
   43.2718   34.8486   37.9040 H   0  0  0  0  0  0  0  0  0  0  0  0
   42.1769   33.4903   37.9773 H   0  0  0  0  0  0  0  0  0  0  0  0
   41.5636   36.3250   37.6056 H   0  0  0  0  0  0  0  0  0  0  0  0
   40.4154   34.9751   37.5737 H   0  0  0  0  0  0  0  0  0  0  0  0
   41.1808   36.8018   39.8336 H   0  0  0  0  0  0  0  0  0  0  0  0
   39.6411   35.9997   39.5558 H   0  0  0  0  0  0  0  0  0  0  0  0
   41.1122   34.9700   41.4965 H   0  0  0  0  0  0  0  0  0  0  0  0
   40.2987   33.0734   39.3906 H   0  0  0  0  0  0  0  0  0  0  0  0
   37.3037   32.3149   40.8686 H   0  0  0  0  0  0  0  0  0  0  0  0
   36.2512   30.0238   40.7772 H   0  0  0  0  0  0  0  0  0  0  0  0
   37.7379   25.7499   41.4654 H   0  0  0  0  0  0  0  0  0  0  0  0
   40.1336   25.9001   42.0552 H   0  0  0  0  0  0  0  0  0  0  0  0
   41.2651   28.1160   42.1697 H   0  0  0  0  0  0  0  0  0  0  0  0
   41.0859   30.5388   41.9453 H   0  0  0  0  0  0  0  0  0  0  0  0
  1  6  2  0
  2  3  2  0
  2  1  1  0
  3  4  1  0
  4  5  2  0
  6  5  1  0
  7  9  1  0
  8  7  2  0
  9  1  1  0
 10 14  1  0
 10  7  1  0
 11 10  1  0
 12 11  1  0
 12 13  1  0
 13 14  1  0
 15 16  2  0
 17 14  1  0
 17 15  1  0
 18 15  1  0
 18 27  1  0
 19 18  2  0
 20 19  1  0
 20 21  2  0
 21 26  1  0
 22 21  1  0
 22 23  2  0
 23 24  1  0
 24 25  2  0
 26 27  2  0
 26 25  1  0
 28 29  1  0
 28  3  1  0
 28 30  1  0
 31 28  1  0
  2 32  1  0
  5 33  1  0
  9 34  1  0
 11 35  1  0
 11 36  1  0
 12 37  1  0
 12 38  1  0
 13 39  1  0
 13 40  1  0
 14 41  1  1
 17 42  1  0
 19 43  1  0
 20 44  1  0
 23 45  1  0
 24 46  1  0
 25 47  1  0
 27 48  1  0
M  END
>  <Score>  (1) 
-7.36654

>  <Score_dual>  (1) 
-7.35

>  <Choices>  (1) 
[None, 8, ['11-12', 150], 10, ['12-4', 345], 15, ['13-1', 345], 28, ['12-5', 105], 31, ['36-18', 345]]

$$$$
