
     RDKit          3D

 48 53  0  0  0  0  0  0  0  0999 V2000
   46.0240   33.2280   41.7020 C   0  0  0  0  0  0  0  0  0  0  0  0
   47.1900   33.9190   41.3820 C   0  0  0  0  0  0  0  0  0  0  0  0
   48.1730   33.9720   42.3610 C   0  0  0  0  0  0  0  0  0  0  0  0
   47.9130   33.3480   43.5480 N   0  0  0  0  0  0  0  0  0  0  0  0
   46.7890   32.6930   43.8330 C   0  0  0  0  0  0  0  0  0  0  0  0
   45.8270   32.6280   42.9020 N   0  0  0  0  0  0  0  0  0  0  0  0
   46.9400   30.7590   45.3300 C   0  0  0  0  0  0  0  0  0  0  0  0
   46.6250   32.0670   45.1290 C   0  0  0  0  0  0  0  0  0  0  0  0
   46.1210   32.9020   46.1610 C   0  0  0  0  0  0  0  0  0  0  0  0
   45.9350   32.3720   47.4370 C   0  0  0  0  0  0  0  0  0  0  0  0
   45.4880   32.8480   48.6330 N   0  0  0  0  0  0  0  0  0  0  0  0
   45.5430   31.8190   49.5250 C   0  0  0  0  0  0  0  0  0  0  0  0
   46.0190   30.7300   48.8750 N   0  0  0  0  0  0  0  0  0  0  0  0
   46.2670   31.0470   47.5900 C   0  0  0  0  0  0  0  0  0  0  0  0
   46.7570   30.2230   46.6040 C   0  0  0  0  0  0  0  0  0  0  0  0
   49.4340   34.6890   42.0860 C   0  0  0  0  0  0  0  0  0  0  0  0
   49.2070   35.7740   41.2180 F   0  0  0  0  0  0  0  0  0  0  0  0
   49.9460   35.2210   43.2440 F   0  0  0  0  0  0  0  0  0  0  0  0
   50.3060   33.7980   41.5090 F   0  0  0  0  0  0  0  0  0  0  0  0
   47.3030   34.4840   40.1710 O   0  0  0  0  0  0  0  0  0  0  0  0
   47.1180   33.7980   38.9870 C   0  0  0  0  0  0  0  0  0  0  0  0
   48.4010   33.7410   38.4130 C   0  0  0  0  0  0  0  0  0  0  0  0
   48.0840   32.8190   36.8490 S   0  0  0  0  0  0  0  0  0  0  0  0
   46.2630   32.6740   37.2540 C   0  0  0  0  0  0  0  0  0  0  0  0
   46.2540   33.2040   38.2240 N   0  0  0  0  0  0  0  0  0  0  0  0
   45.3650   31.9580   36.2820 C   0  0  0  0  0  0  0  0  0  0  0  0
   45.6880   31.8590   34.9670 C   0  0  0  0  0  0  0  0  0  0  0  0
   44.7660   31.1680   34.1730 C   0  0  0  0  0  0  0  0  0  0  0  0
   43.6140   30.6390   34.7420 C   0  0  0  0  0  0  0  0  0  0  0  0
   42.7110   29.9700   33.9980 N   0  0  0  0  0  0  0  0  0  0  0  0
   41.5820   29.4400   34.5020 C   0  0  0  0  0  0  0  0  0  0  0  0
   41.2700   29.5550   35.8620 C   0  0  0  0  0  0  0  0  0  0  0  0
   42.1930   30.2430   36.6370 C   0  0  0  0  0  0  0  0  0  0  0  0
   43.3470   30.7800   36.1020 C   0  0  0  0  0  0  0  0  0  0  0  0
   44.2510   31.4660   36.9200 C   0  0  0  0  0  0  0  0  0  0  0  0
   45.2265   33.1661   40.9469 H   0  0  0  0  0  0  0  0  0  0  0  0
   47.3292   30.1399   44.5083 H   0  0  0  0  0  0  0  0  0  0  0  0
   45.8800   33.9555   45.9559 H   0  0  0  0  0  0  0  0  0  0  0  0
   45.1679   33.8076   48.8270 H   0  0  0  0  0  0  0  0  0  0  0  0
   45.2524   31.8647   50.5849 H   0  0  0  0  0  0  0  0  0  0  0  0
   46.9978   29.1705   46.8146 H   0  0  0  0  0  0  0  0  0  0  0  0
   49.3495   34.1432   38.7985 H   0  0  0  0  0  0  0  0  0  0  0  0
   46.6110   32.2922   34.5542 H   0  0  0  0  0  0  0  0  0  0  0  0
   44.9535   31.0433   33.0963 H   0  0  0  0  0  0  0  0  0  0  0  0
   40.8909   28.9062   33.8330 H   0  0  0  0  0  0  0  0  0  0  0  0
   40.3512   29.1270   36.2893 H   0  0  0  0  0  0  0  0  0  0  0  0
   41.9988   30.3645   37.7129 H   0  0  0  0  0  0  0  0  0  0  0  0
   44.0823   31.6023   37.9984 H   0  0  0  0  0  0  0  0  0  0  0  0
  1  6  2  0
  2  1  1  0
  2  3  2  0
  3  4  1  0
  4  5  2  0
  5  8  1  0
  6  5  1  0
  7 15  2  0
  8  7  1  0
  8  9  2  0
  9 10  1  0
 10 14  2  0
 10 11  1  0
 11 12  1  0
 13 12  2  0
 14 13  1  0
 15 14  1  0
 16  3  1  0
 16 18  1  0
 17 16  1  0
 19 16  1  0
 20  2  1  0
 21 20  1  0
 22 21  2  0
 23 24  1  0
 23 22  1  0
 24 25  2  0
 25 21  1  0
 26 35  1  0
 26 24  1  0
 27 26  2  0
 28 29  2  0
 28 27  1  0
 29 34  1  0
 30 31  2  0
 30 29  1  0
 31 32  1  0
 32 33  2  0
 34 33  1  0
 34 35  2  0
  1 36  1  0
  7 37  1  0
  9 38  1  0
 11 39  1  0
 12 40  1  0
 15 41  1  0
 22 42  1  0
 27 43  1  0
 28 44  1  0
 31 45  1  0
 32 46  1  0
 33 47  1  0
 35 48  1  0
M  END
>  <Score>  (1) 
-7.18169

>  <Score_dual>  (1) 
-7.72

>  <Choices>  (1) 
[None, 9, ['34-23', 135], 22, ['11-11', 315], 25, ['2-1', 0], 26, ['33-14', 45], 32, ['36-25', 315]]

$$$$
