
     RDKit          3D

 28 30  0  0  0  0  0  0  0  0999 V2000
   36.7320   25.7330   31.4900 C   0  0  0  0  0  0  0  0  0  0  0  0
   37.6510   24.8760   32.0280 C   0  0  0  0  0  0  0  0  0  0  0  0
   37.3430   23.5130   32.1130 C   0  0  0  0  0  0  0  0  0  0  0  0
   36.1240   23.0100   31.6620 C   0  0  0  0  0  0  0  0  0  0  0  0
   35.1830   23.8720   31.1130 C   0  0  0  0  0  0  0  0  0  0  0  0
   35.5290   25.1980   31.0510 C   0  0  0  0  0  0  0  0  0  0  0  0
   36.0880   20.6310   30.8020 C   0  0  0  0  0  0  0  0  0  0  0  0
   35.9070   21.5840   31.8020 C   0  0  0  0  0  0  0  0  0  0  0  0
   35.4780   21.1110   33.0610 C   0  0  0  0  0  0  0  0  0  0  0  0
   35.2710   19.7700   33.2140 N   0  0  0  0  0  0  0  0  0  0  0  0
   35.4660   18.8810   32.1950 C   0  0  0  0  0  0  0  0  0  0  0  0
   35.8820   19.3310   30.9740 N   0  0  0  0  0  0  0  0  0  0  0  0
   37.1380   27.4220   31.4080 S   0  0  0  0  0  0  0  0  0  0  0  0
   38.6200   27.6090   31.6140 O   0  0  0  0  0  0  0  0  0  0  0  0
   36.7000   27.9770   30.0950 O   0  0  0  0  0  0  0  0  0  0  0  0
   36.2290   28.2170   32.6870 C   0  0  0  0  0  0  0  0  0  0  0  0
   36.4160   28.2620   33.9960 N   0  0  0  0  0  0  0  0  0  0  0  0
   35.4780   28.9800   34.5410 O   0  0  0  0  0  0  0  0  0  0  0  0
   34.6520   29.4270   33.6360 C   0  0  0  0  0  0  0  0  0  0  0  0
   35.1060   28.9590   32.4580 N   0  0  0  0  0  0  0  0  0  0  0  0
   38.6195   25.2522   32.3893 H   0  0  0  0  0  0  0  0  0  0  0  0
   38.0812   22.8221   32.5464 H   0  0  0  0  0  0  0  0  0  0  0  0
   34.2109   23.5100   30.7470 H   0  0  0  0  0  0  0  0  0  0  0  0
   34.7940   25.8929   30.6187 H   0  0  0  0  0  0  0  0  0  0  0  0
   36.4211   20.9760   29.8120 H   0  0  0  0  0  0  0  0  0  0  0  0
   35.3145   21.8056   33.8981 H   0  0  0  0  0  0  0  0  0  0  0  0
   35.2888   17.8075   32.3570 H   0  0  0  0  0  0  0  0  0  0  0  0
   33.7658   30.0573   33.8013 H   0  0  0  0  0  0  0  0  0  0  0  0
  1  2  2  0
  2  3  1  0
  4  8  1  0
  4  3  2  0
  5  4  1  0
  6  5  2  0
  6  1  1  0
  7 12  2  0
  7  8  1  0
  8  9  2  0
  9 10  1  0
 11 10  2  0
 12 11  1  0
 13  1  1  0
 13 14  2  0
 13 16  1  0
 15 13  2  0
 16 17  2  0
 17 18  1  0
 19 18  1  0
 20 16  1  0
 20 19  2  0
  2 21  1  0
  3 22  1  0
  5 23  1  0
  6 24  1  0
  7 25  1  0
  9 26  1  0
 11 27  1  0
 19 28  1  0
M  ISO  8  21  14  22  14  23  14  24  14  25  14  26  14  27  14  28  14
M  END
>  <minimizedAffinity>  (1) 
-4.84896088

>  <minimizedRMSD>  (1) 
1.07511997

$$$$
