
     RDKit          3D

 44 47  0  0  0  0  0  0  0  0999 V2000
   36.7770   25.5010   31.5420 C   0  0  0  0  0  0  0  0  0  0  0  0
   37.6730   24.6720   32.1600 C   0  0  0  0  0  0  0  0  0  0  0  0
   37.3690   23.3140   32.2900 C   0  0  0  0  0  0  0  0  0  0  0  0
   36.1660   22.7890   31.8000 C   0  0  0  0  0  0  0  0  0  0  0  0
   35.2550   23.6250   31.1710 C   0  0  0  0  0  0  0  0  0  0  0  0
   35.5970   24.9490   31.0690 C   0  0  0  0  0  0  0  0  0  0  0  0
   36.0170   20.3950   31.0000 C   0  0  0  0  0  0  0  0  0  0  0  0
   35.9510   21.3730   31.9850 C   0  0  0  0  0  0  0  0  0  0  0  0
   35.6420   20.9300   33.2860 C   0  0  0  0  0  0  0  0  0  0  0  0
   35.4320   19.5960   33.4960 N   0  0  0  0  0  0  0  0  0  0  0  0
   35.5120   18.6890   32.4900 C   0  0  0  0  0  0  0  0  0  0  0  0
   35.8090   19.1040   31.2290 N   0  0  0  0  0  0  0  0  0  0  0  0
   37.1860   27.1840   31.3970 S   0  0  0  0  0  0  0  0  0  0  0  0
   38.6520   27.3380   31.0790 O   0  0  0  0  0  0  0  0  0  0  0  0
   36.3370   27.8200   30.3480 O   0  0  0  0  0  0  0  0  0  0  0  0
   36.8130   27.9190   32.9440 C   0  0  0  0  0  0  0  0  0  0  0  0
   37.1470   27.5820   34.1870 N   0  0  0  0  0  0  0  0  0  0  0  0
   36.6390   28.4270   35.0200 O   0  0  0  0  0  0  0  0  0  0  0  0
   35.9530   29.3500   34.3830 C   0  0  0  0  0  0  0  0  0  0  0  0
   36.0470   29.0540   33.0850 N   0  0  0  0  0  0  0  0  0  0  0  0
   35.1960   30.5190   34.9010 C   0  0  0  0  0  0  0  0  0  0  0  0
   35.9910   31.3810   35.8470 C   0  0  0  0  0  0  0  0  0  0  0  0
   35.0210   32.0990   36.7580 C   0  0  0  0  0  0  0  0  0  0  0  0
   33.8210   32.4620   35.9110 C   0  0  0  0  0  0  0  0  0  0  0  0
   34.2000   32.6890   34.4630 C   0  0  0  0  0  0  0  0  0  0  0  0
   34.7100   31.4260   33.7950 C   0  0  0  0  0  0  0  0  0  0  0  0
   38.6216   25.0697   32.5500 H   0  0  0  0  0  0  0  0  0  0  0  0
   38.0875   22.6450   32.7862 H   0  0  0  0  0  0  0  0  0  0  0  0
   34.3031   23.2438   30.7728 H   0  0  0  0  0  0  0  0  0  0  0  0
   34.8817   25.6230   30.5751 H   0  0  0  0  0  0  0  0  0  0  0  0
   36.2550   20.7082   29.9727 H   0  0  0  0  0  0  0  0  0  0  0  0
   35.5710   21.6454   34.1185 H   0  0  0  0  0  0  0  0  0  0  0  0
   35.3374   17.6222   32.6933 H   0  0  0  0  0  0  0  0  0  0  0  0
   34.3502   30.0629   35.4364 H   0  0  0  0  0  0  0  0  0  0  0  0
   36.6678   30.7525   36.4445 H   0  0  0  0  0  0  0  0  0  0  0  0
   36.5937   32.1086   35.2836 H   0  0  0  0  0  0  0  0  0  0  0  0
   34.7170   31.4395   37.5842 H   0  0  0  0  0  0  0  0  0  0  0  0
   35.4807   32.9954   37.1997 H   0  0  0  0  0  0  0  0  0  0  0  0
   33.0884   31.6431   35.9627 H   0  0  0  0  0  0  0  0  0  0  0  0
   33.3974   33.3983   36.3034 H   0  0  0  0  0  0  0  0  0  0  0  0
   33.3136   33.0443   33.9171 H   0  0  0  0  0  0  0  0  0  0  0  0
   35.0110   33.4318   34.4406 H   0  0  0  0  0  0  0  0  0  0  0  0
   33.8987   30.9392   33.2339 H   0  0  0  0  0  0  0  0  0  0  0  0
   35.5179   31.6520   33.0835 H   0  0  0  0  0  0  0  0  0  0  0  0
  1  2  2  0
  2  3  1  0
  4  8  1  0
  4  3  2  0
  5  4  1  0
  6  5  2  0
  6  1  1  0
  7 12  2  0
  7  8  1  0
  8  9  2  0
  9 10  1  0
 11 10  2  0
 12 11  1  0
 13  1  1  0
 13 16  1  0
 14 13  2  0
 15 13  2  0
 16 20  1  0
 16 17  2  0
 17 18  1  0
 19 21  1  0
 19 18  1  0
 20 19  2  0
 21 22  1  0
 22 23  1  0
 24 23  1  0
 25 24  1  0
 26 25  1  0
 26 21  1  0
  2 27  1  0
  3 28  1  0
  5 29  1  0
  6 30  1  0
  7 31  1  0
  9 32  1  0
 11 33  1  0
 21 34  1  0
 22 35  1  0
 22 36  1  0
 23 37  1  0
 23 38  1  0
 24 39  1  0
 24 40  1  0
 25 41  1  0
 25 42  1  0
 26 43  1  0
 26 44  1  0
M  ISO  8  27  14  28  14  29  14  30  14  31  14  32  14  33  14  34  13
M  ISO  8  35  13  36  13  37  13  38  13  39  13  40  13  41  13  42  13
M  ISO  2  43  13  44  13
M  END
>  <minimizedAffinity>  (1) 
-6.28994322

>  <minimizedRMSD>  (1) 
1.41964793

$$$$
