
     RDKit          3D

 41 44  0  0  0  0  0  0  0  0999 V2000
   36.8020   25.6640   31.5170 C   0  0  0  0  0  0  0  0  0  0  0  0
   37.7070   24.8220   32.0990 C   0  0  0  0  0  0  0  0  0  0  0  0
   37.3840   23.4660   32.2360 C   0  0  0  0  0  0  0  0  0  0  0  0
   36.1740   22.9560   31.7990 C   0  0  0  0  0  0  0  0  0  0  0  0
   35.2520   23.8010   31.2090 C   0  0  0  0  0  0  0  0  0  0  0  0
   35.6040   25.1240   31.0920 C   0  0  0  0  0  0  0  0  0  0  0  0
   35.9410   20.5710   31.0030 C   0  0  0  0  0  0  0  0  0  0  0  0
   35.9440   21.5400   31.9900 C   0  0  0  0  0  0  0  0  0  0  0  0
   35.6970   21.0990   33.3140 C   0  0  0  0  0  0  0  0  0  0  0  0
   35.4770   19.7660   33.5190 N   0  0  0  0  0  0  0  0  0  0  0  0
   35.4880   18.8610   32.5080 C   0  0  0  0  0  0  0  0  0  0  0  0
   35.7250   19.2830   31.2240 N   0  0  0  0  0  0  0  0  0  0  0  0
   37.2200   27.3470   31.3540 S   0  0  0  0  0  0  0  0  0  0  0  0
   38.7150   27.4930   31.2280 O   0  0  0  0  0  0  0  0  0  0  0  0
   36.4970   27.9390   30.2010 O   0  0  0  0  0  0  0  0  0  0  0  0
   36.6550   28.1410   32.8250 C   0  0  0  0  0  0  0  0  0  0  0  0
   36.7130   27.7710   34.1040 N   0  0  0  0  0  0  0  0  0  0  0  0
   36.1630   28.6840   34.8420 O   0  0  0  0  0  0  0  0  0  0  0  0
   35.7260   29.6770   34.1010 C   0  0  0  0  0  0  0  0  0  0  0  0
   36.0290   29.3460   32.8420 N   0  0  0  0  0  0  0  0  0  0  0  0
   35.0330   30.9110   34.6120 C   0  0  0  0  0  0  0  0  0  0  0  0
   33.7300   30.5880   35.2740 C   0  0  0  0  0  0  0  0  0  0  0  0
   33.5640   31.6010   36.4080 C   0  0  0  0  0  0  0  0  0  0  0  0
   34.9830   31.9330   36.8250 C   0  0  0  0  0  0  0  0  0  0  0  0
   35.8510   31.6520   35.6220 C   0  0  0  0  0  0  0  0  0  0  0  0
   38.6754   25.2036   32.4549 H   0  0  0  0  0  0  0  0  0  0  0  0
   38.1124   22.7875   32.7040 H   0  0  0  0  0  0  0  0  0  0  0  0
   34.2806   23.4307   30.8495 H   0  0  0  0  0  0  0  0  0  0  0  0
   34.8769   25.8043   30.6246 H   0  0  0  0  0  0  0  0  0  0  0  0
   36.1302   20.8907   29.9676 H   0  0  0  0  0  0  0  0  0  0  0  0
   35.6828   21.8099   34.1533 H   0  0  0  0  0  0  0  0  0  0  0  0
   35.3081   17.7960   32.7164 H   0  0  0  0  0  0  0  0  0  0  0  0
   34.8758   31.5324   33.7180 H   0  0  0  0  0  0  0  0  0  0  0  0
   32.9032   30.6823   34.5546 H   0  0  0  0  0  0  0  0  0  0  0  0
   33.7189   29.5558   35.6541 H   0  0  0  0  0  0  0  0  0  0  0  0
   33.0416   32.5015   36.0526 H   0  0  0  0  0  0  0  0  0  0  0  0
   32.9633   31.2053   37.2402 H   0  0  0  0  0  0  0  0  0  0  0  0
   35.0586   32.9925   37.1109 H   0  0  0  0  0  0  0  0  0  0  0  0
   35.2960   31.3357   37.6941 H   0  0  0  0  0  0  0  0  0  0  0  0
   36.7146   31.0401   35.9218 H   0  0  0  0  0  0  0  0  0  0  0  0
   36.2180   32.5957   35.1921 H   0  0  0  0  0  0  0  0  0  0  0  0
  1  2  2  0
  2  3  1  0
  4  8  1  0
  4  3  2  0
  5  4  1  0
  6  5  2  0
  6  1  1  0
  7 12  2  0
  7  8  1  0
  8  9  2  0
  9 10  1  0
 11 10  2  0
 12 11  1  0
 13  1  1  0
 13 16  1  0
 14 13  2  0
 15 13  2  0
 16 20  1  0
 16 17  2  0
 17 18  1  0
 19 21  1  0
 19 18  1  0
 20 19  2  0
 21 22  1  0
 21 25  1  0
 22 23  1  0
 23 24  1  0
 25 24  1  0
  2 26  1  0
  3 27  1  0
  5 28  1  0
  6 29  1  0
  7 30  1  0
  9 31  1  0
 11 32  1  0
 21 33  1  0
 22 34  1  0
 22 35  1  0
 23 36  1  0
 23 37  1  0
 24 38  1  0
 24 39  1  0
 25 40  1  0
 25 41  1  0
M  ISO  8  26  14  27  14  28  14  29  14  30  14  31  14  32  14  33  13
M  ISO  8  34  13  35  13  36  13  37  13  38  13  39  13  40  13  41  13
M  END
>  <minimizedAffinity>  (1) 
-6.21233034

>  <minimizedRMSD>  (1) 
1.02140749

$$$$
