
     RDKit          3D

 37 40  0  0  0  0  0  0  0  0999 V2000
   36.6900   25.7720   31.6600 C   0  0  0  0  0  0  0  0  0  0  0  0
   37.5430   24.9630   32.3410 C   0  0  0  0  0  0  0  0  0  0  0  0
   37.2580   23.5930   32.4300 C   0  0  0  0  0  0  0  0  0  0  0  0
   36.1180   23.0380   31.8400 C   0  0  0  0  0  0  0  0  0  0  0  0
   35.2520   23.8650   31.1480 C   0  0  0  0  0  0  0  0  0  0  0  0
   35.5600   25.1900   31.0800 C   0  0  0  0  0  0  0  0  0  0  0  0
   35.9440   20.6720   30.9740 C   0  0  0  0  0  0  0  0  0  0  0  0
   35.9210   21.6130   31.9950 C   0  0  0  0  0  0  0  0  0  0  0  0
   35.6860   21.1340   33.3110 C   0  0  0  0  0  0  0  0  0  0  0  0
   35.5010   19.7890   33.4620 N   0  0  0  0  0  0  0  0  0  0  0  0
   35.5320   18.9140   32.4230 C   0  0  0  0  0  0  0  0  0  0  0  0
   35.7600   19.3760   31.1470 N   0  0  0  0  0  0  0  0  0  0  0  0
   37.0740   27.4700   31.5670 S   0  0  0  0  0  0  0  0  0  0  0  0
   38.5050   27.6960   31.9760 O   0  0  0  0  0  0  0  0  0  0  0  0
   36.8070   27.9650   30.1920 O   0  0  0  0  0  0  0  0  0  0  0  0
   35.9800   28.2800   32.6910 C   0  0  0  0  0  0  0  0  0  0  0  0
   36.1370   28.6960   33.9280 N   0  0  0  0  0  0  0  0  0  0  0  0
   35.0410   29.2410   34.3510 O   0  0  0  0  0  0  0  0  0  0  0  0
   34.1240   29.2070   33.4220 C   0  0  0  0  0  0  0  0  0  0  0  0
   34.6930   28.6000   32.3490 N   0  0  0  0  0  0  0  0  0  0  0  0
   32.7330   29.6710   33.3640 C   0  0  0  0  0  0  0  0  0  0  0  0
   31.7220   29.2380   34.2160 C   0  0  0  0  0  0  0  0  0  0  0  0
   30.4720   29.7990   33.9950 C   0  0  0  0  0  0  0  0  0  0  0  0
   30.2960   30.7230   32.9850 C   0  0  0  0  0  0  0  0  0  0  0  0
   31.3190   31.1340   32.1570 C   0  0  0  0  0  0  0  0  0  0  0  0
   32.5180   30.5720   32.3940 N   0  0  0  0  0  0  0  0  0  0  0  0
   38.4447   25.3770   32.8159 H   0  0  0  0  0  0  0  0  0  0  0  0
   37.9498   22.9370   32.9787 H   0  0  0  0  0  0  0  0  0  0  0  0
   34.3456   23.4663   30.6690 H   0  0  0  0  0  0  0  0  0  0  0  0
   34.8709   25.8478   30.5300 H   0  0  0  0  0  0  0  0  0  0  0  0
   36.1282   21.0310   29.9507 H   0  0  0  0  0  0  0  0  0  0  0  0
   35.6543   21.8172   34.1725 H   0  0  0  0  0  0  0  0  0  0  0  0
   35.3754   17.8399   32.6012 H   0  0  0  0  0  0  0  0  0  0  0  0
   31.9014   28.5001   35.0118 H   0  0  0  0  0  0  0  0  0  0  0  0
   29.6198   29.5066   34.6261 H   0  0  0  0  0  0  0  0  0  0  0  0
   29.2940   31.1510   32.8337 H   0  0  0  0  0  0  0  0  0  0  0  0
   31.1650   31.8721   31.3561 H   0  0  0  0  0  0  0  0  0  0  0  0
  1  2  2  0
  2  3  1  0
  4  8  1  0
  4  3  2  0
  5  4  1  0
  6  5  2  0
  6  1  1  0
  7 12  2  0
  7  8  1  0
  8  9  2  0
  9 10  1  0
 11 10  2  0
 12 11  1  0
 13  1  1  0
 13 14  2  0
 13 16  1  0
 15 13  2  0
 16 17  2  0
 17 18  1  0
 19 18  1  0
 20 16  1  0
 20 19  2  0
 21 19  1  0
 21 22  2  0
 23 22  1  0
 24 23  2  0
 25 26  2  0
 25 24  1  0
 26 21  1  0
  2 27  1  0
  3 28  1  0
  5 29  1  0
  6 30  1  0
  7 31  1  0
  9 32  1  0
 11 33  1  0
 22 34  1  0
 23 35  1  0
 24 36  1  0
 25 37  1  0
M  ISO  8  27  14  28  14  29  14  30  14  31  14  32  14  33  14  34  14
M  ISO  3  35  14  36  14  37  14
M  END
>  <minimizedAffinity>  (1) 
-5.74935532

>  <minimizedRMSD>  (1) 
0.724007308

$$$$
