
     RDKit          3D

 24 25  0  0  0  0  0  0  0  0999 V2000
   38.6610   23.3670   38.4170 C   0  0  0  0  0  0  0  0  0  0  0  0
   38.0320   24.3870   37.7000 C   0  0  0  0  0  0  0  0  0  0  0  0
   38.5790   24.6900   36.4580 C   0  0  0  0  0  0  0  0  0  0  0  0
   39.6780   23.9990   36.0010 N   0  0  0  0  0  0  0  0  0  0  0  0
   40.2410   23.0250   36.7370 C   0  0  0  0  0  0  0  0  0  0  0  0
   39.7210   22.7130   37.9540 N   0  0  0  0  0  0  0  0  0  0  0  0
   41.3760   22.3210   36.2500 N   0  0  0  0  0  0  0  0  0  0  0  0
   41.3800   21.8440   34.9030 C   0  0  0  0  0  0  0  0  0  0  0  0
   40.2820   21.8990   34.2080 N   0  0  0  0  0  0  0  0  0  0  0  0
   42.5970   21.3130   34.3470 N   0  0  0  0  0  0  0  0  0  0  0  0
   40.3220   21.5720   33.2160 H   0  0  0  0  0  0  0  0  0  0  0  0
   38.0400   25.7300   35.5830 C   0  0  0  0  0  0  0  0  0  0  0  0
   38.0920   27.0700   35.9070 C   0  0  0  0  0  0  0  0  0  0  0  0
   37.4950   27.7290   34.8550 C   0  0  0  0  0  0  0  0  0  0  0  0
   37.1080   26.7720   33.9440 C   0  0  0  0  0  0  0  0  0  0  0  0
   37.4600   25.6080   34.4350 O   0  0  0  0  0  0  0  0  0  0  0  0
   38.2628   23.0938   39.4053 H   0  0  0  0  0  0  0  0  0  0  0  0
   37.1545   24.9200   38.0949 H   0  0  0  0  0  0  0  0  0  0  0  0
   42.1877   22.1563   36.8623 H   0  0  0  0  0  0  0  0  0  0  0  0
   42.6118   20.9663   33.3772 H   0  0  0  0  0  0  0  0  0  0  0  0
   43.4530   21.2798   34.9190 H   0  0  0  0  0  0  0  0  0  0  0  0
   38.5206   27.5184   36.8154 H   0  0  0  0  0  0  0  0  0  0  0  0
   37.3539   28.8158   34.7605 H   0  0  0  0  0  0  0  0  0  0  0  0
   36.5994   26.9501   32.9850 H   0  0  0  0  0  0  0  0  0  0  0  0
  2  1  2  0
  3  2  1  0
  4  3  2  0
  4  5  1  0
  5  6  2  0
  6  1  1  0
  7  5  1  0
  8  7  1  0
  9  8  2  0
 10  8  1  0
 11  9  1  0
 12 13  2  0
 12  3  1  0
 14 13  1  0
 15 16  1  0
 15 14  2  0
 16 12  1  0
  1 17  1  0
  2 18  1  0
  7 19  1  0
 10 20  1  0
 10 21  1  0
 13 22  1  0
 14 23  1  0
 15 24  1  0
M  ISO  5  17  14  18  14  22  14  23  14  24  14
M  END
>  <minimizedAffinity>  (1) 
-4.32366657

>  <minimizedRMSD>  (1) 
4.58794975

$$$$
