
     RDKit          3D

 35 38  0  0  0  0  0  0  0  0999 V2000
   36.6630   25.8160   31.6480 C   0  0  0  0  0  0  0  0  0  0  0  0
   37.5240   25.0010   32.3230 C   0  0  0  0  0  0  0  0  0  0  0  0
   37.2450   23.6240   32.4070 C   0  0  0  0  0  0  0  0  0  0  0  0
   36.1050   23.0780   31.8130 C   0  0  0  0  0  0  0  0  0  0  0  0
   35.2310   23.8950   31.1290 C   0  0  0  0  0  0  0  0  0  0  0  0
   35.5470   25.2270   31.0770 C   0  0  0  0  0  0  0  0  0  0  0  0
   35.9600   20.7060   30.9440 C   0  0  0  0  0  0  0  0  0  0  0  0
   35.9160   21.6500   31.9610 C   0  0  0  0  0  0  0  0  0  0  0  0
   35.6640   21.1600   33.2580 C   0  0  0  0  0  0  0  0  0  0  0  0
   35.4800   19.8170   33.4420 N   0  0  0  0  0  0  0  0  0  0  0  0
   35.5370   18.9390   32.3820 C   0  0  0  0  0  0  0  0  0  0  0  0
   35.7830   19.4070   31.1190 N   0  0  0  0  0  0  0  0  0  0  0  0
   37.0360   27.5070   31.5620 S   0  0  0  0  0  0  0  0  0  0  0  0
   38.4560   27.7500   31.9690 O   0  0  0  0  0  0  0  0  0  0  0  0
   36.7500   28.0090   30.1870 O   0  0  0  0  0  0  0  0  0  0  0  0
   35.9280   28.3080   32.6790 C   0  0  0  0  0  0  0  0  0  0  0  0
   36.0860   28.7330   33.9300 N   0  0  0  0  0  0  0  0  0  0  0  0
   34.9710   29.2650   34.3400 O   0  0  0  0  0  0  0  0  0  0  0  0
   34.0650   29.2180   33.4160 C   0  0  0  0  0  0  0  0  0  0  0  0
   34.6310   28.6230   32.3580 N   0  0  0  0  0  0  0  0  0  0  0  0
   32.7030   29.7260   33.5410 C   0  0  0  0  0  0  0  0  0  0  0  0
   32.1290   30.3540   34.6370 C   0  0  0  0  0  0  0  0  0  0  0  0
   30.8430   30.6710   34.3470 N   0  0  0  0  0  0  0  0  0  0  0  0
   30.5840   30.2520   33.0740 C   0  0  0  0  0  0  0  0  0  0  0  0
   31.7110   29.6980   32.6320 N   0  0  0  0  0  0  0  0  0  0  0  0
   38.4263   25.4155   32.7964 H   0  0  0  0  0  0  0  0  0  0  0  0
   37.9381   22.9653   32.9509 H   0  0  0  0  0  0  0  0  0  0  0  0
   34.3248   23.4974   30.6487 H   0  0  0  0  0  0  0  0  0  0  0  0
   34.8538   25.8865   30.5343 H   0  0  0  0  0  0  0  0  0  0  0  0
   36.1556   21.0630   29.9221 H   0  0  0  0  0  0  0  0  0  0  0  0
   35.6158   21.8500   34.1133 H   0  0  0  0  0  0  0  0  0  0  0  0
   35.3850   17.8626   32.5502 H   0  0  0  0  0  0  0  0  0  0  0  0
   32.6369   30.5618   35.5903 H   0  0  0  0  0  0  0  0  0  0  0  0
   29.6362   30.3518   32.5247 H   0  0  0  0  0  0  0  0  0  0  0  0
   31.8131   29.2902   31.6917 H   0  0  0  0  0  0  0  0  0  0  0  0
  1  2  2  0
  2  3  1  0
  4  8  1  0
  4  3  2  0
  5  4  1  0
  6  5  2  0
  6  1  1  0
  7 12  2  0
  7  8  1  0
  8  9  2  0
  9 10  1  0
 11 10  2  0
 12 11  1  0
 13  1  1  0
 13 14  2  0
 13 16  1  0
 15 13  2  0
 16 17  2  0
 17 18  1  0
 19 21  1  0
 19 18  1  0
 20 16  1  0
 20 19  2  0
 21 22  2  0
 23 22  1  0
 24 23  2  0
 25 24  1  0
 25 21  1  0
  2 26  1  0
  3 27  1  0
  5 28  1  0
  6 29  1  0
  7 30  1  0
  9 31  1  0
 11 32  1  0
 22 33  1  0
 24 34  1  0
 25 35  1  0
M  ISO  8  26  14  27  14  28  14  29  14  30  14  31  14  32  14  33  14
M  ISO  2  34  14  35   9
M  END
>  <minimizedAffinity>  (1) 
-5.65780926

>  <minimizedRMSD>  (1) 
0.683227718

$$$$
