
     RDKit          3D

 40 42  0  0  0  0  0  0  0  0999 V2000
   36.6370   25.7940   31.5890 C   0  0  0  0  0  0  0  0  0  0  0  0
   37.5160   24.9840   32.2620 C   0  0  0  0  0  0  0  0  0  0  0  0
   37.2330   23.6160   32.3600 C   0  0  0  0  0  0  0  0  0  0  0  0
   36.0880   23.0630   31.7940 C   0  0  0  0  0  0  0  0  0  0  0  0
   35.1930   23.8720   31.1110 C   0  0  0  0  0  0  0  0  0  0  0  0
   35.5120   25.2120   31.0400 C   0  0  0  0  0  0  0  0  0  0  0  0
   35.9410   20.6850   30.9470 C   0  0  0  0  0  0  0  0  0  0  0  0
   35.9030   21.6360   31.9600 C   0  0  0  0  0  0  0  0  0  0  0  0
   35.6620   21.1560   33.2540 C   0  0  0  0  0  0  0  0  0  0  0  0
   35.4830   19.8160   33.4470 N   0  0  0  0  0  0  0  0  0  0  0  0
   35.5320   18.9280   32.4140 C   0  0  0  0  0  0  0  0  0  0  0  0
   35.7640   19.3790   31.1530 N   0  0  0  0  0  0  0  0  0  0  0  0
   36.9990   27.4880   31.4760 S   0  0  0  0  0  0  0  0  0  0  0  0
   38.4740   27.7160   31.7370 O   0  0  0  0  0  0  0  0  0  0  0  0
   36.5990   28.0130   30.1490 O   0  0  0  0  0  0  0  0  0  0  0  0
   36.0300   28.2860   32.7120 C   0  0  0  0  0  0  0  0  0  0  0  0
   36.2940   28.5710   33.9820 N   0  0  0  0  0  0  0  0  0  0  0  0
   35.2690   29.1710   34.5090 O   0  0  0  0  0  0  0  0  0  0  0  0
   34.3170   29.3010   33.6290 C   0  0  0  0  0  0  0  0  0  0  0  0
   34.7640   28.7570   32.4930 N   0  0  0  0  0  0  0  0  0  0  0  0
   32.9970   29.9320   33.8470 C   0  0  0  0  0  0  0  0  0  0  0  0
   31.9040   29.1330   33.1880 C   0  0  0  0  0  0  0  0  0  0  0  0
   32.6310   30.0390   35.3220 C   0  0  0  0  0  0  0  0  0  0  0  0
   32.9570   31.3310   33.2770 C   0  0  0  0  0  0  0  0  0  0  0  0
   38.4266   25.4014   32.7164 H   0  0  0  0  0  0  0  0  0  0  0  0
   37.9340   22.9613   32.8984 H   0  0  0  0  0  0  0  0  0  0  0  0
   34.2792   23.4677   30.6512 H   0  0  0  0  0  0  0  0  0  0  0  0
   34.8135   25.8701   30.5025 H   0  0  0  0  0  0  0  0  0  0  0  0
   36.1273   21.0283   29.9187 H   0  0  0  0  0  0  0  0  0  0  0  0
   35.6174   21.8511   34.1054 H   0  0  0  0  0  0  0  0  0  0  0  0
   35.3848   17.8538   32.5996 H   0  0  0  0  0  0  0  0  0  0  0  0
   31.2714   28.6706   33.9600 H   0  0  0  0  0  0  0  0  0  0  0  0
   31.2910   29.7974   32.5613 H   0  0  0  0  0  0  0  0  0  0  0  0
   32.3511   28.3473   32.5613 H   0  0  0  0  0  0  0  0  0  0  0  0
   33.5067   29.7830   35.9366 H   0  0  0  0  0  0  0  0  0  0  0  0
   32.3131   31.0677   35.5472 H   0  0  0  0  0  0  0  0  0  0  0  0
   31.8090   29.3436   35.5472 H   0  0  0  0  0  0  0  0  0  0  0  0
   32.9361   32.0615   34.0992 H   0  0  0  0  0  0  0  0  0  0  0  0
   33.8507   31.5006   32.6585 H   0  0  0  0  0  0  0  0  0  0  0  0
   32.0551   31.4493   32.6585 H   0  0  0  0  0  0  0  0  0  0  0  0
  1  2  2  0
  2  3  1  0
  4  8  1  0
  4  3  2  0
  5  4  1  0
  6  5  2  0
  6  1  1  0
  7 12  2  0
  7  8  1  0
  8  9  2  0
  9 10  1  0
 11 10  2  0
 12 11  1  0
 13  1  1  0
 13 14  2  0
 13 16  1  0
 15 13  2  0
 16 17  2  0
 17 18  1  0
 19 21  1  0
 19 18  1  0
 20 16  1  0
 20 19  2  0
 21 23  1  0
 22 21  1  0
 24 21  1  0
  2 25  1  0
  3 26  1  0
  5 27  1  0
  6 28  1  0
  7 29  1  0
  9 30  1  0
 11 31  1  0
 22 32  1  0
 22 33  1  0
 22 34  1  0
 23 35  1  0
 23 36  1  0
 23 37  1  0
 24 38  1  0
 24 39  1  0
 24 40  1  0
M  ISO  8  25  14  26  14  27  14  28  14  29  14  30  14  31  14  32   8
M  ISO  8  33   8  34   8  35   8  36   8  37   8  38   8  39   8  40   8
M  END
>  <minimizedAffinity>  (1) 
-5.49635601

>  <minimizedRMSD>  (1) 
0.359717548

$$$$
