
     RDKit          3D

 35 38  0  0  0  0  0  0  0  0999 V2000
   36.6100   25.8390   31.6440 C   0  0  0  0  0  0  0  0  0  0  0  0
   37.4710   25.0330   32.3330 C   0  0  0  0  0  0  0  0  0  0  0  0
   37.1930   23.6630   32.4040 C   0  0  0  0  0  0  0  0  0  0  0  0
   36.0730   23.1050   31.7970 C   0  0  0  0  0  0  0  0  0  0  0  0
   35.2010   23.9130   31.1000 C   0  0  0  0  0  0  0  0  0  0  0  0
   35.5060   25.2490   31.0520 C   0  0  0  0  0  0  0  0  0  0  0  0
   35.9610   20.7270   30.9260 C   0  0  0  0  0  0  0  0  0  0  0  0
   35.9010   21.6740   31.9450 C   0  0  0  0  0  0  0  0  0  0  0  0
   35.6460   21.1840   33.2390 C   0  0  0  0  0  0  0  0  0  0  0  0
   35.4770   19.8400   33.4160 N   0  0  0  0  0  0  0  0  0  0  0  0
   35.5490   18.9620   32.3700 C   0  0  0  0  0  0  0  0  0  0  0  0
   35.7970   19.4260   31.0990 N   0  0  0  0  0  0  0  0  0  0  0  0
   36.9630   27.5490   31.5610 S   0  0  0  0  0  0  0  0  0  0  0  0
   38.4100   27.7860   31.9450 O   0  0  0  0  0  0  0  0  0  0  0  0
   36.6600   28.0590   30.2030 O   0  0  0  0  0  0  0  0  0  0  0  0
   35.8880   28.3240   32.7160 C   0  0  0  0  0  0  0  0  0  0  0  0
   36.0600   28.6630   33.9910 N   0  0  0  0  0  0  0  0  0  0  0  0
   34.9640   29.2220   34.4380 O   0  0  0  0  0  0  0  0  0  0  0  0
   34.0710   29.2660   33.5040 C   0  0  0  0  0  0  0  0  0  0  0  0
   34.6150   28.7130   32.4170 N   0  0  0  0  0  0  0  0  0  0  0  0
   32.7430   29.8110   33.6320 C   0  0  0  0  0  0  0  0  0  0  0  0
   31.5370   29.3200   33.3260 C   0  0  0  0  0  0  0  0  0  0  0  0
   30.4160   30.0720   33.5590 C   0  0  0  0  0  0  0  0  0  0  0  0
   30.6410   31.3560   34.1270 C   0  0  0  0  0  0  0  0  0  0  0  0
   32.4200   31.4390   34.3050 S   0  0  0  0  0  0  0  0  0  0  0  0
   38.3634   25.4514   32.8214 H   0  0  0  0  0  0  0  0  0  0  0  0
   37.8817   23.0074   32.9570 H   0  0  0  0  0  0  0  0  0  0  0  0
   34.3055   23.5067   30.6070 H   0  0  0  0  0  0  0  0  0  0  0  0
   34.8181   25.9051   30.4985 H   0  0  0  0  0  0  0  0  0  0  0  0
   36.1587   21.0861   29.9052 H   0  0  0  0  0  0  0  0  0  0  0  0
   35.5837   21.8723   34.0948 H   0  0  0  0  0  0  0  0  0  0  0  0
   35.4086   17.8851   32.5449 H   0  0  0  0  0  0  0  0  0  0  0  0
   31.4456   28.3149   32.8884 H   0  0  0  0  0  0  0  0  0  0  0  0
   29.4062   29.7059   33.3218 H   0  0  0  0  0  0  0  0  0  0  0  0
   29.8959   32.1197   34.3945 H   0  0  0  0  0  0  0  0  0  0  0  0
  1  2  2  0
  2  3  1  0
  4  8  1  0
  4  3  2  0
  5  4  1  0
  6  5  2  0
  6  1  1  0
  7 12  2  0
  7  8  1  0
  8  9  2  0
  9 10  1  0
 11 10  2  0
 12 11  1  0
 13  1  1  0
 13 14  2  0
 13 16  1  0
 15 13  2  0
 16 17  2  0
 17 18  1  0
 19 21  1  0
 19 18  1  0
 20 16  1  0
 20 19  2  0
 21 25  1  0
 22 23  1  0
 22 21  2  0
 23 24  2  0
 24 25  1  0
  2 26  1  0
  3 27  1  0
  5 28  1  0
  6 29  1  0
  7 30  1  0
  9 31  1  0
 11 32  1  0
 22 33  1  0
 23 34  1  0
 24 35  1  0
M  ISO  8  26  14  27  14  28  14  29  14  30  14  31  14  32  14  33  14
M  ISO  2  34  14  35  14
M  END
>  <minimizedAffinity>  (1) 
-5.55106401

>  <minimizedRMSD>  (1) 
0.689886749

$$$$
