
     RDKit          3D

 31 33  0  0  0  0  0  0  0  0999 V2000
   36.6120   25.8280   31.6390 C   0  0  0  0  0  0  0  0  0  0  0  0
   37.4760   25.0200   32.3270 C   0  0  0  0  0  0  0  0  0  0  0  0
   37.2040   23.6490   32.4040 C   0  0  0  0  0  0  0  0  0  0  0  0
   36.0870   23.0890   31.8030 C   0  0  0  0  0  0  0  0  0  0  0  0
   35.2010   23.8960   31.0990 C   0  0  0  0  0  0  0  0  0  0  0  0
   35.5040   25.2280   31.0490 C   0  0  0  0  0  0  0  0  0  0  0  0
   35.9680   20.7170   30.9340 C   0  0  0  0  0  0  0  0  0  0  0  0
   35.9100   21.6590   31.9490 C   0  0  0  0  0  0  0  0  0  0  0  0
   35.6510   21.1640   33.2550 C   0  0  0  0  0  0  0  0  0  0  0  0
   35.4810   19.8250   33.4180 N   0  0  0  0  0  0  0  0  0  0  0  0
   35.5520   18.9410   32.3640 C   0  0  0  0  0  0  0  0  0  0  0  0
   35.8030   19.4140   31.0970 N   0  0  0  0  0  0  0  0  0  0  0  0
   36.9710   27.5310   31.5580 S   0  0  0  0  0  0  0  0  0  0  0  0
   38.4310   27.7660   31.8840 O   0  0  0  0  0  0  0  0  0  0  0  0
   36.6240   28.0440   30.2020 O   0  0  0  0  0  0  0  0  0  0  0  0
   35.9360   28.3050   32.7400 C   0  0  0  0  0  0  0  0  0  0  0  0
   36.1260   28.6030   34.0180 N   0  0  0  0  0  0  0  0  0  0  0  0
   35.0660   29.1790   34.4950 O   0  0  0  0  0  0  0  0  0  0  0  0
   34.1390   29.2900   33.5710 C   0  0  0  0  0  0  0  0  0  0  0  0
   34.6690   28.7430   32.4530 N   0  0  0  0  0  0  0  0  0  0  0  0
   32.7640   29.8720   33.6290 C   0  0  0  0  0  0  0  0  0  0  0  0
   32.8420   31.2330   33.4710 F   0  0  0  0  0  0  0  0  0  0  0  0
   32.2110   29.5020   34.8210 F   0  0  0  0  0  0  0  0  0  0  0  0
   32.0380   29.2740   32.6190 F   0  0  0  0  0  0  0  0  0  0  0  0
   38.3694   25.4409   32.8115 H   0  0  0  0  0  0  0  0  0  0  0  0
   37.8963   22.9973   32.9572 H   0  0  0  0  0  0  0  0  0  0  0  0
   34.3056   23.4856   30.6092 H   0  0  0  0  0  0  0  0  0  0  0  0
   34.8132   25.8809   30.4953 H   0  0  0  0  0  0  0  0  0  0  0  0
   36.1664   21.0802   29.9148 H   0  0  0  0  0  0  0  0  0  0  0  0
   35.5894   21.8480   34.1143 H   0  0  0  0  0  0  0  0  0  0  0  0
   35.4089   17.8637   32.5344 H   0  0  0  0  0  0  0  0  0  0  0  0
  1  2  2  0
  2  3  1  0
  4  8  1  0
  4  3  2  0
  5  4  1  0
  6  5  2  0
  6  1  1  0
  7 12  2  0
  7  8  1  0
  8  9  2  0
  9 10  1  0
 11 10  2  0
 12 11  1  0
 13  1  1  0
 13 14  2  0
 13 16  1  0
 15 13  2  0
 16 17  2  0
 17 18  1  0
 19 21  1  0
 19 18  1  0
 20 16  1  0
 20 19  2  0
 21 23  1  0
 22 21  1  0
 24 21  1  0
  2 25  1  0
  3 26  1  0
  5 27  1  0
  6 28  1  0
  7 29  1  0
  9 30  1  0
 11 31  1  0
M  ISO  7  25  14  26  14  27  14  28  14  29  14  30  14  31  14
M  END
>  <minimizedAffinity>  (1) 
-5.3995719

>  <minimizedRMSD>  (1) 
0.461760074

$$$$
