
     RDKit          3D

 31 33  0  0  0  0  0  0  0  0999 V2000
   36.6840   25.7300   31.6510 C   0  0  0  0  0  0  0  0  0  0  0  0
   37.5440   24.9150   32.3460 C   0  0  0  0  0  0  0  0  0  0  0  0
   37.2530   23.5470   32.4480 C   0  0  0  0  0  0  0  0  0  0  0  0
   36.1060   22.9990   31.8550 C   0  0  0  0  0  0  0  0  0  0  0  0
   35.2350   23.8210   31.1510 C   0  0  0  0  0  0  0  0  0  0  0  0
   35.5670   25.1600   31.0820 C   0  0  0  0  0  0  0  0  0  0  0  0
   35.9090   20.6330   31.0050 C   0  0  0  0  0  0  0  0  0  0  0  0
   35.9040   21.5780   32.0210 C   0  0  0  0  0  0  0  0  0  0  0  0
   35.6810   21.1040   33.3290 C   0  0  0  0  0  0  0  0  0  0  0  0
   35.4880   19.7740   33.5220 N   0  0  0  0  0  0  0  0  0  0  0  0
   35.5030   18.8800   32.4790 C   0  0  0  0  0  0  0  0  0  0  0  0
   35.7180   19.3350   31.2130 N   0  0  0  0  0  0  0  0  0  0  0  0
   37.0860   27.4240   31.5510 S   0  0  0  0  0  0  0  0  0  0  0  0
   38.5490   27.6360   31.8550 O   0  0  0  0  0  0  0  0  0  0  0  0
   36.7190   27.9420   30.2070 O   0  0  0  0  0  0  0  0  0  0  0  0
   36.0820   28.2330   32.7630 C   0  0  0  0  0  0  0  0  0  0  0  0
   36.2470   28.4050   34.0650 N   0  0  0  0  0  0  0  0  0  0  0  0
   35.2290   29.0720   34.5260 O   0  0  0  0  0  0  0  0  0  0  0  0
   34.3800   29.3570   33.5850 C   0  0  0  0  0  0  0  0  0  0  0  0
   34.8940   28.8390   32.4630 N   0  0  0  0  0  0  0  0  0  0  0  0
   33.0910   30.0940   33.6560 C   0  0  0  0  0  0  0  0  0  0  0  0
   38.4481   25.3295   32.8159 H   0  0  0  0  0  0  0  0  0  0  0  0
   37.9381   22.8904   33.0043 H   0  0  0  0  0  0  0  0  0  0  0  0
   34.3268   23.4255   30.6727 H   0  0  0  0  0  0  0  0  0  0  0  0
   34.8855   25.8232   30.5290 H   0  0  0  0  0  0  0  0  0  0  0  0
   36.0800   20.9764   29.9741 H   0  0  0  0  0  0  0  0  0  0  0  0
   35.6635   21.8004   34.1803 H   0  0  0  0  0  0  0  0  0  0  0  0
   35.3430   17.8076   32.6642 H   0  0  0  0  0  0  0  0  0  0  0  0
   32.8161   30.2512   34.7094 H   0  0  0  0  0  0  0  0  0  0  0  0
   33.1974   31.0678   33.1556 H   0  0  0  0  0  0  0  0  0  0  0  0
   32.3058   29.5084   33.1556 H   0  0  0  0  0  0  0  0  0  0  0  0
  1  2  2  0
  2  3  1  0
  4  8  1  0
  4  3  2  0
  5  4  1  0
  6  5  2  0
  6  1  1  0
  7 12  2  0
  7  8  1  0
  8  9  2  0
  9 10  1  0
 11 10  2  0
 12 11  1  0
 13  1  1  0
 13 14  2  0
 13 16  1  0
 15 13  2  0
 16 17  2  0
 17 18  1  0
 19 21  1  0
 19 18  1  0
 20 16  1  0
 20 19  2  0
  2 22  1  0
  3 23  1  0
  5 24  1  0
  6 25  1  0
  7 26  1  0
  9 27  1  0
 11 28  1  0
 21 29  1  0
 21 30  1  0
 21 31  1  0
M  ISO  8  22  14  23  14  24  14  25  14  26  14  27  14  28  14  29   8
M  ISO  2  30   8  31   8
M  END
>  <minimizedAffinity>  (1) 
-5.08821821

>  <minimizedRMSD>  (1) 
0.25965941

$$$$
