
     RDKit          3D

 35 38  0  0  0  0  0  0  0  0999 V2000
   36.6620   25.7800   31.6680 C   0  0  0  0  0  0  0  0  0  0  0  0
   37.5290   24.9610   32.3480 C   0  0  0  0  0  0  0  0  0  0  0  0
   37.2480   23.5950   32.4190 C   0  0  0  0  0  0  0  0  0  0  0  0
   36.1110   23.0460   31.8160 C   0  0  0  0  0  0  0  0  0  0  0  0
   35.2390   23.8710   31.1320 C   0  0  0  0  0  0  0  0  0  0  0  0
   35.5480   25.1970   31.0860 C   0  0  0  0  0  0  0  0  0  0  0  0
   35.9680   20.6840   30.9340 C   0  0  0  0  0  0  0  0  0  0  0  0
   35.9230   21.6180   31.9540 C   0  0  0  0  0  0  0  0  0  0  0  0
   35.6680   21.1240   33.2620 C   0  0  0  0  0  0  0  0  0  0  0  0
   35.4840   19.7800   33.4310 N   0  0  0  0  0  0  0  0  0  0  0  0
   35.5430   18.9100   32.3750 C   0  0  0  0  0  0  0  0  0  0  0  0
   35.7860   19.3790   31.1250 N   0  0  0  0  0  0  0  0  0  0  0  0
   37.0340   27.4870   31.5940 S   0  0  0  0  0  0  0  0  0  0  0  0
   38.4790   27.7150   31.9870 O   0  0  0  0  0  0  0  0  0  0  0  0
   36.7500   28.0010   30.2280 O   0  0  0  0  0  0  0  0  0  0  0  0
   35.9630   28.2670   32.7470 C   0  0  0  0  0  0  0  0  0  0  0  0
   36.0890   28.5690   34.0190 N   0  0  0  0  0  0  0  0  0  0  0  0
   35.0050   29.1510   34.4450 O   0  0  0  0  0  0  0  0  0  0  0  0
   34.1330   29.2540   33.4860 C   0  0  0  0  0  0  0  0  0  0  0  0
   34.7070   28.7060   32.4060 N   0  0  0  0  0  0  0  0  0  0  0  0
   32.7710   29.8560   33.5600 C   0  0  0  0  0  0  0  0  0  0  0  0
   31.8570   29.5960   34.6770 C   0  0  0  0  0  0  0  0  0  0  0  0
   31.5750   28.9200   33.3830 C   0  0  0  0  0  0  0  0  0  0  0  0
   38.4287   25.3733   32.8282 H   0  0  0  0  0  0  0  0  0  0  0  0
   37.9383   22.9335   32.9630 H   0  0  0  0  0  0  0  0  0  0  0  0
   34.3352   23.4747   30.6461 H   0  0  0  0  0  0  0  0  0  0  0  0
   34.8571   25.8584   30.5428 H   0  0  0  0  0  0  0  0  0  0  0  0
   36.1645   21.0384   29.9114 H   0  0  0  0  0  0  0  0  0  0  0  0
   35.6197   21.8093   34.1211 H   0  0  0  0  0  0  0  0  0  0  0  0
   35.3936   17.8327   32.5398 H   0  0  0  0  0  0  0  0  0  0  0  0
   33.1516   30.7792   33.0987 H   0  0  0  0  0  0  0  0  0  0  0  0
   32.2036   29.0025   35.5359 H   0  0  0  0  0  0  0  0  0  0  0  0
   31.2676   30.2391   35.3471 H   0  0  0  0  0  0  0  0  0  0  0  0
   30.7143   29.2288   32.7715 H   0  0  0  0  0  0  0  0  0  0  0  0
   31.4290   27.8814   33.0515 H   0  0  0  0  0  0  0  0  0  0  0  0
  1  2  2  0
  2  3  1  0
  4  8  1  0
  4  3  2  0
  5  4  1  0
  6  5  2  0
  6  1  1  0
  7 12  2  0
  7  8  1  0
  8  9  2  0
  9 10  1  0
 11 10  2  0
 12 11  1  0
 13  1  1  0
 13 14  2  0
 13 16  1  0
 15 13  2  0
 16 17  2  0
 17 18  1  0
 19 21  1  0
 19 18  1  0
 20 16  1  0
 20 19  2  0
 21 22  1  0
 23 21  1  0
 23 22  1  0
  2 24  1  0
  3 25  1  0
  5 26  1  0
  6 27  1  0
  7 28  1  0
  9 29  1  0
 11 30  1  0
 21 31  1  0
 22 32  1  0
 22 33  1  0
 23 34  1  0
 23 35  1  0
M  ISO  8  24  14  25  14  26  14  27  14  28  14  29  14  30  14  31  13
M  ISO  4  32  13  33  13  34  13  35  13
M  END
>  <minimizedAffinity>  (1) 
-5.34074879

>  <minimizedRMSD>  (1) 
0.478032172

$$$$
