
     RDKit          3D

 40 44  0  0  0  0  0  0  0  0999 V2000
   37.1980   25.2250   31.5560 C   0  0  0  0  0  0  0  0  0  0  0  0
   38.0420   24.3170   32.1120 C   0  0  0  0  0  0  0  0  0  0  0  0
   37.6510   22.9770   32.2030 C   0  0  0  0  0  0  0  0  0  0  0  0
   36.4210   22.5510   31.7390 C   0  0  0  0  0  0  0  0  0  0  0  0
   35.5550   23.4590   31.1730 C   0  0  0  0  0  0  0  0  0  0  0  0
   35.9820   24.7570   31.1070 C   0  0  0  0  0  0  0  0  0  0  0  0
   36.2210   20.1710   30.9000 C   0  0  0  0  0  0  0  0  0  0  0  0
   36.1150   21.1350   31.8830 C   0  0  0  0  0  0  0  0  0  0  0  0
   35.6610   20.7020   33.1620 C   0  0  0  0  0  0  0  0  0  0  0  0
   35.3670   19.3800   33.3230 N   0  0  0  0  0  0  0  0  0  0  0  0
   35.4920   18.4790   32.3190 C   0  0  0  0  0  0  0  0  0  0  0  0
   35.9290   18.8890   31.0840 N   0  0  0  0  0  0  0  0  0  0  0  0
   37.6980   26.8890   31.4500 S   0  0  0  0  0  0  0  0  0  0  0  0
   39.2030   26.9710   31.5650 O   0  0  0  0  0  0  0  0  0  0  0  0
   37.2240   27.4830   30.1830 O   0  0  0  0  0  0  0  0  0  0  0  0
   36.9360   27.7120   32.8020 C   0  0  0  0  0  0  0  0  0  0  0  0
   37.1950   27.7170   34.0920 N   0  0  0  0  0  0  0  0  0  0  0  0
   36.3540   28.4840   34.7090 O   0  0  0  0  0  0  0  0  0  0  0  0
   35.5020   29.0230   33.8610 C   0  0  0  0  0  0  0  0  0  0  0  0
   35.8650   28.5410   32.6650 N   0  0  0  0  0  0  0  0  0  0  0  0
   34.4350   29.8860   33.9520 O   0  0  0  0  0  0  0  0  0  0  0  0
   33.8830   32.6530   37.6560 N   0  0  0  0  0  0  0  0  0  0  0  0
   34.9560   33.0460   36.9210 C   0  0  0  0  0  0  0  0  0  0  0  0
   35.0320   32.1950   35.8860 N   0  0  0  0  0  0  0  0  0  0  0  0
   34.0460   31.3120   35.9740 C   0  0  0  0  0  0  0  0  0  0  0  0
   33.7900   30.2810   35.1020 C   0  0  0  0  0  0  0  0  0  0  0  0
   32.7140   29.4900   35.3910 N   0  0  0  0  0  0  0  0  0  0  0  0
   31.9670   29.7530   36.5040 C   0  0  0  0  0  0  0  0  0  0  0  0
   32.2290   30.7790   37.3670 N   0  0  0  0  0  0  0  0  0  0  0  0
   33.2840   31.5650   37.0930 C   0  0  0  0  0  0  0  0  0  0  0  0
   39.0261   24.6334   32.4880 H   0  0  0  0  0  0  0  0  0  0  0  0
   38.3381   22.2459   32.6541 H   0  0  0  0  0  0  0  0  0  0  0  0
   34.5684   23.1559   30.7926 H   0  0  0  0  0  0  0  0  0  0  0  0
   35.2961   25.4898   30.6571 H   0  0  0  0  0  0  0  0  0  0  0  0
   36.5683   20.4842   29.9044 H   0  0  0  0  0  0  0  0  0  0  0  0
   35.5509   21.4124   33.9946 H   0  0  0  0  0  0  0  0  0  0  0  0
   35.2439   17.4216   32.4930 H   0  0  0  0  0  0  0  0  0  0  0  0
   33.5653   33.1140   38.5206 H   0  0  0  0  0  0  0  0  0  0  0  0
   35.6273   33.8915   37.1318 H   0  0  0  0  0  0  0  0  0  0  0  0
   31.1063   29.1021   36.7173 H   0  0  0  0  0  0  0  0  0  0  0  0
  1  2  2  0
  2  3  1  0
  4  8  1  0
  4  3  2  0
  5  4  1  0
  6  5  2  0
  6  1  1  0
  7 12  2  0
  7  8  1  0
  8  9  2  0
  9 10  1  0
 11 10  2  0
 12 11  1  0
 13  1  1  0
 13 14  2  0
 13 16  1  0
 15 13  2  0
 16 17  2  0
 17 18  1  0
 19 21  1  0
 19 18  1  0
 20 16  1  0
 20 19  2  0
 21 26  1  0
 23 22  1  0
 24 25  1  0
 24 23  2  0
 25 30  2  0
 26 27  2  0
 26 25  1  0
 27 28  1  0
 28 29  2  0
 30 29  1  0
 30 22  1  0
  2 31  1  0
  3 32  1  0
  5 33  1  0
  6 34  1  0
  7 35  1  0
  9 36  1  0
 11 37  1  0
 22 38  1  0
 23 39  1  0
 28 40  1  0
M  ISO  8  31  14  32  14  33  14  34  14  35  14  36  14  37  14  38   9
M  ISO  2  39  14  40  14
M  END
>  <minimizedAffinity>  (1) 
-6.41210508

>  <minimizedRMSD>  (1) 
1.3458128

$$$$
