
     RDKit          3D

 29 31  0  0  0  0  0  0  0  0999 V2000
   36.5920   25.8510   31.6370 C   0  0  0  0  0  0  0  0  0  0  0  0
   37.4560   25.0470   32.3230 C   0  0  0  0  0  0  0  0  0  0  0  0
   37.1920   23.6770   32.4030 C   0  0  0  0  0  0  0  0  0  0  0  0
   36.0690   23.1190   31.8010 C   0  0  0  0  0  0  0  0  0  0  0  0
   35.1880   23.9230   31.1030 C   0  0  0  0  0  0  0  0  0  0  0  0
   35.4870   25.2630   31.0490 C   0  0  0  0  0  0  0  0  0  0  0  0
   35.9420   20.7410   30.9350 C   0  0  0  0  0  0  0  0  0  0  0  0
   35.8930   21.6820   31.9480 C   0  0  0  0  0  0  0  0  0  0  0  0
   35.6490   21.1910   33.2560 C   0  0  0  0  0  0  0  0  0  0  0  0
   35.4790   19.8520   33.4260 N   0  0  0  0  0  0  0  0  0  0  0  0
   35.5390   18.9730   32.3840 C   0  0  0  0  0  0  0  0  0  0  0  0
   35.7740   19.4390   31.1230 N   0  0  0  0  0  0  0  0  0  0  0  0
   36.9440   27.5620   31.5490 S   0  0  0  0  0  0  0  0  0  0  0  0
   38.3920   27.7980   31.9020 O   0  0  0  0  0  0  0  0  0  0  0  0
   36.6180   28.0760   30.1960 O   0  0  0  0  0  0  0  0  0  0  0  0
   35.8990   28.3300   32.7310 C   0  0  0  0  0  0  0  0  0  0  0  0
   36.0250   28.5480   34.0200 N   0  0  0  0  0  0  0  0  0  0  0  0
   34.9720   29.1640   34.4810 O   0  0  0  0  0  0  0  0  0  0  0  0
   34.1170   29.3730   33.5100 C   0  0  0  0  0  0  0  0  0  0  0  0
   34.6810   28.8580   32.4120 N   0  0  0  0  0  0  0  0  0  0  0  0
   32.8670   29.9730   33.4480 O   0  0  0  0  0  0  0  0  0  0  0  0
   38.3481   25.4718   32.8064 H   0  0  0  0  0  0  0  0  0  0  0  0
   37.8870   23.0261   32.9537 H   0  0  0  0  0  0  0  0  0  0  0  0
   34.2924   23.5109   30.6151 H   0  0  0  0  0  0  0  0  0  0  0  0
   34.7959   25.9168   30.4969 H   0  0  0  0  0  0  0  0  0  0  0  0
   36.1320   21.0944   29.9108 H   0  0  0  0  0  0  0  0  0  0  0  0
   35.5983   21.8776   34.1139 H   0  0  0  0  0  0  0  0  0  0  0  0
   35.3989   17.8961   32.5592 H   0  0  0  0  0  0  0  0  0  0  0  0
   32.3841   30.0229   32.5852 H   0  0  0  0  0  0  0  0  0  0  0  0
  1  2  2  0
  2  3  1  0
  4  8  1  0
  4  3  2  0
  5  4  1  0
  6  5  2  0
  6  1  1  0
  7 12  2  0
  7  8  1  0
  8  9  2  0
  9 10  1  0
 11 10  2  0
 12 11  1  0
 13  1  1  0
 13 14  2  0
 13 16  1  0
 15 13  2  0
 16 17  2  0
 17 18  1  0
 19 18  1  0
 20 16  1  0
 20 19  2  0
 21 19  1  0
  2 22  1  0
  3 23  1  0
  5 24  1  0
  6 25  1  0
  7 26  1  0
  9 27  1  0
 11 28  1  0
 21 29  1  0
M  ISO  8  22  14  23  14  24  14  25  14  26  14  27  14  28  14  29   3
M  END
>  <minimizedAffinity>  (1) 
-5.08157873

>  <minimizedRMSD>  (1) 
0.35550648

$$$$
