
     RDKit          3D

 43 47  0  0  0  0  0  0  0  0999 V2000
   37.3270   27.2540   31.2410 S   0  0  0  0  0  0  0  0  0  0  0  0
   38.8300   27.3820   31.2370 O   0  0  0  0  0  0  0  0  0  0  0  0
   36.7310   27.8080   30.0100 O   0  0  0  0  0  0  0  0  0  0  0  0
   36.8770   25.5760   31.4280 C   0  0  0  0  0  0  0  0  0  0  0  0
   37.7950   24.7210   31.9780 C   0  0  0  0  0  0  0  0  0  0  0  0
   37.4620   23.3730   32.1390 C   0  0  0  0  0  0  0  0  0  0  0  0
   36.2090   22.8890   31.7460 C   0  0  0  0  0  0  0  0  0  0  0  0
   35.2760   23.7500   31.1890 C   0  0  0  0  0  0  0  0  0  0  0  0
   35.6610   25.0560   31.0580 C   0  0  0  0  0  0  0  0  0  0  0  0
   35.9690   20.4860   30.9880 C   0  0  0  0  0  0  0  0  0  0  0  0
   35.9640   21.4730   31.9560 C   0  0  0  0  0  0  0  0  0  0  0  0
   35.6910   21.0550   33.2910 C   0  0  0  0  0  0  0  0  0  0  0  0
   35.4580   19.7300   33.5120 N   0  0  0  0  0  0  0  0  0  0  0  0
   35.4770   18.8090   32.5180 C   0  0  0  0  0  0  0  0  0  0  0  0
   35.7370   19.2030   31.2400 N   0  0  0  0  0  0  0  0  0  0  0  0
   36.6580   28.0910   32.6380 C   0  0  0  0  0  0  0  0  0  0  0  0
   36.8930   27.9970   33.9270 N   0  0  0  0  0  0  0  0  0  0  0  0
   36.1360   28.8400   34.5820 O   0  0  0  0  0  0  0  0  0  0  0  0
   35.3840   29.5080   33.7510 C   0  0  0  0  0  0  0  0  0  0  0  0
   35.7020   29.0490   32.5270 N   0  0  0  0  0  0  0  0  0  0  0  0
   34.4320   30.4920   33.9110 O   0  0  0  0  0  0  0  0  0  0  0  0
   33.7730   30.7090   35.1150 C   0  0  0  0  0  0  0  0  0  0  0  0
   34.2270   31.5350   36.0740 N   0  0  0  0  0  0  0  0  0  0  0  0
   33.5820   31.7380   37.2380 C   0  0  0  0  0  0  0  0  0  0  0  0
   32.4180   31.0710   37.4420 N   0  0  0  0  0  0  0  0  0  0  0  0
   31.9520   30.2520   36.5120 C   0  0  0  0  0  0  0  0  0  0  0  0
   30.7540   29.5670   36.7250 C   0  0  0  0  0  0  0  0  0  0  0  0
   30.2680   28.7120   35.7500 C   0  0  0  0  0  0  0  0  0  0  0  0
   30.9110   28.4870   34.5510 C   0  0  0  0  0  0  0  0  0  0  0  0
   32.1110   29.1650   34.3220 C   0  0  0  0  0  0  0  0  0  0  0  0
   32.5760   30.0120   35.3070 C   0  0  0  0  0  0  0  0  0  0  0  0
   38.7830   25.0910   32.2894 H   0  0  0  0  0  0  0  0  0  0  0  0
   38.1954   22.6826   32.5810 H   0  0  0  0  0  0  0  0  0  0  0  0
   34.2822   23.4025   30.8704 H   0  0  0  0  0  0  0  0  0  0  0  0
   34.9318   25.7516   30.6171 H   0  0  0  0  0  0  0  0  0  0  0  0
   36.1772   20.7805   29.9488 H   0  0  0  0  0  0  0  0  0  0  0  0
   35.6690   21.7797   34.1182 H   0  0  0  0  0  0  0  0  0  0  0  0
   35.2836   17.7495   32.7418 H   0  0  0  0  0  0  0  0  0  0  0  0
   33.9854   32.4223   37.9990 H   0  0  0  0  0  0  0  0  0  0  0  0
   30.1982   29.7060   37.6640 H   0  0  0  0  0  0  0  0  0  0  0  0
   29.3212   28.1858   35.9416 H   0  0  0  0  0  0  0  0  0  0  0  0
   30.4940   27.7982   33.8015 H   0  0  0  0  0  0  0  0  0  0  0  0
   32.6687   29.0276   33.3839 H   0  0  0  0  0  0  0  0  0  0  0  0
  1  4  1  0
  1 16  1  0
  2  1  2  0
  3  1  2  0
  4  5  2  0
  5  6  1  0
  7 11  1  0
  7  6  2  0
  8  7  1  0
  9  8  2  0
  9  4  1  0
 10 15  2  0
 10 11  1  0
 11 12  2  0
 12 13  1  0
 14 13  2  0
 15 14  1  0
 16 17  2  0
 17 18  1  0
 19 21  1  0
 19 18  1  0
 20 16  1  0
 20 19  2  0
 21 22  1  0
 22 31  1  0
 22 23  2  0
 23 24  1  0
 24 25  2  0
 26 27  2  0
 26 25  1  0
 28 27  1  0
 29 28  2  0
 30 29  1  0
 30 31  2  0
 31 26  1  0
  5 32  1  0
  6 33  1  0
  8 34  1  0
  9 35  1  0
 10 36  1  0
 12 37  1  0
 14 38  1  0
 24 39  1  0
 27 40  1  0
 28 41  1  0
 29 42  1  0
 30 43  1  0
M  ISO  8  32  14  33  14  34  14  35  14  36  14  37  14  38  14  39  14
M  ISO  4  40  14  41  14  42  14  43  14
M  END
>  <minimizedAffinity>  (1) 
-6.60434914

>  <minimizedRMSD>  (1) 
1.22354221

$$$$
