
     RDKit          3D

 23 24  0  0  0  0  0  0  0  0999 V2000
   42.9050   21.4910   36.5640 C   0  0  0  0  0  0  0  0  0  0  0  0
   41.5580   21.4670   36.9280 C   0  0  0  0  0  0  0  0  0  0  0  0
   40.8750   22.6780   36.8640 C   0  0  0  0  0  0  0  0  0  0  0  0
   41.5520   23.7900   36.4590 N   0  0  0  0  0  0  0  0  0  0  0  0
   42.8470   23.7760   36.1170 C   0  0  0  0  0  0  0  0  0  0  0  0
   43.5250   22.6130   36.1720 N   0  0  0  0  0  0  0  0  0  0  0  0
   43.5370   24.9520   35.6950 N   0  0  0  0  0  0  0  0  0  0  0  0
   42.8800   25.8330   34.7760 C   0  0  0  0  0  0  0  0  0  0  0  0
   41.7680   25.4630   34.2000 N   0  0  0  0  0  0  0  0  0  0  0  0
   43.4900   27.1230   34.5210 N   0  0  0  0  0  0  0  0  0  0  0  0
   41.3280   26.1360   33.5410 H   0  0  0  0  0  0  0  0  0  0  0  0
   39.5010   22.8620   37.1930 N   0  0  0  0  0  0  0  0  0  0  0  0
   38.4370   22.6760   36.3890 C   0  0  0  0  0  0  0  0  0  0  0  0
   37.3070   22.9580   37.0810 N   0  0  0  0  0  0  0  0  0  0  0  0
   37.6650   23.3200   38.3180 C   0  0  0  0  0  0  0  0  0  0  0  0
   39.0140   23.2500   38.3530 N   0  0  0  0  0  0  0  0  0  0  0  0
   43.4797   20.5538   36.6001 H   0  0  0  0  0  0  0  0  0  0  0  0
   41.0618   20.5392   37.2488 H   0  0  0  0  0  0  0  0  0  0  0  0
   44.4836   25.1620   36.0425 H   0  0  0  0  0  0  0  0  0  0  0  0
   43.0457   27.7823   33.8661 H   0  0  0  0  0  0  0  0  0  0  0  0
   44.3677   27.3803   34.9947 H   0  0  0  0  0  0  0  0  0  0  0  0
   38.4786   22.3481   35.3398 H   0  0  0  0  0  0  0  0  0  0  0  0
   36.9965   23.6150   39.1403 H   0  0  0  0  0  0  0  0  0  0  0  0
  1  2  2  0
  3  2  1  0
  3 12  1  0
  4  3  2  0
  5  6  2  0
  5  4  1  0
  6  1  1  0
  7  5  1  0
  8  7  1  0
  9  8  2  0
 10  8  1  0
 11  9  1  0
 12 16  1  0
 13 14  2  0
 13 12  1  0
 14 15  1  0
 15 16  2  0
  1 17  1  0
  2 18  1  0
  7 19  1  0
 10 20  1  0
 10 21  1  0
 13 22  1  0
 15 23  1  0
M  ISO  4  17  14  18  14  22  14  23  14
M  END
>  <minimizedAffinity>  (1) 
-4.2742362

>  <minimizedRMSD>  (1) 
5.58187294

$$$$
