
     RDKit          3D

 45 48  0  0  0  0  0  0  0  0999 V2000
   36.6950   25.7090   31.6390 C   0  0  0  0  0  0  0  0  0  0  0  0
   37.5440   24.8920   32.3350 C   0  0  0  0  0  0  0  0  0  0  0  0
   37.2540   23.5300   32.4300 C   0  0  0  0  0  0  0  0  0  0  0  0
   36.1240   22.9910   31.8350 C   0  0  0  0  0  0  0  0  0  0  0  0
   35.2550   23.8020   31.1280 C   0  0  0  0  0  0  0  0  0  0  0  0
   35.5770   25.1340   31.0580 C   0  0  0  0  0  0  0  0  0  0  0  0
   35.9430   20.6010   30.9980 C   0  0  0  0  0  0  0  0  0  0  0  0
   35.9230   21.5580   31.9990 C   0  0  0  0  0  0  0  0  0  0  0  0
   35.6800   21.0870   33.3210 C   0  0  0  0  0  0  0  0  0  0  0  0
   35.4860   19.7510   33.5100 N   0  0  0  0  0  0  0  0  0  0  0  0
   35.5210   18.8620   32.4660 C   0  0  0  0  0  0  0  0  0  0  0  0
   35.7560   19.3130   31.1910 N   0  0  0  0  0  0  0  0  0  0  0  0
   37.0880   27.4040   31.5400 S   0  0  0  0  0  0  0  0  0  0  0  0
   38.5710   27.6030   31.6990 O   0  0  0  0  0  0  0  0  0  0  0  0
   36.6040   27.9630   30.2440 O   0  0  0  0  0  0  0  0  0  0  0  0
   36.2170   28.1800   32.8450 C   0  0  0  0  0  0  0  0  0  0  0  0
   36.3600   28.1200   34.1580 N   0  0  0  0  0  0  0  0  0  0  0  0
   35.4760   28.8760   34.7400 O   0  0  0  0  0  0  0  0  0  0  0  0
   34.7190   29.4600   33.8520 C   0  0  0  0  0  0  0  0  0  0  0  0
   35.1720   29.0330   32.6640 N   0  0  0  0  0  0  0  0  0  0  0  0
   33.6550   30.3400   33.9020 O   0  0  0  0  0  0  0  0  0  0  0  0
   33.7670   31.4470   34.7970 C   0  0  0  0  0  0  0  0  0  0  0  0
   35.1810   31.9460   34.8830 C   0  0  0  0  0  0  0  0  0  0  0  0
   35.5630   32.0590   36.3460 C   0  0  0  0  0  0  0  0  0  0  0  0
   34.5410   32.8500   37.1250 C   0  0  0  0  0  0  0  0  0  0  0  0
   33.2930   32.0160   37.2010 C   0  0  0  0  0  0  0  0  0  0  0  0
   33.3000   30.9580   36.1380 C   0  0  0  0  0  0  0  0  0  0  0  0
   38.4445   25.3039   32.8140 H   0  0  0  0  0  0  0  0  0  0  0  0
   37.9357   22.8713   32.9881 H   0  0  0  0  0  0  0  0  0  0  0  0
   34.3516   23.3997   30.6463 H   0  0  0  0  0  0  0  0  0  0  0  0
   34.8970   25.7938   30.4992 H   0  0  0  0  0  0  0  0  0  0  0  0
   36.1284   20.9419   29.9687 H   0  0  0  0  0  0  0  0  0  0  0  0
   35.6496   21.7855   34.1702 H   0  0  0  0  0  0  0  0  0  0  0  0
   35.3610   17.7894   32.6502 H   0  0  0  0  0  0  0  0  0  0  0  0
   33.1598   32.2924   34.4413 H   0  0  0  0  0  0  0  0  0  0  0  0
   35.8553   31.2394   34.3769 H   0  0  0  0  0  0  0  0  0  0  0  0
   35.2645   32.9281   34.3947 H   0  0  0  0  0  0  0  0  0  0  0  0
   35.6362   31.0489   36.7753 H   0  0  0  0  0  0  0  0  0  0  0  0
   36.5279   32.5831   36.4112 H   0  0  0  0  0  0  0  0  0  0  0  0
   34.9175   33.0572   38.1376 H   0  0  0  0  0  0  0  0  0  0  0  0
   34.3366   33.8126   36.6335 H   0  0  0  0  0  0  0  0  0  0  0  0
   33.2388   31.5355   38.1890 H   0  0  0  0  0  0  0  0  0  0  0  0
   32.4206   32.6681   37.0468 H   0  0  0  0  0  0  0  0  0  0  0  0
   32.2765   30.5703   36.0282 H   0  0  0  0  0  0  0  0  0  0  0  0
   34.0117   30.1843   36.4617 H   0  0  0  0  0  0  0  0  0  0  0  0
  1  2  2  0
  2  3  1  0
  4  8  1  0
  4  3  2  0
  5  4  1  0
  6  5  2  0
  6  1  1  0
  7 12  2  0
  7  8  1  0
  8  9  2  0
  9 10  1  0
 11 10  2  0
 12 11  1  0
 13  1  1  0
 13 14  2  0
 13 16  1  0
 15 13  2  0
 16 17  2  0
 17 18  1  0
 19 21  1  0
 19 18  1  0
 20 16  1  0
 20 19  2  0
 21 22  1  0
 22 23  1  0
 22 27  1  0
 23 24  1  0
 24 25  1  0
 25 26  1  0
 27 26  1  0
  2 28  1  0
  3 29  1  0
  5 30  1  0
  6 31  1  0
  7 32  1  0
  9 33  1  0
 11 34  1  0
 22 35  1  0
 23 36  1  0
 23 37  1  0
 24 38  1  0
 24 39  1  0
 25 40  1  0
 25 41  1  0
 26 42  1  0
 26 43  1  0
 27 44  1  0
 27 45  1  0
M  ISO  8  28  14  29  14  30  14  31  14  32  14  33  14  34  14  35  13
M  ISO  8  36  13  37  13  38  13  39  13  40  13  41  13  42  13  43  13
M  ISO  2  44  13  45  13
M  END
>  <minimizedAffinity>  (1) 
-6.23828411

>  <minimizedRMSD>  (1) 
1.39183068

$$$$
