
     RDKit          3D

 42 45  0  0  0  0  0  0  0  0999 V2000
   36.7200   25.6740   31.6420 C   0  0  0  0  0  0  0  0  0  0  0  0
   37.5700   24.8650   32.3310 C   0  0  0  0  0  0  0  0  0  0  0  0
   37.2750   23.4940   32.4320 C   0  0  0  0  0  0  0  0  0  0  0  0
   36.1400   22.9580   31.8430 C   0  0  0  0  0  0  0  0  0  0  0  0
   35.2700   23.7760   31.1380 C   0  0  0  0  0  0  0  0  0  0  0  0
   35.5970   25.1080   31.0660 C   0  0  0  0  0  0  0  0  0  0  0  0
   35.9400   20.5690   31.0150 C   0  0  0  0  0  0  0  0  0  0  0  0
   35.9270   21.5290   32.0050 C   0  0  0  0  0  0  0  0  0  0  0  0
   35.6790   21.0610   33.3140 C   0  0  0  0  0  0  0  0  0  0  0  0
   35.4720   19.7320   33.5250 N   0  0  0  0  0  0  0  0  0  0  0  0
   35.5010   18.8410   32.4870 C   0  0  0  0  0  0  0  0  0  0  0  0
   35.7390   19.2830   31.2230 N   0  0  0  0  0  0  0  0  0  0  0  0
   37.1150   27.3780   31.5350 S   0  0  0  0  0  0  0  0  0  0  0  0
   38.6100   27.5560   31.6720 O   0  0  0  0  0  0  0  0  0  0  0  0
   36.6310   27.9260   30.2450 O   0  0  0  0  0  0  0  0  0  0  0  0
   36.2790   28.1560   32.8680 C   0  0  0  0  0  0  0  0  0  0  0  0
   36.4290   28.0900   34.1710 N   0  0  0  0  0  0  0  0  0  0  0  0
   35.5690   28.8550   34.7620 O   0  0  0  0  0  0  0  0  0  0  0  0
   34.8200   29.4560   33.8740 C   0  0  0  0  0  0  0  0  0  0  0  0
   35.2560   29.0250   32.6770 N   0  0  0  0  0  0  0  0  0  0  0  0
   33.7690   30.3610   33.9370 O   0  0  0  0  0  0  0  0  0  0  0  0
   33.7700   31.4910   34.7790 C   0  0  0  0  0  0  0  0  0  0  0  0
   33.1280   31.0490   36.0780 C   0  0  0  0  0  0  0  0  0  0  0  0
   33.7280   31.8700   37.1730 C   0  0  0  0  0  0  0  0  0  0  0  0
   35.1090   32.1720   36.6960 C   0  0  0  0  0  0  0  0  0  0  0  0
   35.1680   31.8570   35.2320 C   0  0  0  0  0  0  0  0  0  0  0  0
   38.4745   25.2775   32.8019 H   0  0  0  0  0  0  0  0  0  0  0  0
   37.9572   22.8345   32.9885 H   0  0  0  0  0  0  0  0  0  0  0  0
   34.3628   23.3777   30.6601 H   0  0  0  0  0  0  0  0  0  0  0  0
   34.9177   25.7717   30.5110 H   0  0  0  0  0  0  0  0  0  0  0  0
   36.1308   20.8984   29.9830 H   0  0  0  0  0  0  0  0  0  0  0  0
   35.6532   21.7659   34.1581 H   0  0  0  0  0  0  0  0  0  0  0  0
   35.3323   17.7703   32.6743 H   0  0  0  0  0  0  0  0  0  0  0  0
   33.2865   32.3171   34.2369 H   0  0  0  0  0  0  0  0  0  0  0  0
   32.0413   31.2143   36.0360 H   0  0  0  0  0  0  0  0  0  0  0  0
   33.3037   29.9775   36.2541 H   0  0  0  0  0  0  0  0  0  0  0  0
   33.1561   32.7977   37.3221 H   0  0  0  0  0  0  0  0  0  0  0  0
   33.7236   31.3463   38.1403 H   0  0  0  0  0  0  0  0  0  0  0  0
   35.3369   33.2357   36.8592 H   0  0  0  0  0  0  0  0  0  0  0  0
   35.8460   31.5704   37.2481 H   0  0  0  0  0  0  0  0  0  0  0  0
   35.8505   31.0120   35.0585 H   0  0  0  0  0  0  0  0  0  0  0  0
   35.5392   32.7251   34.6675 H   0  0  0  0  0  0  0  0  0  0  0  0
  1  2  2  0
  2  3  1  0
  4  8  1  0
  4  3  2  0
  5  4  1  0
  6  5  2  0
  6  1  1  0
  7 12  2  0
  7  8  1  0
  8  9  2  0
  9 10  1  0
 11 10  2  0
 12 11  1  0
 13  1  1  0
 13 14  2  0
 13 16  1  0
 15 13  2  0
 16 17  2  0
 17 18  1  0
 19 21  1  0
 19 18  1  0
 20 16  1  0
 20 19  2  0
 21 22  1  0
 22 26  1  0
 22 23  1  0
 23 24  1  0
 25 24  1  0
 26 25  1  0
  2 27  1  0
  3 28  1  0
  5 29  1  0
  6 30  1  0
  7 31  1  0
  9 32  1  0
 11 33  1  0
 22 34  1  0
 23 35  1  0
 23 36  1  0
 24 37  1  0
 24 38  1  0
 25 39  1  0
 25 40  1  0
 26 41  1  0
 26 42  1  0
M  ISO  8  27  14  28  14  29  14  30  14  31  14  32  14  33  14  34  13
M  ISO  8  35  13  36  13  37  13  38  13  39  13  40  13  41  13  42  13
M  END
>  <minimizedAffinity>  (1) 
-5.92134476

>  <minimizedRMSD>  (1) 
1.30942917

$$$$
