
     RDKit          3D

 37 40  0  0  0  0  0  0  0  0999 V2000
   36.8200   25.4480   31.5330 C   0  0  0  0  0  0  0  0  0  0  0  0
   37.6850   24.6120   32.1840 C   0  0  0  0  0  0  0  0  0  0  0  0
   37.3640   23.2610   32.3030 C   0  0  0  0  0  0  0  0  0  0  0  0
   36.1890   22.7370   31.7780 C   0  0  0  0  0  0  0  0  0  0  0  0
   35.3160   23.5690   31.1230 C   0  0  0  0  0  0  0  0  0  0  0  0
   35.6670   24.8940   31.0260 C   0  0  0  0  0  0  0  0  0  0  0  0
   36.0460   20.3350   30.9840 C   0  0  0  0  0  0  0  0  0  0  0  0
   35.9630   21.3180   31.9630 C   0  0  0  0  0  0  0  0  0  0  0  0
   35.6230   20.8820   33.2690 C   0  0  0  0  0  0  0  0  0  0  0  0
   35.4060   19.5540   33.4700 N   0  0  0  0  0  0  0  0  0  0  0  0
   35.5060   18.6330   32.4540 C   0  0  0  0  0  0  0  0  0  0  0  0
   35.8300   19.0540   31.2080 N   0  0  0  0  0  0  0  0  0  0  0  0
   37.2340   27.1320   31.3920 S   0  0  0  0  0  0  0  0  0  0  0  0
   38.7370   27.2830   31.3330 O   0  0  0  0  0  0  0  0  0  0  0  0
   36.5910   27.7140   30.1950 O   0  0  0  0  0  0  0  0  0  0  0  0
   36.6010   27.9070   32.8340 C   0  0  0  0  0  0  0  0  0  0  0  0
   36.9890   27.8890   34.0930 N   0  0  0  0  0  0  0  0  0  0  0  0
   36.2010   28.6260   34.8070 O   0  0  0  0  0  0  0  0  0  0  0  0
   35.2600   29.1650   34.0690 C   0  0  0  0  0  0  0  0  0  0  0  0
   35.5060   28.7170   32.8290 N   0  0  0  0  0  0  0  0  0  0  0  0
   34.1920   30.0040   34.2940 O   0  0  0  0  0  0  0  0  0  0  0  0
   34.2240   30.8820   35.3590 C   0  0  0  0  0  0  0  0  0  0  0  0
   35.1530   31.7760   35.8400 C   0  0  0  0  0  0  0  0  0  0  0  0
   34.9000   32.5390   36.9540 C   0  0  0  0  0  0  0  0  0  0  0  0
   33.7190   32.4070   37.5880 N   0  0  0  0  0  0  0  0  0  0  0  0
   32.7940   31.5230   37.1160 C   0  0  0  0  0  0  0  0  0  0  0  0
   33.0380   30.7610   36.0090 N   0  0  0  0  0  0  0  0  0  0  0  0
   38.6223   25.0011   32.6083 H   0  0  0  0  0  0  0  0  0  0  0  0
   38.0606   22.5904   32.8275 H   0  0  0  0  0  0  0  0  0  0  0  0
   34.3760   23.1915   30.6942 H   0  0  0  0  0  0  0  0  0  0  0  0
   34.9710   25.5651   30.5014 H   0  0  0  0  0  0  0  0  0  0  0  0
   36.3075   20.6443   29.9613 H   0  0  0  0  0  0  0  0  0  0  0  0
   35.5369   21.5994   34.0985 H   0  0  0  0  0  0  0  0  0  0  0  0
   35.3249   17.5660   32.6509 H   0  0  0  0  0  0  0  0  0  0  0  0
   36.1176   31.8818   35.3220 H   0  0  0  0  0  0  0  0  0  0  0  0
   35.6535   33.2498   37.3241 H   0  0  0  0  0  0  0  0  0  0  0  0
   31.8310   31.4215   37.6379 H   0  0  0  0  0  0  0  0  0  0  0  0
  1  2  2  0
  2  3  1  0
  4  8  1  0
  4  3  2  0
  5  4  1  0
  6  5  2  0
  6  1  1  0
  7 12  2  0
  7  8  1  0
  8  9  2  0
  9 10  1  0
 11 10  2  0
 12 11  1  0
 13  1  1  0
 13 16  1  0
 14 13  2  0
 15 13  2  0
 16 17  2  0
 17 18  1  0
 19 21  1  0
 19 18  1  0
 20 16  1  0
 20 19  2  0
 21 22  1  0
 22 23  2  0
 22 27  1  0
 23 24  1  0
 24 25  2  0
 26 25  1  0
 27 26  2  0
  2 28  1  0
  3 29  1  0
  5 30  1  0
  6 31  1  0
  7 32  1  0
  9 33  1  0
 11 34  1  0
 23 35  1  0
 24 36  1  0
 26 37  1  0
M  ISO  8  28  14  29  14  30  14  31  14  32  14  33  14  34  14  35  14
M  ISO  2  36  14  37  14
M  END
>  <minimizedAffinity>  (1) 
-5.9226985

>  <minimizedRMSD>  (1) 
1.52836013

$$$$
