
     RDKit          3D

 37 40  0  0  0  0  0  0  0  0999 V2000
   36.8760   25.6480   31.4400 C   0  0  0  0  0  0  0  0  0  0  0  0
   37.7880   24.7880   31.9920 C   0  0  0  0  0  0  0  0  0  0  0  0
   37.4420   23.4440   32.1480 C   0  0  0  0  0  0  0  0  0  0  0  0
   36.1860   22.9660   31.7540 C   0  0  0  0  0  0  0  0  0  0  0  0
   35.2700   23.8230   31.2010 C   0  0  0  0  0  0  0  0  0  0  0  0
   35.6430   25.1340   31.0620 C   0  0  0  0  0  0  0  0  0  0  0  0
   35.9250   20.5600   31.0120 C   0  0  0  0  0  0  0  0  0  0  0  0
   35.9460   21.5490   31.9690 C   0  0  0  0  0  0  0  0  0  0  0  0
   35.7090   21.1200   33.2890 C   0  0  0  0  0  0  0  0  0  0  0  0
   35.4800   19.8050   33.5380 N   0  0  0  0  0  0  0  0  0  0  0  0
   35.4740   18.8740   32.5260 C   0  0  0  0  0  0  0  0  0  0  0  0
   35.7030   19.2840   31.2560 N   0  0  0  0  0  0  0  0  0  0  0  0
   37.3240   27.3200   31.2500 S   0  0  0  0  0  0  0  0  0  0  0  0
   38.8330   27.4440   31.2350 O   0  0  0  0  0  0  0  0  0  0  0  0
   36.7140   27.8810   30.0130 O   0  0  0  0  0  0  0  0  0  0  0  0
   36.6690   28.1530   32.6500 C   0  0  0  0  0  0  0  0  0  0  0  0
   36.7610   27.9410   33.9470 N   0  0  0  0  0  0  0  0  0  0  0  0
   36.0870   28.8500   34.6020 O   0  0  0  0  0  0  0  0  0  0  0  0
   35.5390   29.6750   33.7620 C   0  0  0  0  0  0  0  0  0  0  0  0
   35.8790   29.2720   32.5320 N   0  0  0  0  0  0  0  0  0  0  0  0
   34.7320   30.8060   33.9310 O   0  0  0  0  0  0  0  0  0  0  0  0
   34.0000   30.8630   35.1110 C   0  0  0  0  0  0  0  0  0  0  0  0
   32.9090   30.0510   35.3400 C   0  0  0  0  0  0  0  0  0  0  0  0
   32.1450   30.0640   36.4890 C   0  0  0  0  0  0  0  0  0  0  0  0
   32.4870   30.9420   37.4750 N   0  0  0  0  0  0  0  0  0  0  0  0
   33.5530   31.7390   37.2600 C   0  0  0  0  0  0  0  0  0  0  0  0
   34.2950   31.7140   36.1230 N   0  0  0  0  0  0  0  0  0  0  0  0
   38.7775   25.1503   32.3075 H   0  0  0  0  0  0  0  0  0  0  0  0
   38.1702   22.7473   32.5889 H   0  0  0  0  0  0  0  0  0  0  0  0
   34.2772   23.4728   30.8822 H   0  0  0  0  0  0  0  0  0  0  0  0
   34.9138   25.8286   30.6195 H   0  0  0  0  0  0  0  0  0  0  0  0
   36.1066   20.8559   29.9682 H   0  0  0  0  0  0  0  0  0  0  0  0
   35.7094   21.8468   34.1147 H   0  0  0  0  0  0  0  0  0  0  0  0
   35.2861   17.8125   32.7448 H   0  0  0  0  0  0  0  0  0  0  0  0
   32.6272   29.3409   34.5486 H   0  0  0  0  0  0  0  0  0  0  0  0
   31.2862   29.3867   36.6061 H   0  0  0  0  0  0  0  0  0  0  0  0
   33.8377   32.4495   38.0501 H   0  0  0  0  0  0  0  0  0  0  0  0
  1  2  2  0
  2  3  1  0
  4  8  1  0
  4  3  2  0
  5  4  1  0
  6  5  2  0
  6  1  1  0
  7 12  2  0
  7  8  1  0
  8  9  2  0
  9 10  1  0
 11 10  2  0
 12 11  1  0
 13  1  1  0
 13 16  1  0
 14 13  2  0
 15 13  2  0
 16 17  2  0
 17 18  1  0
 19 21  1  0
 19 18  1  0
 20 16  1  0
 20 19  2  0
 21 22  1  0
 22 23  2  0
 22 27  1  0
 23 24  1  0
 24 25  2  0
 26 25  1  0
 27 26  2  0
  2 28  1  0
  3 29  1  0
  5 30  1  0
  6 31  1  0
  7 32  1  0
  9 33  1  0
 11 34  1  0
 23 35  1  0
 24 36  1  0
 26 37  1  0
M  ISO  8  28  14  29  14  30  14  31  14  32  14  33  14  34  14  35  14
M  ISO  2  36  14  37  14
M  END
>  <minimizedAffinity>  (1) 
-5.86583471

>  <minimizedRMSD>  (1) 
1.00338554

$$$$
