
     RDKit          3D

 35 38  0  0  0  0  0  0  0  0999 V2000
   36.7560   25.5230   31.5440 C   0  0  0  0  0  0  0  0  0  0  0  0
   37.6170   24.7030   32.2100 C   0  0  0  0  0  0  0  0  0  0  0  0
   37.3150   23.3450   32.3370 C   0  0  0  0  0  0  0  0  0  0  0  0
   36.1590   22.8110   31.8020 C   0  0  0  0  0  0  0  0  0  0  0  0
   35.2750   23.6290   31.1240 C   0  0  0  0  0  0  0  0  0  0  0  0
   35.6150   24.9530   31.0250 C   0  0  0  0  0  0  0  0  0  0  0  0
   35.9980   20.4040   31.0250 C   0  0  0  0  0  0  0  0  0  0  0  0
   35.9420   21.3840   31.9940 C   0  0  0  0  0  0  0  0  0  0  0  0
   35.6440   20.9440   33.3020 C   0  0  0  0  0  0  0  0  0  0  0  0
   35.4370   19.6160   33.5110 N   0  0  0  0  0  0  0  0  0  0  0  0
   35.5070   18.7020   32.5100 C   0  0  0  0  0  0  0  0  0  0  0  0
   35.7950   19.1190   31.2480 N   0  0  0  0  0  0  0  0  0  0  0  0
   37.1510   27.2130   31.3960 S   0  0  0  0  0  0  0  0  0  0  0  0
   38.6530   27.3790   31.3140 O   0  0  0  0  0  0  0  0  0  0  0  0
   36.4810   27.7980   30.2090 O   0  0  0  0  0  0  0  0  0  0  0  0
   36.5370   27.9850   32.8540 C   0  0  0  0  0  0  0  0  0  0  0  0
   36.9150   27.9350   34.1050 N   0  0  0  0  0  0  0  0  0  0  0  0
   36.1520   28.6810   34.8390 O   0  0  0  0  0  0  0  0  0  0  0  0
   35.2270   29.2610   34.0970 C   0  0  0  0  0  0  0  0  0  0  0  0
   35.4680   28.8250   32.8520 N   0  0  0  0  0  0  0  0  0  0  0  0
   34.1830   30.1290   34.3290 O   0  0  0  0  0  0  0  0  0  0  0  0
   34.2110   31.0700   35.3730 C   0  0  0  0  0  0  0  0  0  0  0  0
   35.1310   32.1220   35.5080 C   0  0  0  0  0  0  0  0  0  0  0  0
   34.5350   32.9020   37.0890 S   0  0  0  0  0  0  0  0  0  0  0  0
   33.1360   31.6230   37.2460 C   0  0  0  0  0  0  0  0  0  0  0  0
   33.2630   30.9050   36.2800 N   0  0  0  0  0  0  0  0  0  0  0  0
   38.5431   25.1075   32.6444 H   0  0  0  0  0  0  0  0  0  0  0  0
   38.0131   22.6866   32.8748 H   0  0  0  0  0  0  0  0  0  0  0  0
   34.3453   23.2371   30.6859 H   0  0  0  0  0  0  0  0  0  0  0  0
   34.9197   25.6142   30.4871 H   0  0  0  0  0  0  0  0  0  0  0  0
   36.2277   20.7149   29.9951 H   0  0  0  0  0  0  0  0  0  0  0  0
   35.5806   21.6601   34.1346 H   0  0  0  0  0  0  0  0  0  0  0  0
   35.3327   17.6358   32.7172 H   0  0  0  0  0  0  0  0  0  0  0  0
   35.9719   32.4066   34.8585 H   0  0  0  0  0  0  0  0  0  0  0  0
   32.3782   31.5516   38.0401 H   0  0  0  0  0  0  0  0  0  0  0  0
  1  2  2  0
  2  3  1  0
  4  8  1  0
  4  3  2  0
  5  4  1  0
  6  5  2  0
  6  1  1  0
  7 12  2  0
  7  8  1  0
  8  9  2  0
  9 10  1  0
 11 10  2  0
 12 11  1  0
 13  1  1  0
 13 16  1  0
 14 13  2  0
 15 13  2  0
 16 17  2  0
 17 18  1  0
 19 21  1  0
 19 18  1  0
 20 16  1  0
 20 19  2  0
 21 22  1  0
 22 23  2  0
 22 26  1  0
 23 24  1  0
 24 25  1  0
 26 25  2  0
  2 27  1  0
  3 28  1  0
  5 29  1  0
  6 30  1  0
  7 31  1  0
  9 32  1  0
 11 33  1  0
 23 34  1  0
 25 35  1  0
M  ISO  8  27  14  28  14  29  14  30  14  31  14  32  14  33  14  34  14
M  ISO  1  35  14
M  END
>  <minimizedAffinity>  (1) 
-5.5667491

>  <minimizedRMSD>  (1) 
1.47259295

$$$$
