
     RDKit          3D

 32 34  0  0  0  0  0  0  0  0999 V2000
   36.6710   25.7940   31.6890 C   0  0  0  0  0  0  0  0  0  0  0  0
   37.5310   24.9680   32.3740 C   0  0  0  0  0  0  0  0  0  0  0  0
   37.2360   23.6040   32.4400 C   0  0  0  0  0  0  0  0  0  0  0  0
   36.1100   23.0630   31.8380 C   0  0  0  0  0  0  0  0  0  0  0  0
   35.2430   23.8840   31.1500 C   0  0  0  0  0  0  0  0  0  0  0  0
   35.5570   25.2160   31.1020 C   0  0  0  0  0  0  0  0  0  0  0  0
   35.9320   20.6900   30.9770 C   0  0  0  0  0  0  0  0  0  0  0  0
   35.9150   21.6340   31.9770 C   0  0  0  0  0  0  0  0  0  0  0  0
   35.6790   21.1350   33.2920 C   0  0  0  0  0  0  0  0  0  0  0  0
   35.4910   19.7980   33.4680 N   0  0  0  0  0  0  0  0  0  0  0  0
   35.5220   18.9290   32.4280 C   0  0  0  0  0  0  0  0  0  0  0  0
   35.7490   19.3910   31.1540 N   0  0  0  0  0  0  0  0  0  0  0  0
   37.0370   27.4930   31.6070 S   0  0  0  0  0  0  0  0  0  0  0  0
   38.4550   27.7210   32.0830 O   0  0  0  0  0  0  0  0  0  0  0  0
   36.8440   27.9910   30.2340 O   0  0  0  0  0  0  0  0  0  0  0  0
   35.9050   28.2880   32.6810 C   0  0  0  0  0  0  0  0  0  0  0  0
   35.9880   28.6770   33.9370 N   0  0  0  0  0  0  0  0  0  0  0  0
   34.8690   29.2330   34.3130 O   0  0  0  0  0  0  0  0  0  0  0  0
   34.0220   29.2260   33.3250 C   0  0  0  0  0  0  0  0  0  0  0  0
   34.6500   28.6390   32.2960 N   0  0  0  0  0  0  0  0  0  0  0  0
   32.7110   29.6800   33.1820 O   0  0  0  0  0  0  0  0  0  0  0  0
   31.5680   28.9370   33.4890 C   0  0  0  0  0  0  0  0  0  0  0  0
   31.5080   27.7700   32.7530 F   0  0  0  0  0  0  0  0  0  0  0  0
   30.3960   29.6650   33.3140 F   0  0  0  0  0  0  0  0  0  0  0  0
   31.6430   28.5920   34.8240 F   0  0  0  0  0  0  0  0  0  0  0  0
   38.4315   25.3724   32.8594 H   0  0  0  0  0  0  0  0  0  0  0  0
   37.9190   22.9376   32.9872 H   0  0  0  0  0  0  0  0  0  0  0  0
   34.3404   23.4876   30.6619 H   0  0  0  0  0  0  0  0  0  0  0  0
   34.8710   25.8791   30.5545 H   0  0  0  0  0  0  0  0  0  0  0  0
   36.1116   21.0417   29.9503 H   0  0  0  0  0  0  0  0  0  0  0  0
   35.6493   21.8205   34.1518 H   0  0  0  0  0  0  0  0  0  0  0  0
   35.3655   17.8545   32.6039 H   0  0  0  0  0  0  0  0  0  0  0  0
  1  2  2  0
  2  3  1  0
  4  8  1  0
  4  3  2  0
  5  4  1  0
  6  5  2  0
  6  1  1  0
  7 12  2  0
  7  8  1  0
  8  9  2  0
  9 10  1  0
 11 10  2  0
 12 11  1  0
 13  1  1  0
 13 14  2  0
 13 16  1  0
 15 13  2  0
 16 17  2  0
 17 18  1  0
 19 18  1  0
 20 16  1  0
 20 19  2  0
 21 19  1  0
 21 22  1  0
 22 25  1  0
 23 22  1  0
 24 22  1  0
  2 26  1  0
  3 27  1  0
  5 28  1  0
  6 29  1  0
  7 30  1  0
  9 31  1  0
 11 32  1  0
M  ISO  7  26  14  27  14  28  14  29  14  30  14  31  14  32  14
M  END
>  <minimizedAffinity>  (1) 
-5.56517696

>  <minimizedRMSD>  (1) 
0.295113981

$$$$
