
     RDKit          3D

 11 11  0  0  0  0  0  0  0  0999 V2000
   40.0270   22.6200   37.5770 C   0  0  0  0  0  0  0  0  0  0  0  0
   38.9250   23.2460   38.2090 C   0  0  0  0  0  0  0  0  0  0  0  0
   37.7320   23.3170   37.4870 C   0  0  0  0  0  0  0  0  0  0  0  0
   37.6980   22.7870   36.2380 N   0  0  0  0  0  0  0  0  0  0  0  0
   38.7650   22.1990   35.6680 C   0  0  0  0  0  0  0  0  0  0  0  0
   39.9210   22.1220   36.3450 N   0  0  0  0  0  0  0  0  0  0  0  0
   39.1600   23.7250   39.4880 O   0  0  0  0  0  0  0  0  0  0  0  0
   40.9855   22.5435   38.1112 H   0  0  0  0  0  0  0  0  0  0  0  0
   36.8396   23.7919   37.9208 H   0  0  0  0  0  0  0  0  0  0  0  0
   38.6904   21.7834   34.6523 H   0  0  0  0  0  0  0  0  0  0  0  0
   38.4342   24.1742   39.9895 H   0  0  0  0  0  0  0  0  0  0  0  0
  1  2  2  0
  2  7  1  0
  3  2  1  0
  4  3  2  0
  5  4  1  0
  5  6  2  0
  6  1  1  0
  1  8  1  0
  3  9  1  0
  5 10  1  0
  7 11  1  0
M  ISO  4   8  14   9  14  10  14  11   3
M  END
>  <minimizedAffinity>  (1) 
-2.82570267

>  <minimizedRMSD>  (1) 
0.21365346

$$$$
