
     RDKit          3D

 22 23  0  0  0  0  0  0  0  0999 V2000
   42.8910   21.2490   36.7400 C   0  0  0  0  0  0  0  0  0  0  0  0
   41.5330   21.2810   37.0370 C   0  0  0  0  0  0  0  0  0  0  0  0
   40.8790   22.5030   36.9240 C   0  0  0  0  0  0  0  0  0  0  0  0
   41.6120   23.5820   36.5310 N   0  0  0  0  0  0  0  0  0  0  0  0
   42.9170   23.5160   36.2530 C   0  0  0  0  0  0  0  0  0  0  0  0
   43.5600   22.3400   36.3590 N   0  0  0  0  0  0  0  0  0  0  0  0
   43.6630   24.6660   35.8420 N   0  0  0  0  0  0  0  0  0  0  0  0
   43.0890   25.5580   34.8930 C   0  0  0  0  0  0  0  0  0  0  0  0
   41.9980   25.2160   34.2640 N   0  0  0  0  0  0  0  0  0  0  0  0
   43.7270   26.8350   34.6410 N   0  0  0  0  0  0  0  0  0  0  0  0
   41.5910   25.8880   33.5720 H   0  0  0  0  0  0  0  0  0  0  0  0
   39.4690   22.8050   37.1760 C   0  0  0  0  0  0  0  0  0  0  0  0
   38.3350   22.7750   36.4670 N   0  0  0  0  0  0  0  0  0  0  0  0
   37.3360   23.1520   37.1900 O   0  0  0  0  0  0  0  0  0  0  0  0
   37.7990   23.4340   38.3800 C   0  0  0  0  0  0  0  0  0  0  0  0
   39.1450   23.2270   38.4130 N   0  0  0  0  0  0  0  0  0  0  0  0
   43.4315   20.2944   36.8215 H   0  0  0  0  0  0  0  0  0  0  0  0
   40.9960   20.3734   37.3497 H   0  0  0  0  0  0  0  0  0  0  0  0
   44.6013   24.8455   36.2272 H   0  0  0  0  0  0  0  0  0  0  0  0
   43.3199   27.4879   33.9562 H   0  0  0  0  0  0  0  0  0  0  0  0
   44.5875   27.0895   35.1467 H   0  0  0  0  0  0  0  0  0  0  0  0
   37.1924   23.7857   39.2275 H   0  0  0  0  0  0  0  0  0  0  0  0
  1  2  2  0
  3  2  1  0
  3 12  1  0
  4  3  2  0
  5  6  2  0
  5  4  1  0
  6  1  1  0
  7  5  1  0
  8  7  1  0
  9  8  2  0
 10  8  1  0
 11  9  1  0
 12 16  1  0
 13 12  2  0
 13 14  1  0
 14 15  1  0
 15 16  2  0
  1 17  1  0
  2 18  1  0
  7 19  1  0
 10 20  1  0
 10 21  1  0
 15 22  1  0
M  ISO  3  17  14  18  14  22  14
M  END
>  <minimizedAffinity>  (1) 
-4.10637522

>  <minimizedRMSD>  (1) 
5.58127213

$$$$
