
     RDKit          3D

 41 43  0  0  0  0  0  0  0  0999 V2000
   36.7010   25.6440   31.5800 C   0  0  0  0  0  0  0  0  0  0  0  0
   37.5600   24.8340   32.2670 C   0  0  0  0  0  0  0  0  0  0  0  0
   37.2630   23.4750   32.3880 C   0  0  0  0  0  0  0  0  0  0  0  0
   36.1230   22.9300   31.8300 C   0  0  0  0  0  0  0  0  0  0  0  0
   35.2490   23.7350   31.1330 C   0  0  0  0  0  0  0  0  0  0  0  0
   35.5780   25.0650   31.0380 C   0  0  0  0  0  0  0  0  0  0  0  0
   35.9310   20.5310   31.0210 C   0  0  0  0  0  0  0  0  0  0  0  0
   35.9120   21.5020   32.0170 C   0  0  0  0  0  0  0  0  0  0  0  0
   35.6610   21.0480   33.3420 C   0  0  0  0  0  0  0  0  0  0  0  0
   35.4630   19.7220   33.5280 N   0  0  0  0  0  0  0  0  0  0  0  0
   35.4920   18.8130   32.5120 C   0  0  0  0  0  0  0  0  0  0  0  0
   35.7330   19.2470   31.2410 N   0  0  0  0  0  0  0  0  0  0  0  0
   37.0910   27.3420   31.4400 S   0  0  0  0  0  0  0  0  0  0  0  0
   38.5930   27.5180   31.4910 O   0  0  0  0  0  0  0  0  0  0  0  0
   36.5260   27.8950   30.1920 O   0  0  0  0  0  0  0  0  0  0  0  0
   36.3400   28.1220   32.8200 C   0  0  0  0  0  0  0  0  0  0  0  0
   36.6080   28.0890   34.1110 N   0  0  0  0  0  0  0  0  0  0  0  0
   35.7710   28.8350   34.7580 O   0  0  0  0  0  0  0  0  0  0  0  0
   34.9100   29.3980   33.9310 C   0  0  0  0  0  0  0  0  0  0  0  0
   35.2670   28.9500   32.7150 N   0  0  0  0  0  0  0  0  0  0  0  0
   33.8400   30.2560   34.0610 O   0  0  0  0  0  0  0  0  0  0  0  0
   34.0920   31.5450   34.5930 C   0  0  0  0  0  0  0  0  0  0  0  0
   33.9200   31.3980   36.1000 C   0  0  0  0  0  0  0  0  0  0  0  0
   33.0460   32.4850   34.0910 C   0  0  0  0  0  0  0  0  0  0  0  0
   35.4960   32.0140   34.2810 C   0  0  0  0  0  0  0  0  0  0  0  0
   38.4738   25.2470   32.7190 H   0  0  0  0  0  0  0  0  0  0  0  0
   37.9540   22.8222   32.9414 H   0  0  0  0  0  0  0  0  0  0  0  0
   34.3332   23.3326   30.6753 H   0  0  0  0  0  0  0  0  0  0  0  0
   34.8882   25.7189   30.4843 H   0  0  0  0  0  0  0  0  0  0  0  0
   36.1229   20.8546   29.9874 H   0  0  0  0  0  0  0  0  0  0  0  0
   35.6289   21.7514   34.1871 H   0  0  0  0  0  0  0  0  0  0  0  0
   35.3235   17.7449   32.7142 H   0  0  0  0  0  0  0  0  0  0  0  0
   34.6583   32.0290   36.6166 H   0  0  0  0  0  0  0  0  0  0  0  0
   32.9053   31.7122   36.3856 H   0  0  0  0  0  0  0  0  0  0  0  0
   34.0723   30.3467   36.3856 H   0  0  0  0  0  0  0  0  0  0  0  0
   32.5298   32.9489   34.9445 H   0  0  0  0  0  0  0  0  0  0  0  0
   33.5191   33.2673   33.4794 H   0  0  0  0  0  0  0  0  0  0  0  0
   32.3185   31.9313   33.4794 H   0  0  0  0  0  0  0  0  0  0  0  0
   36.0392   32.1954   35.2202 H   0  0  0  0  0  0  0  0  0  0  0  0
   36.0194   31.2419   33.6980 H   0  0  0  0  0  0  0  0  0  0  0  0
   35.4503   32.9457   33.6980 H   0  0  0  0  0  0  0  0  0  0  0  0
  1  2  2  0
  2  3  1  0
  4  8  1  0
  4  3  2  0
  5  4  1  0
  6  5  2  0
  6  1  1  0
  7 12  2  0
  7  8  1  0
  8  9  2  0
  9 10  1  0
 11 10  2  0
 12 11  1  0
 13 14  2  0
 13  1  1  0
 13 16  1  0
 15 13  2  0
 16 17  2  0
 17 18  1  0
 19 21  1  0
 19 18  1  0
 20 16  1  0
 20 19  2  0
 21 22  1  0
 22 23  1  0
 24 22  1  0
 25 22  1  0
  2 26  1  0
  3 27  1  0
  5 28  1  0
  6 29  1  0
  7 30  1  0
  9 31  1  0
 11 32  1  0
 23 33  1  0
 23 34  1  0
 23 35  1  0
 24 36  1  0
 24 37  1  0
 24 38  1  0
 25 39  1  0
 25 40  1  0
 25 41  1  0
M  ISO  8  26  14  27  14  28  14  29  14  30  14  31  14  32  14  33   8
M  ISO  8  34   8  35   8  36   8  37   8  38   8  39   8  40   8  41   8
M  END
>  <minimizedAffinity>  (1) 
-5.25361586

>  <minimizedRMSD>  (1) 
0.991373837

$$$$
