
     RDKit          3D

 32 34  0  0  0  0  0  0  0  0999 V2000
   36.5980   25.8450   31.6080 C   0  0  0  0  0  0  0  0  0  0  0  0
   37.4640   25.0420   32.2870 C   0  0  0  0  0  0  0  0  0  0  0  0
   37.2060   23.6720   32.3840 C   0  0  0  0  0  0  0  0  0  0  0  0
   36.0680   23.1130   31.7910 C   0  0  0  0  0  0  0  0  0  0  0  0
   35.1790   23.9160   31.0980 C   0  0  0  0  0  0  0  0  0  0  0  0
   35.4880   25.2620   31.0370 C   0  0  0  0  0  0  0  0  0  0  0  0
   35.9390   20.7380   30.9390 C   0  0  0  0  0  0  0  0  0  0  0  0
   35.8930   21.6840   31.9490 C   0  0  0  0  0  0  0  0  0  0  0  0
   35.6520   21.1940   33.2490 C   0  0  0  0  0  0  0  0  0  0  0  0
   35.4840   19.8660   33.4360 N   0  0  0  0  0  0  0  0  0  0  0  0
   35.5390   18.9770   32.4020 C   0  0  0  0  0  0  0  0  0  0  0  0
   35.7710   19.4280   31.1350 N   0  0  0  0  0  0  0  0  0  0  0  0
   36.9530   27.5510   31.5100 S   0  0  0  0  0  0  0  0  0  0  0  0
   38.4360   27.7750   31.6680 O   0  0  0  0  0  0  0  0  0  0  0  0
   36.4540   28.0940   30.2130 O   0  0  0  0  0  0  0  0  0  0  0  0
   36.0800   28.3050   32.8340 C   0  0  0  0  0  0  0  0  0  0  0  0
   36.3450   28.4280   34.1150 N   0  0  0  0  0  0  0  0  0  0  0  0
   35.3860   29.0770   34.7100 O   0  0  0  0  0  0  0  0  0  0  0  0
   34.4560   29.4040   33.8450 C   0  0  0  0  0  0  0  0  0  0  0  0
   34.8740   28.9300   32.6660 N   0  0  0  0  0  0  0  0  0  0  0  0
   33.2590   30.0820   33.9570 O   0  0  0  0  0  0  0  0  0  0  0  0
   32.7920   30.9170   32.9400 C   0  0  0  0  0  0  0  0  0  0  0  0
   32.8520   32.1880   33.0020 O   0  0  0  0  0  0  0  0  0  0  0  0
   32.2100   30.5240   31.7430 O   0  0  0  0  0  0  0  0  0  0  0  0
   38.3620   25.4699   32.7566 H   0  0  0  0  0  0  0  0  0  0  0  0
   37.9059   23.0250   32.9331 H   0  0  0  0  0  0  0  0  0  0  0  0
   34.2762   23.5057   30.6219 H   0  0  0  0  0  0  0  0  0  0  0  0
   34.7943   25.9180   30.4906 H   0  0  0  0  0  0  0  0  0  0  0  0
   36.1253   21.0870   29.9126 H   0  0  0  0  0  0  0  0  0  0  0  0
   35.6012   21.8858   34.1027 H   0  0  0  0  0  0  0  0  0  0  0  0
   35.3970   17.9023   32.5889 H   0  0  0  0  0  0  0  0  0  0  0  0
   32.0912   29.5618   31.5428 H   0  0  0  0  0  0  0  0  0  0  0  0
  1  2  2  0
  2  3  1  0
  4  8  1  0
  4  3  2  0
  5  4  1  0
  6  5  2  0
  6  1  1  0
  7 12  2  0
  7  8  1  0
  8  9  2  0
  9 10  1  0
 11 10  2  0
 12 11  1  0
 13  1  1  0
 13 14  2  0
 13 16  1  0
 15 13  2  0
 16 17  2  0
 17 18  1  0
 19 21  1  0
 19 18  1  0
 20 16  1  0
 20 19  2  0
 22 23  2  0
 22 21  1  0
 24 22  1  0
  2 25  1  0
  3 26  1  0
  5 27  1  0
  6 28  1  0
  7 29  1  0
  9 30  1  0
 11 31  1  0
 24 32  1  0
M  ISO  8  25  14  26  14  27  14  28  14  29  14  30  14  31  14  32   3
M  END
>  <minimizedAffinity>  (1) 
-5.08382273

>  <minimizedRMSD>  (1) 
0.509312809

$$$$
