
     RDKit          3D

 14 14  0  0  0  0  0  0  0  0999 V2000
   40.9280   21.7760   37.3730 C   0  0  0  0  0  0  0  0  0  0  0  0
   40.1090   22.8020   36.8160 C   0  0  0  0  0  0  0  0  0  0  0  0
   40.7310   23.7030   35.9570 C   0  0  0  0  0  0  0  0  0  0  0  0
   42.0500   23.5560   35.7060 N   0  0  0  0  0  0  0  0  0  0  0  0
   42.7970   22.5840   36.2420 C   0  0  0  0  0  0  0  0  0  0  0  0
   42.2270   21.6950   37.0770 N   0  0  0  0  0  0  0  0  0  0  0  0
   38.7900   22.7790   37.1980 O   0  0  0  0  0  0  0  0  0  0  0  0
   38.2840   23.4880   38.3180 C   0  0  0  0  0  0  0  0  0  0  0  0
   37.8610   24.7680   37.9450 F   0  0  0  0  0  0  0  0  0  0  0  0
   37.2360   22.8300   38.9290 F   0  0  0  0  0  0  0  0  0  0  0  0
   39.2920   23.7040   39.2380 F   0  0  0  0  0  0  0  0  0  0  0  0
   40.4820   21.0395   38.0576 H   0  0  0  0  0  0  0  0  0  0  0  0
   40.1594   24.5193   35.4913 H   0  0  0  0  0  0  0  0  0  0  0  0
   43.8682   22.5118   36.0024 H   0  0  0  0  0  0  0  0  0  0  0  0
  2  7  1  0
  2  1  2  0
  3  2  1  0
  4  3  2  0
  4  5  1  0
  5  6  2  0
  6  1  1  0
  7  8  1  0
  8 10  1  0
  8 11  1  0
  9  8  1  0
  1 12  1  0
  3 13  1  0
  5 14  1  0
M  ISO  3  12  14  13  14  14  14
M  END
>  <minimizedAffinity>  (1) 
-3.44370723

>  <minimizedRMSD>  (1) 
3.11609077

$$$$
