
     RDKit          3D

 14 14  0  0  0  0  0  0  0  0999 V2000
   37.6440   24.1440   37.2300 C   0  0  0  0  0  0  0  0  0  0  0  0
   38.0910   24.9750   36.1640 C   0  0  0  0  0  0  0  0  0  0  0  0
   38.2950   24.3490   34.9430 C   0  0  0  0  0  0  0  0  0  0  0  0
   38.0700   23.0280   34.8240 N   0  0  0  0  0  0  0  0  0  0  0  0
   37.6490   22.2750   35.8470 C   0  0  0  0  0  0  0  0  0  0  0  0
   37.4380   22.8300   37.0420 N   0  0  0  0  0  0  0  0  0  0  0  0
   38.2550   26.2920   36.5110 O   0  0  0  0  0  0  0  0  0  0  0  0
   38.7710   27.2970   35.6600 C   0  0  0  0  0  0  0  0  0  0  0  0
   37.4647   24.5843   38.2220 H   0  0  0  0  0  0  0  0  0  0  0  0
   38.6395   24.9306   34.0752 H   0  0  0  0  0  0  0  0  0  0  0  0
   37.4768   21.1982   35.7028 H   0  0  0  0  0  0  0  0  0  0  0  0
   39.1898   28.1126   36.2678 H   0  0  0  0  0  0  0  0  0  0  0  0
   39.5613   26.8698   35.0252 H   0  0  0  0  0  0  0  0  0  0  0  0
   37.9633   27.6902   35.0252 H   0  0  0  0  0  0  0  0  0  0  0  0
  2  7  1  0
  2  1  2  0
  3  2  1  0
  4  3  2  0
  4  5  1  0
  5  6  2  0
  6  1  1  0
  8  7  1  0
  1  9  1  0
  3 10  1  0
  5 11  1  0
  8 12  1  0
  8 13  1  0
  8 14  1  0
M  ISO  6   9  14  10  14  11  14  12   8  13   8  14   8
M  END
>  <minimizedAffinity>  (1) 
-2.58412576

>  <minimizedRMSD>  (1) 
3.18387532

$$$$
