
     RDKit          3D

 24 25  0  0  0  0  0  0  0  0999 V2000
   39.9440   22.0080   34.6280 C   0  0  0  0  0  0  0  0  0  0  0  0
   39.5920   22.4590   35.8990 C   0  0  0  0  0  0  0  0  0  0  0  0
   38.2170   22.5960   36.1440 C   0  0  0  0  0  0  0  0  0  0  0  0
   37.3210   22.2940   35.1650 N   0  0  0  0  0  0  0  0  0  0  0  0
   37.7180   21.8590   33.9470 C   0  0  0  0  0  0  0  0  0  0  0  0
   39.0380   21.7230   33.7020 N   0  0  0  0  0  0  0  0  0  0  0  0
   36.7810   21.5440   32.9280 N   0  0  0  0  0  0  0  0  0  0  0  0
   35.6240   20.7780   33.2680 C   0  0  0  0  0  0  0  0  0  0  0  0
   35.5290   20.2430   34.4570 N   0  0  0  0  0  0  0  0  0  0  0  0
   34.5840   20.6150   32.2800 N   0  0  0  0  0  0  0  0  0  0  0  0
   34.6710   19.6890   34.6760 H   0  0  0  0  0  0  0  0  0  0  0  0
   37.7180   23.0670   37.4510 C   0  0  0  0  0  0  0  0  0  0  0  0
   37.9580   24.5440   37.8360 C   0  0  0  0  0  0  0  0  0  0  0  0
   38.6750   23.4520   38.5400 C   0  0  0  0  0  0  0  0  0  0  0  0
   41.0095   21.8842   34.3845 H   0  0  0  0  0  0  0  0  0  0  0  0
   40.3467   22.6935   36.6641 H   0  0  0  0  0  0  0  0  0  0  0  0
   36.9328   21.8623   31.9602 H   0  0  0  0  0  0  0  0  0  0  0  0
   33.7416   20.0666   32.5047 H   0  0  0  0  0  0  0  0  0  0  0  0
   34.6844   21.0471   31.3504 H   0  0  0  0  0  0  0  0  0  0  0  0
   36.8564   22.3866   37.3826 H   0  0  0  0  0  0  0  0  0  0  0  0
   38.5032   25.2110   37.1520 H   0  0  0  0  0  0  0  0  0  0  0  0
   37.3196   25.3854   38.1434 H   0  0  0  0  0  0  0  0  0  0  0  0
   38.4261   23.2254   39.5872 H   0  0  0  0  0  0  0  0  0  0  0  0
   39.7359   23.2369   38.7356 H   0  0  0  0  0  0  0  0  0  0  0  0
  1  2  2  0
  2  3  1  0
  3 12  1  0
  4  3  2  0
  5  4  1  0
  6  5  2  0
  6  1  1  0
  7  8  1  0
  7  5  1  0
  8  9  2  0
  9 11  1  0
 10  8  1  0
 12 13  1  0
 12 14  1  0
 13 14  1  0
  1 15  1  0
  2 16  1  0
  7 17  1  0
 10 18  1  0
 10 19  1  0
 12 20  1  0
 13 21  1  0
 13 22  1  0
 14 23  1  0
 14 24  1  0
M  ISO  7  15  14  16  14  20  13  21  13  22  13  23  13  24  13
M  END
>  <minimizedAffinity>  (1) 
-4.09518051

>  <minimizedRMSD>  (1) 
2.41709495

$$$$
