
     RDKit          3D

 29 30  0  0  0  0  0  0  0  0999 V2000
   37.9840   23.1710   33.7590 C   0  0  0  0  0  0  0  0  0  0  0  0
   38.4740   24.5950   33.8190 C   0  0  0  0  0  0  0  0  0  0  0  0
   37.6610   25.2990   34.7900 N   0  0  0  0  0  0  0  0  0  0  0  0
   37.1410   26.5350   34.2550 C   0  0  0  0  0  0  0  0  0  0  0  0
   37.5930   27.6590   35.1160 C   0  0  0  0  0  0  0  0  0  0  0  0
   38.7360   27.0770   35.9240 C   0  0  0  0  0  0  0  0  0  0  0  0
   38.3530   25.6110   36.0150 C   0  0  0  0  0  0  0  0  0  0  0  0
   37.0100   23.0590   32.7220 O   0  0  0  0  0  0  0  0  0  0  0  0
   35.1250   21.6400   32.3130 C   0  0  0  0  0  0  0  0  0  0  0  0
   36.5170   21.7930   32.4840 C   0  0  0  0  0  0  0  0  0  0  0  0
   37.2930   20.6560   32.3990 C   0  0  0  0  0  0  0  0  0  0  0  0
   36.7100   19.4520   32.1620 N   0  0  0  0  0  0  0  0  0  0  0  0
   35.3740   19.3490   32.0050 C   0  0  0  0  0  0  0  0  0  0  0  0
   34.6080   20.4410   32.0830 N   0  0  0  0  0  0  0  0  0  0  0  0
   38.8284   22.4989   33.5462 H   0  0  0  0  0  0  0  0  0  0  0  0
   37.5346   22.8913   34.7233 H   0  0  0  0  0  0  0  0  0  0  0  0
   39.5294   24.6155   34.1284 H   0  0  0  0  0  0  0  0  0  0  0  0
   38.3947   25.0722   32.8311 H   0  0  0  0  0  0  0  0  0  0  0  0
   37.5151   26.6806   33.2308 H   0  0  0  0  0  0  0  0  0  0  0  0
   36.0418   26.4994   34.2344 H   0  0  0  0  0  0  0  0  0  0  0  0
   37.9399   28.5040   34.5031 H   0  0  0  0  0  0  0  0  0  0  0  0
   36.7860   28.0513   35.7523 H   0  0  0  0  0  0  0  0  0  0  0  0
   39.6972   27.2063   35.4050 H   0  0  0  0  0  0  0  0  0  0  0  0
   38.8733   27.5584   36.9035 H   0  0  0  0  0  0  0  0  0  0  0  0
   37.6935   25.4422   36.8790 H   0  0  0  0  0  0  0  0  0  0  0  0
   39.2391   24.9729   36.1483 H   0  0  0  0  0  0  0  0  0  0  0  0
   34.4660   22.5189   32.3707 H   0  0  0  0  0  0  0  0  0  0  0  0
   38.3839   20.7240   32.5231 H   0  0  0  0  0  0  0  0  0  0  0  0
   34.9160   18.3675   31.8131 H   0  0  0  0  0  0  0  0  0  0  0  0
  1  2  1  0
  2  3  1  0
  3  7  1  0
  4  3  1  0
  4  5  1  0
  5  6  1  0
  6  7  1  0
  8  1  1  0
  9 10  2  0
 10  8  1  0
 11 10  1  0
 12 11  2  0
 13 14  2  0
 13 12  1  0
 14  9  1  0
  1 15  1  0
  1 16  1  0
  2 17  1  0
  2 18  1  0
  4 19  1  0
  4 20  1  0
  5 21  1  0
  5 22  1  0
  6 23  1  0
  6 24  1  0
  7 25  1  0
  7 26  1  0
  9 27  1  0
 11 28  1  0
 13 29  1  0
M  ISO  8  15   8  16   8  17   8  18   8  19  13  20  13  21  13  22  13
M  ISO  7  23  13  24  13  25  13  26  13  27  14  28  14  29  14
M  END
>  <minimizedAffinity>  (1) 
-3.38133955

>  <minimizedRMSD>  (1) 
7.55561399

$$$$
