
     RDKit          3D

 24 24  0  0  0  0  0  0  0  0999 V2000
   41.3620   21.6660   37.5200 C   0  0  0  0  0  0  0  0  0  0  0  0
   42.3660   20.7830   36.8310 C   0  0  0  0  0  0  0  0  0  0  0  0
   42.8240   19.6860   37.6100 N   0  0  0  0  0  0  0  0  0  0  0  0
   43.9350   18.8370   37.3550 C   0  0  0  0  0  0  0  0  0  0  0  0
   44.8930   19.4050   36.6710 N   0  0  0  0  0  0  0  0  0  0  0  0
   43.9870   17.4860   37.8170 N   0  0  0  0  0  0  0  0  0  0  0  0
   45.7710   18.9350   36.3960 H   0  0  0  0  0  0  0  0  0  0  0  0
   40.1840   21.7530   36.7380 O   0  0  0  0  0  0  0  0  0  0  0  0
   39.1950   23.7320   35.8490 C   0  0  0  0  0  0  0  0  0  0  0  0
   39.3960   22.8730   36.9570 C   0  0  0  0  0  0  0  0  0  0  0  0
   38.7870   23.2370   38.1380 C   0  0  0  0  0  0  0  0  0  0  0  0
   38.0450   24.3610   38.2000 N   0  0  0  0  0  0  0  0  0  0  0  0
   37.8790   25.1520   37.1270 C   0  0  0  0  0  0  0  0  0  0  0  0
   38.4610   24.8090   35.9890 N   0  0  0  0  0  0  0  0  0  0  0  0
   41.1164   21.2410   38.5044 H   0  0  0  0  0  0  0  0  0  0  0  0
   41.7891   22.6717   37.6470 H   0  0  0  0  0  0  0  0  0  0  0  0
   41.9017   20.3843   35.9170 H   0  0  0  0  0  0  0  0  0  0  0  0
   43.2465   21.4110   36.6299 H   0  0  0  0  0  0  0  0  0  0  0  0
   42.2850   19.4813   38.4635 H   0  0  0  0  0  0  0  0  0  0  0  0
   44.8106   16.9027   37.6113 H   0  0  0  0  0  0  0  0  0  0  0  0
   43.2009   17.0953   38.3558 H   0  0  0  0  0  0  0  0  0  0  0  0
   39.6522   23.4967   34.8766 H   0  0  0  0  0  0  0  0  0  0  0  0
   38.9065   22.6087   39.0330 H   0  0  0  0  0  0  0  0  0  0  0  0
   37.2714   26.0666   37.1929 H   0  0  0  0  0  0  0  0  0  0  0  0
  2  1  1  0
  2  3  1  0
  4  3  1  0
  4  6  1  0
  5  4  2  0
  7  5  1  0
  8 10  1  0
  8  1  1  0
  9 14  2  0
  9 10  1  0
 10 11  2  0
 11 12  1  0
 13 12  2  0
 14 13  1  0
  1 15  1  0
  1 16  1  0
  2 17  1  0
  2 18  1  0
  3 19  1  0
  6 20  1  0
  6 21  1  0
  9 22  1  0
 11 23  1  0
 13 24  1  0
M  ISO  7  15   8  16   8  17   8  18   8  22  14  23  14  24  14
M  END
>  <minimizedAffinity>  (1) 
-3.33888555

>  <minimizedRMSD>  (1) 
1.10131049

$$$$
