
     RDKit          3D

 30 31  0  0  0  0  0  0  0  0999 V2000
   41.2570   21.7280   37.3290 C   0  0  0  0  0  0  0  0  0  0  0  0
   42.3580   21.8630   36.3350 C   0  0  0  0  0  0  0  0  0  0  0  0
   45.6110   19.1560   36.6050 C   0  0  0  0  0  0  0  0  0  0  0  0
   44.3840   18.8020   37.1290 C   0  0  0  0  0  0  0  0  0  0  0  0
   43.2910   19.6360   37.0730 C   0  0  0  0  0  0  0  0  0  0  0  0
   43.4310   20.8820   36.4630 C   0  0  0  0  0  0  0  0  0  0  0  0
   44.6880   21.1880   35.9520 C   0  0  0  0  0  0  0  0  0  0  0  0
   45.8090   20.3840   35.9870 C   0  0  0  0  0  0  0  0  0  0  0  0
   46.9650   18.0470   36.7090 S   0  0  0  0  0  0  0  0  0  0  0  0
   46.8140   17.0870   37.8590 O   0  0  0  0  0  0  0  0  0  0  0  0
   47.0580   17.3240   35.3830 O   0  0  0  0  0  0  0  0  0  0  0  0
   39.9940   21.8220   36.6930 O   0  0  0  0  0  0  0  0  0  0  0  0
   39.0760   23.8670   35.9060 C   0  0  0  0  0  0  0  0  0  0  0  0
   39.2630   22.9600   36.9810 C   0  0  0  0  0  0  0  0  0  0  0  0
   38.7020   23.2960   38.2020 C   0  0  0  0  0  0  0  0  0  0  0  0
   38.0200   24.4430   38.3100 N   0  0  0  0  0  0  0  0  0  0  0  0
   37.8570   25.2880   37.2740 C   0  0  0  0  0  0  0  0  0  0  0  0
   38.3900   24.9920   36.0700 N   0  0  0  0  0  0  0  0  0  0  0  0
   41.3384   20.7509   37.8276 H   0  0  0  0  0  0  0  0  0  0  0  0
   41.3436   22.5405   38.0654 H   0  0  0  0  0  0  0  0  0  0  0  0
   42.7973   22.8652   36.4470 H   0  0  0  0  0  0  0  0  0  0  0  0
   41.9027   21.6922   35.3483 H   0  0  0  0  0  0  0  0  0  0  0  0
   44.2761   17.8179   37.6085 H   0  0  0  0  0  0  0  0  0  0  0  0
   42.3262   19.3260   37.5008 H   0  0  0  0  0  0  0  0  0  0  0  0
   44.7999   22.1709   35.4710 H   0  0  0  0  0  0  0  0  0  0  0  0
   46.7765   20.6895   35.5619 H   0  0  0  0  0  0  0  0  0  0  0  0
   48.1231   18.7365   36.9543 H   0  0  0  0  0  0  0  0  0  0  0  0
   39.5063   23.6344   34.9207 H   0  0  0  0  0  0  0  0  0  0  0  0
   38.8152   22.6302   39.0703 H   0  0  0  0  0  0  0  0  0  0  0  0
   37.2890   26.2202   37.4093 H   0  0  0  0  0  0  0  0  0  0  0  0
  2  6  1  0
  2  1  1  0
  3  9  1  0
  3  4  2  0
  5  4  1  0
  6  5  2  0
  7  8  2  0
  7  6  1  0
  8  3  1  0
  9 10  2  0
 11  9  2  0
 12 14  1  0
 12  1  1  0
 13 18  2  0
 13 14  1  0
 14 15  2  0
 15 16  1  0
 17 16  2  0
 18 17  1  0
  1 19  1  0
  1 20  1  0
  2 21  1  0
  2 22  1  0
  4 23  1  0
  5 24  1  0
  7 25  1  0
  8 26  1  0
  9 27  1  0
 13 28  1  0
 15 29  1  0
 17 30  1  0
M  ISO  8  19   8  20   8  21   8  22   8  23  14  24  14  25  14  26  14
M  ISO  4  27  11  28  14  29  14  30  14
M  END
>  <minimizedAffinity>  (1) 
-3.38839245

>  <minimizedRMSD>  (1) 
3.69160748

$$$$
