
     RDKit          3D

 28 30  0  0  0  0  0  0  0  0999 V2000
   42.9740   22.3870   35.1130 C   0  0  0  0  0  0  0  0  0  0  0  0
   41.7300   21.8090   35.7290 C   0  0  0  0  0  0  0  0  0  0  0  0
   40.6130   22.7220   35.5970 N   0  0  0  0  0  0  0  0  0  0  0  0
   40.1990   23.3370   34.4590 C   0  0  0  0  0  0  0  0  0  0  0  0
   39.1260   24.1160   34.7150 N   0  0  0  0  0  0  0  0  0  0  0  0
   38.8350   24.0120   36.0240 C   0  0  0  0  0  0  0  0  0  0  0  0
   37.8920   24.5360   36.8830 C   0  0  0  0  0  0  0  0  0  0  0  0
   37.8510   24.2350   38.1930 N   0  0  0  0  0  0  0  0  0  0  0  0
   38.7680   23.3870   38.6930 C   0  0  0  0  0  0  0  0  0  0  0  0
   39.6900   22.8740   37.8600 N   0  0  0  0  0  0  0  0  0  0  0  0
   39.7660   23.1470   36.5460 C   0  0  0  0  0  0  0  0  0  0  0  0
   44.0580   22.2860   36.0310 O   0  0  0  0  0  0  0  0  0  0  0  0
   44.1440   24.4550   36.9890 C   0  0  0  0  0  0  0  0  0  0  0  0
   44.7840   23.4380   36.2330 C   0  0  0  0  0  0  0  0  0  0  0  0
   46.0600   23.6870   35.7680 C   0  0  0  0  0  0  0  0  0  0  0  0
   46.6390   24.8740   36.0510 N   0  0  0  0  0  0  0  0  0  0  0  0
   46.0110   25.8160   36.7700 C   0  0  0  0  0  0  0  0  0  0  0  0
   44.7660   25.6080   37.2380 N   0  0  0  0  0  0  0  0  0  0  0  0
   43.2193   21.8317   34.1957 H   0  0  0  0  0  0  0  0  0  0  0  0
   42.8010   23.4458   34.8700 H   0  0  0  0  0  0  0  0  0  0  0  0
   41.4838   20.8638   35.2230 H   0  0  0  0  0  0  0  0  0  0  0  0
   41.9167   21.6360   36.7991 H   0  0  0  0  0  0  0  0  0  0  0  0
   40.6695   23.2178   33.4719 H   0  0  0  0  0  0  0  0  0  0  0  0
   37.1406   25.2304   36.4790 H   0  0  0  0  0  0  0  0  0  0  0  0
   38.7634   23.1193   39.7599 H   0  0  0  0  0  0  0  0  0  0  0  0
   43.1263   24.2905   37.3727 H   0  0  0  0  0  0  0  0  0  0  0  0
   46.5966   22.9306   35.1764 H   0  0  0  0  0  0  0  0  0  0  0  0
   46.5188   26.7690   36.9796 H   0  0  0  0  0  0  0  0  0  0  0  0
  1  2  1  0
  1 12  1  0
  3  2  1  0
  3 11  1  0
  4  5  2  0
  4  3  1  0
  5  6  1  0
  6 11  2  0
  6  7  1  0
  7  8  2  0
  8  9  1  0
 10  9  2  0
 11 10  1  0
 12 14  1  0
 13 18  2  0
 14 13  1  0
 15 16  1  0
 15 14  2  0
 16 17  2  0
 17 18  1  0
  1 19  1  0
  1 20  1  0
  2 21  1  0
  2 22  1  0
  4 23  1  0
  7 24  1  0
  9 25  1  0
 13 26  1  0
 15 27  1  0
 17 28  1  0
M  ISO  8  19   8  20   8  21   8  22   8  23  14  24  14  25  14  26  14
M  ISO  2  27  14  28  14
M  END
>  <minimizedAffinity>  (1) 
-3.72439837

>  <minimizedRMSD>  (1) 
6.25743341

$$$$
