
     RDKit          3D

 31 33  0  0  0  0  0  0  0  0999 V2000
   42.3660   20.8710   37.3980 C   0  0  0  0  0  0  0  0  0  0  0  0
   42.0820   22.1140   36.7090 N   0  0  0  0  0  0  0  0  0  0  0  0
   42.9950   22.9880   36.2610 C   0  0  0  0  0  0  0  0  0  0  0  0
   42.3390   24.0210   35.6740 N   0  0  0  0  0  0  0  0  0  0  0  0
   41.0240   23.7790   35.7630 C   0  0  0  0  0  0  0  0  0  0  0  0
   39.8650   24.4420   35.3630 C   0  0  0  0  0  0  0  0  0  0  0  0
   39.9780   25.5450   34.7640 O   0  0  0  0  0  0  0  0  0  0  0  0
   38.6720   23.8780   35.6330 N   0  0  0  0  0  0  0  0  0  0  0  0
   38.5270   22.7020   36.2710 C   0  0  0  0  0  0  0  0  0  0  0  0
   37.2430   22.1920   36.5090 N   0  0  0  0  0  0  0  0  0  0  0  0
   39.6320   22.0360   36.6720 N   0  0  0  0  0  0  0  0  0  0  0  0
   40.8450   22.5700   36.4190 C   0  0  0  0  0  0  0  0  0  0  0  0
   42.9320   19.8490   36.4460 C   0  0  0  0  0  0  0  0  0  0  0  0
   43.3560   18.7010   37.1760 O   0  0  0  0  0  0  0  0  0  0  0  0
   45.1300   17.2470   37.7880 C   0  0  0  0  0  0  0  0  0  0  0  0
   44.7130   18.4600   37.1610 C   0  0  0  0  0  0  0  0  0  0  0  0
   45.6970   19.2580   36.6080 C   0  0  0  0  0  0  0  0  0  0  0  0
   46.9860   18.8630   36.6850 N   0  0  0  0  0  0  0  0  0  0  0  0
   47.3330   17.7130   37.2840 C   0  0  0  0  0  0  0  0  0  0  0  0
   46.4090   16.9040   37.8350 N   0  0  0  0  0  0  0  0  0  0  0  0
   43.0958   21.0611   38.1988 H   0  0  0  0  0  0  0  0  0  0  0  0
   41.4286   20.4792   37.8196 H   0  0  0  0  0  0  0  0  0  0  0  0
   44.0863   22.8855   36.3533 H   0  0  0  0  0  0  0  0  0  0  0  0
   37.8213   24.3757   35.3338 H   0  0  0  0  0  0  0  0  0  0  0  0
   37.1286   21.2922   36.9970 H   0  0  0  0  0  0  0  0  0  0  0  0
   36.4141   22.7171   36.1958 H   0  0  0  0  0  0  0  0  0  0  0  0
   43.7911   20.2817   35.9123 H   0  0  0  0  0  0  0  0  0  0  0  0
   42.1583   19.5564   35.7209 H   0  0  0  0  0  0  0  0  0  0  0  0
   44.3762   16.5855   38.2400 H   0  0  0  0  0  0  0  0  0  0  0  0
   45.4332   20.2033   36.1112 H   0  0  0  0  0  0  0  0  0  0  0  0
   48.3940   17.4258   37.3254 H   0  0  0  0  0  0  0  0  0  0  0  0
  2  1  1  0
  3  2  1  0
  4  5  1  0
  4  3  2  0
  5 12  2  0
  6  8  1  0
  6  5  1  0
  7  6  2  0
  8  9  1  0
  9 10  1  0
  9 11  2  0
 12 11  1  0
 12  2  1  0
 13 14  1  0
 13  1  1  0
 15 20  2  0
 16 14  1  0
 16 15  1  0
 17 18  1  0
 17 16  2  0
 18 19  2  0
 19 20  1  0
  1 21  1  0
  1 22  1  0
  3 23  1  0
  8 24  1  0
 10 25  1  0
 10 26  1  0
 13 27  1  0
 13 28  1  0
 15 29  1  0
 17 30  1  0
 19 31  1  0
M  ISO  8  21   8  22   8  23  14  24   9  27   8  28   8  29  14  30  14
M  ISO  1  31  14
M  END
>  <minimizedAffinity>  (1) 
-3.59232759

>  <minimizedRMSD>  (1) 
7.77824593

$$$$
