
     RDKit          3D

 28 29  0  0  0  0  0  0  0  0999 V2000
   42.3250   21.4980   36.8370 C   0  0  0  0  0  0  0  0  0  0  0  0
   43.5650   21.7610   36.0270 C   0  0  0  0  0  0  0  0  0  0  0  0
   43.8560   23.1530   35.8820 N   0  0  0  0  0  0  0  0  0  0  0  0
   44.1410   23.9940   36.8650 C   0  0  0  0  0  0  0  0  0  0  0  0
   44.4070   25.3230   36.6100 C   0  0  0  0  0  0  0  0  0  0  0  0
   44.3870   25.8290   35.3180 C   0  0  0  0  0  0  0  0  0  0  0  0
   44.6500   27.1760   34.9920 N   0  0  0  0  0  0  0  0  0  0  0  0
   44.0930   24.9530   34.3260 N   0  0  0  0  0  0  0  0  0  0  0  0
   43.8340   23.6420   34.6090 C   0  0  0  0  0  0  0  0  0  0  0  0
   43.5670   22.8840   33.6170 O   0  0  0  0  0  0  0  0  0  0  0  0
   41.1710   21.6920   36.0210 O   0  0  0  0  0  0  0  0  0  0  0  0
   38.8960   22.3060   35.9060 C   0  0  0  0  0  0  0  0  0  0  0  0
   40.0870   22.2670   36.6620 C   0  0  0  0  0  0  0  0  0  0  0  0
   40.0580   22.7900   37.9370 C   0  0  0  0  0  0  0  0  0  0  0  0
   38.9150   23.3100   38.4020 N   0  0  0  0  0  0  0  0  0  0  0  0
   37.7820   23.3400   37.6640 C   0  0  0  0  0  0  0  0  0  0  0  0
   37.7840   22.8340   36.4130 N   0  0  0  0  0  0  0  0  0  0  0  0
   42.3420   20.4622   37.2069 H   0  0  0  0  0  0  0  0  0  0  0  0
   42.2910   22.1925   37.6894 H   0  0  0  0  0  0  0  0  0  0  0  0
   44.4175   21.2752   36.5243 H   0  0  0  0  0  0  0  0  0  0  0  0
   43.3902   21.3560   35.0193 H   0  0  0  0  0  0  0  0  0  0  0  0
   44.1659   23.6264   37.9015 H   0  0  0  0  0  0  0  0  0  0  0  0
   44.6399   25.9960   37.4483 H   0  0  0  0  0  0  0  0  0  0  0  0
   44.6179   27.4838   34.0096 H   0  0  0  0  0  0  0  0  0  0  0  0
   44.8742   27.8517   35.7364 H   0  0  0  0  0  0  0  0  0  0  0  0
   38.8863   21.8952   34.8856 H   0  0  0  0  0  0  0  0  0  0  0  0
   40.9617   22.7803   38.5641 H   0  0  0  0  0  0  0  0  0  0  0  0
   36.8623   23.7752   38.0820 H   0  0  0  0  0  0  0  0  0  0  0  0
  2  1  1  0
  3  2  1  0
  3  4  1  0
  5  4  2  0
  6  5  1  0
  7  6  1  0
  8  9  1  0
  8  6  2  0
  9  3  1  0
 10  9  2  0
 11 13  1  0
 11  1  1  0
 12 17  2  0
 12 13  1  0
 13 14  2  0
 14 15  1  0
 16 15  2  0
 17 16  1  0
  1 18  1  0
  1 19  1  0
  2 20  1  0
  2 21  1  0
  4 22  1  0
  5 23  1  0
  7 24  1  0
  7 25  1  0
 12 26  1  0
 14 27  1  0
 16 28  1  0
M  ISO  8  18   8  19   8  20   8  21   8  22  14  23  14  26  14  27  14
M  ISO  1  28  14
M  END
>  <minimizedAffinity>  (1) 
-3.79513836

>  <minimizedRMSD>  (1) 
5.62488461

$$$$
