
     RDKit          3D

 19 19  0  0  0  0  0  0  0  0999 V2000
   40.0490   21.8640   36.5470 O   0  0  0  0  0  0  0  0  0  0  0  0
   39.7550   23.9870   35.5700 C   0  0  0  0  0  0  0  0  0  0  0  0
   39.2810   22.9970   36.4540 C   0  0  0  0  0  0  0  0  0  0  0  0
   38.1090   23.2630   37.1290 C   0  0  0  0  0  0  0  0  0  0  0  0
   37.4700   24.4390   36.9210 N   0  0  0  0  0  0  0  0  0  0  0  0
   37.9500   25.3640   36.0670 C   0  0  0  0  0  0  0  0  0  0  0  0
   39.0850   25.1280   35.4020 N   0  0  0  0  0  0  0  0  0  0  0  0
   41.0720   21.8860   37.5390 C   0  0  0  0  0  0  0  0  0  0  0  0
   42.2110   21.0050   37.0950 C   0  0  0  0  0  0  0  0  0  0  0  0
   42.3870   19.9970   38.1520 N   0  0  0  0  0  0  0  0  0  0  0  0
   40.6878   23.8168   35.0124 H   0  0  0  0  0  0  0  0  0  0  0  0
   37.6953   22.5250   37.8320 H   0  0  0  0  0  0  0  0  0  0  0  0
   37.4095   26.3103   35.9176 H   0  0  0  0  0  0  0  0  0  0  0  0
   41.4338   22.9163   37.6717 H   0  0  0  0  0  0  0  0  0  0  0  0
   40.6693   21.5167   38.4937 H   0  0  0  0  0  0  0  0  0  0  0  0
   41.9658   20.5172   36.1400 H   0  0  0  0  0  0  0  0  0  0  0  0
   43.1311   21.5875   36.9397 H   0  0  0  0  0  0  0  0  0  0  0  0
   42.3081   20.4491   39.0741 H   0  0  0  0  0  0  0  0  0  0  0  0
   41.6596   19.2734   38.0610 H   0  0  0  0  0  0  0  0  0  0  0  0
  1  8  1  0
  2  3  2  0
  3  1  1  0
  3  4  1  0
  5  4  2  0
  6  5  1  0
  7  2  1  0
  7  6  2  0
  9  8  1  0
  9 10  1  0
  2 11  1  0
  4 12  1  0
  6 13  1  0
  8 14  1  0
  8 15  1  0
  9 16  1  0
  9 17  1  0
 10 18  1  0
 10 19  1  0
M  ISO  8  11  14  12  14  13  14  14   8  15   8  16   8  17   8  18   5
M  ISO  1  19   5
M  END
>  <minimizedAffinity>  (1) 
-3.11591554

>  <minimizedRMSD>  (1) 
0.704825759

$$$$
