
     RDKit          3D

 23 24  0  0  0  0  0  0  0  0999 V2000
   41.4940   21.6120   37.4440 C   0  0  0  0  0  0  0  0  0  0  0  0
   42.6640   21.3560   36.5320 C   0  0  0  0  0  0  0  0  0  0  0  0
   43.5080   22.5250   36.3840 N   0  0  0  0  0  0  0  0  0  0  0  0
   44.7820   22.6240   35.9590 C   0  0  0  0  0  0  0  0  0  0  0  0
   45.1910   23.9100   35.9740 N   0  0  0  0  0  0  0  0  0  0  0  0
   44.1130   24.5950   36.4270 C   0  0  0  0  0  0  0  0  0  0  0  0
   43.0960   23.7690   36.6750 N   0  0  0  0  0  0  0  0  0  0  0  0
   40.3050   21.6900   36.6520 O   0  0  0  0  0  0  0  0  0  0  0  0
   39.2900   23.6590   35.8040 C   0  0  0  0  0  0  0  0  0  0  0  0
   39.5090   22.7950   36.9050 C   0  0  0  0  0  0  0  0  0  0  0  0
   38.9110   23.1420   38.0970 C   0  0  0  0  0  0  0  0  0  0  0  0
   38.1650   24.2520   38.1740 N   0  0  0  0  0  0  0  0  0  0  0  0
   37.9770   25.0550   37.1000 C   0  0  0  0  0  0  0  0  0  0  0  0
   38.5490   24.7390   35.9270 N   0  0  0  0  0  0  0  0  0  0  0  0
   41.4028   20.7898   38.1691 H   0  0  0  0  0  0  0  0  0  0  0  0
   41.6434   22.5549   37.9905 H   0  0  0  0  0  0  0  0  0  0  0  0
   43.2656   20.5351   36.9493 H   0  0  0  0  0  0  0  0  0  0  0  0
   42.2681   21.0970   35.5389 H   0  0  0  0  0  0  0  0  0  0  0  0
   45.4039   21.7735   35.6430 H   0  0  0  0  0  0  0  0  0  0  0  0
   44.0812   25.6851   36.5707 H   0  0  0  0  0  0  0  0  0  0  0  0
   39.7465   23.4233   34.8314 H   0  0  0  0  0  0  0  0  0  0  0  0
   39.0462   22.5075   38.9853 H   0  0  0  0  0  0  0  0  0  0  0  0
   37.3593   25.9609   37.1880 H   0  0  0  0  0  0  0  0  0  0  0  0
  2  1  1  0
  3  2  1  0
  3  7  1  0
  4  5  2  0
  4  3  1  0
  5  6  1  0
  6  7  2  0
  8 10  1  0
  8  1  1  0
  9 14  2  0
  9 10  1  0
 10 11  2  0
 11 12  1  0
 13 12  2  0
 14 13  1  0
  1 15  1  0
  1 16  1  0
  2 17  1  0
  2 18  1  0
  4 19  1  0
  6 20  1  0
  9 21  1  0
 11 22  1  0
 13 23  1  0
M  ISO  8  15   8  16   8  17   8  18   8  19  14  20  14  21  14  22  14
M  ISO  1  23  14
M  END
>  <minimizedAffinity>  (1) 
-3.14161515

>  <minimizedRMSD>  (1) 
1.79001606

$$$$
