
     RDKit          3D

 42 45  0  0  0  0  0  0  0  0999 V2000
   43.4560   25.5250   34.1380 C   0  0  0  0  0  0  0  0  0  0  0  0
   44.5930   26.4500   34.3970 C   0  0  0  0  0  0  0  0  0  0  0  0
   45.6420   25.8280   35.2520 C   0  0  0  0  0  0  0  0  0  0  0  0
   46.8170   25.2490   34.8340 C   0  0  0  0  0  0  0  0  0  0  0  0
   47.5450   24.7790   35.8520 N   0  0  0  0  0  0  0  0  0  0  0  0
   46.8570   25.0420   36.9730 C   0  0  0  0  0  0  0  0  0  0  0  0
   47.0820   24.8070   38.3190 C   0  0  0  0  0  0  0  0  0  0  0  0
   46.2100   25.1760   39.3060 C   0  0  0  0  0  0  0  0  0  0  0  0
   45.0460   25.8160   38.9550 C   0  0  0  0  0  0  0  0  0  0  0  0
   44.8060   26.0580   37.6170 C   0  0  0  0  0  0  0  0  0  0  0  0
   45.6760   25.6910   36.6150 C   0  0  0  0  0  0  0  0  0  0  0  0
   42.2220   26.1100   34.4810 O   0  0  0  0  0  0  0  0  0  0  0  0
   39.9490   25.8600   34.9550 C   0  0  0  0  0  0  0  0  0  0  0  0
   41.2290   25.2780   34.8910 C   0  0  0  0  0  0  0  0  0  0  0  0
   41.3330   23.9610   35.2410 C   0  0  0  0  0  0  0  0  0  0  0  0
   40.2410   23.2570   35.6310 N   0  0  0  0  0  0  0  0  0  0  0  0
   39.0200   23.8530   35.6810 C   0  0  0  0  0  0  0  0  0  0  0  0
   38.8920   25.1360   35.3450 N   0  0  0  0  0  0  0  0  0  0  0  0
   37.9540   22.9940   36.1100 N   0  0  0  0  0  0  0  0  0  0  0  0
   37.5460   22.0620   35.2320 C   0  0  0  0  0  0  0  0  0  0  0  0
   36.5200   21.2390   35.6490 C   0  0  0  0  0  0  0  0  0  0  0  0
   36.0030   21.4340   36.9120 C   0  0  0  0  0  0  0  0  0  0  0  0
   34.9450   20.6370   37.4300 N   0  0  0  0  0  0  0  0  0  0  0  0
   36.4720   22.3930   37.7260 N   0  0  0  0  0  0  0  0  0  0  0  0
   37.4750   23.2160   37.3480 C   0  0  0  0  0  0  0  0  0  0  0  0
   37.9380   24.1180   38.0740 O   0  0  0  0  0  0  0  0  0  0  0  0
   43.4432   25.2660   33.0690 H   0  0  0  0  0  0  0  0  0  0  0  0
   43.5950   24.6275   34.7586 H   0  0  0  0  0  0  0  0  0  0  0  0
   45.0436   26.7353   33.4349 H   0  0  0  0  0  0  0  0  0  0  0  0
   44.1991   27.3273   34.9310 H   0  0  0  0  0  0  0  0  0  0  0  0
   47.1237   25.1802   33.7799 H   0  0  0  0  0  0  0  0  0  0  0  0
   48.4579   24.3063   35.7879 H   0  0  0  0  0  0  0  0  0  0  0  0
   48.0118   24.2962   38.6100 H   0  0  0  0  0  0  0  0  0  0  0  0
   46.4365   24.9643   40.3614 H   0  0  0  0  0  0  0  0  0  0  0  0
   44.3221   26.1283   39.7221 H   0  0  0  0  0  0  0  0  0  0  0  0
   43.8731   26.5696   37.3376 H   0  0  0  0  0  0  0  0  0  0  0  0
   39.8159   26.9174   34.6826 H   0  0  0  0  0  0  0  0  0  0  0  0
   42.3145   23.4656   35.2060 H   0  0  0  0  0  0  0  0  0  0  0  0
   38.0041   21.9609   34.2371 H   0  0  0  0  0  0  0  0  0  0  0  0
   36.1257   20.4496   34.9922 H   0  0  0  0  0  0  0  0  0  0  0  0
   34.5848   20.8128   38.3788 H   0  0  0  0  0  0  0  0  0  0  0  0
   34.5390   19.8841   36.8563 H   0  0  0  0  0  0  0  0  0  0  0  0
  1  2  1  0
  1 12  1  0
  2  3  1  0
  3 11  1  0
  4  3  2  0
  4  5  1  0
  5  6  1  0
  6  7  2  0
  7  8  1  0
  9  8  2  0
 10  9  1  0
 11  6  1  0
 11 10  2  0
 12 14  1  0
 13 18  2  0
 14 13  1  0
 14 15  2  0
 15 16  1  0
 16 17  2  0
 17 19  1  0
 18 17  1  0
 19 25  1  0
 20 21  2  0
 20 19  1  0
 21 22  1  0
 22 23  1  0
 22 24  2  0
 25 24  1  0
 25 26  2  0
  1 27  1  0
  1 28  1  0
  2 29  1  0
  2 30  1  0
  4 31  1  0
  5 32  1  0
  7 33  1  0
  8 34  1  0
  9 35  1  0
 10 36  1  0
 13 37  1  0
 15 38  1  0
 20 39  1  0
 21 40  1  0
 23 41  1  0
 23 42  1  0
M  ISO  8  27   8  28   8  29   8  30   8  31  14  32   9  33  14  34  14
M  ISO  6  35  14  36  14  37  14  38  14  39  14  40  14
M  END
>  <minimizedAffinity>  (1) 
-6.00609016

>  <minimizedRMSD>  (1) 
3.34131789

$$$$
