
     RDKit          3D

 45 49  0  0  0  0  0  0  0  0999 V2000
   43.9810   25.3490   33.8660 C   0  0  0  0  0  0  0  0  0  0  0  0
   45.2110   26.1540   34.0850 C   0  0  0  0  0  0  0  0  0  0  0  0
   46.0770   25.5930   35.1490 C   0  0  0  0  0  0  0  0  0  0  0  0
   47.2770   24.9490   34.9790 C   0  0  0  0  0  0  0  0  0  0  0  0
   47.8200   24.5550   36.1440 N   0  0  0  0  0  0  0  0  0  0  0  0
   46.9690   24.9420   37.1060 C   0  0  0  0  0  0  0  0  0  0  0  0
   46.9610   24.8310   38.4880 C   0  0  0  0  0  0  0  0  0  0  0  0
   45.9680   25.3090   39.2880 C   0  0  0  0  0  0  0  0  0  0  0  0
   44.8990   25.9430   38.6950 C   0  0  0  0  0  0  0  0  0  0  0  0
   44.8890   26.0630   37.3230 C   0  0  0  0  0  0  0  0  0  0  0  0
   45.8880   25.5830   36.5200 C   0  0  0  0  0  0  0  0  0  0  0  0
   42.8400   26.0060   34.3580 O   0  0  0  0  0  0  0  0  0  0  0  0
   40.5550   25.7970   34.8110 C   0  0  0  0  0  0  0  0  0  0  0  0
   41.8310   25.2270   34.8740 C   0  0  0  0  0  0  0  0  0  0  0  0
   41.9670   23.9710   35.4330 C   0  0  0  0  0  0  0  0  0  0  0  0
   40.8530   23.3520   35.8910 N   0  0  0  0  0  0  0  0  0  0  0  0
   39.6270   23.9220   35.8190 C   0  0  0  0  0  0  0  0  0  0  0  0
   39.4870   25.1320   35.2820 N   0  0  0  0  0  0  0  0  0  0  0  0
   38.4810   23.1820   36.3380 C   0  0  0  0  0  0  0  0  0  0  0  0
   38.0470   23.1760   37.6450 C   0  0  0  0  0  0  0  0  0  0  0  0
   36.9660   22.3690   37.6930 N   0  0  0  0  0  0  0  0  0  0  0  0
   36.7000   21.8670   36.4710 C   0  0  0  0  0  0  0  0  0  0  0  0
   35.7440   21.0190   35.9720 C   0  0  0  0  0  0  0  0  0  0  0  0
   35.6810   20.6440   34.6460 C   0  0  0  0  0  0  0  0  0  0  0  0
   36.6380   21.1580   33.7910 C   0  0  0  0  0  0  0  0  0  0  0  0
   37.6250   22.0240   34.2750 C   0  0  0  0  0  0  0  0  0  0  0  0
   37.6390   22.3650   35.6120 C   0  0  0  0  0  0  0  0  0  0  0  0
   43.8555   25.1746   32.7872 H   0  0  0  0  0  0  0  0  0  0  0  0
   44.0909   24.3974   34.4068 H   0  0  0  0  0  0  0  0  0  0  0  0
   45.7828   26.1864   33.1458 H   0  0  0  0  0  0  0  0  0  0  0  0
   44.8990   27.1592   34.4047 H   0  0  0  0  0  0  0  0  0  0  0  0
   47.7430   24.7745   33.9980 H   0  0  0  0  0  0  0  0  0  0  0  0
   48.7116   24.0556   36.2723 H   0  0  0  0  0  0  0  0  0  0  0  0
   47.8109   24.3246   38.9689 H   0  0  0  0  0  0  0  0  0  0  0  0
   46.0185   25.1916   40.3805 H   0  0  0  0  0  0  0  0  0  0  0  0
   44.0737   26.3436   39.3020 H   0  0  0  0  0  0  0  0  0  0  0  0
   44.0356   26.5699   36.8490 H   0  0  0  0  0  0  0  0  0  0  0  0
   40.4252   26.7974   34.3724 H   0  0  0  0  0  0  0  0  0  0  0  0
   42.9524   23.4873   35.5041 H   0  0  0  0  0  0  0  0  0  0  0  0
   38.4949   23.7234   38.4875 H   0  0  0  0  0  0  0  0  0  0  0  0
   36.4215   22.1657   38.5433 H   0  0  0  0  0  0  0  0  0  0  0  0
   34.9894   20.6177   36.6644 H   0  0  0  0  0  0  0  0  0  0  0  0
   34.8986   19.9615   34.2826 H   0  0  0  0  0  0  0  0  0  0  0  0
   36.6236   20.8851   32.7255 H   0  0  0  0  0  0  0  0  0  0  0  0
   38.3860   22.4309   33.5929 H   0  0  0  0  0  0  0  0  0  0  0  0
  1  2  1  0
  1 12  1  0
  2  3  1  0
  3 11  1  0
  4  3  2  0
  4  5  1  0
  5  6  1  0
  6  7  2  0
  7  8  1  0
  9  8  2  0
 10  9  1  0
 11  6  1  0
 11 10  2  0
 12 14  1  0
 13 14  2  0
 13 18  1  0
 14 15  1  0
 15 16  2  0
 17 16  1  0
 17 19  1  0
 18 17  2  0
 19 20  2  0
 20 21  1  0
 22 21  1  0
 23 22  2  0
 24 23  1  0
 25 26  1  0
 25 24  2  0
 26 27  2  0
 27 19  1  0
 27 22  1  0
  1 28  1  0
  1 29  1  0
  2 30  1  0
  2 31  1  0
  4 32  1  0
  5 33  1  0
  7 34  1  0
  8 35  1  0
  9 36  1  0
 10 37  1  0
 13 38  1  0
 15 39  1  0
 20 40  1  0
 21 41  1  0
 23 42  1  0
 24 43  1  0
 25 44  1  0
 26 45  1  0
M  ISO  8  28   8  29   8  30   8  31   8  32  14  33   9  34  14  35  14
M  ISO  8  36  14  37  14  38  14  39  14  40  14  41   9  42  14  43  14
M  ISO  2  44  14  45  14
M  END
>  <minimizedAffinity>  (1) 
-6.12644339

>  <minimizedRMSD>  (1) 
3.77921557

$$$$
