
     RDKit          3D

 44 48  0  0  0  0  0  0  0  0999 V2000
   44.2340   26.5140   33.9750 C   0  0  0  0  0  0  0  0  0  0  0  0
   45.1860   27.3170   34.7860 C   0  0  0  0  0  0  0  0  0  0  0  0
   46.2110   26.4710   35.4580 C   0  0  0  0  0  0  0  0  0  0  0  0
   47.3820   25.9810   34.9240 C   0  0  0  0  0  0  0  0  0  0  0  0
   48.0840   25.2490   35.7980 N   0  0  0  0  0  0  0  0  0  0  0  0
   47.3680   25.2480   36.9390 C   0  0  0  0  0  0  0  0  0  0  0  0
   47.5540   24.6770   38.1960 C   0  0  0  0  0  0  0  0  0  0  0  0
   46.6880   24.8000   39.2400 C   0  0  0  0  0  0  0  0  0  0  0  0
   45.5450   25.5460   39.0310 C   0  0  0  0  0  0  0  0  0  0  0  0
   45.3320   26.1220   37.8040 C   0  0  0  0  0  0  0  0  0  0  0  0
   46.2160   25.9920   36.7520 C   0  0  0  0  0  0  0  0  0  0  0  0
   42.9090   26.9720   34.0970 O   0  0  0  0  0  0  0  0  0  0  0  0
   40.8940   26.0770   34.8880 C   0  0  0  0  0  0  0  0  0  0  0  0
   41.8990   26.0720   33.9120 C   0  0  0  0  0  0  0  0  0  0  0  0
   41.7780   25.1720   32.8700 C   0  0  0  0  0  0  0  0  0  0  0  0
   40.7150   24.3350   32.8160 N   0  0  0  0  0  0  0  0  0  0  0  0
   39.7520   24.3710   33.7920 C   0  0  0  0  0  0  0  0  0  0  0  0
   39.8520   25.2310   34.8030 N   0  0  0  0  0  0  0  0  0  0  0  0
   38.6770   23.4480   33.6390 N   0  0  0  0  0  0  0  0  0  0  0  0
   38.5540   22.4220   34.5310 C   0  0  0  0  0  0  0  0  0  0  0  0
   37.4770   21.6920   34.1880 N   0  0  0  0  0  0  0  0  0  0  0  0
   36.9430   22.2620   33.0970 C   0  0  0  0  0  0  0  0  0  0  0  0
   35.8360   21.9670   32.2950 C   0  0  0  0  0  0  0  0  0  0  0  0
   35.5630   22.7590   31.2430 N   0  0  0  0  0  0  0  0  0  0  0  0
   36.3340   23.8410   30.9360 C   0  0  0  0  0  0  0  0  0  0  0  0
   37.4270   24.1790   31.6830 N   0  0  0  0  0  0  0  0  0  0  0  0
   37.6930   23.3830   32.7310 C   0  0  0  0  0  0  0  0  0  0  0  0
   35.0490   20.8300   32.6390 N   0  0  0  0  0  0  0  0  0  0  0  0
   44.2787   25.4674   34.3107 H   0  0  0  0  0  0  0  0  0  0  0  0
   44.5272   26.6105   32.9192 H   0  0  0  0  0  0  0  0  0  0  0  0
   45.6965   28.0332   34.1254 H   0  0  0  0  0  0  0  0  0  0  0  0
   44.6096   27.8319   35.5687 H   0  0  0  0  0  0  0  0  0  0  0  0
   47.7059   26.1707   33.8900 H   0  0  0  0  0  0  0  0  0  0  0  0
   48.9869   24.7821   35.6319 H   0  0  0  0  0  0  0  0  0  0  0  0
   48.4663   24.0839   38.3570 H   0  0  0  0  0  0  0  0  0  0  0  0
   46.8910   24.3241   40.2107 H   0  0  0  0  0  0  0  0  0  0  0  0
   44.8120   25.6773   39.8406 H   0  0  0  0  0  0  0  0  0  0  0  0
   44.4169   26.7131   37.6521 H   0  0  0  0  0  0  0  0  0  0  0  0
   40.9578   26.7796   35.7320 H   0  0  0  0  0  0  0  0  0  0  0  0
   42.5463   25.1356   32.0836 H   0  0  0  0  0  0  0  0  0  0  0  0
   39.2207   22.2258   35.3836 H   0  0  0  0  0  0  0  0  0  0  0  0
   36.0692   24.4577   30.0644 H   0  0  0  0  0  0  0  0  0  0  0  0
   34.2262   20.5822   32.0710 H   0  0  0  0  0  0  0  0  0  0  0  0
   35.3029   20.2559   33.4556 H   0  0  0  0  0  0  0  0  0  0  0  0
  1 12  1  0
  1  2  1  0
  2  3  1  0
  3 11  1  0
  4  3  2  0
  4  5  1  0
  5  6  1  0
  6  7  2  0
  7  8  1  0
  9  8  2  0
 10  9  1  0
 11  6  1  0
 11 10  2  0
 14 12  1  0
 14 13  2  0
 15 14  1  0
 16 15  2  0
 16 17  1  0
 17 18  2  0
 18 13  1  0
 19 17  1  0
 19 20  1  0
 21 20  2  0
 22 21  1  0
 23 28  1  0
 23 22  2  0
 24 23  1  0
 25 24  2  0
 25 26  1  0
 26 27  2  0
 27 22  1  0
 27 19  1  0
  1 29  1  0
  1 30  1  0
  2 31  1  0
  2 32  1  0
  4 33  1  0
  5 34  1  0
  7 35  1  0
  8 36  1  0
  9 37  1  0
 10 38  1  0
 13 39  1  0
 15 40  1  0
 20 41  1  0
 25 42  1  0
 28 43  1  0
 28 44  1  0
M  ISO  8  29   8  30   8  31   8  32   8  33  14  34   9  35  14  36  14
M  ISO  6  37  14  38  14  39  14  40  14  41  14  42  14
M  END
>  <minimizedAffinity>  (1) 
-5.48676682

>  <minimizedRMSD>  (1) 
5.79791546

$$$$
