
     RDKit          3D

 42 46  0  0  0  0  0  0  0  0999 V2000
   44.1800   24.9040   33.6940 C   0  0  0  0  0  0  0  0  0  0  0  0
   45.2890   25.8600   33.9970 C   0  0  0  0  0  0  0  0  0  0  0  0
   46.1330   25.3740   35.1100 C   0  0  0  0  0  0  0  0  0  0  0  0
   47.3510   24.7260   35.0190 C   0  0  0  0  0  0  0  0  0  0  0  0
   47.8670   24.4140   36.2150 N   0  0  0  0  0  0  0  0  0  0  0  0
   46.9970   24.8510   37.1240 C   0  0  0  0  0  0  0  0  0  0  0  0
   46.9400   24.8380   38.5130 C   0  0  0  0  0  0  0  0  0  0  0  0
   45.9340   25.3540   39.2640 C   0  0  0  0  0  0  0  0  0  0  0  0
   44.8780   25.9390   38.5930 C   0  0  0  0  0  0  0  0  0  0  0  0
   44.8900   25.9750   37.2190 C   0  0  0  0  0  0  0  0  0  0  0  0
   45.9230   25.4450   36.4700 C   0  0  0  0  0  0  0  0  0  0  0  0
   42.9270   25.5540   33.7730 O   0  0  0  0  0  0  0  0  0  0  0  0
   40.8350   25.6260   34.8200 C   0  0  0  0  0  0  0  0  0  0  0  0
   41.8860   24.8400   34.3010 C   0  0  0  0  0  0  0  0  0  0  0  0
   41.7550   23.4790   34.3790 C   0  0  0  0  0  0  0  0  0  0  0  0
   40.6480   22.9540   34.9390 N   0  0  0  0  0  0  0  0  0  0  0  0
   39.6500   23.7250   35.4330 C   0  0  0  0  0  0  0  0  0  0  0  0
   39.7650   25.0570   35.3620 N   0  0  0  0  0  0  0  0  0  0  0  0
   38.5010   23.0990   36.0140 N   0  0  0  0  0  0  0  0  0  0  0  0
   38.1490   23.2680   37.3010 C   0  0  0  0  0  0  0  0  0  0  0  0
   37.0190   22.5240   37.4750 N   0  0  0  0  0  0  0  0  0  0  0  0
   36.7090   21.9320   36.3310 C   0  0  0  0  0  0  0  0  0  0  0  0
   35.6740   21.0790   35.9620 C   0  0  0  0  0  0  0  0  0  0  0  0
   35.5940   20.6110   34.6970 N   0  0  0  0  0  0  0  0  0  0  0  0
   36.5300   20.9750   33.7730 C   0  0  0  0  0  0  0  0  0  0  0  0
   37.5300   21.8010   34.1330 N   0  0  0  0  0  0  0  0  0  0  0  0
   37.6520   22.2850   35.3590 C   0  0  0  0  0  0  0  0  0  0  0  0
   44.2055   24.0787   34.4208 H   0  0  0  0  0  0  0  0  0  0  0  0
   44.3148   24.5166   32.6733 H   0  0  0  0  0  0  0  0  0  0  0  0
   45.9140   25.9788   33.0996 H   0  0  0  0  0  0  0  0  0  0  0  0
   44.8450   26.8215   34.2942 H   0  0  0  0  0  0  0  0  0  0  0  0
   47.8445   24.4913   34.0644 H   0  0  0  0  0  0  0  0  0  0  0  0
   48.7591   23.9320   36.3958 H   0  0  0  0  0  0  0  0  0  0  0  0
   47.7800   24.3707   39.0478 H   0  0  0  0  0  0  0  0  0  0  0  0
   45.9587   25.3081   40.3628 H   0  0  0  0  0  0  0  0  0  0  0  0
   44.0357   26.3718   39.1526 H   0  0  0  0  0  0  0  0  0  0  0  0
   44.0441   26.4441   36.6952 H   0  0  0  0  0  0  0  0  0  0  0  0
   40.9032   26.7230   34.7749 H   0  0  0  0  0  0  0  0  0  0  0  0
   42.5455   22.8214   33.9884 H   0  0  0  0  0  0  0  0  0  0  0  0
   38.6650   23.8791   38.0562 H   0  0  0  0  0  0  0  0  0  0  0  0
   34.9170   20.7841   36.7036 H   0  0  0  0  0  0  0  0  0  0  0  0
   36.4677   20.5964   32.7421 H   0  0  0  0  0  0  0  0  0  0  0  0
  1 12  1  0
  1  2  1  0
  2  3  1  0
  3 11  1  0
  4  3  2  0
  4  5  1  0
  5  6  1  0
  6  7  2  0
  7  8  1  0
  9  8  2  0
 10  9  1  0
 11  6  1  0
 11 10  2  0
 12 14  1  0
 13 18  2  0
 14 15  2  0
 14 13  1  0
 15 16  1  0
 16 17  2  0
 17 19  1  0
 18 17  1  0
 19 20  1  0
 20 21  2  0
 22 21  1  0
 23 22  2  0
 24 23  1  0
 25 26  1  0
 25 24  2  0
 26 27  2  0
 27 19  1  0
 27 22  1  0
  1 28  1  0
  1 29  1  0
  2 30  1  0
  2 31  1  0
  4 32  1  0
  5 33  1  0
  7 34  1  0
  8 35  1  0
  9 36  1  0
 10 37  1  0
 13 38  1  0
 15 39  1  0
 20 40  1  0
 23 41  1  0
 25 42  1  0
M  ISO  8  28   8  29   8  30   8  31   8  32  14  33   9  34  14  35  14
M  ISO  7  36  14  37  14  38  14  39  14  40  14  41  14  42  14
M  END
>  <minimizedAffinity>  (1) 
-5.52668571

>  <minimizedRMSD>  (1) 
3.84030128

$$$$
