
     RDKit          3D

 40 43  0  0  0  0  0  0  0  0999 V2000
   42.5570   22.6730   36.2800 C   0  0  0  0  0  0  0  0  0  0  0  0
   43.6110   23.1930   35.3690 C   0  0  0  0  0  0  0  0  0  0  0  0
   44.8880   23.4640   36.0800 C   0  0  0  0  0  0  0  0  0  0  0  0
   46.0930   22.8390   35.8720 C   0  0  0  0  0  0  0  0  0  0  0  0
   47.0600   23.3170   36.6840 N   0  0  0  0  0  0  0  0  0  0  0  0
   46.4880   24.2610   37.4280 C   0  0  0  0  0  0  0  0  0  0  0  0
   46.9470   25.1050   38.4290 C   0  0  0  0  0  0  0  0  0  0  0  0
   46.1920   26.0240   39.0870 C   0  0  0  0  0  0  0  0  0  0  0  0
   44.8580   26.1210   38.7230 C   0  0  0  0  0  0  0  0  0  0  0  0
   44.3780   25.2970   37.7350 C   0  0  0  0  0  0  0  0  0  0  0  0
   45.1510   24.3800   37.0860 C   0  0  0  0  0  0  0  0  0  0  0  0
   41.4220   23.5080   36.2670 O   0  0  0  0  0  0  0  0  0  0  0  0
   39.4270   22.3250   36.0220 C   0  0  0  0  0  0  0  0  0  0  0  0
   40.3890   23.1610   35.4480 C   0  0  0  0  0  0  0  0  0  0  0  0
   40.2010   23.5390   34.1480 C   0  0  0  0  0  0  0  0  0  0  0  0
   39.1060   23.0980   33.4710 N   0  0  0  0  0  0  0  0  0  0  0  0
   38.1960   22.2910   34.0590 C   0  0  0  0  0  0  0  0  0  0  0  0
   38.3690   21.9160   35.3240 N   0  0  0  0  0  0  0  0  0  0  0  0
   37.0350   21.8410   33.2950 C   0  0  0  0  0  0  0  0  0  0  0  0
   36.7120   22.4770   32.1120 C   0  0  0  0  0  0  0  0  0  0  0  0
   35.6080   22.0610   31.3720 C   0  0  0  0  0  0  0  0  0  0  0  0
   34.8770   21.0000   31.8840 C   0  0  0  0  0  0  0  0  0  0  0  0
   35.2060   20.3690   33.0670 C   0  0  0  0  0  0  0  0  0  0  0  0
   36.2910   20.8100   33.7540 N   0  0  0  0  0  0  0  0  0  0  0  0
   42.2651   21.6639   35.9536 H   0  0  0  0  0  0  0  0  0  0  0  0
   42.9602   22.6453   37.3031 H   0  0  0  0  0  0  0  0  0  0  0  0
   43.2545   24.1285   34.9132 H   0  0  0  0  0  0  0  0  0  0  0  0
   43.8067   22.4239   34.6073 H   0  0  0  0  0  0  0  0  0  0  0  0
   46.2518   22.0421   35.1305 H   0  0  0  0  0  0  0  0  0  0  0  0
   48.0432   23.0123   36.7204 H   0  0  0  0  0  0  0  0  0  0  0  0
   48.0067   25.0239   38.7128 H   0  0  0  0  0  0  0  0  0  0  0  0
   46.6206   26.6625   39.8735 H   0  0  0  0  0  0  0  0  0  0  0  0
   44.1949   26.8461   39.2175 H   0  0  0  0  0  0  0  0  0  0  0  0
   43.3180   25.3807   37.4532 H   0  0  0  0  0  0  0  0  0  0  0  0
   39.5456   21.9999   37.0662 H   0  0  0  0  0  0  0  0  0  0  0  0
   40.9306   24.1959   33.6519 H   0  0  0  0  0  0  0  0  0  0  0  0
   37.3286   23.3144   31.7535 H   0  0  0  0  0  0  0  0  0  0  0  0
   35.3295   22.5505   30.4271 H   0  0  0  0  0  0  0  0  0  0  0  0
   33.9985   20.6463   31.3244 H   0  0  0  0  0  0  0  0  0  0  0  0
   34.6037   19.5293   33.4439 H   0  0  0  0  0  0  0  0  0  0  0  0
  2  3  1  0
  2  1  1  0
  3 11  1  0
  4  3  2  0
  4  5  1  0
  5  6  1  0
  6  7  2  0
  7  8  1  0
  9  8  2  0
 10  9  1  0
 11  6  1  0
 11 10  2  0
 12  1  1  0
 14 13  2  0
 14 12  1  0
 15 14  1  0
 16 17  1  0
 16 15  2  0
 17 18  2  0
 18 13  1  0
 19 24  1  0
 19 17  1  0
 20 19  2  0
 21 22  2  0
 21 20  1  0
 22 23  1  0
 23 24  2  0
  1 25  1  0
  1 26  1  0
  2 27  1  0
  2 28  1  0
  4 29  1  0
  5 30  1  0
  7 31  1  0
  8 32  1  0
  9 33  1  0
 10 34  1  0
 13 35  1  0
 15 36  1  0
 20 37  1  0
 21 38  1  0
 22 39  1  0
 23 40  1  0
M  ISO  8  25   8  26   8  27   8  28   8  29  14  30   9  31  14  32  14
M  ISO  8  33  14  34  14  35  14  36  14  37  14  38  14  39  14  40  14
M  END
>  <minimizedAffinity>  (1) 
-5.40124941

>  <minimizedRMSD>  (1) 
4.44757271

$$$$
