
     RDKit          3D

 36 39  0  0  0  0  0  0  0  0999 V2000
   45.1220   20.7290   35.7550 C   0  0  0  0  0  0  0  0  0  0  0  0
   45.5990   22.0210   35.1740 C   0  0  0  0  0  0  0  0  0  0  0  0
   46.3310   22.8390   36.1660 C   0  0  0  0  0  0  0  0  0  0  0  0
   47.6500   22.7350   36.5330 C   0  0  0  0  0  0  0  0  0  0  0  0
   48.0060   23.6270   37.4610 N   0  0  0  0  0  0  0  0  0  0  0  0
   46.9090   24.3510   37.7310 C   0  0  0  0  0  0  0  0  0  0  0  0
   46.6360   25.4010   38.5820 C   0  0  0  0  0  0  0  0  0  0  0  0
   45.4220   26.0030   38.7020 C   0  0  0  0  0  0  0  0  0  0  0  0
   44.3950   25.5240   37.9140 C   0  0  0  0  0  0  0  0  0  0  0  0
   44.6370   24.4770   37.0520 C   0  0  0  0  0  0  0  0  0  0  0  0
   45.8640   23.8830   36.9450 C   0  0  0  0  0  0  0  0  0  0  0  0
   43.8520   20.3780   35.2490 O   0  0  0  0  0  0  0  0  0  0  0  0
   41.9160   21.6590   34.9060 C   0  0  0  0  0  0  0  0  0  0  0  0
   42.7540   20.9930   35.8010 C   0  0  0  0  0  0  0  0  0  0  0  0
   42.4190   21.0070   37.1270 C   0  0  0  0  0  0  0  0  0  0  0  0
   41.2940   21.6590   37.5370 N   0  0  0  0  0  0  0  0  0  0  0  0
   40.5050   22.2950   36.6410 C   0  0  0  0  0  0  0  0  0  0  0  0
   40.8170   22.2920   35.3420 N   0  0  0  0  0  0  0  0  0  0  0  0
   39.3390   22.9480   37.2260 C   0  0  0  0  0  0  0  0  0  0  0  0
   38.2780   23.3140   36.4690 N   0  0  0  0  0  0  0  0  0  0  0  0
   37.3910   23.8660   37.2350 O   0  0  0  0  0  0  0  0  0  0  0  0
   37.7970   23.8990   38.4910 C   0  0  0  0  0  0  0  0  0  0  0  0
   39.0310   23.3170   38.4860 N   0  0  0  0  0  0  0  0  0  0  0  0
   45.8405   19.9353   35.5022 H   0  0  0  0  0  0  0  0  0  0  0  0
   45.0411   20.8472   36.8456 H   0  0  0  0  0  0  0  0  0  0  0  0
   46.2689   21.8043   34.3289 H   0  0  0  0  0  0  0  0  0  0  0  0
   44.7175   22.5922   34.8472 H   0  0  0  0  0  0  0  0  0  0  0  0
   48.3419   21.9937   36.1068 H   0  0  0  0  0  0  0  0  0  0  0  0
   48.9380   23.7373   37.8854 H   0  0  0  0  0  0  0  0  0  0  0  0
   47.4579   25.7785   39.2081 H   0  0  0  0  0  0  0  0  0  0  0  0
   45.2650   26.8388   39.3997 H   0  0  0  0  0  0  0  0  0  0  0  0
   43.3930   25.9739   37.9737 H   0  0  0  0  0  0  0  0  0  0  0  0
   43.8123   24.1049   36.4264 H   0  0  0  0  0  0  0  0  0  0  0  0
   42.1589   21.6649   33.8332 H   0  0  0  0  0  0  0  0  0  0  0  0
   43.0563   20.4930   37.8616 H   0  0  0  0  0  0  0  0  0  0  0  0
   37.2558   24.3084   39.3567 H   0  0  0  0  0  0  0  0  0  0  0  0
  2  1  1  0
  2  3  1  0
  3  4  2  0
  3 11  1  0
  4  5  1  0
  5  6  1  0
  6  7  2  0
  7  8  1  0
  9  8  2  0
 10  9  1  0
 11 10  2  0
 11  6  1  0
 12  1  1  0
 12 14  1  0
 13 18  2  0
 13 14  1  0
 14 15  2  0
 15 16  1  0
 17 19  1  0
 17 16  2  0
 18 17  1  0
 19 23  1  0
 20 19  2  0
 20 21  1  0
 21 22  1  0
 23 22  2  0
  1 24  1  0
  1 25  1  0
  2 26  1  0
  2 27  1  0
  4 28  1  0
  5 29  1  0
  7 30  1  0
  8 31  1  0
  9 32  1  0
 10 33  1  0
 13 34  1  0
 15 35  1  0
 22 36  1  0
M  ISO  8  24   8  25   8  26   8  27   8  28  14  29   9  30  14  31  14
M  ISO  5  32  14  33  14  34  14  35  14  36  14
M  END
>  <minimizedAffinity>  (1) 
-5.19104671

>  <minimizedRMSD>  (1) 
2.99975991

$$$$
