
     RDKit          3D

 38 41  0  0  0  0  0  0  0  0999 V2000
   45.0130   23.9400   34.2270 C   0  0  0  0  0  0  0  0  0  0  0  0
   45.9260   23.9710   35.4030 C   0  0  0  0  0  0  0  0  0  0  0  0
   47.1640   23.3840   35.5210 C   0  0  0  0  0  0  0  0  0  0  0  0
   47.7230   23.6040   36.7130 N   0  0  0  0  0  0  0  0  0  0  0  0
   46.8490   24.3540   37.4170 C   0  0  0  0  0  0  0  0  0  0  0  0
   46.8590   24.8920   38.6910 C   0  0  0  0  0  0  0  0  0  0  0  0
   45.8480   25.6330   39.2090 C   0  0  0  0  0  0  0  0  0  0  0  0
   44.7430   25.8610   38.4090 C   0  0  0  0  0  0  0  0  0  0  0  0
   44.7160   25.3360   37.1410 C   0  0  0  0  0  0  0  0  0  0  0  0
   45.7360   24.5920   36.6280 C   0  0  0  0  0  0  0  0  0  0  0  0
   44.7870   22.5550   33.7410 C   0  0  0  0  0  0  0  0  0  0  0  0
   44.2450   21.7370   34.7630 O   0  0  0  0  0  0  0  0  0  0  0  0
   42.8750   22.1610   36.5940 C   0  0  0  0  0  0  0  0  0  0  0  0
   42.9920   22.0180   35.2110 C   0  0  0  0  0  0  0  0  0  0  0  0
   41.8580   22.1720   34.4640 C   0  0  0  0  0  0  0  0  0  0  0  0
   40.6780   22.4520   35.0700 N   0  0  0  0  0  0  0  0  0  0  0  0
   40.5920   22.5860   36.4120 C   0  0  0  0  0  0  0  0  0  0  0  0
   41.6900   22.4390   37.1510 N   0  0  0  0  0  0  0  0  0  0  0  0
   39.3740   22.8810   37.0890 N   0  0  0  0  0  0  0  0  0  0  0  0
   39.0090   23.2500   38.3300 C   0  0  0  0  0  0  0  0  0  0  0  0
   37.6240   23.3770   38.3330 C   0  0  0  0  0  0  0  0  0  0  0  0
   37.1650   23.0810   37.0820 N   0  0  0  0  0  0  0  0  0  0  0  0
   38.2370   22.7870   36.3560 C   0  0  0  0  0  0  0  0  0  0  0  0
   44.0462   24.3785   34.5151 H   0  0  0  0  0  0  0  0  0  0  0  0
   45.4816   24.5153   33.4149 H   0  0  0  0  0  0  0  0  0  0  0  0
   47.6409   22.7980   34.7215 H   0  0  0  0  0  0  0  0  0  0  0  0
   48.6422   23.2671   37.0332 H   0  0  0  0  0  0  0  0  0  0  0  0
   47.7405   24.7077   39.3226 H   0  0  0  0  0  0  0  0  0  0  0  0
   45.9049   26.0386   40.2299 H   0  0  0  0  0  0  0  0  0  0  0  0
   43.8968   26.4554   38.7840 H   0  0  0  0  0  0  0  0  0  0  0  0
   43.8333   25.5239   36.5121 H   0  0  0  0  0  0  0  0  0  0  0  0
   44.0867   22.5817   32.8932 H   0  0  0  0  0  0  0  0  0  0  0  0
   45.7539   22.1317   33.4312 H   0  0  0  0  0  0  0  0  0  0  0  0
   43.7637   22.0443   37.2317 H   0  0  0  0  0  0  0  0  0  0  0  0
   41.9027   22.0687   33.3698 H   0  0  0  0  0  0  0  0  0  0  0  0
   39.6812   23.4198   39.1840 H   0  0  0  0  0  0  0  0  0  0  0  0
   37.0050   23.6662   39.1951 H   0  0  0  0  0  0  0  0  0  0  0  0
   38.2067   22.5030   35.2937 H   0  0  0  0  0  0  0  0  0  0  0  0
  1  2  1  0
  2  3  2  0
  2 10  1  0
  3  4  1  0
  4  5  1  0
  5  6  2  0
  6  7  1  0
  8  7  2  0
  9  8  1  0
 10  9  2  0
 10  5  1  0
 11  1  1  0
 11 12  1  0
 12 14  1  0
 13 18  2  0
 14 13  1  0
 15 16  1  0
 15 14  2  0
 16 17  2  0
 17 19  1  0
 17 18  1  0
 19 20  1  0
 20 21  2  0
 22 21  1  0
 23 22  2  0
 23 19  1  0
  1 24  1  0
  1 25  1  0
  3 26  1  0
  4 27  1  0
  6 28  1  0
  7 29  1  0
  8 30  1  0
  9 31  1  0
 11 32  1  0
 11 33  1  0
 13 34  1  0
 15 35  1  0
 20 36  1  0
 21 37  1  0
 23 38  1  0
M  ISO  8  24   8  25   8  26  14  27   9  28  14  29  14  30  14  31  14
M  ISO  7  32   8  33   8  34  14  35  14  36  14  37  14  38  14
M  END
>  <minimizedAffinity>  (1) 
-5.16216516

>  <minimizedRMSD>  (1) 
3.08443642

$$$$
