
     RDKit          3D

 40 42  0  0  0  0  0  0  0  0999 V2000
   44.2930   22.4060   35.3240 C   0  0  0  0  0  0  0  0  0  0  0  0
   45.4460   22.9770   36.0660 C   0  0  0  0  0  0  0  0  0  0  0  0
   46.7500   22.5580   35.9980 C   0  0  0  0  0  0  0  0  0  0  0  0
   47.5560   23.2840   36.7940 N   0  0  0  0  0  0  0  0  0  0  0  0
   46.7830   24.1970   37.4000 C   0  0  0  0  0  0  0  0  0  0  0  0
   47.0180   25.2080   38.3130 C   0  0  0  0  0  0  0  0  0  0  0  0
   46.0510   26.0410   38.8080 C   0  0  0  0  0  0  0  0  0  0  0  0
   44.7490   25.8540   38.3600 C   0  0  0  0  0  0  0  0  0  0  0  0
   44.4970   24.8590   37.4570 C   0  0  0  0  0  0  0  0  0  0  0  0
   45.4730   24.0250   36.9640 C   0  0  0  0  0  0  0  0  0  0  0  0
   43.6350   21.2930   36.0560 C   0  0  0  0  0  0  0  0  0  0  0  0
   42.3530   21.0180   35.5240 O   0  0  0  0  0  0  0  0  0  0  0  0
   40.5860   22.4330   34.9670 C   0  0  0  0  0  0  0  0  0  0  0  0
   41.3140   21.7910   35.9800 C   0  0  0  0  0  0  0  0  0  0  0  0
   40.9330   21.9880   37.2840 C   0  0  0  0  0  0  0  0  0  0  0  0
   39.8790   22.7860   37.5520 N   0  0  0  0  0  0  0  0  0  0  0  0
   39.1790   23.4060   36.5590 C   0  0  0  0  0  0  0  0  0  0  0  0
   39.5430   23.2210   35.2730 N   0  0  0  0  0  0  0  0  0  0  0  0
   38.0500   24.2460   37.0370 C   0  0  0  0  0  0  0  0  0  0  0  0
   38.0910   25.6550   36.5180 C   0  0  0  0  0  0  0  0  0  0  0  0
   38.0070   24.2500   38.5680 C   0  0  0  0  0  0  0  0  0  0  0  0
   44.6506   22.0273   34.3552 H   0  0  0  0  0  0  0  0  0  0  0  0
   43.5493   23.2067   35.1981 H   0  0  0  0  0  0  0  0  0  0  0  0
   47.0963   21.7262   35.3669 H   0  0  0  0  0  0  0  0  0  0  0  0
   48.5716   23.1620   36.9147 H   0  0  0  0  0  0  0  0  0  0  0  0
   48.0501   25.3527   38.6650 H   0  0  0  0  0  0  0  0  0  0  0  0
   46.2959   26.8300   39.5343 H   0  0  0  0  0  0  0  0  0  0  0  0
   43.9343   26.4961   38.7260 H   0  0  0  0  0  0  0  0  0  0  0  0
   43.4634   24.7187   37.1078 H   0  0  0  0  0  0  0  0  0  0  0  0
   44.2589   20.3908   35.9733 H   0  0  0  0  0  0  0  0  0  0  0  0
   43.5190   21.5891   37.1090 H   0  0  0  0  0  0  0  0  0  0  0  0
   40.8718   22.2897   33.9145 H   0  0  0  0  0  0  0  0  0  0  0  0
   41.4820   21.4997   38.1026 H   0  0  0  0  0  0  0  0  0  0  0  0
   37.1323   23.7920   36.6350 H   0  0  0  0  0  0  0  0  0  0  0  0
   38.1114   26.3571   37.3645 H   0  0  0  0  0  0  0  0  0  0  0  0
   38.9936   25.7937   35.9047 H   0  0  0  0  0  0  0  0  0  0  0  0
   37.1980   25.8460   35.9047 H   0  0  0  0  0  0  0  0  0  0  0  0
   39.0289   24.1549   38.9638 H   0  0  0  0  0  0  0  0  0  0  0  0
   37.5638   25.1933   38.9199 H   0  0  0  0  0  0  0  0  0  0  0  0
   37.3974   23.4047   38.9199 H   0  0  0  0  0  0  0  0  0  0  0  0
  1 11  1  0
  1  2  1  0
  2 10  1  0
  3  2  2  0
  3  4  1  0
  4  5  1  0
  5  6  2  0
  6  7  1  0
  8  7  2  0
  9  8  1  0
 10  5  1  0
 10  9  2  0
 12 14  1  0
 12 11  1  0
 13 18  2  0
 13 14  1  0
 14 15  2  0
 15 16  1  0
 17 19  1  0
 17 16  2  0
 18 17  1  0
 19 21  1  0
 20 19  1  0
  1 22  1  0
  1 23  1  0
  3 24  1  0
  4 25  1  0
  6 26  1  0
  7 27  1  0
  8 28  1  0
  9 29  1  0
 11 30  1  0
 11 31  1  0
 13 32  1  0
 15 33  1  0
 19 34  1  0
 20 35  1  0
 20 36  1  0
 20 37  1  0
 21 38  1  0
 21 39  1  0
 21 40  1  0
M  ISO  8  22   8  23   8  24  14  25   9  26  14  27  14  28  14  29  14
M  ISO  8  30   8  31   8  32  14  33  14  34   8  35   8  36   8  37   8
M  ISO  3  38   8  39   8  40   8
M  END
>  <minimizedAffinity>  (1) 
-5.15949821

>  <minimizedRMSD>  (1) 
1.82784116

$$$$
