
     RDKit          3D

 38 41  0  0  0  0  0  0  0  0999 V2000
   42.6240   24.8740   34.7010 C   0  0  0  0  0  0  0  0  0  0  0  0
   43.7080   25.8800   34.8300 C   0  0  0  0  0  0  0  0  0  0  0  0
   44.9480   25.2920   35.4040 C   0  0  0  0  0  0  0  0  0  0  0  0
   45.9320   24.6130   34.7300 C   0  0  0  0  0  0  0  0  0  0  0  0
   46.9270   24.2060   35.5360 N   0  0  0  0  0  0  0  0  0  0  0  0
   46.6040   24.6190   36.7700 C   0  0  0  0  0  0  0  0  0  0  0  0
   47.1910   24.5240   38.0180 C   0  0  0  0  0  0  0  0  0  0  0  0
   46.6830   25.0260   39.1770 C   0  0  0  0  0  0  0  0  0  0  0  0
   45.4760   25.6880   39.0960 C   0  0  0  0  0  0  0  0  0  0  0  0
   44.8520   25.8080   37.8740 C   0  0  0  0  0  0  0  0  0  0  0  0
   45.3810   25.2940   36.7070 C   0  0  0  0  0  0  0  0  0  0  0  0
   41.3690   25.4420   35.0550 O   0  0  0  0  0  0  0  0  0  0  0  0
   40.3560   23.4990   35.8340 C   0  0  0  0  0  0  0  0  0  0  0  0
   40.2760   24.6170   35.0020 C   0  0  0  0  0  0  0  0  0  0  0  0
   39.1460   24.7650   34.2400 C   0  0  0  0  0  0  0  0  0  0  0  0
   38.1560   23.8430   34.3150 N   0  0  0  0  0  0  0  0  0  0  0  0
   38.2610   22.7710   35.1310 C   0  0  0  0  0  0  0  0  0  0  0  0
   39.3580   22.6100   35.8810 N   0  0  0  0  0  0  0  0  0  0  0  0
   37.1290   21.8490   35.1220 C   0  0  0  0  0  0  0  0  0  0  0  0
   36.6610   21.3380   33.9050 C   0  0  0  0  0  0  0  0  0  0  0  0
   35.5980   20.5020   34.1690 C   0  0  0  0  0  0  0  0  0  0  0  0
   35.4390   20.5180   35.5250 N   0  0  0  0  0  0  0  0  0  0  0  0
   36.3490   21.3190   36.0940 N   0  0  0  0  0  0  0  0  0  0  0  0
   42.5803   24.5211   33.6601 H   0  0  0  0  0  0  0  0  0  0  0  0
   42.8370   24.0343   35.3789 H   0  0  0  0  0  0  0  0  0  0  0  0
   43.9359   26.2864   33.8336 H   0  0  0  0  0  0  0  0  0  0  0  0
   43.3593   26.6699   35.5115 H   0  0  0  0  0  0  0  0  0  0  0  0
   45.9086   24.4225   33.6469 H   0  0  0  0  0  0  0  0  0  0  0  0
   47.7696   23.6815   35.2608 H   0  0  0  0  0  0  0  0  0  0  0  0
   48.1540   23.9959   38.0801 H   0  0  0  0  0  0  0  0  0  0  0  0
   47.2114   24.9089   40.1347 H   0  0  0  0  0  0  0  0  0  0  0  0
   45.0159   26.1162   39.9988 H   0  0  0  0  0  0  0  0  0  0  0  0
   43.8889   26.3372   37.8257 H   0  0  0  0  0  0  0  0  0  0  0  0
   41.2494   23.3476   36.4576 H   0  0  0  0  0  0  0  0  0  0  0  0
   39.0433   25.6306   33.5690 H   0  0  0  0  0  0  0  0  0  0  0  0
   37.0713   21.5649   32.9099 H   0  0  0  0  0  0  0  0  0  0  0  0
   35.0005   19.9378   33.4378 H   0  0  0  0  0  0  0  0  0  0  0  0
   34.7200   19.9883   36.0383 H   0  0  0  0  0  0  0  0  0  0  0  0
  1  2  1  0
  1 12  1  0
  2  3  1  0
  3 11  1  0
  4  3  2  0
  4  5  1  0
  5  6  1  0
  6  7  2  0
  7  8  1  0
  9  8  2  0
 10  9  1  0
 11  6  1  0
 11 10  2  0
 13 18  2  0
 14 12  1  0
 14 13  1  0
 15 16  1  0
 15 14  2  0
 16 17  2  0
 17 18  1  0
 19 17  1  0
 19 23  2  0
 20 21  2  0
 20 19  1  0
 21 22  1  0
 22 23  1  0
  1 24  1  0
  1 25  1  0
  2 26  1  0
  2 27  1  0
  4 28  1  0
  5 29  1  0
  7 30  1  0
  8 31  1  0
  9 32  1  0
 10 33  1  0
 13 34  1  0
 15 35  1  0
 20 36  1  0
 21 37  1  0
 22 38  1  0
M  ISO  8  24   8  25   8  26   8  27   8  28  14  29   9  30  14  31  14
M  ISO  7  32  14  33  14  34  14  35  14  36  14  37  14  38   9
M  END
>  <minimizedAffinity>  (1) 
-5.32441568

>  <minimizedRMSD>  (1) 
3.6070292

$$$$
