
     RDKit          3D

 20 20  0  0  0  0  0  0  0  0999 V2000
   40.4700   22.2990   36.9130 C   0  0  0  0  0  0  0  0  0  0  0  0
   39.9620   23.1210   37.9150 C   0  0  0  0  0  0  0  0  0  0  0  0
   38.6030   23.4570   37.8420 C   0  0  0  0  0  0  0  0  0  0  0  0
   37.8770   22.9540   36.7940 N   0  0  0  0  0  0  0  0  0  0  0  0
   38.4060   22.1690   35.8570 C   0  0  0  0  0  0  0  0  0  0  0  0
   39.7140   21.8400   35.9190 N   0  0  0  0  0  0  0  0  0  0  0  0
   37.6330   21.6550   34.7750 N   0  0  0  0  0  0  0  0  0  0  0  0
   36.3300   21.1290   35.0490 C   0  0  0  0  0  0  0  0  0  0  0  0
   35.9500   20.9680   36.2770 N   0  0  0  0  0  0  0  0  0  0  0  0
   35.4730   20.7890   33.9290 N   0  0  0  0  0  0  0  0  0  0  0  0
   34.9860   20.6010   36.4430 H   0  0  0  0  0  0  0  0  0  0  0  0
   37.9130   24.3250   38.8340 C   0  0  0  0  0  0  0  0  0  0  0  0
   41.5334   22.0192   36.9441 H   0  0  0  0  0  0  0  0  0  0  0  0
   40.6006   23.4916   38.7304 H   0  0  0  0  0  0  0  0  0  0  0  0
   38.0049   21.6619   33.8145 H   0  0  0  0  0  0  0  0  0  0  0  0
   34.5308   20.4088   34.0983 H   0  0  0  0  0  0  0  0  0  0  0  0
   35.8067   20.9278   32.9645 H   0  0  0  0  0  0  0  0  0  0  0  0
   38.1732   23.9976   39.8514 H   0  0  0  0  0  0  0  0  0  0  0  0
   38.2309   25.3685   38.6920 H   0  0  0  0  0  0  0  0  0  0  0  0
   36.8247   24.2507   38.6920 H   0  0  0  0  0  0  0  0  0  0  0  0
  1  2  2  0
  3  2  1  0
  3 12  1  0
  4  3  2  0
  5  6  2  0
  5  4  1  0
  6  1  1  0
  7  8  1  0
  7  5  1  0
  8  9  2  0
  9 11  1  0
 10  8  1  0
  1 13  1  0
  2 14  1  0
  7 15  1  0
 10 16  1  0
 10 17  1  0
 12 18  1  0
 12 19  1  0
 12 20  1  0
M  ISO  5  13  14  14  14  18   8  19   8  20   8
M  END
>  <minimizedAffinity>  (1) 
-3.7980628

>  <minimizedRMSD>  (1) 
0.74035871

$$$$
