
     RDKit          3D

 34 36  0  0  0  0  0  0  0  0999 V2000
   43.6380   23.1570   35.1350 C   0  0  0  0  0  0  0  0  0  0  0  0
   44.8900   23.3930   35.9010 C   0  0  0  0  0  0  0  0  0  0  0  0
   46.0980   22.7480   35.7240 C   0  0  0  0  0  0  0  0  0  0  0  0
   47.0380   23.1950   36.5830 N   0  0  0  0  0  0  0  0  0  0  0  0
   46.4620   24.1330   37.3280 C   0  0  0  0  0  0  0  0  0  0  0  0
   46.8910   24.9460   38.3600 C   0  0  0  0  0  0  0  0  0  0  0  0
   46.1060   25.8680   39.0050 C   0  0  0  0  0  0  0  0  0  0  0  0
   44.7970   25.9870   38.5880 C   0  0  0  0  0  0  0  0  0  0  0  0
   44.3380   25.2000   37.5720 C   0  0  0  0  0  0  0  0  0  0  0  0
   45.1250   24.2810   36.9320 C   0  0  0  0  0  0  0  0  0  0  0  0
   43.0090   21.8540   35.4760 C   0  0  0  0  0  0  0  0  0  0  0  0
   41.6410   21.8510   35.1320 O   0  0  0  0  0  0  0  0  0  0  0  0
   39.7900   23.2430   35.4730 C   0  0  0  0  0  0  0  0  0  0  0  0
   40.7680   22.3900   36.0370 C   0  0  0  0  0  0  0  0  0  0  0  0
   40.7490   22.1920   37.3960 C   0  0  0  0  0  0  0  0  0  0  0  0
   39.8020   22.8170   38.1320 N   0  0  0  0  0  0  0  0  0  0  0  0
   38.8700   23.6290   37.5850 C   0  0  0  0  0  0  0  0  0  0  0  0
   38.8830   23.8290   36.2490 N   0  0  0  0  0  0  0  0  0  0  0  0
   37.8520   24.2910   38.4350 C   0  0  0  0  0  0  0  0  0  0  0  0
   43.8729   23.1667   34.0604 H   0  0  0  0  0  0  0  0  0  0  0  0
   42.9266   23.9543   35.3962 H   0  0  0  0  0  0  0  0  0  0  0  0
   46.2732   21.9638   34.9728 H   0  0  0  0  0  0  0  0  0  0  0  0
   48.0137   22.8716   36.6486 H   0  0  0  0  0  0  0  0  0  0  0  0
   47.9364   24.8468   38.6876 H   0  0  0  0  0  0  0  0  0  0  0  0
   46.5048   26.4874   39.8219 H   0  0  0  0  0  0  0  0  0  0  0  0
   44.1264   26.7124   39.0717 H   0  0  0  0  0  0  0  0  0  0  0  0
   43.2907   25.3088   37.2537 H   0  0  0  0  0  0  0  0  0  0  0  0
   43.5209   21.0515   34.9246 H   0  0  0  0  0  0  0  0  0  0  0  0
   43.0994   21.6928   36.5604 H   0  0  0  0  0  0  0  0  0  0  0  0
   39.7800   23.4222   34.3877 H   0  0  0  0  0  0  0  0  0  0  0  0
   41.4904   21.5371   37.8770 H   0  0  0  0  0  0  0  0  0  0  0  0
   38.0988   24.1305   39.4949 H   0  0  0  0  0  0  0  0  0  0  0  0
   37.8405   25.3698   38.2205 H   0  0  0  0  0  0  0  0  0  0  0  0
   36.8613   23.8639   38.2205 H   0  0  0  0  0  0  0  0  0  0  0  0
  1 11  1  0
  1  2  1  0
  2 10  1  0
  3  2  2  0
  3  4  1  0
  4  5  1  0
  5  6  2  0
  6  7  1  0
  8  7  2  0
  9  8  1  0
 10  5  1  0
 10  9  2  0
 12 11  1  0
 12 14  1  0
 13 14  2  0
 13 18  1  0
 14 15  1  0
 15 16  2  0
 17 16  1  0
 17 19  1  0
 18 17  2  0
  1 20  1  0
  1 21  1  0
  3 22  1  0
  4 23  1  0
  6 24  1  0
  7 25  1  0
  8 26  1  0
  9 27  1  0
 11 28  1  0
 11 29  1  0
 13 30  1  0
 15 31  1  0
 19 32  1  0
 19 33  1  0
 19 34  1  0
M  ISO  8  20   8  21   8  22  14  23   9  24  14  25  14  26  14  27  14
M  ISO  7  28   8  29   8  30  14  31  14  32   8  33   8  34   8
M  END
>  <minimizedAffinity>  (1) 
-4.98540926

>  <minimizedRMSD>  (1) 
0.933858216

$$$$
