
     RDKit          3D

 33 35  0  0  0  0  0  0  0  0999 V2000
   43.9600   23.0650   35.0020 C   0  0  0  0  0  0  0  0  0  0  0  0
   45.1340   23.3460   35.8620 C   0  0  0  0  0  0  0  0  0  0  0  0
   46.3670   22.7510   35.7890 C   0  0  0  0  0  0  0  0  0  0  0  0
   47.2200   23.2280   36.7130 N   0  0  0  0  0  0  0  0  0  0  0  0
   46.5400   24.1500   37.4070 C   0  0  0  0  0  0  0  0  0  0  0  0
   46.8830   24.9720   38.4720 C   0  0  0  0  0  0  0  0  0  0  0  0
   46.0010   25.8660   39.0390 C   0  0  0  0  0  0  0  0  0  0  0  0
   44.7270   25.9460   38.5280 C   0  0  0  0  0  0  0  0  0  0  0  0
   44.3840   25.1380   37.4800 C   0  0  0  0  0  0  0  0  0  0  0  0
   45.2530   24.2460   36.9070 C   0  0  0  0  0  0  0  0  0  0  0  0
   43.2820   21.7930   35.3780 C   0  0  0  0  0  0  0  0  0  0  0  0
   41.9300   21.7770   34.9770 O   0  0  0  0  0  0  0  0  0  0  0  0
   39.8040   22.7100   35.3350 C   0  0  0  0  0  0  0  0  0  0  0  0
   41.0020   22.2200   35.8720 C   0  0  0  0  0  0  0  0  0  0  0  0
   41.1100   22.2390   37.2390 C   0  0  0  0  0  0  0  0  0  0  0  0
   40.0950   22.7120   38.0060 N   0  0  0  0  0  0  0  0  0  0  0  0
   38.9530   23.1780   37.4450 C   0  0  0  0  0  0  0  0  0  0  0  0
   38.8220   23.1700   36.1050 N   0  0  0  0  0  0  0  0  0  0  0  0
   37.8910   23.6750   38.2900 C   0  0  0  0  0  0  0  0  0  0  0  0
   37.9830   24.7560   38.8990 O   0  0  0  0  0  0  0  0  0  0  0  0
   44.2951   22.9929   33.9568 H   0  0  0  0  0  0  0  0  0  0  0  0
   43.2390   23.8852   35.1341 H   0  0  0  0  0  0  0  0  0  0  0  0
   46.6289   21.9720   35.0578 H   0  0  0  0  0  0  0  0  0  0  0  0
   48.1988   22.9420   36.8578 H   0  0  0  0  0  0  0  0  0  0  0  0
   47.9022   24.9068   38.8805 H   0  0  0  0  0  0  0  0  0  0  0  0
   46.3094   26.5018   39.8820 H   0  0  0  0  0  0  0  0  0  0  0  0
   43.9961   26.6483   38.9553 H   0  0  0  0  0  0  0  0  0  0  0  0
   43.3626   25.2069   37.0776 H   0  0  0  0  0  0  0  0  0  0  0  0
   43.8058   20.9550   34.8949 H   0  0  0  0  0  0  0  0  0  0  0  0
   43.3127   21.7024   36.4738 H   0  0  0  0  0  0  0  0  0  0  0  0
   39.6717   22.7143   34.2430 H   0  0  0  0  0  0  0  0  0  0  0  0
   42.0277   21.8675   37.7183 H   0  0  0  0  0  0  0  0  0  0  0  0
   36.9728   23.0790   38.3980 H   0  0  0  0  0  0  0  0  0  0  0  0
  1 11  1  0
  1  2  1  0
  2 10  1  0
  3  2  2  0
  3  4  1  0
  4  5  1  0
  5  6  2  0
  6  7  1  0
  8  7  2  0
  9  8  1  0
 10  5  1  0
 10  9  2  0
 12 11  1  0
 12 14  1  0
 13 14  2  0
 13 18  1  0
 14 15  1  0
 15 16  2  0
 17 16  1  0
 17 19  1  0
 18 17  2  0
 19 20  2  0
  1 21  1  0
  1 22  1  0
  3 23  1  0
  4 24  1  0
  6 25  1  0
  7 26  1  0
  8 27  1  0
  9 28  1  0
 11 29  1  0
 11 30  1  0
 13 31  1  0
 15 32  1  0
 19 33  1  0
M  ISO  8  21   8  22   8  23  14  24   9  25  14  26  14  27  14  28  14
M  ISO  5  29   8  30   8  31  14  32  14  33   6
M  END
>  <minimizedAffinity>  (1) 
-5.04231834

>  <minimizedRMSD>  (1) 
1.2791872

$$$$
