
     RDKit          3D

 23 23  0  0  0  0  0  0  0  0999 V2000
   41.7040   23.9770   35.1640 C   0  0  0  0  0  0  0  0  0  0  0  0
   41.3810   25.3080   34.9190 C   0  0  0  0  0  0  0  0  0  0  0  0
   40.0170   25.6380   35.0030 C   0  0  0  0  0  0  0  0  0  0  0  0
   39.1050   24.6590   35.3120 N   0  0  0  0  0  0  0  0  0  0  0  0
   39.4780   23.3890   35.5390 C   0  0  0  0  0  0  0  0  0  0  0  0
   40.7940   23.0460   35.4630 N   0  0  0  0  0  0  0  0  0  0  0  0
   38.5190   22.3960   35.8570 N   0  0  0  0  0  0  0  0  0  0  0  0
   37.5130   22.6800   36.8300 C   0  0  0  0  0  0  0  0  0  0  0  0
   37.6000   23.7820   37.5370 N   0  0  0  0  0  0  0  0  0  0  0  0
   36.4320   21.7540   37.0130 N   0  0  0  0  0  0  0  0  0  0  0  0
   36.8340   23.9740   38.2240 H   0  0  0  0  0  0  0  0  0  0  0  0
   39.6450   27.0370   34.7490 C   0  0  0  0  0  0  0  0  0  0  0  0
   38.4970   27.4330   35.6580 C   0  0  0  0  0  0  0  0  0  0  0  0
   42.7608   23.6766   35.1087 H   0  0  0  0  0  0  0  0  0  0  0  0
   42.1477   26.0578   34.6740 H   0  0  0  0  0  0  0  0  0  0  0  0
   38.5470   21.4779   35.3909 H   0  0  0  0  0  0  0  0  0  0  0  0
   35.7005   21.9479   37.7117 H   0  0  0  0  0  0  0  0  0  0  0  0
   36.3877   20.8955   36.4456 H   0  0  0  0  0  0  0  0  0  0  0  0
   40.5098   27.6873   34.9474 H   0  0  0  0  0  0  0  0  0  0  0  0
   39.3338   27.1468   33.6997 H   0  0  0  0  0  0  0  0  0  0  0  0
   38.8070   27.3261   36.7080 H   0  0  0  0  0  0  0  0  0  0  0  0
   38.2186   28.4791   35.4626 H   0  0  0  0  0  0  0  0  0  0  0  0
   37.6329   26.7810   35.4626 H   0  0  0  0  0  0  0  0  0  0  0  0
  1  6  2  0
  2  3  2  0
  2  1  1  0
  3  4  1  0
  4  5  2  0
  5  7  1  0
  6  5  1  0
  7  8  1  0
  8 10  1  0
  8  9  2  0
  9 11  1  0
 12  3  1  0
 12 13  1  0
  1 14  1  0
  2 15  1  0
  7 16  1  0
 10 17  1  0
 10 18  1  0
 12 19  1  0
 12 20  1  0
 13 21  1  0
 13 22  1  0
 13 23  1  0
M  ISO  7  14  14  15  14  19   8  20   8  21   8  22   8  23   8
M  END
>  <minimizedAffinity>  (1) 
-3.77032661

>  <minimizedRMSD>  (1) 
3.77309132

$$$$
