
     RDKit          3D

 16 16  0  0  0  0  0  0  0  0999 V2000
   39.7250   22.7710   37.4430 C   0  0  0  0  0  0  0  0  0  0  0  0
   39.0980   23.2920   38.5860 C   0  0  0  0  0  0  0  0  0  0  0  0
   37.9210   24.0370   38.3910 C   0  0  0  0  0  0  0  0  0  0  0  0
   37.4650   24.2080   37.1220 N   0  0  0  0  0  0  0  0  0  0  0  0
   38.1060   23.6850   36.0510 C   0  0  0  0  0  0  0  0  0  0  0  0
   39.2310   22.9700   36.2110 N   0  0  0  0  0  0  0  0  0  0  0  0
   40.9660   21.9700   37.4930 C   0  0  0  0  0  0  0  0  0  0  0  0
   42.0270   22.7170   36.7080 C   0  0  0  0  0  0  0  0  0  0  0  0
   39.5100   23.1246   39.5921 H   0  0  0  0  0  0  0  0  0  0  0  0
   37.3819   24.4713   39.2459 H   0  0  0  0  0  0  0  0  0  0  0  0
   37.7019   23.8471   35.0409 H   0  0  0  0  0  0  0  0  0  0  0  0
   41.2900   21.8455   38.5368 H   0  0  0  0  0  0  0  0  0  0  0  0
   40.7986   20.9717   37.0624 H   0  0  0  0  0  0  0  0  0  0  0  0
   42.7225   23.2066   37.4056 H   0  0  0  0  0  0  0  0  0  0  0  0
   42.5811   22.0087   36.0745 H   0  0  0  0  0  0  0  0  0  0  0  0
   41.5470   23.4775   36.0745 H   0  0  0  0  0  0  0  0  0  0  0  0
  1  7  1  0
  1  2  2  0
  3  2  1  0
  4  3  2  0
  5  6  2  0
  5  4  1  0
  6  1  1  0
  8  7  1  0
  2  9  1  0
  3 10  1  0
  5 11  1  0
  7 12  1  0
  7 13  1  0
  8 14  1  0
  8 15  1  0
  8 16  1  0
M  ISO  8   9  14  10  14  11  14  12   8  13   8  14   8  15   8  16   8
M  END
>  <minimizedAffinity>  (1) 
-3.10492349

>  <minimizedRMSD>  (1) 
0.997107923

$$$$
