
     RDKit          3D

 25 26  0  0  0  0  0  0  0  0999 V2000
   39.7880   22.9110   36.8230 C   0  0  0  0  0  0  0  0  0  0  0  0
   40.5090   23.7980   36.0070 C   0  0  0  0  0  0  0  0  0  0  0  0
   41.8560   23.5090   35.8240 C   0  0  0  0  0  0  0  0  0  0  0  0
   42.3810   22.4110   36.4310 N   0  0  0  0  0  0  0  0  0  0  0  0
   41.6650   21.5830   37.2060 C   0  0  0  0  0  0  0  0  0  0  0  0
   40.3570   21.8410   37.4000 N   0  0  0  0  0  0  0  0  0  0  0  0
   42.2610   20.4510   37.8180 N   0  0  0  0  0  0  0  0  0  0  0  0
   43.1320   19.6180   37.0610 C   0  0  0  0  0  0  0  0  0  0  0  0
   43.2440   19.8130   35.7700 N   0  0  0  0  0  0  0  0  0  0  0  0
   43.8770   18.5730   37.7230 N   0  0  0  0  0  0  0  0  0  0  0  0
   43.8580   19.1710   35.2240 H   0  0  0  0  0  0  0  0  0  0  0  0
   42.7610   24.3120   35.0120 C   0  0  0  0  0  0  0  0  0  0  0  0
   43.8210   23.7700   34.3200 C   0  0  0  0  0  0  0  0  0  0  0  0
   44.6860   24.5120   33.5470 C   0  0  0  0  0  0  0  0  0  0  0  0
   44.4960   25.8430   33.4580 N   0  0  0  0  0  0  0  0  0  0  0  0
   43.4640   26.3850   34.1300 C   0  0  0  0  0  0  0  0  0  0  0  0
   42.6260   25.6490   34.8810 N   0  0  0  0  0  0  0  0  0  0  0  0
   38.7182   23.1000   36.9955 H   0  0  0  0  0  0  0  0  0  0  0  0
   40.0340   24.6727   35.5388 H   0  0  0  0  0  0  0  0  0  0  0  0
   42.0645   20.2328   38.8053 H   0  0  0  0  0  0  0  0  0  0  0  0
   44.5087   17.9675   37.1797 H   0  0  0  0  0  0  0  0  0  0  0  0
   43.7767   18.4332   38.7385 H   0  0  0  0  0  0  0  0  0  0  0  0
   43.9859   22.6846   34.3885 H   0  0  0  0  0  0  0  0  0  0  0  0
   45.5162   24.0274   33.0124 H   0  0  0  0  0  0  0  0  0  0  0  0
   43.2998   27.4706   34.0625 H   0  0  0  0  0  0  0  0  0  0  0  0
  1  6  2  0
  2  1  1  0
  3  2  2  0
  3  4  1  0
  4  5  2  0
  5  6  1  0
  5  7  1  0
  8 10  1  0
  8  7  1  0
  9  8  2  0
 11  9  1  0
 12  3  1  0
 13 12  2  0
 14 13  1  0
 15 14  2  0
 15 16  1  0
 16 17  2  0
 17 12  1  0
  1 18  1  0
  2 19  1  0
  7 20  1  0
 10 21  1  0
 10 22  1  0
 13 23  1  0
 14 24  1  0
 16 25  1  0
M  ISO  5  18  14  19  14  23  14  24  14  25  14
M  END
>  <minimizedAffinity>  (1) 
-3.67259836

>  <minimizedRMSD>  (1) 
7.48795414

$$$$
