
     RDKit          3D

 26 27  0  0  0  0  0  0  0  0999 V2000
   43.1190   23.2160   36.2480 C   0  0  0  0  0  0  0  0  0  0  0  0
   41.6590   23.2610   36.3910 C   0  0  0  0  0  0  0  0  0  0  0  0
   40.9680   22.5900   37.3990 C   0  0  0  0  0  0  0  0  0  0  0  0
   39.5580   22.7190   37.4200 C   0  0  0  0  0  0  0  0  0  0  0  0
   38.9610   23.4790   36.4690 N   0  0  0  0  0  0  0  0  0  0  0  0
   39.6860   24.1140   35.5050 C   0  0  0  0  0  0  0  0  0  0  0  0
   41.0260   23.9970   35.4760 N   0  0  0  0  0  0  0  0  0  0  0  0
   43.6120   24.6520   36.0990 C   0  0  0  0  0  0  0  0  0  0  0  0
   44.7530   24.8030   37.0670 C   0  0  0  0  0  0  0  0  0  0  0  0
   44.6830   25.5480   38.2100 C   0  0  0  0  0  0  0  0  0  0  0  0
   45.7770   25.6370   39.0490 C   0  0  0  0  0  0  0  0  0  0  0  0
   46.9710   24.9780   38.7630 C   0  0  0  0  0  0  0  0  0  0  0  0
   47.0660   24.2190   37.6150 C   0  0  0  0  0  0  0  0  0  0  0  0
   45.9470   24.1620   36.8090 C   0  0  0  0  0  0  0  0  0  0  0  0
   43.5693   22.7554   37.1397 H   0  0  0  0  0  0  0  0  0  0  0  0
   43.4031   22.6168   35.3703 H   0  0  0  0  0  0  0  0  0  0  0  0
   41.4975   21.9839   38.1488 H   0  0  0  0  0  0  0  0  0  0  0  0
   38.9594   22.2131   38.1919 H   0  0  0  0  0  0  0  0  0  0  0  0
   39.1732   24.7248   34.7474 H   0  0  0  0  0  0  0  0  0  0  0  0
   43.9575   24.8324   35.0703 H   0  0  0  0  0  0  0  0  0  0  0  0
   42.8102   25.3760   36.3063 H   0  0  0  0  0  0  0  0  0  0  0  0
   43.7531   26.0784   38.4630 H   0  0  0  0  0  0  0  0  0  0  0  0
   45.7038   26.2424   39.9645 H   0  0  0  0  0  0  0  0  0  0  0  0
   47.8293   25.0622   39.4459 H   0  0  0  0  0  0  0  0  0  0  0  0
   47.9909   23.6839   37.3540 H   0  0  0  0  0  0  0  0  0  0  0  0
   46.0122   23.5595   35.8910 H   0  0  0  0  0  0  0  0  0  0  0  0
  1  2  1  0
  2  3  2  0
  3  4  1  0
  5  4  2  0
  6  5  1  0
  7  6  2  0
  7  2  1  0
  8  1  1  0
  8  9  1  0
  9 10  2  0
 10 11  1  0
 12 11  2  0
 13 12  1  0
 14  9  1  0
 14 13  2  0
  1 15  1  0
  1 16  1  0
  3 17  1  0
  4 18  1  0
  6 19  1  0
  8 20  1  0
  8 21  1  0
 10 22  1  0
 11 23  1  0
 12 24  1  0
 13 25  1  0
 14 26  1  0
M  ISO  8  15   8  16   8  17  14  18  14  19  14  20   8  21   8  22  14
M  ISO  4  23  14  24  14  25  14  26  14
M  END
>  <minimizedAffinity>  (1) 
-4.49663115

>  <minimizedRMSD>  (1) 
3.47162557

$$$$
