
     RDKit          3D

 27 28  0  0  0  0  0  0  0  0999 V2000
   39.3450   24.4020   34.9750 C   0  0  0  0  0  0  0  0  0  0  0  0
   40.0180   23.4220   35.7990 N   0  0  0  0  0  0  0  0  0  0  0  0
   41.0780   22.7660   35.2710 C   0  0  0  0  0  0  0  0  0  0  0  0
   41.8110   21.8090   35.9450 C   0  0  0  0  0  0  0  0  0  0  0  0
   41.3840   21.5430   37.2450 C   0  0  0  0  0  0  0  0  0  0  0  0
   42.1230   20.5610   37.9600 N   0  0  0  0  0  0  0  0  0  0  0  0
   40.3190   22.1910   37.8010 N   0  0  0  0  0  0  0  0  0  0  0  0
   39.6640   23.1080   37.0720 C   0  0  0  0  0  0  0  0  0  0  0  0
   38.6720   23.7600   37.4880 O   0  0  0  0  0  0  0  0  0  0  0  0
   38.4210   23.7970   33.9510 C   0  0  0  0  0  0  0  0  0  0  0  0
   37.6590   24.9080   33.3240 C   0  0  0  0  0  0  0  0  0  0  0  0
   37.6780   26.2300   33.8100 C   0  0  0  0  0  0  0  0  0  0  0  0
   36.9090   27.1710   33.1150 C   0  0  0  0  0  0  0  0  0  0  0  0
   36.2020   26.7720   32.0340 N   0  0  0  0  0  0  0  0  0  0  0  0
   36.2160   25.4850   31.6040 C   0  0  0  0  0  0  0  0  0  0  0  0
   36.9460   24.5460   32.2480 N   0  0  0  0  0  0  0  0  0  0  0  0
   38.7551   25.0605   35.6296 H   0  0  0  0  0  0  0  0  0  0  0  0
   40.1238   24.9489   34.4233 H   0  0  0  0  0  0  0  0  0  0  0  0
   41.3741   23.0106   34.2402 H   0  0  0  0  0  0  0  0  0  0  0  0
   42.6695   21.2941   35.4891 H   0  0  0  0  0  0  0  0  0  0  0  0
   41.8580   20.3188   38.9254 H   0  0  0  0  0  0  0  0  0  0  0  0
   42.9234   20.0918   37.5126 H   0  0  0  0  0  0  0  0  0  0  0  0
   39.0053   23.2641   33.1864 H   0  0  0  0  0  0  0  0  0  0  0  0
   37.7369   23.0772   34.4242 H   0  0  0  0  0  0  0  0  0  0  0  0
   38.2694   26.5099   34.6943 H   0  0  0  0  0  0  0  0  0  0  0  0
   36.8804   28.2203   33.4439 H   0  0  0  0  0  0  0  0  0  0  0  0
   35.6259   25.2017   30.7200 H   0  0  0  0  0  0  0  0  0  0  0  0
  1  2  1  0
  2  8  1  0
  3  2  1  0
  3  4  2  0
  4  5  1  0
  5  7  2  0
  5  6  1  0
  8  9  2  0
  8  7  1  0
 10  1  1  0
 11 12  2  0
 11 10  1  0
 13 12  1  0
 14 13  2  0
 15 14  1  0
 15 16  2  0
 16 11  1  0
  1 17  1  0
  1 18  1  0
  3 19  1  0
  4 20  1  0
  6 21  1  0
  6 22  1  0
 10 23  1  0
 10 24  1  0
 12 25  1  0
 13 26  1  0
 15 27  1  0
M  ISO  8  17   8  18   8  19  14  20  14  23   8  24   8  25  14  26  14
M  ISO  1  27  14
M  END
>  <minimizedAffinity>  (1) 
-4.02068758

>  <minimizedRMSD>  (1) 
4.95520592

$$$$
