
     RDKit          3D

 24 25  0  0  0  0  0  0  0  0999 V2000
   40.8110   21.9580   37.5490 C   0  0  0  0  0  0  0  0  0  0  0  0
   39.6980   22.9240   37.4750 C   0  0  0  0  0  0  0  0  0  0  0  0
   38.9010   23.2990   38.5550 C   0  0  0  0  0  0  0  0  0  0  0  0
   37.8880   24.2290   38.3020 C   0  0  0  0  0  0  0  0  0  0  0  0
   37.7230   24.7190   37.0530 N   0  0  0  0  0  0  0  0  0  0  0  0
   38.5260   24.3230   36.0250 C   0  0  0  0  0  0  0  0  0  0  0  0
   39.5010   23.4310   36.2540 N   0  0  0  0  0  0  0  0  0  0  0  0
   41.9560   22.4940   36.7150 C   0  0  0  0  0  0  0  0  0  0  0  0
   43.0520   21.4970   36.5660 C   0  0  0  0  0  0  0  0  0  0  0  0
   42.8250   20.2380   37.1060 C   0  0  0  0  0  0  0  0  0  0  0  0
   43.8190   19.2780   36.9900 C   0  0  0  0  0  0  0  0  0  0  0  0
   44.9610   19.6120   36.3600 N   0  0  0  0  0  0  0  0  0  0  0  0
   45.1940   20.8190   35.8340 C   0  0  0  0  0  0  0  0  0  0  0  0
   44.2300   21.7620   35.9420 N   0  0  0  0  0  0  0  0  0  0  0  0
   41.1339   21.8407   38.5940 H   0  0  0  0  0  0  0  0  0  0  0  0
   40.4898   20.9769   37.1692 H   0  0  0  0  0  0  0  0  0  0  0  0
   39.0615   22.8825   39.5604 H   0  0  0  0  0  0  0  0  0  0  0  0
   37.2275   24.5608   39.1166 H   0  0  0  0  0  0  0  0  0  0  0  0
   38.3754   24.7321   35.0151 H   0  0  0  0  0  0  0  0  0  0  0  0
   41.5759   22.7558   35.7165 H   0  0  0  0  0  0  0  0  0  0  0  0
   42.3665   23.3760   37.2284 H   0  0  0  0  0  0  0  0  0  0  0  0
   41.8774   20.0072   37.6147 H   0  0  0  0  0  0  0  0  0  0  0  0
   43.6778   18.2682   37.4027 H   0  0  0  0  0  0  0  0  0  0  0  0
   46.1448   21.0395   35.3267 H   0  0  0  0  0  0  0  0  0  0  0  0
  2  1  1  0
  2  3  2  0
  4  3  1  0
  5  4  2  0
  6  7  2  0
  6  5  1  0
  7  2  1  0
  8  1  1  0
  9  8  1  0
  9 10  2  0
 11 10  1  0
 12 11  2  0
 13 14  2  0
 13 12  1  0
 14  9  1  0
  1 15  1  0
  1 16  1  0
  3 17  1  0
  4 18  1  0
  6 19  1  0
  8 20  1  0
  8 21  1  0
 10 22  1  0
 11 23  1  0
 13 24  1  0
M  ISO  8  15   8  16   8  17  14  18  14  19  14  20   8  21   8  22  14
M  ISO  2  23  14  24  14
M  END
>  <minimizedAffinity>  (1) 
-3.77694845

>  <minimizedRMSD>  (1) 
0.78819406

$$$$
