
     RDKit          3D

 30 31  0  0  0  0  0  0  0  0999 V2000
   41.3050   22.1600   37.2500 C   0  0  0  0  0  0  0  0  0  0  0  0
   39.8990   22.5750   37.2870 C   0  0  0  0  0  0  0  0  0  0  0  0
   39.2920   23.2240   38.3610 C   0  0  0  0  0  0  0  0  0  0  0  0
   37.9190   23.5540   38.2380 C   0  0  0  0  0  0  0  0  0  0  0  0
   37.2910   23.2190   37.0910 N   0  0  0  0  0  0  0  0  0  0  0  0
   37.9170   22.5850   36.0610 C   0  0  0  0  0  0  0  0  0  0  0  0
   39.2070   22.2710   36.1670 N   0  0  0  0  0  0  0  0  0  0  0  0
   42.0550   23.0970   36.3370 C   0  0  0  0  0  0  0  0  0  0  0  0
   43.4610   23.1620   36.5850 N   0  0  0  0  0  0  0  0  0  0  0  0
   43.9780   24.4580   36.8630 C   0  0  0  0  0  0  0  0  0  0  0  0
   44.8680   24.9270   35.7530 C   0  0  0  0  0  0  0  0  0  0  0  0
   45.9930   24.0450   35.6470 N   0  0  0  0  0  0  0  0  0  0  0  0
   45.7230   22.6620   35.8660 C   0  0  0  0  0  0  0  0  0  0  0  0
   44.2620   22.3110   35.7740 C   0  0  0  0  0  0  0  0  0  0  0  0
   41.7327   22.2065   38.2624 H   0  0  0  0  0  0  0  0  0  0  0  0
   41.3842   21.1275   36.8790 H   0  0  0  0  0  0  0  0  0  0  0  0
   39.8581   23.4711   39.2712 H   0  0  0  0  0  0  0  0  0  0  0  0
   37.3829   24.0662   39.0505 H   0  0  0  0  0  0  0  0  0  0  0  0
   37.3601   22.3336   35.1463 H   0  0  0  0  0  0  0  0  0  0  0  0
   41.6366   24.1067   36.4610 H   0  0  0  0  0  0  0  0  0  0  0  0
   41.9336   22.7054   35.3162 H   0  0  0  0  0  0  0  0  0  0  0  0
   43.1413   25.1630   36.9763 H   0  0  0  0  0  0  0  0  0  0  0  0
   44.5677   24.4101   37.7903 H   0  0  0  0  0  0  0  0  0  0  0  0
   44.3080   24.9245   34.8062 H   0  0  0  0  0  0  0  0  0  0  0  0
   45.2174   25.9482   35.9655 H   0  0  0  0  0  0  0  0  0  0  0  0
   46.3834   24.1441   34.6990 H   0  0  0  0  0  0  0  0  0  0  0  0
   46.2693   22.0773   35.1112 H   0  0  0  0  0  0  0  0  0  0  0  0
   46.0468   22.4286   36.8910 H   0  0  0  0  0  0  0  0  0  0  0  0
   43.9378   22.4085   34.7274 H   0  0  0  0  0  0  0  0  0  0  0  0
   44.1356   21.2790   36.1332 H   0  0  0  0  0  0  0  0  0  0  0  0
  1  2  1  0
  2  3  2  0
  4  3  1  0
  5  4  2  0
  6  7  2  0
  6  5  1  0
  7  2  1  0
  8  9  1  0
  8  1  1  0
  9 10  1  0
 11 10  1  0
 12 11  1  0
 12 13  1  0
 14 13  1  0
 14  9  1  0
  1 15  1  0
  1 16  1  0
  3 17  1  0
  4 18  1  0
  6 19  1  0
  8 20  1  0
  8 21  1  0
 10 22  1  0
 10 23  1  0
 11 24  1  0
 11 25  1  0
 12 26  1  0
 13 27  1  0
 13 28  1  0
 14 29  1  0
 14 30  1  0
M  ISO  8  15   8  16   8  17  14  18  14  19  14  20   8  21   8  22  13
M  ISO  8  23  13  24  13  25  13  26   5  27  13  28  13  29  13  30  13
M  END
>  <minimizedAffinity>  (1) 
-3.6120019

>  <minimizedRMSD>  (1) 
1.39215851

$$$$
