
     RDKit          3D

 23 24  0  0  0  0  0  0  0  0999 V2000
   39.8540   22.5690   37.2590 C   0  0  0  0  0  0  0  0  0  0  0  0
   39.2810   23.2370   38.3610 C   0  0  0  0  0  0  0  0  0  0  0  0
   37.9230   23.5680   38.2680 C   0  0  0  0  0  0  0  0  0  0  0  0
   37.2510   23.2300   37.1410 N   0  0  0  0  0  0  0  0  0  0  0  0
   37.8520   22.5840   36.1010 C   0  0  0  0  0  0  0  0  0  0  0  0
   39.1430   22.2540   36.1560 N   0  0  0  0  0  0  0  0  0  0  0  0
   41.2780   22.1550   37.2080 C   0  0  0  0  0  0  0  0  0  0  0  0
   41.9880   23.1460   36.3030 C   0  0  0  0  0  0  0  0  0  0  0  0
   43.4790   23.1320   36.5140 C   0  0  0  0  0  0  0  0  0  0  0  0
   44.1200   24.3940   36.9360 C   0  0  0  0  0  0  0  0  0  0  0  0
   44.2710   23.9090   35.4930 C   0  0  0  0  0  0  0  0  0  0  0  0
   39.8737   23.4868   39.2533 H   0  0  0  0  0  0  0  0  0  0  0  0
   37.4137   24.0905   39.0912 H   0  0  0  0  0  0  0  0  0  0  0  0
   37.2646   22.3320   35.2057 H   0  0  0  0  0  0  0  0  0  0  0  0
   41.7167   22.1807   38.2164 H   0  0  0  0  0  0  0  0  0  0  0  0
   41.3782   21.1282   36.8263 H   0  0  0  0  0  0  0  0  0  0  0  0
   41.6084   24.1564   36.5152 H   0  0  0  0  0  0  0  0  0  0  0  0
   41.7889   22.8581   35.2602 H   0  0  0  0  0  0  0  0  0  0  0  0
   43.5019   22.1058   36.9095 H   0  0  0  0  0  0  0  0  0  0  0  0
   43.5024   25.2769   37.1572 H   0  0  0  0  0  0  0  0  0  0  0  0
   44.8181   24.6811   37.7362 H   0  0  0  0  0  0  0  0  0  0  0  0
   45.2384   23.5280   35.1339 H   0  0  0  0  0  0  0  0  0  0  0  0
   44.0740   24.3288   34.4955 H   0  0  0  0  0  0  0  0  0  0  0  0
  1  2  2  0
  3  2  1  0
  4  3  2  0
  5  6  2  0
  5  4  1  0
  6  1  1  0
  7  1  1  0
  8  9  1  0
  8  7  1  0
  9 10  1  0
 11  9  1  0
 11 10  1  0
  2 12  1  0
  3 13  1  0
  5 14  1  0
  7 15  1  0
  7 16  1  0
  8 17  1  0
  8 18  1  0
  9 19  1  0
 10 20  1  0
 10 21  1  0
 11 22  1  0
 11 23  1  0
M  ISO  8  12  14  13  14  14  14  15   8  16   8  17   8  18   8  19  13
M  ISO  4  20  13  21  13  22  13  23  13
M  END
>  <minimizedAffinity>  (1) 
-3.57191443

>  <minimizedRMSD>  (1) 
0.952019095

$$$$
