
     RDKit          3D

 23 24  0  0  0  0  0  0  0  0999 V2000
   41.2740   22.0920   36.1420 C   0  0  0  0  0  0  0  0  0  0  0  0
   42.1680   23.2610   35.9910 C   0  0  0  0  0  0  0  0  0  0  0  0
   41.8680   24.3520   35.1490 C   0  0  0  0  0  0  0  0  0  0  0  0
   42.8130   25.3850   35.1120 C   0  0  0  0  0  0  0  0  0  0  0  0
   43.9350   25.2960   35.8570 N   0  0  0  0  0  0  0  0  0  0  0  0
   44.1680   24.2150   36.6510 C   0  0  0  0  0  0  0  0  0  0  0  0
   43.3000   23.2040   36.7230 N   0  0  0  0  0  0  0  0  0  0  0  0
   40.6430   22.1920   37.5200 C   0  0  0  0  0  0  0  0  0  0  0  0
   39.4330   22.9510   37.5420 N   0  0  0  0  0  0  0  0  0  0  0  0
   39.0100   23.5210   38.7020 C   0  0  0  0  0  0  0  0  0  0  0  0
   37.8270   24.1970   38.4670 C   0  0  0  0  0  0  0  0  0  0  0  0
   37.5500   24.0250   37.1580 N   0  0  0  0  0  0  0  0  0  0  0  0
   38.5240   23.2710   36.6020 C   0  0  0  0  0  0  0  0  0  0  0  0
   41.8527   21.1603   36.0580 H   0  0  0  0  0  0  0  0  0  0  0  0
   40.5037   22.0823   35.3568 H   0  0  0  0  0  0  0  0  0  0  0  0
   40.9433   24.3895   34.5545 H   0  0  0  0  0  0  0  0  0  0  0  0
   42.6412   26.2668   34.4773 H   0  0  0  0  0  0  0  0  0  0  0  0
   45.0921   24.1740   37.2463 H   0  0  0  0  0  0  0  0  0  0  0  0
   40.4218   21.1749   37.8757 H   0  0  0  0  0  0  0  0  0  0  0  0
   41.3630   22.7146   38.1670 H   0  0  0  0  0  0  0  0  0  0  0  0
   39.5260   23.4549   39.6712 H   0  0  0  0  0  0  0  0  0  0  0  0
   37.2316   24.7614   39.1998 H   0  0  0  0  0  0  0  0  0  0  0  0
   38.5673   22.9662   35.5459 H   0  0  0  0  0  0  0  0  0  0  0  0
  1  8  1  0
  2  1  1  0
  2  7  1  0
  3  2  2  0
  4  3  1  0
  4  5  2  0
  5  6  1  0
  6  7  2  0
  8  9  1  0
  9 10  1  0
 11 10  2  0
 12 11  1  0
 13 12  2  0
 13  9  1  0
  1 14  1  0
  1 15  1  0
  3 16  1  0
  4 17  1  0
  6 18  1  0
  8 19  1  0
  8 20  1  0
 10 21  1  0
 11 22  1  0
 13 23  1  0
M  ISO  8  14   8  15   8  16  14  17  14  18  14  19   8  20   8  21  14
M  ISO  2  22  14  23  14
M  END
>  <minimizedAffinity>  (1) 
-3.49286294

>  <minimizedRMSD>  (1) 
5.40943432

$$$$
