
     RDKit          3D

 28 30  0  0  0  0  0  0  0  0999 V2000
   42.8010   21.3780   34.8650 C   0  0  0  0  0  0  0  0  0  0  0  0
   42.5150   22.7170   35.1140 C   0  0  0  0  0  0  0  0  0  0  0  0
   41.4830   23.2950   34.3710 C   0  0  0  0  0  0  0  0  0  0  0  0
   40.8320   22.5150   33.4620 N   0  0  0  0  0  0  0  0  0  0  0  0
   41.1440   21.2220   33.2560 C   0  0  0  0  0  0  0  0  0  0  0  0
   42.1390   20.6550   33.9690 N   0  0  0  0  0  0  0  0  0  0  0  0
   40.4390   20.4370   32.2940 N   0  0  0  0  0  0  0  0  0  0  0  0
   39.0260   20.5020   32.2250 C   0  0  0  0  0  0  0  0  0  0  0  0
   38.3790   21.1490   33.1530 N   0  0  0  0  0  0  0  0  0  0  0  0
   38.3170   19.8640   31.1490 N   0  0  0  0  0  0  0  0  0  0  0  0
   37.3330   21.1760   33.1060 H   0  0  0  0  0  0  0  0  0  0  0  0
   41.1180   24.6450   34.5490 N   0  0  0  0  0  0  0  0  0  0  0  0
   41.9110   25.6940   34.2810 C   0  0  0  0  0  0  0  0  0  0  0  0
   41.2540   26.8440   34.5640 N   0  0  0  0  0  0  0  0  0  0  0  0
   40.0380   26.4740   35.0110 C   0  0  0  0  0  0  0  0  0  0  0  0
   39.0100   27.3070   35.4240 C   0  0  0  0  0  0  0  0  0  0  0  0
   37.8650   26.6900   35.8380 N   0  0  0  0  0  0  0  0  0  0  0  0
   37.7880   25.3270   35.8250 C   0  0  0  0  0  0  0  0  0  0  0  0
   38.8010   24.5110   35.4200 N   0  0  0  0  0  0  0  0  0  0  0  0
   39.9500   25.0850   35.0030 C   0  0  0  0  0  0  0  0  0  0  0  0
   43.6102   20.8978   35.4348 H   0  0  0  0  0  0  0  0  0  0  0  0
   43.0768   23.2947   35.8628 H   0  0  0  0  0  0  0  0  0  0  0  0
   40.9582   19.8233   31.6501 H   0  0  0  0  0  0  0  0  0  0  0  0
   37.2892   19.9165   31.1069 H   0  0  0  0  0  0  0  0  0  0  0  0
   38.8369   19.3545   30.4203 H   0  0  0  0  0  0  0  0  0  0  0  0
   42.9376   25.6296   33.8911 H   0  0  0  0  0  0  0  0  0  0  0  0
   39.1111   28.4023   35.4184 H   0  0  0  0  0  0  0  0  0  0  0  0
   36.8512   24.8593   36.1620 H   0  0  0  0  0  0  0  0  0  0  0  0
  1  2  2  0
  3 12  1  0
  3  2  1  0
  4  3  2  0
  5  4  1  0
  5  6  2  0
  6  1  1  0
  7  5  1  0
  8  7  1  0
  8  9  2  0
 10  8  1  0
 11  9  1  0
 12 20  1  0
 13 12  1  0
 13 14  2  0
 14 15  1  0
 15 16  2  0
 16 17  1  0
 18 17  2  0
 19 18  1  0
 20 15  1  0
 20 19  2  0
  1 21  1  0
  2 22  1  0
  7 23  1  0
 10 24  1  0
 10 25  1  0
 13 26  1  0
 16 27  1  0
 18 28  1  0
M  ISO  5  21  14  22  14  26  14  27  14  28  14
M  END
>  <minimizedAffinity>  (1) 
-3.55830216

>  <minimizedRMSD>  (1) 
5.93833017

$$$$
