
     RDKit          3D

 32 34  0  0  0  0  0  0  0  0999 V2000
   42.1000   22.7700   36.9870 C   0  0  0  0  0  0  0  0  0  0  0  0
   41.0200   21.7830   37.4310 C   0  0  0  0  0  0  0  0  0  0  0  0
   39.7450   22.5120   37.3940 C   0  0  0  0  0  0  0  0  0  0  0  0
   39.2670   23.3310   38.4480 C   0  0  0  0  0  0  0  0  0  0  0  0
   38.0370   23.9640   38.2760 C   0  0  0  0  0  0  0  0  0  0  0  0
   37.3570   23.7750   37.1230 N   0  0  0  0  0  0  0  0  0  0  0  0
   37.8460   22.9880   36.1420 C   0  0  0  0  0  0  0  0  0  0  0  0
   39.0100   22.3670   36.2640 N   0  0  0  0  0  0  0  0  0  0  0  0
   41.9410   23.1170   35.6080 N   0  0  0  0  0  0  0  0  0  0  0  0
   42.1390   24.4540   35.1640 C   0  0  0  0  0  0  0  0  0  0  0  0
   43.2350   25.2550   35.3500 C   0  0  0  0  0  0  0  0  0  0  0  0
   43.0360   26.4690   34.7720 N   0  0  0  0  0  0  0  0  0  0  0  0
   41.8150   26.4510   34.2140 C   0  0  0  0  0  0  0  0  0  0  0  0
   41.1150   27.4250   33.4990 C   0  0  0  0  0  0  0  0  0  0  0  0
   39.8570   27.1260   33.0370 C   0  0  0  0  0  0  0  0  0  0  0  0
   39.2600   25.9100   33.2480 C   0  0  0  0  0  0  0  0  0  0  0  0
   39.9720   24.9700   33.9540 C   0  0  0  0  0  0  0  0  0  0  0  0
   41.2480   25.2330   34.4390 C   0  0  0  0  0  0  0  0  0  0  0  0
   42.0275   23.6817   37.5982 H   0  0  0  0  0  0  0  0  0  0  0  0
   43.0838   22.2958   37.1182 H   0  0  0  0  0  0  0  0  0  0  0  0
   40.9860   20.9236   36.7452 H   0  0  0  0  0  0  0  0  0  0  0  0
   41.2267   21.3958   38.4396 H   0  0  0  0  0  0  0  0  0  0  0  0
   39.8485   23.4628   39.3724 H   0  0  0  0  0  0  0  0  0  0  0  0
   37.6256   24.6081   39.0671 H   0  0  0  0  0  0  0  0  0  0  0  0
   37.2636   22.8588   35.2178 H   0  0  0  0  0  0  0  0  0  0  0  0
   41.6797   22.3891   34.9277 H   0  0  0  0  0  0  0  0  0  0  0  0
   44.1461   24.9579   35.8901 H   0  0  0  0  0  0  0  0  0  0  0  0
   43.6992   27.2570   34.7636 H   0  0  0  0  0  0  0  0  0  0  0  0
   41.5624   28.4119   33.3097 H   0  0  0  0  0  0  0  0  0  0  0  0
   39.3055   27.8937   32.4744 H   0  0  0  0  0  0  0  0  0  0  0  0
   38.2507   25.6951   32.8672 H   0  0  0  0  0  0  0  0  0  0  0  0
   39.5206   23.9843   34.1401 H   0  0  0  0  0  0  0  0  0  0  0  0
  1  2  1  0
  3  2  1  0
  3  4  2  0
  5  4  1  0
  6  5  2  0
  7  8  2  0
  7  6  1  0
  8  3  1  0
  9  1  1  0
 10 11  2  0
 10  9  1  0
 12 11  1  0
 13 18  2  0
 13 12  1  0
 14 13  1  0
 15 16  1  0
 15 14  2  0
 16 17  2  0
 17 18  1  0
 18 10  1  0
  1 19  1  0
  1 20  1  0
  2 21  1  0
  2 22  1  0
  4 23  1  0
  5 24  1  0
  7 25  1  0
  9 26  1  0
 11 27  1  0
 12 28  1  0
 14 29  1  0
 15 30  1  0
 16 31  1  0
 17 32  1  0
M  ISO  8  19   8  20   8  21   8  22   8  23  14  24  14  25  14  27  14
M  ISO  5  28   9  29  14  30  14  31  14  32  14
M  END
>  <minimizedAffinity>  (1) 
-4.44509649

>  <minimizedRMSD>  (1) 
2.80914164

$$$$
