
     RDKit          3D

 31 32  0  0  0  0  0  0  0  0999 V2000
   42.2640   22.8520   36.8750 C   0  0  0  0  0  0  0  0  0  0  0  0
   41.0820   21.8820   36.8680 C   0  0  0  0  0  0  0  0  0  0  0  0
   39.8780   22.6970   37.0410 C   0  0  0  0  0  0  0  0  0  0  0  0
   39.3660   23.0770   38.2950 C   0  0  0  0  0  0  0  0  0  0  0  0
   38.2130   23.8530   38.3580 C   0  0  0  0  0  0  0  0  0  0  0  0
   37.6270   24.2140   37.1830 N   0  0  0  0  0  0  0  0  0  0  0  0
   38.1440   23.8300   35.9920 C   0  0  0  0  0  0  0  0  0  0  0  0
   39.2410   23.0910   35.9190 N   0  0  0  0  0  0  0  0  0  0  0  0
   42.0610   23.9510   35.9930 N   0  0  0  0  0  0  0  0  0  0  0  0
   43.5420   24.6350   35.4950 S   0  0  0  0  0  0  0  0  0  0  0  0
   43.3420   25.9310   34.7730 O   0  0  0  0  0  0  0  0  0  0  0  0
   44.1640   23.6750   34.5020 O   0  0  0  0  0  0  0  0  0  0  0  0
   44.6750   24.8490   36.8030 C   0  0  0  0  0  0  0  0  0  0  0  0
   44.4700   25.6160   37.9420 C   0  0  0  0  0  0  0  0  0  0  0  0
   45.4500   25.7070   38.9120 C   0  0  0  0  0  0  0  0  0  0  0  0
   46.6590   25.0640   38.8190 C   0  0  0  0  0  0  0  0  0  0  0  0
   46.8990   24.2940   37.7040 C   0  0  0  0  0  0  0  0  0  0  0  0
   45.9050   24.2080   36.7300 C   0  0  0  0  0  0  0  0  0  0  0  0
   42.4003   23.2374   37.8962 H   0  0  0  0  0  0  0  0  0  0  0  0
   43.1540   22.3035   36.5329 H   0  0  0  0  0  0  0  0  0  0  0  0
   41.0403   21.3398   35.9118 H   0  0  0  0  0  0  0  0  0  0  0  0
   41.1755   21.1334   37.6685 H   0  0  0  0  0  0  0  0  0  0  0  0
   39.8736   22.7629   39.2190 H   0  0  0  0  0  0  0  0  0  0  0  0
   37.7891   24.1644   39.3241 H   0  0  0  0  0  0  0  0  0  0  0  0
   37.6415   24.1388   35.0635 H   0  0  0  0  0  0  0  0  0  0  0  0
   41.5477   23.6231   35.1624 H   0  0  0  0  0  0  0  0  0  0  0  0
   43.5203   26.1553   38.0733 H   0  0  0  0  0  0  0  0  0  0  0  0
   45.2517   26.3240   39.8008 H   0  0  0  0  0  0  0  0  0  0  0  0
   47.4143   25.1613   39.6128 H   0  0  0  0  0  0  0  0  0  0  0  0
   47.8526   23.7589   37.5840 H   0  0  0  0  0  0  0  0  0  0  0  0
   46.1089   23.5902   35.8430 H   0  0  0  0  0  0  0  0  0  0  0  0
  2  1  1  0
  2  3  1  0
  3  4  2  0
  4  5  1  0
  6  5  2  0
  7  6  1  0
  8  7  2  0
  8  3  1  0
  9  1  1  0
 10  9  1  0
 10 13  1  0
 11 10  2  0
 12 10  2  0
 13 14  2  0
 14 15  1  0
 16 15  2  0
 17 16  1  0
 18 13  1  0
 18 17  2  0
  1 19  1  0
  1 20  1  0
  2 21  1  0
  2 22  1  0
  4 23  1  0
  5 24  1  0
  7 25  1  0
  9 26  1  0
 14 27  1  0
 15 28  1  0
 16 29  1  0
 17 30  1  0
 18 31  1  0
M  ISO  8  19   8  20   8  21   8  22   8  23  14  24  14  25  14  26   5
M  ISO  5  27  14  28  14  29  14  30  14  31  14
M  END
>  <minimizedAffinity>  (1) 
-4.68876505

>  <minimizedRMSD>  (1) 
2.55727673

$$$$
