
     RDKit          3D

 25 26  0  0  0  0  0  0  0  0999 V2000
   41.2530   22.0450   37.1790 C   0  0  0  0  0  0  0  0  0  0  0  0
   39.8660   22.5180   37.2260 C   0  0  0  0  0  0  0  0  0  0  0  0
   39.3190   23.2470   38.3080 C   0  0  0  0  0  0  0  0  0  0  0  0
   37.9920   23.6450   38.2460 C   0  0  0  0  0  0  0  0  0  0  0  0
   37.2790   23.3150   37.1480 N   0  0  0  0  0  0  0  0  0  0  0  0
   37.8230   22.6180   36.1240 C   0  0  0  0  0  0  0  0  0  0  0  0
   39.0890   22.2260   36.1580 N   0  0  0  0  0  0  0  0  0  0  0  0
   42.0760   23.1480   36.5470 C   0  0  0  0  0  0  0  0  0  0  0  0
   41.6280   23.4210   35.2220 N   0  0  0  0  0  0  0  0  0  0  0  0
   41.4000   24.7440   34.8230 C   0  0  0  0  0  0  0  0  0  0  0  0
   40.2680   25.5000   35.0100 C   0  0  0  0  0  0  0  0  0  0  0  0
   40.2730   26.7840   34.5290 C   0  0  0  0  0  0  0  0  0  0  0  0
   41.4250   27.2280   33.8850 C   0  0  0  0  0  0  0  0  0  0  0  0
   42.5350   25.7640   33.9700 S   0  0  0  0  0  0  0  0  0  0  0  0
   41.6163   21.8383   38.1965 H   0  0  0  0  0  0  0  0  0  0  0  0
   41.3309   21.1147   36.5972 H   0  0  0  0  0  0  0  0  0  0  0  0
   39.9363   23.4941   39.1843 H   0  0  0  0  0  0  0  0  0  0  0  0
   37.5332   24.2136   39.0683 H   0  0  0  0  0  0  0  0  0  0  0  0
   37.2043   22.3724   35.2483 H   0  0  0  0  0  0  0  0  0  0  0  0
   41.9821   24.0605   37.1541 H   0  0  0  0  0  0  0  0  0  0  0  0
   43.1257   22.8222   36.5030 H   0  0  0  0  0  0  0  0  0  0  0  0
   41.4723   22.6476   34.5597 H   0  0  0  0  0  0  0  0  0  0  0  0
   39.3884   25.0895   35.5275 H   0  0  0  0  0  0  0  0  0  0  0  0
   39.3981   27.4400   34.6476 H   0  0  0  0  0  0  0  0  0  0  0  0
   41.6226   28.2125   33.4358 H   0  0  0  0  0  0  0  0  0  0  0  0
  1  2  1  0
  2  3  2  0
  4  3  1  0
  5  4  2  0
  6  7  2  0
  6  5  1  0
  7  2  1  0
  8  1  1  0
  9  8  1  0
 10 11  2  0
 10  9  1  0
 12 11  1  0
 13 14  1  0
 13 12  2  0
 14 10  1  0
  1 15  1  0
  1 16  1  0
  3 17  1  0
  4 18  1  0
  6 19  1  0
  8 20  1  0
  8 21  1  0
  9 22  1  0
 11 23  1  0
 12 24  1  0
 13 25  1  0
M  ISO  8  15   8  16   8  17  14  18  14  19  14  20   8  21   8  23  14
M  ISO  2  24  14  25  14
M  END
>  <minimizedAffinity>  (1) 
-3.73764229

>  <minimizedRMSD>  (1) 
2.4018507

$$$$
