
     RDKit          3D

 31 32  0  0  0  0  0  0  0  0999 V2000
   41.3120   22.4290   36.7420 C   0  0  0  0  0  0  0  0  0  0  0  0
   42.1120   23.5380   36.2060 C   0  0  0  0  0  0  0  0  0  0  0  0
   43.4340   23.7630   36.6060 C   0  0  0  0  0  0  0  0  0  0  0  0
   44.1230   24.8500   36.0370 C   0  0  0  0  0  0  0  0  0  0  0  0
   43.4640   25.6240   35.1290 N   0  0  0  0  0  0  0  0  0  0  0  0
   42.2020   25.3680   34.7800 C   0  0  0  0  0  0  0  0  0  0  0  0
   41.5160   24.3430   35.3010 N   0  0  0  0  0  0  0  0  0  0  0  0
   40.0410   22.3610   35.9010 C   0  0  0  0  0  0  0  0  0  0  0  0
   38.9120   21.9470   36.6190 N   0  0  0  0  0  0  0  0  0  0  0  0
   37.8550   22.8600   36.8340 C   0  0  0  0  0  0  0  0  0  0  0  0
   37.9900   24.0990   35.9740 C   0  0  0  0  0  0  0  0  0  0  0  0
   38.3070   25.2340   36.9210 C   0  0  0  0  0  0  0  0  0  0  0  0
   37.9100   24.7760   38.3070 C   0  0  0  0  0  0  0  0  0  0  0  0
   37.8290   23.2830   38.2670 C   0  0  0  0  0  0  0  0  0  0  0  0
   41.8708   21.4849   36.6621 H   0  0  0  0  0  0  0  0  0  0  0  0
   41.0761   22.5878   37.8046 H   0  0  0  0  0  0  0  0  0  0  0  0
   43.9207   23.1087   37.3442 H   0  0  0  0  0  0  0  0  0  0  0  0
   45.1640   25.0689   36.3171 H   0  0  0  0  0  0  0  0  0  0  0  0
   41.7102   26.0187   34.0419 H   0  0  0  0  0  0  0  0  0  0  0  0
   40.2076   21.6519   35.0767 H   0  0  0  0  0  0  0  0  0  0  0  0
   39.8378   23.3810   35.5427 H   0  0  0  0  0  0  0  0  0  0  0  0
   38.5149   21.1410   36.1155 H   0  0  0  0  0  0  0  0  0  0  0  0
   36.9231   22.3425   36.5624 H   0  0  0  0  0  0  0  0  0  0  0  0
   38.8040   23.9711   35.2453 H   0  0  0  0  0  0  0  0  0  0  0  0
   37.0694   24.2956   35.4050 H   0  0  0  0  0  0  0  0  0  0  0  0
   39.3828   25.4614   36.8918 H   0  0  0  0  0  0  0  0  0  0  0  0
   37.7619   26.1464   36.6374 H   0  0  0  0  0  0  0  0  0  0  0  0
   38.6653   25.0939   39.0408 H   0  0  0  0  0  0  0  0  0  0  0  0
   36.9457   25.2139   38.6042 H   0  0  0  0  0  0  0  0  0  0  0  0
   36.8941   22.9466   38.7391 H   0  0  0  0  0  0  0  0  0  0  0  0
   38.6741   22.8386   38.8132 H   0  0  0  0  0  0  0  0  0  0  0  0
  2  3  2  0
  2  1  1  0
  4  3  1  0
  5  4  2  0
  6  5  1  0
  6  7  2  0
  7  2  1  0
  8  9  1  0
  8  1  1  0
  9 10  1  0
 10 14  1  0
 11 10  1  0
 11 12  1  0
 12 13  1  0
 14 13  1  0
  1 15  1  0
  1 16  1  0
  3 17  1  0
  4 18  1  0
  6 19  1  0
  8 20  1  0
  8 21  1  0
  9 22  1  0
 10 23  1  0
 11 24  1  0
 11 25  1  0
 12 26  1  0
 12 27  1  0
 13 28  1  0
 13 29  1  0
 14 30  1  0
 14 31  1  0
M  ISO  8  15   8  16   8  17  14  18  14  19  14  20   8  21   8  22   5
M  ISO  8  23  13  24  13  25  13  26  13  27  13  28  13  29  13  30  13
M  ISO  1  31  13
M  END
>  <minimizedAffinity>  (1) 
-3.6902318

>  <minimizedRMSD>  (1) 
5.08596373

$$$$
