
     RDKit          3D

 25 26  0  0  0  0  0  0  0  0999 V2000
   42.4020   21.3860   36.4600 C   0  0  0  0  0  0  0  0  0  0  0  0
   42.3390   22.5000   35.5080 C   0  0  0  0  0  0  0  0  0  0  0  0
   42.1780   22.3100   34.1240 C   0  0  0  0  0  0  0  0  0  0  0  0
   42.1280   23.4330   33.2890 C   0  0  0  0  0  0  0  0  0  0  0  0
   42.2400   24.6670   33.8740 N   0  0  0  0  0  0  0  0  0  0  0  0
   42.3940   24.8000   35.2110 C   0  0  0  0  0  0  0  0  0  0  0  0
   42.4440   23.7490   36.0190 N   0  0  0  0  0  0  0  0  0  0  0  0
   41.3800   21.6960   37.5530 C   0  0  0  0  0  0  0  0  0  0  0  0
   40.0380   21.7260   37.0740 N   0  0  0  0  0  0  0  0  0  0  0  0
   39.2210   22.8510   37.3830 C   0  0  0  0  0  0  0  0  0  0  0  0
   38.8080   23.8530   36.4980 C   0  0  0  0  0  0  0  0  0  0  0  0
   38.0290   24.7660   37.1740 C   0  0  0  0  0  0  0  0  0  0  0  0
   38.0010   24.2770   38.4540 C   0  0  0  0  0  0  0  0  0  0  0  0
   38.6990   23.1690   38.5450 O   0  0  0  0  0  0  0  0  0  0  0  0
   43.4108   21.3112   36.8922 H   0  0  0  0  0  0  0  0  0  0  0  0
   42.1819   20.4272   35.9678 H   0  0  0  0  0  0  0  0  0  0  0  0
   42.0928   21.2967   33.7046 H   0  0  0  0  0  0  0  0  0  0  0  0
   42.0031   23.3282   32.2011 H   0  0  0  0  0  0  0  0  0  0  0  0
   42.4803   25.8088   35.6409 H   0  0  0  0  0  0  0  0  0  0  0  0
   41.4560   20.9233   38.3322 H   0  0  0  0  0  0  0  0  0  0  0  0
   41.6110   22.6987   37.9419 H   0  0  0  0  0  0  0  0  0  0  0  0
   39.6650   20.9466   36.5134 H   0  0  0  0  0  0  0  0  0  0  0  0
   39.0651   23.9037   35.4297 H   0  0  0  0  0  0  0  0  0  0  0  0
   37.5447   25.6718   36.7803 H   0  0  0  0  0  0  0  0  0  0  0  0
   37.4662   24.7489   39.2914 H   0  0  0  0  0  0  0  0  0  0  0  0
  1  8  1  0
  2  7  1  0
  2  1  1  0
  3  2  2  0
  4  5  2  0
  4  3  1  0
  5  6  1  0
  6  7  2  0
  9 10  1  0
  9  8  1  0
 10 14  1  0
 11 12  1  0
 11 10  2  0
 12 13  2  0
 13 14  1  0
  1 15  1  0
  1 16  1  0
  3 17  1  0
  4 18  1  0
  6 19  1  0
  8 20  1  0
  8 21  1  0
  9 22  1  0
 11 23  1  0
 12 24  1  0
 13 25  1  0
M  ISO  8  15   8  16   8  17  14  18  14  19  14  20   8  21   8  23  14
M  ISO  2  24  14  25  14
M  END
>  <minimizedAffinity>  (1) 
-3.40088153

>  <minimizedRMSD>  (1) 
5.18518877

$$$$
