
     RDKit          3D

 21 21  0  0  0  0  0  0  0  0999 V2000
   40.8660   21.9050   37.2920 C   0  0  0  0  0  0  0  0  0  0  0  0
   39.6940   22.7840   37.2870 C   0  0  0  0  0  0  0  0  0  0  0  0
   39.0930   23.3060   38.4530 C   0  0  0  0  0  0  0  0  0  0  0  0
   37.9760   24.1260   38.3260 C   0  0  0  0  0  0  0  0  0  0  0  0
   37.5100   24.3910   37.0680 N   0  0  0  0  0  0  0  0  0  0  0  0
   38.1060   23.8780   35.9860 C   0  0  0  0  0  0  0  0  0  0  0  0
   39.1900   23.0800   36.0700 N   0  0  0  0  0  0  0  0  0  0  0  0
   42.0710   22.8040   36.9880 C   0  0  0  0  0  0  0  0  0  0  0  0
   42.0880   23.2180   35.6310 N   0  0  0  0  0  0  0  0  0  0  0  0
   42.9050   24.4460   35.5730 C   0  0  0  0  0  0  0  0  0  0  0  0
   42.1310   25.5570   35.3620 F   0  0  0  0  0  0  0  0  0  0  0  0
   43.6090   24.5660   36.7720 F   0  0  0  0  0  0  0  0  0  0  0  0
   43.8240   24.2920   34.5720 F   0  0  0  0  0  0  0  0  0  0  0  0
   40.9828   21.4296   38.2771 H   0  0  0  0  0  0  0  0  0  0  0  0
   40.7678   21.0989   36.5500 H   0  0  0  0  0  0  0  0  0  0  0  0
   39.5014   23.0682   39.4463 H   0  0  0  0  0  0  0  0  0  0  0  0
   37.4816   24.5493   39.2128 H   0  0  0  0  0  0  0  0  0  0  0  0
   37.6976   24.1154   34.9926 H   0  0  0  0  0  0  0  0  0  0  0  0
   42.0227   23.6946   37.6318 H   0  0  0  0  0  0  0  0  0  0  0  0
   42.9870   22.2266   37.1818 H   0  0  0  0  0  0  0  0  0  0  0  0
   42.5068   22.4847   35.0413 H   0  0  0  0  0  0  0  0  0  0  0  0
  2  1  1  0
  2  3  2  0
  4  3  1  0
  5  4  2  0
  6  7  2  0
  6  5  1  0
  7  2  1  0
  8  1  1  0
  9  8  1  0
 10  9  1  0
 10 12  1  0
 11 10  1  0
 13 10  1  0
  1 14  1  0
  1 15  1  0
  3 16  1  0
  4 17  1  0
  6 18  1  0
  8 19  1  0
  8 20  1  0
  9 21  1  0
M  ISO  8  14   8  15   8  16  14  17  14  18  14  19   8  20   8  21   5
M  END
>  <minimizedAffinity>  (1) 
-3.36817265

>  <minimizedRMSD>  (1) 
1.01556385

$$$$
