
     RDKit          3D

 27 27  0  0  0  0  0  0  0  0999 V2000
   40.8710   21.9850   37.4950 C   0  0  0  0  0  0  0  0  0  0  0  0
   39.6610   22.8140   37.3540 C   0  0  0  0  0  0  0  0  0  0  0  0
   38.9440   23.3030   38.4620 C   0  0  0  0  0  0  0  0  0  0  0  0
   37.8110   24.0800   38.1790 C   0  0  0  0  0  0  0  0  0  0  0  0
   37.4640   24.3200   36.8960 N   0  0  0  0  0  0  0  0  0  0  0  0
   38.1890   23.8260   35.8730 C   0  0  0  0  0  0  0  0  0  0  0  0
   39.2680   23.0860   36.1060 N   0  0  0  0  0  0  0  0  0  0  0  0
   42.0190   22.7660   36.8950 C   0  0  0  0  0  0  0  0  0  0  0  0
   42.4590   22.2730   35.6450 N   0  0  0  0  0  0  0  0  0  0  0  0
   43.8520   22.1510   35.4220 C   0  0  0  0  0  0  0  0  0  0  0  0
   44.4470   20.8530   35.8930 C   0  0  0  0  0  0  0  0  0  0  0  0
   44.5410   23.2940   36.1770 C   0  0  0  0  0  0  0  0  0  0  0  0
   41.0676   21.7825   38.5582 H   0  0  0  0  0  0  0  0  0  0  0  0
   40.7453   21.0194   36.9833 H   0  0  0  0  0  0  0  0  0  0  0  0
   39.2555   23.0874   39.4947 H   0  0  0  0  0  0  0  0  0  0  0  0
   37.2065   24.4929   39.0001 H   0  0  0  0  0  0  0  0  0  0  0  0
   37.8853   24.0369   34.8370 H   0  0  0  0  0  0  0  0  0  0  0  0
   41.6953   23.8087   36.7610 H   0  0  0  0  0  0  0  0  0  0  0  0
   42.8660   22.6714   37.5904 H   0  0  0  0  0  0  0  0  0  0  0  0
   42.0482   21.3361   35.5254 H   0  0  0  0  0  0  0  0  0  0  0  0
   44.0087   22.1868   34.3338 H   0  0  0  0  0  0  0  0  0  0  0  0
   44.4567   20.8318   36.9928 H   0  0  0  0  0  0  0  0  0  0  0  0
   43.8433   20.0145   35.5154 H   0  0  0  0  0  0  0  0  0  0  0  0
   45.4762   20.7631   35.5154 H   0  0  0  0  0  0  0  0  0  0  0  0
   44.4421   23.1300   37.2602 H   0  0  0  0  0  0  0  0  0  0  0  0
   45.6068   23.3223   35.9062 H   0  0  0  0  0  0  0  0  0  0  0  0
   44.0684   24.2497   35.9062 H   0  0  0  0  0  0  0  0  0  0  0  0
  2  1  1  0
  2  3  2  0
  4  3  1  0
  5  4  2  0
  6  7  2  0
  6  5  1  0
  7  2  1  0
  8  1  1  0
  9  8  1  0
 10  9  1  0
 10 11  1  0
 10 12  1  0
  1 13  1  0
  1 14  1  0
  3 15  1  0
  4 16  1  0
  6 17  1  0
  8 18  1  0
  8 19  1  0
  9 20  1  0
 10 21  1  0
 11 22  1  0
 11 23  1  0
 11 24  1  0
 12 25  1  0
 12 26  1  0
 12 27  1  0
M  ISO  8  13   8  14   8  15  14  16  14  17  14  18   8  19   8  20   5
M  ISO  7  21   8  22   8  23   8  24   8  25   8  26   8  27   8
M  END
>  <minimizedAffinity>  (1) 
-3.12133861

>  <minimizedRMSD>  (1) 
1.32552254

$$$$
