
     RDKit          3D

 24 24  0  0  0  0  0  0  0  0999 V2000
   40.9940   21.8430   37.3870 C   0  0  0  0  0  0  0  0  0  0  0  0
   39.7330   22.5950   37.3590 C   0  0  0  0  0  0  0  0  0  0  0  0
   39.2470   23.3120   38.4700 C   0  0  0  0  0  0  0  0  0  0  0  0
   38.0270   23.9690   38.3150 C   0  0  0  0  0  0  0  0  0  0  0  0
   37.3670   23.8950   37.1200 N   0  0  0  0  0  0  0  0  0  0  0  0
   37.8860   23.1910   36.0820 C   0  0  0  0  0  0  0  0  0  0  0  0
   39.0440   22.5580   36.2100 N   0  0  0  0  0  0  0  0  0  0  0  0
   42.1050   22.7740   36.9700 C   0  0  0  0  0  0  0  0  0  0  0  0
   41.7790   23.5450   35.8010 N   0  0  0  0  0  0  0  0  0  0  0  0
   42.9200   24.4510   35.5680 C   0  0  0  0  0  0  0  0  0  0  0  0
   43.9060   24.2660   36.6910 C   0  0  0  0  0  0  0  0  0  0  0  0
   41.1828   21.4696   38.4043 H   0  0  0  0  0  0  0  0  0  0  0  0
   40.9402   20.9837   36.7024 H   0  0  0  0  0  0  0  0  0  0  0  0
   39.8049   23.3517   39.4172 H   0  0  0  0  0  0  0  0  0  0  0  0
   37.5981   24.5435   39.1493 H   0  0  0  0  0  0  0  0  0  0  0  0
   37.3417   23.1453   35.1272 H   0  0  0  0  0  0  0  0  0  0  0  0
   42.3136   23.4654   37.7997 H   0  0  0  0  0  0  0  0  0  0  0  0
   42.9801   22.1546   36.7238 H   0  0  0  0  0  0  0  0  0  0  0  0
   41.6460   22.9238   34.9902 H   0  0  0  0  0  0  0  0  0  0  0  0
   43.3989   24.2071   34.6082 H   0  0  0  0  0  0  0  0  0  0  0  0
   42.5749   25.4949   35.5340 H   0  0  0  0  0  0  0  0  0  0  0  0
   43.3859   24.3636   37.6554 H   0  0  0  0  0  0  0  0  0  0  0  0
   44.3605   23.2669   36.6190 H   0  0  0  0  0  0  0  0  0  0  0  0
   44.6918   25.0324   36.6190 H   0  0  0  0  0  0  0  0  0  0  0  0
  2  1  1  0
  2  3  2  0
  4  3  1  0
  5  4  2  0
  6  7  2  0
  6  5  1  0
  7  2  1  0
  8  1  1  0
  9  8  1  0
 10  9  1  0
 10 11  1  0
  1 12  1  0
  1 13  1  0
  3 14  1  0
  4 15  1  0
  6 16  1  0
  8 17  1  0
  8 18  1  0
  9 19  1  0
 10 20  1  0
 10 21  1  0
 11 22  1  0
 11 23  1  0
 11 24  1  0
M  ISO  8  12   8  13   8  14  14  15  14  16  14  17   8  18   8  19   5
M  ISO  5  20   8  21   8  22   8  23   8  24   8
M  END
>  <minimizedAffinity>  (1) 
-3.1537509

>  <minimizedRMSD>  (1) 
1.23549986

$$$$
