
     RDKit          3D

 25 26  0  0  0  0  0  0  0  0999 V2000
   40.8490   21.8700   37.1550 C   0  0  0  0  0  0  0  0  0  0  0  0
   39.6870   22.7590   37.1890 C   0  0  0  0  0  0  0  0  0  0  0  0
   39.1330   23.2540   38.3740 C   0  0  0  0  0  0  0  0  0  0  0  0
   38.0350   24.0930   38.2970 C   0  0  0  0  0  0  0  0  0  0  0  0
   37.5490   24.3970   37.0640 N   0  0  0  0  0  0  0  0  0  0  0  0
   38.0950   23.9110   35.9390 C   0  0  0  0  0  0  0  0  0  0  0  0
   39.1580   23.0980   35.9870 N   0  0  0  0  0  0  0  0  0  0  0  0
   42.0880   22.7320   37.0470 C   0  0  0  0  0  0  0  0  0  0  0  0
   42.0580   23.6190   35.9230 N   0  0  0  0  0  0  0  0  0  0  0  0
   43.3700   24.1830   35.7610 C   0  0  0  0  0  0  0  0  0  0  0  0
   44.5290   23.3990   36.1800 C   0  0  0  0  0  0  0  0  0  0  0  0
   44.1510   24.6580   36.9190 C   0  0  0  0  0  0  0  0  0  0  0  0
   40.8890   21.2711   38.0768 H   0  0  0  0  0  0  0  0  0  0  0  0
   40.7826   21.1836   36.2980 H   0  0  0  0  0  0  0  0  0  0  0  0
   39.5622   22.9814   39.3495 H   0  0  0  0  0  0  0  0  0  0  0  0
   37.5694   24.5016   39.2060 H   0  0  0  0  0  0  0  0  0  0  0  0
   37.6639   24.1839   34.9645 H   0  0  0  0  0  0  0  0  0  0  0  0
   42.1782   23.3321   37.9645 H   0  0  0  0  0  0  0  0  0  0  0  0
   42.9463   22.0577   36.9104 H   0  0  0  0  0  0  0  0  0  0  0  0
   41.7953   23.0977   35.0744 H   0  0  0  0  0  0  0  0  0  0  0  0
   43.0462   24.6626   34.8255 H   0  0  0  0  0  0  0  0  0  0  0  0
   44.3876   22.4172   36.6555 H   0  0  0  0  0  0  0  0  0  0  0  0
   45.4392   23.0271   35.6868 H   0  0  0  0  0  0  0  0  0  0  0  0
   44.7759   25.5592   36.8334 H   0  0  0  0  0  0  0  0  0  0  0  0
   43.9274   24.9188   37.9640 H   0  0  0  0  0  0  0  0  0  0  0  0
  1  2  1  0
  2  3  2  0
  4  3  1  0
  5  4  2  0
  6  7  2  0
  6  5  1  0
  7  2  1  0
  8  1  1  0
  9  8  1  0
 10  9  1  0
 10 11  1  0
 10 12  1  0
 11 12  1  0
  1 13  1  0
  1 14  1  0
  3 15  1  0
  4 16  1  0
  6 17  1  0
  8 18  1  0
  8 19  1  0
  9 20  1  0
 10 21  1  0
 11 22  1  0
 11 23  1  0
 12 24  1  0
 12 25  1  0
M  ISO  8  13   8  14   8  15  14  16  14  17  14  18   8  19   8  20   5
M  ISO  5  21  13  22  13  23  13  24  13  25  13
M  END
>  <minimizedAffinity>  (1) 
-3.33328295

>  <minimizedRMSD>  (1) 
1.20792699

$$$$
