
     RDKit          3D

 40 43  0  0  0  0  0  0  0  0999 V2000
   42.0720   24.7140   35.0460 C   0  0  0  0  0  0  0  0  0  0  0  0
   41.1470   25.4730   34.3960 C   0  0  0  0  0  0  0  0  0  0  0  0
   41.4750   26.6670   33.7890 C   0  0  0  0  0  0  0  0  0  0  0  0
   42.7540   27.1180   33.8310 N   0  0  0  0  0  0  0  0  0  0  0  0
   43.6860   26.3660   34.4800 C   0  0  0  0  0  0  0  0  0  0  0  0
   43.3460   25.1910   35.0740 N   0  0  0  0  0  0  0  0  0  0  0  0
   45.0630   26.6270   34.6550 N   0  0  0  0  0  0  0  0  0  0  0  0
   45.7910   27.1800   33.6530 C   0  0  0  0  0  0  0  0  0  0  0  0
   47.0680   27.3090   34.1140 N   0  0  0  0  0  0  0  0  0  0  0  0
   47.0990   26.8370   35.3770 C   0  0  0  0  0  0  0  0  0  0  0  0
   48.1480   26.7470   36.2710 C   0  0  0  0  0  0  0  0  0  0  0  0
   49.3200   27.1200   36.0210 O   0  0  0  0  0  0  0  0  0  0  0  0
   47.8450   26.2220   37.4690 N   0  0  0  0  0  0  0  0  0  0  0  0
   46.6160   25.7950   37.8260 C   0  0  0  0  0  0  0  0  0  0  0  0
   46.3610   25.2410   39.1280 N   0  0  0  0  0  0  0  0  0  0  0  0
   45.5770   25.8820   36.9450 N   0  0  0  0  0  0  0  0  0  0  0  0
   45.8390   26.4030   35.7340 C   0  0  0  0  0  0  0  0  0  0  0  0
   41.5100   23.5110   35.5840 N   0  0  0  0  0  0  0  0  0  0  0  0
   41.9510   22.7660   36.7460 C   0  0  0  0  0  0  0  0  0  0  0  0
   40.8550   21.7610   37.1690 C   0  0  0  0  0  0  0  0  0  0  0  0
   39.6180   22.5720   37.2400 C   0  0  0  0  0  0  0  0  0  0  0  0
   39.2880   23.2780   38.4090 C   0  0  0  0  0  0  0  0  0  0  0  0
   38.1130   24.0210   38.4000 C   0  0  0  0  0  0  0  0  0  0  0  0
   37.3430   24.0270   37.2640 N   0  0  0  0  0  0  0  0  0  0  0  0
   37.7040   23.3340   36.1730 C   0  0  0  0  0  0  0  0  0  0  0  0
   38.8080   22.6310   36.1690 N   0  0  0  0  0  0  0  0  0  0  0  0
   40.1052   25.1226   34.3538 H   0  0  0  0  0  0  0  0  0  0  0  0
   40.7010   27.2528   33.2716 H   0  0  0  0  0  0  0  0  0  0  0  0
   45.4217   27.4693   32.6581 H   0  0  0  0  0  0  0  0  0  0  0  0
   48.6021   26.1397   38.1625 H   0  0  0  0  0  0  0  0  0  0  0  0
   45.4133   24.9223   39.3755 H   0  0  0  0  0  0  0  0  0  0  0  0
   47.1260   25.1628   39.8133 H   0  0  0  0  0  0  0  0  0  0  0  0
   40.6939   23.1296   35.0845 H   0  0  0  0  0  0  0  0  0  0  0  0
   42.8734   22.2191   36.5010 H   0  0  0  0  0  0  0  0  0  0  0  0
   42.1436   23.4640   37.5740 H   0  0  0  0  0  0  0  0  0  0  0  0
   40.7526   20.9598   36.4223 H   0  0  0  0  0  0  0  0  0  0  0  0
   41.0866   21.2657   38.1235 H   0  0  0  0  0  0  0  0  0  0  0  0
   39.9350   23.2441   39.2980 H   0  0  0  0  0  0  0  0  0  0  0  0
   37.8060   24.5938   39.2875 H   0  0  0  0  0  0  0  0  0  0  0  0
   37.0677   23.3569   35.2760 H   0  0  0  0  0  0  0  0  0  0  0  0
  1  6  1  0
  1 18  1  0
  2  1  2  0
  3  4  2  0
  3  2  1  0
  4  5  1  0
  5  7  1  0
  5  6  2  0
  7 17  1  0
  8  9  2  0
  8  7  1  0
  9 10  1  0
 10 17  2  0
 10 11  1  0
 11 13  1  0
 12 11  2  0
 13 14  1  0
 14 15  1  0
 16 14  2  0
 17 16  1  0
 18 19  1  0
 19 20  1  0
 20 21  1  0
 21 22  2  0
 23 22  1  0
 24 23  2  0
 25 24  1  0
 26 25  2  0
 26 21  1  0
  2 27  1  0
  3 28  1  0
  8 29  1  0
 13 30  1  0
 15 31  1  0
 15 32  1  0
 18 33  1  0
 19 34  1  0
 19 35  1  0
 20 36  1  0
 20 37  1  0
 22 38  1  0
 23 39  1  0
 25 40  1  0
M  ISO  8  27  14  28  14  29  14  30   9  34   8  35   8  36   8  37   8
M  ISO  3  38  14  39  14  40  14
M  END
>  <minimizedAffinity>  (1) 
-5.36006975

>  <minimizedRMSD>  (1) 
1.56860507

$$$$
