
     RDKit          3D

 40 43  0  0  0  0  0  0  0  0999 V2000
   43.9900   22.2560   34.0070 C   0  0  0  0  0  0  0  0  0  0  0  0
   42.8460   22.0540   34.7710 C   0  0  0  0  0  0  0  0  0  0  0  0
   42.3830   23.1340   35.5210 C   0  0  0  0  0  0  0  0  0  0  0  0
   43.0730   24.3140   35.4620 N   0  0  0  0  0  0  0  0  0  0  0  0
   44.1790   24.4500   34.7010 C   0  0  0  0  0  0  0  0  0  0  0  0
   44.6310   23.4080   33.9730 N   0  0  0  0  0  0  0  0  0  0  0  0
   44.8740   25.6960   34.6630 N   0  0  0  0  0  0  0  0  0  0  0  0
   44.1620   26.9050   34.5220 C   0  0  0  0  0  0  0  0  0  0  0  0
   42.8780   26.8620   34.2600 N   0  0  0  0  0  0  0  0  0  0  0  0
   44.8230   28.1780   34.6610 N   0  0  0  0  0  0  0  0  0  0  0  0
   42.3690   27.7570   34.1400 H   0  0  0  0  0  0  0  0  0  0  0  0
   41.2260   23.0210   36.3290 N   0  0  0  0  0  0  0  0  0  0  0  0
   41.1010   22.2290   37.3940 C   0  0  0  0  0  0  0  0  0  0  0  0
   39.8670   22.3680   37.9310 N   0  0  0  0  0  0  0  0  0  0  0  0
   39.2320   23.2780   37.1560 C   0  0  0  0  0  0  0  0  0  0  0  0
   37.9430   23.7440   37.3150 C   0  0  0  0  0  0  0  0  0  0  0  0
   37.5150   24.6750   36.3970 N   0  0  0  0  0  0  0  0  0  0  0  0
   38.3660   25.0650   35.4160 C   0  0  0  0  0  0  0  0  0  0  0  0
   39.6330   24.6100   35.2570 N   0  0  0  0  0  0  0  0  0  0  0  0
   40.0930   23.6930   36.1400 C   0  0  0  0  0  0  0  0  0  0  0  0
   37.8900   26.0300   34.4830 N   0  0  0  0  0  0  0  0  0  0  0  0
   37.1510   27.2320   34.8990 C   0  0  0  0  0  0  0  0  0  0  0  0
   36.7820   27.9340   33.6150 C   0  0  0  0  0  0  0  0  0  0  0  0
   37.8120   27.4560   32.6140 C   0  0  0  0  0  0  0  0  0  0  0  0
   38.0270   26.0270   33.0370 C   0  0  0  0  0  0  0  0  0  0  0  0
   44.3766   21.4199   33.4058 H   0  0  0  0  0  0  0  0  0  0  0  0
   42.3284   21.0835   34.7831 H   0  0  0  0  0  0  0  0  0  0  0  0
   45.9011   25.7122   34.7390 H   0  0  0  0  0  0  0  0  0  0  0  0
   44.2868   29.0510   34.5547 H   0  0  0  0  0  0  0  0  0  0  0  0
   45.8316   28.2148   34.8667 H   0  0  0  0  0  0  0  0  0  0  0  0
   41.8854   21.5610   37.7793 H   0  0  0  0  0  0  0  0  0  0  0  0
   37.2941   23.3909   38.1300 H   0  0  0  0  0  0  0  0  0  0  0  0
   36.2467   26.9539   35.4602 H   0  0  0  0  0  0  0  0  0  0  0  0
   37.7502   27.8743   35.5611 H   0  0  0  0  0  0  0  0  0  0  0  0
   35.7681   27.6519   33.2948 H   0  0  0  0  0  0  0  0  0  0  0  0
   36.7786   29.0288   33.7222 H   0  0  0  0  0  0  0  0  0  0  0  0
   38.7420   28.0386   32.6896 H   0  0  0  0  0  0  0  0  0  0  0  0
   37.4931   27.5634   31.5667 H   0  0  0  0  0  0  0  0  0  0  0  0
   37.2707   25.3720   32.5798 H   0  0  0  0  0  0  0  0  0  0  0  0
   39.0099   25.6489   32.7192 H   0  0  0  0  0  0  0  0  0  0  0  0
  1  2  2  0
  2  3  1  0
  3 12  1  0
  4  3  2  0
  5  4  1  0
  6  1  1  0
  6  5  2  0
  7  5  1  0
  8 10  1  0
  8  7  1  0
  9  8  2  0
 11  9  1  0
 12 13  1  0
 13 14  2  0
 15 16  2  0
 15 14  1  0
 17 16  1  0
 18 17  2  0
 19 18  1  0
 19 20  2  0
 20 12  1  0
 20 15  1  0
 21 22  1  0
 21 18  1  0
 23 22  1  0
 24 25  1  0
 24 23  1  0
 25 21  1  0
  1 26  1  0
  2 27  1  0
  7 28  1  0
 10 29  1  0
 10 30  1  0
 13 31  1  0
 16 32  1  0
 22 33  1  0
 22 34  1  0
 23 35  1  0
 23 36  1  0
 24 37  1  0
 24 38  1  0
 25 39  1  0
 25 40  1  0
M  ISO  8  26  14  27  14  31  14  32  14  33  13  34  13  35  13  36  13
M  ISO  4  37  13  38  13  39  13  40  13
M  END
>  <minimizedAffinity>  (1) 
-6.21961689

>  <minimizedRMSD>  (1) 
4.8911047

$$$$
