
     RDKit          3D

 40 43  0  0  0  0  0  0  0  0999 V2000
   42.4510   24.6380   35.2740 C   0  0  0  0  0  0  0  0  0  0  0  0
   41.6290   25.4420   34.5130 C   0  0  0  0  0  0  0  0  0  0  0  0
   42.0500   26.6170   33.9240 C   0  0  0  0  0  0  0  0  0  0  0  0
   43.3590   27.0140   34.1000 N   0  0  0  0  0  0  0  0  0  0  0  0
   44.1550   26.2120   34.8530 C   0  0  0  0  0  0  0  0  0  0  0  0
   43.7650   25.0560   35.4400 N   0  0  0  0  0  0  0  0  0  0  0  0
   45.5570   26.5300   35.1100 C   0  0  0  0  0  0  0  0  0  0  0  0
   46.4630   27.3490   34.5020 C   0  0  0  0  0  0  0  0  0  0  0  0
   47.6570   27.3080   35.1160 N   0  0  0  0  0  0  0  0  0  0  0  0
   47.5740   26.4630   36.1440 C   0  0  0  0  0  0  0  0  0  0  0  0
   48.5490   26.1090   37.0510 C   0  0  0  0  0  0  0  0  0  0  0  0
   48.2530   25.2120   38.0440 C   0  0  0  0  0  0  0  0  0  0  0  0
   46.9920   24.7010   38.0970 C   0  0  0  0  0  0  0  0  0  0  0  0
   46.0330   25.0720   37.1770 C   0  0  0  0  0  0  0  0  0  0  0  0
   46.2870   25.9690   36.1610 C   0  0  0  0  0  0  0  0  0  0  0  0
   41.7520   23.4920   35.7450 N   0  0  0  0  0  0  0  0  0  0  0  0
   42.0100   22.7390   36.9600 C   0  0  0  0  0  0  0  0  0  0  0  0
   40.8470   21.7710   37.2370 C   0  0  0  0  0  0  0  0  0  0  0  0
   39.6410   22.6360   37.2570 C   0  0  0  0  0  0  0  0  0  0  0  0
   39.2200   23.2790   38.4280 C   0  0  0  0  0  0  0  0  0  0  0  0
   38.0880   24.0780   38.3660 C   0  0  0  0  0  0  0  0  0  0  0  0
   37.4420   24.1950   37.1640 N   0  0  0  0  0  0  0  0  0  0  0  0
   37.8770   23.5620   36.0640 C   0  0  0  0  0  0  0  0  0  0  0  0
   38.9480   22.8040   36.1170 N   0  0  0  0  0  0  0  0  0  0  0  0
   40.5839   25.1309   34.3679 H   0  0  0  0  0  0  0  0  0  0  0  0
   41.3552   27.2249   33.3259 H   0  0  0  0  0  0  0  0  0  0  0  0
   46.2430   27.9663   33.6186 H   0  0  0  0  0  0  0  0  0  0  0  0
   48.4949   27.8394   34.8395 H   0  0  0  0  0  0  0  0  0  0  0  0
   49.5572   26.5430   36.9786 H   0  0  0  0  0  0  0  0  0  0  0  0
   49.0145   24.9126   38.7792 H   0  0  0  0  0  0  0  0  0  0  0  0
   46.7335   23.9802   38.8867 H   0  0  0  0  0  0  0  0  0  0  0  0
   45.0266   24.6352   37.2572 H   0  0  0  0  0  0  0  0  0  0  0  0
   40.9745   23.1583   35.1576 H   0  0  0  0  0  0  0  0  0  0  0  0
   42.9411   22.1652   36.8420 H   0  0  0  0  0  0  0  0  0  0  0  0
   42.1064   23.4379   37.8039 H   0  0  0  0  0  0  0  0  0  0  0  0
   40.7711   21.0162   36.4404 H   0  0  0  0  0  0  0  0  0  0  0  0
   40.9795   21.2158   38.1773 H   0  0  0  0  0  0  0  0  0  0  0  0
   39.7721   23.1537   39.3711 H   0  0  0  0  0  0  0  0  0  0  0  0
   37.7187   24.6039   39.2588 H   0  0  0  0  0  0  0  0  0  0  0  0
   37.3345   23.6784   35.1142 H   0  0  0  0  0  0  0  0  0  0  0  0
  1  6  1  0
  1 16  1  0
  2  1  2  0
  3  4  2  0
  3  2  1  0
  4  5  1  0
  5  7  1  0
  5  6  2  0
  7 15  1  0
  8  7  2  0
  8  9  1  0
  9 10  1  0
 10 15  2  0
 10 11  1  0
 11 12  2  0
 12 13  1  0
 14 13  2  0
 15 14  1  0
 16 17  1  0
 17 18  1  0
 18 19  1  0
 19 20  2  0
 21 20  1  0
 22 21  2  0
 23 24  2  0
 23 22  1  0
 24 19  1  0
  2 25  1  0
  3 26  1  0
  8 27  1  0
  9 28  1  0
 11 29  1  0
 12 30  1  0
 13 31  1  0
 14 32  1  0
 16 33  1  0
 17 34  1  0
 17 35  1  0
 18 36  1  0
 18 37  1  0
 20 38  1  0
 21 39  1  0
 23 40  1  0
M  ISO  8  25  14  26  14  27  14  28   9  29  14  30  14  31  14  32  14
M  ISO  7  34   8  35   8  36   8  37   8  38  14  39  14  40  14
M  END
>  <minimizedAffinity>  (1) 
-5.08060074

>  <minimizedRMSD>  (1) 
1.03498816

$$$$
