
     RDKit          3D

 42 45  0  0  0  0  0  0  0  0999 V2000
   42.2050   24.6330   35.1940 C   0  0  0  0  0  0  0  0  0  0  0  0
   41.2940   25.4020   34.5300 C   0  0  0  0  0  0  0  0  0  0  0  0
   41.6780   26.6140   33.9400 C   0  0  0  0  0  0  0  0  0  0  0  0
   42.9700   27.0260   34.0340 N   0  0  0  0  0  0  0  0  0  0  0  0
   43.8540   26.2500   34.6990 C   0  0  0  0  0  0  0  0  0  0  0  0
   43.5010   25.0950   35.2620 N   0  0  0  0  0  0  0  0  0  0  0  0
   45.2780   26.4870   34.9290 C   0  0  0  0  0  0  0  0  0  0  0  0
   46.1390   27.1090   34.0160 C   0  0  0  0  0  0  0  0  0  0  0  0
   47.4730   27.3410   34.2080 C   0  0  0  0  0  0  0  0  0  0  0  0
   48.0540   26.9470   35.3840 C   0  0  0  0  0  0  0  0  0  0  0  0
   47.2770   26.3310   36.3300 C   0  0  0  0  0  0  0  0  0  0  0  0
   47.9340   25.9650   37.4820 C   0  0  0  0  0  0  0  0  0  0  0  0
   47.2350   25.3400   38.4930 C   0  0  0  0  0  0  0  0  0  0  0  0
   45.8800   25.1130   38.2760 C   0  0  0  0  0  0  0  0  0  0  0  0
   45.2990   25.5050   37.1030 C   0  0  0  0  0  0  0  0  0  0  0  0
   45.9440   26.1250   36.0780 C   0  0  0  0  0  0  0  0  0  0  0  0
   41.5900   23.4400   35.6880 N   0  0  0  0  0  0  0  0  0  0  0  0
   41.9390   22.6950   36.8830 C   0  0  0  0  0  0  0  0  0  0  0  0
   40.7900   21.7550   37.2900 C   0  0  0  0  0  0  0  0  0  0  0  0
   39.5840   22.6060   37.2910 C   0  0  0  0  0  0  0  0  0  0  0  0
   39.2110   23.3330   38.4280 C   0  0  0  0  0  0  0  0  0  0  0  0
   38.0690   24.1190   38.3490 C   0  0  0  0  0  0  0  0  0  0  0  0
   37.3670   24.1480   37.1760 N   0  0  0  0  0  0  0  0  0  0  0  0
   37.7590   23.4310   36.0980 C   0  0  0  0  0  0  0  0  0  0  0  0
   38.8390   22.6910   36.1780 N   0  0  0  0  0  0  0  0  0  0  0  0
   40.2486   25.0676   34.4571 H   0  0  0  0  0  0  0  0  0  0  0  0
   40.9388   27.2277   33.4044 H   0  0  0  0  0  0  0  0  0  0  0  0
   45.7043   27.4397   33.0612 H   0  0  0  0  0  0  0  0  0  0  0  0
   48.0708   27.8369   33.4291 H   0  0  0  0  0  0  0  0  0  0  0  0
   49.1247   27.1218   35.5659 H   0  0  0  0  0  0  0  0  0  0  0  0
   49.0088   26.1694   37.5957 H   0  0  0  0  0  0  0  0  0  0  0  0
   47.7266   25.0348   39.4285 H   0  0  0  0  0  0  0  0  0  0  0  0
   45.2753   24.6173   39.0497 H   0  0  0  0  0  0  0  0  0  0  0  0
   44.2249   25.3034   36.9775 H   0  0  0  0  0  0  0  0  0  0  0  0
   40.8086   23.0663   35.1306 H   0  0  0  0  0  0  0  0  0  0  0  0
   42.8419   22.0983   36.6862 H   0  0  0  0  0  0  0  0  0  0  0  0
   42.1235   23.4052   37.7025 H   0  0  0  0  0  0  0  0  0  0  0  0
   40.6847   20.9357   36.5636 H   0  0  0  0  0  0  0  0  0  0  0  0
   40.9663   21.2862   38.2693 H   0  0  0  0  0  0  0  0  0  0  0  0
   39.8033   23.2831   39.3536 H   0  0  0  0  0  0  0  0  0  0  0  0
   37.7347   24.7084   39.2155 H   0  0  0  0  0  0  0  0  0  0  0  0
   37.1784   23.4681   35.1645 H   0  0  0  0  0  0  0  0  0  0  0  0
  1  6  1  0
  1 17  1  0
  2  1  2  0
  3  4  2  0
  3  2  1  0
  4  5  1  0
  5  7  1  0
  5  6  2  0
  7 16  2  0
  8  9  2  0
  8  7  1  0
  9 10  1  0
 10 11  2  0
 11 12  1  0
 12 13  2  0
 14 13  1  0
 15 14  2  0
 16 11  1  0
 16 15  1  0
 17 18  1  0
 18 19  1  0
 19 20  1  0
 20 21  2  0
 22 21  1  0
 23 22  2  0
 24 25  2  0
 24 23  1  0
 25 20  1  0
  2 26  1  0
  3 27  1  0
  8 28  1  0
  9 29  1  0
 10 30  1  0
 12 31  1  0
 13 32  1  0
 14 33  1  0
 15 34  1  0
 17 35  1  0
 18 36  1  0
 18 37  1  0
 19 38  1  0
 19 39  1  0
 21 40  1  0
 22 41  1  0
 24 42  1  0
M  ISO  8  26  14  27  14  28  14  29  14  30  14  31  14  32  14  33  14
M  ISO  8  34  14  36   8  37   8  38   8  39   8  40  14  41  14  42  14
M  END
>  <minimizedAffinity>  (1) 
-5.25913858

>  <minimizedRMSD>  (1) 
1.29737139

$$$$
