
     RDKit          3D

 31 33  0  0  0  0  0  0  0  0999 V2000
   38.5910   23.3320   38.2560 C   0  0  0  0  0  0  0  0  0  0  0  0
   38.0560   24.4280   37.5830 C   0  0  0  0  0  0  0  0  0  0  0  0
   38.6440   24.7760   36.3600 C   0  0  0  0  0  0  0  0  0  0  0  0
   39.6900   24.0240   35.9190 N   0  0  0  0  0  0  0  0  0  0  0  0
   40.1740   22.9700   36.6080 C   0  0  0  0  0  0  0  0  0  0  0  0
   39.6120   22.6300   37.7850 N   0  0  0  0  0  0  0  0  0  0  0  0
   41.2720   22.2050   36.1170 N   0  0  0  0  0  0  0  0  0  0  0  0
   41.3160   21.8240   34.7520 C   0  0  0  0  0  0  0  0  0  0  0  0
   40.2540   22.0230   34.0140 N   0  0  0  0  0  0  0  0  0  0  0  0
   42.4960   21.2360   34.1960 N   0  0  0  0  0  0  0  0  0  0  0  0
   40.2940   21.7190   33.0040 H   0  0  0  0  0  0  0  0  0  0  0  0
   38.1730   25.8630   35.6110 N   0  0  0  0  0  0  0  0  0  0  0  0
   38.2070   27.1420   36.0050 C   0  0  0  0  0  0  0  0  0  0  0  0
   37.6730   27.9290   35.0460 N   0  0  0  0  0  0  0  0  0  0  0  0
   37.3070   27.1110   34.0520 C   0  0  0  0  0  0  0  0  0  0  0  0
   36.7090   27.4510   32.8430 C   0  0  0  0  0  0  0  0  0  0  0  0
   36.4320   26.4170   31.9870 N   0  0  0  0  0  0  0  0  0  0  0  0
   36.7470   25.1500   32.3500 C   0  0  0  0  0  0  0  0  0  0  0  0
   37.3300   24.8050   33.5260 N   0  0  0  0  0  0  0  0  0  0  0  0
   37.6200   25.8030   34.4000 C   0  0  0  0  0  0  0  0  0  0  0  0
   36.4080   24.0940   31.3570 C   0  0  0  0  0  0  0  0  0  0  0  0
   37.3550   24.0590   30.3330 F   0  0  0  0  0  0  0  0  0  0  0  0
   35.2130   24.4150   30.7130 F   0  0  0  0  0  0  0  0  0  0  0  0
   36.2400   22.8710   31.9360 F   0  0  0  0  0  0  0  0  0  0  0  0
   38.1477   23.0367   39.2185 H   0  0  0  0  0  0  0  0  0  0  0  0
   37.2083   24.9958   37.9941 H   0  0  0  0  0  0  0  0  0  0  0  0
   42.0332   21.9291   36.7536 H   0  0  0  0  0  0  0  0  0  0  0  0
   42.5166   20.9631   33.2030 H   0  0  0  0  0  0  0  0  0  0  0  0
   43.3248   21.0856   34.7887 H   0  0  0  0  0  0  0  0  0  0  0  0
   38.6091   27.4982   36.9649 H   0  0  0  0  0  0  0  0  0  0  0  0
   36.4711   28.4941   32.5875 H   0  0  0  0  0  0  0  0  0  0  0  0
  2  1  2  0
  3  2  1  0
  4  3  2  0
  4  5  1  0
  5  6  2  0
  6  1  1  0
  7  5  1  0
  8  7  1  0
  9  8  2  0
 10  8  1  0
 11  9  1  0
 12 13  1  0
 12  3  1  0
 14 13  2  0
 15 20  2  0
 15 14  1  0
 16 15  1  0
 17 18  1  0
 17 16  2  0
 18 19  2  0
 19 20  1  0
 20 12  1  0
 21 24  1  0
 21 18  1  0
 22 21  1  0
 23 21  1  0
  1 25  1  0
  2 26  1  0
  7 27  1  0
 10 28  1  0
 10 29  1  0
 13 30  1  0
 16 31  1  0
M  ISO  4  25  14  26  14  30  14  31  14
M  END
>  <minimizedAffinity>  (1) 
-5.96262217

>  <minimizedRMSD>  (1) 
4.25635672

$$$$
