
     RDKit          3D

 38 39  0  0  0  0  0  0  0  0999 V2000
   41.9330   22.4450   37.0580 C   0  0  0  0  0  0  0  0  0  0  0  0
   40.5720   21.8050   36.7420 C   0  0  0  0  0  0  0  0  0  0  0  0
   39.5890   22.8960   36.9280 C   0  0  0  0  0  0  0  0  0  0  0  0
   39.0040   23.1280   38.1810 C   0  0  0  0  0  0  0  0  0  0  0  0
   38.0990   24.1700   38.2930 C   0  0  0  0  0  0  0  0  0  0  0  0
   37.8210   24.9190   37.1830 N   0  0  0  0  0  0  0  0  0  0  0  0
   38.4060   24.6610   36.0010 C   0  0  0  0  0  0  0  0  0  0  0  0
   39.2650   23.6750   35.8850 N   0  0  0  0  0  0  0  0  0  0  0  0
   42.2300   23.5060   36.1150 N   0  0  0  0  0  0  0  0  0  0  0  0
   43.3770   24.3650   36.0900 C   0  0  0  0  0  0  0  0  0  0  0  0
   43.3150   25.2430   35.0440 C   0  0  0  0  0  0  0  0  0  0  0  0
   44.3290   26.1630   34.8090 C   0  0  0  0  0  0  0  0  0  0  0  0
   45.4200   26.2010   35.6440 N   0  0  0  0  0  0  0  0  0  0  0  0
   45.4530   25.3190   36.6760 C   0  0  0  0  0  0  0  0  0  0  0  0
   44.4790   24.4090   36.9260 N   0  0  0  0  0  0  0  0  0  0  0  0
   46.5690   25.2480   37.6550 C   0  0  0  0  0  0  0  0  0  0  0  0
   46.0130   25.3980   39.0570 C   0  0  0  0  0  0  0  0  0  0  0  0
   47.3150   23.9200   37.5210 C   0  0  0  0  0  0  0  0  0  0  0  0
   47.5910   26.3260   37.4450 C   0  0  0  0  0  0  0  0  0  0  0  0
   41.9087   22.8622   38.0755 H   0  0  0  0  0  0  0  0  0  0  0  0
   42.7136   21.6738   36.9812 H   0  0  0  0  0  0  0  0  0  0  0  0
   40.3645   20.9745   37.4328 H   0  0  0  0  0  0  0  0  0  0  0  0
   40.5371   21.3832   35.7267 H   0  0  0  0  0  0  0  0  0  0  0  0
   39.2564   22.5011   39.0489 H   0  0  0  0  0  0  0  0  0  0  0  0
   37.6136   24.3908   39.2551 H   0  0  0  0  0  0  0  0  0  0  0  0
   38.1635   25.2802   35.1247 H   0  0  0  0  0  0  0  0  0  0  0  0
   41.5322   23.6610   35.3735 H   0  0  0  0  0  0  0  0  0  0  0  0
   42.4431   25.2205   34.3737 H   0  0  0  0  0  0  0  0  0  0  0  0
   44.2591   26.8576   33.9589 H   0  0  0  0  0  0  0  0  0  0  0  0
   46.8047   25.1844   39.7902 H   0  0  0  0  0  0  0  0  0  0  0  0
   45.6493   26.4264   39.1991 H   0  0  0  0  0  0  0  0  0  0  0  0
   45.1815   24.6921   39.1991 H   0  0  0  0  0  0  0  0  0  0  0  0
   47.5384   23.5223   38.5220 H   0  0  0  0  0  0  0  0  0  0  0  0
   46.6886   23.2013   36.9723 H   0  0  0  0  0  0  0  0  0  0  0  0
   48.2547   24.0810   36.9723 H   0  0  0  0  0  0  0  0  0  0  0  0
   47.9407   26.6948   38.4206 H   0  0  0  0  0  0  0  0  0  0  0  0
   48.4426   25.9189   36.8802 H   0  0  0  0  0  0  0  0  0  0  0  0
   47.1391   27.1547   36.8802 H   0  0  0  0  0  0  0  0  0  0  0  0
  2  3  1  0
  2  1  1  0
  3  4  2  0
  4  5  1  0
  6  5  2  0
  7  6  1  0
  8  7  2  0
  8  3  1  0
  9  1  1  0
 10  9  1  0
 10 15  1  0
 11 10  2  0
 12 11  1  0
 12 13  2  0
 13 14  1  0
 14 15  2  0
 14 16  1  0
 16 17  1  0
 18 16  1  0
 19 16  1  0
  1 20  1  0
  1 21  1  0
  2 22  1  0
  2 23  1  0
  4 24  1  0
  5 25  1  0
  7 26  1  0
  9 27  1  0
 11 28  1  0
 12 29  1  0
 17 30  1  0
 17 31  1  0
 17 32  1  0
 18 33  1  0
 18 34  1  0
 18 35  1  0
 19 36  1  0
 19 37  1  0
 19 38  1  0
M  ISO  8  20   8  21   8  22   8  23   8  24  14  25  14  26  14  28  14
M  ISO  8  29  14  30   8  31   8  32   8  33   8  34   8  35   8  36   8
M  ISO  2  37   8  38   8
M  END
>  <minimizedAffinity>  (1) 
-4.67195415

>  <minimizedRMSD>  (1) 
1.41901529

$$$$
