
     RDKit          3D

 36 38  0  0  0  0  0  0  0  0999 V2000
   42.0780   23.6680   35.9220 N   0  0  0  0  0  0  0  0  0  0  0  0
   43.1360   24.6030   35.7080 C   0  0  0  0  0  0  0  0  0  0  0  0
   42.7980   25.5450   34.7790 C   0  0  0  0  0  0  0  0  0  0  0  0
   43.7020   26.5310   34.4020 C   0  0  0  0  0  0  0  0  0  0  0  0
   44.9400   26.5760   34.9520 N   0  0  0  0  0  0  0  0  0  0  0  0
   45.2750   25.6380   35.8790 C   0  0  0  0  0  0  0  0  0  0  0  0
   44.3790   24.6730   36.2430 N   0  0  0  0  0  0  0  0  0  0  0  0
   46.5560   25.5400   36.5680 C   0  0  0  0  0  0  0  0  0  0  0  0
   46.5660   24.6210   37.6100 C   0  0  0  0  0  0  0  0  0  0  0  0
   47.7070   24.3890   38.3870 C   0  0  0  0  0  0  0  0  0  0  0  0
   48.8010   25.1380   38.0330 C   0  0  0  0  0  0  0  0  0  0  0  0
   48.8390   26.0600   37.0080 C   0  0  0  0  0  0  0  0  0  0  0  0
   47.6900   26.2580   36.2670 C   0  0  0  0  0  0  0  0  0  0  0  0
   41.9690   22.6680   36.9670 C   0  0  0  0  0  0  0  0  0  0  0  0
   40.6540   21.8670   36.7870 C   0  0  0  0  0  0  0  0  0  0  0  0
   39.5900   22.8850   36.9540 C   0  0  0  0  0  0  0  0  0  0  0  0
   39.0540   23.1840   38.2150 C   0  0  0  0  0  0  0  0  0  0  0  0
   38.0640   24.1560   38.2780 C   0  0  0  0  0  0  0  0  0  0  0  0
   37.6600   24.7690   37.1180 N   0  0  0  0  0  0  0  0  0  0  0  0
   38.2020   24.4490   35.9320 C   0  0  0  0  0  0  0  0  0  0  0  0
   39.1390   23.5350   35.8510 N   0  0  0  0  0  0  0  0  0  0  0  0
   41.2966   23.7087   35.2522 H   0  0  0  0  0  0  0  0  0  0  0  0
   41.7972   25.5231   34.3231 H   0  0  0  0  0  0  0  0  0  0  0  0
   43.4106   27.2806   33.6515 H   0  0  0  0  0  0  0  0  0  0  0  0
   45.6476   24.0575   37.8315 H   0  0  0  0  0  0  0  0  0  0  0  0
   47.7252   23.6647   39.2147 H   0  0  0  0  0  0  0  0  0  0  0  0
   49.7232   24.9910   38.6144 H   0  0  0  0  0  0  0  0  0  0  0  0
   49.7584   26.6219   36.7867 H   0  0  0  0  0  0  0  0  0  0  0  0
   47.6820   26.9851   35.4416 H   0  0  0  0  0  0  0  0  0  0  0  0
   42.8265   21.9816   36.9074 H   0  0  0  0  0  0  0  0  0  0  0  0
   41.9619   23.1651   37.9482 H   0  0  0  0  0  0  0  0  0  0  0  0
   40.5669   21.0810   37.5516 H   0  0  0  0  0  0  0  0  0  0  0  0
   40.6003   21.3530   35.8160 H   0  0  0  0  0  0  0  0  0  0  0  0
   39.4048   22.6677   39.1208 H   0  0  0  0  0  0  0  0  0  0  0  0
   37.6108   24.4303   39.2420 H   0  0  0  0  0  0  0  0  0  0  0  0
   37.8570   24.9581   35.0200 H   0  0  0  0  0  0  0  0  0  0  0  0
  1 14  1  0
  2  1  1  0
  2  7  1  0
  3  2  2  0
  4  3  1  0
  4  5  2  0
  5  6  1  0
  6  7  2  0
  6  8  1  0
  8  9  2  0
  9 10  1  0
 11 10  2  0
 12 11  1  0
 13  8  1  0
 13 12  2  0
 15 16  1  0
 15 14  1  0
 16 17  2  0
 17 18  1  0
 19 18  2  0
 20 19  1  0
 21 20  2  0
 21 16  1  0
  1 22  1  0
  3 23  1  0
  4 24  1  0
  9 25  1  0
 10 26  1  0
 11 27  1  0
 12 28  1  0
 13 29  1  0
 14 30  1  0
 14 31  1  0
 15 32  1  0
 15 33  1  0
 17 34  1  0
 18 35  1  0
 20 36  1  0
M  ISO  8  23  14  24  14  25  14  26  14  27  14  28  14  29  14  30   8
M  ISO  6  31   8  32   8  33   8  34  14  35  14  36  14
M  END
>  <minimizedAffinity>  (1) 
-4.66266584

>  <minimizedRMSD>  (1) 
0.955359042

$$$$
