
     RDKit          3D

 41 43  0  0  0  0  0  0  0  0999 V2000
   41.9620   23.6190   35.8840 N   0  0  0  0  0  0  0  0  0  0  0  0
   43.0050   24.5710   35.6460 C   0  0  0  0  0  0  0  0  0  0  0  0
   42.6540   25.5010   34.7140 C   0  0  0  0  0  0  0  0  0  0  0  0
   43.5100   26.5000   34.3190 C   0  0  0  0  0  0  0  0  0  0  0  0
   44.7620   26.5790   34.8710 N   0  0  0  0  0  0  0  0  0  0  0  0
   45.1150   25.6610   35.7990 C   0  0  0  0  0  0  0  0  0  0  0  0
   44.2470   24.6730   36.1770 N   0  0  0  0  0  0  0  0  0  0  0  0
   46.3890   25.6700   36.4200 N   0  0  0  0  0  0  0  0  0  0  0  0
   46.5770   25.1790   37.7720 C   0  0  0  0  0  0  0  0  0  0  0  0
   47.9880   24.6930   37.9860 C   0  0  0  0  0  0  0  0  0  0  0  0
   49.0500   25.6730   37.6220 C   0  0  0  0  0  0  0  0  0  0  0  0
   48.5240   26.7800   36.7730 C   0  0  0  0  0  0  0  0  0  0  0  0
   47.5720   26.1680   35.7490 C   0  0  0  0  0  0  0  0  0  0  0  0
   41.9010   22.6140   36.9240 C   0  0  0  0  0  0  0  0  0  0  0  0
   40.5710   21.8330   36.8340 C   0  0  0  0  0  0  0  0  0  0  0  0
   39.5240   22.8640   36.9860 C   0  0  0  0  0  0  0  0  0  0  0  0
   39.0270   23.2130   38.2500 C   0  0  0  0  0  0  0  0  0  0  0  0
   38.0430   24.1970   38.2980 C   0  0  0  0  0  0  0  0  0  0  0  0
   37.6090   24.7690   37.1320 N   0  0  0  0  0  0  0  0  0  0  0  0
   38.1160   24.4000   35.9440 C   0  0  0  0  0  0  0  0  0  0  0  0
   39.0440   23.4750   35.8760 N   0  0  0  0  0  0  0  0  0  0  0  0
   41.1601   23.6535   35.2386 H   0  0  0  0  0  0  0  0  0  0  0  0
   41.6520   25.4501   34.2630 H   0  0  0  0  0  0  0  0  0  0  0  0
   43.1921   27.2332   33.5631 H   0  0  0  0  0  0  0  0  0  0  0  0
   46.3667   25.9929   38.4815 H   0  0  0  0  0  0  0  0  0  0  0  0
   45.8903   24.3350   37.9340 H   0  0  0  0  0  0  0  0  0  0  0  0
   48.1052   24.4414   39.0504 H   0  0  0  0  0  0  0  0  0  0  0  0
   48.1221   23.8296   37.3178 H   0  0  0  0  0  0  0  0  0  0  0  0
   49.4685   26.1016   38.5446 H   0  0  0  0  0  0  0  0  0  0  0  0
   49.8198   25.1397   37.0449 H   0  0  0  0  0  0  0  0  0  0  0  0
   47.9849   27.5074   37.3977 H   0  0  0  0  0  0  0  0  0  0  0  0
   49.3492   27.3028   36.2673 H   0  0  0  0  0  0  0  0  0  0  0  0
   48.0756   25.3382   35.2315 H   0  0  0  0  0  0  0  0  0  0  0  0
   47.2802   26.9362   35.0177 H   0  0  0  0  0  0  0  0  0  0  0  0
   42.7417   21.9149   36.8035 H   0  0  0  0  0  0  0  0  0  0  0  0
   41.9612   23.1084   37.9048 H   0  0  0  0  0  0  0  0  0  0  0  0
   40.4815   21.3289   35.8604 H   0  0  0  0  0  0  0  0  0  0  0  0
   40.4963   21.0459   37.5987 H   0  0  0  0  0  0  0  0  0  0  0  0
   39.3990   22.7296   39.1654 H   0  0  0  0  0  0  0  0  0  0  0  0
   37.6186   24.5117   39.2628 H   0  0  0  0  0  0  0  0  0  0  0  0
   37.7508   24.8764   35.0223 H   0  0  0  0  0  0  0  0  0  0  0  0
  1 14  1  0
  2  1  1  0
  2  7  1  0
  3  2  2  0
  4  3  1  0
  4  5  2  0
  5  6  1  0
  6  7  2  0
  6  8  1  0
  8  9  1  0
  9 10  1  0
 11 10  1  0
 12 11  1  0
 13  8  1  0
 13 12  1  0
 15 14  1  0
 15 16  1  0
 16 17  2  0
 17 18  1  0
 19 18  2  0
 20 19  1  0
 21 20  2  0
 21 16  1  0
  1 22  1  0
  3 23  1  0
  4 24  1  0
  9 25  1  0
  9 26  1  0
 10 27  1  0
 10 28  1  0
 11 29  1  0
 11 30  1  0
 12 31  1  0
 12 32  1  0
 13 33  1  0
 13 34  1  0
 14 35  1  0
 14 36  1  0
 15 37  1  0
 15 38  1  0
 17 39  1  0
 18 40  1  0
 20 41  1  0
M  ISO  8  23  14  24  14  25  13  26  13  27  13  28  13  29  13  30  13
M  ISO  8  31  13  32  13  33  13  34  13  35   8  36   8  37   8  38   8
M  ISO  3  39  14  40  14  41  14
M  END
>  <minimizedAffinity>  (1) 
-4.71852064

>  <minimizedRMSD>  (1) 
0.713134348

$$$$
