
     RDKit          3D

 39 41  0  0  0  0  0  0  0  0999 V2000
   41.9590   25.8510   34.4580 C   0  0  0  0  0  0  0  0  0  0  0  0
   41.7280   27.1080   33.9070 C   0  0  0  0  0  0  0  0  0  0  0  0
   40.5560   27.3970   33.2120 C   0  0  0  0  0  0  0  0  0  0  0  0
   39.6040   26.4170   33.0630 N   0  0  0  0  0  0  0  0  0  0  0  0
   39.8600   25.2020   33.6090 C   0  0  0  0  0  0  0  0  0  0  0  0
   40.9800   24.8780   34.2920 N   0  0  0  0  0  0  0  0  0  0  0  0
   37.1060   21.9600   33.4180 C   0  0  0  0  0  0  0  0  0  0  0  0
   37.0600   22.9770   32.4610 C   0  0  0  0  0  0  0  0  0  0  0  0
   37.9440   24.0380   32.5040 C   0  0  0  0  0  0  0  0  0  0  0  0
   38.8860   24.1250   33.4790 C   0  0  0  0  0  0  0  0  0  0  0  0
   38.9310   23.1190   34.4240 C   0  0  0  0  0  0  0  0  0  0  0  0
   38.0750   22.0660   34.4050 C   0  0  0  0  0  0  0  0  0  0  0  0
   35.9740   20.6490   33.3190 S   0  0  0  0  0  0  0  0  0  0  0  0
   35.4250   20.4170   34.7150 O   0  0  0  0  0  0  0  0  0  0  0  0
   34.8140   21.0650   32.4710 O   0  0  0  0  0  0  0  0  0  0  0  0
   43.2230   25.8350   35.1170 N   0  0  0  0  0  0  0  0  0  0  0  0
   44.3600   24.9870   34.8070 C   0  0  0  0  0  0  0  0  0  0  0  0
   44.4840   23.8580   35.8430 C   0  0  0  0  0  0  0  0  0  0  0  0
   45.1170   24.5040   37.0150 C   0  0  0  0  0  0  0  0  0  0  0  0
   46.4500   24.2550   37.3700 C   0  0  0  0  0  0  0  0  0  0  0  0
   46.9690   24.9050   38.4740 C   0  0  0  0  0  0  0  0  0  0  0  0
   46.1700   25.7580   39.1730 N   0  0  0  0  0  0  0  0  0  0  0  0
   44.8860   25.9750   38.8030 C   0  0  0  0  0  0  0  0  0  0  0  0
   44.3900   25.3600   37.7550 N   0  0  0  0  0  0  0  0  0  0  0  0
   42.4900   27.8928   34.0233 H   0  0  0  0  0  0  0  0  0  0  0  0
   40.3942   28.3986   32.7871 H   0  0  0  0  0  0  0  0  0  0  0  0
   36.3074   22.9322   31.6600 H   0  0  0  0  0  0  0  0  0  0  0  0
   37.8841   24.8243   31.7371 H   0  0  0  0  0  0  0  0  0  0  0  0
   39.6877   23.1731   35.2206 H   0  0  0  0  0  0  0  0  0  0  0  0
   38.1503   21.2889   35.1799 H   0  0  0  0  0  0  0  0  0  0  0  0
   36.5855   19.5375   32.8018 H   0  0  0  0  0  0  0  0  0  0  0  0
   43.3426   26.4965   35.8974 H   0  0  0  0  0  0  0  0  0  0  0  0
   44.2234   24.5485   33.8075 H   0  0  0  0  0  0  0  0  0  0  0  0
   45.2761   25.5954   34.8305 H   0  0  0  0  0  0  0  0  0  0  0  0
   43.4928   23.4598   36.1058 H   0  0  0  0  0  0  0  0  0  0  0  0
   45.0683   23.0052   35.4670 H   0  0  0  0  0  0  0  0  0  0  0  0
   47.0682   23.5590   36.7840 H   0  0  0  0  0  0  0  0  0  0  0  0
   48.0111   24.7359   38.7831 H   0  0  0  0  0  0  0  0  0  0  0  0
   44.2574   26.6679   39.3816 H   0  0  0  0  0  0  0  0  0  0  0  0
  1 16  1  0
  2  1  2  0
  3  2  1  0
  4  3  2  0
  4  5  1  0
  5  6  2  0
  6  1  1  0
  7 12  2  0
  8  9  2  0
  8  7  1  0
  9 10  1  0
 10  5  1  0
 10 11  2  0
 12 11  1  0
 13  7  1  0
 13 14  2  0
 15 13  2  0
 17 16  1  0
 17 18  1  0
 18 19  1  0
 19 20  2  0
 19 24  1  0
 20 21  1  0
 21 22  2  0
 23 22  1  0
 24 23  2  0
  2 25  1  0
  3 26  1  0
  8 27  1  0
  9 28  1  0
 11 29  1  0
 12 30  1  0
 13 31  1  0
 16 32  1  0
 17 33  1  0
 17 34  1  0
 18 35  1  0
 18 36  1  0
 20 37  1  0
 21 38  1  0
 23 39  1  0
M  ISO  8  25  14  26  14  27  14  28  14  29  14  30  14  31  11  33   8
M  ISO  6  34   8  35   8  36   8  37  14  38  14  39  14
M  END
>  <minimizedAffinity>  (1) 
-4.70828104

>  <minimizedRMSD>  (1) 
9.29585743

$$$$
