
     RDKit          3D

 33 35  0  0  0  0  0  0  0  0999 V2000
   41.7760   22.3230   37.1260 C   0  0  0  0  0  0  0  0  0  0  0  0
   40.3600   21.7820   36.8320 C   0  0  0  0  0  0  0  0  0  0  0  0
   39.4740   22.9520   37.0520 C   0  0  0  0  0  0  0  0  0  0  0  0
   38.8850   23.1910   38.3040 C   0  0  0  0  0  0  0  0  0  0  0  0
   38.0770   24.3120   38.4320 C   0  0  0  0  0  0  0  0  0  0  0  0
   37.8930   25.1200   37.3460 N   0  0  0  0  0  0  0  0  0  0  0  0
   38.4760   24.8530   36.1660 C   0  0  0  0  0  0  0  0  0  0  0  0
   39.2420   23.7960   36.0330 N   0  0  0  0  0  0  0  0  0  0  0  0
   42.2430   23.1290   36.0160 N   0  0  0  0  0  0  0  0  0  0  0  0
   43.2220   24.1650   36.0180 C   0  0  0  0  0  0  0  0  0  0  0  0
   43.1830   24.8890   34.8550 C   0  0  0  0  0  0  0  0  0  0  0  0
   44.0770   25.9350   34.6380 C   0  0  0  0  0  0  0  0  0  0  0  0
   45.0080   26.2550   35.5870 N   0  0  0  0  0  0  0  0  0  0  0  0
   45.0260   25.5240   36.7340 C   0  0  0  0  0  0  0  0  0  0  0  0
   44.1630   24.5020   36.9590 N   0  0  0  0  0  0  0  0  0  0  0  0
   46.0220   25.8630   37.7560 C   0  0  0  0  0  0  0  0  0  0  0  0
   45.4470   26.4740   39.0770 C   0  0  0  0  0  0  0  0  0  0  0  0
   46.0700   25.1450   39.0600 C   0  0  0  0  0  0  0  0  0  0  0  0
   41.7478   22.9396   38.0365 H   0  0  0  0  0  0  0  0  0  0  0  0
   42.4623   21.4752   37.2684 H   0  0  0  0  0  0  0  0  0  0  0  0
   40.1039   20.9631   37.5203 H   0  0  0  0  0  0  0  0  0  0  0  0
   40.2682   21.3672   35.8174 H   0  0  0  0  0  0  0  0  0  0  0  0
   39.0579   22.5137   39.1533 H   0  0  0  0  0  0  0  0  0  0  0  0
   37.5929   24.5459   39.3917 H   0  0  0  0  0  0  0  0  0  0  0  0
   38.3109   25.5222   35.3087 H   0  0  0  0  0  0  0  0  0  0  0  0
   41.8097   22.9262   35.1038 H   0  0  0  0  0  0  0  0  0  0  0  0
   42.4378   24.6415   34.0847 H   0  0  0  0  0  0  0  0  0  0  0  0
   44.0338   26.5062   33.6989 H   0  0  0  0  0  0  0  0  0  0  0  0
   46.7778   26.1035   36.9938 H   0  0  0  0  0  0  0  0  0  0  0  0
   45.9569   27.3182   39.5642 H   0  0  0  0  0  0  0  0  0  0  0  0
   44.4767   26.8824   39.3960 H   0  0  0  0  0  0  0  0  0  0  0  0
   45.4425   24.2537   39.2079 H   0  0  0  0  0  0  0  0  0  0  0  0
   46.8853   24.6868   39.6391 H   0  0  0  0  0  0  0  0  0  0  0  0
  2  3  1  0
  2  1  1  0
  3  4  2  0
  4  5  1  0
  6  5  2  0
  7  6  1  0
  8  7  2  0
  8  3  1  0
  9 10  1  0
  9  1  1  0
 10 15  1  0
 11 10  2  0
 12 11  1  0
 12 13  2  0
 13 14  1  0
 14 15  2  0
 14 16  1  0
 16 18  1  0
 16 17  1  0
 18 17  1  0
  1 19  1  0
  1 20  1  0
  2 21  1  0
  2 22  1  0
  4 23  1  0
  5 24  1  0
  7 25  1  0
  9 26  1  0
 11 27  1  0
 12 28  1  0
 16 29  1  0
 17 30  1  0
 17 31  1  0
 18 32  1  0
 18 33  1  0
M  ISO  8  19   8  20   8  21   8  22   8  23  14  24  14  25  14  27  14
M  ISO  6  28  14  29  13  30  13  31  13  32  13  33  13
M  END
>  <minimizedAffinity>  (1) 
-4.48365784

>  <minimizedRMSD>  (1) 
1.36952055

$$$$
