
     RDKit          3D

 29 30  0  0  0  0  0  0  0  0999 V2000
   42.0780   22.8260   36.9840 C   0  0  0  0  0  0  0  0  0  0  0  0
   40.8930   21.8380   37.0810 C   0  0  0  0  0  0  0  0  0  0  0  0
   39.7000   22.7110   37.1750 C   0  0  0  0  0  0  0  0  0  0  0  0
   39.2440   23.1930   38.4110 C   0  0  0  0  0  0  0  0  0  0  0  0
   38.1180   24.0110   38.4020 C   0  0  0  0  0  0  0  0  0  0  0  0
   37.5210   24.3030   37.2100 N   0  0  0  0  0  0  0  0  0  0  0  0
   37.9910   23.8190   36.0500 C   0  0  0  0  0  0  0  0  0  0  0  0
   39.0490   23.0460   36.0300 N   0  0  0  0  0  0  0  0  0  0  0  0
   41.9060   23.6840   35.8280 N   0  0  0  0  0  0  0  0  0  0  0  0
   42.7590   24.7500   35.3990 C   0  0  0  0  0  0  0  0  0  0  0  0
   42.1320   25.5620   34.4930 C   0  0  0  0  0  0  0  0  0  0  0  0
   42.8000   26.6460   33.9340 C   0  0  0  0  0  0  0  0  0  0  0  0
   44.0810   26.9190   34.2740 N   0  0  0  0  0  0  0  0  0  0  0  0
   44.6990   26.1070   35.1770 C   0  0  0  0  0  0  0  0  0  0  0  0
   44.0480   25.0480   35.7240 N   0  0  0  0  0  0  0  0  0  0  0  0
   46.0750   26.2020   35.6990 C   0  0  0  0  0  0  0  0  0  0  0  0
   42.1156   23.4423   37.8944 H   0  0  0  0  0  0  0  0  0  0  0  0
   43.0160   22.2606   36.8815 H   0  0  0  0  0  0  0  0  0  0  0  0
   40.8412   21.2015   36.1854 H   0  0  0  0  0  0  0  0  0  0  0  0
   40.9834   21.1538   37.9376 H   0  0  0  0  0  0  0  0  0  0  0  0
   39.7559   22.9348   39.3498 H   0  0  0  0  0  0  0  0  0  0  0  0
   37.7151   24.4162   39.3419 H   0  0  0  0  0  0  0  0  0  0  0  0
   37.4837   24.0733   35.1077 H   0  0  0  0  0  0  0  0  0  0  0  0
   41.0734   23.5056   35.2484 H   0  0  0  0  0  0  0  0  0  0  0  0
   41.0908   25.3554   34.2046 H   0  0  0  0  0  0  0  0  0  0  0  0
   42.2813   27.2887   33.2074 H   0  0  0  0  0  0  0  0  0  0  0  0
   46.0509   26.2003   36.7987 H   0  0  0  0  0  0  0  0  0  0  0  0
   46.6621   25.3422   35.3438 H   0  0  0  0  0  0  0  0  0  0  0  0
   46.5384   27.1343   35.3438 H   0  0  0  0  0  0  0  0  0  0  0  0
  1  2  1  0
  2  3  1  0
  3  4  2  0
  5  4  1  0
  6  5  2  0
  7  6  1  0
  8  7  2  0
  8  3  1  0
  9  1  1  0
 10 15  1  0
 10  9  1  0
 11 10  2  0
 12 13  2  0
 12 11  1  0
 13 14  1  0
 14 16  1  0
 14 15  2  0
  1 17  1  0
  1 18  1  0
  2 19  1  0
  2 20  1  0
  4 21  1  0
  5 22  1  0
  7 23  1  0
  9 24  1  0
 11 25  1  0
 12 26  1  0
 16 27  1  0
 16 28  1  0
 16 29  1  0
M  ISO  8  17   8  18   8  19   8  20   8  21  14  22  14  23  14  25  14
M  ISO  4  26  14  27   8  28   8  29   8
M  END
>  <minimizedAffinity>  (1) 
-3.72024584

>  <minimizedRMSD>  (1) 
0.388678998

$$$$
