
     RDKit          3D

 27 28  0  0  0  0  0  0  0  0999 V2000
   41.8440   22.3280   37.0190 C   0  0  0  0  0  0  0  0  0  0  0  0
   40.4550   21.8200   36.5840 C   0  0  0  0  0  0  0  0  0  0  0  0
   39.5420   22.9450   36.8950 C   0  0  0  0  0  0  0  0  0  0  0  0
   38.9680   23.0970   38.1650 C   0  0  0  0  0  0  0  0  0  0  0  0
   38.1330   24.1840   38.3610 C   0  0  0  0  0  0  0  0  0  0  0  0
   37.9060   25.0480   37.3330 N   0  0  0  0  0  0  0  0  0  0  0  0
   38.4780   24.8660   36.1250 C   0  0  0  0  0  0  0  0  0  0  0  0
   39.2710   23.8400   35.9250 N   0  0  0  0  0  0  0  0  0  0  0  0
   42.3470   23.2810   36.0480 N   0  0  0  0  0  0  0  0  0  0  0  0
   43.3840   24.2540   36.2370 C   0  0  0  0  0  0  0  0  0  0  0  0
   43.6050   24.9770   35.1000 C   0  0  0  0  0  0  0  0  0  0  0  0
   44.5690   25.9700   35.0370 C   0  0  0  0  0  0  0  0  0  0  0  0
   45.3250   26.2390   36.1400 N   0  0  0  0  0  0  0  0  0  0  0  0
   45.0980   25.5140   37.2700 C   0  0  0  0  0  0  0  0  0  0  0  0
   44.1580   24.5370   37.3490 N   0  0  0  0  0  0  0  0  0  0  0  0
   45.9860   25.7230   38.8100 S   0  0  0  0  0  0  0  0  0  0  0  0
   41.7626   22.8165   38.0012 H   0  0  0  0  0  0  0  0  0  0  0  0
   42.5373   21.4765   37.0837 H   0  0  0  0  0  0  0  0  0  0  0  0
   40.1733   20.9208   37.1515 H   0  0  0  0  0  0  0  0  0  0  0  0
   40.4247   21.5343   35.5222 H   0  0  0  0  0  0  0  0  0  0  0  0
   39.1730   22.3806   38.9742 H   0  0  0  0  0  0  0  0  0  0  0  0
   37.6569   24.3483   39.3389 H   0  0  0  0  0  0  0  0  0  0  0  0
   38.2800   25.5765   35.3090 H   0  0  0  0  0  0  0  0  0  0  0  0
   41.9094   23.2562   35.1159 H   0  0  0  0  0  0  0  0  0  0  0  0
   42.9992   24.7645   34.2068 H   0  0  0  0  0  0  0  0  0  0  0  0
   44.7232   26.5360   34.1065 H   0  0  0  0  0  0  0  0  0  0  0  0
   45.1308   25.5217   39.8612 H   0  0  0  0  0  0  0  0  0  0  0  0
  2  3  1  0
  2  1  1  0
  3  4  2  0
  4  5  1  0
  6  5  2  0
  7  6  1  0
  8  7  2  0
  8  3  1  0
  9 10  1  0
  9  1  1  0
 10 15  1  0
 11 10  2  0
 12 11  1  0
 12 13  2  0
 13 14  1  0
 14 15  2  0
 14 16  1  0
  1 17  1  0
  1 18  1  0
  2 19  1  0
  2 20  1  0
  4 21  1  0
  5 22  1  0
  7 23  1  0
  9 24  1  0
 11 25  1  0
 12 26  1  0
 16 27  1  0
M  ISO  8  17   8  18   8  19   8  20   8  21  14  22  14  23  14  25  14
M  ISO  2  26  14  27  11
M  END
>  <minimizedAffinity>  (1) 
-3.91517305

>  <minimizedRMSD>  (1) 
1.3516314

$$$$
