
     RDKit          3D

 32 33  0  0  0  0  0  0  0  0999 V2000
   41.9180   22.5290   37.0230 C   0  0  0  0  0  0  0  0  0  0  0  0
   40.5900   21.8200   36.6980 C   0  0  0  0  0  0  0  0  0  0  0  0
   39.5570   22.8610   36.9020 C   0  0  0  0  0  0  0  0  0  0  0  0
   39.0580   23.1500   38.1810 C   0  0  0  0  0  0  0  0  0  0  0  0
   38.0950   24.1470   38.2810 C   0  0  0  0  0  0  0  0  0  0  0  0
   37.6820   24.7900   37.1530 N   0  0  0  0  0  0  0  0  0  0  0  0
   38.1930   24.4770   35.9370 C   0  0  0  0  0  0  0  0  0  0  0  0
   39.1030   23.5380   35.8340 N   0  0  0  0  0  0  0  0  0  0  0  0
   42.1900   23.5620   36.0410 N   0  0  0  0  0  0  0  0  0  0  0  0
   43.2830   24.4850   36.0150 C   0  0  0  0  0  0  0  0  0  0  0  0
   43.2690   25.2640   34.8970 C   0  0  0  0  0  0  0  0  0  0  0  0
   44.2220   26.2210   34.6370 C   0  0  0  0  0  0  0  0  0  0  0  0
   45.2410   26.4110   35.5410 N   0  0  0  0  0  0  0  0  0  0  0  0
   45.2440   25.6300   36.6530 C   0  0  0  0  0  0  0  0  0  0  0  0
   44.3090   24.6820   36.9180 N   0  0  0  0  0  0  0  0  0  0  0  0
   46.2820   25.7140   37.7310 C   0  0  0  0  0  0  0  0  0  0  0  0
   45.6470   25.6530   39.1140 C   0  0  0  0  0  0  0  0  0  0  0  0
   41.8507   22.9859   38.0214 H   0  0  0  0  0  0  0  0  0  0  0  0
   42.7330   21.7905   37.0011 H   0  0  0  0  0  0  0  0  0  0  0  0
   40.4259   20.9705   37.3773 H   0  0  0  0  0  0  0  0  0  0  0  0
   40.5737   21.4073   35.6785 H   0  0  0  0  0  0  0  0  0  0  0  0
   39.4149   22.6088   39.0696 H   0  0  0  0  0  0  0  0  0  0  0  0
   37.6708   24.4141   39.2601 H   0  0  0  0  0  0  0  0  0  0  0  0
   37.8454   25.0090   35.0392 H   0  0  0  0  0  0  0  0  0  0  0  0
   41.5136   23.6404   35.2682 H   0  0  0  0  0  0  0  0  0  0  0  0
   42.4575   25.1207   34.1683 H   0  0  0  0  0  0  0  0  0  0  0  0
   44.1700   26.8256   33.7195 H   0  0  0  0  0  0  0  0  0  0  0  0
   46.9826   24.8732   37.6206 H   0  0  0  0  0  0  0  0  0  0  0  0
   46.8094   26.6743   37.6322 H   0  0  0  0  0  0  0  0  0  0  0  0
   46.4315   25.7284   39.8813 H   0  0  0  0  0  0  0  0  0  0  0  0
   44.9395   26.4873   39.2298 H   0  0  0  0  0  0  0  0  0  0  0  0
   45.1113   24.6993   39.2298 H   0  0  0  0  0  0  0  0  0  0  0  0
  2  3  1  0
  2  1  1  0
  3  4  2  0
  4  5  1  0
  6  5  2  0
  7  6  1  0
  8  7  2  0
  8  3  1  0
  9  1  1  0
 10  9  1  0
 10 15  1  0
 11 10  2  0
 12 11  1  0
 12 13  2  0
 13 14  1  0
 14 15  2  0
 14 16  1  0
 16 17  1  0
  1 18  1  0
  1 19  1  0
  2 20  1  0
  2 21  1  0
  4 22  1  0
  5 23  1  0
  7 24  1  0
  9 25  1  0
 11 26  1  0
 12 27  1  0
 16 28  1  0
 16 29  1  0
 17 30  1  0
 17 31  1  0
 17 32  1  0
M  ISO  8  18   8  19   8  20   8  21   8  22  14  23  14  24  14  26  14
M  ISO  6  27  14  28   8  29   8  30   8  31   8  32   8
M  END
>  <minimizedAffinity>  (1) 
-4.28883934

>  <minimizedRMSD>  (1) 
1.10396791

$$$$
