
     RDKit          3D

 33 35  0  0  0  0  0  0  0  0999 V2000
   41.9760   23.6710   35.8420 N   0  0  0  0  0  0  0  0  0  0  0  0
   42.8760   24.7190   35.4760 C   0  0  0  0  0  0  0  0  0  0  0  0
   42.3360   25.5080   34.4950 C   0  0  0  0  0  0  0  0  0  0  0  0
   43.0560   26.5770   33.9650 C   0  0  0  0  0  0  0  0  0  0  0  0
   44.3160   26.8530   34.4200 N   0  0  0  0  0  0  0  0  0  0  0  0
   44.8260   26.0550   35.3960 C   0  0  0  0  0  0  0  0  0  0  0  0
   44.1420   25.0080   35.9250 N   0  0  0  0  0  0  0  0  0  0  0  0
   46.1540   26.2390   35.9690 C   0  0  0  0  0  0  0  0  0  0  0  0
   46.4790   25.7940   37.2510 C   0  0  0  0  0  0  0  0  0  0  0  0
   47.7770   26.0950   37.5320 N   0  0  0  0  0  0  0  0  0  0  0  0
   48.2330   26.7170   36.4310 C   0  0  0  0  0  0  0  0  0  0  0  0
   47.2740   26.8100   35.4890 N   0  0  0  0  0  0  0  0  0  0  0  0
   42.0490   22.7810   36.9840 C   0  0  0  0  0  0  0  0  0  0  0  0
   40.8140   21.8540   37.0180 C   0  0  0  0  0  0  0  0  0  0  0  0
   39.6630   22.7760   37.1200 C   0  0  0  0  0  0  0  0  0  0  0  0
   39.1730   23.1880   38.3680 C   0  0  0  0  0  0  0  0  0  0  0  0
   38.0980   24.0630   38.3910 C   0  0  0  0  0  0  0  0  0  0  0  0
   37.5670   24.4810   37.2040 N   0  0  0  0  0  0  0  0  0  0  0  0
   38.0670   24.0600   36.0080 C   0  0  0  0  0  0  0  0  0  0  0  0
   39.0840   23.2330   35.9970 N   0  0  0  0  0  0  0  0  0  0  0  0
   41.1722   23.5299   35.2137 H   0  0  0  0  0  0  0  0  0  0  0  0
   41.3233   25.2955   34.1216 H   0  0  0  0  0  0  0  0  0  0  0  0
   42.6091   27.2015   33.1774 H   0  0  0  0  0  0  0  0  0  0  0  0
   45.7888   25.2766   37.9336 H   0  0  0  0  0  0  0  0  0  0  0  0
   49.2573   27.1007   36.3141 H   0  0  0  0  0  0  0  0  0  0  0  0
   47.3800   27.2437   34.5608 H   0  0  0  0  0  0  0  0  0  0  0  0
   42.9604   22.1695   36.9103 H   0  0  0  0  0  0  0  0  0  0  0  0
   42.0727   23.3811   37.9056 H   0  0  0  0  0  0  0  0  0  0  0  0
   40.7520   21.2547   36.0976 H   0  0  0  0  0  0  0  0  0  0  0  0
   40.8514   21.1372   37.8515 H   0  0  0  0  0  0  0  0  0  0  0  0
   39.6287   22.8271   39.3018 H   0  0  0  0  0  0  0  0  0  0  0  0
   37.6808   24.4138   39.3465 H   0  0  0  0  0  0  0  0  0  0  0  0
   37.6229   24.4096   35.0643 H   0  0  0  0  0  0  0  0  0  0  0  0
  1 13  1  0
  2  1  1  0
  2  7  1  0
  3  2  2  0
  4  5  2  0
  4  3  1  0
  5  6  1  0
  6  7  2  0
  6  8  1  0
  8  9  2  0
  9 10  1  0
 11 10  2  0
 12  8  1  0
 12 11  1  0
 13 14  1  0
 14 15  1  0
 15 16  2  0
 16 17  1  0
 18 17  2  0
 19 18  1  0
 20 19  2  0
 20 15  1  0
  1 21  1  0
  3 22  1  0
  4 23  1  0
  9 24  1  0
 11 25  1  0
 12 26  1  0
 13 27  1  0
 13 28  1  0
 14 29  1  0
 14 30  1  0
 16 31  1  0
 17 32  1  0
 19 33  1  0
M  ISO  8  22  14  23  14  24  14  25  14  26   9  27   8  28   8  29   8
M  ISO  4  30   8  31  14  32  14  33  14
M  END
>  <minimizedAffinity>  (1) 
-4.23691654

>  <minimizedRMSD>  (1) 
0.580065966

$$$$
