
     RDKit          3D

 51 54  0  0  0  0  0  0  0  0999 V2000
   42.1430   23.3550   35.6930 N   0  0  0  0  0  0  0  0  0  0  0  0
   42.8840   24.5300   35.3080 C   0  0  0  0  0  0  0  0  0  0  0  0
   42.2000   25.2870   34.3930 C   0  0  0  0  0  0  0  0  0  0  0  0
   42.7750   26.4580   33.8580 C   0  0  0  0  0  0  0  0  0  0  0  0
   44.0210   26.8440   34.2550 N   0  0  0  0  0  0  0  0  0  0  0  0
   44.6680   26.0700   35.1650 C   0  0  0  0  0  0  0  0  0  0  0  0
   44.1500   24.9330   35.7050 N   0  0  0  0  0  0  0  0  0  0  0  0
   45.9510   26.3210   35.7070 N   0  0  0  0  0  0  0  0  0  0  0  0
   46.7450   27.1490   34.9920 C   0  0  0  0  0  0  0  0  0  0  0  0
   47.9920   27.4630   35.4350 C   0  0  0  0  0  0  0  0  0  0  0  0
   48.4700   26.9270   36.6460 C   0  0  0  0  0  0  0  0  0  0  0  0
   49.6280   27.1850   37.1120 O   0  0  0  0  0  0  0  0  0  0  0  0
   47.6430   26.1060   37.3250 N   0  0  0  0  0  0  0  0  0  0  0  0
   46.4100   25.7990   36.8800 C   0  0  0  0  0  0  0  0  0  0  0  0
   45.6060   25.0420   37.4760 O   0  0  0  0  0  0  0  0  0  0  0  0
   42.0680   22.7750   37.0280 C   0  0  0  0  0  0  0  0  0  0  0  0
   40.8000   21.8930   37.1330 C   0  0  0  0  0  0  0  0  0  0  0  0
   39.7060   22.8700   37.2230 C   0  0  0  0  0  0  0  0  0  0  0  0
   39.0910   23.1530   38.4370 C   0  0  0  0  0  0  0  0  0  0  0  0
   38.0790   24.0840   38.4670 C   0  0  0  0  0  0  0  0  0  0  0  0
   37.7150   24.6940   37.3040 N   0  0  0  0  0  0  0  0  0  0  0  0
   38.3370   24.3970   36.1160 C   0  0  0  0  0  0  0  0  0  0  0  0
   39.2830   23.5140   36.1400 N   0  0  0  0  0  0  0  0  0  0  0  0
   37.8510   25.1150   34.9830 N   0  0  0  0  0  0  0  0  0  0  0  0
   37.9030   24.5050   33.6670 C   0  0  0  0  0  0  0  0  0  0  0  0
   37.5490   25.5520   32.6470 C   0  0  0  0  0  0  0  0  0  0  0  0
   38.2350   26.8650   32.8770 C   0  0  0  0  0  0  0  0  0  0  0  0
   38.0150   27.4450   34.2380 C   0  0  0  0  0  0  0  0  0  0  0  0
   37.2990   26.4520   35.1030 C   0  0  0  0  0  0  0  0  0  0  0  0
   41.6133   22.8773   34.9500 H   0  0  0  0  0  0  0  0  0  0  0  0
   41.1938   24.9784   34.0732 H   0  0  0  0  0  0  0  0  0  0  0  0
   42.2199   27.0585   33.1223 H   0  0  0  0  0  0  0  0  0  0  0  0
   46.3798   27.5721   34.0446 H   0  0  0  0  0  0  0  0  0  0  0  0
   48.6293   28.1381   34.8451 H   0  0  0  0  0  0  0  0  0  0  0  0
   47.9659   25.6998   38.2148 H   0  0  0  0  0  0  0  0  0  0  0  0
   42.9604   22.1586   37.2113 H   0  0  0  0  0  0  0  0  0  0  0  0
   42.0200   23.5794   37.7767 H   0  0  0  0  0  0  0  0  0  0  0  0
   40.6878   21.2588   36.2413 H   0  0  0  0  0  0  0  0  0  0  0  0
   40.8287   21.2034   37.9895 H   0  0  0  0  0  0  0  0  0  0  0  0
   39.4081   22.6413   39.3577 H   0  0  0  0  0  0  0  0  0  0  0  0
   37.5730   24.3315   39.4119 H   0  0  0  0  0  0  0  0  0  0  0  0
   38.9168   24.1246   33.4731 H   0  0  0  0  0  0  0  0  0  0  0  0
   37.1945   23.6655   33.6101 H   0  0  0  0  0  0  0  0  0  0  0  0
   36.4618   25.7165   32.6794 H   0  0  0  0  0  0  0  0  0  0  0  0
   37.8846   25.1779   31.6685 H   0  0  0  0  0  0  0  0  0  0  0  0
   39.3160   26.7182   32.7359 H   0  0  0  0  0  0  0  0  0  0  0  0
   37.8024   27.5763   32.1581 H   0  0  0  0  0  0  0  0  0  0  0  0
   38.9865   27.6910   34.6916 H   0  0  0  0  0  0  0  0  0  0  0  0
   37.4056   28.3566   34.1504 H   0  0  0  0  0  0  0  0  0  0  0  0
   36.2398   26.4248   34.8074 H   0  0  0  0  0  0  0  0  0  0  0  0
   37.4172   26.7713   36.1490 H   0  0  0  0  0  0  0  0  0  0  0  0
  1 16  1  0
  2  1  1  0
  2  7  1  0
  3  2  2  0
  4  5  2  0
  4  3  1  0
  5  6  1  0
  6  7  2  0
  6  8  1  0
  8 14  1  0
  9 10  2  0
  9  8  1  0
 10 11  1  0
 11 12  2  0
 11 13  1  0
 14 13  1  0
 14 15  2  0
 16 17  1  0
 17 18  1  0
 18 19  2  0
 19 20  1  0
 21 20  2  0
 22 23  2  0
 22 21  1  0
 23 18  1  0
 24 29  1  0
 24 22  1  0
 25 24  1  0
 26 27  1  0
 26 25  1  0
 27 28  1  0
 28 29  1  0
  1 30  1  0
  3 31  1  0
  4 32  1  0
  9 33  1  0
 10 34  1  0
 13 35  1  0
 16 36  1  0
 16 37  1  0
 17 38  1  0
 17 39  1  0
 19 40  1  0
 20 41  1  0
 25 42  1  0
 25 43  1  0
 26 44  1  0
 26 45  1  0
 27 46  1  0
 27 47  1  0
 28 48  1  0
 28 49  1  0
 29 50  1  0
 29 51  1  0
M  ISO  8  31  14  32  14  33  14  34  14  35   9  36   8  37   8  38   8
M  ISO  8  39   8  40  14  41  14  42  13  43  13  44  13  45  13  46  13
M  ISO  5  47  13  48  13  49  13  50  13  51  13
M  END
>  <minimizedAffinity>  (1) 
-6.07636738

>  <minimizedRMSD>  (1) 
0.871865511

$$$$
