
     RDKit          3D

 31 33  0  0  0  0  0  0  0  0999 V2000
   38.5680   23.3120   38.3380 C   0  0  0  0  0  0  0  0  0  0  0  0
   38.0440   24.4050   37.6600 C   0  0  0  0  0  0  0  0  0  0  0  0
   38.6570   24.7640   36.4550 C   0  0  0  0  0  0  0  0  0  0  0  0
   39.7270   24.0170   36.0310 N   0  0  0  0  0  0  0  0  0  0  0  0
   40.1970   22.9630   36.7310 C   0  0  0  0  0  0  0  0  0  0  0  0
   39.6140   22.6110   37.8870 N   0  0  0  0  0  0  0  0  0  0  0  0
   41.3140   22.2190   36.2440 N   0  0  0  0  0  0  0  0  0  0  0  0
   41.3880   21.8340   34.8920 C   0  0  0  0  0  0  0  0  0  0  0  0
   40.3570   22.0350   34.1330 N   0  0  0  0  0  0  0  0  0  0  0  0
   42.5710   21.2340   34.3620 N   0  0  0  0  0  0  0  0  0  0  0  0
   40.3930   21.7320   33.1210 H   0  0  0  0  0  0  0  0  0  0  0  0
   38.2030   25.8530   35.6930 N   0  0  0  0  0  0  0  0  0  0  0  0
   38.2350   27.1300   36.1030 C   0  0  0  0  0  0  0  0  0  0  0  0
   37.7220   27.9330   35.1270 N   0  0  0  0  0  0  0  0  0  0  0  0
   37.3840   27.1120   34.1260 C   0  0  0  0  0  0  0  0  0  0  0  0
   36.8150   27.4680   32.9050 C   0  0  0  0  0  0  0  0  0  0  0  0
   36.5580   26.4380   32.0350 N   0  0  0  0  0  0  0  0  0  0  0  0
   36.8610   25.1680   32.4020 C   0  0  0  0  0  0  0  0  0  0  0  0
   37.4120   24.8080   33.5830 N   0  0  0  0  0  0  0  0  0  0  0  0
   37.6840   25.7980   34.4730 C   0  0  0  0  0  0  0  0  0  0  0  0
   36.5490   24.1450   31.4090 C   0  0  0  0  0  0  0  0  0  0  0  0
   35.4230   23.5850   31.4320 O   0  0  0  0  0  0  0  0  0  0  0  0
   37.4200   23.7260   30.4120 O   0  0  0  0  0  0  0  0  0  0  0  0
   38.1023   23.0096   39.2876 H   0  0  0  0  0  0  0  0  0  0  0  0
   37.1830   24.9649   38.0541 H   0  0  0  0  0  0  0  0  0  0  0  0
   42.0743   21.9610   36.8892 H   0  0  0  0  0  0  0  0  0  0  0  0
   42.6086   20.9581   33.3704 H   0  0  0  0  0  0  0  0  0  0  0  0
   43.3864   21.0773   34.9715 H   0  0  0  0  0  0  0  0  0  0  0  0
   38.6158   27.4758   37.0753 H   0  0  0  0  0  0  0  0  0  0  0  0
   36.5851   28.5138   32.6529 H   0  0  0  0  0  0  0  0  0  0  0  0
   38.3216   24.1287   30.3410 H   0  0  0  0  0  0  0  0  0  0  0  0
  2  1  2  0
  3  2  1  0
  4  3  2  0
  4  5  1  0
  5  6  2  0
  6  1  1  0
  7  5  1  0
  8  7  1  0
  9  8  2  0
 10  8  1  0
 11  9  1  0
 12 13  1  0
 12  3  1  0
 14 13  2  0
 15 20  2  0
 15 14  1  0
 16 15  1  0
 17 18  1  0
 17 16  2  0
 18 19  2  0
 19 20  1  0
 20 12  1  0
 21 22  2  0
 21 18  1  0
 23 21  1  0
  1 24  1  0
  2 25  1  0
  7 26  1  0
 10 27  1  0
 10 28  1  0
 13 29  1  0
 16 30  1  0
 23 31  1  0
M  ISO  5  24  14  25  14  29  14  30  14  31   3
M  END
>  <minimizedAffinity>  (1) 
-5.58354235

>  <minimizedRMSD>  (1) 
4.25598097

$$$$
