
     RDKit          3D

 52 55  0  0  0  0  0  0  0  0999 V2000
   41.9300   23.4320   35.5710 N   0  0  0  0  0  0  0  0  0  0  0  0
   42.7420   24.5790   35.2570 C   0  0  0  0  0  0  0  0  0  0  0  0
   42.1110   25.4280   34.3840 C   0  0  0  0  0  0  0  0  0  0  0  0
   42.7580   26.5890   33.9230 C   0  0  0  0  0  0  0  0  0  0  0  0
   44.0230   26.8800   34.3460 N   0  0  0  0  0  0  0  0  0  0  0  0
   44.6090   26.0040   35.2190 C   0  0  0  0  0  0  0  0  0  0  0  0
   44.0260   24.8730   35.6890 N   0  0  0  0  0  0  0  0  0  0  0  0
   45.9040   26.1560   35.7830 N   0  0  0  0  0  0  0  0  0  0  0  0
   46.7570   26.9600   35.1170 C   0  0  0  0  0  0  0  0  0  0  0  0
   48.0180   27.1820   35.6000 C   0  0  0  0  0  0  0  0  0  0  0  0
   48.4340   26.5730   36.7940 C   0  0  0  0  0  0  0  0  0  0  0  0
   49.5940   26.7480   37.2870 O   0  0  0  0  0  0  0  0  0  0  0  0
   47.5490   25.7820   37.4180 N   0  0  0  0  0  0  0  0  0  0  0  0
   46.3090   25.5650   36.9410 C   0  0  0  0  0  0  0  0  0  0  0  0
   45.4490   24.8320   37.4940 O   0  0  0  0  0  0  0  0  0  0  0  0
   41.8430   22.7530   36.8590 C   0  0  0  0  0  0  0  0  0  0  0  0
   40.5000   21.9850   36.9430 C   0  0  0  0  0  0  0  0  0  0  0  0
   39.5220   23.0430   37.2410 C   0  0  0  0  0  0  0  0  0  0  0  0
   38.9620   23.1960   38.5040 C   0  0  0  0  0  0  0  0  0  0  0  0
   38.0570   24.2100   38.7040 C   0  0  0  0  0  0  0  0  0  0  0  0
   37.7400   25.0250   37.6640 N   0  0  0  0  0  0  0  0  0  0  0  0
   38.2980   24.8610   36.4300 C   0  0  0  0  0  0  0  0  0  0  0  0
   39.1500   23.8890   36.2850 N   0  0  0  0  0  0  0  0  0  0  0  0
   37.8830   25.8000   35.3780 C   0  0  0  0  0  0  0  0  0  0  0  0
   38.4910   25.5370   34.0420 C   0  0  0  0  0  0  0  0  0  0  0  0
   38.2850   26.7970   33.1930 C   0  0  0  0  0  0  0  0  0  0  0  0
   37.0400   27.5370   33.6550 C   0  0  0  0  0  0  0  0  0  0  0  0
   37.2020   28.0930   35.0480 C   0  0  0  0  0  0  0  0  0  0  0  0
   38.2560   27.2390   35.7600 C   0  0  0  0  0  0  0  0  0  0  0  0
   41.3515   23.0522   34.8081 H   0  0  0  0  0  0  0  0  0  0  0  0
   41.0910   25.1993   34.0416 H   0  0  0  0  0  0  0  0  0  0  0  0
   42.2444   27.2627   33.2213 H   0  0  0  0  0  0  0  0  0  0  0  0
   46.4376   27.4402   34.1803 H   0  0  0  0  0  0  0  0  0  0  0  0
   48.7076   27.8398   35.0507 H   0  0  0  0  0  0  0  0  0  0  0  0
   47.8289   25.3226   38.2964 H   0  0  0  0  0  0  0  0  0  0  0  0
   42.6784   22.0443   36.9580 H   0  0  0  0  0  0  0  0  0  0  0  0
   41.8954   23.4938   37.6705 H   0  0  0  0  0  0  0  0  0  0  0  0
   40.2679   21.4918   35.9876 H   0  0  0  0  0  0  0  0  0  0  0  0
   40.5094   21.1834   37.6963 H   0  0  0  0  0  0  0  0  0  0  0  0
   39.2377   22.5193   39.3262 H   0  0  0  0  0  0  0  0  0  0  0  0
   37.5958   24.3599   39.6914 H   0  0  0  0  0  0  0  0  0  0  0  0
   36.7952   25.6573   35.2980 H   0  0  0  0  0  0  0  0  0  0  0  0
   39.5654   25.3281   34.1516 H   0  0  0  0  0  0  0  0  0  0  0  0
   38.0216   24.6641   33.5648 H   0  0  0  0  0  0  0  0  0  0  0  0
   38.1677   26.5100   32.1376 H   0  0  0  0  0  0  0  0  0  0  0  0
   39.1591   27.4553   33.3055 H   0  0  0  0  0  0  0  0  0  0  0  0
   36.8416   28.3673   32.9613 H   0  0  0  0  0  0  0  0  0  0  0  0
   36.2033   26.8230   33.6675 H   0  0  0  0  0  0  0  0  0  0  0  0
   37.5363   29.1398   34.9989 H   0  0  0  0  0  0  0  0  0  0  0  0
   36.2462   28.0652   35.5918 H   0  0  0  0  0  0  0  0  0  0  0  0
   38.2041   27.3809   36.8496 H   0  0  0  0  0  0  0  0  0  0  0  0
   39.2835   27.5028   35.4691 H   0  0  0  0  0  0  0  0  0  0  0  0
  1 16  1  0
  2  1  1  0
  2  7  1  0
  3  2  2  0
  4  5  2  0
  4  3  1  0
  5  6  1  0
  6  7  2  0
  6  8  1  0
  8 14  1  0
  9 10  2  0
  9  8  1  0
 10 11  1  0
 11 12  2  0
 11 13  1  0
 14 13  1  0
 14 15  2  0
 16 17  1  0
 17 18  1  0
 18 19  2  0
 19 20  1  0
 21 20  2  0
 22 21  1  0
 23 22  2  0
 23 18  1  0
 24 29  1  0
 24 22  1  0
 25 24  1  0
 26 27  1  0
 26 25  1  0
 27 28  1  0
 28 29  1  0
  1 30  1  0
  3 31  1  0
  4 32  1  0
  9 33  1  0
 10 34  1  0
 13 35  1  0
 16 36  1  0
 16 37  1  0
 17 38  1  0
 17 39  1  0
 19 40  1  0
 20 41  1  0
 24 42  1  0
 25 43  1  0
 25 44  1  0
 26 45  1  0
 26 46  1  0
 27 47  1  0
 27 48  1  0
 28 49  1  0
 28 50  1  0
 29 51  1  0
 29 52  1  0
M  ISO  8  31  14  32  14  33  14  34  14  35   9  36   8  37   8  38   8
M  ISO  8  39   8  40  14  41  14  42  13  43  13  44  13  45  13  46  13
M  ISO  6  47  13  48  13  49  13  50  13  51  13  52  13
M  END
>  <minimizedAffinity>  (1) 
-6.20555592

>  <minimizedRMSD>  (1) 
1.35830438

$$$$
