
     RDKit          3D

 43 46  0  0  0  0  0  0  0  0999 V2000
   42.1180   23.3510   35.6860 N   0  0  0  0  0  0  0  0  0  0  0  0
   42.8670   24.5260   35.3190 C   0  0  0  0  0  0  0  0  0  0  0  0
   42.1860   25.3160   34.4220 C   0  0  0  0  0  0  0  0  0  0  0  0
   42.7660   26.4870   33.9170 C   0  0  0  0  0  0  0  0  0  0  0  0
   44.0210   26.8560   34.3120 N   0  0  0  0  0  0  0  0  0  0  0  0
   44.6630   26.0430   35.2060 C   0  0  0  0  0  0  0  0  0  0  0  0
   44.1410   24.8960   35.7270 N   0  0  0  0  0  0  0  0  0  0  0  0
   45.9530   26.2790   35.7420 N   0  0  0  0  0  0  0  0  0  0  0  0
   46.7650   27.0770   35.0180 C   0  0  0  0  0  0  0  0  0  0  0  0
   48.0250   27.3690   35.4810 C   0  0  0  0  0  0  0  0  0  0  0  0
   48.4750   26.8490   36.6910 C   0  0  0  0  0  0  0  0  0  0  0  0
   49.6310   27.0800   37.1750 O   0  0  0  0  0  0  0  0  0  0  0  0
   47.6270   26.0550   37.3800 N   0  0  0  0  0  0  0  0  0  0  0  0
   46.3890   25.7650   36.9300 C   0  0  0  0  0  0  0  0  0  0  0  0
   45.5620   25.0280   37.5370 O   0  0  0  0  0  0  0  0  0  0  0  0
   42.0310   22.7530   37.0130 C   0  0  0  0  0  0  0  0  0  0  0  0
   40.7520   21.8860   37.1030 C   0  0  0  0  0  0  0  0  0  0  0  0
   39.6730   22.8810   37.2130 C   0  0  0  0  0  0  0  0  0  0  0  0
   39.0700   23.1730   38.4340 C   0  0  0  0  0  0  0  0  0  0  0  0
   38.0710   24.1140   38.4650 C   0  0  0  0  0  0  0  0  0  0  0  0
   37.7060   24.7240   37.3100 N   0  0  0  0  0  0  0  0  0  0  0  0
   38.3100   24.4240   36.1240 C   0  0  0  0  0  0  0  0  0  0  0  0
   39.2510   23.5290   36.1300 N   0  0  0  0  0  0  0  0  0  0  0  0
   37.9150   25.0740   34.9190 N   0  0  0  0  0  0  0  0  0  0  0  0
   37.4640   26.3420   35.1330 C   0  0  0  0  0  0  0  0  0  0  0  0
   37.1040   26.8900   33.9000 C   0  0  0  0  0  0  0  0  0  0  0  0
   37.3550   25.9210   32.9750 N   0  0  0  0  0  0  0  0  0  0  0  0
   37.8400   24.8420   33.6110 C   0  0  0  0  0  0  0  0  0  0  0  0
   41.5899   22.8858   34.9339 H   0  0  0  0  0  0  0  0  0  0  0  0
   41.1758   25.0253   34.0980 H   0  0  0  0  0  0  0  0  0  0  0  0
   42.2102   27.1105   33.2013 H   0  0  0  0  0  0  0  0  0  0  0  0
   46.4192   27.4925   34.0600 H   0  0  0  0  0  0  0  0  0  0  0  0
   48.6850   28.0204   34.8894 H   0  0  0  0  0  0  0  0  0  0  0  0
   47.9359   25.6578   38.2787 H   0  0  0  0  0  0  0  0  0  0  0  0
   42.9149   22.1227   37.1902 H   0  0  0  0  0  0  0  0  0  0  0  0
   41.9905   23.5478   37.7724 H   0  0  0  0  0  0  0  0  0  0  0  0
   40.6293   21.2704   36.1997 H   0  0  0  0  0  0  0  0  0  0  0  0
   40.7711   21.1782   37.9448 H   0  0  0  0  0  0  0  0  0  0  0  0
   39.3875   22.6604   39.3540 H   0  0  0  0  0  0  0  0  0  0  0  0
   37.5740   24.3695   39.4125 H   0  0  0  0  0  0  0  0  0  0  0  0
   37.3954   26.8465   36.1081 H   0  0  0  0  0  0  0  0  0  0  0  0
   36.7009   27.8964   33.7137 H   0  0  0  0  0  0  0  0  0  0  0  0
   38.1330   23.9018   33.1210 H   0  0  0  0  0  0  0  0  0  0  0  0
  1 16  1  0
  2  1  1  0
  2  7  1  0
  3  2  2  0
  4  5  2  0
  4  3  1  0
  5  6  1  0
  6  7  2  0
  6  8  1  0
  8 14  1  0
  9 10  2  0
  9  8  1  0
 10 11  1  0
 11 12  2  0
 11 13  1  0
 14 13  1  0
 14 15  2  0
 16 17  1  0
 17 18  1  0
 18 19  2  0
 19 20  1  0
 21 20  2  0
 22 23  2  0
 22 21  1  0
 23 18  1  0
 24 25  1  0
 24 22  1  0
 26 25  2  0
 27 28  2  0
 27 26  1  0
 28 24  1  0
  1 29  1  0
  3 30  1  0
  4 31  1  0
  9 32  1  0
 10 33  1  0
 13 34  1  0
 16 35  1  0
 16 36  1  0
 17 37  1  0
 17 38  1  0
 19 39  1  0
 20 40  1  0
 25 41  1  0
 26 42  1  0
 28 43  1  0
M  ISO  8  30  14  31  14  32  14  33  14  34   9  35   8  36   8  37   8
M  ISO  6  38   8  39  14  40  14  41  14  42  14  43  14
M  END
>  <minimizedAffinity>  (1) 
-5.90182114

>  <minimizedRMSD>  (1) 
0.793214142

$$$$
