
     RDKit          3D

 43 46  0  0  0  0  0  0  0  0999 V2000
   41.8850   23.5660   35.4810 N   0  0  0  0  0  0  0  0  0  0  0  0
   42.7340   24.6930   35.1880 C   0  0  0  0  0  0  0  0  0  0  0  0
   42.1420   25.5660   34.3090 C   0  0  0  0  0  0  0  0  0  0  0  0
   42.8330   26.7110   33.8710 C   0  0  0  0  0  0  0  0  0  0  0  0
   44.0980   26.9610   34.3190 N   0  0  0  0  0  0  0  0  0  0  0  0
   44.6440   26.0630   35.1960 C   0  0  0  0  0  0  0  0  0  0  0  0
   44.0170   24.9500   35.6420 N   0  0  0  0  0  0  0  0  0  0  0  0
   45.9340   26.1760   35.7760 N   0  0  0  0  0  0  0  0  0  0  0  0
   46.8210   26.9510   35.1380 C   0  0  0  0  0  0  0  0  0  0  0  0
   48.0790   27.1280   35.6380 C   0  0  0  0  0  0  0  0  0  0  0  0
   48.4600   26.5020   36.8240 C   0  0  0  0  0  0  0  0  0  0  0  0
   49.6220   26.6360   37.3340 O   0  0  0  0  0  0  0  0  0  0  0  0
   47.5400   25.7310   37.4350 N   0  0  0  0  0  0  0  0  0  0  0  0
   46.2980   25.5570   36.9400 C   0  0  0  0  0  0  0  0  0  0  0  0
   45.4080   24.8460   37.4770 O   0  0  0  0  0  0  0  0  0  0  0  0
   41.8330   22.8190   36.7320 C   0  0  0  0  0  0  0  0  0  0  0  0
   40.4990   22.0330   36.8010 C   0  0  0  0  0  0  0  0  0  0  0  0
   39.5130   23.0690   37.1530 C   0  0  0  0  0  0  0  0  0  0  0  0
   39.0090   23.1910   38.4430 C   0  0  0  0  0  0  0  0  0  0  0  0
   38.0970   24.1820   38.7060 C   0  0  0  0  0  0  0  0  0  0  0  0
   37.7200   25.0080   37.6980 N   0  0  0  0  0  0  0  0  0  0  0  0
   38.2280   24.8730   36.4270 C   0  0  0  0  0  0  0  0  0  0  0  0
   39.0870   23.9220   36.2230 N   0  0  0  0  0  0  0  0  0  0  0  0
   37.8180   25.7650   35.3440 C   0  0  0  0  0  0  0  0  0  0  0  0
   37.5380   27.0990   35.1860 C   0  0  0  0  0  0  0  0  0  0  0  0
   37.2050   27.2580   33.8460 C   0  0  0  0  0  0  0  0  0  0  0  0
   37.3010   26.0060   33.2610 C   0  0  0  0  0  0  0  0  0  0  0  0
   37.6660   25.1500   34.1780 O   0  0  0  0  0  0  0  0  0  0  0  0
   41.2507   23.2569   34.7307 H   0  0  0  0  0  0  0  0  0  0  0  0
   41.1226   25.3694   33.9454 H   0  0  0  0  0  0  0  0  0  0  0  0
   42.3529   27.4059   33.1663 H   0  0  0  0  0  0  0  0  0  0  0  0
   46.5327   27.4502   34.2011 H   0  0  0  0  0  0  0  0  0  0  0  0
   48.7957   27.7678   35.1023 H   0  0  0  0  0  0  0  0  0  0  0  0
   47.7948   25.2567   38.3131 H   0  0  0  0  0  0  0  0  0  0  0  0
   42.6773   22.1153   36.7757 H   0  0  0  0  0  0  0  0  0  0  0  0
   41.8961   23.5153   37.5812 H   0  0  0  0  0  0  0  0  0  0  0  0
   40.2603   21.5758   35.8294 H   0  0  0  0  0  0  0  0  0  0  0  0
   40.5258   21.2019   37.5212 H   0  0  0  0  0  0  0  0  0  0  0  0
   39.3355   22.5053   39.2387 H   0  0  0  0  0  0  0  0  0  0  0  0
   37.6791   24.3045   39.7161 H   0  0  0  0  0  0  0  0  0  0  0  0
   37.5704   27.8805   35.9595 H   0  0  0  0  0  0  0  0  0  0  0  0
   36.9204   28.1960   33.3469 H   0  0  0  0  0  0  0  0  0  0  0  0
   37.1036   25.7723   32.2044 H   0  0  0  0  0  0  0  0  0  0  0  0
  1 16  1  0
  2  1  1  0
  2  7  1  0
  3  2  2  0
  4  3  1  0
  4  5  2  0
  5  6  1  0
  6  7  2  0
  6  8  1  0
  8 14  1  0
  9 10  2  0
  9  8  1  0
 10 11  1  0
 11 12  2  0
 11 13  1  0
 14 13  1  0
 14 15  2  0
 16 17  1  0
 17 18  1  0
 18 19  2  0
 19 20  1  0
 21 20  2  0
 22 21  1  0
 23 22  2  0
 23 18  1  0
 24 22  1  0
 25 24  2  0
 26 25  1  0
 27 26  2  0
 27 28  1  0
 28 24  1  0
  1 29  1  0
  3 30  1  0
  4 31  1  0
  9 32  1  0
 10 33  1  0
 13 34  1  0
 16 35  1  0
 16 36  1  0
 17 37  1  0
 17 38  1  0
 19 39  1  0
 20 40  1  0
 25 41  1  0
 26 42  1  0
 27 43  1  0
M  ISO  8  30  14  31  14  32  14  33  14  34   9  35   8  36   8  37   8
M  ISO  6  38   8  39  14  40  14  41  14  42  14  43  14
M  END
>  <minimizedAffinity>  (1) 
-5.75672245

>  <minimizedRMSD>  (1) 
1.19569695

$$$$
