
     RDKit          3D

 44 47  0  0  0  0  0  0  0  0999 V2000
   41.9480   23.5010   35.5570 N   0  0  0  0  0  0  0  0  0  0  0  0
   42.7800   24.6370   35.2490 C   0  0  0  0  0  0  0  0  0  0  0  0
   42.1810   25.4840   34.3500 C   0  0  0  0  0  0  0  0  0  0  0  0
   42.8510   26.6340   33.8930 C   0  0  0  0  0  0  0  0  0  0  0  0
   44.1050   26.9140   34.3440 N   0  0  0  0  0  0  0  0  0  0  0  0
   44.6650   26.0570   35.2310 C   0  0  0  0  0  0  0  0  0  0  0  0
   44.0550   24.9340   35.7010 N   0  0  0  0  0  0  0  0  0  0  0  0
   45.9530   26.1800   35.8190 N   0  0  0  0  0  0  0  0  0  0  0  0
   46.8330   26.9580   35.1530 C   0  0  0  0  0  0  0  0  0  0  0  0
   48.0980   27.1420   35.6280 C   0  0  0  0  0  0  0  0  0  0  0  0
   48.4960   26.5150   36.8260 C   0  0  0  0  0  0  0  0  0  0  0  0
   49.6600   26.6430   37.3250 O   0  0  0  0  0  0  0  0  0  0  0  0
   47.5850   25.7530   37.4510 N   0  0  0  0  0  0  0  0  0  0  0  0
   46.3380   25.5780   36.9730 C   0  0  0  0  0  0  0  0  0  0  0  0
   45.4520   24.8700   37.5280 O   0  0  0  0  0  0  0  0  0  0  0  0
   41.8820   22.7970   36.8330 C   0  0  0  0  0  0  0  0  0  0  0  0
   40.5680   21.9830   36.8990 C   0  0  0  0  0  0  0  0  0  0  0  0
   39.5420   23.0110   37.1430 C   0  0  0  0  0  0  0  0  0  0  0  0
   39.0070   23.2100   38.4100 C   0  0  0  0  0  0  0  0  0  0  0  0
   38.0580   24.1890   38.5800 C   0  0  0  0  0  0  0  0  0  0  0  0
   37.6790   24.9260   37.5020 N   0  0  0  0  0  0  0  0  0  0  0  0
   38.2200   24.7140   36.2570 C   0  0  0  0  0  0  0  0  0  0  0  0
   39.1120   23.7780   36.1470 N   0  0  0  0  0  0  0  0  0  0  0  0
   37.8040   25.5130   35.1080 C   0  0  0  0  0  0  0  0  0  0  0  0
   37.4690   26.8510   35.2750 C   0  0  0  0  0  0  0  0  0  0  0  0
   37.0860   27.5680   34.1850 C   0  0  0  0  0  0  0  0  0  0  0  0
   37.0370   26.9850   32.9840 N   0  0  0  0  0  0  0  0  0  0  0  0
   37.3600   25.6880   32.8090 C   0  0  0  0  0  0  0  0  0  0  0  0
   37.7500   24.9330   33.8740 N   0  0  0  0  0  0  0  0  0  0  0  0
   41.3404   23.1520   34.8021 H   0  0  0  0  0  0  0  0  0  0  0  0
   41.1680   25.2617   33.9835 H   0  0  0  0  0  0  0  0  0  0  0  0
   42.3623   27.3060   33.1722 H   0  0  0  0  0  0  0  0  0  0  0  0
   46.5263   27.4486   34.2174 H   0  0  0  0  0  0  0  0  0  0  0  0
   48.8063   27.7784   35.0773 H   0  0  0  0  0  0  0  0  0  0  0  0
   47.8494   25.2844   38.3293 H   0  0  0  0  0  0  0  0  0  0  0  0
   42.7412   22.1160   36.9221 H   0  0  0  0  0  0  0  0  0  0  0  0
   41.9072   23.5246   37.6576 H   0  0  0  0  0  0  0  0  0  0  0  0
   40.3818   21.4584   35.9503 H   0  0  0  0  0  0  0  0  0  0  0  0
   40.5853   21.2012   37.6727 H   0  0  0  0  0  0  0  0  0  0  0  0
   39.3370   22.5955   39.2606 H   0  0  0  0  0  0  0  0  0  0  0  0
   37.6134   24.3730   39.5692 H   0  0  0  0  0  0  0  0  0  0  0  0
   37.5127   27.3207   36.2687 H   0  0  0  0  0  0  0  0  0  0  0  0
   36.8163   28.6290   34.2922 H   0  0  0  0  0  0  0  0  0  0  0  0
   37.3087   25.2391   31.8061 H   0  0  0  0  0  0  0  0  0  0  0  0
  1 16  1  0
  2  1  1  0
  2  7  1  0
  3  2  2  0
  4  5  2  0
  4  3  1  0
  5  6  1  0
  6  7  2  0
  6  8  1  0
  8 14  1  0
  9 10  2  0
  9  8  1  0
 10 11  1  0
 11 12  2  0
 11 13  1  0
 14 13  1  0
 14 15  2  0
 16 17  1  0
 17 18  1  0
 18 19  2  0
 19 20  1  0
 21 20  2  0
 22 21  1  0
 23 22  2  0
 23 18  1  0
 24 25  2  0
 24 22  1  0
 26 25  1  0
 27 26  2  0
 28 27  1  0
 28 29  2  0
 29 24  1  0
  1 30  1  0
  3 31  1  0
  4 32  1  0
  9 33  1  0
 10 34  1  0
 13 35  1  0
 16 36  1  0
 16 37  1  0
 17 38  1  0
 17 39  1  0
 19 40  1  0
 20 41  1  0
 25 42  1  0
 26 43  1  0
 28 44  1  0
M  ISO  8  31  14  32  14  33  14  34  14  35   9  36   8  37   8  38   8
M  ISO  6  39   8  40  14  41  14  42  14  43  14  44  14
M  END
>  <minimizedAffinity>  (1) 
-5.8902564

>  <minimizedRMSD>  (1) 
1.1828301

$$$$
