
     RDKit          3D

 42 45  0  0  0  0  0  0  0  0999 V2000
   41.9190   23.5520   35.5320 N   0  0  0  0  0  0  0  0  0  0  0  0
   42.7610   24.6770   35.2230 C   0  0  0  0  0  0  0  0  0  0  0  0
   42.1720   25.5340   34.3280 C   0  0  0  0  0  0  0  0  0  0  0  0
   42.8560   26.6750   33.8720 C   0  0  0  0  0  0  0  0  0  0  0  0
   44.1150   26.9380   34.3220 N   0  0  0  0  0  0  0  0  0  0  0  0
   44.6670   26.0650   35.2110 C   0  0  0  0  0  0  0  0  0  0  0  0
   44.0420   24.9510   35.6760 N   0  0  0  0  0  0  0  0  0  0  0  0
   45.9550   26.1810   35.7970 N   0  0  0  0  0  0  0  0  0  0  0  0
   46.8460   26.9560   35.1390 C   0  0  0  0  0  0  0  0  0  0  0  0
   48.1020   27.1330   35.6360 C   0  0  0  0  0  0  0  0  0  0  0  0
   48.4870   26.5140   36.8320 C   0  0  0  0  0  0  0  0  0  0  0  0
   49.6520   26.6570   37.3270 O   0  0  0  0  0  0  0  0  0  0  0  0
   47.5670   25.7520   37.4500 N   0  0  0  0  0  0  0  0  0  0  0  0
   46.3300   25.5830   36.9540 C   0  0  0  0  0  0  0  0  0  0  0  0
   45.4380   24.8750   37.5060 O   0  0  0  0  0  0  0  0  0  0  0  0
   41.8700   22.8250   36.7960 C   0  0  0  0  0  0  0  0  0  0  0  0
   40.5630   22.0000   36.8670 C   0  0  0  0  0  0  0  0  0  0  0  0
   39.5280   23.0200   37.1270 C   0  0  0  0  0  0  0  0  0  0  0  0
   39.0040   23.2080   38.4020 C   0  0  0  0  0  0  0  0  0  0  0  0
   38.0450   24.1770   38.5780 C   0  0  0  0  0  0  0  0  0  0  0  0
   37.6450   24.9090   37.5080 N   0  0  0  0  0  0  0  0  0  0  0  0
   38.1710   24.7050   36.2760 C   0  0  0  0  0  0  0  0  0  0  0  0
   39.0750   23.7840   36.1370 N   0  0  0  0  0  0  0  0  0  0  0  0
   37.7750   25.4560   35.1280 N   0  0  0  0  0  0  0  0  0  0  0  0
   37.3460   26.7240   34.9900 C   0  0  0  0  0  0  0  0  0  0  0  0
   37.0960   26.9640   33.6950 N   0  0  0  0  0  0  0  0  0  0  0  0
   37.3680   25.8420   33.0060 C   0  0  0  0  0  0  0  0  0  0  0  0
   37.7840   24.9300   33.9100 N   0  0  0  0  0  0  0  0  0  0  0  0
   41.2874   23.2273   34.7860 H   0  0  0  0  0  0  0  0  0  0  0  0
   41.1550   25.3266   33.9636 H   0  0  0  0  0  0  0  0  0  0  0  0
   42.3752   27.3544   33.1528 H   0  0  0  0  0  0  0  0  0  0  0  0
   46.5555   27.4460   34.1980 H   0  0  0  0  0  0  0  0  0  0  0  0
   48.8192   27.7668   35.0939 H   0  0  0  0  0  0  0  0  0  0  0  0
   47.8189   25.2830   38.3318 H   0  0  0  0  0  0  0  0  0  0  0  0
   42.7347   22.1484   36.8634 H   0  0  0  0  0  0  0  0  0  0  0  0
   41.8976   23.5402   37.6313 H   0  0  0  0  0  0  0  0  0  0  0  0
   40.3734   21.4804   35.9162 H   0  0  0  0  0  0  0  0  0  0  0  0
   40.5931   21.2133   37.6352 H   0  0  0  0  0  0  0  0  0  0  0  0
   39.3487   22.5961   39.2486 H   0  0  0  0  0  0  0  0  0  0  0  0
   37.6084   24.3563   39.5716 H   0  0  0  0  0  0  0  0  0  0  0  0
   37.2205   27.4478   35.8088 H   0  0  0  0  0  0  0  0  0  0  0  0
   37.2707   25.6961   31.9201 H   0  0  0  0  0  0  0  0  0  0  0  0
  1 16  1  0
  2  1  1  0
  2  7  1  0
  3  2  2  0
  4  5  2  0
  4  3  1  0
  5  6  1  0
  6  7  2  0
  6  8  1  0
  8 14  1  0
  9 10  2  0
  9  8  1  0
 10 11  1  0
 11 12  2  0
 11 13  1  0
 14 13  1  0
 14 15  2  0
 16 17  1  0
 17 18  1  0
 18 19  2  0
 19 20  1  0
 21 20  2  0
 22 21  1  0
 23 22  2  0
 23 18  1  0
 24 22  1  0
 25 24  1  0
 26 25  2  0
 27 26  1  0
 27 28  2  0
 28 24  1  0
  1 29  1  0
  3 30  1  0
  4 31  1  0
  9 32  1  0
 10 33  1  0
 13 34  1  0
 16 35  1  0
 16 36  1  0
 17 37  1  0
 17 38  1  0
 19 39  1  0
 20 40  1  0
 25 41  1  0
 27 42  1  0
M  ISO  8  30  14  31  14  32  14  33  14  34   9  35   8  36   8  37   8
M  ISO  5  38   8  39  14  40  14  41  14  42  14
M  END
>  <minimizedAffinity>  (1) 
-5.87756968

>  <minimizedRMSD>  (1) 
1.02454805

$$$$
