
     RDKit          3D

 49 52  0  0  0  0  0  0  0  0999 V2000
   42.1110   23.3130   35.6530 N   0  0  0  0  0  0  0  0  0  0  0  0
   42.8460   24.4970   35.2850 C   0  0  0  0  0  0  0  0  0  0  0  0
   42.1590   25.2760   34.3870 C   0  0  0  0  0  0  0  0  0  0  0  0
   42.7300   26.4560   33.8810 C   0  0  0  0  0  0  0  0  0  0  0  0
   43.9770   26.8360   34.2820 N   0  0  0  0  0  0  0  0  0  0  0  0
   44.6270   26.0350   35.1780 C   0  0  0  0  0  0  0  0  0  0  0  0
   44.1130   24.8890   35.6900 N   0  0  0  0  0  0  0  0  0  0  0  0
   45.9170   26.2810   35.7130 N   0  0  0  0  0  0  0  0  0  0  0  0
   46.7150   27.0980   35.0000 C   0  0  0  0  0  0  0  0  0  0  0  0
   47.9670   27.4090   35.4350 C   0  0  0  0  0  0  0  0  0  0  0  0
   48.4380   26.8760   36.6410 C   0  0  0  0  0  0  0  0  0  0  0  0
   49.5930   27.1110   37.1250 O   0  0  0  0  0  0  0  0  0  0  0  0
   47.6050   26.0630   37.3220 N   0  0  0  0  0  0  0  0  0  0  0  0
   46.3660   25.7580   36.8880 C   0  0  0  0  0  0  0  0  0  0  0  0
   45.5510   25.0020   37.4890 O   0  0  0  0  0  0  0  0  0  0  0  0
   41.9900   22.7460   36.9900 C   0  0  0  0  0  0  0  0  0  0  0  0
   40.7000   21.8890   37.0660 C   0  0  0  0  0  0  0  0  0  0  0  0
   39.6230   22.9010   37.1310 C   0  0  0  0  0  0  0  0  0  0  0  0
   39.0060   23.2230   38.3360 C   0  0  0  0  0  0  0  0  0  0  0  0
   38.0170   24.1750   38.3270 C   0  0  0  0  0  0  0  0  0  0  0  0
   37.6790   24.7630   37.1530 N   0  0  0  0  0  0  0  0  0  0  0  0
   38.3040   24.4270   35.9760 C   0  0  0  0  0  0  0  0  0  0  0  0
   39.2340   23.5230   36.0200 N   0  0  0  0  0  0  0  0  0  0  0  0
   37.8480   25.1240   34.8200 N   0  0  0  0  0  0  0  0  0  0  0  0
   37.3330   26.4770   34.9520 C   0  0  0  0  0  0  0  0  0  0  0  0
   37.8210   27.2230   33.7150 C   0  0  0  0  0  0  0  0  0  0  0  0
   38.9590   26.6520   33.1830 O   0  0  0  0  0  0  0  0  0  0  0  0
   38.7990   25.3930   32.6630 C   0  0  0  0  0  0  0  0  0  0  0  0
   37.8880   24.5070   33.5050 C   0  0  0  0  0  0  0  0  0  0  0  0
   41.6217   22.8174   34.8941 H   0  0  0  0  0  0  0  0  0  0  0  0
   41.1529   24.9737   34.0609 H   0  0  0  0  0  0  0  0  0  0  0  0
   42.1715   27.0730   33.1617 H   0  0  0  0  0  0  0  0  0  0  0  0
   46.3501   27.5204   34.0522 H   0  0  0  0  0  0  0  0  0  0  0  0
   48.6070   28.0774   34.8404 H   0  0  0  0  0  0  0  0  0  0  0  0
   47.9295   25.6579   38.2117 H   0  0  0  0  0  0  0  0  0  0  0  0
   42.8647   22.1136   37.2019 H   0  0  0  0  0  0  0  0  0  0  0  0
   41.9392   23.5566   37.7318 H   0  0  0  0  0  0  0  0  0  0  0  0
   40.5935   21.2570   36.1720 H   0  0  0  0  0  0  0  0  0  0  0  0
   40.6926   21.1968   37.9208 H   0  0  0  0  0  0  0  0  0  0  0  0
   39.3032   22.7273   39.2719 H   0  0  0  0  0  0  0  0  0  0  0  0
   37.5058   24.4569   39.2593 H   0  0  0  0  0  0  0  0  0  0  0  0
   36.2336   26.4679   34.9863 H   0  0  0  0  0  0  0  0  0  0  0  0
   37.6793   26.9560   35.8797 H   0  0  0  0  0  0  0  0  0  0  0  0
   37.0267   27.2072   32.9542 H   0  0  0  0  0  0  0  0  0  0  0  0
   38.0652   28.2532   34.0135 H   0  0  0  0  0  0  0  0  0  0  0  0
   38.3657   25.4831   31.6560 H   0  0  0  0  0  0  0  0  0  0  0  0
   39.7911   24.9182   32.6449 H   0  0  0  0  0  0  0  0  0  0  0  0
   36.8792   24.4687   33.0681 H   0  0  0  0  0  0  0  0  0  0  0  0
   38.2578   23.4721   33.5524 H   0  0  0  0  0  0  0  0  0  0  0  0
  1 16  1  0
  2  1  1  0
  2  7  1  0
  3  2  2  0
  4  5  2  0
  4  3  1  0
  5  6  1  0
  6  7  2  0
  6  8  1  0
  8 14  1  0
  9 10  2  0
  9  8  1  0
 10 11  1  0
 11 12  2  0
 11 13  1  0
 14 13  1  0
 14 15  2  0
 16 17  1  0
 17 18  1  0
 18 19  2  0
 20 19  1  0
 21 20  2  0
 22 23  2  0
 22 21  1  0
 23 18  1  0
 24 25  1  0
 24 22  1  0
 26 25  1  0
 27 26  1  0
 28 27  1  0
 28 29  1  0
 29 24  1  0
  1 30  1  0
  3 31  1  0
  4 32  1  0
  9 33  1  0
 10 34  1  0
 13 35  1  0
 16 36  1  0
 16 37  1  0
 17 38  1  0
 17 39  1  0
 19 40  1  0
 20 41  1  0
 25 42  1  0
 25 43  1  0
 26 44  1  0
 26 45  1  0
 28 46  1  0
 28 47  1  0
 29 48  1  0
 29 49  1  0
M  ISO  8  31  14  32  14  33  14  34  14  35   9  36   8  37   8  38   8
M  ISO  8  39   8  40  14  41  14  42  13  43  13  44  13  45  13  46  13
M  ISO  3  47  13  48  13  49  13
M  END
>  <minimizedAffinity>  (1) 
-5.89972639

>  <minimizedRMSD>  (1) 
0.852633953

$$$$
