
     RDKit          3D

 45 47  0  0  0  0  0  0  0  0999 V2000
   41.8440   23.4160   35.5430 N   0  0  0  0  0  0  0  0  0  0  0  0
   42.6720   24.5600   35.2530 C   0  0  0  0  0  0  0  0  0  0  0  0
   42.0650   25.4300   34.3830 C   0  0  0  0  0  0  0  0  0  0  0  0
   42.7290   26.5870   33.9500 C   0  0  0  0  0  0  0  0  0  0  0  0
   43.9910   26.8620   34.3930 N   0  0  0  0  0  0  0  0  0  0  0  0
   44.5610   25.9750   35.2570 C   0  0  0  0  0  0  0  0  0  0  0  0
   43.9540   24.8390   35.7030 N   0  0  0  0  0  0  0  0  0  0  0  0
   45.8500   26.0920   35.8380 N   0  0  0  0  0  0  0  0  0  0  0  0
   46.7180   26.9010   35.1830 C   0  0  0  0  0  0  0  0  0  0  0  0
   47.9800   27.0830   35.6630 C   0  0  0  0  0  0  0  0  0  0  0  0
   48.3890   26.4300   36.8450 C   0  0  0  0  0  0  0  0  0  0  0  0
   49.5570   26.5590   37.3430 O   0  0  0  0  0  0  0  0  0  0  0  0
   47.4910   25.6430   37.4520 N   0  0  0  0  0  0  0  0  0  0  0  0
   46.2430   25.4650   36.9760 C   0  0  0  0  0  0  0  0  0  0  0  0
   45.3690   24.7370   37.5120 O   0  0  0  0  0  0  0  0  0  0  0  0
   41.7420   22.7180   36.8180 C   0  0  0  0  0  0  0  0  0  0  0  0
   40.3710   22.0110   36.9170 C   0  0  0  0  0  0  0  0  0  0  0  0
   39.4410   23.1020   37.2450 C   0  0  0  0  0  0  0  0  0  0  0  0
   38.9030   23.2320   38.5210 C   0  0  0  0  0  0  0  0  0  0  0  0
   38.0430   24.2760   38.7720 C   0  0  0  0  0  0  0  0  0  0  0  0
   37.7520   25.1420   37.7670 N   0  0  0  0  0  0  0  0  0  0  0  0
   38.2970   24.9910   36.5140 C   0  0  0  0  0  0  0  0  0  0  0  0
   39.1010   23.9940   36.3190 N   0  0  0  0  0  0  0  0  0  0  0  0
   37.9830   25.9340   35.4060 C   0  0  0  0  0  0  0  0  0  0  0  0
   38.2800   25.3810   34.0450 C   0  0  0  0  0  0  0  0  0  0  0  0
   38.7080   27.2280   35.6830 C   0  0  0  0  0  0  0  0  0  0  0  0
   41.2659   23.0555   34.7705 H   0  0  0  0  0  0  0  0  0  0  0  0
   41.0479   25.2181   34.0216 H   0  0  0  0  0  0  0  0  0  0  0  0
   42.2314   27.2754   33.2510 H   0  0  0  0  0  0  0  0  0  0  0  0
   46.4027   27.4120   34.2614 H   0  0  0  0  0  0  0  0  0  0  0  0
   48.6814   27.7402   35.1281 H   0  0  0  0  0  0  0  0  0  0  0  0
   47.7652   25.1548   38.3165 H   0  0  0  0  0  0  0  0  0  0  0  0
   42.5452   21.9699   36.8905 H   0  0  0  0  0  0  0  0  0  0  0  0
   41.8376   23.4437   37.6391 H   0  0  0  0  0  0  0  0  0  0  0  0
   40.1020   21.5403   35.9599 H   0  0  0  0  0  0  0  0  0  0  0  0
   40.3605   21.2023   37.6626 H   0  0  0  0  0  0  0  0  0  0  0  0
   39.1601   22.5142   39.3138 H   0  0  0  0  0  0  0  0  0  0  0  0
   37.5986   24.4072   39.7697 H   0  0  0  0  0  0  0  0  0  0  0  0
   36.8976   26.1108   35.3817 H   0  0  0  0  0  0  0  0  0  0  0  0
   38.7982   24.4160   34.1464 H   0  0  0  0  0  0  0  0  0  0  0  0
   37.3386   25.2356   33.4949 H   0  0  0  0  0  0  0  0  0  0  0  0
   38.9211   26.0855   33.4949 H   0  0  0  0  0  0  0  0  0  0  0  0
   38.7911   27.3763   36.7698 H   0  0  0  0  0  0  0  0  0  0  0  0
   39.7143   27.1865   35.2406 H   0  0  0  0  0  0  0  0  0  0  0  0
   38.1472   28.0645   35.2406 H   0  0  0  0  0  0  0  0  0  0  0  0
  1 16  1  0
  2  1  1  0
  2  7  1  0
  3  2  2  0
  4  3  1  0
  4  5  2  0
  5  6  1  0
  6  7  2  0
  6  8  1  0
  8 14  1  0
  9 10  2  0
  9  8  1  0
 10 11  1  0
 11 12  2  0
 11 13  1  0
 14 13  1  0
 14 15  2  0
 16 17  1  0
 17 18  1  0
 18 19  2  0
 19 20  1  0
 21 20  2  0
 22 21  1  0
 23 22  2  0
 23 18  1  0
 24 26  1  0
 24 22  1  0
 25 24  1  0
  1 27  1  0
  3 28  1  0
  4 29  1  0
  9 30  1  0
 10 31  1  0
 13 32  1  0
 16 33  1  0
 16 34  1  0
 17 35  1  0
 17 36  1  0
 19 37  1  0
 20 38  1  0
 24 39  1  0
 25 40  1  0
 25 41  1  0
 25 42  1  0
 26 43  1  0
 26 44  1  0
 26 45  1  0
M  ISO  8  28  14  29  14  30  14  31  14  32   9  33   8  34   8  35   8
M  ISO  8  36   8  37  14  38  14  39   8  40   8  41   8  42   8  43   8
M  ISO  2  44   8  45   8
M  END
>  <minimizedAffinity>  (1) 
-5.4044404

>  <minimizedRMSD>  (1) 
0.995100439

$$$$
