
     RDKit          3D

 42 44  0  0  0  0  0  0  0  0999 V2000
   42.0230   23.2650   35.5710 N   0  0  0  0  0  0  0  0  0  0  0  0
   42.7680   24.4510   35.2360 C   0  0  0  0  0  0  0  0  0  0  0  0
   42.0930   25.2580   34.3590 C   0  0  0  0  0  0  0  0  0  0  0  0
   42.6770   26.4460   33.8860 C   0  0  0  0  0  0  0  0  0  0  0  0
   43.9270   26.8080   34.2980 N   0  0  0  0  0  0  0  0  0  0  0  0
   44.5620   25.9730   35.1740 C   0  0  0  0  0  0  0  0  0  0  0  0
   44.0390   24.8200   35.6560 N   0  0  0  0  0  0  0  0  0  0  0  0
   45.8510   26.1990   35.7230 N   0  0  0  0  0  0  0  0  0  0  0  0
   46.6650   27.0270   35.0480 C   0  0  0  0  0  0  0  0  0  0  0  0
   47.9140   27.3110   35.5100 C   0  0  0  0  0  0  0  0  0  0  0  0
   48.3700   26.7320   36.7130 C   0  0  0  0  0  0  0  0  0  0  0  0
   49.5280   26.9650   37.1880 O   0  0  0  0  0  0  0  0  0  0  0  0
   47.5240   25.9090   37.3560 N   0  0  0  0  0  0  0  0  0  0  0  0
   46.2910   25.6350   36.8910 C   0  0  0  0  0  0  0  0  0  0  0  0
   45.4690   24.8710   37.4620 O   0  0  0  0  0  0  0  0  0  0  0  0
   41.8480   22.6910   36.9000 C   0  0  0  0  0  0  0  0  0  0  0  0
   40.4850   21.9600   36.9700 C   0  0  0  0  0  0  0  0  0  0  0  0
   39.5250   23.0470   37.2180 C   0  0  0  0  0  0  0  0  0  0  0  0
   38.8650   23.1720   38.4370 C   0  0  0  0  0  0  0  0  0  0  0  0
   37.9830   24.2120   38.6070 C   0  0  0  0  0  0  0  0  0  0  0  0
   37.7870   25.0780   37.5780 N   0  0  0  0  0  0  0  0  0  0  0  0
   38.4430   24.9390   36.3910 C   0  0  0  0  0  0  0  0  0  0  0  0
   39.2670   23.9440   36.2710 N   0  0  0  0  0  0  0  0  0  0  0  0
   38.2480   25.8710   35.2510 C   0  0  0  0  0  0  0  0  0  0  0  0
   38.8100   27.2300   35.5020 C   0  0  0  0  0  0  0  0  0  0  0  0
   41.5664   22.7710   34.7910 H   0  0  0  0  0  0  0  0  0  0  0  0
   41.0852   24.9740   34.0219 H   0  0  0  0  0  0  0  0  0  0  0  0
   42.1250   27.0858   33.1818 H   0  0  0  0  0  0  0  0  0  0  0  0
   46.3178   27.4821   34.1087 H   0  0  0  0  0  0  0  0  0  0  0  0
   48.5676   27.9920   34.9451 H   0  0  0  0  0  0  0  0  0  0  0  0
   47.8305   25.4720   38.2369 H   0  0  0  0  0  0  0  0  0  0  0  0
   42.6589   21.9752   37.1001 H   0  0  0  0  0  0  0  0  0  0  0  0
   41.8735   23.4930   37.6525 H   0  0  0  0  0  0  0  0  0  0  0  0
   40.2638   21.4488   36.0215 H   0  0  0  0  0  0  0  0  0  0  0  0
   40.4570   21.1786   37.7438 H   0  0  0  0  0  0  0  0  0  0  0  0
   39.0459   22.4521   39.2488 H   0  0  0  0  0  0  0  0  0  0  0  0
   37.4457   24.3412   39.5581 H   0  0  0  0  0  0  0  0  0  0  0  0
   37.1692   25.9684   35.0593 H   0  0  0  0  0  0  0  0  0  0  0  0
   38.7838   25.4493   34.3878 H   0  0  0  0  0  0  0  0  0  0  0  0
   38.8814   27.4028   36.5860 H   0  0  0  0  0  0  0  0  0  0  0  0
   39.8114   27.3014   35.0525 H   0  0  0  0  0  0  0  0  0  0  0  0
   38.1515   27.9879   35.0525 H   0  0  0  0  0  0  0  0  0  0  0  0
  1 16  1  0
  2  1  1  0
  2  7  1  0
  3  2  2  0
  4  5  2  0
  4  3  1  0
  5  6  1  0
  6  7  2  0
  6  8  1  0
  8 14  1  0
  9 10  2  0
  9  8  1  0
 10 11  1  0
 11 12  2  0
 11 13  1  0
 14 13  1  0
 14 15  2  0
 16 17  1  0
 17 18  1  0
 18 19  2  0
 19 20  1  0
 21 20  2  0
 22 21  1  0
 23 22  2  0
 23 18  1  0
 24 25  1  0
 24 22  1  0
  1 26  1  0
  3 27  1  0
  4 28  1  0
  9 29  1  0
 10 30  1  0
 13 31  1  0
 16 32  1  0
 16 33  1  0
 17 34  1  0
 17 35  1  0
 19 36  1  0
 20 37  1  0
 24 38  1  0
 24 39  1  0
 25 40  1  0
 25 41  1  0
 25 42  1  0
M  ISO  8  27  14  28  14  29  14  30  14  31   9  32   8  33   8  34   8
M  ISO  8  35   8  36  14  37  14  38   8  39   8  40   8  41   8  42   8
M  END
>  <minimizedAffinity>  (1) 
-5.21376848

>  <minimizedRMSD>  (1) 
0.896176755

$$$$
