
     RDKit          3D

 39 41  0  0  0  0  0  0  0  0999 V2000
   42.0480   23.2830   35.6790 N   0  0  0  0  0  0  0  0  0  0  0  0
   42.7880   24.4630   35.3100 C   0  0  0  0  0  0  0  0  0  0  0  0
   42.1000   25.2540   34.4260 C   0  0  0  0  0  0  0  0  0  0  0  0
   42.6750   26.4310   33.9210 C   0  0  0  0  0  0  0  0  0  0  0  0
   43.9300   26.8010   34.3120 N   0  0  0  0  0  0  0  0  0  0  0  0
   44.5800   25.9840   35.1980 C   0  0  0  0  0  0  0  0  0  0  0  0
   44.0620   24.8410   35.7060 N   0  0  0  0  0  0  0  0  0  0  0  0
   45.8720   26.2230   35.7250 N   0  0  0  0  0  0  0  0  0  0  0  0
   46.6760   27.0390   35.0200 C   0  0  0  0  0  0  0  0  0  0  0  0
   47.9310   27.3420   35.4630 C   0  0  0  0  0  0  0  0  0  0  0  0
   48.3960   26.7990   36.6710 C   0  0  0  0  0  0  0  0  0  0  0  0
   49.5590   27.0510   37.1330 O   0  0  0  0  0  0  0  0  0  0  0  0
   47.5630   25.9900   37.3400 N   0  0  0  0  0  0  0  0  0  0  0  0
   46.3240   25.6920   36.9000 C   0  0  0  0  0  0  0  0  0  0  0  0
   45.5120   24.9360   37.4990 O   0  0  0  0  0  0  0  0  0  0  0  0
   41.9290   22.7130   37.0140 C   0  0  0  0  0  0  0  0  0  0  0  0
   40.6070   21.9100   37.1150 C   0  0  0  0  0  0  0  0  0  0  0  0
   39.5780   22.9580   37.2450 C   0  0  0  0  0  0  0  0  0  0  0  0
   38.9750   23.2340   38.4690 C   0  0  0  0  0  0  0  0  0  0  0  0
   38.0290   24.2250   38.5270 C   0  0  0  0  0  0  0  0  0  0  0  0
   37.7170   24.8990   37.3910 N   0  0  0  0  0  0  0  0  0  0  0  0
   38.3180   24.6120   36.2080 C   0  0  0  0  0  0  0  0  0  0  0  0
   39.2100   23.6680   36.1820 N   0  0  0  0  0  0  0  0  0  0  0  0
   37.9050   25.3990   35.0510 C   0  0  0  0  0  0  0  0  0  0  0  0
   38.3160   25.1150   33.8980 O   0  0  0  0  0  0  0  0  0  0  0  0
   37.0550   26.4830   35.1480 O   0  0  0  0  0  0  0  0  0  0  0  0
   41.5524   22.7923   34.9210 H   0  0  0  0  0  0  0  0  0  0  0  0
   41.0874   24.9634   34.1094 H   0  0  0  0  0  0  0  0  0  0  0  0
   42.1143   27.0555   33.2100 H   0  0  0  0  0  0  0  0  0  0  0  0
   46.3170   27.4682   34.0730 H   0  0  0  0  0  0  0  0  0  0  0  0
   48.5767   28.0104   34.8745 H   0  0  0  0  0  0  0  0  0  0  0  0
   47.8830   25.5783   38.2283 H   0  0  0  0  0  0  0  0  0  0  0  0
   42.7806   22.0433   37.2044 H   0  0  0  0  0  0  0  0  0  0  0  0
   41.9257   23.5216   37.7598 H   0  0  0  0  0  0  0  0  0  0  0  0
   40.4426   21.3075   36.2095 H   0  0  0  0  0  0  0  0  0  0  0  0
   40.6012   21.1970   37.9527 H   0  0  0  0  0  0  0  0  0  0  0  0
   39.2517   22.6687   39.3712 H   0  0  0  0  0  0  0  0  0  0  0  0
   37.5318   24.4694   39.4773 H   0  0  0  0  0  0  0  0  0  0  0  0
   36.8019   26.9879   34.3349 H   0  0  0  0  0  0  0  0  0  0  0  0
  1 16  1  0
  2  1  1  0
  2  7  1  0
  3  2  2  0
  4  5  2  0
  4  3  1  0
  5  6  1  0
  6  7  2  0
  6  8  1  0
  8 14  1  0
  9 10  2  0
  9  8  1  0
 10 11  1  0
 11 12  2  0
 11 13  1  0
 14 13  1  0
 14 15  2  0
 16 17  1  0
 17 18  1  0
 18 19  2  0
 19 20  1  0
 21 20  2  0
 22 21  1  0
 23 22  2  0
 23 18  1  0
 24 26  1  0
 24 22  1  0
 25 24  2  0
  1 27  1  0
  3 28  1  0
  4 29  1  0
  9 30  1  0
 10 31  1  0
 13 32  1  0
 16 33  1  0
 16 34  1  0
 17 35  1  0
 17 36  1  0
 19 37  1  0
 20 38  1  0
 26 39  1  0
M  ISO  8  28  14  29  14  30  14  31  14  32   9  33   8  34   8  35   8
M  ISO  4  36   8  37  14  38  14  39   3
M  END
>  <minimizedAffinity>  (1) 
-5.1937151

>  <minimizedRMSD>  (1) 
0.707461596

$$$$
