
     RDKit          3D

 34 36  0  0  0  0  0  0  0  0999 V2000
   38.5830   23.2520   38.2710 C   0  0  0  0  0  0  0  0  0  0  0  0
   38.0770   24.4020   37.6540 C   0  0  0  0  0  0  0  0  0  0  0  0
   38.6820   24.7970   36.4500 C   0  0  0  0  0  0  0  0  0  0  0  0
   39.7060   24.0370   35.9790 N   0  0  0  0  0  0  0  0  0  0  0  0
   40.1630   22.9350   36.6050 C   0  0  0  0  0  0  0  0  0  0  0  0
   39.5820   22.5490   37.7700 N   0  0  0  0  0  0  0  0  0  0  0  0
   41.2460   22.1750   36.0600 N   0  0  0  0  0  0  0  0  0  0  0  0
   41.2660   21.8640   34.6890 C   0  0  0  0  0  0  0  0  0  0  0  0
   40.2290   22.1330   33.9630 N   0  0  0  0  0  0  0  0  0  0  0  0
   42.4300   21.2550   34.0980 N   0  0  0  0  0  0  0  0  0  0  0  0
   40.2440   21.8810   32.9460 H   0  0  0  0  0  0  0  0  0  0  0  0
   38.2410   25.9370   35.7610 N   0  0  0  0  0  0  0  0  0  0  0  0
   38.3110   27.1930   36.2250 C   0  0  0  0  0  0  0  0  0  0  0  0
   37.7980   28.0470   35.3060 N   0  0  0  0  0  0  0  0  0  0  0  0
   37.4080   27.2760   34.2610 C   0  0  0  0  0  0  0  0  0  0  0  0
   36.8210   27.7120   33.0800 C   0  0  0  0  0  0  0  0  0  0  0  0
   36.5210   26.7360   32.1810 N   0  0  0  0  0  0  0  0  0  0  0  0
   36.7930   25.4370   32.4630 C   0  0  0  0  0  0  0  0  0  0  0  0
   37.3720   25.0250   33.6310 N   0  0  0  0  0  0  0  0  0  0  0  0
   37.6870   25.9530   34.5490 C   0  0  0  0  0  0  0  0  0  0  0  0
   36.4700   24.3450   31.4850 C   0  0  0  0  0  0  0  0  0  0  0  0
   35.0830   24.5570   30.9180 C   0  0  0  0  0  0  0  0  0  0  0  0
   38.1280   22.9191   39.2155 H   0  0  0  0  0  0  0  0  0  0  0  0
   37.2434   24.9704   38.0923 H   0  0  0  0  0  0  0  0  0  0  0  0
   42.0106   21.8559   36.6719 H   0  0  0  0  0  0  0  0  0  0  0  0
   42.4390   21.0293   33.0931 H   0  0  0  0  0  0  0  0  0  0  0  0
   43.2533   21.0452   34.6804 H   0  0  0  0  0  0  0  0  0  0  0  0
   38.7221   27.4857   37.2024 H   0  0  0  0  0  0  0  0  0  0  0  0
   36.6128   28.7744   32.8849 H   0  0  0  0  0  0  0  0  0  0  0  0
   37.2049   24.3588   30.6666 H   0  0  0  0  0  0  0  0  0  0  0  0
   36.5067   23.3739   32.0004 H   0  0  0  0  0  0  0  0  0  0  0  0
   34.3628   24.6671   31.7422 H   0  0  0  0  0  0  0  0  0  0  0  0
   35.0747   25.4668   30.2998 H   0  0  0  0  0  0  0  0  0  0  0  0
   34.8033   23.6912   30.2998 H   0  0  0  0  0  0  0  0  0  0  0  0
  2  1  2  0
  3  2  1  0
  4  3  2  0
  4  5  1  0
  5  6  2  0
  6  1  1  0
  7  5  1  0
  8  7  1  0
  9  8  2  0
 10  8  1  0
 11  9  1  0
 12 13  1  0
 12  3  1  0
 14 13  2  0
 15 20  2  0
 15 14  1  0
 16 15  1  0
 17 18  1  0
 17 16  2  0
 18 19  2  0
 19 20  1  0
 20 12  1  0
 21 18  1  0
 22 21  1  0
  1 23  1  0
  2 24  1  0
  7 25  1  0
 10 26  1  0
 10 27  1  0
 13 28  1  0
 16 29  1  0
 21 30  1  0
 21 31  1  0
 22 32  1  0
 22 33  1  0
 22 34  1  0
M  ISO  8  23  14  24  14  28  14  29  14  30   8  31   8  32   8  33   8
M  ISO  1  34   8
M  END
>  <minimizedAffinity>  (1) 
-5.37775326

>  <minimizedRMSD>  (1) 
4.02878952

$$$$
