
     RDKit          3D

 52 55  0  0  0  0  0  0  0  0999 V2000
   42.0650   22.7130   37.0940 C   0  0  0  0  0  0  0  0  0  0  0  0
   40.7800   21.8590   37.2050 C   0  0  0  0  0  0  0  0  0  0  0  0
   39.7090   22.8780   37.2100 C   0  0  0  0  0  0  0  0  0  0  0  0
   39.0370   23.2220   38.3650 C   0  0  0  0  0  0  0  0  0  0  0  0
   38.0550   24.1640   38.2970 C   0  0  0  0  0  0  0  0  0  0  0  0
   37.7670   24.7320   37.1000 N   0  0  0  0  0  0  0  0  0  0  0  0
   38.4370   24.3870   35.9540 C   0  0  0  0  0  0  0  0  0  0  0  0
   39.3570   23.4920   36.0780 N   0  0  0  0  0  0  0  0  0  0  0  0
   38.0090   25.0780   34.7100 C   0  0  0  0  0  0  0  0  0  0  0  0
   38.1380   26.5620   34.7360 C   0  0  0  0  0  0  0  0  0  0  0  0
   38.6920   26.9720   33.3670 C   0  0  0  0  0  0  0  0  0  0  0  0
   37.5730   27.5800   32.5920 C   0  0  0  0  0  0  0  0  0  0  0  0
   36.7710   28.2580   33.6920 C   0  0  0  0  0  0  0  0  0  0  0  0
   36.7170   27.1480   34.7190 C   0  0  0  0  0  0  0  0  0  0  0  0
   42.2190   23.2100   35.7440 N   0  0  0  0  0  0  0  0  0  0  0  0
   42.9160   24.4040   35.3220 C   0  0  0  0  0  0  0  0  0  0  0  0
   42.1920   25.1490   34.4250 C   0  0  0  0  0  0  0  0  0  0  0  0
   42.7120   26.3320   33.9030 C   0  0  0  0  0  0  0  0  0  0  0  0
   43.9580   26.7690   34.2830 N   0  0  0  0  0  0  0  0  0  0  0  0
   44.6460   25.9880   35.1860 C   0  0  0  0  0  0  0  0  0  0  0  0
   44.1770   24.8400   35.7100 N   0  0  0  0  0  0  0  0  0  0  0  0
   45.9280   26.3150   35.6720 N   0  0  0  0  0  0  0  0  0  0  0  0
   46.6910   27.1430   34.9570 C   0  0  0  0  0  0  0  0  0  0  0  0
   47.9360   27.4960   35.4110 C   0  0  0  0  0  0  0  0  0  0  0  0
   48.4290   27.0000   36.6220 C   0  0  0  0  0  0  0  0  0  0  0  0
   49.5690   27.3030   37.0750 O   0  0  0  0  0  0  0  0  0  0  0  0
   47.6310   26.1730   37.3040 N   0  0  0  0  0  0  0  0  0  0  0  0
   46.4090   25.8200   36.8690 C   0  0  0  0  0  0  0  0  0  0  0  0
   45.6340   25.0380   37.4940 O   0  0  0  0  0  0  0  0  0  0  0  0
   41.9975   23.5631   37.7888 H   0  0  0  0  0  0  0  0  0  0  0  0
   42.9342   22.0886   37.3482 H   0  0  0  0  0  0  0  0  0  0  0  0
   40.6787   21.1819   36.3440 H   0  0  0  0  0  0  0  0  0  0  0  0
   40.7653   21.2074   38.0911 H   0  0  0  0  0  0  0  0  0  0  0  0
   39.2895   22.7444   39.3232 H   0  0  0  0  0  0  0  0  0  0  0  0
   37.5031   24.4598   39.2013 H   0  0  0  0  0  0  0  0  0  0  0  0
   36.9526   24.8307   34.5289 H   0  0  0  0  0  0  0  0  0  0  0  0
   38.6834   24.7254   33.9157 H   0  0  0  0  0  0  0  0  0  0  0  0
   38.7436   26.8859   35.5953 H   0  0  0  0  0  0  0  0  0  0  0  0
   39.5020   27.7053   33.4944 H   0  0  0  0  0  0  0  0  0  0  0  0
   39.0989   26.0980   32.8373 H   0  0  0  0  0  0  0  0  0  0  0  0
   37.9438   28.3101   31.8576 H   0  0  0  0  0  0  0  0  0  0  0  0
   36.9951   26.8563   31.9985 H   0  0  0  0  0  0  0  0  0  0  0  0
   37.2879   29.1472   34.0821 H   0  0  0  0  0  0  0  0  0  0  0  0
   35.7882   28.6372   33.3751 H   0  0  0  0  0  0  0  0  0  0  0  0
   36.4505   27.5478   35.7085 H   0  0  0  0  0  0  0  0  0  0  0  0
   35.9577   26.3909   34.4737 H   0  0  0  0  0  0  0  0  0  0  0  0
   41.7822   22.6491   34.9987 H   0  0  0  0  0  0  0  0  0  0  0  0
   41.1926   24.8094   34.1154 H   0  0  0  0  0  0  0  0  0  0  0  0
   42.1221   26.9186   33.1834 H   0  0  0  0  0  0  0  0  0  0  0  0
   46.3210   27.5434   34.0016 H   0  0  0  0  0  0  0  0  0  0  0  0
   48.5565   28.1799   34.8133 H   0  0  0  0  0  0  0  0  0  0  0  0
   47.9660   25.7904   38.1997 H   0  0  0  0  0  0  0  0  0  0  0  0
  1  2  1  0
  2  3  1  0
  3  4  2  0
  5  4  1  0
  6  5  2  0
  7  8  2  0
  7  6  1  0
  8  3  1  0
  9 10  1  0
  9  7  1  0
 11 10  1  0
 12 11  1  0
 12 13  1  0
 13 14  1  0
 14 10  1  0
 15  1  1  0
 16 21  1  0
 16 15  1  0
 17 16  2  0
 18 19  2  0
 18 17  1  0
 19 20  1  0
 20 22  1  0
 20 21  2  0
 22 28  1  0
 23 24  2  0
 23 22  1  0
 24 25  1  0
 25 26  2  0
 25 27  1  0
 28 27  1  0
 28 29  2  0
  1 30  1  0
  1 31  1  0
  2 32  1  0
  2 33  1  0
  4 34  1  0
  5 35  1  0
  9 36  1  0
  9 37  1  0
 10 38  1  0
 11 39  1  0
 11 40  1  0
 12 41  1  0
 12 42  1  0
 13 43  1  0
 13 44  1  0
 14 45  1  0
 14 46  1  0
 15 47  1  0
 17 48  1  0
 18 49  1  0
 23 50  1  0
 24 51  1  0
 27 52  1  0
M  ISO  8  30   8  31   8  32   8  33   8  34  14  35  14  36   8  37   8
M  ISO  8  38  13  39  13  40  13  41  13  42  13  43  13  44  13  45  13
M  ISO  6  46  13  48  14  49  14  50  14  51  14  52   9
M  END
>  <minimizedAffinity>  (1) 
-5.74839544

>  <minimizedRMSD>  (1) 
0.433470845

$$$$
