
     RDKit          3D

 35 38  0  0  0  0  0  0  0  0999 V2000
   39.5150   20.5220   29.5540 C   0  0  0  0  0  0  0  0  0  0  0  0
   39.6240   21.8630   29.8700 C   0  0  0  0  0  0  0  0  0  0  0  0
   38.5240   22.4760   30.4680 C   0  0  0  0  0  0  0  0  0  0  0  0
   37.4210   21.7140   30.6960 N   0  0  0  0  0  0  0  0  0  0  0  0
   37.3440   20.4130   30.3780 C   0  0  0  0  0  0  0  0  0  0  0  0
   38.4120   19.8130   29.7960 N   0  0  0  0  0  0  0  0  0  0  0  0
   36.1680   19.6630   30.6380 N   0  0  0  0  0  0  0  0  0  0  0  0
   35.5070   19.7800   31.8830 C   0  0  0  0  0  0  0  0  0  0  0  0
   36.0880   20.4400   32.8370 N   0  0  0  0  0  0  0  0  0  0  0  0
   34.2160   19.1770   32.0840 N   0  0  0  0  0  0  0  0  0  0  0  0
   35.6000   20.5030   33.7600 H   0  0  0  0  0  0  0  0  0  0  0  0
   38.5530   23.8420   30.8230 N   0  0  0  0  0  0  0  0  0  0  0  0
   38.6600   24.8640   29.9670 C   0  0  0  0  0  0  0  0  0  0  0  0
   38.6570   26.0360   30.6510 N   0  0  0  0  0  0  0  0  0  0  0  0
   38.5450   25.6980   31.9590 C   0  0  0  0  0  0  0  0  0  0  0  0
   38.5010   26.5700   33.0330 C   0  0  0  0  0  0  0  0  0  0  0  0
   38.3850   25.9980   34.2580 N   0  0  0  0  0  0  0  0  0  0  0  0
   38.3210   24.6400   34.3650 C   0  0  0  0  0  0  0  0  0  0  0  0
   38.3660   23.7910   33.2940 N   0  0  0  0  0  0  0  0  0  0  0  0
   38.4810   24.3220   32.0650 C   0  0  0  0  0  0  0  0  0  0  0  0
   38.2020   24.1660   35.7040 N   0  0  0  0  0  0  0  0  0  0  0  0
   38.8320   23.0130   35.9910 C   0  0  0  0  0  0  0  0  0  0  0  0
   38.6000   22.7230   37.3200 C   0  0  0  0  0  0  0  0  0  0  0  0
   37.8320   23.7030   37.8240 N   0  0  0  0  0  0  0  0  0  0  0  0
   37.6040   24.5680   36.8170 C   0  0  0  0  0  0  0  0  0  0  0  0
   40.3730   20.0192   29.0838 H   0  0  0  0  0  0  0  0  0  0  0  0
   40.5448   22.4259   29.6575 H   0  0  0  0  0  0  0  0  0  0  0  0
   35.7938   19.0302   29.9166 H   0  0  0  0  0  0  0  0  0  0  0  0
   33.7416   19.2670   32.9938 H   0  0  0  0  0  0  0  0  0  0  0  0
   33.7664   18.6554   31.3181 H   0  0  0  0  0  0  0  0  0  0  0  0
   38.7385   24.7689   28.8739 H   0  0  0  0  0  0  0  0  0  0  0  0
   38.5567   27.6607   32.9014 H   0  0  0  0  0  0  0  0  0  0  0  0
   39.4268   22.4083   35.2905 H   0  0  0  0  0  0  0  0  0  0  0  0
   38.9764   21.8467   37.8682 H   0  0  0  0  0  0  0  0  0  0  0  0
   37.0025   25.4847   36.9060 H   0  0  0  0  0  0  0  0  0  0  0  0
  1  6  2  0
  1  2  1  0
  2  3  2  0
  3  4  1  0
  3 12  1  0
  5  7  1  0
  5  4  2  0
  6  5  1  0
  7  8  1  0
  8 10  1  0
  8  9  2  0
  9 11  1  0
 12 20  1  0
 13 14  2  0
 13 12  1  0
 14 15  1  0
 15 20  2  0
 15 16  1  0
 16 17  2  0
 17 18  1  0
 18 21  1  0
 19 18  2  0
 20 19  1  0
 21 22  1  0
 21 25  1  0
 22 23  2  0
 23 24  1  0
 25 24  2  0
  1 26  1  0
  2 27  1  0
  7 28  1  0
 10 29  1  0
 10 30  1  0
 13 31  1  0
 16 32  1  0
 22 33  1  0
 23 34  1  0
 25 35  1  0
M  ISO  7  26  14  27  14  31  14  32  14  33  14  34  14  35  14
M  END
>  <minimizedAffinity>  (1) 
-5.22934198

>  <minimizedRMSD>  (1) 
4.02967262

$$$$
