
     RDKit          3D

 47 50  0  0  0  0  0  0  0  0999 V2000
   41.9950   22.8430   37.0090 C   0  0  0  0  0  0  0  0  0  0  0  0
   40.7260   21.9550   36.9380 C   0  0  0  0  0  0  0  0  0  0  0  0
   39.6410   22.9450   36.7570 C   0  0  0  0  0  0  0  0  0  0  0  0
   38.7730   23.2640   37.7930 C   0  0  0  0  0  0  0  0  0  0  0  0
   37.7950   24.1830   37.5650 C   0  0  0  0  0  0  0  0  0  0  0  0
   37.7020   24.7550   36.3370 N   0  0  0  0  0  0  0  0  0  0  0  0
   38.5620   24.4300   35.3370 C   0  0  0  0  0  0  0  0  0  0  0  0
   39.4820   23.5510   35.5850 N   0  0  0  0  0  0  0  0  0  0  0  0
   38.3630   25.1330   34.0160 C   0  0  0  0  0  0  0  0  0  0  0  0
   37.4810   24.4050   33.1010 C   0  0  0  0  0  0  0  0  0  0  0  0
   36.6540   25.0960   32.2090 C   0  0  0  0  0  0  0  0  0  0  0  0
   35.8030   24.4540   31.3260 C   0  0  0  0  0  0  0  0  0  0  0  0
   35.7410   23.0920   31.2910 N   0  0  0  0  0  0  0  0  0  0  0  0
   36.5550   22.4360   32.1670 C   0  0  0  0  0  0  0  0  0  0  0  0
   37.3850   23.0650   33.0310 N   0  0  0  0  0  0  0  0  0  0  0  0
   42.3730   23.2580   35.6680 N   0  0  0  0  0  0  0  0  0  0  0  0
   43.0870   24.4570   35.3000 C   0  0  0  0  0  0  0  0  0  0  0  0
   42.3690   25.2690   34.4450 C   0  0  0  0  0  0  0  0  0  0  0  0
   42.9040   26.4630   33.9830 C   0  0  0  0  0  0  0  0  0  0  0  0
   44.1670   26.8610   34.3720 N   0  0  0  0  0  0  0  0  0  0  0  0
   44.8450   26.0200   35.2270 C   0  0  0  0  0  0  0  0  0  0  0  0
   44.3580   24.8530   35.6960 N   0  0  0  0  0  0  0  0  0  0  0  0
   46.1310   26.3020   35.7260 N   0  0  0  0  0  0  0  0  0  0  0  0
   46.9010   27.1510   35.0410 C   0  0  0  0  0  0  0  0  0  0  0  0
   48.1520   27.4720   35.5010 C   0  0  0  0  0  0  0  0  0  0  0  0
   48.6420   26.9220   36.6890 C   0  0  0  0  0  0  0  0  0  0  0  0
   49.7820   27.1850   37.1580 O   0  0  0  0  0  0  0  0  0  0  0  0
   47.8360   26.0720   37.3480 N   0  0  0  0  0  0  0  0  0  0  0  0
   46.6050   25.7510   36.9000 C   0  0  0  0  0  0  0  0  0  0  0  0
   45.8180   24.9550   37.4900 O   0  0  0  0  0  0  0  0  0  0  0  0
   41.7864   23.7318   37.6226 H   0  0  0  0  0  0  0  0  0  0  0  0
   42.8182   22.2699   37.4607 H   0  0  0  0  0  0  0  0  0  0  0  0
   40.7753   21.2613   36.0857 H   0  0  0  0  0  0  0  0  0  0  0  0
   40.5904   21.3184   37.8248 H   0  0  0  0  0  0  0  0  0  0  0  0
   38.8737   22.7839   38.7776 H   0  0  0  0  0  0  0  0  0  0  0  0
   37.0905   24.4582   38.3637 H   0  0  0  0  0  0  0  0  0  0  0  0
   37.9250   26.1233   34.2097 H   0  0  0  0  0  0  0  0  0  0  0  0
   39.3484   25.2039   33.5323 H   0  0  0  0  0  0  0  0  0  0  0  0
   36.6811   26.1957   32.2093 H   0  0  0  0  0  0  0  0  0  0  0  0
   35.1720   25.0468   30.6474 H   0  0  0  0  0  0  0  0  0  0  0  0
   36.5357   21.3362   32.1714 H   0  0  0  0  0  0  0  0  0  0  0  0
   42.1024   22.6292   34.8984 H   0  0  0  0  0  0  0  0  0  0  0  0
   41.3608   24.9658   34.1262 H   0  0  0  0  0  0  0  0  0  0  0  0
   42.3173   27.0969   33.3018 H   0  0  0  0  0  0  0  0  0  0  0  0
   46.5305   27.5942   34.1049 H   0  0  0  0  0  0  0  0  0  0  0  0
   48.7782   28.1714   34.9278 H   0  0  0  0  0  0  0  0  0  0  0  0
   48.1703   25.6507   38.2264 H   0  0  0  0  0  0  0  0  0  0  0  0
  2  1  1  0
  3  2  1  0
  3  4  2  0
  5  4  1  0
  6  5  2  0
  7  8  2  0
  7  6  1  0
  8  3  1  0
  9  7  1  0
 10  9  1  0
 11 10  2  0
 12 11  1  0
 13 12  2  0
 13 14  1  0
 14 15  2  0
 15 10  1  0
 16  1  1  0
 17 16  1  0
 17 22  1  0
 18 17  2  0
 19 20  2  0
 19 18  1  0
 20 21  1  0
 21 22  2  0
 21 23  1  0
 23 29  1  0
 24 25  2  0
 24 23  1  0
 25 26  1  0
 26 27  2  0
 26 28  1  0
 29 28  1  0
 29 30  2  0
  1 31  1  0
  1 32  1  0
  2 33  1  0
  2 34  1  0
  4 35  1  0
  5 36  1  0
  9 37  1  0
  9 38  1  0
 11 39  1  0
 12 40  1  0
 14 41  1  0
 16 42  1  0
 18 43  1  0
 19 44  1  0
 24 45  1  0
 25 46  1  0
 28 47  1  0
M  ISO  8  31   8  32   8  33   8  34   8  35  14  36  14  37   8  38   8
M  ISO  8  39  14  40  14  41  14  43  14  44  14  45  14  46  14  47   9
M  END
>  <minimizedAffinity>  (1) 
-5.54981375

>  <minimizedRMSD>  (1) 
0.957052112

$$$$
