
     RDKit          3D

 55 58  0  0  0  0  0  0  0  0999 V2000
   41.8540   22.6590   36.8800 C   0  0  0  0  0  0  0  0  0  0  0  0
   40.4590   21.9880   36.8870 C   0  0  0  0  0  0  0  0  0  0  0  0
   39.5440   23.1290   37.0780 C   0  0  0  0  0  0  0  0  0  0  0  0
   38.7570   23.2410   38.2240 C   0  0  0  0  0  0  0  0  0  0  0  0
   37.9310   24.3200   38.3430 C   0  0  0  0  0  0  0  0  0  0  0  0
   37.9050   25.2390   37.3470 N   0  0  0  0  0  0  0  0  0  0  0  0
   38.6850   25.1110   36.2290 C   0  0  0  0  0  0  0  0  0  0  0  0
   39.4610   24.0740   36.1460 N   0  0  0  0  0  0  0  0  0  0  0  0
   38.5640   26.1960   35.2040 C   0  0  0  0  0  0  0  0  0  0  0  0
   37.2890   26.0670   34.4130 C   0  0  0  0  0  0  0  0  0  0  0  0
   37.0330   27.4430   33.7830 C   0  0  0  0  0  0  0  0  0  0  0  0
   37.9050   27.6460   32.5710 C   0  0  0  0  0  0  0  0  0  0  0  0
   37.5060   26.7430   31.4350 C   0  0  0  0  0  0  0  0  0  0  0  0
   36.7330   25.5920   32.0420 C   0  0  0  0  0  0  0  0  0  0  0  0
   37.4500   25.0950   33.2810 C   0  0  0  0  0  0  0  0  0  0  0  0
   42.1690   23.1140   35.5370 N   0  0  0  0  0  0  0  0  0  0  0  0
   42.8870   24.3110   35.1720 C   0  0  0  0  0  0  0  0  0  0  0  0
   42.2010   25.0990   34.2680 C   0  0  0  0  0  0  0  0  0  0  0  0
   42.7480   26.2860   33.8050 C   0  0  0  0  0  0  0  0  0  0  0  0
   43.9890   26.7050   34.2380 N   0  0  0  0  0  0  0  0  0  0  0  0
   44.6370   25.8960   35.1350 C   0  0  0  0  0  0  0  0  0  0  0  0
   44.1390   24.7220   35.6180 N   0  0  0  0  0  0  0  0  0  0  0  0
   45.9000   26.1920   35.6810 N   0  0  0  0  0  0  0  0  0  0  0  0
   46.6970   27.0310   35.0230 C   0  0  0  0  0  0  0  0  0  0  0  0
   47.9190   27.3710   35.4970 C   0  0  0  0  0  0  0  0  0  0  0  0
   48.3760   26.8310   36.7190 C   0  0  0  0  0  0  0  0  0  0  0  0
   49.5020   27.1040   37.2190 O   0  0  0  0  0  0  0  0  0  0  0  0
   47.5440   25.9800   37.3650 N   0  0  0  0  0  0  0  0  0  0  0  0
   46.3370   25.6570   36.8770 C   0  0  0  0  0  0  0  0  0  0  0  0
   45.5340   24.8690   37.4480 O   0  0  0  0  0  0  0  0  0  0  0  0
   41.8502   23.5186   37.5663 H   0  0  0  0  0  0  0  0  0  0  0  0
   42.6113   21.9309   37.2061 H   0  0  0  0  0  0  0  0  0  0  0  0
   40.2609   21.4775   35.9330 H   0  0  0  0  0  0  0  0  0  0  0  0
   40.3540   21.2134   37.6609 H   0  0  0  0  0  0  0  0  0  0  0  0
   38.8014   22.4767   39.0138 H   0  0  0  0  0  0  0  0  0  0  0  0
   37.2962   24.4424   39.2330 H   0  0  0  0  0  0  0  0  0  0  0  0
   38.5720   27.1712   35.7129 H   0  0  0  0  0  0  0  0  0  0  0  0
   39.4121   26.1107   34.5087 H   0  0  0  0  0  0  0  0  0  0  0  0
   36.4782   25.7225   35.0717 H   0  0  0  0  0  0  0  0  0  0  0  0
   35.9769   27.5118   33.4833 H   0  0  0  0  0  0  0  0  0  0  0  0
   37.2716   28.2204   34.5238 H   0  0  0  0  0  0  0  0  0  0  0  0
   37.8179   28.6918   32.2414 H   0  0  0  0  0  0  0  0  0  0  0  0
   38.9406   27.4036   32.8516 H   0  0  0  0  0  0  0  0  0  0  0  0
   38.4011   26.3671   30.9178 H   0  0  0  0  0  0  0  0  0  0  0  0
   36.8947   27.2834   30.6972 H   0  0  0  0  0  0  0  0  0  0  0  0
   35.7235   25.9328   32.3153 H   0  0  0  0  0  0  0  0  0  0  0  0
   36.6602   24.7745   31.3096 H   0  0  0  0  0  0  0  0  0  0  0  0
   37.0282   24.1231   33.5768 H   0  0  0  0  0  0  0  0  0  0  0  0
   38.5211   24.9926   33.0525 H   0  0  0  0  0  0  0  0  0  0  0  0
   41.8449   22.5180   34.7619 H   0  0  0  0  0  0  0  0  0  0  0  0
   41.2100   24.7812   33.9117 H   0  0  0  0  0  0  0  0  0  0  0  0
   42.1867   26.8998   33.0851 H   0  0  0  0  0  0  0  0  0  0  0  0
   46.3540   27.4592   34.0696 H   0  0  0  0  0  0  0  0  0  0  0  0
   48.5550   28.0672   34.9306 H   0  0  0  0  0  0  0  0  0  0  0  0
   47.8474   25.5679   38.2589 H   0  0  0  0  0  0  0  0  0  0  0  0
  1  2  1  0
  2  3  1  0
  3  4  2  0
  4  5  1  0
  6  5  2  0
  7  6  1  0
  8  7  2  0
  8  3  1  0
  9  7  1  0
 10  9  1  0
 11 10  1  0
 12 11  1  0
 13 14  1  0
 13 12  1  0
 14 15  1  0
 15 10  1  0
 16  1  1  0
 17 16  1  0
 17 22  1  0
 18 17  2  0
 19 20  2  0
 19 18  1  0
 20 21  1  0
 21 22  2  0
 21 23  1  0
 23 29  1  0
 24 25  2  0
 24 23  1  0
 25 26  1  0
 26 27  2  0
 26 28  1  0
 29 28  1  0
 29 30  2  0
  1 31  1  0
  1 32  1  0
  2 33  1  0
  2 34  1  0
  4 35  1  0
  5 36  1  0
  9 37  1  0
  9 38  1  0
 10 39  1  0
 11 40  1  0
 11 41  1  0
 12 42  1  0
 12 43  1  0
 13 44  1  0
 13 45  1  0
 14 46  1  0
 14 47  1  0
 15 48  1  0
 15 49  1  0
 16 50  1  0
 18 51  1  0
 19 52  1  0
 24 53  1  0
 25 54  1  0
 28 55  1  0
M  ISO  8  31   8  32   8  33   8  34   8  35  14  36  14  37   8  38   8
M  ISO  8  39  13  40  13  41  13  42  13  43  13  44  13  45  13  46  13
M  ISO  8  47  13  48  13  49  13  51  14  52  14  53  14  54  14  55   9
M  END
>  <minimizedAffinity>  (1) 
-5.6557889

>  <minimizedRMSD>  (1) 
1.41404355

$$$$
