
     RDKit          3D

 53 56  0  0  0  0  0  0  0  0999 V2000
   41.9360   22.6250   36.9590 C   0  0  0  0  0  0  0  0  0  0  0  0
   40.5480   21.9360   36.9240 C   0  0  0  0  0  0  0  0  0  0  0  0
   39.6090   23.0690   37.0410 C   0  0  0  0  0  0  0  0  0  0  0  0
   38.7790   23.2190   38.1450 C   0  0  0  0  0  0  0  0  0  0  0  0
   37.9360   24.2910   38.1850 C   0  0  0  0  0  0  0  0  0  0  0  0
   37.9380   25.1670   37.1520 N   0  0  0  0  0  0  0  0  0  0  0  0
   38.7680   25.0010   36.0680 C   0  0  0  0  0  0  0  0  0  0  0  0
   39.5540   23.9670   36.0710 N   0  0  0  0  0  0  0  0  0  0  0  0
   38.6660   26.0390   34.9980 C   0  0  0  0  0  0  0  0  0  0  0  0
   37.4510   25.8850   34.2300 N   0  0  0  0  0  0  0  0  0  0  0  0
   36.9060   27.1440   33.7910 C   0  0  0  0  0  0  0  0  0  0  0  0
   37.4900   27.6070   32.4780 C   0  0  0  0  0  0  0  0  0  0  0  0
   37.5270   26.6000   31.4660 N   0  0  0  0  0  0  0  0  0  0  0  0
   38.2920   25.4720   31.9640 C   0  0  0  0  0  0  0  0  0  0  0  0
   37.5590   24.9350   33.1720 C   0  0  0  0  0  0  0  0  0  0  0  0
   42.3050   23.0320   35.6160 N   0  0  0  0  0  0  0  0  0  0  0  0
   43.0010   24.2400   35.2290 C   0  0  0  0  0  0  0  0  0  0  0  0
   42.2950   25.0080   34.3210 C   0  0  0  0  0  0  0  0  0  0  0  0
   42.8200   26.1960   33.8360 C   0  0  0  0  0  0  0  0  0  0  0  0
   44.0500   26.6270   34.2550 N   0  0  0  0  0  0  0  0  0  0  0  0
   44.7230   25.8340   35.1620 C   0  0  0  0  0  0  0  0  0  0  0  0
   44.2510   24.6750   35.6570 N   0  0  0  0  0  0  0  0  0  0  0  0
   45.9840   26.1690   35.6900 N   0  0  0  0  0  0  0  0  0  0  0  0
   46.7590   27.0130   35.0120 C   0  0  0  0  0  0  0  0  0  0  0  0
   47.9820   27.3830   35.5100 C   0  0  0  0  0  0  0  0  0  0  0  0
   48.4380   26.8860   36.7330 C   0  0  0  0  0  0  0  0  0  0  0  0
   49.5500   27.1970   37.2360 O   0  0  0  0  0  0  0  0  0  0  0  0
   47.6340   26.0370   37.3870 N   0  0  0  0  0  0  0  0  0  0  0  0
   46.4290   25.6690   36.8990 C   0  0  0  0  0  0  0  0  0  0  0  0
   45.6430   24.8680   37.4920 O   0  0  0  0  0  0  0  0  0  0  0  0
   41.8905   23.5096   37.6113 H   0  0  0  0  0  0  0  0  0  0  0  0
   42.6861   21.9215   37.3493 H   0  0  0  0  0  0  0  0  0  0  0  0
   40.3990   21.3958   35.9775 H   0  0  0  0  0  0  0  0  0  0  0  0
   40.4186   21.1835   37.7159 H   0  0  0  0  0  0  0  0  0  0  0  0
   38.8010   22.4899   38.9683 H   0  0  0  0  0  0  0  0  0  0  0  0
   37.2648   24.4416   39.0433 H   0  0  0  0  0  0  0  0  0  0  0  0
   38.6714   27.0354   35.4639 H   0  0  0  0  0  0  0  0  0  0  0  0
   39.5231   25.9221   34.3185 H   0  0  0  0  0  0  0  0  0  0  0  0
   35.8179   27.0341   33.6727 H   0  0  0  0  0  0  0  0  0  0  0  0
   37.1591   27.8980   34.5509 H   0  0  0  0  0  0  0  0  0  0  0  0
   36.8832   28.4463   32.1074 H   0  0  0  0  0  0  0  0  0  0  0  0
   38.5334   27.8915   32.6790 H   0  0  0  0  0  0  0  0  0  0  0  0
   37.9751   26.9761   30.6183 H   0  0  0  0  0  0  0  0  0  0  0  0
   38.3639   24.6939   31.1898 H   0  0  0  0  0  0  0  0  0  0  0  0
   39.3136   25.7799   32.2314 H   0  0  0  0  0  0  0  0  0  0  0  0
   36.5457   24.6385   32.8632 H   0  0  0  0  0  0  0  0  0  0  0  0
   38.1393   24.0827   33.5551 H   0  0  0  0  0  0  0  0  0  0  0  0
   42.0426   22.3903   34.8543 H   0  0  0  0  0  0  0  0  0  0  0  0
   41.3048   24.6722   33.9794 H   0  0  0  0  0  0  0  0  0  0  0  0
   42.2466   26.7940   33.1124 H   0  0  0  0  0  0  0  0  0  0  0  0
   46.4165   27.4156   34.0473 H   0  0  0  0  0  0  0  0  0  0  0  0
   48.6122   28.0804   34.9387 H   0  0  0  0  0  0  0  0  0  0  0  0
   47.9444   25.6525   38.2907 H   0  0  0  0  0  0  0  0  0  0  0  0
  2  1  1  0
  2  3  1  0
  3  4  2  0
  4  5  1  0
  6  5  2  0
  7  8  2  0
  7  6  1  0
  8  3  1  0
  9  7  1  0
 10  9  1  0
 11 10  1  0
 12 11  1  0
 13 14  1  0
 13 12  1  0
 14 15  1  0
 15 10  1  0
 16  1  1  0
 17 16  1  0
 17 22  1  0
 18 17  2  0
 19 20  2  0
 19 18  1  0
 20 21  1  0
 21 22  2  0
 21 23  1  0
 23 29  1  0
 24 25  2  0
 24 23  1  0
 25 26  1  0
 26 27  2  0
 26 28  1  0
 29 28  1  0
 29 30  2  0
  1 31  1  0
  1 32  1  0
  2 33  1  0
  2 34  1  0
  4 35  1  0
  5 36  1  0
  9 37  1  0
  9 38  1  0
 11 39  1  0
 11 40  1  0
 12 41  1  0
 12 42  1  0
 13 43  1  0
 14 44  1  0
 14 45  1  0
 15 46  1  0
 15 47  1  0
 16 48  1  0
 18 49  1  0
 19 50  1  0
 24 51  1  0
 25 52  1  0
 28 53  1  0
M  ISO  8  31   8  32   8  33   8  34   8  35  14  36  14  37   8  38   8
M  ISO  8  39  13  40  13  41  13  42  13  43   5  44  13  45  13  46  13
M  ISO  6  47  13  49  14  50  14  51  14  52  14  53   9
M  END
>  <minimizedAffinity>  (1) 
-5.39515066

>  <minimizedRMSD>  (1) 
1.30682969

$$$$
