
     RDKit          3D

 46 49  0  0  0  0  0  0  0  0999 V2000
   42.3000   22.8460   37.1480 C   0  0  0  0  0  0  0  0  0  0  0  0
   41.1890   21.7710   37.2130 C   0  0  0  0  0  0  0  0  0  0  0  0
   39.9580   22.5580   36.9580 C   0  0  0  0  0  0  0  0  0  0  0  0
   39.2570   23.1470   37.9900 C   0  0  0  0  0  0  0  0  0  0  0  0
   38.1250   23.8510   37.6880 C   0  0  0  0  0  0  0  0  0  0  0  0
   37.7350   23.9420   36.3890 N   0  0  0  0  0  0  0  0  0  0  0  0
   38.4400   23.3540   35.3760 C   0  0  0  0  0  0  0  0  0  0  0  0
   39.5000   22.7030   35.7180 N   0  0  0  0  0  0  0  0  0  0  0  0
   37.8780   23.5280   34.0100 C   0  0  0  0  0  0  0  0  0  0  0  0
   37.9150   24.8910   33.4950 C   0  0  0  0  0  0  0  0  0  0  0  0
   39.0310   25.7190   33.7530 C   0  0  0  0  0  0  0  0  0  0  0  0
   39.0320   26.9790   33.2740 C   0  0  0  0  0  0  0  0  0  0  0  0
   37.9350   27.4750   32.5200 C   0  0  0  0  0  0  0  0  0  0  0  0
   36.8320   25.9300   32.5410 S   0  0  0  0  0  0  0  0  0  0  0  0
   42.3160   23.4480   35.8250 N   0  0  0  0  0  0  0  0  0  0  0  0
   43.0680   24.6060   35.3940 C   0  0  0  0  0  0  0  0  0  0  0  0
   42.3860   25.3680   34.4760 C   0  0  0  0  0  0  0  0  0  0  0  0
   42.9740   26.5090   33.9530 C   0  0  0  0  0  0  0  0  0  0  0  0
   44.2350   26.9050   34.3330 N   0  0  0  0  0  0  0  0  0  0  0  0
   44.8720   26.1060   35.2560 C   0  0  0  0  0  0  0  0  0  0  0  0
   44.3430   24.9900   35.7900 N   0  0  0  0  0  0  0  0  0  0  0  0
   46.1600   26.3800   35.7600 N   0  0  0  0  0  0  0  0  0  0  0  0
   46.9660   27.1640   35.0320 C   0  0  0  0  0  0  0  0  0  0  0  0
   48.2190   27.4670   35.4960 C   0  0  0  0  0  0  0  0  0  0  0  0
   48.6760   26.9730   36.7220 C   0  0  0  0  0  0  0  0  0  0  0  0
   49.8210   27.2290   37.1870 O   0  0  0  0  0  0  0  0  0  0  0  0
   47.8350   26.1930   37.4130 N   0  0  0  0  0  0  0  0  0  0  0  0
   46.5990   25.8850   36.9710 C   0  0  0  0  0  0  0  0  0  0  0  0
   45.7820   25.1530   37.5940 O   0  0  0  0  0  0  0  0  0  0  0  0
   42.1031   23.6226   37.9017 H   0  0  0  0  0  0  0  0  0  0  0  0
   43.2749   22.3779   37.3493 H   0  0  0  0  0  0  0  0  0  0  0  0
   41.3354   21.0021   36.4401 H   0  0  0  0  0  0  0  0  0  0  0  0
   41.1670   21.2233   38.1667 H   0  0  0  0  0  0  0  0  0  0  0  0
   39.6007   23.0524   39.0306 H   0  0  0  0  0  0  0  0  0  0  0  0
   37.5393   24.3359   38.4829 H   0  0  0  0  0  0  0  0  0  0  0  0
   38.4502   22.8882   33.3221 H   0  0  0  0  0  0  0  0  0  0  0  0
   36.8145   23.2556   34.0794 H   0  0  0  0  0  0  0  0  0  0  0  0
   39.8846   25.3415   34.3351 H   0  0  0  0  0  0  0  0  0  0  0  0
   39.8948   27.6326   33.4698 H   0  0  0  0  0  0  0  0  0  0  0  0
   37.7728   28.4612   32.0605 H   0  0  0  0  0  0  0  0  0  0  0  0
   41.7237   22.9982   35.1124 H   0  0  0  0  0  0  0  0  0  0  0  0
   41.3755   25.0730   34.1569 H   0  0  0  0  0  0  0  0  0  0  0  0
   42.4198   27.1110   33.2178 H   0  0  0  0  0  0  0  0  0  0  0  0
   46.6234   27.5628   34.0658 H   0  0  0  0  0  0  0  0  0  0  0  0
   48.8773   28.1102   34.8936 H   0  0  0  0  0  0  0  0  0  0  0  0
   48.1449   25.8130   38.3188 H   0  0  0  0  0  0  0  0  0  0  0  0
  1  2  1  0
  3  2  1  0
  3  4  2  0
  5  4  1  0
  6  5  2  0
  7  8  2  0
  7  6  1  0
  8  3  1  0
  9  7  1  0
 10 11  2  0
 10  9  1  0
 12 11  1  0
 13 14  1  0
 13 12  2  0
 14 10  1  0
 15  1  1  0
 16 21  1  0
 16 15  1  0
 17 16  2  0
 18 19  2  0
 18 17  1  0
 19 20  1  0
 20 22  1  0
 20 21  2  0
 22 28  1  0
 23 24  2  0
 23 22  1  0
 24 25  1  0
 25 26  2  0
 25 27  1  0
 28 27  1  0
 28 29  2  0
  1 30  1  0
  1 31  1  0
  2 32  1  0
  2 33  1  0
  4 34  1  0
  5 35  1  0
  9 36  1  0
  9 37  1  0
 11 38  1  0
 12 39  1  0
 13 40  1  0
 15 41  1  0
 17 42  1  0
 18 43  1  0
 23 44  1  0
 24 45  1  0
 27 46  1  0
M  ISO  8  30   8  31   8  32   8  33   8  34  14  35  14  36   8  37   8
M  ISO  8  38  14  39  14  40  14  42  14  43  14  44  14  45  14  46   9
M  END
>  <minimizedAffinity>  (1) 
-5.29254103

>  <minimizedRMSD>  (1) 
1.44996727

$$$$
