
     RDKit          3D

 40 42  0  0  0  0  0  0  0  0999 V2000
   42.1990   23.2890   35.6730 N   0  0  0  0  0  0  0  0  0  0  0  0
   42.9180   24.4750   35.2700 C   0  0  0  0  0  0  0  0  0  0  0  0
   42.2150   25.2560   34.3740 C   0  0  0  0  0  0  0  0  0  0  0  0
   42.7580   26.4300   33.8740 C   0  0  0  0  0  0  0  0  0  0  0  0
   44.0130   26.8360   34.2630 N   0  0  0  0  0  0  0  0  0  0  0  0
   44.6850   26.0300   35.1590 C   0  0  0  0  0  0  0  0  0  0  0  0
   44.1870   24.8810   35.6660 N   0  0  0  0  0  0  0  0  0  0  0  0
   45.9620   26.3290   35.6630 N   0  0  0  0  0  0  0  0  0  0  0  0
   46.7360   27.1650   34.9740 C   0  0  0  0  0  0  0  0  0  0  0  0
   47.9800   27.5100   35.4360 C   0  0  0  0  0  0  0  0  0  0  0  0
   48.4550   26.9870   36.6420 C   0  0  0  0  0  0  0  0  0  0  0  0
   49.5870   27.2700   37.1200 O   0  0  0  0  0  0  0  0  0  0  0  0
   47.6520   26.1500   37.3050 N   0  0  0  0  0  0  0  0  0  0  0  0
   46.4270   25.8070   36.8540 C   0  0  0  0  0  0  0  0  0  0  0  0
   45.6370   25.0170   37.4570 O   0  0  0  0  0  0  0  0  0  0  0  0
   42.0440   22.7700   37.0170 C   0  0  0  0  0  0  0  0  0  0  0  0
   40.7600   21.9090   37.1000 C   0  0  0  0  0  0  0  0  0  0  0  0
   39.6830   22.9170   37.1530 C   0  0  0  0  0  0  0  0  0  0  0  0
   39.0170   23.2070   38.3370 C   0  0  0  0  0  0  0  0  0  0  0  0
   38.0300   24.1520   38.3190 C   0  0  0  0  0  0  0  0  0  0  0  0
   37.7360   24.7680   37.1460 N   0  0  0  0  0  0  0  0  0  0  0  0
   38.4060   24.4670   35.9870 C   0  0  0  0  0  0  0  0  0  0  0  0
   39.3320   23.5690   36.0500 N   0  0  0  0  0  0  0  0  0  0  0  0
   37.9730   25.2240   34.7680 C   0  0  0  0  0  0  0  0  0  0  0  0
   37.8450   24.2440   33.7620 O   0  0  0  0  0  0  0  0  0  0  0  0
   41.7454   22.7517   34.9204 H   0  0  0  0  0  0  0  0  0  0  0  0
   41.2108   24.9427   34.0526 H   0  0  0  0  0  0  0  0  0  0  0  0
   42.1818   27.0397   33.1625 H   0  0  0  0  0  0  0  0  0  0  0  0
   46.3734   27.5836   34.0236 H   0  0  0  0  0  0  0  0  0  0  0  0
   48.6073   28.2018   34.8547 H   0  0  0  0  0  0  0  0  0  0  0  0
   47.9808   25.7506   38.1957 H   0  0  0  0  0  0  0  0  0  0  0  0
   42.9165   22.1507   37.2725 H   0  0  0  0  0  0  0  0  0  0  0  0
   41.9660   23.6088   37.7243 H   0  0  0  0  0  0  0  0  0  0  0  0
   40.6569   21.2674   36.2125 H   0  0  0  0  0  0  0  0  0  0  0  0
   40.7538   21.2243   37.9609 H   0  0  0  0  0  0  0  0  0  0  0  0
   39.2787   22.6866   39.2701 H   0  0  0  0  0  0  0  0  0  0  0  0
   37.4837   24.4087   39.2386 H   0  0  0  0  0  0  0  0  0  0  0  0
   37.0102   25.7256   34.9451 H   0  0  0  0  0  0  0  0  0  0  0  0
   38.6897   26.0114   34.4918 H   0  0  0  0  0  0  0  0  0  0  0  0
   37.7288   23.3545   34.1807 H   0  0  0  0  0  0  0  0  0  0  0  0
  1 16  1  0
  2  7  1  0
  2  1  1  0
  3  2  2  0
  4  5  2  0
  4  3  1  0
  5  6  1  0
  6  8  1  0
  6  7  2  0
  8 14  1  0
  9 10  2  0
  9  8  1  0
 10 11  1  0
 11 12  2  0
 11 13  1  0
 14 13  1  0
 14 15  2  0
 16 17  1  0
 17 18  1  0
 18 19  2  0
 20 19  1  0
 21 20  2  0
 22 23  2  0
 22 21  1  0
 23 18  1  0
 24 22  1  0
 25 24  1  0
  1 26  1  0
  3 27  1  0
  4 28  1  0
  9 29  1  0
 10 30  1  0
 13 31  1  0
 16 32  1  0
 16 33  1  0
 17 34  1  0
 17 35  1  0
 19 36  1  0
 20 37  1  0
 24 38  1  0
 24 39  1  0
 25 40  1  0
M  ISO  8  27  14  28  14  29  14  30  14  31   9  32   8  33   8  34   8
M  ISO  6  35   8  36  14  37  14  38   8  39   8  40   3
M  END
>  <minimizedAffinity>  (1) 
-4.94731808

>  <minimizedRMSD>  (1) 
0.336743772

$$$$
