
     RDKit          3D

 46 49  0  0  0  0  0  0  0  0999 V2000
   41.9690   22.8320   36.9940 C   0  0  0  0  0  0  0  0  0  0  0  0
   40.6990   21.9520   36.9100 C   0  0  0  0  0  0  0  0  0  0  0  0
   39.6190   22.9390   36.7240 C   0  0  0  0  0  0  0  0  0  0  0  0
   38.7530   23.2680   37.7480 C   0  0  0  0  0  0  0  0  0  0  0  0
   37.7730   24.1870   37.5180 C   0  0  0  0  0  0  0  0  0  0  0  0
   37.6840   24.7480   36.2870 N   0  0  0  0  0  0  0  0  0  0  0  0
   38.5450   24.4150   35.2780 C   0  0  0  0  0  0  0  0  0  0  0  0
   39.4610   23.5330   35.5520 N   0  0  0  0  0  0  0  0  0  0  0  0
   38.3380   25.1080   33.9660 C   0  0  0  0  0  0  0  0  0  0  0  0
   37.4550   24.3370   33.0700 C   0  0  0  0  0  0  0  0  0  0  0  0
   36.5880   24.8620   32.1120 C   0  0  0  0  0  0  0  0  0  0  0  0
   35.9730   23.7530   31.5220 C   0  0  0  0  0  0  0  0  0  0  0  0
   36.5070   22.6320   32.1630 C   0  0  0  0  0  0  0  0  0  0  0  0
   37.3660   23.0310   33.0550 O   0  0  0  0  0  0  0  0  0  0  0  0
   42.3600   23.2490   35.6580 N   0  0  0  0  0  0  0  0  0  0  0  0
   43.0700   24.4560   35.2850 C   0  0  0  0  0  0  0  0  0  0  0  0
   42.3570   25.2640   34.4310 C   0  0  0  0  0  0  0  0  0  0  0  0
   42.8940   26.4580   33.9730 C   0  0  0  0  0  0  0  0  0  0  0  0
   44.1540   26.8560   34.3690 N   0  0  0  0  0  0  0  0  0  0  0  0
   44.8300   26.0140   35.2270 C   0  0  0  0  0  0  0  0  0  0  0  0
   44.3420   24.8460   35.6920 N   0  0  0  0  0  0  0  0  0  0  0  0
   46.1180   26.2970   35.7250 N   0  0  0  0  0  0  0  0  0  0  0  0
   46.8910   27.1560   35.0660 C   0  0  0  0  0  0  0  0  0  0  0  0
   48.1330   27.4790   35.5060 C   0  0  0  0  0  0  0  0  0  0  0  0
   48.6340   26.9060   36.6810 C   0  0  0  0  0  0  0  0  0  0  0  0
   49.7760   27.1580   37.1530 O   0  0  0  0  0  0  0  0  0  0  0  0
   47.8320   26.0410   37.3270 N   0  0  0  0  0  0  0  0  0  0  0  0
   46.6010   25.7240   36.8860 C   0  0  0  0  0  0  0  0  0  0  0  0
   45.8160   24.9130   37.4660 O   0  0  0  0  0  0  0  0  0  0  0  0
   41.7595   23.7200   37.6085 H   0  0  0  0  0  0  0  0  0  0  0  0
   42.7856   22.2537   37.4508 H   0  0  0  0  0  0  0  0  0  0  0  0
   40.7535   21.2608   36.0560 H   0  0  0  0  0  0  0  0  0  0  0  0
   40.5549   21.3156   37.7956 H   0  0  0  0  0  0  0  0  0  0  0  0
   38.8527   22.7948   38.7360 H   0  0  0  0  0  0  0  0  0  0  0  0
   37.0687   24.4678   38.3149 H   0  0  0  0  0  0  0  0  0  0  0  0
   37.8842   26.0927   34.1516 H   0  0  0  0  0  0  0  0  0  0  0  0
   39.3174   25.2089   33.4755 H   0  0  0  0  0  0  0  0  0  0  0  0
   36.4230   25.9226   31.8716 H   0  0  0  0  0  0  0  0  0  0  0  0
   35.2225   23.7615   30.7179 H   0  0  0  0  0  0  0  0  0  0  0  0
   36.2445   21.5855   31.9489 H   0  0  0  0  0  0  0  0  0  0  0  0
   42.1032   22.6144   34.8884 H   0  0  0  0  0  0  0  0  0  0  0  0
   41.3504   24.9604   34.1077 H   0  0  0  0  0  0  0  0  0  0  0  0
   42.3109   27.0922   33.2890 H   0  0  0  0  0  0  0  0  0  0  0  0
   46.5136   27.6161   34.1409 H   0  0  0  0  0  0  0  0  0  0  0  0
   48.7479   28.1928   34.9382 H   0  0  0  0  0  0  0  0  0  0  0  0
   48.1740   25.6035   38.1945 H   0  0  0  0  0  0  0  0  0  0  0  0
  2  1  1  0
  3  2  1  0
  3  4  2  0
  5  4  1  0
  6  5  2  0
  7  8  2  0
  7  6  1  0
  8  3  1  0
  9  7  1  0
 10  9  1  0
 11 10  2  0
 12 11  1  0
 12 13  2  0
 13 14  1  0
 14 10  1  0
 15  1  1  0
 16 15  1  0
 16 21  1  0
 17 16  2  0
 18 19  2  0
 18 17  1  0
 19 20  1  0
 20 21  2  0
 20 22  1  0
 22 28  1  0
 23 24  2  0
 23 22  1  0
 24 25  1  0
 25 26  2  0
 25 27  1  0
 28 27  1  0
 28 29  2  0
  1 30  1  0
  1 31  1  0
  2 32  1  0
  2 33  1  0
  4 34  1  0
  5 35  1  0
  9 36  1  0
  9 37  1  0
 11 38  1  0
 12 39  1  0
 13 40  1  0
 15 41  1  0
 17 42  1  0
 18 43  1  0
 23 44  1  0
 24 45  1  0
 27 46  1  0
M  ISO  8  30   8  31   8  32   8  33   8  34  14  35  14  36   8  37   8
M  ISO  8  38  14  39  14  40  14  42  14  43  14  44  14  45  14  46   9
M  END
>  <minimizedAffinity>  (1) 
-5.30249739

>  <minimizedRMSD>  (1) 
0.925125837

$$$$
