
     RDKit          3D

 22 23  0  0  0  0  0  0  0  0999 V2000
   40.2770   22.1590   36.9130 C   0  0  0  0  0  0  0  0  0  0  0  0
   39.5290   23.3230   36.6860 C   0  0  0  0  0  0  0  0  0  0  0  0
   39.9020   24.1300   35.6010 C   0  0  0  0  0  0  0  0  0  0  0  0
   40.9680   23.7420   34.8250 N   0  0  0  0  0  0  0  0  0  0  0  0
   41.6630   22.6040   35.0840 C   0  0  0  0  0  0  0  0  0  0  0  0
   41.3160   21.8200   36.1220 N   0  0  0  0  0  0  0  0  0  0  0  0
   39.2340   25.3280   35.2620 N   0  0  0  0  0  0  0  0  0  0  0  0
   39.7170   26.7000   35.1760 C   0  0  0  0  0  0  0  0  0  0  0  0
   38.5200   27.3990   35.8340 C   0  0  0  0  0  0  0  0  0  0  0  0
   37.4170   26.8290   34.9400 C   0  0  0  0  0  0  0  0  0  0  0  0
   37.8210   25.3640   34.9140 C   0  0  0  0  0  0  0  0  0  0  0  0
   40.0101   21.5060   37.7570 H   0  0  0  0  0  0  0  0  0  0  0  0
   38.6821   23.5930   37.3340 H   0  0  0  0  0  0  0  0  0  0  0  0
   42.5119   22.3222   34.4437 H   0  0  0  0  0  0  0  0  0  0  0  0
   40.6478   26.8488   35.7429 H   0  0  0  0  0  0  0  0  0  0  0  0
   39.9835   27.0522   34.1686 H   0  0  0  0  0  0  0  0  0  0  0  0
   38.3947   27.1064   36.8869 H   0  0  0  0  0  0  0  0  0  0  0  0
   38.5749   28.4962   35.8901 H   0  0  0  0  0  0  0  0  0  0  0  0
   36.4202   26.9688   35.3837 H   0  0  0  0  0  0  0  0  0  0  0  0
   37.3349   27.3023   33.9504 H   0  0  0  0  0  0  0  0  0  0  0  0
   37.2327   24.7928   35.6472 H   0  0  0  0  0  0  0  0  0  0  0  0
   37.6390   24.9147   33.9266 H   0  0  0  0  0  0  0  0  0  0  0  0
  2  1  2  0
  3  2  1  0
  4  5  1  0
  4  3  2  0
  5  6  2  0
  6  1  1  0
  7  3  1  0
  8  7  1  0
  8  9  1  0
 10  9  1  0
 11 10  1  0
 11  7  1  0
  1 12  1  0
  2 13  1  0
  5 14  1  0
  8 15  1  0
  8 16  1  0
  9 17  1  0
  9 18  1  0
 10 19  1  0
 10 20  1  0
 11 21  1  0
 11 22  1  0
M  ISO  8  12  14  13  14  14  14  15  13  16  13  17  13  18  13  19  13
M  ISO  3  20  13  21  13  22  13
M  END
>  <minimizedAffinity>  (1) 
-3.30699897

>  <minimizedRMSD>  (1) 
3.93938565

$$$$
