
     RDKit          3D

 36 39  0  0  1  0  0  0  0  0999 V2000
   39.6590   22.3220   36.8390 C   0  0  0  0  0  0  0  0  0  0  0  0
   38.9490   23.4670   36.4660 C   0  0  0  0  0  0  0  0  0  0  0  0
   39.5760   24.3760   35.6140 C   0  0  0  0  0  0  0  0  0  0  0  0
   40.8420   24.0830   35.2020 N   0  0  0  0  0  0  0  0  0  0  0  0
   41.5060   22.9700   35.5760 C   0  0  0  0  0  0  0  0  0  0  0  0
   40.9080   22.0960   36.3930 N   0  0  0  0  0  0  0  0  0  0  0  0
   38.9660   25.5640   35.1680 N   0  0  0  0  0  0  0  0  0  0  0  0
   39.3880   26.9550   35.3020 C   0  0  0  0  0  0  0  0  0  0  0  0
   38.0030   27.5570   35.6050 C   0  0  0  0  0  0  0  0  0  0  0  0
   37.2930   27.0290   34.3680 C   0  0  0  0  0  0  0  0  0  0  0  0
   37.6960   25.5600   34.4340 C   0  0  1  0  0  0  0  0  0  0  0  0
   37.8290   24.9560   33.1120 C   0  0  0  0  0  0  0  0  0  0  0  0
   37.2940   23.7290   32.8830 N   0  0  0  0  0  0  0  0  0  0  0  0
   37.3970   23.1350   31.6640 C   0  0  0  0  0  0  0  0  0  0  0  0
   38.0280   23.7190   30.6130 N   0  0  0  0  0  0  0  0  0  0  0  0
   38.5720   24.9310   30.7880 C   0  0  0  0  0  0  0  0  0  0  0  0
   39.2240   25.5770   29.7710 C   0  0  0  0  0  0  0  0  0  0  0  0
   39.7920   26.8250   29.9320 C   0  0  0  0  0  0  0  0  0  0  0  0
   39.6930   27.4410   31.1790 C   0  0  0  0  0  0  0  0  0  0  0  0
   39.0290   26.7650   32.1870 C   0  0  0  0  0  0  0  0  0  0  0  0
   38.4630   25.5240   32.0290 C   0  0  0  0  0  0  0  0  0  0  0  0
   39.1866   21.5906   37.5112 H   0  0  0  0  0  0  0  0  0  0  0  0
   37.9275   23.6455   36.8331 H   0  0  0  0  0  0  0  0  0  0  0  0
   42.5275   22.7833   35.2132 H   0  0  0  0  0  0  0  0  0  0  0  0
   40.0976   27.0994   36.1300 H   0  0  0  0  0  0  0  0  0  0  0  0
   39.9298   27.3847   34.4465 H   0  0  0  0  0  0  0  0  0  0  0  0
   37.5696   27.1660   36.5374 H   0  0  0  0  0  0  0  0  0  0  0  0
   37.9648   28.6444   35.7666 H   0  0  0  0  0  0  0  0  0  0  0  0
   37.6600   27.5116   33.4502 H   0  0  0  0  0  0  0  0  0  0  0  0
   36.2082   27.2099   34.3454 H   0  0  0  0  0  0  0  0  0  0  0  0
   36.9288   24.9481   34.9310 H   0  0  0  0  0  0  0  0  0  0  0  0
   36.9504   22.1396   31.5235 H   0  0  0  0  0  0  0  0  0  0  0  0
   39.2976   25.0835   28.7907 H   0  0  0  0  0  0  0  0  0  0  0  0
   40.3096   27.3209   29.0976 H   0  0  0  0  0  0  0  0  0  0  0  0
   40.1299   28.4349   31.3560 H   0  0  0  0  0  0  0  0  0  0  0  0
   38.9499   27.2494   33.1714 H   0  0  0  0  0  0  0  0  0  0  0  0
  2  1  2  0
  3  2  1  0
  4  5  1  0
  4  3  2  0
  5  6  2  0
  6  1  1  0
  7  8  1  0
  7  3  1  0
  8  9  1  0
 10 11  1  0
 10  9  1  0
 11  7  1  0
 12 11  1  0
 13 12  2  0
 14 13  1  0
 15 16  1  0
 15 14  2  0
 16 21  2  0
 17 18  2  0
 17 16  1  0
 18 19  1  0
 19 20  2  0
 21 20  1  0
 21 12  1  0
  1 22  1  0
  2 23  1  0
  5 24  1  0
  8 25  1  0
  8 26  1  0
  9 27  1  0
  9 28  1  0
 10 29  1  0
 10 30  1  0
 11 31  1  1
 14 32  1  0
 17 33  1  0
 18 34  1  0
 19 35  1  0
 20 36  1  0
M  ISO  8  22  14  23  14  24  14  25  13  26  13  27  13  28  13  29  13
M  ISO  7  30  13  31  13  32  14  33  14  34  14  35  14  36  14
M  END
>  <minimizedAffinity>  (1) 
-5.05203962

>  <minimizedRMSD>  (1) 
0.902032673

$$$$
