
     RDKit          3D

 35 37  0  0  1  0  0  0  0  0999 V2000
   39.4870   22.5330   36.9880 C   0  0  0  0  0  0  0  0  0  0  0  0
   38.8070   23.6600   36.5270 C   0  0  0  0  0  0  0  0  0  0  0  0
   39.4700   24.5690   35.7050 C   0  0  0  0  0  0  0  0  0  0  0  0
   40.7700   24.3030   35.3920 N   0  0  0  0  0  0  0  0  0  0  0  0
   41.4100   23.1930   35.8560 C   0  0  0  0  0  0  0  0  0  0  0  0
   40.7740   22.3220   36.6440 N   0  0  0  0  0  0  0  0  0  0  0  0
   38.8610   25.7280   35.1970 N   0  0  0  0  0  0  0  0  0  0  0  0
   39.2240   27.1340   35.3650 C   0  0  0  0  0  0  0  0  0  0  0  0
   37.8110   27.7030   35.5500 C   0  0  0  0  0  0  0  0  0  0  0  0
   37.1860   27.1420   34.2830 C   0  0  0  0  0  0  0  0  0  0  0  0
   37.6870   25.7090   34.3630 C   0  0  1  0  0  0  0  0  0  0  0  0
   37.8950   25.1380   33.0560 N   0  0  0  0  0  0  0  0  0  0  0  0
   37.4940   23.9300   32.6660 C   0  0  0  0  0  0  0  0  0  0  0  0
   37.7110   23.4120   31.4030 C   0  0  0  0  0  0  0  0  0  0  0  0
   37.2180   22.0350   31.0570 C   0  0  0  0  0  0  0  0  0  0  0  0
   38.3880   24.1820   30.4630 C   0  0  0  0  0  0  0  0  0  0  0  0
   38.5730   23.6990   29.3310 O   0  0  0  0  0  0  0  0  0  0  0  0
   38.7960   25.4040   30.8490 N   0  0  0  0  0  0  0  0  0  0  0  0
   38.5550   25.8540   32.0980 C   0  0  0  0  0  0  0  0  0  0  0  0
   38.9740   27.0000   32.3590 O   0  0  0  0  0  0  0  0  0  0  0  0
   38.9699   21.8109   37.6369 H   0  0  0  0  0  0  0  0  0  0  0  0
   37.7575   23.8296   36.8096 H   0  0  0  0  0  0  0  0  0  0  0  0
   42.4593   23.0128   35.5793 H   0  0  0  0  0  0  0  0  0  0  0  0
   39.8573   27.2973   36.2494 H   0  0  0  0  0  0  0  0  0  0  0  0
   39.8190   27.5777   34.5532 H   0  0  0  0  0  0  0  0  0  0  0  0
   37.3240   27.3202   36.4590 H   0  0  0  0  0  0  0  0  0  0  0  0
   37.7439   28.7935   35.6780 H   0  0  0  0  0  0  0  0  0  0  0  0
   37.5548   27.6551   33.3826 H   0  0  0  0  0  0  0  0  0  0  0  0
   36.0935   27.2508   34.2144 H   0  0  0  0  0  0  0  0  0  0  0  0
   36.9375   25.0430   34.8155 H   0  0  0  0  0  0  0  0  0  0  0  0
   36.9564   23.3050   33.3943 H   0  0  0  0  0  0  0  0  0  0  0  0
   37.0173   21.4743   31.9818 H   0  0  0  0  0  0  0  0  0  0  0  0
   36.2924   22.1142   30.4680 H   0  0  0  0  0  0  0  0  0  0  0  0
   37.9835   21.5087   30.4680 H   0  0  0  0  0  0  0  0  0  0  0  0
   39.2998   26.0052   30.1814 H   0  0  0  0  0  0  0  0  0  0  0  0
  2  1  2  0
  3  2  1  0
  4  3  2  0
  4  5  1  0
  5  6  2  0
  6  1  1  0
  7  8  1  0
  7  3  1  0
  8  9  1  0
 10 11  1  0
 10  9  1  0
 11  7  1  0
 12 11  1  0
 13 12  1  0
 14 13  2  0
 15 14  1  0
 16 18  1  0
 16 14  1  0
 17 16  2  0
 18 19  1  0
 19 20  2  0
 19 12  1  0
  1 21  1  0
  2 22  1  0
  5 23  1  0
  8 24  1  0
  8 25  1  0
  9 26  1  0
  9 27  1  0
 10 28  1  0
 10 29  1  0
 11 30  1  1
 13 31  1  0
 15 32  1  0
 15 33  1  0
 15 34  1  0
 18 35  1  0
M  ISO  8  21  14  22  14  23  14  24  13  25  13  26  13  27  13  28  13
M  ISO  7  29  13  30  13  31  14  32   8  33   8  34   8  35   9
M  END
>  <minimizedAffinity>  (1) 
-4.85445309

>  <minimizedRMSD>  (1) 
1.15558803

$$$$
