
     RDKit          3D

 36 39  0  0  1  0  0  0  0  0999 V2000
   41.3880   21.6280   37.5510 C   0  0  0  0  0  0  0  0  0  0  0  0
   40.6930   22.7830   37.1710 C   0  0  0  0  0  0  0  0  0  0  0  0
   40.8110   23.2200   35.8480 C   0  0  0  0  0  0  0  0  0  0  0  0
   41.6010   22.4970   34.9860 N   0  0  0  0  0  0  0  0  0  0  0  0
   42.2600   21.3810   35.3920 C   0  0  0  0  0  0  0  0  0  0  0  0
   42.1460   20.9580   36.6730 N   0  0  0  0  0  0  0  0  0  0  0  0
   40.1550   24.3690   35.3630 N   0  0  0  0  0  0  0  0  0  0  0  0
   40.7000   25.5830   34.7670 C   0  0  0  0  0  0  0  0  0  0  0  0
   39.7880   26.5930   35.4830 C   0  0  0  0  0  0  0  0  0  0  0  0
   38.4480   25.9830   35.0630 C   0  0  0  0  0  0  0  0  0  0  0  0
   38.7110   24.5290   35.3860 C   0  0  1  0  0  0  0  0  0  0  0  0
   38.0480   23.6550   34.4360 N   0  0  0  0  0  0  0  0  0  0  0  0
   37.6640   22.3820   34.6310 C   0  0  0  0  0  0  0  0  0  0  0  0
   37.0710   21.8600   33.5270 N   0  0  0  0  0  0  0  0  0  0  0  0
   37.0900   22.8460   32.6190 C   0  0  0  0  0  0  0  0  0  0  0  0
   36.6190   22.8660   31.3210 C   0  0  0  0  0  0  0  0  0  0  0  0
   36.0710   21.8540   30.8150 O   0  0  0  0  0  0  0  0  0  0  0  0
   36.7210   23.9520   30.5390 N   0  0  0  0  0  0  0  0  0  0  0  0
   37.3220   25.0180   31.1360 C   0  0  0  0  0  0  0  0  0  0  0  0
   37.4980   26.2370   30.4260 N   0  0  0  0  0  0  0  0  0  0  0  0
   37.8110   25.0770   32.4060 N   0  0  0  0  0  0  0  0  0  0  0  0
   37.6910   23.9550   33.1740 C   0  0  0  0  0  0  0  0  0  0  0  0
   41.3102   21.2654   38.5866 H   0  0  0  0  0  0  0  0  0  0  0  0
   40.0711   23.3315   37.8938 H   0  0  0  0  0  0  0  0  0  0  0  0
   42.8856   20.8215   34.6809 H   0  0  0  0  0  0  0  0  0  0  0  0
   41.7616   25.7298   35.0150 H   0  0  0  0  0  0  0  0  0  0  0  0
   40.7018   25.6252   33.6678 H   0  0  0  0  0  0  0  0  0  0  0  0
   39.9286   26.5844   36.5739 H   0  0  0  0  0  0  0  0  0  0  0  0
   39.9418   27.6529   35.2319 H   0  0  0  0  0  0  0  0  0  0  0  0
   38.2482   26.1339   33.9919 H   0  0  0  0  0  0  0  0  0  0  0  0
   37.5658   26.4160   35.5571 H   0  0  0  0  0  0  0  0  0  0  0  0
   38.3066   24.2517   36.3707 H   0  0  0  0  0  0  0  0  0  0  0  0
   37.8122   21.8301   35.5709 H   0  0  0  0  0  0  0  0  0  0  0  0
   36.3741   23.9769   29.5695 H   0  0  0  0  0  0  0  0  0  0  0  0
   37.9536   27.0389   30.8846 H   0  0  0  0  0  0  0  0  0  0  0  0
   37.1699   26.3183   29.4530 H   0  0  0  0  0  0  0  0  0  0  0  0
  2  1  2  0
  3  2  1  0
  4  5  1  0
  4  3  2  0
  5  6  2  0
  6  1  1  0
  7 11  1  0
  7  3  1  0
  8  7  1  0
  8  9  1  0
 10 11  1  0
 10  9  1  0
 12 13  1  0
 12 11  1  0
 14 13  2  0
 15 22  2  0
 15 14  1  0
 16 15  1  0
 17 16  2  0
 18 19  1  0
 18 16  1  0
 19 21  2  0
 20 19  1  0
 21 22  1  0
 22 12  1  0
  1 23  1  0
  2 24  1  0
  5 25  1  0
  8 26  1  0
  8 27  1  0
  9 28  1  0
  9 29  1  0
 10 30  1  0
 10 31  1  0
 11 32  1  1
 13 33  1  0
 18 34  1  0
 20 35  1  0
 20 36  1  0
M  ISO  8  23  14  24  14  25  14  26  13  27  13  28  13  29  13  30  13
M  ISO  4  31  13  32  13  33  14  34   9
M  END
>  <minimizedAffinity>  (1) 
-5.28029299

>  <minimizedRMSD>  (1) 
1.72537899

$$$$
