
     RDKit          3D

 35 38  0  0  1  0  0  0  0  0999 V2000
   41.4600   21.4150   37.4270 C   0  0  0  0  0  0  0  0  0  0  0  0
   40.8010   22.5230   36.9120 C   0  0  0  0  0  0  0  0  0  0  0  0
   41.2220   23.0790   35.7080 C   0  0  0  0  0  0  0  0  0  0  0  0
   42.2980   22.4940   35.0610 N   0  0  0  0  0  0  0  0  0  0  0  0
   42.9230   21.4050   35.5940 C   0  0  0  0  0  0  0  0  0  0  0  0
   42.5120   20.8690   36.7630 N   0  0  0  0  0  0  0  0  0  0  0  0
   40.6090   24.1890   35.1120 N   0  0  0  0  0  0  0  0  0  0  0  0
   41.1520   25.5120   34.7820 C   0  0  0  0  0  0  0  0  0  0  0  0
   39.9670   26.3690   35.2010 C   0  0  0  0  0  0  0  0  0  0  0  0
   38.8780   25.6560   34.4190 C   0  0  0  0  0  0  0  0  0  0  0  0
   39.2320   24.2040   34.6850 C   0  0  2  0  0  0  0  0  0  0  0  0
   38.3070   23.5230   35.5080 N   0  0  0  0  0  0  0  0  0  0  0  0
   38.1470   23.8130   36.8330 C   0  0  0  0  0  0  0  0  0  0  0  0
   37.1880   22.9680   37.3130 N   0  0  0  0  0  0  0  0  0  0  0  0
   36.7880   22.1930   36.3000 C   0  0  0  0  0  0  0  0  0  0  0  0
   35.8300   21.1770   36.2810 C   0  0  0  0  0  0  0  0  0  0  0  0
   35.6140   20.5390   35.0950 N   0  0  0  0  0  0  0  0  0  0  0  0
   36.2970   20.8760   33.9900 C   0  0  0  0  0  0  0  0  0  0  0  0
   37.2190   21.8570   34.0130 N   0  0  0  0  0  0  0  0  0  0  0  0
   37.4790   22.5170   35.1260 C   0  0  0  0  0  0  0  0  0  0  0  0
   35.0760   20.7750   37.4180 N   0  0  0  0  0  0  0  0  0  0  0  0
   41.1281   20.9760   38.3794 H   0  0  0  0  0  0  0  0  0  0  0  0
   39.9491   22.9598   37.4538 H   0  0  0  0  0  0  0  0  0  0  0  0
   43.7755   20.9564   35.0629 H   0  0  0  0  0  0  0  0  0  0  0  0
   42.0552   25.7440   35.3654 H   0  0  0  0  0  0  0  0  0  0  0  0
   41.4832   25.6404   33.7409 H   0  0  0  0  0  0  0  0  0  0  0  0
   39.7907   26.3287   36.2860 H   0  0  0  0  0  0  0  0  0  0  0  0
   40.0662   27.4466   35.0035 H   0  0  0  0  0  0  0  0  0  0  0  0
   38.9294   25.8941   33.3463 H   0  0  0  0  0  0  0  0  0  0  0  0
   37.8546   25.9336   34.7115 H   0  0  0  0  0  0  0  0  0  0  0  0
   39.1445   23.6000   33.7698 H   0  0  0  0  0  0  0  0  0  0  0  0
   38.6880   24.5814   37.4048 H   0  0  0  0  0  0  0  0  0  0  0  0
   36.1001   20.3414   33.0490 H   0  0  0  0  0  0  0  0  0  0  0  0
   34.3837   20.0169   37.3351 H   0  0  0  0  0  0  0  0  0  0  0  0
   35.2223   21.2420   38.3243 H   0  0  0  0  0  0  0  0  0  0  0  0
  2  1  2  0
  3  2  1  0
  4  5  1  0
  4  3  2  0
  5  6  2  0
  6  1  1  0
  7  3  1  0
  8  7  1  0
  8  9  1  0
 10 11  1  0
 10  9  1  0
 11  7  1  0
 11 12  1  0
 12 13  1  0
 13 14  2  0
 15 14  1  0
 16 15  2  0
 16 21  1  0
 17 16  1  0
 18 19  1  0
 18 17  2  0
 19 20  2  0
 20 12  1  0
 20 15  1  0
  1 22  1  0
  2 23  1  0
  5 24  1  0
  8 25  1  0
  8 26  1  0
  9 27  1  0
  9 28  1  0
 10 29  1  0
 10 30  1  0
 11 31  1  6
 13 32  1  0
 18 33  1  0
 21 34  1  0
 21 35  1  0
M  ISO  8  22  14  23  14  24  14  25  13  26  13  27  13  28  13  29  13
M  ISO  4  30  13  31  13  32  14  33  14
M  END
>  <minimizedAffinity>  (1) 
-5.51232195

>  <minimizedRMSD>  (1) 
1.59523439

$$$$
