
     RDKit          3D

 43 46  0  0  0  0  0  0  0  0999 V2000
   47.2500   25.0290   37.7100 C   0  0  0  0  0  0  0  0  0  0  0  0
   46.4790   25.8710   36.9210 C   0  0  0  0  0  0  0  0  0  0  0  0
   45.8160   25.3030   35.8280 C   0  0  0  0  0  0  0  0  0  0  0  0
   45.9780   23.9570   35.6210 N   0  0  0  0  0  0  0  0  0  0  0  0
   46.7310   23.1790   36.4060 C   0  0  0  0  0  0  0  0  0  0  0  0
   47.3750   23.7260   37.4660 N   0  0  0  0  0  0  0  0  0  0  0  0
   46.8650   21.7840   36.1460 N   0  0  0  0  0  0  0  0  0  0  0  0
   45.7240   21.0070   35.8300 C   0  0  0  0  0  0  0  0  0  0  0  0
   44.5420   21.5430   35.9410 N   0  0  0  0  0  0  0  0  0  0  0  0
   45.8830   19.6460   35.3920 N   0  0  0  0  0  0  0  0  0  0  0  0
   43.7080   20.9570   35.7250 H   0  0  0  0  0  0  0  0  0  0  0  0
   45.0150   26.0730   34.9730 N   0  0  0  0  0  0  0  0  0  0  0  0
   45.4710   27.0700   34.1910 C   0  0  0  0  0  0  0  0  0  0  0  0
   44.4340   27.5990   33.4990 N   0  0  0  0  0  0  0  0  0  0  0  0
   43.3340   26.9050   33.8710 C   0  0  0  0  0  0  0  0  0  0  0  0
   42.0450   27.0970   33.4210 C   0  0  0  0  0  0  0  0  0  0  0  0
   41.1030   26.2740   33.9410 N   0  0  0  0  0  0  0  0  0  0  0  0
   41.4650   25.3240   34.8610 C   0  0  0  0  0  0  0  0  0  0  0  0
   42.7490   25.1410   35.3010 N   0  0  0  0  0  0  0  0  0  0  0  0
   43.7010   25.9420   34.8010 C   0  0  0  0  0  0  0  0  0  0  0  0
   40.4640   24.4470   35.4160 N   0  0  0  0  0  0  0  0  0  0  0  0
   40.8100   23.2410   36.1290 C   0  0  0  0  0  0  0  0  0  0  0  0
   39.6570   22.9540   37.0770 C   0  0  0  0  0  0  0  0  0  0  0  0
   38.4550   22.5760   36.2460 C   0  0  0  0  0  0  0  0  0  0  0  0
   38.2070   23.5660   35.1500 C   0  0  0  0  0  0  0  0  0  0  0  0
   39.0680   24.7910   35.2520 C   0  0  0  0  0  0  0  0  0  0  0  0
   47.7805   25.4562   38.5738 H   0  0  0  0  0  0  0  0  0  0  0  0
   46.3925   26.9442   37.1465 H   0  0  0  0  0  0  0  0  0  0  0  0
   47.7935   21.3402   36.1880 H   0  0  0  0  0  0  0  0  0  0  0  0
   46.8252   19.2382   35.3099 H   0  0  0  0  0  0  0  0  0  0  0  0
   45.0546   19.0794   35.1605 H   0  0  0  0  0  0  0  0  0  0  0  0
   46.5178   27.4015   34.1249 H   0  0  0  0  0  0  0  0  0  0  0  0
   41.7960   27.8734   32.6826 H   0  0  0  0  0  0  0  0  0  0  0  0
   40.9390   22.4065   35.4240 H   0  0  0  0  0  0  0  0  0  0  0  0
   41.7557   23.3609   36.6778 H   0  0  0  0  0  0  0  0  0  0  0  0
   39.9230   22.1242   37.7483 H   0  0  0  0  0  0  0  0  0  0  0  0
   39.4354   23.8404   37.6896 H   0  0  0  0  0  0  0  0  0  0  0  0
   38.6272   21.5855   35.7997 H   0  0  0  0  0  0  0  0  0  0  0  0
   37.5732   22.5637   36.9035 H   0  0  0  0  0  0  0  0  0  0  0  0
   37.1523   23.8759   35.1912 H   0  0  0  0  0  0  0  0  0  0  0  0
   38.4560   23.0703   34.2001 H   0  0  0  0  0  0  0  0  0  0  0  0
   38.9522   25.3865   34.3344 H   0  0  0  0  0  0  0  0  0  0  0  0
   38.7483   25.3645   36.1345 H   0  0  0  0  0  0  0  0  0  0  0  0
  2  1  2  0
  3  2  1  0
  4  3  2  0
  4  5  1  0
  5  6  2  0
  6  1  1  0
  7  5  1  0
  8  9  2  0
  8  7  1  0
 10  8  1  0
 11  9  1  0
 12  3  1  0
 13 12  1  0
 14 15  1  0
 14 13  2  0
 15 20  2  0
 16 15  1  0
 16 17  2  0
 17 18  1  0
 18 19  2  0
 18 21  1  0
 20 12  1  0
 20 19  1  0
 21 22  1  0
 22 23  1  0
 24 23  1  0
 25 26  1  0
 25 24  1  0
 26 21  1  0
  1 27  1  0
  2 28  1  0
  7 29  1  0
 10 30  1  0
 10 31  1  0
 13 32  1  0
 16 33  1  0
 22 34  1  0
 22 35  1  0
 23 36  1  0
 23 37  1  0
 24 38  1  0
 24 39  1  0
 25 40  1  0
 25 41  1  0
 26 42  1  0
 26 43  1  0
M  ISO  8  27  14  28  14  32  14  33  14  34  13  35  13  36  13  37  13
M  ISO  6  38  13  39  13  40  13  41  13  42  13  43  13
M  END
>  <minimizedAffinity>  (1) 
-5.00315046

>  <minimizedRMSD>  (1) 
5.29231644

$$$$
