
     RDKit          3D

 33 36  0  0  1  0  0  0  0  0999 V2000
   39.9220   22.4200   36.9350 C   0  0  0  0  0  0  0  0  0  0  0  0
   39.1270   23.5170   36.5680 C   0  0  0  0  0  0  0  0  0  0  0  0
   39.6970   24.3930   35.6170 C   0  0  0  0  0  0  0  0  0  0  0  0
   40.9500   24.1370   35.1200 N   0  0  0  0  0  0  0  0  0  0  0  0
   41.6600   23.0540   35.5230 C   0  0  0  0  0  0  0  0  0  0  0  0
   41.1430   22.1990   36.4300 N   0  0  0  0  0  0  0  0  0  0  0  0
   39.0000   25.5460   35.1680 N   0  0  0  0  0  0  0  0  0  0  0  0
   39.3780   26.9560   35.2710 C   0  0  0  0  0  0  0  0  0  0  0  0
   38.0130   27.5290   35.6180 C   0  0  0  0  0  0  0  0  0  0  0  0
   37.2200   26.9300   34.4480 C   0  0  0  0  0  0  0  0  0  0  0  0
   37.7270   25.4990   34.4990 C   0  0  1  0  0  0  0  0  0  0  0  0
   37.7490   24.8750   33.2050 N   0  0  0  0  0  0  0  0  0  0  0  0
   37.9850   25.4710   32.0010 C   0  0  0  0  0  0  0  0  0  0  0  0
   37.9330   24.5970   30.9780 N   0  0  0  0  0  0  0  0  0  0  0  0
   37.6570   23.3840   31.4990 C   0  0  0  0  0  0  0  0  0  0  0  0
   37.4790   22.1050   30.9790 C   0  0  0  0  0  0  0  0  0  0  0  0
   37.2030   21.0680   31.8050 N   0  0  0  0  0  0  0  0  0  0  0  0
   37.1010   21.2710   33.1320 C   0  0  0  0  0  0  0  0  0  0  0  0
   37.2770   22.5020   33.5950 N   0  0  0  0  0  0  0  0  0  0  0  0
   37.5500   23.5860   32.8720 C   0  0  0  0  0  0  0  0  0  0  0  0
   39.5234   21.7078   37.6725 H   0  0  0  0  0  0  0  0  0  0  0  0
   38.1261   23.6838   36.9927 H   0  0  0  0  0  0  0  0  0  0  0  0
   42.6624   22.8716   35.1084 H   0  0  0  0  0  0  0  0  0  0  0  0
   40.1158   27.1304   36.0681 H   0  0  0  0  0  0  0  0  0  0  0  0
   39.8659   27.3863   34.3840 H   0  0  0  0  0  0  0  0  0  0  0  0
   37.6483   27.1732   36.5929 H   0  0  0  0  0  0  0  0  0  0  0  0
   37.9632   28.6229   35.7224 H   0  0  0  0  0  0  0  0  0  0  0  0
   37.4672   27.4180   33.4937 H   0  0  0  0  0  0  0  0  0  0  0  0
   36.1279   27.0399   34.5210 H   0  0  0  0  0  0  0  0  0  0  0  0
   37.0445   24.8476   35.0646 H   0  0  0  0  0  0  0  0  0  0  0  0
   38.1941   26.5441   31.8795 H   0  0  0  0  0  0  0  0  0  0  0  0
   37.5627   21.9364   29.8952 H   0  0  0  0  0  0  0  0  0  0  0  0
   36.8775   20.4380   33.8147 H   0  0  0  0  0  0  0  0  0  0  0  0
  2  1  2  0
  3  2  1  0
  4  5  1  0
  4  3  2  0
  5  6  2  0
  6  1  1  0
  7  8  1  0
  7  3  1  0
  8  9  1  0
 10 11  1  0
 10  9  1  0
 11  7  1  0
 12 11  1  0
 13 12  1  0
 14 15  1  0
 14 13  2  0
 15 20  2  0
 16 15  1  0
 16 17  2  0
 17 18  1  0
 18 19  2  0
 20 12  1  0
 20 19  1  0
  1 21  1  0
  2 22  1  0
  5 23  1  0
  8 24  1  0
  8 25  1  0
  9 26  1  0
  9 27  1  0
 10 28  1  0
 10 29  1  0
 11 30  1  1
 13 31  1  0
 16 32  1  0
 18 33  1  0
M  ISO  8  21  14  22  14  23  14  24  13  25  13  26  13  27  13  28  13
M  ISO  5  29  13  30  13  31  14  32  14  33  14
M  END
>  <minimizedAffinity>  (1) 
-4.84444571

>  <minimizedRMSD>  (1) 
1.02706027

$$$$
