
     RDKit          3D

 31 33  0  0  1  0  0  0  0  0999 V2000
   39.8470   22.3820   36.8600 C   0  0  0  0  0  0  0  0  0  0  0  0
   39.1000   23.5000   36.4960 C   0  0  0  0  0  0  0  0  0  0  0  0
   39.6690   24.4140   35.5820 C   0  0  0  0  0  0  0  0  0  0  0  0
   40.9260   24.1610   35.0970 N   0  0  0  0  0  0  0  0  0  0  0  0
   41.6070   23.0490   35.4920 C   0  0  0  0  0  0  0  0  0  0  0  0
   41.0720   22.1730   36.3620 N   0  0  0  0  0  0  0  0  0  0  0  0
   38.9960   25.5650   35.1490 N   0  0  0  0  0  0  0  0  0  0  0  0
   39.3630   26.9800   35.2730 C   0  0  0  0  0  0  0  0  0  0  0  0
   37.9860   27.5500   35.6150 C   0  0  0  0  0  0  0  0  0  0  0  0
   37.2060   26.9630   34.4460 C   0  0  0  0  0  0  0  0  0  0  0  0
   37.7330   25.5430   34.4590 C   0  0  1  0  0  0  0  0  0  0  0  0
   37.7370   24.9210   33.1420 C   0  0  0  0  0  0  0  0  0  0  0  0
   37.3870   23.6250   32.8460 C   0  0  0  0  0  0  0  0  0  0  0  0
   37.4070   23.0730   31.5830 C   0  0  0  0  0  0  0  0  0  0  0  0
   37.8090   23.8790   30.5430 C   0  0  0  0  0  0  0  0  0  0  0  0
   38.1610   25.1920   30.8550 C   0  0  0  0  0  0  0  0  0  0  0  0
   38.1230   25.6800   32.1080 N   0  0  0  0  0  0  0  0  0  0  0  0
   39.4223   21.6571   37.5701 H   0  0  0  0  0  0  0  0  0  0  0  0
   38.0942   23.6664   36.9092 H   0  0  0  0  0  0  0  0  0  0  0  0
   42.6146   22.8636   35.0916 H   0  0  0  0  0  0  0  0  0  0  0  0
   40.0920   27.1487   36.0793 H   0  0  0  0  0  0  0  0  0  0  0  0
   39.8549   27.4218   34.3939 H   0  0  0  0  0  0  0  0  0  0  0  0
   37.6158   27.1869   36.5851 H   0  0  0  0  0  0  0  0  0  0  0  0
   37.9339   28.6433   35.7248 H   0  0  0  0  0  0  0  0  0  0  0  0
   37.4400   27.4759   33.5014 H   0  0  0  0  0  0  0  0  0  0  0  0
   36.1127   27.0505   34.5301 H   0  0  0  0  0  0  0  0  0  0  0  0
   37.0558   24.8742   35.0104 H   0  0  0  0  0  0  0  0  0  0  0  0
   37.0674   22.9809   33.6784 H   0  0  0  0  0  0  0  0  0  0  0  0
   37.1125   22.0269   31.4130 H   0  0  0  0  0  0  0  0  0  0  0  0
   37.8510   23.5040   29.5098 H   0  0  0  0  0  0  0  0  0  0  0  0
   38.4838   25.8576   30.0409 H   0  0  0  0  0  0  0  0  0  0  0  0
  2  1  2  0
  3  2  1  0
  4  5  1  0
  4  3  2  0
  5  6  2  0
  6  1  1  0
  7  8  1  0
  7  3  1  0
  8  9  1  0
 10 11  1  0
 10  9  1  0
 11  7  1  0
 12 11  1  0
 13 12  2  0
 14 13  1  0
 15 16  1  0
 15 14  2  0
 16 17  2  0
 17 12  1  0
  1 18  1  0
  2 19  1  0
  5 20  1  0
  8 21  1  0
  8 22  1  0
  9 23  1  0
  9 24  1  0
 10 25  1  0
 10 26  1  0
 11 27  1  1
 13 28  1  0
 14 29  1  0
 15 30  1  0
 16 31  1  0
M  ISO  8  18  14  19  14  20  14  21  13  22  13  23  13  24  13  25  13
M  ISO  6  26  13  27  13  28  14  29  14  30  14  31  14
M  END
>  <minimizedAffinity>  (1) 
-4.41613626

>  <minimizedRMSD>  (1) 
0.811886311

$$$$
