
     RDKit          3D

 36 38  0  0  1  0  0  0  0  0999 V2000
   39.3330   22.3400   36.5940 C   0  0  0  0  0  0  0  0  0  0  0  0
   38.6900   23.5130   36.2100 C   0  0  0  0  0  0  0  0  0  0  0  0
   39.4030   24.4710   35.4600 C   0  0  0  0  0  0  0  0  0  0  0  0
   40.7010   24.1870   35.1520 N   0  0  0  0  0  0  0  0  0  0  0  0
   41.2950   23.0260   35.5460 C   0  0  0  0  0  0  0  0  0  0  0  0
   40.6110   22.1170   36.2600 N   0  0  0  0  0  0  0  0  0  0  0  0
   38.8320   25.6820   35.0260 N   0  0  0  0  0  0  0  0  0  0  0  0
   39.2500   27.0590   35.3140 C   0  0  0  0  0  0  0  0  0  0  0  0
   37.8440   27.6570   35.5330 C   0  0  0  0  0  0  0  0  0  0  0  0
   37.2550   27.2340   34.2040 C   0  0  0  0  0  0  0  0  0  0  0  0
   37.6720   25.7580   34.1760 C   0  0  1  0  0  0  0  0  0  0  0  0
   37.9210   25.3450   32.8130 N   0  0  0  0  0  0  0  0  0  0  0  0
   37.0880   24.2490   32.4020 C   0  0  0  0  0  0  0  0  0  0  0  0
   36.7750   24.3160   30.9160 C   0  0  0  0  0  0  0  0  0  0  0  0
   37.9110   24.7930   30.1990 N   0  0  0  0  0  0  0  0  0  0  0  0
   38.4500   26.0460   30.6250 C   0  0  0  0  0  0  0  0  0  0  0  0
   37.7080   26.4390   31.9070 C   0  0  0  0  0  0  0  0  0  0  0  0
   38.7850   21.5867   37.1790 H   0  0  0  0  0  0  0  0  0  0  0  0
   37.6405   23.6903   36.4876 H   0  0  0  0  0  0  0  0  0  0  0  0
   42.3437   22.8314   35.2771 H   0  0  0  0  0  0  0  0  0  0  0  0
   39.8781   27.1259   36.2146 H   0  0  0  0  0  0  0  0  0  0  0  0
   39.8736   27.5481   34.5511 H   0  0  0  0  0  0  0  0  0  0  0  0
   37.3221   27.2030   36.3883 H   0  0  0  0  0  0  0  0  0  0  0  0
   37.7969   28.7293   35.7736 H   0  0  0  0  0  0  0  0  0  0  0  0
   36.1610   27.3481   34.1890 H   0  0  0  0  0  0  0  0  0  0  0  0
   37.5954   27.8248   33.3408 H   0  0  0  0  0  0  0  0  0  0  0  0
   36.8952   25.0716   34.5438 H   0  0  0  0  0  0  0  0  0  0  0  0
   37.6090   23.3040   32.6156 H   0  0  0  0  0  0  0  0  0  0  0  0
   36.1406   24.3073   32.9579 H   0  0  0  0  0  0  0  0  0  0  0  0
   36.5112   23.3114   30.5537 H   0  0  0  0  0  0  0  0  0  0  0  0
   35.9319   25.0041   30.7555 H   0  0  0  0  0  0  0  0  0  0  0  0
   37.6401   24.8883   29.2098 H   0  0  0  0  0  0  0  0  0  0  0  0
   39.5266   25.9452   30.8272 H   0  0  0  0  0  0  0  0  0  0  0  0
   38.3236   26.8131   29.8469 H   0  0  0  0  0  0  0  0  0  0  0  0
   38.1209   27.3702   32.3221 H   0  0  0  0  0  0  0  0  0  0  0  0
   36.6386   26.6210   31.7249 H   0  0  0  0  0  0  0  0  0  0  0  0
  2  1  2  0
  3  2  1  0
  4  3  2  0
  4  5  1  0
  5  6  2  0
  6  1  1  0
  7  8  1  0
  7  3  1  0
  8  9  1  0
 10  9  1  0
 11 10  1  0
 11  7  1  0
 12 11  1  0
 13 12  1  0
 14 13  1  0
 15 16  1  0
 15 14  1  0
 16 17  1  0
 17 12  1  0
  1 18  1  0
  2 19  1  0
  5 20  1  0
  8 21  1  0
  8 22  1  0
  9 23  1  0
  9 24  1  0
 10 25  1  0
 10 26  1  0
 11 27  1  1
 13 28  1  0
 13 29  1  0
 14 30  1  0
 14 31  1  0
 15 32  1  0
 16 33  1  0
 16 34  1  0
 17 35  1  0
 17 36  1  0
M  ISO  8  18  14  19  14  20  14  21  13  22  13  23  13  24  13  25  13
M  ISO  8  26  13  27  13  28  13  29  13  30  13  31  13  32   5  33  13
M  ISO  3  34  13  35  13  36  13
M  END
>  <minimizedAffinity>  (1) 
-4.5681529

>  <minimizedRMSD>  (1) 
1.08417821

$$$$
