
     RDKit          3D

 37 40  0  0  0  0  0  0  0  0999 V2000
   46.0790   25.2700   37.1640 C   0  0  0  0  0  0  0  0  0  0  0  0
   45.1880   26.0270   36.4190 C   0  0  0  0  0  0  0  0  0  0  0  0
   44.4490   25.3710   35.4450 C   0  0  0  0  0  0  0  0  0  0  0  0
   44.6500   24.0290   35.2860 N   0  0  0  0  0  0  0  0  0  0  0  0
   45.5260   23.3270   36.0310 C   0  0  0  0  0  0  0  0  0  0  0  0
   46.2460   23.9650   36.9800 N   0  0  0  0  0  0  0  0  0  0  0  0
   45.6960   21.9260   35.8240 N   0  0  0  0  0  0  0  0  0  0  0  0
   44.5760   21.0800   35.6850 C   0  0  0  0  0  0  0  0  0  0  0  0
   43.3820   21.5710   35.9030 N   0  0  0  0  0  0  0  0  0  0  0  0
   44.7420   19.7050   35.3110 N   0  0  0  0  0  0  0  0  0  0  0  0
   42.5540   20.9390   35.8100 H   0  0  0  0  0  0  0  0  0  0  0  0
   43.5160   26.0540   34.6330 N   0  0  0  0  0  0  0  0  0  0  0  0
   43.8360   27.0160   33.7520 C   0  0  0  0  0  0  0  0  0  0  0  0
   42.7140   27.4580   33.1450 N   0  0  0  0  0  0  0  0  0  0  0  0
   41.6950   26.7500   33.6700 C   0  0  0  0  0  0  0  0  0  0  0  0
   40.3600   26.8580   33.3520 C   0  0  0  0  0  0  0  0  0  0  0  0
   39.5190   26.0190   34.0320 N   0  0  0  0  0  0  0  0  0  0  0  0
   40.0230   25.1490   34.9550 C   0  0  0  0  0  0  0  0  0  0  0  0
   41.3430   25.0430   35.2680 N   0  0  0  0  0  0  0  0  0  0  0  0
   42.2070   25.8620   34.6120 C   0  0  0  0  0  0  0  0  0  0  0  0
   39.0500   24.2890   35.6330 C   0  0  0  0  0  0  0  0  0  0  0  0
   38.3960   24.7160   36.7700 C   0  0  0  0  0  0  0  0  0  0  0  0
   37.4870   23.8790   37.3820 C   0  0  0  0  0  0  0  0  0  0  0  0
   37.2520   22.6440   36.8500 C   0  0  0  0  0  0  0  0  0  0  0  0
   37.9130   22.2360   35.7170 C   0  0  0  0  0  0  0  0  0  0  0  0
   38.8130   23.0700   35.1150 N   0  0  0  0  0  0  0  0  0  0  0  0
   46.6737   25.7719   37.9415 H   0  0  0  0  0  0  0  0  0  0  0  0
   45.0713   27.1068   36.5935 H   0  0  0  0  0  0  0  0  0  0  0  0
   46.6450   21.5286   35.7756 H   0  0  0  0  0  0  0  0  0  0  0  0
   43.9179   19.0951   35.2120 H   0  0  0  0  0  0  0  0  0  0  0  0
   45.6853   19.3277   35.1414 H   0  0  0  0  0  0  0  0  0  0  0  0
   44.8532   27.3859   33.5557 H   0  0  0  0  0  0  0  0  0  0  0  0
   39.9929   27.5722   32.6002 H   0  0  0  0  0  0  0  0  0  0  0  0
   38.5977   25.7147   37.1845 H   0  0  0  0  0  0  0  0  0  0  0  0
   36.9567   24.2031   38.2896 H   0  0  0  0  0  0  0  0  0  0  0  0
   36.5280   21.9706   37.3321 H   0  0  0  0  0  0  0  0  0  0  0  0
   37.7182   21.2391   35.2947 H   0  0  0  0  0  0  0  0  0  0  0  0
  2  1  2  0
  3  2  1  0
  4  3  2  0
  4  5  1  0
  5  6  2  0
  6  1  1  0
  7  5  1  0
  8  7  1  0
  8  9  2  0
 10  8  1  0
 11  9  1  0
 12  3  1  0
 13 12  1  0
 14 15  1  0
 14 13  2  0
 15 20  2  0
 16 15  1  0
 16 17  2  0
 17 18  1  0
 18 19  2  0
 18 21  1  0
 20 12  1  0
 20 19  1  0
 21 22  2  0
 22 23  1  0
 24 23  2  0
 25 24  1  0
 26 21  1  0
 26 25  2  0
  1 27  1  0
  2 28  1  0
  7 29  1  0
 10 30  1  0
 10 31  1  0
 13 32  1  0
 16 33  1  0
 22 34  1  0
 23 35  1  0
 24 36  1  0
 25 37  1  0
M  ISO  8  27  14  28  14  32  14  33  14  34  14  35  14  36  14  37  14
M  END
>  <minimizedAffinity>  (1) 
-4.97252226

>  <minimizedRMSD>  (1) 
4.18559361

$$$$
