
     RDKit          3D

 29 31  0  0  1  0  0  0  0  0999 V2000
   40.0200   22.2320   36.6690 C   0  0  0  0  0  0  0  0  0  0  0  0
   39.3010   23.4180   36.4900 C   0  0  0  0  0  0  0  0  0  0  0  0
   39.7030   24.2830   35.4680 C   0  0  0  0  0  0  0  0  0  0  0  0
   40.7760   23.9120   34.7090 N   0  0  0  0  0  0  0  0  0  0  0  0
   41.4530   22.7590   34.9030 C   0  0  0  0  0  0  0  0  0  0  0  0
   41.0680   21.9180   35.8910 N   0  0  0  0  0  0  0  0  0  0  0  0
   39.0750   25.5110   35.1720 N   0  0  0  0  0  0  0  0  0  0  0  0
   39.5670   26.8680   35.1340 C   0  0  0  0  0  0  0  0  0  0  0  0
   38.3990   27.5560   35.8640 C   0  0  0  0  0  0  0  0  0  0  0  0
   37.2660   27.0390   34.9700 C   0  0  0  0  0  0  0  0  0  0  0  0
   37.6560   25.5880   34.8190 C   0  0  1  0  0  0  0  0  0  0  0  0
   37.5680   25.2350   33.3780 C   0  0  0  0  0  0  0  0  0  0  0  0
   37.5800   26.0840   32.2840 C   0  0  0  0  0  0  0  0  0  0  0  0
   37.4700   25.2390   31.1780 C   0  0  0  0  0  0  0  0  0  0  0  0
   37.3980   23.9410   31.6790 C   0  0  0  0  0  0  0  0  0  0  0  0
   37.4590   23.9850   32.9840 O   0  0  0  0  0  0  0  0  0  0  0  0
   39.7190   21.5384   37.4680 H   0  0  0  0  0  0  0  0  0  0  0  0
   38.4440   23.6631   37.1346 H   0  0  0  0  0  0  0  0  0  0  0  0
   42.3108   22.5057   34.2627 H   0  0  0  0  0  0  0  0  0  0  0  0
   40.5176   26.9794   35.6762 H   0  0  0  0  0  0  0  0  0  0  0  0
   39.8036   27.2621   34.1346 H   0  0  0  0  0  0  0  0  0  0  0  0
   38.2983   27.2158   36.9052 H   0  0  0  0  0  0  0  0  0  0  0  0
   38.4709   28.6481   35.9746 H   0  0  0  0  0  0  0  0  0  0  0  0
   36.2860   27.1450   35.4582 H   0  0  0  0  0  0  0  0  0  0  0  0
   37.1568   27.5802   34.0186 H   0  0  0  0  0  0  0  0  0  0  0  0
   37.0199   24.9331   35.4326 H   0  0  0  0  0  0  0  0  0  0  0  0
   37.6588   27.1812   32.2860 H   0  0  0  0  0  0  0  0  0  0  0  0
   37.4451   25.5389   30.1200 H   0  0  0  0  0  0  0  0  0  0  0  0
   37.3049   23.0269   31.0742 H   0  0  0  0  0  0  0  0  0  0  0  0
  2  1  2  0
  3  2  1  0
  4  5  1  0
  4  3  2  0
  5  6  2  0
  6  1  1  0
  7  3  1  0
  8  7  1  0
  8  9  1  0
 10  9  1  0
 11 10  1  0
 11  7  1  0
 12 11  1  0
 13 12  2  0
 14 15  2  0
 14 13  1  0
 15 16  1  0
 16 12  1  0
  1 17  1  0
  2 18  1  0
  5 19  1  0
  8 20  1  0
  8 21  1  0
  9 22  1  0
  9 23  1  0
 10 24  1  0
 10 25  1  0
 11 26  1  1
 13 27  1  0
 14 28  1  0
 15 29  1  0
M  ISO  8  17  14  18  14  19  14  20  13  21  13  22  13  23  13  24  13
M  ISO  5  25  13  26  13  27  14  28  14  29  14
M  END
>  <minimizedAffinity>  (1) 
-4.13285446

>  <minimizedRMSD>  (1) 
0.558259666

$$$$
