
     RDKit          3D

 29 30  0  0  1  0  0  0  0  0999 V2000
   38.6520   22.3150   36.1230 C   0  0  0  0  0  0  0  0  0  0  0  0
   38.1010   23.5380   35.6850 C   0  0  0  0  0  0  0  0  0  0  0  0
   39.0240   24.5500   35.3450 C   0  0  0  0  0  0  0  0  0  0  0  0
   40.3720   24.3110   35.4490 N   0  0  0  0  0  0  0  0  0  0  0  0
   40.8380   23.1100   35.8780 C   0  0  0  0  0  0  0  0  0  0  0  0
   39.9950   22.1280   36.2100 N   0  0  0  0  0  0  0  0  0  0  0  0
   38.5810   25.8180   34.8930 N   0  0  0  0  0  0  0  0  0  0  0  0
   38.8280   27.1470   35.4620 C   0  0  0  0  0  0  0  0  0  0  0  0
   37.4480   27.7430   35.2290 C   0  0  0  0  0  0  0  0  0  0  0  0
   37.3580   27.4630   33.7170 C   0  0  0  0  0  0  0  0  0  0  0  0
   37.7640   26.0040   33.7260 C   0  0  1  0  0  0  0  0  0  0  0  0
   38.3870   25.5690   32.5070 N   0  0  0  0  0  0  0  0  0  0  0  0
   37.5640   24.8350   31.6010 C   0  0  0  0  0  0  0  0  0  0  0  0
   36.5180   24.2190   32.0680 N   0  0  0  0  0  0  0  0  0  0  0  0
   37.8580   24.7600   30.2130 N   0  0  0  0  0  0  0  0  0  0  0  0
   35.9000   23.6740   31.4200 H   0  0  0  0  0  0  0  0  0  0  0  0
   37.9771   21.4921   36.4011 H   0  0  0  0  0  0  0  0  0  0  0  0
   37.0145   23.6936   35.6127 H   0  0  0  0  0  0  0  0  0  0  0  0
   41.9227   22.9435   35.9531 H   0  0  0  0  0  0  0  0  0  0  0  0
   39.0858   27.1005   36.5303 H   0  0  0  0  0  0  0  0  0  0  0  0
   39.6719   27.7054   35.0306 H   0  0  0  0  0  0  0  0  0  0  0  0
   36.6651   27.2207   35.7985 H   0  0  0  0  0  0  0  0  0  0  0  0
   37.3112   28.7895   35.5391 H   0  0  0  0  0  0  0  0  0  0  0  0
   38.0591   28.0834   33.1395 H   0  0  0  0  0  0  0  0  0  0  0  0
   36.3862   27.6824   33.2507 H   0  0  0  0  0  0  0  0  0  0  0  0
   36.8736   25.3601   33.7773 H   0  0  0  0  0  0  0  0  0  0  0  0
   39.3742   25.7756   32.2981 H   0  0  0  0  0  0  0  0  0  0  0  0
   38.6843   25.2448   29.8347 H   0  0  0  0  0  0  0  0  0  0  0  0
   37.2448   24.2209   29.5851 H   0  0  0  0  0  0  0  0  0  0  0  0
  1  6  2  0
  2  1  1  0
  3  4  1  0
  3  2  2  0
  4  5  2  0
  5  6  1  0
  7  3  1  0
  7  8  1  0
  9  8  1  0
 10 11  1  0
 10  9  1  0
 11  7  1  0
 12 11  1  0
 13 14  2  0
 13 12  1  0
 15 13  1  0
 16 14  1  0
  1 17  1  0
  2 18  1  0
  5 19  1  0
  8 20  1  0
  8 21  1  0
  9 22  1  0
  9 23  1  0
 10 24  1  0
 10 25  1  0
 11 26  1  1
 12 27  1  0
 15 28  1  0
 15 29  1  0
M  ISO  8  17  14  18  14  19  14  20  13  21  13  22  13  23  13  24  13
M  ISO  2  25  13  26  13
M  END
>  <minimizedAffinity>  (1) 
-4.08287573

>  <minimizedRMSD>  (1) 
1.58997619

$$$$
