
     RDKit          3D

 36 39  0  0  0  0  0  0  0  0999 V2000
   45.8800   25.2810   37.1350 C   0  0  0  0  0  0  0  0  0  0  0  0
   45.0030   26.0410   36.3760 C   0  0  0  0  0  0  0  0  0  0  0  0
   44.2760   25.3860   35.3810 C   0  0  0  0  0  0  0  0  0  0  0  0
   44.4750   24.0490   35.2200 N   0  0  0  0  0  0  0  0  0  0  0  0
   45.3360   23.3500   35.9780 C   0  0  0  0  0  0  0  0  0  0  0  0
   46.0430   23.9780   36.9440 N   0  0  0  0  0  0  0  0  0  0  0  0
   45.5190   21.9390   35.7800 N   0  0  0  0  0  0  0  0  0  0  0  0
   44.3950   21.0990   35.6100 C   0  0  0  0  0  0  0  0  0  0  0  0
   43.1990   21.5980   35.7990 N   0  0  0  0  0  0  0  0  0  0  0  0
   44.5490   19.7270   35.2380 N   0  0  0  0  0  0  0  0  0  0  0  0
   42.3710   20.9610   35.7080 H   0  0  0  0  0  0  0  0  0  0  0  0
   43.3620   26.0760   34.5590 N   0  0  0  0  0  0  0  0  0  0  0  0
   43.6920   27.0420   33.6890 C   0  0  0  0  0  0  0  0  0  0  0  0
   42.5750   27.4930   33.0620 N   0  0  0  0  0  0  0  0  0  0  0  0
   41.5490   26.7750   33.5730 C   0  0  0  0  0  0  0  0  0  0  0  0
   40.2180   26.8830   33.2400 C   0  0  0  0  0  0  0  0  0  0  0  0
   39.3650   26.0540   33.8870 N   0  0  0  0  0  0  0  0  0  0  0  0
   39.8490   25.1690   34.8230 C   0  0  0  0  0  0  0  0  0  0  0  0
   41.1650   25.0630   35.1520 N   0  0  0  0  0  0  0  0  0  0  0  0
   42.0470   25.8820   34.5190 C   0  0  0  0  0  0  0  0  0  0  0  0
   38.9240   24.2760   35.5200 C   0  0  0  0  0  0  0  0  0  0  0  0
   38.3510   24.7010   36.7230 C   0  0  0  0  0  0  0  0  0  0  0  0
   37.4780   23.8410   37.3690 C   0  0  0  0  0  0  0  0  0  0  0  0
   37.1600   22.6250   36.8960 N   0  0  0  0  0  0  0  0  0  0  0  0
   37.7350   22.2380   35.7210 C   0  0  0  0  0  0  0  0  0  0  0  0
   38.5950   23.0540   35.0590 N   0  0  0  0  0  0  0  0  0  0  0  0
   46.4626   25.7770   37.9253 H   0  0  0  0  0  0  0  0  0  0  0  0
   44.8847   27.1204   36.5517 H   0  0  0  0  0  0  0  0  0  0  0  0
   46.4683   21.5398   35.7619 H   0  0  0  0  0  0  0  0  0  0  0  0
   43.7186   19.1295   35.1185 H   0  0  0  0  0  0  0  0  0  0  0  0
   45.4903   19.3362   35.0895 H   0  0  0  0  0  0  0  0  0  0  0  0
   44.7122   27.4126   33.5105 H   0  0  0  0  0  0  0  0  0  0  0  0
   39.8658   27.6045   32.4881 H   0  0  0  0  0  0  0  0  0  0  0  0
   38.5867   25.6895   37.1440 H   0  0  0  0  0  0  0  0  0  0  0  0
   37.0233   24.1700   38.3151 H   0  0  0  0  0  0  0  0  0  0  0  0
   37.4980   21.2485   35.3029 H   0  0  0  0  0  0  0  0  0  0  0  0
  2  1  2  0
  3  2  1  0
  4  3  2  0
  4  5  1  0
  5  6  2  0
  6  1  1  0
  7  5  1  0
  8  7  1  0
  8  9  2  0
 10  8  1  0
 11  9  1  0
 12  3  1  0
 13 12  1  0
 14 15  1  0
 14 13  2  0
 15 20  2  0
 16 15  1  0
 16 17  2  0
 17 18  1  0
 18 19  2  0
 18 21  1  0
 20 12  1  0
 20 19  1  0
 21 22  2  0
 22 23  1  0
 24 23  2  0
 25 24  1  0
 26 21  1  0
 26 25  2  0
  1 27  1  0
  2 28  1  0
  7 29  1  0
 10 30  1  0
 10 31  1  0
 13 32  1  0
 16 33  1  0
 22 34  1  0
 23 35  1  0
 25 36  1  0
M  ISO  7  27  14  28  14  32  14  33  14  34  14  35  14  36  14
M  END
>  <minimizedAffinity>  (1) 
-4.97145033

>  <minimizedRMSD>  (1) 
4.08578444

$$$$
