
     RDKit          3D

 24 25  0  0  1  0  0  0  0  0999 V2000
   40.8980   21.8970   37.4900 C   0  0  0  0  0  0  0  0  0  0  0  0
   40.1040   23.0060   37.2090 C   0  0  0  0  0  0  0  0  0  0  0  0
   40.1750   23.5850   35.9440 C   0  0  0  0  0  0  0  0  0  0  0  0
   41.0380   23.0150   35.0410 N   0  0  0  0  0  0  0  0  0  0  0  0
   41.8010   21.9410   35.3290 C   0  0  0  0  0  0  0  0  0  0  0  0
   41.7230   21.3870   36.5660 N   0  0  0  0  0  0  0  0  0  0  0  0
   39.4160   24.7010   35.5530 N   0  0  0  0  0  0  0  0  0  0  0  0
   39.8490   26.0110   35.0610 C   0  0  0  0  0  0  0  0  0  0  0  0
   38.8300   26.8640   35.8250 C   0  0  0  0  0  0  0  0  0  0  0  0
   37.5620   26.1660   35.3780 C   0  0  0  0  0  0  0  0  0  0  0  0
   37.9680   24.7170   35.5840 C   0  0  2  0  0  0  0  0  0  0  0  0
   37.5330   24.3710   36.9240 N   0  0  0  0  0  0  0  0  0  0  0  0
   40.8470   21.4327   38.4859 H   0  0  0  0  0  0  0  0  0  0  0  0
   39.4307   23.4187   37.9747 H   0  0  0  0  0  0  0  0  0  0  0  0
   42.4779   21.5192   34.5714 H   0  0  0  0  0  0  0  0  0  0  0  0
   40.8857   26.2428   35.3463 H   0  0  0  0  0  0  0  0  0  0  0  0
   39.8669   26.1379   33.9685 H   0  0  0  0  0  0  0  0  0  0  0  0
   38.9735   26.8029   36.9139 H   0  0  0  0  0  0  0  0  0  0  0  0
   38.8721   27.9452   35.6270 H   0  0  0  0  0  0  0  0  0  0  0  0
   37.3296   26.3784   34.3240 H   0  0  0  0  0  0  0  0  0  0  0  0
   36.6522   26.4718   35.9154 H   0  0  0  0  0  0  0  0  0  0  0  0
   37.5460   24.0297   34.8360 H   0  0  0  0  0  0  0  0  0  0  0  0
   38.1321   24.8475   37.6132 H   0  0  0  0  0  0  0  0  0  0  0  0
   36.5555   24.6681   37.0551 H   0  0  0  0  0  0  0  0  0  0  0  0
  2  1  2  0
  3  2  1  0
  4  5  1  0
  4  3  2  0
  5  6  2  0
  6  1  1  0
  7 11  1  0
  7  3  1  0
  8  7  1  0
  8  9  1  0
 10 11  1  0
 10  9  1  0
 11 12  1  0
  1 13  1  0
  2 14  1  0
  5 15  1  0
  8 16  1  0
  8 17  1  0
  9 18  1  0
  9 19  1  0
 10 20  1  0
 10 21  1  0
 11 22  1  6
 12 23  1  0
 12 24  1  0
M  ISO  8  13  14  14  14  15  14  16  13  17  13  18  13  19  13  20  13
M  ISO  4  21  13  22  13  23   5  24   5
M  END
>  <minimizedAffinity>  (1) 
-3.69142652

>  <minimizedRMSD>  (1) 
0.801741779

$$$$
