
     RDKit          3D

 28 29  0  0  1  0  0  0  0  0999 V2000
   39.4100   22.6770   37.3980 C   0  0  0  0  0  0  0  0  0  0  0  0
   38.7170   23.7880   36.8790 C   0  0  0  0  0  0  0  0  0  0  0  0
   39.3940   24.5380   35.8940 C   0  0  0  0  0  0  0  0  0  0  0  0
   40.6490   24.1570   35.5080 N   0  0  0  0  0  0  0  0  0  0  0  0
   41.2630   23.0770   36.0480 C   0  0  0  0  0  0  0  0  0  0  0  0
   40.6410   22.3410   36.9900 N   0  0  0  0  0  0  0  0  0  0  0  0
   38.8080   25.6750   35.2950 N   0  0  0  0  0  0  0  0  0  0  0  0
   39.2500   27.0670   35.2950 C   0  0  0  0  0  0  0  0  0  0  0  0
   37.8960   27.7420   35.4660 C   0  0  0  0  0  0  0  0  0  0  0  0
   37.1680   27.0670   34.3030 C   0  0  0  0  0  0  0  0  0  0  0  0
   37.5840   25.6270   34.5300 C   0  0  1  0  0  0  0  0  0  0  0  0
   37.7070   24.8570   33.2420 C   0  0  0  0  0  0  0  0  0  0  0  0
   36.6740   25.2230   32.2100 C   0  0  0  0  0  0  0  0  0  0  0  0
   38.9217   22.0616   38.1679 H   0  0  0  0  0  0  0  0  0  0  0  0
   37.7066   24.0555   37.2217 H   0  0  0  0  0  0  0  0  0  0  0  0
   42.2743   22.7994   35.7159 H   0  0  0  0  0  0  0  0  0  0  0  0
   39.9290   27.2849   36.1325 H   0  0  0  0  0  0  0  0  0  0  0  0
   39.8293   27.3812   34.4142 H   0  0  0  0  0  0  0  0  0  0  0  0
   37.4347   27.5088   36.4370 H   0  0  0  0  0  0  0  0  0  0  0  0
   37.9022   28.8419   35.4562 H   0  0  0  0  0  0  0  0  0  0  0  0
   37.5163   27.4437   33.3300 H   0  0  0  0  0  0  0  0  0  0  0  0
   36.0814   27.2360   34.2768 H   0  0  0  0  0  0  0  0  0  0  0  0
   36.8150   25.0730   35.0884 H   0  0  0  0  0  0  0  0  0  0  0  0
   38.7035   25.0493   32.8176 H   0  0  0  0  0  0  0  0  0  0  0  0
   37.5496   23.7966   33.4884 H   0  0  0  0  0  0  0  0  0  0  0  0
   35.7522   25.5496   32.7137 H   0  0  0  0  0  0  0  0  0  0  0  0
   37.0574   26.0400   31.5811 H   0  0  0  0  0  0  0  0  0  0  0  0
   36.4575   24.3468   31.5811 H   0  0  0  0  0  0  0  0  0  0  0  0
  2  1  2  0
  3  2  1  0
  4  3  2  0
  4  5  1  0
  5  6  2  0
  6  1  1  0
  7  8  1  0
  7  3  1  0
  8  9  1  0
 10 11  1  0
 10  9  1  0
 11  7  1  0
 12 11  1  0
 13 12  1  0
  1 14  1  0
  2 15  1  0
  5 16  1  0
  8 17  1  0
  8 18  1  0
  9 19  1  0
  9 20  1  0
 10 21  1  0
 10 22  1  0
 11 23  1  1
 12 24  1  0
 12 25  1  0
 13 26  1  0
 13 27  1  0
 13 28  1  0
M  ISO  8  14  14  15  14  16  14  17  13  18  13  19  13  20  13  21  13
M  ISO  7  22  13  23  13  24   8  25   8  26   8  27   8  28   8
M  END
>  <minimizedAffinity>  (1) 
-3.7021625

>  <minimizedRMSD>  (1) 
0.921490729

$$$$
