
     RDKit          3D

 25 26  0  0  1  0  0  0  0  0999 V2000
   41.6360   21.4440   37.4410 C   0  0  0  0  0  0  0  0  0  0  0  0
   40.7200   22.4700   37.2400 C   0  0  0  0  0  0  0  0  0  0  0  0
   40.5160   22.9540   35.9500 C   0  0  0  0  0  0  0  0  0  0  0  0
   41.2410   22.3820   34.9390 N   0  0  0  0  0  0  0  0  0  0  0  0
   42.1280   21.3850   35.1460 C   0  0  0  0  0  0  0  0  0  0  0  0
   42.3230   20.9210   36.3930 N   0  0  0  0  0  0  0  0  0  0  0  0
   39.6150   23.9840   35.6440 N   0  0  0  0  0  0  0  0  0  0  0  0
   39.8500   25.3000   35.0430 C   0  0  0  0  0  0  0  0  0  0  0  0
   38.9120   26.1270   35.9230 C   0  0  0  0  0  0  0  0  0  0  0  0
   37.6440   25.3180   35.7340 C   0  0  0  0  0  0  0  0  0  0  0  0
   38.1950   23.9120   35.8890 C   0  0  2  0  0  0  0  0  0  0  0  0
   37.8680   23.4260   37.2530 C   0  0  0  0  0  0  0  0  0  0  0  0
   36.9270   22.5880   37.0980 O   0  0  0  0  0  0  0  0  0  0  0  0
   37.5010   22.9190   38.4890 O   0  0  0  0  0  0  0  0  0  0  0  0
   41.8054   21.0534   38.4552 H   0  0  0  0  0  0  0  0  0  0  0  0
   40.1634   22.8942   38.0887 H   0  0  0  0  0  0  0  0  0  0  0  0
   42.6866   20.9558   34.3012 H   0  0  0  0  0  0  0  0  0  0  0  0
   40.8982   25.6187   35.1418 H   0  0  0  0  0  0  0  0  0  0  0  0
   39.6696   25.3677   33.9600 H   0  0  0  0  0  0  0  0  0  0  0  0
   39.2386   26.1442   36.9732 H   0  0  0  0  0  0  0  0  0  0  0  0
   38.8375   27.1941   35.6664 H   0  0  0  0  0  0  0  0  0  0  0  0
   37.2051   25.4758   34.7378 H   0  0  0  0  0  0  0  0  0  0  0  0
   36.8278   25.5720   36.4263 H   0  0  0  0  0  0  0  0  0  0  0  0
   37.7540   23.1985   35.1774 H   0  0  0  0  0  0  0  0  0  0  0  0
   37.9537   23.2386   39.3094 H   0  0  0  0  0  0  0  0  0  0  0  0
  2  1  2  0
  3  2  1  0
  4  5  1  0
  4  3  2  0
  5  6  2  0
  6  1  1  0
  7 11  1  0
  7  3  1  0
  8  7  1  0
  8  9  1  0
 10 11  1  0
 10  9  1  0
 11 12  1  0
 12 14  1  0
 13 12  2  0
  1 15  1  0
  2 16  1  0
  5 17  1  0
  8 18  1  0
  8 19  1  0
  9 20  1  0
  9 21  1  0
 10 22  1  0
 10 23  1  0
 11 24  1  6
 14 25  1  0
M  ISO  8  15  14  16  14  17  14  18  13  19  13  20  13  21  13  22  13
M  ISO  3  23  13  24  13  25   3
M  END
>  <minimizedAffinity>  (1) 
-3.98602724

>  <minimizedRMSD>  (1) 
1.6519984

$$$$
