
     RDKit          3D

 35 37  0  0  1  0  0  0  0  0999 V2000
   39.8540   22.5900   37.2250 C   0  0  0  0  0  0  0  0  0  0  0  0
   39.0780   23.6550   36.7430 C   0  0  0  0  0  0  0  0  0  0  0  0
   39.6490   24.4910   35.7700 C   0  0  0  0  0  0  0  0  0  0  0  0
   40.9310   24.2320   35.3370 N   0  0  0  0  0  0  0  0  0  0  0  0
   41.6330   23.1810   35.8450 C   0  0  0  0  0  0  0  0  0  0  0  0
   41.1000   22.3720   36.7760 N   0  0  0  0  0  0  0  0  0  0  0  0
   38.9500   25.5860   35.2260 N   0  0  0  0  0  0  0  0  0  0  0  0
   39.3040   27.0030   35.2370 C   0  0  0  0  0  0  0  0  0  0  0  0
   37.9160   27.5780   35.4950 C   0  0  0  0  0  0  0  0  0  0  0  0
   37.1630   26.8900   34.3710 C   0  0  0  0  0  0  0  0  0  0  0  0
   37.7010   25.4700   34.5280 C   0  0  1  0  0  0  0  0  0  0  0  0
   37.8210   24.8920   33.1530 C   0  0  0  0  0  0  0  0  0  0  0  0
   36.7160   25.4530   32.2760 C   0  0  0  0  0  0  0  0  0  0  0  0
   36.9120   24.6150   31.0280 C   0  0  0  0  0  0  0  0  0  0  0  0
   37.1970   23.2560   31.5760 C   0  0  0  0  0  0  0  0  0  0  0  0
   37.5400   23.4320   33.0480 C   0  0  0  0  0  0  0  0  0  0  0  0
   39.4320   21.9190   37.9876 H   0  0  0  0  0  0  0  0  0  0  0  0
   38.0574   23.8290   37.1146 H   0  0  0  0  0  0  0  0  0  0  0  0
   42.6554   22.9910   35.4863 H   0  0  0  0  0  0  0  0  0  0  0  0
   40.0109   27.2478   36.0434 H   0  0  0  0  0  0  0  0  0  0  0  0
   39.8167   27.3752   34.3378 H   0  0  0  0  0  0  0  0  0  0  0  0
   37.5293   27.2944   36.4850 H   0  0  0  0  0  0  0  0  0  0  0  0
   37.8526   28.6761   35.5049 H   0  0  0  0  0  0  0  0  0  0  0  0
   37.4150   27.3165   33.3889 H   0  0  0  0  0  0  0  0  0  0  0  0
   36.0679   26.9806   34.4213 H   0  0  0  0  0  0  0  0  0  0  0  0
   37.0544   24.7944   35.1072 H   0  0  0  0  0  0  0  0  0  0  0  0
   38.8584   25.1249   32.8711 H   0  0  0  0  0  0  0  0  0  0  0  0
   35.7226   25.2946   32.7211 H   0  0  0  0  0  0  0  0  0  0  0  0
   36.7628   26.5400   32.1138 H   0  0  0  0  0  0  0  0  0  0  0  0
   37.7586   24.9862   30.4317 H   0  0  0  0  0  0  0  0  0  0  0  0
   36.0448   24.6361   30.3517 H   0  0  0  0  0  0  0  0  0  0  0  0
   36.3115   22.6123   31.4689 H   0  0  0  0  0  0  0  0  0  0  0  0
   38.0277   22.7807   31.0338 H   0  0  0  0  0  0  0  0  0  0  0  0
   36.6931   23.1451   33.6886 H   0  0  0  0  0  0  0  0  0  0  0  0
   38.3810   22.8034   33.3759 H   0  0  0  0  0  0  0  0  0  0  0  0
  2  1  2  0
  3  2  1  0
  4  3  2  0
  4  5  1  0
  5  6  2  0
  6  1  1  0
  7  8  1  0
  7  3  1  0
  8  9  1  0
 10 11  1  0
 10  9  1  0
 11  7  1  0
 12 11  1  0
 13 12  1  0
 14 15  1  0
 14 13  1  0
 15 16  1  0
 16 12  1  0
  1 17  1  0
  2 18  1  0
  5 19  1  0
  8 20  1  0
  8 21  1  0
  9 22  1  0
  9 23  1  0
 10 24  1  0
 10 25  1  0
 11 26  1  1
 12 27  1  0
 13 28  1  0
 13 29  1  0
 14 30  1  0
 14 31  1  0
 15 32  1  0
 15 33  1  0
 16 34  1  0
 16 35  1  0
M  ISO  8  17  14  18  14  19  14  20  13  21  13  22  13  23  13  24  13
M  ISO  8  25  13  26  13  27  13  28  13  29  13  30  13  31  13  32  13
M  ISO  3  33  13  34  13  35  13
M  END
>  <minimizedAffinity>  (1) 
-4.38753176

>  <minimizedRMSD>  (1) 
0.889982402

$$$$
