
     RDKit          3D

 45 48  0  0  1  0  0  0  0  0999 V2000
   37.1240   26.0230   32.9760 C   0  0  2  0  0  0  0  0  0  0  0  0
   37.0680   24.8290   32.0300 C   0  0  0  0  0  0  0  0  0  0  0  0
   35.7160   25.0720   31.3890 C   0  0  0  0  0  0  0  0  0  0  0  0
   35.6590   26.5280   31.2230 C   0  0  0  0  0  0  0  0  0  0  0  0
   36.7970   27.1270   32.0590 C   0  0  1  0  0  0  0  0  0  0  0  0
   38.0310   24.3250   37.6920 C   0  0  0  0  0  0  0  0  0  0  0  0
   38.5600   24.9780   36.5540 C   0  0  0  0  0  0  0  0  0  0  0  0
   38.4640   24.2910   35.3230 C   0  0  0  0  0  0  0  0  0  0  0  0
   37.8730   23.0410   35.2810 N   0  0  0  0  0  0  0  0  0  0  0  0
   37.3860   22.4750   36.4190 C   0  0  0  0  0  0  0  0  0  0  0  0
   37.4620   23.1010   37.5970 N   0  0  0  0  0  0  0  0  0  0  0  0
   38.9560   24.8440   34.1290 N   0  0  0  0  0  0  0  0  0  0  0  0
   39.9810   24.3300   33.2300 C   0  0  0  0  0  0  0  0  0  0  0  0
   40.6910   25.6670   32.9580 C   0  0  0  0  0  0  0  0  0  0  0  0
   39.4790   26.4110   32.4380 C   0  0  0  0  0  0  0  0  0  0  0  0
   38.5030   26.0770   33.5670 C   0  0  1  0  0  0  0  0  0  0  0  0
   36.2940   28.3980   32.6600 C   0  0  0  0  0  0  0  0  0  0  0  0
   36.2190   29.4720   31.7650 C   0  0  0  0  0  0  0  0  0  0  0  0
   35.8100   30.7090   32.2750 C   0  0  0  0  0  0  0  0  0  0  0  0
   35.4750   30.9370   33.6030 C   0  0  0  0  0  0  0  0  0  0  0  0
   35.5760   29.8160   34.4240 C   0  0  0  0  0  0  0  0  0  0  0  0
   35.9690   28.5780   33.9880 C   0  0  0  0  0  0  0  0  0  0  0  0
   36.4495   26.0202   33.8450 H   0  0  0  0  0  0  0  0  0  0  0  0
   37.8820   24.8543   31.2905 H   0  0  0  0  0  0  0  0  0  0  0  0
   37.1850   23.8472   32.5120 H   0  0  0  0  0  0  0  0  0  0  0  0
   35.6479   24.5644   30.4155 H   0  0  0  0  0  0  0  0  0  0  0  0
   34.8842   24.6818   31.9939 H   0  0  0  0  0  0  0  0  0  0  0  0
   35.7913   26.7916   30.1633 H   0  0  0  0  0  0  0  0  0  0  0  0
   34.6855   26.9199   31.5527 H   0  0  0  0  0  0  0  0  0  0  0  0
   37.7173   27.4379   31.5428 H   0  0  0  0  0  0  0  0  0  0  0  0
   38.0832   24.8214   38.6722 H   0  0  0  0  0  0  0  0  0  0  0  0
   39.0239   25.9729   36.6241 H   0  0  0  0  0  0  0  0  0  0  0  0
   36.9195   21.4801   36.3678 H   0  0  0  0  0  0  0  0  0  0  0  0
   40.6394   23.5973   33.7196 H   0  0  0  0  0  0  0  0  0  0  0  0
   39.6258   23.7763   32.3484 H   0  0  0  0  0  0  0  0  0  0  0  0
   41.1032   26.1192   33.8721 H   0  0  0  0  0  0  0  0  0  0  0  0
   41.5711   25.6341   32.2989 H   0  0  0  0  0  0  0  0  0  0  0  0
   39.6614   27.4926   32.3548 H   0  0  0  0  0  0  0  0  0  0  0  0
   39.1489   26.1357   31.4255 H   0  0  0  0  0  0  0  0  0  0  0  0
   38.4628   26.8219   34.3754 H   0  0  0  0  0  0  0  0  0  0  0  0
   36.4719   29.3481   30.7017 H   0  0  0  0  0  0  0  0  0  0  0  0
   35.7498   31.5574   31.5774 H   0  0  0  0  0  0  0  0  0  0  0  0
   35.1562   31.9215   33.9761 H   0  0  0  0  0  0  0  0  0  0  0  0
   35.3246   29.9321   35.4886 H   0  0  0  0  0  0  0  0  0  0  0  0
   36.0248   27.7344   34.6917 H   0  0  0  0  0  0  0  0  0  0  0  0
  1 16  1  0
  2  1  1  0
  3  2  1  0
  4  3  1  0
  4  5  1  0
  5 17  1  0
  5  1  1  0
  7  6  2  0
  8  7  1  0
  9  8  2  0
  9 10  1  0
 10 11  2  0
 11  6  1  0
 12  8  1  0
 13 12  1  0
 14 13  1  0
 15 14  1  0
 15 16  1  0
 16 12  1  0
 17 22  2  0
 18 19  2  0
 18 17  1  0
 19 20  1  0
 20 21  2  0
 22 21  1  0
  1 23  1  1
  2 24  1  0
  2 25  1  0
  3 26  1  0
  3 27  1  0
  4 28  1  0
  4 29  1  0
  5 30  1  6
  6 31  1  0
  7 32  1  0
 10 33  1  0
 13 34  1  0
 13 35  1  0
 14 36  1  0
 14 37  1  0
 15 38  1  0
 15 39  1  0
 16 40  1  1
 18 41  1  0
 19 42  1  0
 20 43  1  0
 21 44  1  0
 22 45  1  0
M  ISO  8  23  13  24  13  25  13  26  13  27  13  28  13  29  13  30  13
M  ISO  8  31  14  32  14  33  14  34  13  35  13  36  13  37  13  38  13
M  ISO  7  39  13  40  13  41  14  42  14  43  14  44  14  45  14
M  END
>  <minimizedAffinity>  (1) 
-5.59226274

>  <minimizedRMSD>  (1) 
5.3533864

$$$$
