
     RDKit          3D

 51 55  0  0  1  0  0  0  0  0999 V2000
   36.4300   24.2180   32.1880 C   0  0  2  0  0  0  0  0  0  0  0  0
   35.5120   24.3270   30.9680 C   0  0  0  0  0  0  0  0  0  0  0  0
   35.1470   25.7950   31.0650 C   0  0  0  0  0  0  0  0  0  0  0  0
   36.4530   26.4360   31.3880 C   0  0  0  0  0  0  0  0  0  0  0  0
   37.3590   25.3370   31.8860 C   0  0  1  0  0  0  0  0  0  0  0  0
   40.5800   23.1190   34.9520 C   0  0  0  0  0  0  0  0  0  0  0  0
   39.6760   22.6740   33.9680 C   0  0  0  0  0  0  0  0  0  0  0  0
   38.3090   22.6720   34.2980 C   0  0  0  0  0  0  0  0  0  0  0  0
   37.9370   23.0980   35.5420 N   0  0  0  0  0  0  0  0  0  0  0  0
   38.8530   23.5140   36.4460 C   0  0  0  0  0  0  0  0  0  0  0  0
   40.1580   23.5300   36.1690 N   0  0  0  0  0  0  0  0  0  0  0  0
   37.3150   22.2520   33.3950 N   0  0  0  0  0  0  0  0  0  0  0  0
   36.3420   21.1750   33.5190 C   0  0  0  0  0  0  0  0  0  0  0  0
   36.4650   20.6350   32.0840 C   0  0  0  0  0  0  0  0  0  0  0  0
   36.1200   21.9320   31.3790 C   0  0  0  0  0  0  0  0  0  0  0  0
   37.0820   22.8590   32.1180 C   0  0  1  0  0  0  0  0  0  0  0  0
   38.0710   25.9300   33.0290 C   0  0  0  0  0  0  0  0  0  0  0  0
   37.1960   26.2970   34.0560 C   0  0  0  0  0  0  0  0  0  0  0  0
   37.7320   26.9080   35.1990 C   0  0  0  0  0  0  0  0  0  0  0  0
   39.0810   27.1520   35.3280 C   0  0  0  0  0  0  0  0  0  0  0  0
   39.9320   26.7850   34.3050 C   0  0  0  0  0  0  0  0  0  0  0  0
   41.2990   26.9820   34.3280 C   0  0  0  0  0  0  0  0  0  0  0  0
   42.1370   26.6100   33.2970 C   0  0  0  0  0  0  0  0  0  0  0  0
   41.5590   26.0080   32.1840 C   0  0  0  0  0  0  0  0  0  0  0  0
   40.2050   25.8030   32.1410 C   0  0  0  0  0  0  0  0  0  0  0  0
   39.4100   26.1920   33.1960 C   0  0  0  0  0  0  0  0  0  0  0  0
   35.9902   24.2911   33.1936 H   0  0  0  0  0  0  0  0  0  0  0  0
   34.6291   23.6771   31.0586 H   0  0  0  0  0  0  0  0  0  0  0  0
   35.9611   24.0168   30.0130 H   0  0  0  0  0  0  0  0  0  0  0  0
   34.7471   26.1683   30.1107 H   0  0  0  0  0  0  0  0  0  0  0  0
   34.3632   26.0020   31.8085 H   0  0  0  0  0  0  0  0  0  0  0  0
   36.8804   26.9020   30.4879 H   0  0  0  0  0  0  0  0  0  0  0  0
   36.3321   27.2250   32.1449 H   0  0  0  0  0  0  0  0  0  0  0  0
   38.1316   24.9434   31.2091 H   0  0  0  0  0  0  0  0  0  0  0  0
   41.6562   23.1325   34.7248 H   0  0  0  0  0  0  0  0  0  0  0  0
   40.0257   22.3409   32.9797 H   0  0  0  0  0  0  0  0  0  0  0  0
   38.5126   23.8484   37.4371 H   0  0  0  0  0  0  0  0  0  0  0  0
   36.6342   20.4304   34.2741 H   0  0  0  0  0  0  0  0  0  0  0  0
   35.3329   21.4624   33.8492 H   0  0  0  0  0  0  0  0  0  0  0  0
   37.4811   20.2845   31.8502 H   0  0  0  0  0  0  0  0  0  0  0  0
   35.8547   19.7555   31.8311 H   0  0  0  0  0  0  0  0  0  0  0  0
   36.3348   21.8869   30.3011 H   0  0  0  0  0  0  0  0  0  0  0  0
   35.0597   22.2234   31.4100 H   0  0  0  0  0  0  0  0  0  0  0  0
   38.0562   22.9999   31.6269 H   0  0  0  0  0  0  0  0  0  0  0  0
   36.1152   26.1113   33.9697 H   0  0  0  0  0  0  0  0  0  0  0  0
   37.0555   27.2006   36.0156 H   0  0  0  0  0  0  0  0  0  0  0  0
   39.4756   27.6334   36.2350 H   0  0  0  0  0  0  0  0  0  0  0  0
   41.7423   27.4601   35.2139 H   0  0  0  0  0  0  0  0  0  0  0  0
   43.2219   26.7830   33.3530 H   0  0  0  0  0  0  0  0  0  0  0  0
   42.1893   25.6964   31.3381 H   0  0  0  0  0  0  0  0  0  0  0  0
   39.7511   25.3257   31.2600 H   0  0  0  0  0  0  0  0  0  0  0  0
  2  3  1  0
  2  1  1  0
  3  4  1  0
  4  5  1  0
  5  1  1  0
  5 17  1  0
  6 11  2  0
  7  8  2  0
  7  6  1  0
  8  9  1  0
  9 10  2  0
 11 10  1  0
 12 13  1  0
 12  8  1  0
 14 13  1  0
 15 14  1  0
 15 16  1  0
 16  1  1  0
 16 12  1  0
 17 26  1  0
 17 18  2  0
 18 19  1  0
 19 20  2  0
 21 22  2  0
 21 20  1  0
 23 22  1  0
 24 23  2  0
 25 24  1  0
 25 26  2  0
 26 21  1  0
  1 27  1  1
  2 28  1  0
  2 29  1  0
  3 30  1  0
  3 31  1  0
  4 32  1  0
  4 33  1  0
  5 34  1  6
  6 35  1  0
  7 36  1  0
 10 37  1  0
 13 38  1  0
 13 39  1  0
 14 40  1  0
 14 41  1  0
 15 42  1  0
 15 43  1  0
 16 44  1  6
 18 45  1  0
 19 46  1  0
 20 47  1  0
 22 48  1  0
 23 49  1  0
 24 50  1  0
 25 51  1  0
M  ISO  8  27  13  28  13  29  13  30  13  31  13  32  13  33  13  34  13
M  ISO  8  35  14  36  14  37  14  38  13  39  13  40  13  41  13  42  13
M  ISO  8  43  13  44  13  45  14  46  14  47  14  48  14  49  14  50  14
M  ISO  1  51  14
M  END
>  <minimizedAffinity>  (1) 
-6.35772705

>  <minimizedRMSD>  (1) 
5.04714918

$$$$
