
     RDKit          3D

 49 52  0  0  1  0  0  0  0  0999 V2000
   39.4650   22.3570   36.8050 C   0  0  0  0  0  0  0  0  0  0  0  0
   38.8280   23.5150   36.3640 C   0  0  0  0  0  0  0  0  0  0  0  0
   39.5360   24.4630   35.6160 C   0  0  0  0  0  0  0  0  0  0  0  0
   40.8570   24.2120   35.3400 N   0  0  0  0  0  0  0  0  0  0  0  0
   41.4390   23.0650   35.7920 C   0  0  0  0  0  0  0  0  0  0  0  0
   40.7690   22.1590   36.5040 N   0  0  0  0  0  0  0  0  0  0  0  0
   38.9450   25.6460   35.1460 N   0  0  0  0  0  0  0  0  0  0  0  0
   39.3000   27.0240   35.4200 C   0  0  0  0  0  0  0  0  0  0  0  0
   37.8730   27.5740   35.5760 C   0  0  0  0  0  0  0  0  0  0  0  0
   37.3950   27.1450   34.2070 C   0  0  0  0  0  0  0  0  0  0  0  0
   37.8180   25.6850   34.2590 C   0  0  1  0  0  0  0  0  0  0  0  0
   38.1340   25.2660   32.8450 C   0  0  2  0  0  0  0  0  0  0  0  0
   38.2110   26.5290   31.9980 C   0  0  0  0  0  0  0  0  0  0  0  0
   38.3150   25.9250   30.6220 C   0  0  0  0  0  0  0  0  0  0  0  0
   37.4290   24.7390   30.6870 C   0  0  0  0  0  0  0  0  0  0  0  0
   37.0040   24.6020   32.1580 C   0  0  1  0  0  0  0  0  0  0  0  0
   36.6640   23.2670   32.4830 N   0  0  0  0  0  0  0  0  0  0  0  0
   37.7610   22.3760   32.7100 C   0  0  0  0  0  0  0  0  0  0  0  0
   37.8000   21.3450   31.5690 C   0  0  0  0  0  0  0  0  0  0  0  0
   36.5930   20.5430   31.6550 N   0  0  0  0  0  0  0  0  0  0  0  0
   35.4000   21.3390   31.8400 C   0  0  0  0  0  0  0  0  0  0  0  0
   35.7390   22.7670   31.4840 C   0  0  0  0  0  0  0  0  0  0  0  0
   38.9121   21.6098   37.3932 H   0  0  0  0  0  0  0  0  0  0  0  0
   37.7679   23.6844   36.6038 H   0  0  0  0  0  0  0  0  0  0  0  0
   42.4986   22.8808   35.5610 H   0  0  0  0  0  0  0  0  0  0  0  0
   39.8917   27.1283   36.3414 H   0  0  0  0  0  0  0  0  0  0  0  0
   39.9342   27.5213   34.6713 H   0  0  0  0  0  0  0  0  0  0  0  0
   37.3168   27.0901   36.3924 H   0  0  0  0  0  0  0  0  0  0  0  0
   37.7682   28.6376   35.8363 H   0  0  0  0  0  0  0  0  0  0  0  0
   37.9037   27.6941   33.4009 H   0  0  0  0  0  0  0  0  0  0  0  0
   36.3298   27.3235   33.9986 H   0  0  0  0  0  0  0  0  0  0  0  0
   37.0549   24.9878   34.6353 H   0  0  0  0  0  0  0  0  0  0  0  0
   39.0269   24.6286   32.9253 H   0  0  0  0  0  0  0  0  0  0  0  0
   37.3065   27.1460   32.1043 H   0  0  0  0  0  0  0  0  0  0  0  0
   39.0311   27.2122   32.2639 H   0  0  0  0  0  0  0  0  0  0  0  0
   39.3511   25.6282   30.4019 H   0  0  0  0  0  0  0  0  0  0  0  0
   38.0262   26.6279   29.8266 H   0  0  0  0  0  0  0  0  0  0  0  0
   36.5465   24.8866   30.0472 H   0  0  0  0  0  0  0  0  0  0  0  0
   37.9437   23.8339   30.3323 H   0  0  0  0  0  0  0  0  0  0  0  0
   36.0625   25.0791   32.4676 H   0  0  0  0  0  0  0  0  0  0  0  0
   38.7025   22.9445   32.7281 H   0  0  0  0  0  0  0  0  0  0  0  0
   37.6355   21.8637   33.6753 H   0  0  0  0  0  0  0  0  0  0  0  0
   38.6855   20.7013   31.6762 H   0  0  0  0  0  0  0  0  0  0  0  0
   37.8561   21.8520   30.5944 H   0  0  0  0  0  0  0  0  0  0  0  0
   36.4952   20.0020   30.7840 H   0  0  0  0  0  0  0  0  0  0  0  0
   34.5982   20.9698   31.1837 H   0  0  0  0  0  0  0  0  0  0  0  0
   35.0523   21.2745   32.8816 H   0  0  0  0  0  0  0  0  0  0  0  0
   36.2073   22.8033   30.4893 H   0  0  0  0  0  0  0  0  0  0  0  0
   34.8282   23.3834   31.4620 H   0  0  0  0  0  0  0  0  0  0  0  0
  2  1  2  0
  3  2  1  0
  4  3  2  0
  4  5  1  0
  5  6  2  0
  6  1  1  0
  7  8  1  0
  7  3  1  0
  8  9  1  0
 10 11  1  0
 10  9  1  0
 11  7  1  0
 12 11  1  0
 13 12  1  0
 14 15  1  0
 14 13  1  0
 15 16  1  0
 16 17  1  0
 16 12  1  0
 17 18  1  0
 19 20  1  0
 19 18  1  0
 20 21  1  0
 22 21  1  0
 22 17  1  0
  1 23  1  0
  2 24  1  0
  5 25  1  0
  8 26  1  0
  8 27  1  0
  9 28  1  0
  9 29  1  0
 10 30  1  0
 10 31  1  0
 11 32  1  1
 12 33  1  1
 13 34  1  0
 13 35  1  0
 14 36  1  0
 14 37  1  0
 15 38  1  0
 15 39  1  0
 16 40  1  6
 18 41  1  0
 18 42  1  0
 19 43  1  0
 19 44  1  0
 20 45  1  0
 21 46  1  0
 21 47  1  0
 22 48  1  0
 22 49  1  0
M  ISO  8  23  14  24  14  25  14  26  13  27  13  28  13  29  13  30  13
M  ISO  8  31  13  32  13  33  13  34  13  35  13  36  13  37  13  38  13
M  ISO  8  39  13  40  13  41  13  42  13  43  13  44  13  45   5  46  13
M  ISO  3  47  13  48  13  49  13
M  END
>  <minimizedAffinity>  (1) 
-5.13604069

>  <minimizedRMSD>  (1) 
1.74996221

$$$$
