
     RDKit          3D

 43 46  0  0  1  0  0  0  0  0999 V2000
   38.8740   22.4890   36.9260 C   0  0  0  0  0  0  0  0  0  0  0  0
   38.2990   23.6780   36.4260 C   0  0  0  0  0  0  0  0  0  0  0  0
   39.1620   24.5420   35.7140 C   0  0  0  0  0  0  0  0  0  0  0  0
   40.4870   24.2070   35.5380 N   0  0  0  0  0  0  0  0  0  0  0  0
   40.9560   23.0360   36.0580 C   0  0  0  0  0  0  0  0  0  0  0  0
   40.1760   22.1940   36.7350 N   0  0  0  0  0  0  0  0  0  0  0  0
   38.7020   25.7550   35.1720 N   0  0  0  0  0  0  0  0  0  0  0  0
   39.1430   27.1210   35.4430 C   0  0  0  0  0  0  0  0  0  0  0  0
   37.7550   27.7750   35.4960 C   0  0  0  0  0  0  0  0  0  0  0  0
   37.2970   27.3460   34.1170 C   0  0  0  0  0  0  0  0  0  0  0  0
   37.6610   25.8690   34.2020 C   0  0  1  0  0  0  0  0  0  0  0  0
   38.0340   25.3980   32.8320 C   0  0  2  0  0  0  0  0  0  0  0  0
   38.3870   26.6000   31.9820 C   0  0  0  0  0  0  0  0  0  0  0  0
   38.4630   25.9720   30.6130 C   0  0  0  0  0  0  0  0  0  0  0  0
   37.3980   24.9630   30.6180 C   0  0  0  0  0  0  0  0  0  0  0  0
   36.9430   24.7720   32.0630 C   0  0  1  0  0  0  0  0  0  0  0  0
   36.7610   23.2930   32.2890 C   0  0  0  0  0  0  0  0  0  0  0  0
   35.6420   22.6110   31.8580 C   0  0  0  0  0  0  0  0  0  0  0  0
   35.6720   21.2480   32.1070 C   0  0  0  0  0  0  0  0  0  0  0  0
   36.7160   20.6520   32.7220 N   0  0  0  0  0  0  0  0  0  0  0  0
   37.7930   21.3760   33.1260 C   0  0  0  0  0  0  0  0  0  0  0  0
   37.8280   22.7200   32.9130 N   0  0  0  0  0  0  0  0  0  0  0  0
   38.2425   21.7841   37.4867 H   0  0  0  0  0  0  0  0  0  0  0  0
   37.2371   23.9188   36.5821 H   0  0  0  0  0  0  0  0  0  0  0  0
   42.0154   22.7779   35.9133 H   0  0  0  0  0  0  0  0  0  0  0  0
   39.6819   27.2050   36.3983 H   0  0  0  0  0  0  0  0  0  0  0  0
   39.8577   27.5529   34.7270 H   0  0  0  0  0  0  0  0  0  0  0  0
   37.1247   27.3607   36.2967 H   0  0  0  0  0  0  0  0  0  0  0  0
   37.7264   28.8533   35.7113 H   0  0  0  0  0  0  0  0  0  0  0  0
   37.8493   27.8628   33.3183 H   0  0  0  0  0  0  0  0  0  0  0  0
   36.2462   27.5640   33.8754 H   0  0  0  0  0  0  0  0  0  0  0  0
   36.8317   25.2247   34.5294 H   0  0  0  0  0  0  0  0  0  0  0  0
   38.8389   24.6697   33.0100 H   0  0  0  0  0  0  0  0  0  0  0  0
   37.6049   27.3720   32.0294 H   0  0  0  0  0  0  0  0  0  0  0  0
   39.3040   27.1218   32.2931 H   0  0  0  0  0  0  0  0  0  0  0  0
   39.4446   25.5018   30.4538 H   0  0  0  0  0  0  0  0  0  0  0  0
   38.3407   26.7085   29.8052 H   0  0  0  0  0  0  0  0  0  0  0  0
   36.5539   25.3068   30.0022 H   0  0  0  0  0  0  0  0  0  0  0  0
   37.7663   24.0135   30.2024 H   0  0  0  0  0  0  0  0  0  0  0  0
   35.9823   25.2240   32.3508 H   0  0  0  0  0  0  0  0  0  0  0  0
   34.7969   23.1074   31.3586 H   0  0  0  0  0  0  0  0  0  0  0  0
   34.8170   20.6312   31.7932 H   0  0  0  0  0  0  0  0  0  0  0  0
   38.6362   20.8760   33.6250 H   0  0  0  0  0  0  0  0  0  0  0  0
  2  1  2  0
  3  2  1  0
  4  3  2  0
  4  5  1  0
  5  6  2  0
  6  1  1  0
  7  8  1  0
  7  3  1  0
  8  9  1  0
 10 11  1  0
 10  9  1  0
 11  7  1  0
 12 11  1  0
 13 12  1  0
 14 15  1  0
 14 13  1  0
 15 16  1  0
 16 17  1  0
 16 12  1  0
 17 22  2  0
 18 19  2  0
 18 17  1  0
 19 20  1  0
 20 21  2  0
 22 21  1  0
  1 23  1  0
  2 24  1  0
  5 25  1  0
  8 26  1  0
  8 27  1  0
  9 28  1  0
  9 29  1  0
 10 30  1  0
 10 31  1  0
 11 32  1  1
 12 33  1  1
 13 34  1  0
 13 35  1  0
 14 36  1  0
 14 37  1  0
 15 38  1  0
 15 39  1  0
 16 40  1  6
 18 41  1  0
 19 42  1  0
 21 43  1  0
M  ISO  8  23  14  24  14  25  14  26  13  27  13  28  13  29  13  30  13
M  ISO  8  31  13  32  13  33  13  34  13  35  13  36  13  37  13  38  13
M  ISO  5  39  13  40  13  41  14  42  14  43  14
M  END
>  <minimizedAffinity>  (1) 
-5.23604298

>  <minimizedRMSD>  (1) 
2.06880379

$$$$
