
     RDKit          3D

 43 46  0  0  1  0  0  0  0  0999 V2000
   39.4280   22.3690   36.8060 C   0  0  0  0  0  0  0  0  0  0  0  0
   38.7550   23.5360   36.4010 C   0  0  0  0  0  0  0  0  0  0  0  0
   39.4760   24.4630   35.6170 C   0  0  0  0  0  0  0  0  0  0  0  0
   40.7810   24.2010   35.2820 N   0  0  0  0  0  0  0  0  0  0  0  0
   41.3750   23.0510   35.7060 C   0  0  0  0  0  0  0  0  0  0  0  0
   40.7130   22.1570   36.4500 N   0  0  0  0  0  0  0  0  0  0  0  0
   38.8860   25.6640   35.1660 N   0  0  0  0  0  0  0  0  0  0  0  0
   39.2850   27.0420   35.4330 C   0  0  0  0  0  0  0  0  0  0  0  0
   37.8910   27.6240   35.6470 C   0  0  0  0  0  0  0  0  0  0  0  0
   37.3230   27.2060   34.3040 C   0  0  0  0  0  0  0  0  0  0  0  0
   37.7350   25.7370   34.3270 C   0  0  1  0  0  0  0  0  0  0  0  0
   37.9690   25.3160   32.9070 C   0  0  2  0  0  0  0  0  0  0  0  0
   38.4550   26.5060   32.1120 C   0  0  0  0  0  0  0  0  0  0  0  0
   38.3600   25.9790   30.7080 C   0  0  0  0  0  0  0  0  0  0  0  0
   37.1440   25.1460   30.7180 C   0  0  0  0  0  0  0  0  0  0  0  0
   36.7580   24.9090   32.1730 C   0  0  1  0  0  0  0  0  0  0  0  0
   36.6140   23.4100   32.2570 C   0  0  0  0  0  0  0  0  0  0  0  0
   35.6940   22.7380   31.4650 C   0  0  0  0  0  0  0  0  0  0  0  0
   35.5680   21.3520   31.5010 C   0  0  0  0  0  0  0  0  0  0  0  0
   36.3660   20.6310   32.3320 N   0  0  0  0  0  0  0  0  0  0  0  0
   37.2640   21.3100   33.1050 C   0  0  0  0  0  0  0  0  0  0  0  0
   37.3760   22.6510   33.0620 N   0  0  0  0  0  0  0  0  0  0  0  0
   38.9022   21.6219   37.4187 H   0  0  0  0  0  0  0  0  0  0  0  0
   37.7079   23.7192   36.6840 H   0  0  0  0  0  0  0  0  0  0  0  0
   42.4215   22.8528   35.4310 H   0  0  0  0  0  0  0  0  0  0  0  0
   39.9154   27.1276   36.3304 H   0  0  0  0  0  0  0  0  0  0  0  0
   39.8991   27.5270   34.6599 H   0  0  0  0  0  0  0  0  0  0  0  0
   37.3636   27.1586   36.4927 H   0  0  0  0  0  0  0  0  0  0  0  0
   37.8319   28.6926   35.9011 H   0  0  0  0  0  0  0  0  0  0  0  0
   37.7871   27.7529   33.4701 H   0  0  0  0  0  0  0  0  0  0  0  0
   36.2493   27.3973   34.1607 H   0  0  0  0  0  0  0  0  0  0  0  0
   36.9794   25.0493   34.7345 H   0  0  0  0  0  0  0  0  0  0  0  0
   38.6690   24.4715   32.9893 H   0  0  0  0  0  0  0  0  0  0  0  0
   37.8050   27.3812   32.2587 H   0  0  0  0  0  0  0  0  0  0  0  0
   39.4581   26.8580   32.3947 H   0  0  0  0  0  0  0  0  0  0  0  0
   39.2447   25.3755   30.4568 H   0  0  0  0  0  0  0  0  0  0  0  0
   38.3153   26.7822   29.9578 H   0  0  0  0  0  0  0  0  0  0  0  0
   36.3288   25.6664   30.1939 H   0  0  0  0  0  0  0  0  0  0  0  0
   37.3276   24.1894   30.2069 H   0  0  0  0  0  0  0  0  0  0  0  0
   35.8589   25.4249   32.5410 H   0  0  0  0  0  0  0  0  0  0  0  0
   35.0462   23.3165   30.7899 H   0  0  0  0  0  0  0  0  0  0  0  0
   34.8293   20.8451   30.8627 H   0  0  0  0  0  0  0  0  0  0  0  0
   37.9170   20.7429   33.7848 H   0  0  0  0  0  0  0  0  0  0  0  0
  2  1  2  0
  3  2  1  0
  4  3  2  0
  4  5  1  0
  5  6  2  0
  6  1  1  0
  7  8  1  0
  7  3  1  0
  8  9  1  0
 10 11  1  0
 10  9  1  0
 11  7  1  0
 12 11  1  0
 13 12  1  0
 14 15  1  0
 14 13  1  0
 15 16  1  0
 16 17  1  0
 16 12  1  0
 17 22  2  0
 18 19  2  0
 18 17  1  0
 19 20  1  0
 20 21  2  0
 22 21  1  0
  1 23  1  0
  2 24  1  0
  5 25  1  0
  8 26  1  0
  8 27  1  0
  9 28  1  0
  9 29  1  0
 10 30  1  0
 10 31  1  0
 11 32  1  1
 12 33  1  1
 13 34  1  0
 13 35  1  0
 14 36  1  0
 14 37  1  0
 15 38  1  0
 15 39  1  0
 16 40  1  1
 18 41  1  0
 19 42  1  0
 21 43  1  0
M  ISO  8  23  14  24  14  25  14  26  13  27  13  28  13  29  13  30  13
M  ISO  8  31  13  32  13  33  13  34  13  35  13  36  13  37  13  38  13
M  ISO  5  39  13  40  13  41  14  42  14  43  14
M  END
>  <minimizedAffinity>  (1) 
-5.36885691

>  <minimizedRMSD>  (1) 
2.22723341

$$$$
