
     RDKit          3D

 41 44  0  0  1  0  0  0  0  0999 V2000
   39.4370   22.3700   36.8150 C   0  0  0  0  0  0  0  0  0  0  0  0
   38.7980   23.5340   36.3930 C   0  0  0  0  0  0  0  0  0  0  0  0
   39.4940   24.4550   35.6070 C   0  0  0  0  0  0  0  0  0  0  0  0
   40.8010   24.1790   35.2730 N   0  0  0  0  0  0  0  0  0  0  0  0
   41.3730   23.0210   35.7180 C   0  0  0  0  0  0  0  0  0  0  0  0
   40.7140   22.1370   36.4680 N   0  0  0  0  0  0  0  0  0  0  0  0
   38.9050   25.6390   35.1550 N   0  0  0  0  0  0  0  0  0  0  0  0
   39.3130   27.0250   35.4090 C   0  0  0  0  0  0  0  0  0  0  0  0
   37.9090   27.6040   35.6410 C   0  0  0  0  0  0  0  0  0  0  0  0
   37.3340   27.1870   34.3020 C   0  0  0  0  0  0  0  0  0  0  0  0
   37.7460   25.7160   34.3290 C   0  0  1  0  0  0  0  0  0  0  0  0
   37.9800   25.2970   32.9040 C   0  0  2  0  0  0  0  0  0  0  0  0
   38.2870   26.5580   32.1030 C   0  0  0  0  0  0  0  0  0  0  0  0
   38.3190   25.9580   30.7040 C   0  0  0  0  0  0  0  0  0  0  0  0
   37.1460   25.0510   30.7240 C   0  0  0  0  0  0  0  0  0  0  0  0
   36.8020   24.7770   32.1770 C   0  0  1  0  0  0  0  0  0  0  0  0
   36.6570   23.2740   32.2590 C   0  0  0  0  0  0  0  0  0  0  0  0
   37.7530   22.4610   32.7660 C   0  0  0  0  0  0  0  0  0  0  0  0
   36.9710   20.7480   32.5450 S   0  0  0  0  0  0  0  0  0  0  0  0
   35.3770   21.4990   31.8370 C   0  0  0  0  0  0  0  0  0  0  0  0
   35.5750   22.6740   31.8470 N   0  0  0  0  0  0  0  0  0  0  0  0
   38.8947   21.6399   37.4338 H   0  0  0  0  0  0  0  0  0  0  0  0
   37.7528   23.7262   36.6769 H   0  0  0  0  0  0  0  0  0  0  0  0
   42.4179   22.8095   35.4471 H   0  0  0  0  0  0  0  0  0  0  0  0
   39.9564   27.1168   36.2965 H   0  0  0  0  0  0  0  0  0  0  0  0
   39.9179   27.5077   34.6272 H   0  0  0  0  0  0  0  0  0  0  0  0
   37.3913   27.1330   36.4897 H   0  0  0  0  0  0  0  0  0  0  0  0
   37.8459   28.6710   35.9007 H   0  0  0  0  0  0  0  0  0  0  0  0
   37.7951   27.7316   33.4649 H   0  0  0  0  0  0  0  0  0  0  0  0
   36.2604   27.3806   34.1612 H   0  0  0  0  0  0  0  0  0  0  0  0
   36.9900   25.0346   34.7463 H   0  0  0  0  0  0  0  0  0  0  0  0
   38.7547   24.5193   32.9753 H   0  0  0  0  0  0  0  0  0  0  0  0
   37.4957   27.3148   32.2080 H   0  0  0  0  0  0  0  0  0  0  0  0
   39.1972   27.0971   32.4047 H   0  0  0  0  0  0  0  0  0  0  0  0
   39.2512   25.4004   30.5306 H   0  0  0  0  0  0  0  0  0  0  0  0
   38.2823   26.7089   29.9010 H   0  0  0  0  0  0  0  0  0  0  0  0
   36.2932   25.5297   30.2205 H   0  0  0  0  0  0  0  0  0  0  0  0
   37.3745   24.1125   30.1976 H   0  0  0  0  0  0  0  0  0  0  0  0
   35.8868   25.2327   32.5829 H   0  0  0  0  0  0  0  0  0  0  0  0
   38.7381   22.7527   33.1590 H   0  0  0  0  0  0  0  0  0  0  0  0
   34.4754   20.9695   31.4952 H   0  0  0  0  0  0  0  0  0  0  0  0
  2  1  2  0
  3  2  1  0
  4  3  2  0
  4  5  1  0
  5  6  2  0
  6  1  1  0
  7  8  1  0
  7  3  1  0
  8  9  1  0
 10 11  1  0
 10  9  1  0
 11  7  1  0
 12 11  1  0
 13 12  1  0
 14 15  1  0
 14 13  1  0
 15 16  1  0
 16 17  1  0
 16 12  1  0
 17 18  2  0
 19 18  1  0
 20 21  2  0
 20 19  1  0
 21 17  1  0
  1 22  1  0
  2 23  1  0
  5 24  1  0
  8 25  1  0
  8 26  1  0
  9 27  1  0
  9 28  1  0
 10 29  1  0
 10 30  1  0
 11 31  1  1
 12 32  1  1
 13 33  1  0
 13 34  1  0
 14 35  1  0
 14 36  1  0
 15 37  1  0
 15 38  1  0
 16 39  1  1
 18 40  1  0
 20 41  1  0
M  ISO  8  22  14  23  14  24  14  25  13  26  13  27  13  28  13  29  13
M  ISO  8  30  13  31  13  32  13  33  13  34  13  35  13  36  13  37  13
M  ISO  4  38  13  39  13  40  14  41  14
M  END
>  <minimizedAffinity>  (1) 
-5.04219675

>  <minimizedRMSD>  (1) 
2.00415659

$$$$
