
     RDKit          3D

 42 45  0  0  1  0  0  0  0  0999 V2000
   38.9810   22.3090   36.4720 C   0  0  0  0  0  0  0  0  0  0  0  0
   38.4040   23.5100   36.0340 C   0  0  0  0  0  0  0  0  0  0  0  0
   39.2890   24.4870   35.5280 C   0  0  0  0  0  0  0  0  0  0  0  0
   40.6480   24.2160   35.4900 N   0  0  0  0  0  0  0  0  0  0  0  0
   41.1230   23.0150   35.9390 C   0  0  0  0  0  0  0  0  0  0  0  0
   40.3020   22.0800   36.4210 N   0  0  0  0  0  0  0  0  0  0  0  0
   38.8260   25.7270   35.0610 N   0  0  0  0  0  0  0  0  0  0  0  0
   39.1750   27.0650   35.5320 C   0  0  0  0  0  0  0  0  0  0  0  0
   37.7600   27.6630   35.4680 C   0  0  0  0  0  0  0  0  0  0  0  0
   37.5470   27.3880   33.9880 C   0  0  0  0  0  0  0  0  0  0  0  0
   37.8820   25.8850   33.9850 C   0  0  1  0  0  0  0  0  0  0  0  0
   38.4250   25.6040   32.6380 C   0  0  2  0  0  0  0  0  0  0  0  0
   38.2990   26.8130   31.7510 C   0  0  0  0  0  0  0  0  0  0  0  0
   38.7710   26.2480   30.4150 C   0  0  0  0  0  0  0  0  0  0  0  0
   38.2030   24.8720   30.4060 C   0  0  0  0  0  0  0  0  0  0  0  0
   37.7940   24.5580   31.8250 C   0  0  2  0  0  0  0  0  0  0  0  0
   36.3360   24.3280   31.9840 C   0  0  0  0  0  0  0  0  0  0  0  0
   35.6690   23.2510   31.1580 C   0  0  0  0  0  0  0  0  0  0  0  0
   35.2980   24.7170   31.0320 C   0  0  0  0  0  0  0  0  0  0  0  0
   38.3241   21.5233   36.8734 H   0  0  0  0  0  0  0  0  0  0  0  0
   37.3186   23.6819   36.0822 H   0  0  0  0  0  0  0  0  0  0  0  0
   42.2041   22.8155   35.9021 H   0  0  0  0  0  0  0  0  0  0  0  0
   39.5829   27.0582   36.5536 H   0  0  0  0  0  0  0  0  0  0  0  0
   39.9587   27.5950   34.9708 H   0  0  0  0  0  0  0  0  0  0  0  0
   37.0423   27.1292   36.1083 H   0  0  0  0  0  0  0  0  0  0  0  0
   37.6344   28.7003   35.8118 H   0  0  0  0  0  0  0  0  0  0  0  0
   36.5104   27.5823   33.6753 H   0  0  0  0  0  0  0  0  0  0  0  0
   38.1349   28.0100   33.2970 H   0  0  0  0  0  0  0  0  0  0  0  0
   37.0496   25.1856   34.1520 H   0  0  0  0  0  0  0  0  0  0  0  0
   39.4413   25.2803   32.9068 H   0  0  0  0  0  0  0  0  0  0  0  0
   37.2586   27.1656   31.6950 H   0  0  0  0  0  0  0  0  0  0  0  0
   38.8666   27.6893   32.0974 H   0  0  0  0  0  0  0  0  0  0  0  0
   38.3795   26.8415   29.5757 H   0  0  0  0  0  0  0  0  0  0  0  0
   39.8652   26.2630   30.3034 H   0  0  0  0  0  0  0  0  0  0  0  0
   37.3276   24.8283   29.7414 H   0  0  0  0  0  0  0  0  0  0  0  0
   38.9406   24.1436   30.0381 H   0  0  0  0  0  0  0  0  0  0  0  0
   38.1528   23.5808   32.1806 H   0  0  0  0  0  0  0  0  0  0  0  0
   36.4742   24.5655   33.0491 H   0  0  0  0  0  0  0  0  0  0  0  0
   36.2215   22.7457   30.3521 H   0  0  0  0  0  0  0  0  0  0  0  0
   35.1317   22.3138   31.3652 H   0  0  0  0  0  0  0  0  0  0  0  0
   35.5698   25.2741   30.1233 H   0  0  0  0  0  0  0  0  0  0  0  0
   34.3584   25.2844   31.1035 H   0  0  0  0  0  0  0  0  0  0  0  0
  2  1  2  0
  3  2  1  0
  4  3  2  0
  4  5  1  0
  5  6  2  0
  6  1  1  0
  7  3  1  0
  7  8  1  0
  9  8  1  0
 10  9  1  0
 11 10  1  0
 11  7  1  0
 12 11  1  0
 13 12  1  0
 14 13  1  0
 15 14  1  0
 15 16  1  0
 16 17  1  0
 16 12  1  0
 18 17  1  0
 19 18  1  0
 19 17  1  0
  1 20  1  0
  2 21  1  0
  5 22  1  0
  8 23  1  0
  8 24  1  0
  9 25  1  0
  9 26  1  0
 10 27  1  0
 10 28  1  0
 11 29  1  1
 12 30  1  1
 13 31  1  0
 13 32  1  0
 14 33  1  0
 14 34  1  0
 15 35  1  0
 15 36  1  0
 16 37  1  1
 17 38  1  0
 18 39  1  0
 18 40  1  0
 19 41  1  0
 19 42  1  0
M  ISO  8  20  14  21  14  22  14  23  13  24  13  25  13  26  13  27  13
M  ISO  8  28  13  29  13  30  13  31  13  32  13  33  13  34  13  35  13
M  ISO  7  36  13  37  13  38  13  39  13  40  13  41  13  42  13
M  END
>  <minimizedAffinity>  (1) 
-4.93316412

>  <minimizedRMSD>  (1) 
1.67745948

$$$$
