
     RDKit          3D

 42 45  0  0  1  0  0  0  0  0999 V2000
   40.1040   22.2750   36.9130 C   0  0  0  0  0  0  0  0  0  0  0  0
   39.2120   23.1190   36.2490 C   0  0  0  0  0  0  0  0  0  0  0  0
   39.7380   24.1180   35.4290 C   0  0  0  0  0  0  0  0  0  0  0  0
   41.1040   24.2230   35.3130 N   0  0  0  0  0  0  0  0  0  0  0  0
   41.9260   23.3750   35.9830 C   0  0  0  0  0  0  0  0  0  0  0  0
   41.4300   22.4020   36.7810 N   0  0  0  0  0  0  0  0  0  0  0  0
   38.9170   25.0120   34.7220 N   0  0  0  0  0  0  0  0  0  0  0  0
   38.8720   26.4780   34.7980 C   0  0  0  0  0  0  0  0  0  0  0  0
   37.3440   26.6270   34.7500 C   0  0  0  0  0  0  0  0  0  0  0  0
   37.1420   25.8890   33.4340 C   0  0  0  0  0  0  0  0  0  0  0  0
   37.9280   24.6170   33.7530 C   0  0  1  0  0  0  0  0  0  0  0  0
   38.4960   24.1480   32.4580 C   0  0  2  0  0  0  0  0  0  0  0  0
   37.6470   24.6240   31.3030 C   0  0  0  0  0  0  0  0  0  0  0  0
   38.2680   23.8740   30.1530 C   0  0  0  0  0  0  0  0  0  0  0  0
   38.6790   22.5740   30.7240 C   0  0  0  0  0  0  0  0  0  0  0  0
   38.4930   22.6770   32.2340 C   0  0  2  0  0  0  0  0  0  0  0  0
   37.2290   22.0040   32.6380 C   0  0  0  0  0  0  0  0  0  0  0  0
   36.0870   21.8910   31.8740 C   0  0  0  0  0  0  0  0  0  0  0  0
   35.1640   21.1980   32.6280 C   0  0  0  0  0  0  0  0  0  0  0  0
   35.7850   20.9160   33.8300 C   0  0  0  0  0  0  0  0  0  0  0  0
   37.0100   21.4220   33.7720 O   0  0  0  0  0  0  0  0  0  0  0  0
   39.7056   21.4825   37.5636 H   0  0  0  0  0  0  0  0  0  0  0  0
   38.1251   22.9999   36.3689 H   0  0  0  0  0  0  0  0  0  0  0  0
   43.0155   23.4813   35.8748 H   0  0  0  0  0  0  0  0  0  0  0  0
   39.3023   26.8633   35.7342 H   0  0  0  0  0  0  0  0  0  0  0  0
   39.4423   27.0262   34.0336 H   0  0  0  0  0  0  0  0  0  0  0  0
   36.8437   26.1307   35.5946 H   0  0  0  0  0  0  0  0  0  0  0  0
   36.9412   27.6486   34.8147 H   0  0  0  0  0  0  0  0  0  0  0  0
   37.5719   26.4374   32.5829 H   0  0  0  0  0  0  0  0  0  0  0  0
   36.0954   25.7363   33.1320 H   0  0  0  0  0  0  0  0  0  0  0  0
   37.3462   23.7859   34.1781 H   0  0  0  0  0  0  0  0  0  0  0  0
   39.5234   24.5378   32.5080 H   0  0  0  0  0  0  0  0  0  0  0  0
   36.5906   24.3495   31.4395 H   0  0  0  0  0  0  0  0  0  0  0  0
   37.6328   25.7163   31.1739 H   0  0  0  0  0  0  0  0  0  0  0  0
   39.1404   24.4182   29.7622 H   0  0  0  0  0  0  0  0  0  0  0  0
   37.5697   23.7543   29.3115 H   0  0  0  0  0  0  0  0  0  0  0  0
   38.0505   21.7670   30.3193 H   0  0  0  0  0  0  0  0  0  0  0  0
   39.7243   22.3443   30.4700 H   0  0  0  0  0  0  0  0  0  0  0  0
   39.2649   22.1783   32.8385 H   0  0  0  0  0  0  0  0  0  0  0  0
   35.9401   22.2801   30.8557 H   0  0  0  0  0  0  0  0  0  0  0  0
   34.1402   20.9248   32.3326 H   0  0  0  0  0  0  0  0  0  0  0  0
   35.3446   20.3721   34.6786 H   0  0  0  0  0  0  0  0  0  0  0  0
  2  1  2  0
  3  2  1  0
  4  3  2  0
  4  5  1  0
  5  6  2  0
  6  1  1  0
  7  8  1  0
  7  3  1  0
  9  8  1  0
 10 11  1  0
 10  9  1  0
 11  7  1  0
 12 11  1  0
 13 12  1  0
 14 15  1  0
 14 13  1  0
 15 16  1  0
 16 12  1  0
 16 17  1  0
 17 21  1  0
 18 19  1  0
 18 17  2  0
 19 20  2  0
 21 20  1  0
  1 22  1  0
  2 23  1  0
  5 24  1  0
  8 25  1  0
  8 26  1  0
  9 27  1  0
  9 28  1  0
 10 29  1  0
 10 30  1  0
 11 31  1  1
 12 32  1  6
 13 33  1  0
 13 34  1  0
 14 35  1  0
 14 36  1  0
 15 37  1  0
 15 38  1  0
 16 39  1  1
 18 40  1  0
 19 41  1  0
 20 42  1  0
M  ISO  8  22  14  23  14  24  14  25  13  26  13  27  13  28  13  29  13
M  ISO  8  30  13  31  13  32  13  33  13  34  13  35  13  36  13  37  13
M  ISO  5  38  13  39  13  40  14  41  14  42  14
M  END
>  <minimizedAffinity>  (1) 
-4.88050032

>  <minimizedRMSD>  (1) 
1.4152807

$$$$
