
     RDKit          3D

 42 45  0  0  1  0  0  0  0  0999 V2000
   39.1850   22.5390   37.1610 C   0  0  0  0  0  0  0  0  0  0  0  0
   38.5540   23.6680   36.6060 C   0  0  0  0  0  0  0  0  0  0  0  0
   39.3360   24.4910   35.7740 C   0  0  0  0  0  0  0  0  0  0  0  0
   40.6450   24.1690   35.5450 N   0  0  0  0  0  0  0  0  0  0  0  0
   41.2030   23.0700   36.1050 C   0  0  0  0  0  0  0  0  0  0  0  0
   40.4700   22.2640   36.9070 N   0  0  0  0  0  0  0  0  0  0  0  0
   38.7980   25.6460   35.1680 N   0  0  0  0  0  0  0  0  0  0  0  0
   39.2270   27.0450   35.3070 C   0  0  0  0  0  0  0  0  0  0  0  0
   37.8390   27.6760   35.3850 C   0  0  0  0  0  0  0  0  0  0  0  0
   37.3250   27.1260   34.0660 C   0  0  0  0  0  0  0  0  0  0  0  0
   37.6900   25.6570   34.2720 C   0  0  1  0  0  0  0  0  0  0  0  0
   37.9930   25.0910   32.9120 C   0  0  2  0  0  0  0  0  0  0  0  0
   38.3370   26.2350   31.9800 C   0  0  0  0  0  0  0  0  0  0  0  0
   38.4110   25.4810   30.6620 C   0  0  0  0  0  0  0  0  0  0  0  0
   37.2330   24.5830   30.7490 C   0  0  0  0  0  0  0  0  0  0  0  0
   36.8300   24.4980   32.2150 C   0  0  1  0  0  0  0  0  0  0  0  0
   36.6540   23.0450   32.4750 C   0  0  0  0  0  0  0  0  0  0  0  0
   35.6670   22.3200   31.8370 C   0  0  0  0  0  0  0  0  0  0  0  0
   35.7870   21.0210   32.2870 C   0  0  0  0  0  0  0  0  0  0  0  0
   36.8260   20.9830   33.1730 N   0  0  0  0  0  0  0  0  0  0  0  0
   37.3430   22.2170   33.2780 N   0  0  0  0  0  0  0  0  0  0  0  0
   38.6102   21.8688   37.8171 H   0  0  0  0  0  0  0  0  0  0  0  0
   37.4981   23.8967   36.8130 H   0  0  0  0  0  0  0  0  0  0  0  0
   42.2583   22.8311   35.9068 H   0  0  0  0  0  0  0  0  0  0  0  0
   39.8148   27.2133   36.2214 H   0  0  0  0  0  0  0  0  0  0  0  0
   39.8926   27.4299   34.5204 H   0  0  0  0  0  0  0  0  0  0  0  0
   37.2590   27.3165   36.2477 H   0  0  0  0  0  0  0  0  0  0  0  0
   37.7960   28.7670   35.5189 H   0  0  0  0  0  0  0  0  0  0  0  0
   37.8468   27.5651   33.2029 H   0  0  0  0  0  0  0  0  0  0  0  0
   36.2663   27.3276   33.8458 H   0  0  0  0  0  0  0  0  0  0  0  0
   36.8954   25.0369   34.7126 H   0  0  0  0  0  0  0  0  0  0  0  0
   38.7746   24.3399   33.0989 H   0  0  0  0  0  0  0  0  0  0  0  0
   37.5503   27.0037   31.9680 H   0  0  0  0  0  0  0  0  0  0  0  0
   39.2448   26.7960   32.2469 H   0  0  0  0  0  0  0  0  0  0  0  0
   39.3457   24.9064   30.5830 H   0  0  0  0  0  0  0  0  0  0  0  0
   38.4036   26.1352   29.7777 H   0  0  0  0  0  0  0  0  0  0  0  0
   36.4033   24.9931   30.1545 H   0  0  0  0  0  0  0  0  0  0  0  0
   37.4765   23.5851   30.3555 H   0  0  0  0  0  0  0  0  0  0  0  0
   35.9094   25.0124   32.5279 H   0  0  0  0  0  0  0  0  0  0  0  0
   34.9314   22.7020   31.1139 H   0  0  0  0  0  0  0  0  0  0  0  0
   35.1590   20.1694   31.9863 H   0  0  0  0  0  0  0  0  0  0  0  0
   37.1571   20.1474   33.6761 H   0  0  0  0  0  0  0  0  0  0  0  0
  2  1  2  0
  3  2  1  0
  4  3  2  0
  4  5  1  0
  5  6  2  0
  6  1  1  0
  7  8  1  0
  7  3  1  0
  8  9  1  0
 10 11  1  0
 10  9  1  0
 11  7  1  0
 12 11  1  0
 13 12  1  0
 14 15  1  0
 14 13  1  0
 15 16  1  0
 16 17  1  0
 16 12  1  0
 17 21  2  0
 18 19  2  0
 18 17  1  0
 19 20  1  0
 20 21  1  0
  1 22  1  0
  2 23  1  0
  5 24  1  0
  8 25  1  0
  8 26  1  0
  9 27  1  0
  9 28  1  0
 10 29  1  0
 10 30  1  0
 11 31  1  1
 12 32  1  1
 13 33  1  0
 13 34  1  0
 14 35  1  0
 14 36  1  0
 15 37  1  0
 15 38  1  0
 16 39  1  6
 18 40  1  0
 19 41  1  0
 20 42  1  0
M  ISO  8  22  14  23  14  24  14  25  13  26  13  27  13  28  13  29  13
M  ISO  8  30  13  31  13  32  13  33  13  34  13  35  13  36  13  37  13
M  ISO  5  38  13  39  13  40  14  41  14  42   9
M  END
>  <minimizedAffinity>  (1) 
-5.128088

>  <minimizedRMSD>  (1) 
1.83873796

$$$$
