
     RDKit          3D

 42 45  0  0  1  0  0  0  0  0999 V2000
   39.4610   22.3740   36.8370 C   0  0  0  0  0  0  0  0  0  0  0  0
   38.7890   23.5360   36.4180 C   0  0  0  0  0  0  0  0  0  0  0  0
   39.5130   24.4550   35.6230 C   0  0  0  0  0  0  0  0  0  0  0  0
   40.8130   24.1840   35.2990 N   0  0  0  0  0  0  0  0  0  0  0  0
   41.4090   23.0390   35.7370 C   0  0  0  0  0  0  0  0  0  0  0  0
   40.7360   22.1490   36.4960 N   0  0  0  0  0  0  0  0  0  0  0  0
   38.9150   25.6470   35.1600 N   0  0  0  0  0  0  0  0  0  0  0  0
   39.3190   27.0270   35.4110 C   0  0  0  0  0  0  0  0  0  0  0  0
   37.9100   27.6030   35.6300 C   0  0  0  0  0  0  0  0  0  0  0  0
   37.3450   27.1760   34.2880 C   0  0  0  0  0  0  0  0  0  0  0  0
   37.7540   25.7030   34.3250 C   0  0  1  0  0  0  0  0  0  0  0  0
   38.0110   25.2830   32.9040 C   0  0  2  0  0  0  0  0  0  0  0  0
   38.3450   26.5250   32.1020 C   0  0  0  0  0  0  0  0  0  0  0  0
   38.3260   25.9450   30.7010 C   0  0  0  0  0  0  0  0  0  0  0  0
   37.1550   25.0420   30.7270 C   0  0  0  0  0  0  0  0  0  0  0  0
   36.8270   24.7650   32.1850 C   0  0  1  0  0  0  0  0  0  0  0  0
   36.6360   23.2910   32.2660 C   0  0  0  0  0  0  0  0  0  0  0  0
   35.6830   22.5440   31.6040 C   0  0  0  0  0  0  0  0  0  0  0  0
   35.9250   21.2810   31.9980 N   0  0  0  0  0  0  0  0  0  0  0  0
   36.9720   21.2610   32.8550 C   0  0  0  0  0  0  0  0  0  0  0  0
   37.4250   22.5140   33.0300 N   0  0  0  0  0  0  0  0  0  0  0  0
   38.9294   21.6364   37.4562 H   0  0  0  0  0  0  0  0  0  0  0  0
   37.7416   23.7229   36.6975 H   0  0  0  0  0  0  0  0  0  0  0  0
   42.4561   22.8371   35.4672 H   0  0  0  0  0  0  0  0  0  0  0  0
   39.9553   27.1228   36.3032 H   0  0  0  0  0  0  0  0  0  0  0  0
   39.9304   27.5083   34.6335 H   0  0  0  0  0  0  0  0  0  0  0  0
   37.3880   27.1351   36.4777 H   0  0  0  0  0  0  0  0  0  0  0  0
   37.8415   28.6713   35.8831 H   0  0  0  0  0  0  0  0  0  0  0  0
   37.8134   27.7148   33.4512 H   0  0  0  0  0  0  0  0  0  0  0  0
   36.2724   27.3693   34.1392 H   0  0  0  0  0  0  0  0  0  0  0  0
   36.9959   25.0189   34.7341 H   0  0  0  0  0  0  0  0  0  0  0  0
   38.7885   24.5083   32.9769 H   0  0  0  0  0  0  0  0  0  0  0  0
   37.5851   27.3101   32.2294 H   0  0  0  0  0  0  0  0  0  0  0  0
   39.2846   27.0216   32.3857 H   0  0  0  0  0  0  0  0  0  0  0  0
   39.2505   25.3867   30.4923 H   0  0  0  0  0  0  0  0  0  0  0  0
   38.2621   26.7131   29.9161 H   0  0  0  0  0  0  0  0  0  0  0  0
   36.2978   25.5236   30.2337 H   0  0  0  0  0  0  0  0  0  0  0  0
   37.3748   24.1054   30.1936 H   0  0  0  0  0  0  0  0  0  0  0  0
   35.9252   25.2298   32.6101 H   0  0  0  0  0  0  0  0  0  0  0  0
   34.9045   22.8997   30.9130 H   0  0  0  0  0  0  0  0  0  0  0  0
   37.3868   20.3612   33.3329 H   0  0  0  0  0  0  0  0  0  0  0  0
   38.2106   22.8159   33.6238 H   0  0  0  0  0  0  0  0  0  0  0  0
  2  1  2  0
  3  2  1  0
  4  3  2  0
  4  5  1  0
  5  6  2  0
  6  1  1  0
  7  8  1  0
  7  3  1  0
  8  9  1  0
 10 11  1  0
 10  9  1  0
 11  7  1  0
 12 11  1  0
 13 12  1  0
 14 15  1  0
 14 13  1  0
 15 16  1  0
 16 17  1  0
 16 12  1  0
 17 21  1  0
 18 19  1  0
 18 17  2  0
 19 20  2  0
 20 21  1  0
  1 22  1  0
  2 23  1  0
  5 24  1  0
  8 25  1  0
  8 26  1  0
  9 27  1  0
  9 28  1  0
 10 29  1  0
 10 30  1  0
 11 31  1  1
 12 32  1  1
 13 33  1  0
 13 34  1  0
 14 35  1  0
 14 36  1  0
 15 37  1  0
 15 38  1  0
 16 39  1  1
 18 40  1  0
 20 41  1  0
 21 42  1  0
M  ISO  8  22  14  23  14  24  14  25  13  26  13  27  13  28  13  29  13
M  ISO  8  30  13  31  13  32  13  33  13  34  13  35  13  36  13  37  13
M  ISO  5  38  13  39  13  40  14  41  14  42   9
M  END
>  <minimizedAffinity>  (1) 
-4.98789597

>  <minimizedRMSD>  (1) 
1.91244936

$$$$
