
     RDKit          3D

 41 44  0  0  1  0  0  0  0  0999 V2000
   38.7700   22.2380   35.9550 C   0  0  0  0  0  0  0  0  0  0  0  0
   38.2680   23.4910   35.5610 C   0  0  0  0  0  0  0  0  0  0  0  0
   39.2010   24.5430   35.4070 C   0  0  0  0  0  0  0  0  0  0  0  0
   40.5260   24.3000   35.6400 N   0  0  0  0  0  0  0  0  0  0  0  0
   40.9540   23.0590   36.0200 C   0  0  0  0  0  0  0  0  0  0  0  0
   40.0890   22.0520   36.1730 N   0  0  0  0  0  0  0  0  0  0  0  0
   38.7930   25.8270   35.0170 N   0  0  0  0  0  0  0  0  0  0  0  0
   38.9580   27.1020   35.7180 C   0  0  0  0  0  0  0  0  0  0  0  0
   37.5660   27.6790   35.4180 C   0  0  0  0  0  0  0  0  0  0  0  0
   37.6850   27.5960   33.9060 C   0  0  0  0  0  0  0  0  0  0  0  0
   38.1000   26.1250   33.7850 C   0  0  1  0  0  0  0  0  0  0  0  0
   38.9500   26.0440   32.5660 C   0  0  2  0  0  0  0  0  0  0  0  0
   38.9220   27.3590   31.8310 C   0  0  0  0  0  0  0  0  0  0  0  0
   39.7090   26.9930   30.5720 C   0  0  0  0  0  0  0  0  0  0  0  0
   39.1900   25.6410   30.2560 C   0  0  0  0  0  0  0  0  0  0  0  0
   38.5310   25.1050   31.5040 C   0  0  2  0  0  0  0  0  0  0  0  0
   37.1350   24.8810   31.3670 N   0  0  0  0  0  0  0  0  0  0  0  0
   36.4820   23.7360   31.6830 C   0  0  0  0  0  0  0  0  0  0  0  0
   35.1650   23.8420   31.4380 N   0  0  0  0  0  0  0  0  0  0  0  0
   34.9810   25.0830   30.9570 C   0  0  0  0  0  0  0  0  0  0  0  0
   36.1840   25.6870   30.9250 N   0  0  0  0  0  0  0  0  0  0  0  0
   38.0759   21.3950   36.0878 H   0  0  0  0  0  0  0  0  0  0  0  0
   37.1942   23.6467   35.3800 H   0  0  0  0  0  0  0  0  0  0  0  0
   42.0250   22.8867   36.2024 H   0  0  0  0  0  0  0  0  0  0  0  0
   39.1319   26.9676   36.7958 H   0  0  0  0  0  0  0  0  0  0  0  0
   39.8167   27.7180   35.4128 H   0  0  0  0  0  0  0  0  0  0  0  0
   36.7521   27.0548   35.8155 H   0  0  0  0  0  0  0  0  0  0  0  0
   37.3252   28.6615   35.8501 H   0  0  0  0  0  0  0  0  0  0  0  0
   36.7272   27.7981   33.4041 H   0  0  0  0  0  0  0  0  0  0  0  0
   38.3685   28.3225   33.4423 H   0  0  0  0  0  0  0  0  0  0  0  0
   37.2853   25.3953   33.6673 H   0  0  0  0  0  0  0  0  0  0  0  0
   39.9117   25.7225   32.9924 H   0  0  0  0  0  0  0  0  0  0  0  0
   37.8939   27.6682   31.5914 H   0  0  0  0  0  0  0  0  0  0  0  0
   39.3323   28.2085   32.3967 H   0  0  0  0  0  0  0  0  0  0  0  0
   39.5034   27.6996   29.7544 H   0  0  0  0  0  0  0  0  0  0  0  0
   40.7998   27.0245   30.7101 H   0  0  0  0  0  0  0  0  0  0  0  0
   38.4551   25.7021   29.4398 H   0  0  0  0  0  0  0  0  0  0  0  0
   40.0065   24.9781   29.9337 H   0  0  0  0  0  0  0  0  0  0  0  0
   38.8534   24.0837   31.7551 H   0  0  0  0  0  0  0  0  0  0  0  0
   36.9676   22.8359   32.0879 H   0  0  0  0  0  0  0  0  0  0  0  0
   34.0228   25.5248   30.6462 H   0  0  0  0  0  0  0  0  0  0  0  0
  1  6  2  0
  2  1  1  0
  3  2  2  0
  3  4  1  0
  4  5  2  0
  5  6  1  0
  7  3  1  0
  7  8  1  0
  9  8  1  0
 10  9  1  0
 11 10  1  0
 11  7  1  0
 12 11  1  0
 13 12  1  0
 14 13  1  0
 15 14  1  0
 15 16  1  0
 16 12  1  0
 17 16  1  0
 17 18  1  0
 19 18  2  0
 20 19  1  0
 21 20  2  0
 21 17  1  0
  1 22  1  0
  2 23  1  0
  5 24  1  0
  8 25  1  0
  8 26  1  0
  9 27  1  0
  9 28  1  0
 10 29  1  0
 10 30  1  0
 11 31  1  6
 12 32  1  1
 13 33  1  0
 13 34  1  0
 14 35  1  0
 14 36  1  0
 15 37  1  0
 15 38  1  0
 16 39  1  1
 18 40  1  0
 20 41  1  0
M  ISO  8  22  14  23  14  24  14  25  13  26  13  27  13  28  13  29  13
M  ISO  8  30  13  31  13  32  13  33  13  34  13  35  13  36  13  37  13
M  ISO  4  38  13  39  13  40  14  41  14
M  END
>  <minimizedAffinity>  (1) 
-5.03314686

>  <minimizedRMSD>  (1) 
2.63600707

$$$$
