
     RDKit          3D

 38 40  0  0  1  0  0  0  0  0999 V2000
   38.8820   22.2630   36.2040 C   0  0  0  0  0  0  0  0  0  0  0  0
   38.3610   23.4900   35.7850 C   0  0  0  0  0  0  0  0  0  0  0  0
   39.2510   24.5010   35.4210 C   0  0  0  0  0  0  0  0  0  0  0  0
   40.5980   24.2540   35.4860 N   0  0  0  0  0  0  0  0  0  0  0  0
   41.0550   23.0390   35.9010 C   0  0  0  0  0  0  0  0  0  0  0  0
   40.2050   22.0580   36.2550 N   0  0  0  0  0  0  0  0  0  0  0  0
   38.8000   25.7590   34.9910 N   0  0  0  0  0  0  0  0  0  0  0  0
   39.0400   27.0780   35.5650 C   0  0  0  0  0  0  0  0  0  0  0  0
   37.6210   27.6420   35.4030 C   0  0  0  0  0  0  0  0  0  0  0  0
   37.5480   27.4440   33.8920 C   0  0  0  0  0  0  0  0  0  0  0  0
   37.9680   25.9820   33.8330 C   0  0  1  0  0  0  0  0  0  0  0  0
   38.6720   25.8060   32.5320 C   0  0  2  0  0  0  0  0  0  0  0  0
   38.1680   26.8580   31.5610 C   0  0  0  0  0  0  0  0  0  0  0  0
   38.8440   26.3980   30.2920 C   0  0  0  0  0  0  0  0  0  0  0  0
   38.6180   24.9180   30.3380 C   0  0  0  0  0  0  0  0  0  0  0  0
   38.3240   24.5750   31.7670 C   0  0  2  0  0  0  0  0  0  0  0  0
   36.9930   24.0360   32.0270 C   0  0  0  0  0  0  0  0  0  0  0  0
   36.7820   22.9820   32.6800 O   0  0  0  0  0  0  0  0  0  0  0  0
   35.8250   24.6290   31.5830 O   0  0  0  0  0  0  0  0  0  0  0  0
   38.1963   21.4540   36.4961 H   0  0  0  0  0  0  0  0  0  0  0  0
   37.2743   23.6550   35.7431 H   0  0  0  0  0  0  0  0  0  0  0  0
   42.1388   22.8570   35.9474 H   0  0  0  0  0  0  0  0  0  0  0  0
   39.3491   27.0238   36.6193 H   0  0  0  0  0  0  0  0  0  0  0  0
   39.8486   27.6651   35.1051 H   0  0  0  0  0  0  0  0  0  0  0  0
   36.8652   27.0558   35.9463 H   0  0  0  0  0  0  0  0  0  0  0  0
   37.4348   28.6556   35.7878 H   0  0  0  0  0  0  0  0  0  0  0  0
   36.5308   27.5986   33.5028 H   0  0  0  0  0  0  0  0  0  0  0  0
   38.1528   28.1385   33.2904 H   0  0  0  0  0  0  0  0  0  0  0  0
   37.1465   25.2513   33.8672 H   0  0  0  0  0  0  0  0  0  0  0  0
   39.7340   25.8209   32.8181 H   0  0  0  0  0  0  0  0  0  0  0  0
   37.0720   26.8360   31.4695 H   0  0  0  0  0  0  0  0  0  0  0  0
   38.3887   27.8960   31.8506 H   0  0  0  0  0  0  0  0  0  0  0  0
   39.9173   26.6389   30.3009 H   0  0  0  0  0  0  0  0  0  0  0  0
   38.4541   26.8783   29.3824 H   0  0  0  0  0  0  0  0  0  0  0  0
   37.7659   24.6439   29.6987 H   0  0  0  0  0  0  0  0  0  0  0  0
   39.4986   24.3702   29.9712 H   0  0  0  0  0  0  0  0  0  0  0  0
   38.9283   23.7165   32.0953 H   0  0  0  0  0  0  0  0  0  0  0  0
   34.9498   24.2156   31.7911 H   0  0  0  0  0  0  0  0  0  0  0  0
  1  6  2  0
  2  1  1  0
  3  4  1  0
  3  2  2  0
  4  5  2  0
  5  6  1  0
  7  3  1  0
  7  8  1  0
  9  8  1  0
 10  9  1  0
 11 10  1  0
 11  7  1  0
 12 11  1  0
 13 12  1  0
 14 15  1  0
 14 13  1  0
 15 16  1  0
 16 17  1  0
 16 12  1  0
 17 18  2  0
 19 17  1  0
  1 20  1  0
  2 21  1  0
  5 22  1  0
  8 23  1  0
  8 24  1  0
  9 25  1  0
  9 26  1  0
 10 27  1  0
 10 28  1  0
 11 29  1  6
 12 30  1  1
 13 31  1  0
 13 32  1  0
 14 33  1  0
 14 34  1  0
 15 35  1  0
 15 36  1  0
 16 37  1  1
 19 38  1  0
M  ISO  8  20  14  21  14  22  14  23  13  24  13  25  13  26  13  27  13
M  ISO  8  28  13  29  13  30  13  31  13  32  13  33  13  34  13  35  13
M  ISO  3  36  13  37  13  38   3
M  END
>  <minimizedAffinity>  (1) 
-4.44626951

>  <minimizedRMSD>  (1) 
1.680794

$$$$
