
     RDKit          3D

 30 32  0  0  0  0  0  0  0  0999 V2000
   43.0100   21.8850   33.3050 C   0  0  0  0  0  0  0  0  0  0  0  0
   42.6860   23.1580   33.7710 C   0  0  0  0  0  0  0  0  0  0  0  0
   41.4000   23.6280   33.4960 C   0  0  0  0  0  0  0  0  0  0  0  0
   40.5470   22.8120   32.7930 N   0  0  0  0  0  0  0  0  0  0  0  0
   40.9220   21.5870   32.3690 C   0  0  0  0  0  0  0  0  0  0  0  0
   42.1670   21.1290   32.6320 N   0  0  0  0  0  0  0  0  0  0  0  0
   40.0140   20.7600   31.6390 N   0  0  0  0  0  0  0  0  0  0  0  0
   38.6770   20.6280   32.0660 C   0  0  0  0  0  0  0  0  0  0  0  0
   38.3300   21.1290   33.2210 N   0  0  0  0  0  0  0  0  0  0  0  0
   37.6980   19.9530   31.2500 N   0  0  0  0  0  0  0  0  0  0  0  0
   37.3400   21.0050   33.5440 H   0  0  0  0  0  0  0  0  0  0  0  0
   40.9690   24.8960   33.9200 N   0  0  0  0  0  0  0  0  0  0  0  0
   41.4890   26.0620   33.4970 C   0  0  0  0  0  0  0  0  0  0  0  0
   40.8450   27.0910   34.1010 N   0  0  0  0  0  0  0  0  0  0  0  0
   39.9130   26.5230   34.9080 C   0  0  0  0  0  0  0  0  0  0  0  0
   39.0210   27.1890   35.7210 C   0  0  0  0  0  0  0  0  0  0  0  0
   38.1720   26.3920   36.4480 N   0  0  0  0  0  0  0  0  0  0  0  0
   38.2620   25.0410   36.3240 C   0  0  0  0  0  0  0  0  0  0  0  0
   39.1400   24.3900   35.5240 N   0  0  0  0  0  0  0  0  0  0  0  0
   39.9990   25.1450   34.7880 C   0  0  0  0  0  0  0  0  0  0  0  0
   37.4010   24.1790   37.0600 N   0  0  0  0  0  0  0  0  0  0  0  0
   44.0174   21.4931   33.5089 H   0  0  0  0  0  0  0  0  0  0  0  0
   43.4117   23.7660   34.3310 H   0  0  0  0  0  0  0  0  0  0  0  0
   40.3370   20.2592   30.7989 H   0  0  0  0  0  0  0  0  0  0  0  0
   36.7256   19.8661   31.5783 H   0  0  0  0  0  0  0  0  0  0  0  0
   37.9712   19.5578   30.3389 H   0  0  0  0  0  0  0  0  0  0  0  0
   42.3103   26.1650   32.7726 H   0  0  0  0  0  0  0  0  0  0  0  0
   38.9914   28.2868   35.7831 H   0  0  0  0  0  0  0  0  0  0  0  0
   37.4821   23.1576   36.9546 H   0  0  0  0  0  0  0  0  0  0  0  0
   36.6968   24.5766   37.6979 H   0  0  0  0  0  0  0  0  0  0  0  0
  1  2  2  0
  3  2  1  0
  3 12  1  0
  4  3  2  0
  5  6  2  0
  5  4  1  0
  6  1  1  0
  7  8  1  0
  7  5  1  0
  8  9  2  0
  9 11  1  0
 10  8  1  0
 12 20  1  0
 13 12  1  0
 13 14  2  0
 14 15  1  0
 15 16  2  0
 16 17  1  0
 18 17  2  0
 18 21  1  0
 19 18  1  0
 20 15  1  0
 20 19  2  0
  1 22  1  0
  2 23  1  0
  7 24  1  0
 10 25  1  0
 10 26  1  0
 13 27  1  0
 16 28  1  0
 21 29  1  0
 21 30  1  0
M  ISO  4  22  14  23  14  27  14  28  14
M  END
>  <minimizedAffinity>  (1) 
-3.79381585

>  <minimizedRMSD>  (1) 
0.874892294

$$$$
