
     RDKit          3D

 36 38  0  0  1  0  0  0  0  0999 V2000
   40.1650   22.4120   37.0380 C   0  0  0  0  0  0  0  0  0  0  0  0
   39.3000   23.3680   36.4840 C   0  0  0  0  0  0  0  0  0  0  0  0
   39.8440   24.3250   35.6300 C   0  0  0  0  0  0  0  0  0  0  0  0
   41.2030   24.2890   35.3700 N   0  0  0  0  0  0  0  0  0  0  0  0
   41.9840   23.3380   35.9390 C   0  0  0  0  0  0  0  0  0  0  0  0
   41.4700   22.4030   36.7690 N   0  0  0  0  0  0  0  0  0  0  0  0
   39.0640   25.3250   35.0220 N   0  0  0  0  0  0  0  0  0  0  0  0
   39.1660   26.7780   35.1340 C   0  0  0  0  0  0  0  0  0  0  0  0
   37.6640   27.0870   35.2300 C   0  0  0  0  0  0  0  0  0  0  0  0
   37.2350   26.3810   33.9440 C   0  0  0  0  0  0  0  0  0  0  0  0
   37.9680   25.0590   34.1310 C   0  0  1  0  0  0  0  0  0  0  0  0
   38.3550   24.5810   32.7790 C   0  0  2  0  0  0  0  0  0  0  0  0
   37.2170   24.7520   31.8160 C   0  0  0  0  0  0  0  0  0  0  0  0
   37.7500   23.9950   30.6110 C   0  0  0  0  0  0  0  0  0  0  0  0
   38.4620   22.8380   31.2000 C   0  0  0  0  0  0  0  0  0  0  0  0
   38.5860   23.1090   32.6880 C   0  0  2  0  0  0  0  0  0  0  0  0
   37.2810   22.1380   33.4910 S   0  0  0  0  0  0  0  0  0  0  0  0
   39.7538   21.6478   37.7140 H   0  0  0  0  0  0  0  0  0  0  0  0
   38.2250   23.3620   36.7169 H   0  0  0  0  0  0  0  0  0  0  0  0
   43.0619   23.3270   35.7200 H   0  0  0  0  0  0  0  0  0  0  0  0
   39.7146   27.0896   36.0351 H   0  0  0  0  0  0  0  0  0  0  0  0
   39.7148   27.2884   34.3288 H   0  0  0  0  0  0  0  0  0  0  0  0
   37.2016   26.6452   36.1250 H   0  0  0  0  0  0  0  0  0  0  0  0
   37.3884   28.1481   35.3199 H   0  0  0  0  0  0  0  0  0  0  0  0
   37.5774   26.9174   33.0468 H   0  0  0  0  0  0  0  0  0  0  0  0
   36.1485   26.2984   33.7937 H   0  0  0  0  0  0  0  0  0  0  0  0
   37.3716   24.2542   34.5857 H   0  0  0  0  0  0  0  0  0  0  0  0
   39.2644   25.1601   32.5606 H   0  0  0  0  0  0  0  0  0  0  0  0
   36.2900   24.3012   32.2001 H   0  0  0  0  0  0  0  0  0  0  0  0
   36.9442   25.7982   31.6133 H   0  0  0  0  0  0  0  0  0  0  0  0
   38.4399   24.6233   30.0286 H   0  0  0  0  0  0  0  0  0  0  0  0
   36.9534   23.6921   29.9155 H   0  0  0  0  0  0  0  0  0  0  0  0
   37.8891   21.9145   31.0300 H   0  0  0  0  0  0  0  0  0  0  0  0
   39.4523   22.7084   30.7391 H   0  0  0  0  0  0  0  0  0  0  0  0
   39.5398   22.8374   33.1639 H   0  0  0  0  0  0  0  0  0  0  0  0
   37.4112   22.2349   34.8514 H   0  0  0  0  0  0  0  0  0  0  0  0
  2  1  2  0
  3  2  1  0
  4  3  2  0
  4  5  1  0
  5  6  2  0
  6  1  1  0
  7  8  1  0
  7  3  1  0
  8  9  1  0
 10 11  1  0
 10  9  1  0
 11  7  1  0
 12 11  1  0
 13 12  1  0
 14 15  1  0
 14 13  1  0
 15 16  1  0
 16 12  1  0
 16 17  1  0
  1 18  1  0
  2 19  1  0
  5 20  1  0
  8 21  1  0
  8 22  1  0
  9 23  1  0
  9 24  1  0
 10 25  1  0
 10 26  1  0
 11 27  1  1
 12 28  1  6
 13 29  1  0
 13 30  1  0
 14 31  1  0
 14 32  1  0
 15 33  1  0
 15 34  1  0
 16 35  1  1
 17 36  1  0
M  ISO  8  18  14  19  14  20  14  21  13  22  13  23  13  24  13  25  13
M  ISO  8  26  13  27  13  28  13  29  13  30  13  31  13  32  13  33  13
M  ISO  3  34  13  35  13  36  11
M  END
>  <minimizedAffinity>  (1) 
-4.07571459

>  <minimizedRMSD>  (1) 
0.795210779

$$$$
