
     RDKit          3D

 41 43  0  0  1  0  0  0  0  0999 V2000
   40.2350   22.3880   37.1790 C   0  0  0  0  0  0  0  0  0  0  0  0
   39.3810   23.3800   36.6770 C   0  0  0  0  0  0  0  0  0  0  0  0
   39.9100   24.2960   35.7410 C   0  0  0  0  0  0  0  0  0  0  0  0
   41.2260   24.1720   35.3700 N   0  0  0  0  0  0  0  0  0  0  0  0
   42.0080   23.1850   35.8960 C   0  0  0  0  0  0  0  0  0  0  0  0
   41.5210   22.3090   36.7840 N   0  0  0  0  0  0  0  0  0  0  0  0
   39.1210   25.3130   35.1940 N   0  0  0  0  0  0  0  0  0  0  0  0
   39.3010   26.7560   35.2600 C   0  0  0  0  0  0  0  0  0  0  0  0
   37.8480   27.1520   35.4910 C   0  0  0  0  0  0  0  0  0  0  0  0
   37.2990   26.4880   34.2370 C   0  0  0  0  0  0  0  0  0  0  0  0
   37.9310   25.1010   34.4310 C   0  0  1  0  0  0  0  0  0  0  0  0
   38.1560   24.5550   33.0590 C   0  0  2  0  0  0  0  0  0  0  0  0
   36.9570   24.8580   32.1910 C   0  0  0  0  0  0  0  0  0  0  0  0
   37.3470   24.1100   30.9160 C   0  0  0  0  0  0  0  0  0  0  0  0
   37.9090   22.8360   31.4590 C   0  0  0  0  0  0  0  0  0  0  0  0
   38.2130   23.0860   32.9270 C   0  0  2  0  0  0  0  0  0  0  0  0
   37.2900   22.3060   33.8230 C   0  0  0  0  0  0  0  0  0  0  0  0
   36.8360   21.0760   33.0490 C   0  0  0  0  0  0  0  0  0  0  0  0
   39.8484   21.6610   37.9084 H   0  0  0  0  0  0  0  0  0  0  0  0
   38.3319   23.4430   37.0018 H   0  0  0  0  0  0  0  0  0  0  0  0
   43.0600   23.1074   35.5841 H   0  0  0  0  0  0  0  0  0  0  0  0
   39.9505   27.0553   36.0959 H   0  0  0  0  0  0  0  0  0  0  0  0
   39.7903   27.2176   34.3896 H   0  0  0  0  0  0  0  0  0  0  0  0
   37.4328   26.7233   36.4150 H   0  0  0  0  0  0  0  0  0  0  0  0
   37.6357   28.2230   35.6249 H   0  0  0  0  0  0  0  0  0  0  0  0
   37.6498   26.9802   33.3179 H   0  0  0  0  0  0  0  0  0  0  0  0
   36.2052   26.5068   34.1217 H   0  0  0  0  0  0  0  0  0  0  0  0
   37.3195   24.3679   34.9775 H   0  0  0  0  0  0  0  0  0  0  0  0
   39.1194   25.0116   32.7881 H   0  0  0  0  0  0  0  0  0  0  0  0
   36.0282   24.4619   32.6273 H   0  0  0  0  0  0  0  0  0  0  0  0
   36.7486   25.9290   32.0511 H   0  0  0  0  0  0  0  0  0  0  0  0
   38.1023   24.6667   30.3418 H   0  0  0  0  0  0  0  0  0  0  0  0
   36.5109   23.9620   30.2167 H   0  0  0  0  0  0  0  0  0  0  0  0
   37.1748   22.0233   31.3566 H   0  0  0  0  0  0  0  0  0  0  0  0
   38.8152   22.5372   30.9117 H   0  0  0  0  0  0  0  0  0  0  0  0
   39.1997   22.7244   33.2522 H   0  0  0  0  0  0  0  0  0  0  0  0
   37.8218   22.0005   34.7361 H   0  0  0  0  0  0  0  0  0  0  0  0
   36.4262   22.9193   34.1191 H   0  0  0  0  0  0  0  0  0  0  0  0
   36.5441   20.2852   33.7557 H   0  0  0  0  0  0  0  0  0  0  0  0
   35.9754   21.3381   32.4161 H   0  0  0  0  0  0  0  0  0  0  0  0
   37.6605   20.7161   32.4161 H   0  0  0  0  0  0  0  0  0  0  0  0
  2  1  2  0
  3  2  1  0
  4  3  2  0
  4  5  1  0
  5  6  2  0
  6  1  1  0
  7  8  1  0
  7  3  1  0
  8  9  1  0
 10 11  1  0
 10  9  1  0
 11  7  1  0
 12 11  1  0
 13 12  1  0
 14 15  1  0
 14 13  1  0
 15 16  1  0
 16 12  1  0
 16 17  1  0
 18 17  1  0
  1 19  1  0
  2 20  1  0
  5 21  1  0
  8 22  1  0
  8 23  1  0
  9 24  1  0
  9 25  1  0
 10 26  1  0
 10 27  1  0
 11 28  1  1
 12 29  1  6
 13 30  1  0
 13 31  1  0
 14 32  1  0
 14 33  1  0
 15 34  1  0
 15 35  1  0
 16 36  1  6
 17 37  1  0
 17 38  1  0
 18 39  1  0
 18 40  1  0
 18 41  1  0
M  ISO  8  19  14  20  14  21  14  22  13  23  13  24  13  25  13  26  13
M  ISO  8  27  13  28  13  29  13  30  13  31  13  32  13  33  13  34  13
M  ISO  7  35  13  36  13  37   8  38   8  39   8  40   8  41   8
M  END
>  <minimizedAffinity>  (1) 
-4.24078608

>  <minimizedRMSD>  (1) 
0.796308219

$$$$
