
     RDKit          3D

 25 26  0  0  0  0  0  0  0  0999 V2000
   39.7260   23.0260   36.9440 C   0  0  0  0  0  0  0  0  0  0  0  0
   39.0810   23.0630   38.1970 C   0  0  0  0  0  0  0  0  0  0  0  0
   38.1310   24.0640   38.4050 C   0  0  0  0  0  0  0  0  0  0  0  0
   37.8800   24.9490   37.3880 N   0  0  0  0  0  0  0  0  0  0  0  0
   38.5260   24.8710   36.2030 C   0  0  0  0  0  0  0  0  0  0  0  0
   39.4420   23.9170   35.9820 N   0  0  0  0  0  0  0  0  0  0  0  0
   38.2190   25.8230   35.1820 N   0  0  0  0  0  0  0  0  0  0  0  0
   38.0390   25.2830   33.8510 C   0  0  0  0  0  0  0  0  0  0  0  0
   37.0700   26.0740   33.0210 C   0  0  0  0  0  0  0  0  0  0  0  0
   37.1490   27.5610   33.2600 C   0  0  0  0  0  0  0  0  0  0  0  0
   36.9700   27.8290   34.7340 C   0  0  0  0  0  0  0  0  0  0  0  0
   38.1090   27.2260   35.5200 C   0  0  0  0  0  0  0  0  0  0  0  0
   40.4797   22.2485   36.7505 H   0  0  0  0  0  0  0  0  0  0  0  0
   39.3178   22.3297   38.9820 H   0  0  0  0  0  0  0  0  0  0  0  0
   37.5958   24.1413   39.3629 H   0  0  0  0  0  0  0  0  0  0  0  0
   39.0135   25.2770   33.3408 H   0  0  0  0  0  0  0  0  0  0  0  0
   37.6257   24.2696   33.9612 H   0  0  0  0  0  0  0  0  0  0  0  0
   36.0506   25.7365   33.2594 H   0  0  0  0  0  0  0  0  0  0  0  0
   37.3301   25.9010   31.9663 H   0  0  0  0  0  0  0  0  0  0  0  0
   38.1300   27.9360   32.9329 H   0  0  0  0  0  0  0  0  0  0  0  0
   36.3599   28.0727   32.6895 H   0  0  0  0  0  0  0  0  0  0  0  0
   36.9468   28.9154   34.9048 H   0  0  0  0  0  0  0  0  0  0  0  0
   36.0257   27.3740   35.0676 H   0  0  0  0  0  0  0  0  0  0  0  0
   37.9118   27.3323   36.5969 H   0  0  0  0  0  0  0  0  0  0  0  0
   39.0477   27.7440   35.2740 H   0  0  0  0  0  0  0  0  0  0  0  0
  1  2  2  0
  2  3  1  0
  4  3  2  0
  5  4  1  0
  6  5  2  0
  6  1  1  0
  7 12  1  0
  7  5  1  0
  8  7  1  0
  9 10  1  0
  9  8  1  0
 10 11  1  0
 11 12  1  0
  1 13  1  0
  2 14  1  0
  3 15  1  0
  8 16  1  0
  8 17  1  0
  9 18  1  0
  9 19  1  0
 10 20  1  0
 10 21  1  0
 11 22  1  0
 11 23  1  0
 12 24  1  0
 12 25  1  0
M  ISO  8  13  14  14  14  15  14  16  13  17  13  18  13  19  13  20  13
M  ISO  5  21  13  22  13  23  13  24  13  25  13
M  END
>  <minimizedAffinity>  (1) 
-4.0887475

>  <minimizedRMSD>  (1) 
4.3525176

$$$$
