
     RDKit          3D

 36 38  0  0  1  0  0  0  0  0999 V2000
   38.8940   21.5030   32.1650 C   0  0  0  0  0  0  0  0  0  0  0  0
   37.7970   21.2240   33.0160 C   0  0  0  0  0  0  0  0  0  0  0  0
   37.4580   22.1800   33.9690 C   0  0  0  0  0  0  0  0  0  0  0  0
   38.2000   23.3200   34.0210 N   0  0  0  0  0  0  0  0  0  0  0  0
   39.2330   23.5460   33.1960 C   0  0  0  0  0  0  0  0  0  0  0  0
   39.5810   22.6480   32.2730 N   0  0  0  0  0  0  0  0  0  0  0  0
   39.9590   24.7740   33.3230 N   0  0  0  0  0  0  0  0  0  0  0  0
   40.2350   25.4630   32.0750 C   0  0  0  0  0  0  0  0  0  0  0  0
   40.3870   26.9400   32.2290 C   0  0  0  0  0  0  0  0  0  0  0  0
   41.0400   27.3450   33.5270 C   0  0  0  0  0  0  0  0  0  0  0  0
   40.1980   26.7640   34.6510 C   0  0  0  0  0  0  0  0  0  0  0  0
   40.3670   25.2550   34.6180 C   0  0  1  0  0  0  0  0  0  0  0  0
   39.6440   24.5980   35.6570 N   0  0  0  0  0  0  0  0  0  0  0  0
   38.4480   25.0440   36.1000 C   0  0  0  0  0  0  0  0  0  0  0  0
   37.7440   24.4140   37.1050 C   0  0  0  0  0  0  0  0  0  0  0  0
   38.2620   23.2760   37.6980 C   0  0  0  0  0  0  0  0  0  0  0  0
   37.5550   22.6220   38.7250 N   0  0  0  0  0  0  0  0  0  0  0  0
   39.4380   22.8530   37.2490 N   0  0  0  0  0  0  0  0  0  0  0  0
   40.1200   23.4740   36.2670 C   0  0  0  0  0  0  0  0  0  0  0  0
   41.2490   23.0480   35.8510 O   0  0  0  0  0  0  0  0  0  0  0  0
   39.1871   20.7668   31.4021 H   0  0  0  0  0  0  0  0  0  0  0  0
   37.2323   20.2842   32.9269 H   0  0  0  0  0  0  0  0  0  0  0  0
   36.6164   22.0193   34.6589 H   0  0  0  0  0  0  0  0  0  0  0  0
   39.4048   25.2694   31.3799 H   0  0  0  0  0  0  0  0  0  0  0  0
   41.1941   25.0774   31.6988 H   0  0  0  0  0  0  0  0  0  0  0  0
   41.0019   27.3154   31.3978 H   0  0  0  0  0  0  0  0  0  0  0  0
   39.3752   27.3716   32.2271 H   0  0  0  0  0  0  0  0  0  0  0  0
   42.0631   26.9440   33.5759 H   0  0  0  0  0  0  0  0  0  0  0  0
   41.1013   28.4402   33.6095 H   0  0  0  0  0  0  0  0  0  0  0  0
   40.5405   27.1588   35.6189 H   0  0  0  0  0  0  0  0  0  0  0  0
   39.1403   27.0373   34.5225 H   0  0  0  0  0  0  0  0  0  0  0  0
   41.4275   25.0210   34.7930 H   0  0  0  0  0  0  0  0  0  0  0  0
   38.0182   25.9463   35.6405 H   0  0  0  0  0  0  0  0  0  0  0  0
   36.7739   24.8149   37.4341 H   0  0  0  0  0  0  0  0  0  0  0  0
   37.9468   21.7754   39.1617 H   0  0  0  0  0  0  0  0  0  0  0  0
   36.6459   22.9901   39.0396 H   0  0  0  0  0  0  0  0  0  0  0  0
  1  6  2  0
  1  2  1  0
  2  3  2  0
  3  4  1  0
  5  7  1  0
  5  4  2  0
  6  5  1  0
  7 12  1  0
  8  9  1  0
  8  7  1  0
  9 10  1  0
 10 11  1  0
 12 11  1  0
 12 13  1  0
 13 14  1  0
 13 19  1  0
 14 15  2  0
 15 16  1  0
 16 17  1  0
 18 16  2  0
 19 18  1  0
 20 19  2  0
  1 21  1  0
  2 22  1  0
  3 23  1  0
  8 24  1  0
  8 25  1  0
  9 26  1  0
  9 27  1  0
 10 28  1  0
 10 29  1  0
 11 30  1  0
 11 31  1  0
 12 32  1  1
 14 33  1  0
 15 34  1  0
 17 35  1  0
 17 36  1  0
M  ISO  8  21  14  22  14  23  14  24  13  25  13  26  13  27  13  28  13
M  ISO  6  29  13  30  13  31  13  32  13  33  14  34  14
M  END
>  <minimizedAffinity>  (1) 
-5.06670856

>  <minimizedRMSD>  (1) 
4.20284796

$$$$
