
     RDKit          3D

 35 37  0  0  1  0  0  0  0  0999 V2000
   40.3590   21.9900   37.0450 C   0  0  0  0  0  0  0  0  0  0  0  0
   39.6840   22.8710   37.9310 C   0  0  0  0  0  0  0  0  0  0  0  0
   38.7760   23.7680   37.3730 C   0  0  0  0  0  0  0  0  0  0  0  0
   38.6210   23.7150   36.0270 N   0  0  0  0  0  0  0  0  0  0  0  0
   39.2660   22.8790   35.2120 C   0  0  0  0  0  0  0  0  0  0  0  0
   40.1350   22.0180   35.7320 N   0  0  0  0  0  0  0  0  0  0  0  0
   39.0050   22.9400   33.8050 N   0  0  0  0  0  0  0  0  0  0  0  0
   38.8540   21.6250   33.1810 C   0  0  0  0  0  0  0  0  0  0  0  0
   37.9600   21.6350   31.9920 C   0  0  0  0  0  0  0  0  0  0  0  0
   38.0180   22.9010   31.1910 C   0  0  0  0  0  0  0  0  0  0  0  0
   37.7750   24.0640   32.1000 C   0  0  0  0  0  0  0  0  0  0  0  0
   38.9290   24.1850   33.1110 C   0  0  1  0  0  0  0  0  0  0  0  0
   38.7240   25.3640   33.9450 C   0  0  0  0  0  0  0  0  0  0  0  0
   37.4080   25.8090   34.1240 C   0  0  0  0  0  0  0  0  0  0  0  0
   37.0110   26.8740   34.9030 C   0  0  0  0  0  0  0  0  0  0  0  0
   37.9760   27.5700   35.5660 C   0  0  0  0  0  0  0  0  0  0  0  0
   39.2940   27.1910   35.4380 C   0  0  0  0  0  0  0  0  0  0  0  0
   39.6370   26.1160   34.6450 C   0  0  0  0  0  0  0  0  0  0  0  0
   41.0828   21.2685   37.4518 H   0  0  0  0  0  0  0  0  0  0  0  0
   39.8707   22.8461   39.0147 H   0  0  0  0  0  0  0  0  0  0  0  0
   38.2138   24.4824   37.9923 H   0  0  0  0  0  0  0  0  0  0  0  0
   39.8474   21.2716   32.8675 H   0  0  0  0  0  0  0  0  0  0  0  0
   38.3937   20.9617   33.9281 H   0  0  0  0  0  0  0  0  0  0  0  0
   38.2471   20.7990   31.3373 H   0  0  0  0  0  0  0  0  0  0  0  0
   36.9306   21.5462   32.3694 H   0  0  0  0  0  0  0  0  0  0  0  0
   39.0099   22.9977   30.7254 H   0  0  0  0  0  0  0  0  0  0  0  0
   37.2503   22.8780   30.4035 H   0  0  0  0  0  0  0  0  0  0  0  0
   37.7132   24.9866   31.5042 H   0  0  0  0  0  0  0  0  0  0  0  0
   36.8309   23.9097   32.6430 H   0  0  0  0  0  0  0  0  0  0  0  0
   39.9095   24.3520   32.6413 H   0  0  0  0  0  0  0  0  0  0  0  0
   36.6181   25.2571   33.5935 H   0  0  0  0  0  0  0  0  0  0  0  0
   35.9502   27.1528   34.9866 H   0  0  0  0  0  0  0  0  0  0  0  0
   37.7049   28.4280   36.1987 H   0  0  0  0  0  0  0  0  0  0  0  0
   40.0776   27.7490   35.9714 H   0  0  0  0  0  0  0  0  0  0  0  0
   40.7004   25.8454   34.5685 H   0  0  0  0  0  0  0  0  0  0  0  0
  1  2  2  0
  3  2  1  0
  4  3  2  0
  5  6  2  0
  5  4  1  0
  6  1  1  0
  7  5  1  0
  8  7  1  0
  9  8  1  0
 10  9  1  0
 10 11  1  0
 11 12  1  0
 12  7  1  0
 12 13  1  0
 13 14  2  0
 13 18  1  0
 14 15  1  0
 15 16  2  0
 17 16  1  0
 18 17  2  0
  1 19  1  0
  2 20  1  0
  3 21  1  0
  8 22  1  0
  8 23  1  0
  9 24  1  0
  9 25  1  0
 10 26  1  0
 10 27  1  0
 11 28  1  0
 11 29  1  0
 12 30  1  6
 14 31  1  0
 15 32  1  0
 16 33  1  0
 17 34  1  0
 18 35  1  0
M  ISO  8  19  14  20  14  21  14  22  13  23  13  24  13  25  13  26  13
M  ISO  8  27  13  28  13  29  13  30  13  31  14  32  14  33  14  34  14
M  ISO  1  35  14
M  END
>  <minimizedAffinity>  (1) 
-4.85497665

>  <minimizedRMSD>  (1) 
3.50995564

$$$$
