
     RDKit          3D

 35 37  0  0  1  0  0  0  0  0999 V2000
   39.1990   23.1980   38.4360 C   0  0  0  0  0  0  0  0  0  0  0  0
   37.9190   23.7470   38.3100 C   0  0  0  0  0  0  0  0  0  0  0  0
   37.4930   24.1030   37.0380 C   0  0  0  0  0  0  0  0  0  0  0  0
   38.3240   23.9100   35.9660 N   0  0  0  0  0  0  0  0  0  0  0  0
   39.5600   23.3720   36.1440 C   0  0  0  0  0  0  0  0  0  0  0  0
   39.9670   23.0310   37.3630 N   0  0  0  0  0  0  0  0  0  0  0  0
   40.3830   23.1850   34.9980 N   0  0  0  0  0  0  0  0  0  0  0  0
   41.0920   21.9280   34.9450 C   0  0  0  0  0  0  0  0  0  0  0  0
   41.3060   21.4240   33.5420 C   0  0  0  0  0  0  0  0  0  0  0  0
   41.6950   22.5550   32.6050 C   0  0  0  0  0  0  0  0  0  0  0  0
   40.5600   23.5640   32.6340 C   0  0  0  0  0  0  0  0  0  0  0  0
   40.4740   24.1990   33.9890 C   0  0  1  0  0  0  0  0  0  0  0  0
   39.3460   25.1030   34.0000 N   0  0  0  0  0  0  0  0  0  0  0  0
   38.1380   24.9630   33.4310 C   0  0  0  0  0  0  0  0  0  0  0  0
   37.1730   25.9410   33.5470 C   0  0  0  0  0  0  0  0  0  0  0  0
   37.3940   27.1090   34.2480 C   0  0  0  0  0  0  0  0  0  0  0  0
   36.4890   27.9810   34.3320 O   0  0  0  0  0  0  0  0  0  0  0  0
   38.6090   27.2480   34.8180 N   0  0  0  0  0  0  0  0  0  0  0  0
   39.5320   26.2690   34.6860 C   0  0  0  0  0  0  0  0  0  0  0  0
   40.6250   26.5100   35.2590 O   0  0  0  0  0  0  0  0  0  0  0  0
   39.5726   22.9028   39.4276 H   0  0  0  0  0  0  0  0  0  0  0  0
   37.2725   23.8916   39.1882 H   0  0  0  0  0  0  0  0  0  0  0  0
   36.4933   24.5379   36.8913 H   0  0  0  0  0  0  0  0  0  0  0  0
   42.0743   22.0607   35.4220 H   0  0  0  0  0  0  0  0  0  0  0  0
   40.4746   21.1831   35.4684 H   0  0  0  0  0  0  0  0  0  0  0  0
   42.1089   20.6721   33.5495 H   0  0  0  0  0  0  0  0  0  0  0  0
   40.3645   20.9827   33.1831 H   0  0  0  0  0  0  0  0  0  0  0  0
   41.8322   22.1697   31.5839 H   0  0  0  0  0  0  0  0  0  0  0  0
   42.6414   23.0187   32.9201 H   0  0  0  0  0  0  0  0  0  0  0  0
   40.7443   24.3417   31.8782 H   0  0  0  0  0  0  0  0  0  0  0  0
   39.6129   23.0489   32.4155 H   0  0  0  0  0  0  0  0  0  0  0  0
   41.3802   24.7818   34.2108 H   0  0  0  0  0  0  0  0  0  0  0  0
   37.9136   24.0495   32.8607 H   0  0  0  0  0  0  0  0  0  0  0  0
   36.1962   25.7853   33.0656 H   0  0  0  0  0  0  0  0  0  0  0  0
   38.8331   28.0991   35.3531 H   0  0  0  0  0  0  0  0  0  0  0  0
  2  1  2  0
  3  2  1  0
  4  5  1  0
  4  3  2  0
  5  6  2  0
  6  1  1  0
  7  5  1  0
  8  7  1  0
  9  8  1  0
 10 11  1  0
 10  9  1  0
 11 12  1  0
 12 13  1  0
 12  7  1  0
 13 19  1  0
 14 15  2  0
 14 13  1  0
 15 16  1  0
 16 17  2  0
 16 18  1  0
 19 18  1  0
 19 20  2  0
  1 21  1  0
  2 22  1  0
  3 23  1  0
  8 24  1  0
  8 25  1  0
  9 26  1  0
  9 27  1  0
 10 28  1  0
 10 29  1  0
 11 30  1  0
 11 31  1  0
 12 32  1  1
 14 33  1  0
 15 34  1  0
 18 35  1  0
M  ISO  8  21  14  22  14  23  14  24  13  25  13  26  13  27  13  28  13
M  ISO  7  29  13  30  13  31  13  32  13  33  14  34  14  35   9
M  END
>  <minimizedAffinity>  (1) 
-4.62574482

>  <minimizedRMSD>  (1) 
4.32198429

$$$$
