
     RDKit          3D

 30 32  0  0  1  0  0  0  0  0999 V2000
   39.7480   22.6960   37.8740 C   0  0  0  0  0  0  0  0  0  0  0  0
   38.8920   23.4890   38.6490 C   0  0  0  0  0  0  0  0  0  0  0  0
   37.9270   24.2190   37.9740 C   0  0  0  0  0  0  0  0  0  0  0  0
   37.8560   24.1340   36.6070 N   0  0  0  0  0  0  0  0  0  0  0  0
   38.6990   23.3590   35.9090 C   0  0  0  0  0  0  0  0  0  0  0  0
   39.6500   22.6350   36.5380 N   0  0  0  0  0  0  0  0  0  0  0  0
   38.5910   23.3030   34.4970 N   0  0  0  0  0  0  0  0  0  0  0  0
   38.6210   21.9870   33.9010 C   0  0  0  0  0  0  0  0  0  0  0  0
   37.8280   21.8490   32.6460 C   0  0  0  0  0  0  0  0  0  0  0  0
   37.8420   23.0910   31.7910 C   0  0  0  0  0  0  0  0  0  0  0  0
   37.4180   24.2820   32.6270 C   0  0  0  0  0  0  0  0  0  0  0  0
   38.4660   24.4920   33.7150 C   0  0  1  0  0  0  0  0  0  0  0  0
   38.2960   25.7210   34.4630 C   0  0  0  0  0  0  0  0  0  0  0  0
   37.1050   26.3450   34.5380 N   0  0  0  0  0  0  0  0  0  0  0  0
   37.2640   27.4150   35.2550 O   0  0  0  0  0  0  0  0  0  0  0  0
   38.4780   27.5690   35.6770 C   0  0  0  0  0  0  0  0  0  0  0  0
   39.1220   26.5020   35.1750 N   0  0  0  0  0  0  0  0  0  0  0  0
   40.5261   22.1039   38.3779 H   0  0  0  0  0  0  0  0  0  0  0  0
   38.9819   23.5303   39.7445 H   0  0  0  0  0  0  0  0  0  0  0  0
   37.2255   24.8597   38.5284 H   0  0  0  0  0  0  0  0  0  0  0  0
   39.6681   21.7388   33.6728 H   0  0  0  0  0  0  0  0  0  0  0  0
   38.1621   21.3059   34.6328 H   0  0  0  0  0  0  0  0  0  0  0  0
   38.2448   21.0169   32.0596 H   0  0  0  0  0  0  0  0  0  0  0  0
   36.7835   21.6676   32.9393 H   0  0  0  0  0  0  0  0  0  0  0  0
   37.1440   22.9656   30.9501 H   0  0  0  0  0  0  0  0  0  0  0  0
   38.8572   23.2579   31.4017 H   0  0  0  0  0  0  0  0  0  0  0  0
   37.3532   25.1787   31.9932 H   0  0  0  0  0  0  0  0  0  0  0  0
   36.4310   24.1004   33.0774 H   0  0  0  0  0  0  0  0  0  0  0  0
   39.4430   24.6578   33.2376 H   0  0  0  0  0  0  0  0  0  0  0  0
   38.8853   28.3801   36.2985 H   0  0  0  0  0  0  0  0  0  0  0  0
  1  2  2  0
  3  2  1  0
  4  3  2  0
  5  6  2  0
  5  4  1  0
  6  1  1  0
  7  5  1  0
  8  7  1  0
  9  8  1  0
 10 11  1  0
 10  9  1  0
 11 12  1  0
 12 13  1  0
 12  7  1  0
 13 14  2  0
 13 17  1  0
 14 15  1  0
 15 16  1  0
 17 16  2  0
  1 18  1  0
  2 19  1  0
  3 20  1  0
  8 21  1  0
  8 22  1  0
  9 23  1  0
  9 24  1  0
 10 25  1  0
 10 26  1  0
 11 27  1  0
 11 28  1  0
 12 29  1  6
 16 30  1  0
M  ISO  8  18  14  19  14  20  14  21  13  22  13  23  13  24  13  25  13
M  ISO  5  26  13  27  13  28  13  29  13  30  14
M  END
>  <minimizedAffinity>  (1) 
-4.59735441

>  <minimizedRMSD>  (1) 
2.96367192

$$$$
