
     RDKit          3D

 32 34  0  0  1  0  0  0  0  0999 V2000
   39.4120   22.3640   37.3440 C   0  0  0  0  0  0  0  0  0  0  0  0
   38.8950   23.3430   38.2090 C   0  0  0  0  0  0  0  0  0  0  0  0
   38.0810   24.3130   37.6490 C   0  0  0  0  0  0  0  0  0  0  0  0
   37.8510   24.2390   36.3130 N   0  0  0  0  0  0  0  0  0  0  0  0
   38.3480   23.3040   35.5040 C   0  0  0  0  0  0  0  0  0  0  0  0
   39.1310   22.3710   36.0400 N   0  0  0  0  0  0  0  0  0  0  0  0
   38.0410   23.3330   34.1140 N   0  0  0  0  0  0  0  0  0  0  0  0
   37.6900   22.0290   33.5510 C   0  0  0  0  0  0  0  0  0  0  0  0
   36.7380   22.1150   32.4110 C   0  0  0  0  0  0  0  0  0  0  0  0
   36.9190   23.3320   31.5470 C   0  0  0  0  0  0  0  0  0  0  0  0
   36.9210   24.5530   32.3960 C   0  0  0  0  0  0  0  0  0  0  0  0
   38.1080   24.5450   33.3700 C   0  0  1  0  0  0  0  0  0  0  0  0
   38.0830   25.7790   34.1450 C   0  0  0  0  0  0  0  0  0  0  0  0
   39.0090   26.5480   34.8140 C   0  0  0  0  0  0  0  0  0  0  0  0
   38.4420   27.6580   35.4020 C   0  0  0  0  0  0  0  0  0  0  0  0
   37.1270   27.5160   35.0510 C   0  0  0  0  0  0  0  0  0  0  0  0
   36.9500   26.4530   34.3440 O   0  0  0  0  0  0  0  0  0  0  0  0
   40.0621   21.5753   37.7506 H   0  0  0  0  0  0  0  0  0  0  0  0
   39.1268   23.3390   39.2843 H   0  0  0  0  0  0  0  0  0  0  0  0
   37.6383   25.1118   38.2621 H   0  0  0  0  0  0  0  0  0  0  0  0
   38.6113   21.5413   33.1999 H   0  0  0  0  0  0  0  0  0  0  0  0
   37.1930   21.4547   34.3467 H   0  0  0  0  0  0  0  0  0  0  0  0
   36.8716   21.2225   31.7820 H   0  0  0  0  0  0  0  0  0  0  0  0
   35.7299   22.1832   32.8457 H   0  0  0  0  0  0  0  0  0  0  0  0
   36.0938   23.3919   30.8221 H   0  0  0  0  0  0  0  0  0  0  0  0
   37.8767   23.2592   31.0109 H   0  0  0  0  0  0  0  0  0  0  0  0
   36.9922   25.4402   31.7497 H   0  0  0  0  0  0  0  0  0  0  0  0
   35.9891   24.5749   32.9800 H   0  0  0  0  0  0  0  0  0  0  0  0
   39.0912   24.5443   32.8768 H   0  0  0  0  0  0  0  0  0  0  0  0
   40.0800   26.3039   34.8724 H   0  0  0  0  0  0  0  0  0  0  0  0
   38.9206   28.4498   35.9970 H   0  0  0  0  0  0  0  0  0  0  0  0
   36.3273   28.2160   35.3346 H   0  0  0  0  0  0  0  0  0  0  0  0
  1  2  2  0
  3  2  1  0
  4  3  2  0
  5  6  2  0
  5  4  1  0
  6  1  1  0
  7  5  1  0
  8  7  1  0
  9  8  1  0
 10 11  1  0
 10  9  1  0
 11 12  1  0
 12  7  1  0
 12 13  1  0
 13 17  1  0
 13 14  2  0
 14 15  1  0
 16 15  2  0
 17 16  1  0
  1 18  1  0
  2 19  1  0
  3 20  1  0
  8 21  1  0
  8 22  1  0
  9 23  1  0
  9 24  1  0
 10 25  1  0
 10 26  1  0
 11 27  1  0
 11 28  1  0
 12 29  1  6
 14 30  1  0
 15 31  1  0
 16 32  1  0
M  ISO  8  18  14  19  14  20  14  21  13  22  13  23  13  24  13  25  13
M  ISO  7  26  13  27  13  28  13  29  13  30  14  31  14  32  14
M  END
>  <minimizedAffinity>  (1) 
-4.69336987

>  <minimizedRMSD>  (1) 
3.01462364

$$$$
