
     RDKit          3D

 32 34  0  0  1  0  0  0  0  0999 V2000
   39.6080   22.5470   37.7180 C   0  0  0  0  0  0  0  0  0  0  0  0
   38.8580   23.4120   38.5230 C   0  0  0  0  0  0  0  0  0  0  0  0
   37.9160   24.2290   37.9100 C   0  0  0  0  0  0  0  0  0  0  0  0
   37.7550   24.1630   36.5470 N   0  0  0  0  0  0  0  0  0  0  0  0
   38.5080   23.3080   35.8100 C   0  0  0  0  0  0  0  0  0  0  0  0
   39.4240   22.5100   36.3920 N   0  0  0  0  0  0  0  0  0  0  0  0
   38.3180   23.2630   34.4040 N   0  0  0  0  0  0  0  0  0  0  0  0
   38.2540   21.9630   33.8100 C   0  0  0  0  0  0  0  0  0  0  0  0
   37.3580   21.8600   32.6080 C   0  0  0  0  0  0  0  0  0  0  0  0
   37.3900   23.0980   31.7500 C   0  0  0  0  0  0  0  0  0  0  0  0
   37.0670   24.3050   32.6150 C   0  0  0  0  0  0  0  0  0  0  0  0
   38.1990   24.4560   33.6270 C   0  0  1  0  0  0  0  0  0  0  0  0
   38.1720   25.7030   34.3620 C   0  0  0  0  0  0  0  0  0  0  0  0
   37.1040   26.6040   34.4500 C   0  0  0  0  0  0  0  0  0  0  0  0
   37.4710   27.6710   35.2180 N   0  0  0  0  0  0  0  0  0  0  0  0
   38.7270   27.4500   35.6010 C   0  0  0  0  0  0  0  0  0  0  0  0
   39.1290   26.2940   35.0930 N   0  0  0  0  0  0  0  0  0  0  0  0
   40.3584   21.8889   38.1805 H   0  0  0  0  0  0  0  0  0  0  0  0
   39.0102   23.4442   39.6119 H   0  0  0  0  0  0  0  0  0  0  0  0
   37.3059   24.9209   38.5092 H   0  0  0  0  0  0  0  0  0  0  0  0
   39.2710   21.6769   33.5036 H   0  0  0  0  0  0  0  0  0  0  0  0
   37.8251   21.2962   34.5725 H   0  0  0  0  0  0  0  0  0  0  0  0
   37.6820   21.0023   32.0002 H   0  0  0  0  0  0  0  0  0  0  0  0
   36.3275   21.7351   32.9720 H   0  0  0  0  0  0  0  0  0  0  0  0
   38.3911   23.2164   31.3099 H   0  0  0  0  0  0  0  0  0  0  0  0
   36.6495   23.0102   30.9413 H   0  0  0  0  0  0  0  0  0  0  0  0
   36.9980   25.2078   31.9903 H   0  0  0  0  0  0  0  0  0  0  0  0
   36.1031   24.1694   33.1273 H   0  0  0  0  0  0  0  0  0  0  0  0
   39.1491   24.5579   33.0822 H   0  0  0  0  0  0  0  0  0  0  0  0
   36.1212   26.4724   33.9739 H   0  0  0  0  0  0  0  0  0  0  0  0
   39.3309   28.1166   36.2342 H   0  0  0  0  0  0  0  0  0  0  0  0
   40.0671   25.8956   35.2421 H   0  0  0  0  0  0  0  0  0  0  0  0
  1  2  2  0
  3  2  1  0
  4  3  2  0
  5  6  2  0
  5  4  1  0
  6  1  1  0
  7  5  1  0
  8  7  1  0
  9  8  1  0
 10  9  1  0
 10 11  1  0
 11 12  1  0
 12 13  1  0
 12  7  1  0
 13 14  2  0
 13 17  1  0
 14 15  1  0
 15 16  2  0
 17 16  1  0
  1 18  1  0
  2 19  1  0
  3 20  1  0
  8 21  1  0
  8 22  1  0
  9 23  1  0
  9 24  1  0
 10 25  1  0
 10 26  1  0
 11 27  1  0
 11 28  1  0
 12 29  1  6
 14 30  1  0
 16 31  1  0
 17 32  1  0
M  ISO  8  18  14  19  14  20  14  21  13  22  13  23  13  24  13  25  13
M  ISO  7  26  13  27  13  28  13  29  13  30  14  31  14  32   9
M  END
>  <minimizedAffinity>  (1) 
-4.6157937

>  <minimizedRMSD>  (1) 
2.98499775

$$$$
