
     RDKit          3D

 36 35  0  0  1  0  0  0  0  0999 V2000
   39.5320   22.7920   37.3010 C   0  0  0  0  0  0  0  0  0  0  0  0
   38.9500   23.0580   38.5470 C   0  0  0  0  0  0  0  0  0  0  0  0
   38.1280   24.1930   38.6600 C   0  0  0  0  0  0  0  0  0  0  0  0
   37.9360   24.9810   37.5520 N   0  0  0  0  0  0  0  0  0  0  0  0
   38.5250   24.6730   36.3770 C   0  0  0  0  0  0  0  0  0  0  0  0
   39.3150   23.5890   36.2510 N   0  0  0  0  0  0  0  0  0  0  0  0
   38.2960   25.5260   35.2420 N   0  0  0  0  0  0  0  0  0  0  0  0
   37.9840   24.8490   34.0150 C   0  0  0  0  0  0  0  0  0  0  0  0
   37.1440   25.6730   33.0850 C   0  0  0  0  0  0  0  0  0  0  0  0
   37.4930   27.1440   33.1230 C   0  0  0  0  0  0  0  0  0  0  0  0
   37.3450   27.6190   34.5590 C   0  0  0  0  0  0  0  0  0  0  0  0
   38.3930   26.9690   35.4140 C   0  0  2  0  0  0  0  0  0  0  0  0
   39.6920   27.4310   34.9660 N   0  0  0  0  0  0  0  0  0  0  0  0
   40.6820   26.4710   34.6310 C   0  0  0  0  0  0  0  0  0  0  0  0
   40.3630   25.3010   34.1930 N   0  0  0  0  0  0  0  0  0  0  0  0
   42.0780   26.7670   34.7660 N   0  0  0  0  0  0  0  0  0  0  0  0
   39.3540   25.0820   34.0930 H   0  0  0  0  0  0  0  0  0  0  0  0
   40.1797   21.9105   37.1849 H   0  0  0  0  0  0  0  0  0  0  0  0
   39.1303   22.3998   39.4097 H   0  0  0  0  0  0  0  0  0  0  0  0
   37.6481   24.4448   39.6172 H   0  0  0  0  0  0  0  0  0  0  0  0
   38.0671   25.1229   34.3222 H   0  0  0  0  0  0  0  0  0  0  0  0
   37.9840   24.8490   35.1150 H   0  0  0  0  0  0  0  0  0  0  0  0
   37.9840   25.8861   33.6483 H   0  0  0  0  0  0  0  0  0  0  0  0
   38.8821   24.3305   33.6483 H   0  0  0  0  0  0  0  0  0  0  0  0
   37.0859   24.3305   33.6483 H   0  0  0  0  0  0  0  0  0  0  0  0
   37.0534   25.2910   34.1126 H   0  0  0  0  0  0  0  0  0  0  0  0
   36.1885   25.5364   32.5574 H   0  0  0  0  0  0  0  0  0  0  0  0
   37.9363   25.1217   32.5574 H   0  0  0  0  0  0  0  0  0  0  0  0
   38.5293   27.2917   32.7848 H   0  0  0  0  0  0  0  0  0  0  0  0
   36.8271   27.7144   32.4588 H   0  0  0  0  0  0  0  0  0  0  0  0
   37.4667   28.7116   34.5977 H   0  0  0  0  0  0  0  0  0  0  0  0
   36.3472   27.3465   34.9332 H   0  0  0  0  0  0  0  0  0  0  0  0
   38.2535   27.2233   36.4751 H   0  0  0  0  0  0  0  0  0  0  0  0
   39.8929   28.4385   34.8921 H   0  0  0  0  0  0  0  0  0  0  0  0
   42.7814   26.0568   34.5176 H   0  0  0  0  0  0  0  0  0  0  0  0
   42.3777   27.6899   35.1114 H   0  0  0  0  0  0  0  0  0  0  0  0
  1  2  2  0
  2  3  1  0
  4  3  2  0
  5  4  1  0
  6  5  2  0
  6  1  1  0
  7 12  1  0
  7  5  1  0
  9 10  1  0
 10 11  1  0
 11 12  1  0
 13 12  1  0
 14 16  1  0
 14 13  1  0
 15 14  2  0
 17 15  1  0
  1 18  1  0
  2 19  1  0
  3 20  1  0
  7 21  1  0
  8 22  1  0
  8 23  1  0
  8 24  1  0
  8 25  1  0
  9 26  1  0
  9 27  1  0
  9 28  1  0
 10 29  1  0
 10 30  1  0
 11 31  1  0
 11 32  1  0
 12 33  1  1
 13 34  1  0
 16 35  1  0
 16 36  1  0
M  ISO  8  18  14  19  14  20  14  22   8  23   8  24   8  25   8  26   8
M  ISO  7  27   8  28   8  29   8  30   8  31   8  32   8  33   8
M  END
>  <minimizedAffinity>  (1) 
-4.77517796

>  <minimizedRMSD>  (1) 
0.925403237

$$$$
