
     RDKit          3D

 31 33  0  0  1  0  0  0  0  0999 V2000
   39.5140   22.1080   36.2060 C   0  0  0  0  0  0  0  0  0  0  0  0
   39.2350   22.9650   37.2910 C   0  0  0  0  0  0  0  0  0  0  0  0
   38.4320   24.0780   37.0450 C   0  0  0  0  0  0  0  0  0  0  0  0
   37.9630   24.2750   35.7770 N   0  0  0  0  0  0  0  0  0  0  0  0
   38.2540   23.4320   34.7750 C   0  0  0  0  0  0  0  0  0  0  0  0
   39.0200   22.3640   34.9920 N   0  0  0  0  0  0  0  0  0  0  0  0
   37.7320   23.6950   33.4730 N   0  0  0  0  0  0  0  0  0  0  0  0
   37.1650   22.5710   32.7810 C   0  0  0  0  0  0  0  0  0  0  0  0
   36.0890   22.9320   31.8060 C   0  0  0  0  0  0  0  0  0  0  0  0
   36.3090   24.2530   31.1240 C   0  0  0  0  0  0  0  0  0  0  0  0
   36.5120   25.3140   32.1640 C   0  0  0  0  0  0  0  0  0  0  0  0
   37.7920   25.0310   32.9240 C   0  0  1  0  0  0  0  0  0  0  0  0
   38.0070   26.0180   33.9360 N   0  0  0  0  0  0  0  0  0  0  0  0
   37.0950   26.7240   34.6570 C   0  0  0  0  0  0  0  0  0  0  0  0
   37.7840   27.5240   35.4780 N   0  0  0  0  0  0  0  0  0  0  0  0
   39.1050   27.3230   35.2770 C   0  0  0  0  0  0  0  0  0  0  0  0
   39.2370   26.3760   34.3060 N   0  0  0  0  0  0  0  0  0  0  0  0
   40.1446   21.2202   36.3613 H   0  0  0  0  0  0  0  0  0  0  0  0
   39.6364   22.7626   38.2949 H   0  0  0  0  0  0  0  0  0  0  0  0
   38.1819   24.7812   37.8531 H   0  0  0  0  0  0  0  0  0  0  0  0
   37.9707   22.0608   32.2328 H   0  0  0  0  0  0  0  0  0  0  0  0
   36.6988   21.9312   33.5447 H   0  0  0  0  0  0  0  0  0  0  0  0
   36.0407   22.1477   31.0362 H   0  0  0  0  0  0  0  0  0  0  0  0
   35.1532   23.0177   32.3777 H   0  0  0  0  0  0  0  0  0  0  0  0
   37.1996   24.1920   30.4813 H   0  0  0  0  0  0  0  0  0  0  0  0
   35.4333   24.5018   30.5066 H   0  0  0  0  0  0  0  0  0  0  0  0
   36.5837   26.2975   31.6766 H   0  0  0  0  0  0  0  0  0  0  0  0
   35.6614   25.3142   32.8615 H   0  0  0  0  0  0  0  0  0  0  0  0
   38.6514   25.0860   32.2396 H   0  0  0  0  0  0  0  0  0  0  0  0
   36.0002   26.6510   34.5796 H   0  0  0  0  0  0  0  0  0  0  0  0
   39.9262   27.8322   35.8027 H   0  0  0  0  0  0  0  0  0  0  0  0
  1  2  2  0
  3  2  1  0
  4  3  2  0
  5  6  2  0
  5  4  1  0
  6  1  1  0
  7  5  1  0
  8  7  1  0
  9  8  1  0
 10  9  1  0
 10 11  1  0
 11 12  1  0
 12  7  1  0
 12 13  1  0
 13 17  1  0
 13 14  1  0
 14 15  2  0
 16 15  1  0
 17 16  2  0
  1 18  1  0
  2 19  1  0
  3 20  1  0
  8 21  1  0
  8 22  1  0
  9 23  1  0
  9 24  1  0
 10 25  1  0
 10 26  1  0
 11 27  1  0
 11 28  1  0
 12 29  1  6
 14 30  1  0
 16 31  1  0
M  ISO  8  18  14  19  14  20  14  21  13  22  13  23  13  24  13  25  13
M  ISO  6  26  13  27  13  28  13  29  13  30  14  31  14
M  END
>  <minimizedAffinity>  (1) 
-4.6300087

>  <minimizedRMSD>  (1) 
2.96355295

$$$$
