
     RDKit          3D

 13 13  0  0  0  0  0  0  0  0999 V2000
   38.1700   23.9760   36.9880 C   0  0  0  0  0  0  0  0  0  0  0  0
   38.2680   22.8460   36.1630 C   0  0  0  0  0  0  0  0  0  0  0  0
   38.2210   23.0500   34.7690 C   0  0  0  0  0  0  0  0  0  0  0  0
   38.0860   24.3230   34.3180 N   0  0  0  0  0  0  0  0  0  0  0  0
   37.9950   25.3900   35.1500 C   0  0  0  0  0  0  0  0  0  0  0  0
   38.0370   25.2190   36.4820 N   0  0  0  0  0  0  0  0  0  0  0  0
   38.2170   23.8010   38.4800 C   0  0  0  0  0  0  0  0  0  0  0  0
   39.4940   23.4250   38.9050 F   0  0  0  0  0  0  0  0  0  0  0  0
   37.9210   24.9950   39.1060 F   0  0  0  0  0  0  0  0  0  0  0  0
   37.2930   22.8420   38.8530 F   0  0  0  0  0  0  0  0  0  0  0  0
   38.3775   21.8374   36.5882 H   0  0  0  0  0  0  0  0  0  0  0  0
   38.2915   22.2044   34.0690 H   0  0  0  0  0  0  0  0  0  0  0  0
   37.8861   26.4016   34.7319 H   0  0  0  0  0  0  0  0  0  0  0  0
  1  7  1  0
  2  1  2  0
  3  2  1  0
  4  3  2  0
  4  5  1  0
  5  6  2  0
  6  1  1  0
  7 10  1  0
  7  8  1  0
  7  9  1  0
  2 11  1  0
  3 12  1  0
  5 13  1  0
M  ISO  3  11  14  12  14  13  14
M  END
>  <minimizedAffinity>  (1) 
-3.76398849

>  <minimizedRMSD>  (1) 
3.48068142

$$$$
