
     RDKit          3D

 28 29  0  0  1  0  0  0  0  0999 V2000
   39.7050   22.8280   37.5990 C   0  0  0  0  0  0  0  0  0  0  0  0
   38.9520   23.2860   38.6860 C   0  0  0  0  0  0  0  0  0  0  0  0
   37.9750   24.2750   38.4610 C   0  0  0  0  0  0  0  0  0  0  0  0
   37.8160   24.7340   37.1810 N   0  0  0  0  0  0  0  0  0  0  0  0
   38.5640   24.2590   36.1710 C   0  0  0  0  0  0  0  0  0  0  0  0
   39.4950   23.3210   36.3770 N   0  0  0  0  0  0  0  0  0  0  0  0
   38.3520   24.7760   34.8470 N   0  0  0  0  0  0  0  0  0  0  0  0
   38.3020   23.7940   33.7910 C   0  0  0  0  0  0  0  0  0  0  0  0
   37.3960   24.1710   32.6510 C   0  0  0  0  0  0  0  0  0  0  0  0
   37.4530   25.6530   32.3420 C   0  0  0  0  0  0  0  0  0  0  0  0
   37.1550   26.4360   33.5900 C   0  0  0  0  0  0  0  0  0  0  0  0
   38.2030   26.1900   34.6370 C   0  0  2  0  0  0  0  0  0  0  0  0
   39.4990   26.8630   34.3360 C   0  0  0  0  0  0  0  0  0  0  0  0
   39.6600   27.3190   33.1620 O   0  0  0  0  0  0  0  0  0  0  0  0
   40.4960   26.9850   35.3090 O   0  0  0  0  0  0  0  0  0  0  0  0
   40.4745   22.0571   37.7529 H   0  0  0  0  0  0  0  0  0  0  0  0
   39.1198   22.8819   39.6952 H   0  0  0  0  0  0  0  0  0  0  0  0
   37.3605   24.6654   39.2856 H   0  0  0  0  0  0  0  0  0  0  0  0
   39.3193   23.6591   33.3950 H   0  0  0  0  0  0  0  0  0  0  0  0
   37.8947   22.8719   34.2313 H   0  0  0  0  0  0  0  0  0  0  0  0
   37.7013   23.6102   31.7553 H   0  0  0  0  0  0  0  0  0  0  0  0
   36.3643   23.9261   32.9438 H   0  0  0  0  0  0  0  0  0  0  0  0
   38.4574   25.9132   31.9768 H   0  0  0  0  0  0  0  0  0  0  0  0
   36.7082   25.8958   31.5698 H   0  0  0  0  0  0  0  0  0  0  0  0
   37.1335   27.5085   33.3463 H   0  0  0  0  0  0  0  0  0  0  0  0
   36.1802   26.1132   33.9843 H   0  0  0  0  0  0  0  0  0  0  0  0
   37.8602   26.6496   35.5758 H   0  0  0  0  0  0  0  0  0  0  0  0
   41.3497   27.4354   35.0892 H   0  0  0  0  0  0  0  0  0  0  0  0
  1  2  2  0
  3  2  1  0
  4  3  2  0
  5  6  2  0
  5  4  1  0
  6  1  1  0
  7  5  1  0
  8  7  1  0
  9  8  1  0
 10  9  1  0
 10 11  1  0
 11 12  1  0
 12  7  1  0
 13 12  1  0
 13 15  1  0
 14 13  2  0
  1 16  1  0
  2 17  1  0
  3 18  1  0
  8 19  1  0
  8 20  1  0
  9 21  1  0
  9 22  1  0
 10 23  1  0
 10 24  1  0
 11 25  1  0
 11 26  1  0
 12 27  1  1
 15 28  1  0
M  ISO  8  16  14  17  14  18  14  19  13  20  13  21  13  22  13  23  13
M  ISO  5  24  13  25  13  26  13  27  13  28   3
M  END
>  <minimizedAffinity>  (1) 
-4.38567638

>  <minimizedRMSD>  (1) 
1.32558703

$$$$
