
     RDKit          3D

 28 29  0  0  1  0  0  0  0  0999 V2000
   39.6710   22.8170   37.7140 C   0  0  0  0  0  0  0  0  0  0  0  0
   38.8470   23.4760   38.6640 C   0  0  0  0  0  0  0  0  0  0  0  0
   37.8490   24.3360   38.1840 C   0  0  0  0  0  0  0  0  0  0  0  0
   37.7580   24.4660   36.8330 N   0  0  0  0  0  0  0  0  0  0  0  0
   38.5550   23.8270   35.9660 C   0  0  0  0  0  0  0  0  0  0  0  0
   39.5150   23.0020   36.3830 N   0  0  0  0  0  0  0  0  0  0  0  0
   38.3640   24.0530   34.5700 N   0  0  0  0  0  0  0  0  0  0  0  0
   38.3320   22.8680   33.7480 C   0  0  0  0  0  0  0  0  0  0  0  0
   37.4980   22.9890   32.5180 C   0  0  0  0  0  0  0  0  0  0  0  0
   37.4970   24.3620   31.9070 C   0  0  0  0  0  0  0  0  0  0  0  0
   37.1310   25.3660   32.9740 C   0  0  0  0  0  0  0  0  0  0  0  0
   38.2230   25.3660   34.0340 C   0  0  1  0  0  0  0  0  0  0  0  0
   38.1310   26.4950   34.9670 C   0  0  0  0  0  0  0  0  0  0  0  0
   38.0650   27.6720   34.2540 F   0  0  0  0  0  0  0  0  0  0  0  0
   36.8510   26.4030   35.5530 F   0  0  0  0  0  0  0  0  0  0  0  0
   38.9840   26.5090   36.0270 F   0  0  0  0  0  0  0  0  0  0  0  0
   40.4586   22.1367   38.0703 H   0  0  0  0  0  0  0  0  0  0  0  0
   38.9872   23.3168   39.7433 H   0  0  0  0  0  0  0  0  0  0  0  0
   37.1750   24.8772   38.8643 H   0  0  0  0  0  0  0  0  0  0  0  0
   39.3625   22.6344   33.4423 H   0  0  0  0  0  0  0  0  0  0  0  0
   37.8737   22.0765   34.3592 H   0  0  0  0  0  0  0  0  0  0  0  0
   37.8810   22.2789   31.7703 H   0  0  0  0  0  0  0  0  0  0  0  0
   36.4612   22.7753   32.8168 H   0  0  0  0  0  0  0  0  0  0  0  0
   38.4970   24.5914   31.5102 H   0  0  0  0  0  0  0  0  0  0  0  0
   36.7677   24.4060   31.0847 H   0  0  0  0  0  0  0  0  0  0  0  0
   37.0476   26.3678   32.5275 H   0  0  0  0  0  0  0  0  0  0  0  0
   36.1658   25.0975   33.4281 H   0  0  0  0  0  0  0  0  0  0  0  0
   39.2014   25.5842   33.5811 H   0  0  0  0  0  0  0  0  0  0  0  0
  1  2  2  0
  3  2  1  0
  4  3  2  0
  5  6  2  0
  5  4  1  0
  6  1  1  0
  7  5  1  0
  8  7  1  0
  9  8  1  0
 10  9  1  0
 10 11  1  0
 11 12  1  0
 12  7  1  0
 12 13  1  0
 13 15  1  0
 13 16  1  0
 14 13  1  0
  1 17  1  0
  2 18  1  0
  3 19  1  0
  8 20  1  0
  8 21  1  0
  9 22  1  0
  9 23  1  0
 10 24  1  0
 10 25  1  0
 11 26  1  0
 11 27  1  0
 12 28  1  6
M  ISO  8  17  14  18  14  19  14  20  13  21  13  22  13  23  13  24  13
M  ISO  4  25  13  26  13  27  13  28  13
M  END
>  <minimizedAffinity>  (1) 
-4.53339815

>  <minimizedRMSD>  (1) 
2.13765287

$$$$
