
     RDKit          3D

 27 28  0  0  1  0  0  0  0  0999 V2000
   39.4440   22.8630   37.2010 C   0  0  0  0  0  0  0  0  0  0  0  0
   38.8810   23.2330   38.4380 C   0  0  0  0  0  0  0  0  0  0  0  0
   38.1190   24.3980   38.4780 C   0  0  0  0  0  0  0  0  0  0  0  0
   37.9640   25.1080   37.3240 N   0  0  0  0  0  0  0  0  0  0  0  0
   38.5140   24.7280   36.1580 C   0  0  0  0  0  0  0  0  0  0  0  0
   39.2440   23.6150   36.1150 N   0  0  0  0  0  0  0  0  0  0  0  0
   38.3150   25.5120   34.9910 N   0  0  0  0  0  0  0  0  0  0  0  0
   38.0070   24.7860   33.7790 C   0  0  0  0  0  0  0  0  0  0  0  0
   37.1530   25.5670   32.8260 C   0  0  0  0  0  0  0  0  0  0  0  0
   37.4510   27.0500   32.8030 C   0  0  0  0  0  0  0  0  0  0  0  0
   37.3400   27.5670   34.2130 C   0  0  0  0  0  0  0  0  0  0  0  0
   38.4240   26.9520   35.0640 C   0  0  1  0  0  0  0  0  0  0  0  0
   38.2970   27.3910   36.4380 N   0  0  0  0  0  0  0  0  0  0  0  0
   40.0521   21.9492   37.1287 H   0  0  0  0  0  0  0  0  0  0  0  0
   39.0376   22.6235   39.3402 H   0  0  0  0  0  0  0  0  0  0  0  0
   37.6543   24.7366   39.4158 H   0  0  0  0  0  0  0  0  0  0  0  0
   38.9506   24.5306   33.2747 H   0  0  0  0  0  0  0  0  0  0  0  0
   37.4390   23.8898   34.0691 H   0  0  0  0  0  0  0  0  0  0  0  0
   37.3108   25.1672   31.8135 H   0  0  0  0  0  0  0  0  0  0  0  0
   36.1135   25.4575   33.1687 H   0  0  0  0  0  0  0  0  0  0  0  0
   38.4685   27.2208   32.4215 H   0  0  0  0  0  0  0  0  0  0  0  0
   36.7404   27.5732   32.1463 H   0  0  0  0  0  0  0  0  0  0  0  0
   37.4521   28.6613   34.2117 H   0  0  0  0  0  0  0  0  0  0  0  0
   36.3558   27.2984   34.6244 H   0  0  0  0  0  0  0  0  0  0  0  0
   39.4084   27.2705   34.6904 H   0  0  0  0  0  0  0  0  0  0  0  0
   38.5230   26.6099   37.0703 H   0  0  0  0  0  0  0  0  0  0  0  0
   38.9467   28.1714   36.6105 H   0  0  0  0  0  0  0  0  0  0  0  0
  1  2  2  0
  2  3  1  0
  4  3  2  0
  5  4  1  0
  6  5  2  0
  6  1  1  0
  7 12  1  0
  7  5  1  0
  8  7  1  0
  9  8  1  0
 10  9  1  0
 10 11  1  0
 11 12  1  0
 12 13  1  0
  1 14  1  0
  2 15  1  0
  3 16  1  0
  8 17  1  0
  8 18  1  0
  9 19  1  0
  9 20  1  0
 10 21  1  0
 10 22  1  0
 11 23  1  0
 11 24  1  0
 12 25  1  6
 13 26  1  0
 13 27  1  0
M  ISO  8  14  14  15  14  16  14  17  13  18  13  19  13  20  13  21  13
M  ISO  6  22  13  23  13  24  13  25  13  26   5  27   5
M  END
>  <minimizedAffinity>  (1) 
-4.56120491

>  <minimizedRMSD>  (1) 
0.492379904

$$$$
