
     RDKit          3D

 31 32  0  0  1  0  0  0  0  0999 V2000
   39.7180   22.8370   37.5620 C   0  0  0  0  0  0  0  0  0  0  0  0
   38.9460   23.2390   38.6850 C   0  0  0  0  0  0  0  0  0  0  0  0
   37.9790   24.2380   38.4870 C   0  0  0  0  0  0  0  0  0  0  0  0
   37.8370   24.7640   37.2280 N   0  0  0  0  0  0  0  0  0  0  0  0
   38.6060   24.3370   36.1970 C   0  0  0  0  0  0  0  0  0  0  0  0
   39.5290   23.3880   36.3690 N   0  0  0  0  0  0  0  0  0  0  0  0
   38.3990   24.9310   34.9040 N   0  0  0  0  0  0  0  0  0  0  0  0
   38.3980   23.9970   33.7890 C   0  0  0  0  0  0  0  0  0  0  0  0
   37.4230   24.3830   32.6990 C   0  0  0  0  0  0  0  0  0  0  0  0
   37.4790   25.8770   32.4320 C   0  0  0  0  0  0  0  0  0  0  0  0
   37.1670   26.6100   33.7160 C   0  0  0  0  0  0  0  0  0  0  0  0
   38.2100   26.3430   34.7620 C   0  0  2  0  0  0  0  0  0  0  0  0
   39.4840   27.0900   34.5250 C   0  0  0  0  0  0  0  0  0  0  0  0
   40.7060   26.2840   34.8390 C   0  0  0  0  0  0  0  0  0  0  0  0
   40.4842   22.0571   37.6829 H   0  0  0  0  0  0  0  0  0  0  0  0
   39.1003   22.7839   39.6745 H   0  0  0  0  0  0  0  0  0  0  0  0
   37.3519   24.5895   39.3196 H   0  0  0  0  0  0  0  0  0  0  0  0
   39.4098   23.9627   33.3589 H   0  0  0  0  0  0  0  0  0  0  0  0
   38.0859   23.0171   34.1794 H   0  0  0  0  0  0  0  0  0  0  0  0
   37.6799   23.8416   31.7766 H   0  0  0  0  0  0  0  0  0  0  0  0
   36.4059   24.1203   33.0255 H   0  0  0  0  0  0  0  0  0  0  0  0
   38.4849   26.1533   32.0830 H   0  0  0  0  0  0  0  0  0  0  0  0
   36.7456   26.1474   31.6580 H   0  0  0  0  0  0  0  0  0  0  0  0
   37.1315   27.6904   33.5126 H   0  0  0  0  0  0  0  0  0  0  0  0
   36.1970   26.2537   34.0931 H   0  0  0  0  0  0  0  0  0  0  0  0
   37.8432   26.7353   35.7220 H   0  0  0  0  0  0  0  0  0  0  0  0
   39.5235   27.3874   33.4667 H   0  0  0  0  0  0  0  0  0  0  0  0
   39.4836   27.9599   35.1982 H   0  0  0  0  0  0  0  0  0  0  0  0
   40.8237   26.2064   35.9299 H   0  0  0  0  0  0  0  0  0  0  0  0
   40.6015   25.2770   34.4089 H   0  0  0  0  0  0  0  0  0  0  0  0
   41.5906   26.7765   34.4089 H   0  0  0  0  0  0  0  0  0  0  0  0
  1  2  2  0
  3  2  1  0
  4  3  2  0
  5  6  2  0
  5  4  1  0
  6  1  1  0
  7  5  1  0
  8  7  1  0
  9  8  1  0
 10  9  1  0
 10 11  1  0
 11 12  1  0
 12  7  1  0
 13 12  1  0
 13 14  1  0
  1 15  1  0
  2 16  1  0
  3 17  1  0
  8 18  1  0
  8 19  1  0
  9 20  1  0
  9 21  1  0
 10 22  1  0
 10 23  1  0
 11 24  1  0
 11 25  1  0
 12 26  1  1
 13 27  1  0
 13 28  1  0
 14 29  1  0
 14 30  1  0
 14 31  1  0
M  ISO  8  15  14  16  14  17  14  18  13  19  13  20  13  21  13  22  13
M  ISO  8  23  13  24  13  25  13  26  13  27   8  28   8  29   8  30   8
M  ISO  1  31   8
M  END
>  <minimizedAffinity>  (1) 
-4.31708527

>  <minimizedRMSD>  (1) 
1.12116313

$$$$
