
     RDKit          3D

 31 33  0  0  1  0  0  0  0  0999 V2000
   39.5350   22.2200   36.2300 C   0  0  0  0  0  0  0  0  0  0  0  0
   39.3540   23.4310   36.9490 C   0  0  0  0  0  0  0  0  0  0  0  0
   38.5010   24.3770   36.4040 C   0  0  0  0  0  0  0  0  0  0  0  0
   37.8810   24.1080   35.2150 N   0  0  0  0  0  0  0  0  0  0  0  0
   38.0910   22.9360   34.5730 C   0  0  0  0  0  0  0  0  0  0  0  0
   38.9110   21.9760   35.0560 N   0  0  0  0  0  0  0  0  0  0  0  0
   37.4180   22.7190   33.3290 N   0  0  0  0  0  0  0  0  0  0  0  0
   36.7800   21.4460   33.1740 C   0  0  0  0  0  0  0  0  0  0  0  0
   35.5260   21.4530   32.3460 C   0  0  0  0  0  0  0  0  0  0  0  0
   35.6220   22.4090   31.1870 C   0  0  0  0  0  0  0  0  0  0  0  0
   35.9810   23.7860   31.7040 C   0  0  0  0  0  0  0  0  0  0  0  0
   37.3840   23.7000   32.3020 C   0  0  1  0  0  0  0  0  0  0  0  0
   37.9440   25.0230   32.6150 C   0  0  0  0  0  0  0  0  0  0  0  0
   39.3220   25.2570   32.4390 C   0  0  0  0  0  0  0  0  0  0  0  0
   39.5540   26.9660   32.9320 S   0  0  0  0  0  0  0  0  0  0  0  0
   37.7040   27.1450   33.3210 C   0  0  0  0  0  0  0  0  0  0  0  0
   37.3450   26.0980   33.0580 N   0  0  0  0  0  0  0  0  0  0  0  0
   40.2069   21.4532   36.6430 H   0  0  0  0  0  0  0  0  0  0  0  0
   39.8715   23.6113   37.9028 H   0  0  0  0  0  0  0  0  0  0  0  0
   38.3247   25.3319   36.9208 H   0  0  0  0  0  0  0  0  0  0  0  0
   37.4978   20.7618   32.6979 H   0  0  0  0  0  0  0  0  0  0  0  0
   36.4761   21.1330   34.1838 H   0  0  0  0  0  0  0  0  0  0  0  0
   35.3516   20.4391   31.9568 H   0  0  0  0  0  0  0  0  0  0  0  0
   34.6956   21.7801   32.9890 H   0  0  0  0  0  0  0  0  0  0  0  0
   34.6545   22.4528   30.6655 H   0  0  0  0  0  0  0  0  0  0  0  0
   36.3975   22.0639   30.4873 H   0  0  0  0  0  0  0  0  0  0  0  0
   35.9686   24.5124   30.8780 H   0  0  0  0  0  0  0  0  0  0  0  0
   35.2560   24.1165   32.4624 H   0  0  0  0  0  0  0  0  0  0  0  0
   38.0955   23.3322   31.5480 H   0  0  0  0  0  0  0  0  0  0  0  0
   40.0846   24.5503   32.0798 H   0  0  0  0  0  0  0  0  0  0  0  0
   37.1405   28.0130   33.6940 H   0  0  0  0  0  0  0  0  0  0  0  0
  1  2  2  0
  3  2  1  0
  4  3  2  0
  5  6  2  0
  5  4  1  0
  6  1  1  0
  7  5  1  0
  8  7  1  0
  9  8  1  0
 10 11  1  0
 10  9  1  0
 11 12  1  0
 12 13  1  0
 12  7  1  0
 13 17  1  0
 14 13  2  0
 14 15  1  0
 15 16  1  0
 17 16  2  0
  1 18  1  0
  2 19  1  0
  3 20  1  0
  8 21  1  0
  8 22  1  0
  9 23  1  0
  9 24  1  0
 10 25  1  0
 10 26  1  0
 11 27  1  0
 11 28  1  0
 12 29  1  6
 14 30  1  0
 16 31  1  0
M  ISO  8  18  14  19  14  20  14  21  13  22  13  23  13  24  13  25  13
M  ISO  6  26  13  27  13  28  13  29  13  30  14  31  14
M  END
>  <minimizedAffinity>  (1) 
-4.37787342

>  <minimizedRMSD>  (1) 
4.31256294

$$$$
