
     RDKit          3D

 33 35  0  0  1  0  0  0  0  0999 V2000
   39.7250   22.4330   36.7560 C   0  0  0  0  0  0  0  0  0  0  0  0
   38.9150   23.3970   37.3750 C   0  0  0  0  0  0  0  0  0  0  0  0
   38.0080   24.0710   36.5760 C   0  0  0  0  0  0  0  0  0  0  0  0
   37.9830   23.7420   35.2590 N   0  0  0  0  0  0  0  0  0  0  0  0
   38.7620   22.8220   34.6850 C   0  0  0  0  0  0  0  0  0  0  0  0
   39.6390   22.1670   35.4520 N   0  0  0  0  0  0  0  0  0  0  0  0
   38.6450   22.5720   33.2870 N   0  0  0  0  0  0  0  0  0  0  0  0
   38.6270   21.1580   32.9300 C   0  0  0  0  0  0  0  0  0  0  0  0
   37.8680   20.8620   31.6840 C   0  0  0  0  0  0  0  0  0  0  0  0
   37.9490   21.9620   30.6470 C   0  0  0  0  0  0  0  0  0  0  0  0
   37.5230   23.2460   31.2920 C   0  0  0  0  0  0  0  0  0  0  0  0
   38.5740   23.6390   32.3460 C   0  0  1  0  0  0  0  0  0  0  0  0
   38.3090   24.9700   32.8580 C   0  0  0  0  0  0  0  0  0  0  0  0
   37.0980   25.6250   32.9800 C   0  0  0  0  0  0  0  0  0  0  0  0
   36.9220   26.8920   33.4900 C   0  0  0  0  0  0  0  0  0  0  0  0
   38.0090   27.5580   33.9080 N   0  0  0  0  0  0  0  0  0  0  0  0
   39.2250   26.9570   33.8090 C   0  0  0  0  0  0  0  0  0  0  0  0
   39.3530   25.7300   33.3090 N   0  0  0  0  0  0  0  0  0  0  0  0
   40.4541   21.8791   37.3656 H   0  0  0  0  0  0  0  0  0  0  0  0
   38.9975   23.6084   38.4513 H   0  0  0  0  0  0  0  0  0  0  0  0
   37.3375   24.8388   36.9894 H   0  0  0  0  0  0  0  0  0  0  0  0
   39.6653   20.8221   32.7916 H   0  0  0  0  0  0  0  0  0  0  0  0
   38.1182   20.6276   33.7484 H   0  0  0  0  0  0  0  0  0  0  0  0
   38.2709   19.9384   31.2429 H   0  0  0  0  0  0  0  0  0  0  0  0
   36.8096   20.7644   31.9675 H   0  0  0  0  0  0  0  0  0  0  0  0
   37.2814   21.7292   29.8043 H   0  0  0  0  0  0  0  0  0  0  0  0
   38.9774   22.0507   30.2668 H   0  0  0  0  0  0  0  0  0  0  0  0
   37.4485   24.0363   30.5305 H   0  0  0  0  0  0  0  0  0  0  0  0
   36.5408   23.1182   31.7704 H   0  0  0  0  0  0  0  0  0  0  0  0
   39.5892   23.7470   31.9365 H   0  0  0  0  0  0  0  0  0  0  0  0
   36.1991   25.0891   32.6412 H   0  0  0  0  0  0  0  0  0  0  0  0
   35.9211   27.3440   33.5527 H   0  0  0  0  0  0  0  0  0  0  0  0
   40.1214   27.4961   34.1492 H   0  0  0  0  0  0  0  0  0  0  0  0
  1  2  2  0
  3  2  1  0
  4  3  2  0
  5  4  1  0
  5  6  2  0
  6  1  1  0
  7  5  1  0
  8  7  1  0
  9  8  1  0
 10 11  1  0
 10  9  1  0
 11 12  1  0
 12 13  1  0
 12  7  1  0
 13 14  2  0
 13 18  1  0
 14 15  1  0
 15 16  2  0
 17 16  1  0
 18 17  2  0
  1 19  1  0
  2 20  1  0
  3 21  1  0
  8 22  1  0
  8 23  1  0
  9 24  1  0
  9 25  1  0
 10 26  1  0
 10 27  1  0
 11 28  1  0
 11 29  1  0
 12 30  1  6
 14 31  1  0
 15 32  1  0
 17 33  1  0
M  ISO  8  19  14  20  14  21  14  22  13  23  13  24  13  25  13  26  13
M  ISO  7  27  13  28  13  29  13  30  13  31  14  32  14  33  14
M  END
>  <minimizedAffinity>  (1) 
-3.89470387

>  <minimizedRMSD>  (1) 
4.37209511

$$$$
