
     RDKit          3D

 29 30  0  0  1  0  0  0  0  0999 V2000
   39.6770   22.7910   37.7400 C   0  0  0  0  0  0  0  0  0  0  0  0
   38.8950   23.4270   38.7180 C   0  0  0  0  0  0  0  0  0  0  0  0
   37.9060   24.3270   38.2860 C   0  0  0  0  0  0  0  0  0  0  0  0
   37.7930   24.5030   36.9460 N   0  0  0  0  0  0  0  0  0  0  0  0
   38.5530   23.8830   36.0290 C   0  0  0  0  0  0  0  0  0  0  0  0
   39.4910   23.0310   36.4390 N   0  0  0  0  0  0  0  0  0  0  0  0
   38.3510   24.1420   34.6420 N   0  0  0  0  0  0  0  0  0  0  0  0
   38.2860   22.9890   33.7910 C   0  0  0  0  0  0  0  0  0  0  0  0
   37.4730   23.1880   32.5630 C   0  0  0  0  0  0  0  0  0  0  0  0
   37.5080   24.5900   32.0160 C   0  0  0  0  0  0  0  0  0  0  0  0
   37.1520   25.5510   33.1150 C   0  0  0  0  0  0  0  0  0  0  0  0
   38.2270   25.5030   34.1800 C   0  0  1  0  0  0  0  0  0  0  0  0
   37.9900   26.4800   35.2710 C   0  0  0  0  0  0  0  0  0  0  0  0
   36.8520   27.7430   34.5680 S   0  0  0  0  0  0  0  0  0  0  0  0
   40.4578   22.0815   38.0513 H   0  0  0  0  0  0  0  0  0  0  0  0
   39.0517   23.2270   39.7882 H   0  0  0  0  0  0  0  0  0  0  0  0
   37.2579   24.8604   38.9969 H   0  0  0  0  0  0  0  0  0  0  0  0
   39.3100   22.7244   33.4886 H   0  0  0  0  0  0  0  0  0  0  0  0
   37.7960   22.1931   34.3710 H   0  0  0  0  0  0  0  0  0  0  0  0
   37.8496   22.5060   31.7865 H   0  0  0  0  0  0  0  0  0  0  0  0
   36.4283   22.9849   32.8411 H   0  0  0  0  0  0  0  0  0  0  0  0
   38.5175   24.8150   31.6415 H   0  0  0  0  0  0  0  0  0  0  0  0
   36.7879   24.6856   31.1900 H   0  0  0  0  0  0  0  0  0  0  0  0
   37.0834   26.5698   32.7060 H   0  0  0  0  0  0  0  0  0  0  0  0
   36.1825   25.2715   33.5531 H   0  0  0  0  0  0  0  0  0  0  0  0
   39.1895   25.8139   33.7475 H   0  0  0  0  0  0  0  0  0  0  0  0
   37.5255   25.9840   36.1360 H   0  0  0  0  0  0  0  0  0  0  0  0
   38.9292   26.9308   35.6240 H   0  0  0  0  0  0  0  0  0  0  0  0
   36.2391   28.4232   35.5871 H   0  0  0  0  0  0  0  0  0  0  0  0
  1  2  2  0
  3  2  1  0
  4  3  2  0
  5  6  2  0
  5  4  1  0
  6  1  1  0
  7  5  1  0
  8  7  1  0
  9  8  1  0
 10  9  1  0
 10 11  1  0
 11 12  1  0
 12  7  1  0
 12 13  1  0
 14 13  1  0
  1 15  1  0
  2 16  1  0
  3 17  1  0
  8 18  1  0
  8 19  1  0
  9 20  1  0
  9 21  1  0
 10 22  1  0
 10 23  1  0
 11 24  1  0
 11 25  1  0
 12 26  1  6
 13 27  1  0
 13 28  1  0
 14 29  1  0
M  ISO  8  15  14  16  14  17  14  18  13  19  13  20  13  21  13  22  13
M  ISO  7  23  13  24  13  25  13  26  13  27   8  28   8  29  11
M  END
>  <minimizedAffinity>  (1) 
-4.03480911

>  <minimizedRMSD>  (1) 
1.37835145

$$$$
