
     RDKit          3D

 33 35  0  0  1  0  0  0  0  0999 V2000
   39.7190   22.6770   37.5860 C   0  0  0  0  0  0  0  0  0  0  0  0
   38.8690   23.4810   38.3640 C   0  0  0  0  0  0  0  0  0  0  0  0
   37.8210   24.1360   37.7150 C   0  0  0  0  0  0  0  0  0  0  0  0
   37.7160   23.9360   36.3800 N   0  0  0  0  0  0  0  0  0  0  0  0
   38.5380   23.1640   35.6520 C   0  0  0  0  0  0  0  0  0  0  0  0
   39.5430   22.5340   36.2650 N   0  0  0  0  0  0  0  0  0  0  0  0
   38.3350   23.0240   34.2460 N   0  0  0  0  0  0  0  0  0  0  0  0
   38.3960   21.6860   33.7330 C   0  0  0  0  0  0  0  0  0  0  0  0
   37.5530   21.4600   32.5280 C   0  0  0  0  0  0  0  0  0  0  0  0
   37.4330   22.6560   31.6270 C   0  0  0  0  0  0  0  0  0  0  0  0
   37.0040   23.8510   32.4320 C   0  0  0  0  0  0  0  0  0  0  0  0
   38.0920   24.1870   33.4330 C   0  0  1  0  0  0  0  0  0  0  0  0
   37.7920   25.4050   34.2250 C   0  0  0  0  0  0  0  0  0  0  0  0
   37.5850   26.5690   33.2830 C   0  0  0  0  0  0  0  0  0  0  0  0
   36.5660   27.4480   33.2610 N   0  0  0  0  0  0  0  0  0  0  0  0
   36.7360   28.3110   32.3040 O   0  0  0  0  0  0  0  0  0  0  0  0
   37.8620   28.0420   31.6600 C   0  0  0  0  0  0  0  0  0  0  0  0
   38.4040   26.9520   32.2640 N   0  0  0  0  0  0  0  0  0  0  0  0
   40.5520   22.1503   38.0746 H   0  0  0  0  0  0  0  0  0  0  0  0
   39.0241   23.5905   39.4475 H   0  0  0  0  0  0  0  0  0  0  0  0
   37.1166   24.7815   38.2602 H   0  0  0  0  0  0  0  0  0  0  0  0
   39.4409   21.4636   33.4706 H   0  0  0  0  0  0  0  0  0  0  0  0
   38.0070   21.0251   34.5216 H   0  0  0  0  0  0  0  0  0  0  0  0
   37.9931   20.6347   31.9490 H   0  0  0  0  0  0  0  0  0  0  0  0
   36.5391   21.2338   32.8896 H   0  0  0  0  0  0  0  0  0  0  0  0
   36.6854   22.4528   30.8461 H   0  0  0  0  0  0  0  0  0  0  0  0
   38.4072   22.8607   31.1589 H   0  0  0  0  0  0  0  0  0  0  0  0
   36.8415   24.7082   31.7620 H   0  0  0  0  0  0  0  0  0  0  0  0
   36.0672   23.6254   32.9625 H   0  0  0  0  0  0  0  0  0  0  0  0
   39.0159   24.4434   32.8938 H   0  0  0  0  0  0  0  0  0  0  0  0
   36.8792   25.2437   34.8173 H   0  0  0  0  0  0  0  0  0  0  0  0
   38.6304   25.6218   34.9033 H   0  0  0  0  0  0  0  0  0  0  0  0
   38.2772   28.5934   30.8035 H   0  0  0  0  0  0  0  0  0  0  0  0
  1  2  2  0
  3  2  1  0
  4  3  2  0
  5  6  2  0
  5  4  1  0
  6  1  1  0
  7  5  1  0
  8  7  1  0
  9  8  1  0
 10 11  1  0
 10  9  1  0
 11 12  1  0
 12 13  1  0
 12  7  1  0
 14 13  1  0
 15 14  2  0
 16 15  1  0
 17 18  2  0
 17 16  1  0
 18 14  1  0
  1 19  1  0
  2 20  1  0
  3 21  1  0
  8 22  1  0
  8 23  1  0
  9 24  1  0
  9 25  1  0
 10 26  1  0
 10 27  1  0
 11 28  1  0
 11 29  1  0
 12 30  1  6
 13 31  1  0
 13 32  1  0
 17 33  1  0
M  ISO  8  19  14  20  14  21  14  22  13  23  13  24  13  25  13  26  13
M  ISO  7  27  13  28  13  29  13  30  13  31   8  32   8  33  14
M  END
>  <minimizedAffinity>  (1) 
-4.32018614

>  <minimizedRMSD>  (1) 
3.15611815

$$$$
