
     RDKit          3D

 30 31  0  0  1  0  0  0  0  0999 V2000
   39.5790   22.7530   37.5140 C   0  0  0  0  0  0  0  0  0  0  0  0
   38.9210   23.2710   38.6460 C   0  0  0  0  0  0  0  0  0  0  0  0
   38.0750   24.3750   38.4720 C   0  0  0  0  0  0  0  0  0  0  0  0
   37.9580   24.8580   37.2120 N   0  0  0  0  0  0  0  0  0  0  0  0
   38.5940   24.3490   36.1450 C   0  0  0  0  0  0  0  0  0  0  0  0
   39.3960   23.3010   36.3150 N   0  0  0  0  0  0  0  0  0  0  0  0
   38.4050   24.9290   34.8510 N   0  0  0  0  0  0  0  0  0  0  0  0
   38.1600   24.0080   33.7800 C   0  0  0  0  0  0  0  0  0  0  0  0
   37.3430   24.5710   32.6730 C   0  0  0  0  0  0  0  0  0  0  0  0
   37.5490   26.0400   32.4360 C   0  0  0  0  0  0  0  0  0  0  0  0
   37.3830   26.7850   33.7310 C   0  0  0  0  0  0  0  0  0  0  0  0
   38.4730   26.3590   34.6930 C   0  0  1  0  0  0  0  0  0  0  0  0
   38.4140   27.1000   35.9770 C   0  0  0  0  0  0  0  0  0  0  0  0
   37.5840   28.2930   35.7240 N   0  0  0  0  0  0  0  0  0  0  0  0
   40.2500   21.8880   37.6216 H   0  0  0  0  0  0  0  0  0  0  0  0
   39.0668   22.8217   39.6394 H   0  0  0  0  0  0  0  0  0  0  0  0
   37.5333   24.8264   39.3163 H   0  0  0  0  0  0  0  0  0  0  0  0
   39.1294   23.6911   33.3678 H   0  0  0  0  0  0  0  0  0  0  0  0
   37.5863   23.1712   34.2050 H   0  0  0  0  0  0  0  0  0  0  0  0
   37.5997   24.0338   31.7481 H   0  0  0  0  0  0  0  0  0  0  0  0
   36.2897   24.4442   32.9637 H   0  0  0  0  0  0  0  0  0  0  0  0
   38.5623   26.2094   32.0429 H   0  0  0  0  0  0  0  0  0  0  0  0
   36.8079   26.4012   31.7078 H   0  0  0  0  0  0  0  0  0  0  0  0
   37.4579   27.8667   33.5456 H   0  0  0  0  0  0  0  0  0  0  0  0
   36.3977   26.5584   34.1645 H   0  0  0  0  0  0  0  0  0  0  0  0
   39.4580   26.6182   34.2776 H   0  0  0  0  0  0  0  0  0  0  0  0
   37.9559   26.4749   36.7576 H   0  0  0  0  0  0  0  0  0  0  0  0
   39.4193   27.3771   36.3272 H   0  0  0  0  0  0  0  0  0  0  0  0
   37.2957   28.7074   36.6218 H   0  0  0  0  0  0  0  0  0  0  0  0
   38.1287   28.9826   35.1868 H   0  0  0  0  0  0  0  0  0  0  0  0
  1  2  2  0
  3  2  1  0
  4  3  2  0
  5  6  2  0
  5  4  1  0
  6  1  1  0
  7  5  1  0
  8  7  1  0
  9  8  1  0
 10  9  1  0
 10 11  1  0
 11 12  1  0
 12  7  1  0
 12 13  1  0
 14 13  1  0
  1 15  1  0
  2 16  1  0
  3 17  1  0
  8 18  1  0
  8 19  1  0
  9 20  1  0
  9 21  1  0
 10 22  1  0
 10 23  1  0
 11 24  1  0
 11 25  1  0
 12 26  1  6
 13 27  1  0
 13 28  1  0
 14 29  1  0
 14 30  1  0
M  ISO  8  15  14  16  14  17  14  18  13  19  13  20  13  21  13  22  13
M  ISO  8  23  13  24  13  25  13  26  13  27   8  28   8  29   5  30   5
M  END
>  <minimizedAffinity>  (1) 
-4.26322937

>  <minimizedRMSD>  (1) 
0.466298282

$$$$
