
     RDKit          3D

 17 18  0  0  0  0  0  0  0  0999 V2000
   37.8480   22.2850   36.1480 C   0  0  0  0  0  0  0  0  0  0  0  0
   39.2510   22.1720   36.1610 C   0  0  0  0  0  0  0  0  0  0  0  0
   39.9400   22.7300   37.2620 C   0  0  0  0  0  0  0  0  0  0  0  0
   39.2080   23.3340   38.2310 N   0  0  0  0  0  0  0  0  0  0  0  0
   37.8670   23.4180   38.1790 C   0  0  0  0  0  0  0  0  0  0  0  0
   37.1820   22.8980   37.1450 N   0  0  0  0  0  0  0  0  0  0  0  0
   37.0950   21.7190   35.0230 C   0  0  0  0  0  0  0  0  0  0  0  0
   37.4000   21.8850   33.6880 C   0  0  0  0  0  0  0  0  0  0  0  0
   36.4410   21.1910   33.0200 N   0  0  0  0  0  0  0  0  0  0  0  0
   35.6290   20.6570   33.9350 C   0  0  0  0  0  0  0  0  0  0  0  0
   36.0000   20.9600   35.2040 N   0  0  0  0  0  0  0  0  0  0  0  0
   39.7908   21.6686   35.3454 H   0  0  0  0  0  0  0  0  0  0  0  0
   41.0365   22.6760   37.3308 H   0  0  0  0  0  0  0  0  0  0  0  0
   37.3228   23.9188   38.9933 H   0  0  0  0  0  0  0  0  0  0  0  0
   38.2368   22.4548   33.2578 H   0  0  0  0  0  0  0  0  0  0  0  0
   34.7540   20.0384   33.6868 H   0  0  0  0  0  0  0  0  0  0  0  0
   35.5531   20.6782   36.0882 H   0  0  0  0  0  0  0  0  0  0  0  0
  1  2  2  0
  1  6  1  0
  2  3  1  0
  3  4  2  0
  5  4  1  0
  6  5  2  0
  7 11  1  0
  7  1  1  0
  8  7  2  0
  9  8  1  0
  9 10  2  0
 10 11  1  0
  2 12  1  0
  3 13  1  0
  5 14  1  0
  8 15  1  0
 10 16  1  0
 11 17  1  0
M  ISO  6  12  14  13  14  14  14  15  14  16  14  17   9
M  END
>  <minimizedAffinity>  (1) 
-3.37071824

>  <minimizedRMSD>  (1) 
5.50375128

$$$$
