
     RDKit          3D

 48 51  0  0  1  0  0  0  0  0999 V2000
   39.8960   22.8360   37.8190 C   0  0  0  0  0  0  0  0  0  0  0  0
   38.8030   23.3150   38.6080 C   0  0  0  0  0  0  0  0  0  0  0  0
   37.6610   23.8060   37.9490 C   0  0  0  0  0  0  0  0  0  0  0  0
   37.7320   23.7650   36.6090 N   0  0  0  0  0  0  0  0  0  0  0  0
   38.7390   23.3240   35.8590 C   0  0  0  0  0  0  0  0  0  0  0  0
   39.8250   22.8570   36.4840 N   0  0  0  0  0  0  0  0  0  0  0  0
   38.6500   23.3540   34.4400 N   0  0  0  0  0  0  0  0  0  0  0  0
   39.0200   22.1470   33.7650 C   0  0  0  0  0  0  0  0  0  0  0  0
   38.3210   21.9380   32.4730 C   0  0  0  0  0  0  0  0  0  0  0  0
   37.9920   23.2200   31.7340 C   0  0  0  0  0  0  0  0  0  0  0  0
   37.2720   24.1490   32.6690 C   0  0  0  0  0  0  0  0  0  0  0  0
   38.2080   24.5490   33.7720 C   0  0  1  0  0  0  0  0  0  0  0  0
   37.7120   25.5760   34.7110 C   0  0  0  0  0  0  0  0  0  0  0  0
   37.8110   26.9470   34.1380 C   0  0  2  0  0  0  0  0  0  0  0  0
   36.9400   28.0410   34.6600 C   0  0  0  0  0  0  0  0  0  0  0  0
   36.7150   27.4920   33.2570 C   0  0  1  0  0  0  0  0  0  0  0  0
   37.0680   28.4660   32.1720 C   0  0  0  0  0  0  0  0  0  0  0  0
   37.9030   27.8190   31.0750 C   0  0  0  0  0  0  0  0  0  0  0  0
   37.9290   28.9670   30.0590 C   0  0  0  0  0  0  0  0  0  0  0  0
   36.5830   29.6660   30.2370 C   0  0  0  0  0  0  0  0  0  0  0  0
   35.8980   28.9540   31.3910 C   0  0  0  0  0  0  0  0  0  0  0  0
   40.7992   22.4485   38.3130 H   0  0  0  0  0  0  0  0  0  0  0  0
   38.8543   23.2998   39.7067 H   0  0  0  0  0  0  0  0  0  0  0  0
   36.7826   24.1916   38.4872 H   0  0  0  0  0  0  0  0  0  0  0  0
   40.1024   22.1771   33.5715 H   0  0  0  0  0  0  0  0  0  0  0  0
   38.7294   21.3138   34.4218 H   0  0  0  0  0  0  0  0  0  0  0  0
   38.9646   21.3224   31.8274 H   0  0  0  0  0  0  0  0  0  0  0  0
   37.3627   21.4505   32.7055 H   0  0  0  0  0  0  0  0  0  0  0  0
   38.9213   23.6941   31.3853 H   0  0  0  0  0  0  0  0  0  0  0  0
   37.3544   22.9968   30.8659 H   0  0  0  0  0  0  0  0  0  0  0  0
   36.9438   25.0441   32.1203 H   0  0  0  0  0  0  0  0  0  0  0  0
   36.3913   23.6437   33.0920 H   0  0  0  0  0  0  0  0  0  0  0  0
   39.0533   25.0701   33.2988 H   0  0  0  0  0  0  0  0  0  0  0  0
   36.6585   25.3640   34.9458 H   0  0  0  0  0  0  0  0  0  0  0  0
   38.3354   25.5393   35.6165 H   0  0  0  0  0  0  0  0  0  0  0  0
   38.8960   26.8101   34.0195 H   0  0  0  0  0  0  0  0  0  0  0  0
   36.2108   27.8309   35.4563 H   0  0  0  0  0  0  0  0  0  0  0  0
   37.1166   29.0400   35.0853 H   0  0  0  0  0  0  0  0  0  0  0  0
   35.9036   27.0180   32.6853 H   0  0  0  0  0  0  0  0  0  0  0  0
   37.5749   29.2662   32.7312 H   0  0  0  0  0  0  0  0  0  0  0  0
   38.9126   27.5609   31.4272 H   0  0  0  0  0  0  0  0  0  0  0  0
   37.5106   26.8657   30.6913 H   0  0  0  0  0  0  0  0  0  0  0  0
   38.0327   28.5779   29.0353 H   0  0  0  0  0  0  0  0  0  0  0  0
   38.7781   29.6478   30.2189 H   0  0  0  0  0  0  0  0  0  0  0  0
   36.7319   30.7292   30.4768 H   0  0  0  0  0  0  0  0  0  0  0  0
   35.9793   29.6232   29.3185 H   0  0  0  0  0  0  0  0  0  0  0  0
   35.2808   29.6469   31.9817 H   0  0  0  0  0  0  0  0  0  0  0  0
   35.2025   28.1605   31.0802 H   0  0  0  0  0  0  0  0  0  0  0  0
  1  2  2  0
  3  2  1  0
  4  3  2  0
  5  6  2  0
  5  4  1  0
  6  1  1  0
  7  5  1  0
  8  7  1  0
  9  8  1  0
 10  9  1  0
 10 11  1  0
 11 12  1  0
 12  7  1  0
 12 13  1  0
 14 15  1  0
 14 13  1  0
 16 14  1  0
 16 15  1  0
 17 16  1  0
 18 17  1  0
 19 20  1  0
 19 18  1  0
 20 21  1  0
 21 17  1  0
  1 22  1  0
  2 23  1  0
  3 24  1  0
  8 25  1  0
  8 26  1  0
  9 27  1  0
  9 28  1  0
 10 29  1  0
 10 30  1  0
 11 31  1  0
 11 32  1  0
 12 33  1  6
 13 34  1  0
 13 35  1  0
 14 36  1  6
 15 37  1  0
 15 38  1  0
 16 39  1  1
 17 40  1  0
 18 41  1  0
 18 42  1  0
 19 43  1  0
 19 44  1  0
 20 45  1  0
 20 46  1  0
 21 47  1  0
 21 48  1  0
M  ISO  8  22  14  23  14  24  14  25  13  26  13  27  13  28  13  29  13
M  ISO  8  30  13  31  13  32  13  33  13  34   8  35   8  36  13  37  13
M  ISO  8  38  13  39  13  40  13  41  13  42  13  43  13  44  13  45  13
M  ISO  3  46  13  47  13  48  13
M  END
>  <minimizedAffinity>  (1) 
-5.28972912

>  <minimizedRMSD>  (1) 
0.567809343

$$$$
