
     RDKit          3D

 48 51  0  0  1  0  0  0  0  0999 V2000
   39.9180   22.8330   37.8990 C   0  0  0  0  0  0  0  0  0  0  0  0
   38.8340   23.3470   38.6780 C   0  0  0  0  0  0  0  0  0  0  0  0
   37.6960   23.8400   38.0120 C   0  0  0  0  0  0  0  0  0  0  0  0
   37.7650   23.7670   36.6750 N   0  0  0  0  0  0  0  0  0  0  0  0
   38.7620   23.2940   35.9330 C   0  0  0  0  0  0  0  0  0  0  0  0
   39.8440   22.8250   36.5640 N   0  0  0  0  0  0  0  0  0  0  0  0
   38.6750   23.2930   34.5080 N   0  0  0  0  0  0  0  0  0  0  0  0
   39.0320   22.0720   33.8590 C   0  0  0  0  0  0  0  0  0  0  0  0
   38.2600   21.8220   32.6150 C   0  0  0  0  0  0  0  0  0  0  0  0
   38.0060   23.0790   31.8170 C   0  0  0  0  0  0  0  0  0  0  0  0
   37.3230   24.0910   32.7010 C   0  0  0  0  0  0  0  0  0  0  0  0
   38.2480   24.4750   33.8150 C   0  0  1  0  0  0  0  0  0  0  0  0
   37.7580   25.5300   34.7340 C   0  0  0  0  0  0  0  0  0  0  0  0
   37.7990   26.8810   34.0990 C   0  0  2  0  0  0  0  0  0  0  0  0
   37.0730   28.0240   34.7180 C   0  0  0  0  0  0  0  0  0  0  0  0
   36.5580   27.4180   33.4030 C   0  0  1  0  0  0  0  0  0  0  0  0
   37.3620   29.9530   30.0100 C   0  0  0  0  0  0  0  0  0  0  0  0
   36.3460   30.2520   30.8800 C   0  0  0  0  0  0  0  0  0  0  0  0
   36.0550   29.4600   31.9860 C   0  0  0  0  0  0  0  0  0  0  0  0
   36.7880   28.3260   32.2540 C   0  0  0  0  0  0  0  0  0  0  0  0
   37.8030   28.0490   31.3630 C   0  0  0  0  0  0  0  0  0  0  0  0
   38.1220   28.8100   30.2540 C   0  0  0  0  0  0  0  0  0  0  0  0
   37.7810   30.9000   28.6060 S   0  0  0  0  0  0  0  0  0  0  0  0
   38.1660   30.0210   27.4440 O   0  0  0  0  0  0  0  0  0  0  0  0
   36.7250   31.8870   28.2340 O   0  0  0  0  0  0  0  0  0  0  0  0
   40.8160   22.4428   38.4002 H   0  0  0  0  0  0  0  0  0  0  0  0
   38.8886   23.3568   39.7766 H   0  0  0  0  0  0  0  0  0  0  0  0
   36.8245   24.2502   38.5432 H   0  0  0  0  0  0  0  0  0  0  0  0
   40.1015   22.1112   33.6046 H   0  0  0  0  0  0  0  0  0  0  0  0
   38.8023   21.2526   34.5560 H   0  0  0  0  0  0  0  0  0  0  0  0
   38.8244   21.1163   31.9877 H   0  0  0  0  0  0  0  0  0  0  0  0
   37.2814   21.4157   32.9104 H   0  0  0  0  0  0  0  0  0  0  0  0
   38.9622   23.4879   31.4585 H   0  0  0  0  0  0  0  0  0  0  0  0
   37.3659   22.8479   30.9528 H   0  0  0  0  0  0  0  0  0  0  0  0
   37.0681   24.9832   32.1102 H   0  0  0  0  0  0  0  0  0  0  0  0
   36.4025   23.6564   33.1179 H   0  0  0  0  0  0  0  0  0  0  0  0
   39.1108   24.9635   33.3386 H   0  0  0  0  0  0  0  0  0  0  0  0
   36.7201   25.3012   35.0177 H   0  0  0  0  0  0  0  0  0  0  0  0
   38.4144   25.5468   35.6165 H   0  0  0  0  0  0  0  0  0  0  0  0
   38.8434   26.7114   33.7982 H   0  0  0  0  0  0  0  0  0  0  0  0
   36.5074   27.8754   35.6497 H   0  0  0  0  0  0  0  0  0  0  0  0
   37.3548   29.0346   35.0487 H   0  0  0  0  0  0  0  0  0  0  0  0
   35.6350   26.9561   33.0227 H   0  0  0  0  0  0  0  0  0  0  0  0
   35.7387   31.1507   30.6971 H   0  0  0  0  0  0  0  0  0  0  0  0
   35.2289   29.7434   32.6547 H   0  0  0  0  0  0  0  0  0  0  0  0
   38.4080   27.1495   31.5498 H   0  0  0  0  0  0  0  0  0  0  0  0
   38.9479   28.5233   29.5864 H   0  0  0  0  0  0  0  0  0  0  0  0
   38.8822   31.6394   28.9489 H   0  0  0  0  0  0  0  0  0  0  0  0
  1  2  2  0
  3  2  1  0
  4  3  2  0
  5  6  2  0
  5  4  1  0
  6  1  1  0
  7  5  1  0
  8  7  1  0
  9  8  1  0
 10  9  1  0
 10 11  1  0
 11 12  1  0
 12  7  1  0
 12 13  1  0
 14 15  1  0
 14 13  1  0
 16 14  1  0
 16 15  1  0
 17 22  2  0
 17 18  1  0
 18 19  2  0
 19 20  1  0
 20 16  1  0
 21 20  2  0
 22 21  1  0
 23 17  1  0
 24 23  2  0
 25 23  2  0
  1 26  1  0
  2 27  1  0
  3 28  1  0
  8 29  1  0
  8 30  1  0
  9 31  1  0
  9 32  1  0
 10 33  1  0
 10 34  1  0
 11 35  1  0
 11 36  1  0
 12 37  1  6
 13 38  1  0
 13 39  1  0
 14 40  1  6
 15 41  1  0
 15 42  1  0
 16 43  1  1
 18 44  1  0
 19 45  1  0
 21 46  1  0
 22 47  1  0
 23 48  1  0
M  ISO  8  26  14  27  14  28  14  29  13  30  13  31  13  32  13  33  13
M  ISO  8  34  13  35  13  36  13  37  13  38   8  39   8  40  13  41  13
M  ISO  7  42  13  43  13  44  14  45  14  46  14  47  14  48  11
M  END
>  <minimizedAffinity>  (1) 
-5.57146025

>  <minimizedRMSD>  (1) 
0.523293376

$$$$
