
     RDKit          3D

 43 46  0  0  1  0  0  0  0  0999 V2000
   39.8900   22.8050   37.8600 C   0  0  0  0  0  0  0  0  0  0  0  0
   38.8350   23.3570   38.6480 C   0  0  0  0  0  0  0  0  0  0  0  0
   37.7190   23.8940   37.9890 C   0  0  0  0  0  0  0  0  0  0  0  0
   37.7710   23.8250   36.6490 N   0  0  0  0  0  0  0  0  0  0  0  0
   38.7450   23.3160   35.9000 C   0  0  0  0  0  0  0  0  0  0  0  0
   39.8050   22.8060   36.5300 N   0  0  0  0  0  0  0  0  0  0  0  0
   38.6440   23.3240   34.4840 N   0  0  0  0  0  0  0  0  0  0  0  0
   38.9260   22.0770   33.8400 C   0  0  0  0  0  0  0  0  0  0  0  0
   38.2350   21.9070   32.5360 C   0  0  0  0  0  0  0  0  0  0  0  0
   38.0270   23.1970   31.7740 C   0  0  0  0  0  0  0  0  0  0  0  0
   37.3370   24.1930   32.6780 C   0  0  0  0  0  0  0  0  0  0  0  0
   38.2800   24.5340   33.7910 C   0  0  1  0  0  0  0  0  0  0  0  0
   37.8350   25.6030   34.7200 C   0  0  0  0  0  0  0  0  0  0  0  0
   37.7850   26.9320   34.0580 C   0  0  2  0  0  0  0  0  0  0  0  0
   37.0850   28.0740   34.7060 C   0  0  0  0  0  0  0  0  0  0  0  0
   36.4950   27.4320   33.4480 C   0  0  1  0  0  0  0  0  0  0  0  0
   36.5570   28.3340   32.2660 C   0  0  0  0  0  0  0  0  0  0  0  0
   37.5970   28.1710   31.3670 C   0  0  0  0  0  0  0  0  0  0  0  0
   37.6130   29.0410   30.2730 C   0  0  0  0  0  0  0  0  0  0  0  0
   36.6800   29.9970   30.0760 N   0  0  0  0  0  0  0  0  0  0  0  0
   35.6840   30.1190   30.9790 C   0  0  0  0  0  0  0  0  0  0  0  0
   35.6340   29.2910   32.0570 N   0  0  0  0  0  0  0  0  0  0  0  0
   40.7759   22.3775   38.3523 H   0  0  0  0  0  0  0  0  0  0  0  0
   38.8959   23.3611   39.7463 H   0  0  0  0  0  0  0  0  0  0  0  0
   36.8682   24.3368   38.5277 H   0  0  0  0  0  0  0  0  0  0  0  0
   40.0107   22.0123   33.6690 H   0  0  0  0  0  0  0  0  0  0  0  0
   38.5570   21.2820   34.5047 H   0  0  0  0  0  0  0  0  0  0  0  0
   38.8371   21.2304   31.9117 H   0  0  0  0  0  0  0  0  0  0  0  0
   37.2354   21.5047   32.7570 H   0  0  0  0  0  0  0  0  0  0  0  0
   39.0002   23.5992   31.4560 H   0  0  0  0  0  0  0  0  0  0  0  0
   37.4077   23.0091   30.8845 H   0  0  0  0  0  0  0  0  0  0  0  0
   37.0847   25.1008   32.1104 H   0  0  0  0  0  0  0  0  0  0  0  0
   36.4071   23.7652   33.0808 H   0  0  0  0  0  0  0  0  0  0  0  0
   39.1629   24.9870   33.3164 H   0  0  0  0  0  0  0  0  0  0  0  0
   36.8304   25.3540   35.0924 H   0  0  0  0  0  0  0  0  0  0  0  0
   38.5621   25.6613   35.5433 H   0  0  0  0  0  0  0  0  0  0  0  0
   38.8054   26.7710   33.6801 H   0  0  0  0  0  0  0  0  0  0  0  0
   36.5895   27.9349   35.6782 H   0  0  0  0  0  0  0  0  0  0  0  0
   37.3694   29.0961   34.9967 H   0  0  0  0  0  0  0  0  0  0  0  0
   35.5680   26.9288   33.1359 H   0  0  0  0  0  0  0  0  0  0  0  0
   38.3684   27.3992   31.5059 H   0  0  0  0  0  0  0  0  0  0  0  0
   38.4247   28.9421   29.5372 H   0  0  0  0  0  0  0  0  0  0  0  0
   34.9111   30.8897   30.8427 H   0  0  0  0  0  0  0  0  0  0  0  0
  1  2  2  0
  3  2  1  0
  4  3  2  0
  5  6  2  0
  5  4  1  0
  6  1  1  0
  7  5  1  0
  8  7  1  0
  9  8  1  0
 10  9  1  0
 10 11  1  0
 11 12  1  0
 12  7  1  0
 12 13  1  0
 14 15  1  0
 14 13  1  0
 16 14  1  0
 16 15  1  0
 17 16  1  0
 18 17  2  0
 19 18  1  0
 20 19  2  0
 20 21  1  0
 21 22  2  0
 22 17  1  0
  1 23  1  0
  2 24  1  0
  3 25  1  0
  8 26  1  0
  8 27  1  0
  9 28  1  0
  9 29  1  0
 10 30  1  0
 10 31  1  0
 11 32  1  0
 11 33  1  0
 12 34  1  6
 13 35  1  0
 13 36  1  0
 14 37  1  6
 15 38  1  0
 15 39  1  0
 16 40  1  1
 18 41  1  0
 19 42  1  0
 21 43  1  0
M  ISO  8  23  14  24  14  25  14  26  13  27  13  28  13  29  13  30  13
M  ISO  8  31  13  32  13  33  13  34  13  35   8  36   8  37  13  38  13
M  ISO  5  39  13  40  13  41  14  42  14  43  14
M  END
>  <minimizedAffinity>  (1) 
-5.20563698

>  <minimizedRMSD>  (1) 
0.656901181

$$$$
