
     RDKit          3D

 47 49  0  0  1  0  0  0  0  0999 V2000
   39.9710   22.7990   37.9940 C   0  0  0  0  0  0  0  0  0  0  0  0
   38.8900   23.3750   38.7300 C   0  0  0  0  0  0  0  0  0  0  0  0
   37.7630   23.8400   38.0220 C   0  0  0  0  0  0  0  0  0  0  0  0
   37.8410   23.6800   36.6920 N   0  0  0  0  0  0  0  0  0  0  0  0
   38.8370   23.1470   35.9900 C   0  0  0  0  0  0  0  0  0  0  0  0
   39.9040   22.7070   36.6610 N   0  0  0  0  0  0  0  0  0  0  0  0
   38.7540   23.0590   34.5780 N   0  0  0  0  0  0  0  0  0  0  0  0
   39.0840   21.7850   34.0120 C   0  0  0  0  0  0  0  0  0  0  0  0
   38.3950   21.5060   32.7280 C   0  0  0  0  0  0  0  0  0  0  0  0
   38.1430   22.7280   31.8810 C   0  0  0  0  0  0  0  0  0  0  0  0
   37.4320   23.7710   32.7130 C   0  0  0  0  0  0  0  0  0  0  0  0
   38.3560   24.2180   33.8040 C   0  0  1  0  0  0  0  0  0  0  0  0
   37.8880   25.3320   34.6520 C   0  0  0  0  0  0  0  0  0  0  0  0
   37.9090   26.6290   33.9160 C   0  0  2  0  0  0  0  0  0  0  0  0
   37.0630   27.7590   34.4100 C   0  0  0  0  0  0  0  0  0  0  0  0
   36.7080   27.0580   33.1070 C   0  0  1  0  0  0  0  0  0  0  0  0
   36.8810   27.9250   31.9040 C   0  0  0  0  0  0  0  0  0  0  0  0
   36.1030   27.2570   30.7630 C   0  0  0  0  0  0  0  0  0  0  0  0
   36.3220   29.3110   32.0420 C   0  0  0  0  0  0  0  0  0  0  0  0
   38.3090   28.0130   31.4280 C   0  0  0  0  0  0  0  0  0  0  0  0
   40.8609   22.4301   38.5251 H   0  0  0  0  0  0  0  0  0  0  0  0
   38.9362   23.4539   39.8262 H   0  0  0  0  0  0  0  0  0  0  0  0
   36.8932   24.2955   38.5180 H   0  0  0  0  0  0  0  0  0  0  0  0
   40.1696   21.7533   33.8376 H   0  0  0  0  0  0  0  0  0  0  0  0
   38.7513   21.0193   34.7282 H   0  0  0  0  0  0  0  0  0  0  0  0
   39.0161   20.8072   32.1484 H   0  0  0  0  0  0  0  0  0  0  0  0
   37.4089   21.0906   32.9832 H   0  0  0  0  0  0  0  0  0  0  0  0
   37.5166   22.4554   31.0188 H   0  0  0  0  0  0  0  0  0  0  0  0
   39.1006   23.1321   31.5208 H   0  0  0  0  0  0  0  0  0  0  0  0
   37.1617   24.6294   32.0805 H   0  0  0  0  0  0  0  0  0  0  0  0
   36.5141   23.3468   33.1461 H   0  0  0  0  0  0  0  0  0  0  0  0
   39.2246   24.6704   33.3032 H   0  0  0  0  0  0  0  0  0  0  0  0
   36.8585   25.1237   34.9788 H   0  0  0  0  0  0  0  0  0  0  0  0
   38.5650   25.4153   35.5150 H   0  0  0  0  0  0  0  0  0  0  0  0
   38.9778   26.4969   33.6920 H   0  0  0  0  0  0  0  0  0  0  0  0
   36.4282   27.6232   35.2980 H   0  0  0  0  0  0  0  0  0  0  0  0
   37.2534   28.8014   34.7052 H   0  0  0  0  0  0  0  0  0  0  0  0
   35.8644   26.4997   32.6749 H   0  0  0  0  0  0  0  0  0  0  0  0
   35.3318   26.5949   31.1835 H   0  0  0  0  0  0  0  0  0  0  0  0
   35.6246   28.0300   30.1437 H   0  0  0  0  0  0  0  0  0  0  0  0
   36.7947   26.6672   30.1437 H   0  0  0  0  0  0  0  0  0  0  0  0
   36.2211   29.5612   33.1084 H   0  0  0  0  0  0  0  0  0  0  0  0
   37.0005   30.0298   31.5594 H   0  0  0  0  0  0  0  0  0  0  0  0
   35.3346   29.3579   31.5594 H   0  0  0  0  0  0  0  0  0  0  0  0
   38.9830   28.0545   32.2963 H   0  0  0  0  0  0  0  0  0  0  0  0
   38.5481   27.1279   30.8202 H   0  0  0  0  0  0  0  0  0  0  0  0
   38.4376   28.9208   30.8202 H   0  0  0  0  0  0  0  0  0  0  0  0
  1  2  2  0
  3  2  1  0
  4  3  2  0
  5  6  2  0
  5  4  1  0
  6  1  1  0
  7  5  1  0
  8  7  1  0
  9  8  1  0
 10 11  1  0
 10  9  1  0
 11 12  1  0
 12  7  1  0
 12 13  1  0
 14 15  1  0
 14 13  1  0
 16 14  1  0
 16 15  1  0
 17 19  1  0
 17 16  1  0
 18 17  1  0
 20 17  1  0
  1 21  1  0
  2 22  1  0
  3 23  1  0
  8 24  1  0
  8 25  1  0
  9 26  1  0
  9 27  1  0
 10 28  1  0
 10 29  1  0
 11 30  1  0
 11 31  1  0
 12 32  1  6
 13 33  1  0
 13 34  1  0
 14 35  1  6
 15 36  1  0
 15 37  1  0
 16 38  1  1
 18 39  1  0
 18 40  1  0
 18 41  1  0
 19 42  1  0
 19 43  1  0
 19 44  1  0
 20 45  1  0
 20 46  1  0
 20 47  1  0
M  ISO  8  21  14  22  14  23  14  24  13  25  13  26  13  27  13  28  13
M  ISO  8  29  13  30  13  31  13  32  13  33   8  34   8  35  13  36  13
M  ISO  8  37  13  38  13  39   8  40   8  41   8  42   8  43   8  44   8
M  ISO  3  45   8  46   8  47   8
M  END
>  <minimizedAffinity>  (1) 
-4.84157372

>  <minimizedRMSD>  (1) 
0.700065851

$$$$
