
     RDKit          3D

 38 40  0  0  1  0  0  0  0  0999 V2000
   39.8840   22.8420   37.8410 C   0  0  0  0  0  0  0  0  0  0  0  0
   38.8100   23.3610   38.6260 C   0  0  0  0  0  0  0  0  0  0  0  0
   37.6810   23.8700   37.9660 C   0  0  0  0  0  0  0  0  0  0  0  0
   37.7400   23.8090   36.6270 N   0  0  0  0  0  0  0  0  0  0  0  0
   38.7300   23.3300   35.8790 C   0  0  0  0  0  0  0  0  0  0  0  0
   39.8050   22.8460   36.5100 N   0  0  0  0  0  0  0  0  0  0  0  0
   38.6370   23.3380   34.4640 N   0  0  0  0  0  0  0  0  0  0  0  0
   38.9530   22.1030   33.8210 C   0  0  0  0  0  0  0  0  0  0  0  0
   38.3060   21.9340   32.4900 C   0  0  0  0  0  0  0  0  0  0  0  0
   38.0230   23.2030   31.7530 C   0  0  0  0  0  0  0  0  0  0  0  0
   37.3130   24.1730   32.6640 C   0  0  0  0  0  0  0  0  0  0  0  0
   38.2450   24.5440   33.7780 C   0  0  1  0  0  0  0  0  0  0  0  0
   37.7600   25.5940   34.7080 C   0  0  0  0  0  0  0  0  0  0  0  0
   37.7930   26.9370   34.0630 C   0  0  2  0  0  0  0  0  0  0  0  0
   36.9720   28.0580   34.6170 C   0  0  0  0  0  0  0  0  0  0  0  0
   36.5720   27.4170   33.2950 C   0  0  1  0  0  0  0  0  0  0  0  0
   36.7890   28.3450   32.1110 C   0  0  0  0  0  0  0  0  0  0  0  0
   36.0220   27.9980   31.0160 F   0  0  0  0  0  0  0  0  0  0  0  0
   36.4770   29.6560   32.3960 F   0  0  0  0  0  0  0  0  0  0  0  0
   38.1040   28.2000   31.7170 F   0  0  0  0  0  0  0  0  0  0  0  0
   40.7793   22.4376   38.3359 H   0  0  0  0  0  0  0  0  0  0  0  0
   38.8664   23.3618   39.7246 H   0  0  0  0  0  0  0  0  0  0  0  0
   36.8163   24.2860   38.5038 H   0  0  0  0  0  0  0  0  0  0  0  0
   40.0434   22.0520   33.6853 H   0  0  0  0  0  0  0  0  0  0  0  0
   38.5704   21.2990   34.4670 H   0  0  0  0  0  0  0  0  0  0  0  0
   38.9697   21.3185   31.8650 H   0  0  0  0  0  0  0  0  0  0  0  0
   37.3279   21.4694   32.6834 H   0  0  0  0  0  0  0  0  0  0  0  0
   38.9701   23.6472   31.4129 H   0  0  0  0  0  0  0  0  0  0  0  0
   37.3841   22.9849   30.8845 H   0  0  0  0  0  0  0  0  0  0  0  0
   37.0309   25.0742   32.0998 H   0  0  0  0  0  0  0  0  0  0  0  0
   36.4016   23.7112   33.0715 H   0  0  0  0  0  0  0  0  0  0  0  0
   39.1169   25.0291   33.3150 H   0  0  0  0  0  0  0  0  0  0  0  0
   36.7261   25.3626   35.0038 H   0  0  0  0  0  0  0  0  0  0  0  0
   38.4185   25.6126   35.5889 H   0  0  0  0  0  0  0  0  0  0  0  0
   38.8608   26.8096   33.8315 H   0  0  0  0  0  0  0  0  0  0  0  0
   36.3562   27.8959   35.5139 H   0  0  0  0  0  0  0  0  0  0  0  0
   37.1854   29.0854   34.9469 H   0  0  0  0  0  0  0  0  0  0  0  0
   35.7004   26.9008   32.8663 H   0  0  0  0  0  0  0  0  0  0  0  0
  1  2  2  0
  3  2  1  0
  4  3  2  0
  5  6  2  0
  5  4  1  0
  6  1  1  0
  7  5  1  0
  8  7  1  0
  9  8  1  0
 10  9  1  0
 10 11  1  0
 11 12  1  0
 12  7  1  0
 12 13  1  0
 14 15  1  0
 14 13  1  0
 16 14  1  0
 16 15  1  0
 17 19  1  0
 17 16  1  0
 18 17  1  0
 20 17  1  0
  1 21  1  0
  2 22  1  0
  3 23  1  0
  8 24  1  0
  8 25  1  0
  9 26  1  0
  9 27  1  0
 10 28  1  0
 10 29  1  0
 11 30  1  0
 11 31  1  0
 12 32  1  6
 13 33  1  0
 13 34  1  0
 14 35  1  6
 15 36  1  0
 15 37  1  0
 16 38  1  1
M  ISO  8  21  14  22  14  23  14  24  13  25  13  26  13  27  13  28  13
M  ISO  8  29  13  30  13  31  13  32  13  33   8  34   8  35  13  36  13
M  ISO  2  37  13  38  13
M  END
>  <minimizedAffinity>  (1) 
-4.92078257

>  <minimizedRMSD>  (1) 
0.31697759

$$$$
