
     RDKit          3D

 42 45  0  0  1  0  0  0  0  0999 V2000
   39.9140   22.8400   37.9060 C   0  0  0  0  0  0  0  0  0  0  0  0
   38.8370   23.3710   38.6770 C   0  0  0  0  0  0  0  0  0  0  0  0
   37.7050   23.8590   38.0030 C   0  0  0  0  0  0  0  0  0  0  0  0
   37.7690   23.7650   36.6650 N   0  0  0  0  0  0  0  0  0  0  0  0
   38.7640   23.2730   35.9300 C   0  0  0  0  0  0  0  0  0  0  0  0
   39.8370   22.8110   36.5730 N   0  0  0  0  0  0  0  0  0  0  0  0
   38.6720   23.2490   34.5130 N   0  0  0  0  0  0  0  0  0  0  0  0
   39.0040   22.0040   33.8900 C   0  0  0  0  0  0  0  0  0  0  0  0
   38.2750   21.7680   32.6150 C   0  0  0  0  0  0  0  0  0  0  0  0
   38.0130   23.0220   31.8180 C   0  0  0  0  0  0  0  0  0  0  0  0
   37.3270   24.0360   32.6980 C   0  0  0  0  0  0  0  0  0  0  0  0
   38.2610   24.4400   33.7990 C   0  0  1  0  0  0  0  0  0  0  0  0
   37.7920   25.5070   34.7030 C   0  0  0  0  0  0  0  0  0  0  0  0
   37.7970   26.8380   34.0400 C   0  0  2  0  0  0  0  0  0  0  0  0
   37.0670   27.9790   34.6750 C   0  0  0  0  0  0  0  0  0  0  0  0
   36.5460   27.3650   33.3750 C   0  0  1  0  0  0  0  0  0  0  0  0
   36.6800   28.2560   32.2380 N   0  0  0  0  0  0  0  0  0  0  0  0
   35.8020   29.2370   31.8750 C   0  0  0  0  0  0  0  0  0  0  0  0
   36.2180   29.9070   30.7450 C   0  0  0  0  0  0  0  0  0  0  0  0
   37.3790   29.3130   30.4240 N   0  0  0  0  0  0  0  0  0  0  0  0
   37.6320   28.3380   31.3200 C   0  0  0  0  0  0  0  0  0  0  0  0
   40.8111   22.4531   38.4115 H   0  0  0  0  0  0  0  0  0  0  0  0
   38.8919   23.3977   39.7753 H   0  0  0  0  0  0  0  0  0  0  0  0
   36.8369   24.2835   38.5286 H   0  0  0  0  0  0  0  0  0  0  0  0
   40.0839   21.9959   33.6808 H   0  0  0  0  0  0  0  0  0  0  0  0
   38.7090   21.2043   34.5853 H   0  0  0  0  0  0  0  0  0  0  0  0
   38.8731   21.0831   31.9960 H   0  0  0  0  0  0  0  0  0  0  0  0
   37.2935   21.3490   32.8818 H   0  0  0  0  0  0  0  0  0  0  0  0
   38.9668   23.4341   31.4568 H   0  0  0  0  0  0  0  0  0  0  0  0
   37.3699   22.7848   30.9577 H   0  0  0  0  0  0  0  0  0  0  0  0
   37.0570   24.9195   32.1009 H   0  0  0  0  0  0  0  0  0  0  0  0
   36.4144   23.5974   33.1278 H   0  0  0  0  0  0  0  0  0  0  0  0
   39.1215   24.9225   33.3125 H   0  0  0  0  0  0  0  0  0  0  0  0
   36.7664   25.2744   35.0257 H   0  0  0  0  0  0  0  0  0  0  0  0
   38.4777   25.5516   35.5620 H   0  0  0  0  0  0  0  0  0  0  0  0
   38.8303   26.6686   33.7028 H   0  0  0  0  0  0  0  0  0  0  0  0
   36.5171   27.8252   35.6152 H   0  0  0  0  0  0  0  0  0  0  0  0
   37.3412   28.9930   35.0015 H   0  0  0  0  0  0  0  0  0  0  0  0
   35.6297   26.8802   33.0070 H   0  0  0  0  0  0  0  0  0  0  0  0
   34.8738   29.4650   32.4195 H   0  0  0  0  0  0  0  0  0  0  0  0
   35.7154   30.7365   30.2259 H   0  0  0  0  0  0  0  0  0  0  0  0
   38.5202   27.6897   31.2924 H   0  0  0  0  0  0  0  0  0  0  0  0
  1  2  2  0
  3  2  1  0
  4  3  2  0
  5  6  2  0
  5  4  1  0
  6  1  1  0
  7  5  1  0
  8  7  1  0
  9  8  1  0
 10  9  1  0
 10 11  1  0
 11 12  1  0
 12  7  1  0
 12 13  1  0
 14 15  1  0
 14 13  1  0
 16 14  1  0
 16 15  1  0
 17 16  1  0
 18 17  1  0
 19 18  2  0
 20 19  1  0
 20 21  2  0
 21 17  1  0
  1 22  1  0
  2 23  1  0
  3 24  1  0
  8 25  1  0
  8 26  1  0
  9 27  1  0
  9 28  1  0
 10 29  1  0
 10 30  1  0
 11 31  1  0
 11 32  1  0
 12 33  1  6
 13 34  1  0
 13 35  1  0
 14 36  1  6
 15 37  1  0
 15 38  1  0
 16 39  1  1
 18 40  1  0
 19 41  1  0
 21 42  1  0
M  ISO  8  22  14  23  14  24  14  25  13  26  13  27  13  28  13  29  13
M  ISO  8  30  13  31  13  32  13  33  13  34   8  35   8  36  13  37  13
M  ISO  5  38  13  39  13  40  14  41  14  42  14
M  END
>  <minimizedAffinity>  (1) 
-4.90297413

>  <minimizedRMSD>  (1) 
0.627871037

$$$$
