
     RDKit          3D

 42 45  0  0  1  0  0  0  0  0999 V2000
   39.9020   22.8510   37.8410 C   0  0  0  0  0  0  0  0  0  0  0  0
   38.8190   23.3380   38.6390 C   0  0  0  0  0  0  0  0  0  0  0  0
   37.6740   23.8250   37.9810 C   0  0  0  0  0  0  0  0  0  0  0  0
   37.7330   23.7750   36.6410 N   0  0  0  0  0  0  0  0  0  0  0  0
   38.7320   23.3250   35.8880 C   0  0  0  0  0  0  0  0  0  0  0  0
   39.8220   22.8610   36.5060 N   0  0  0  0  0  0  0  0  0  0  0  0
   38.6330   23.3430   34.4690 N   0  0  0  0  0  0  0  0  0  0  0  0
   38.9590   22.1140   33.8160 C   0  0  0  0  0  0  0  0  0  0  0  0
   38.2990   21.9400   32.4980 C   0  0  0  0  0  0  0  0  0  0  0  0
   38.0450   23.2280   31.7530 C   0  0  0  0  0  0  0  0  0  0  0  0
   37.3060   24.1810   32.6640 C   0  0  0  0  0  0  0  0  0  0  0  0
   38.2270   24.5500   33.7860 C   0  0  1  0  0  0  0  0  0  0  0  0
   37.6990   25.5730   34.7390 C   0  0  0  0  0  0  0  0  0  0  0  0
   37.7980   26.9380   34.1460 C   0  0  2  0  0  0  0  0  0  0  0  0
   36.9080   28.0420   34.6130 C   0  0  0  0  0  0  0  0  0  0  0  0
   36.7110   27.4210   33.2220 C   0  0  1  0  0  0  0  0  0  0  0  0
   37.0250   28.3770   32.1220 C   0  0  0  0  0  0  0  0  0  0  0  0
   36.4680   28.3070   30.7690 C   0  0  0  0  0  0  0  0  0  0  0  0
   37.9380   28.0040   31.0230 C   0  0  0  0  0  0  0  0  0  0  0  0
   40.8086   22.4649   38.3298 H   0  0  0  0  0  0  0  0  0  0  0  0
   38.8795   23.3320   39.7373 H   0  0  0  0  0  0  0  0  0  0  0  0
   36.7997   24.2158   38.5223 H   0  0  0  0  0  0  0  0  0  0  0  0
   40.0481   22.0802   33.6652 H   0  0  0  0  0  0  0  0  0  0  0  0
   38.5971   21.3022   34.4641 H   0  0  0  0  0  0  0  0  0  0  0  0
   38.9413   21.3020   31.8731 H   0  0  0  0  0  0  0  0  0  0  0  0
   37.3139   21.4928   32.6968 H   0  0  0  0  0  0  0  0  0  0  0  0
   39.0034   23.6748   31.4500 H   0  0  0  0  0  0  0  0  0  0  0  0
   37.4425   23.0273   30.8548 H   0  0  0  0  0  0  0  0  0  0  0  0
   37.0164   25.0834   32.1056 H   0  0  0  0  0  0  0  0  0  0  0  0
   36.3937   23.7076   33.0561 H   0  0  0  0  0  0  0  0  0  0  0  0
   39.0939   25.0509   33.3304 H   0  0  0  0  0  0  0  0  0  0  0  0
   36.6451   25.3505   34.9619 H   0  0  0  0  0  0  0  0  0  0  0  0
   38.2961   25.5415   35.6623 H   0  0  0  0  0  0  0  0  0  0  0  0
   38.8894   26.8237   34.0696 H   0  0  0  0  0  0  0  0  0  0  0  0
   36.1713   27.8568   35.4085 H   0  0  0  0  0  0  0  0  0  0  0  0
   37.0647   29.0607   34.9974 H   0  0  0  0  0  0  0  0  0  0  0  0
   35.9351   26.8907   32.6505 H   0  0  0  0  0  0  0  0  0  0  0  0
   37.0022   29.1595   32.8948 H   0  0  0  0  0  0  0  0  0  0  0  0
   36.1770   29.2284   30.2433 H   0  0  0  0  0  0  0  0  0  0  0  0
   35.6302   27.7752   30.2943 H   0  0  0  0  0  0  0  0  0  0  0  0
   38.3138   26.9735   30.9403 H   0  0  0  0  0  0  0  0  0  0  0  0
   38.8969   28.3785   30.6354 H   0  0  0  0  0  0  0  0  0  0  0  0
  1  2  2  0
  3  2  1  0
  4  3  2  0
  5  6  2  0
  5  4  1  0
  6  1  1  0
  7  5  1  0
  8  7  1  0
  9  8  1  0
 10  9  1  0
 10 11  1  0
 11 12  1  0
 12  7  1  0
 12 13  1  0
 14 15  1  0
 14 13  1  0
 16 14  1  0
 16 15  1  0
 17 16  1  0
 18 19  1  0
 18 17  1  0
 19 17  1  0
  1 20  1  0
  2 21  1  0
  3 22  1  0
  8 23  1  0
  8 24  1  0
  9 25  1  0
  9 26  1  0
 10 27  1  0
 10 28  1  0
 11 29  1  0
 11 30  1  0
 12 31  1  6
 13 32  1  0
 13 33  1  0
 14 34  1  6
 15 35  1  0
 15 36  1  0
 16 37  1  6
 17 38  1  0
 18 39  1  0
 18 40  1  0
 19 41  1  0
 19 42  1  0
M  ISO  8  20  14  21  14  22  14  23  13  24  13  25  13  26  13  27  13
M  ISO  8  28  13  29  13  30  13  31  13  32   8  33   8  34  13  35  13
M  ISO  7  36  13  37  13  38  13  39  13  40  13  41  13  42  13
M  END
>  <minimizedAffinity>  (1) 
-4.85344744

>  <minimizedRMSD>  (1) 
0.70865345

$$$$
