
     RDKit          3D

 38 40  0  0  1  0  0  0  0  0999 V2000
   40.0290   22.7930   37.8690 C   0  0  0  0  0  0  0  0  0  0  0  0
   38.9130   23.2470   38.6330 C   0  0  0  0  0  0  0  0  0  0  0  0
   37.7390   23.6140   37.9520 C   0  0  0  0  0  0  0  0  0  0  0  0
   37.8070   23.4880   36.6180 N   0  0  0  0  0  0  0  0  0  0  0  0
   38.8380   23.0670   35.8920 C   0  0  0  0  0  0  0  0  0  0  0  0
   39.9470   22.7210   36.5390 N   0  0  0  0  0  0  0  0  0  0  0  0
   38.7440   22.9950   34.4700 N   0  0  0  0  0  0  0  0  0  0  0  0
   39.2030   21.7780   33.8750 C   0  0  0  0  0  0  0  0  0  0  0  0
   38.4930   21.4320   32.6170 C   0  0  0  0  0  0  0  0  0  0  0  0
   38.1110   22.6400   31.7870 C   0  0  0  0  0  0  0  0  0  0  0  0
   37.3190   23.5980   32.6440 C   0  0  0  0  0  0  0  0  0  0  0  0
   38.2140   24.1050   33.7300 C   0  0  1  0  0  0  0  0  0  0  0  0
   37.6430   25.1580   34.6080 C   0  0  0  0  0  0  0  0  0  0  0  0
   38.3360   26.4610   34.4100 C   0  0  2  0  0  0  0  0  0  0  0  0
   37.7240   27.7440   34.8550 C   0  0  0  0  0  0  0  0  0  0  0  0
   37.8710   27.4210   33.3610 C   0  0  2  0  0  0  0  0  0  0  0  0
   36.5660   27.3150   32.6560 C   0  0  0  0  0  0  0  0  0  0  0  0
   40.9597   22.5015   38.3777 H   0  0  0  0  0  0  0  0  0  0  0  0
   38.9697   23.3085   39.7298 H   0  0  0  0  0  0  0  0  0  0  0  0
   36.8385   23.9749   38.4705 H   0  0  0  0  0  0  0  0  0  0  0  0
   40.2754   21.8812   33.6531 H   0  0  0  0  0  0  0  0  0  0  0  0
   39.0030   20.9696   34.5936 H   0  0  0  0  0  0  0  0  0  0  0  0
   39.1488   20.7878   32.0129 H   0  0  0  0  0  0  0  0  0  0  0  0
   37.5585   20.9263   32.9015 H   0  0  0  0  0  0  0  0  0  0  0  0
   39.0209   23.1386   31.4217 H   0  0  0  0  0  0  0  0  0  0  0  0
   37.5025   22.3217   30.9277 H   0  0  0  0  0  0  0  0  0  0  0  0
   36.9642   24.4396   32.0309 H   0  0  0  0  0  0  0  0  0  0  0  0
   36.4473   23.0867   33.0785 H   0  0  0  0  0  0  0  0  0  0  0  0
   39.0301   24.6413   33.2237 H   0  0  0  0  0  0  0  0  0  0  0  0
   36.5754   25.2805   34.3731 H   0  0  0  0  0  0  0  0  0  0  0  0
   37.7778   24.8483   35.6549 H   0  0  0  0  0  0  0  0  0  0  0  0
   39.2893   25.9567   34.6264 H   0  0  0  0  0  0  0  0  0  0  0  0
   36.7289   27.7477   35.3237 H   0  0  0  0  0  0  0  0  0  0  0  0
   38.0325   28.5719   35.5103 H   0  0  0  0  0  0  0  0  0  0  0  0
   38.3702   27.7997   32.4569 H   0  0  0  0  0  0  0  0  0  0  0  0
   35.7542   27.2491   33.3953 H   0  0  0  0  0  0  0  0  0  0  0  0
   36.4165   28.2040   32.0256 H   0  0  0  0  0  0  0  0  0  0  0  0
   36.5620   26.4136   32.0256 H   0  0  0  0  0  0  0  0  0  0  0  0
  1  2  2  0
  3  2  1  0
  4  3  2  0
  5  6  2  0
  5  4  1  0
  6  1  1  0
  7  5  1  0
  8  7  1  0
  9  8  1  0
 10  9  1  0
 10 11  1  0
 11 12  1  0
 12  7  1  0
 12 13  1  0
 14 13  1  0
 14 15  1  0
 16 14  1  0
 16 15  1  0
 17 16  1  0
  1 18  1  0
  2 19  1  0
  3 20  1  0
  8 21  1  0
  8 22  1  0
  9 23  1  0
  9 24  1  0
 10 25  1  0
 10 26  1  0
 11 27  1  0
 11 28  1  0
 12 29  1  6
 13 30  1  0
 13 31  1  0
 14 32  1  6
 15 33  1  0
 15 34  1  0
 16 35  1  6
 17 36  1  0
 17 37  1  0
 17 38  1  0
M  ISO  8  18  14  19  14  20  14  21  13  22  13  23  13  24  13  25  13
M  ISO  8  26  13  27  13  28  13  29  13  30   8  31   8  32  13  33  13
M  ISO  5  34  13  35  13  36   8  37   8  38   8
M  END
>  <minimizedAffinity>  (1) 
-4.19649553

>  <minimizedRMSD>  (1) 
0.639399529

$$$$
