
     RDKit          3D

 36 38  0  0  1  0  0  0  0  0999 V2000
   40.0360   22.7810   37.8930 C   0  0  0  0  0  0  0  0  0  0  0  0
   38.9240   23.2340   38.6650 C   0  0  0  0  0  0  0  0  0  0  0  0
   37.7470   23.5990   37.9910 C   0  0  0  0  0  0  0  0  0  0  0  0
   37.8040   23.4760   36.6550 N   0  0  0  0  0  0  0  0  0  0  0  0
   38.8300   23.0550   35.9200 C   0  0  0  0  0  0  0  0  0  0  0  0
   39.9470   22.7100   36.5640 N   0  0  0  0  0  0  0  0  0  0  0  0
   38.7210   22.9860   34.5070 N   0  0  0  0  0  0  0  0  0  0  0  0
   39.1460   21.7500   33.9220 C   0  0  0  0  0  0  0  0  0  0  0  0
   38.5140   21.4520   32.6150 C   0  0  0  0  0  0  0  0  0  0  0  0
   38.1610   22.6770   31.8020 C   0  0  0  0  0  0  0  0  0  0  0  0
   37.3260   23.6020   32.6670 C   0  0  0  0  0  0  0  0  0  0  0  0
   38.2140   24.1070   33.7610 C   0  0  1  0  0  0  0  0  0  0  0  0
   37.6270   25.1470   34.6490 C   0  0  0  0  0  0  0  0  0  0  0  0
   38.4610   26.3850   34.6510 C   0  0  2  0  0  0  0  0  0  0  0  0
   37.9210   27.6780   35.1660 C   0  0  0  0  0  0  0  0  0  0  0  0
   38.1370   27.4880   33.6640 C   0  0  2  0  0  0  0  0  0  0  0  0
   36.6100   27.4640   32.7230 S   0  0  0  0  0  0  0  0  0  0  0  0
   40.9698   22.4894   38.3960 H   0  0  0  0  0  0  0  0  0  0  0  0
   38.9874   23.2957   39.7614 H   0  0  0  0  0  0  0  0  0  0  0  0
   36.8493   23.9573   38.5161 H   0  0  0  0  0  0  0  0  0  0  0  0
   40.2356   21.7925   33.7775 H   0  0  0  0  0  0  0  0  0  0  0  0
   38.8408   20.9500   34.6125 H   0  0  0  0  0  0  0  0  0  0  0  0
   39.2115   20.8373   32.0270 H   0  0  0  0  0  0  0  0  0  0  0  0
   37.5681   20.9345   32.8327 H   0  0  0  0  0  0  0  0  0  0  0  0
   39.0808   23.1920   31.4878 H   0  0  0  0  0  0  0  0  0  0  0  0
   37.5948   22.3850   30.9053 H   0  0  0  0  0  0  0  0  0  0  0  0
   36.9521   24.4442   32.0662 H   0  0  0  0  0  0  0  0  0  0  0  0
   36.4581   23.0695   33.0832 H   0  0  0  0  0  0  0  0  0  0  0  0
   39.0343   24.6463   33.2648 H   0  0  0  0  0  0  0  0  0  0  0  0
   36.6164   25.3952   34.2924 H   0  0  0  0  0  0  0  0  0  0  0  0
   37.5886   24.7500   35.6741 H   0  0  0  0  0  0  0  0  0  0  0  0
   39.3508   25.7851   34.8925 H   0  0  0  0  0  0  0  0  0  0  0  0
   36.9001   27.7241   35.5729 H   0  0  0  0  0  0  0  0  0  0  0  0
   38.2520   28.4164   35.9112 H   0  0  0  0  0  0  0  0  0  0  0  0
   38.7123   27.9439   32.8447 H   0  0  0  0  0  0  0  0  0  0  0  0
   35.5438   27.4472   33.5831 H   0  0  0  0  0  0  0  0  0  0  0  0
  1  2  2  0
  3  2  1  0
  4  3  2  0
  5  6  2  0
  5  4  1  0
  6  1  1  0
  7  5  1  0
  8  7  1  0
  9  8  1  0
 10  9  1  0
 10 11  1  0
 11 12  1  0
 12  7  1  0
 12 13  1  0
 13 14  1  0
 14 15  1  0
 16 14  1  0
 16 15  1  0
 17 16  1  0
  1 18  1  0
  2 19  1  0
  3 20  1  0
  8 21  1  0
  8 22  1  0
  9 23  1  0
  9 24  1  0
 10 25  1  0
 10 26  1  0
 11 27  1  0
 11 28  1  0
 12 29  1  6
 13 30  1  0
 13 31  1  0
 14 32  1  1
 15 33  1  0
 15 34  1  0
 16 35  1  6
 17 36  1  0
M  ISO  8  18  14  19  14  20  14  21  13  22  13  23  13  24  13  25  13
M  ISO  8  26  13  27  13  28  13  29  13  30   8  31   8  32  13  33  13
M  ISO  3  34  13  35  13  36  11
M  END
>  <minimizedAffinity>  (1) 
-4.05142593

>  <minimizedRMSD>  (1) 
0.764872432

$$$$
