
     RDKit          3D

 37 39  0  0  1  0  0  0  0  0999 V2000
   39.8900   22.8540   37.8220 C   0  0  0  0  0  0  0  0  0  0  0  0
   38.7980   23.3340   38.6110 C   0  0  0  0  0  0  0  0  0  0  0  0
   37.6520   23.8150   37.9500 C   0  0  0  0  0  0  0  0  0  0  0  0
   37.7190   23.7650   36.6110 N   0  0  0  0  0  0  0  0  0  0  0  0
   38.7260   23.3230   35.8620 C   0  0  0  0  0  0  0  0  0  0  0  0
   39.8110   22.8680   36.4910 N   0  0  0  0  0  0  0  0  0  0  0  0
   38.6350   23.3430   34.4460 N   0  0  0  0  0  0  0  0  0  0  0  0
   39.0020   22.1300   33.7810 C   0  0  0  0  0  0  0  0  0  0  0  0
   38.3240   21.9360   32.4740 C   0  0  0  0  0  0  0  0  0  0  0  0
   38.0280   23.2180   31.7320 C   0  0  0  0  0  0  0  0  0  0  0  0
   37.2760   24.1560   32.6510 C   0  0  0  0  0  0  0  0  0  0  0  0
   38.1920   24.5460   33.7700 C   0  0  1  0  0  0  0  0  0  0  0  0
   37.6900   25.5700   34.7100 C   0  0  0  0  0  0  0  0  0  0  0  0
   37.8070   26.9380   34.1330 C   0  0  2  0  0  0  0  0  0  0  0  0
   36.9470   28.0530   34.6380 C   0  0  0  0  0  0  0  0  0  0  0  0
   36.6850   27.4650   33.2500 C   0  0  1  0  0  0  0  0  0  0  0  0
   37.0470   28.3750   32.1620 N   0  0  0  0  0  0  0  0  0  0  0  0
   40.7968   22.4725   38.3141 H   0  0  0  0  0  0  0  0  0  0  0  0
   38.8524   23.3275   39.7096 H   0  0  0  0  0  0  0  0  0  0  0  0
   36.7731   24.2005   38.4876 H   0  0  0  0  0  0  0  0  0  0  0  0
   40.0885   22.1430   33.6098 H   0  0  0  0  0  0  0  0  0  0  0  0
   38.6890   21.2999   34.4314 H   0  0  0  0  0  0  0  0  0  0  0  0
   38.9706   21.3120   31.8396 H   0  0  0  0  0  0  0  0  0  0  0  0
   37.3536   21.4647   32.6889 H   0  0  0  0  0  0  0  0  0  0  0  0
   38.9712   23.6880   31.4167 H   0  0  0  0  0  0  0  0  0  0  0  0
   37.4183   23.0007   30.8426 H   0  0  0  0  0  0  0  0  0  0  0  0
   36.9644   25.0524   32.0948 H   0  0  0  0  0  0  0  0  0  0  0  0
   36.3782   23.6605   33.0490 H   0  0  0  0  0  0  0  0  0  0  0  0
   39.0401   25.0683   33.3032 H   0  0  0  0  0  0  0  0  0  0  0  0
   36.6326   25.3643   34.9328 H   0  0  0  0  0  0  0  0  0  0  0  0
   38.2964   25.5268   35.6267 H   0  0  0  0  0  0  0  0  0  0  0  0
   38.8928   26.8029   34.0199 H   0  0  0  0  0  0  0  0  0  0  0  0
   36.2342   27.8695   35.4554 H   0  0  0  0  0  0  0  0  0  0  0  0
   37.1375   29.0634   35.0289 H   0  0  0  0  0  0  0  0  0  0  0  0
   35.8512   26.9891   32.7131 H   0  0  0  0  0  0  0  0  0  0  0  0
   37.3987   29.2591   32.5565 H   0  0  0  0  0  0  0  0  0  0  0  0
   37.7799   27.9423   31.5820 H   0  0  0  0  0  0  0  0  0  0  0  0
  1  2  2  0
  3  2  1  0
  4  3  2  0
  5  6  2  0
  5  4  1  0
  6  1  1  0
  7  5  1  0
  8  7  1  0
  9  8  1  0
 10  9  1  0
 10 11  1  0
 11 12  1  0
 12  7  1  0
 12 13  1  0
 14 15  1  0
 14 13  1  0
 16 14  1  0
 16 15  1  0
 17 16  1  0
  1 18  1  0
  2 19  1  0
  3 20  1  0
  8 21  1  0
  8 22  1  0
  9 23  1  0
  9 24  1  0
 10 25  1  0
 10 26  1  0
 11 27  1  0
 11 28  1  0
 12 29  1  6
 13 30  1  0
 13 31  1  0
 14 32  1  6
 15 33  1  0
 15 34  1  0
 16 35  1  1
 17 36  1  0
 17 37  1  0
M  ISO  8  18  14  19  14  20  14  21  13  22  13  23  13  24  13  25  13
M  ISO  8  26  13  27  13  28  13  29  13  30   8  31   8  32  13  33  13
M  ISO  4  34  13  35  13  36   5  37   5
M  END
>  <minimizedAffinity>  (1) 
-4.40104008

>  <minimizedRMSD>  (1) 
0.0913511813

$$$$
