
     RDKit          3D

 36 38  0  0  1  0  0  0  0  0999 V2000
   39.9350   22.8870   37.8770 C   0  0  0  0  0  0  0  0  0  0  0  0
   38.8010   23.3330   38.6230 C   0  0  0  0  0  0  0  0  0  0  0  0
   37.6340   23.6800   37.9170 C   0  0  0  0  0  0  0  0  0  0  0  0
   37.7280   23.5460   36.5840 N   0  0  0  0  0  0  0  0  0  0  0  0
   38.7760   23.1330   35.8780 C   0  0  0  0  0  0  0  0  0  0  0  0
   39.8780   22.8050   36.5440 N   0  0  0  0  0  0  0  0  0  0  0  0
   38.7040   23.0510   34.4590 N   0  0  0  0  0  0  0  0  0  0  0  0
   39.1770   21.8300   33.8800 C   0  0  0  0  0  0  0  0  0  0  0  0
   38.4990   21.4760   32.6060 C   0  0  0  0  0  0  0  0  0  0  0  0
   38.1130   22.6690   31.7630 C   0  0  0  0  0  0  0  0  0  0  0  0
   37.3050   23.6280   32.6060 C   0  0  0  0  0  0  0  0  0  0  0  0
   38.1770   24.1600   33.7010 C   0  0  1  0  0  0  0  0  0  0  0  0
   37.5880   25.2090   34.5630 C   0  0  0  0  0  0  0  0  0  0  0  0
   38.1130   26.5570   34.2220 C   0  0  2  0  0  0  0  0  0  0  0  0
   37.3470   27.7890   34.5610 C   0  0  0  0  0  0  0  0  0  0  0  0
   37.4910   27.3500   33.0940 C   0  0  2  0  0  0  0  0  0  0  0  0
   36.3210   26.9640   32.4930 O   0  0  0  0  0  0  0  0  0  0  0  0
   40.8605   22.6094   38.4027 H   0  0  0  0  0  0  0  0  0  0  0  0
   38.8391   23.4033   39.7201 H   0  0  0  0  0  0  0  0  0  0  0  0
   36.7194   24.0323   38.4163 H   0  0  0  0  0  0  0  0  0  0  0  0
   40.2546   21.9321   33.6842 H   0  0  0  0  0  0  0  0  0  0  0  0
   38.9576   21.0256   34.5975 H   0  0  0  0  0  0  0  0  0  0  0  0
   39.1782   20.8418   32.0174 H   0  0  0  0  0  0  0  0  0  0  0  0
   37.5650   20.9609   32.8750 H   0  0  0  0  0  0  0  0  0  0  0  0
   39.0209   23.1727   31.3996 H   0  0  0  0  0  0  0  0  0  0  0  0
   37.5144   22.3369   30.9020 H   0  0  0  0  0  0  0  0  0  0  0  0
   36.9480   24.4595   31.9806 H   0  0  0  0  0  0  0  0  0  0  0  0
   36.4381   23.1067   33.0383 H   0  0  0  0  0  0  0  0  0  0  0  0
   38.9901   24.7087   33.2032 H   0  0  0  0  0  0  0  0  0  0  0  0
   36.4959   25.2076   34.4312 H   0  0  0  0  0  0  0  0  0  0  0  0
   37.8585   24.9886   35.6062 H   0  0  0  0  0  0  0  0  0  0  0  0
   39.1292   26.2039   34.4515 H   0  0  0  0  0  0  0  0  0  0  0  0
   36.3730   27.7098   35.0660 H   0  0  0  0  0  0  0  0  0  0  0  0
   37.5629   28.7099   35.1226 H   0  0  0  0  0  0  0  0  0  0  0  0
   37.8932   27.7405   32.1476 H   0  0  0  0  0  0  0  0  0  0  0  0
   35.6507   26.7429   33.1872 H   0  0  0  0  0  0  0  0  0  0  0  0
  1  2  2  0
  3  2  1  0
  4  3  2  0
  5  6  2  0
  5  4  1  0
  6  1  1  0
  7  5  1  0
  8  7  1  0
  9  8  1  0
 10  9  1  0
 10 11  1  0
 11 12  1  0
 12  7  1  0
 12 13  1  0
 14 15  1  0
 14 13  1  0
 16 14  1  0
 16 15  1  0
 17 16  1  0
  1 18  1  0
  2 19  1  0
  3 20  1  0
  8 21  1  0
  8 22  1  0
  9 23  1  0
  9 24  1  0
 10 25  1  0
 10 26  1  0
 11 27  1  0
 11 28  1  0
 12 29  1  6
 13 30  1  0
 13 31  1  0
 14 32  1  6
 15 33  1  0
 15 34  1  0
 16 35  1  6
 17 36  1  0
M  ISO  8  18  14  19  14  20  14  21  13  22  13  23  13  24  13  25  13
M  ISO  8  26  13  27  13  28  13  29  13  30   8  31   8  32  13  33  13
M  ISO  3  34  13  35  13  36   3
M  END
>  <minimizedAffinity>  (1) 
-4.15128088

>  <minimizedRMSD>  (1) 
0.515451431

$$$$
