
     RDKit          3D

 37 39  0  0  1  0  0  0  0  0999 V2000
   39.8960   22.8540   37.8410 C   0  0  0  0  0  0  0  0  0  0  0  0
   38.8100   23.3480   38.6310 C   0  0  0  0  0  0  0  0  0  0  0  0
   37.6670   23.8370   37.9720 C   0  0  0  0  0  0  0  0  0  0  0  0
   37.7300   23.7820   36.6310 N   0  0  0  0  0  0  0  0  0  0  0  0
   38.7330   23.3250   35.8870 C   0  0  0  0  0  0  0  0  0  0  0  0
   39.8250   22.8570   36.5070 N   0  0  0  0  0  0  0  0  0  0  0  0
   38.6390   23.3380   34.4630 N   0  0  0  0  0  0  0  0  0  0  0  0
   38.9710   22.1050   33.8160 C   0  0  0  0  0  0  0  0  0  0  0  0
   38.2800   21.9080   32.5160 C   0  0  0  0  0  0  0  0  0  0  0  0
   38.0360   23.1920   31.7500 C   0  0  0  0  0  0  0  0  0  0  0  0
   37.3140   24.1650   32.6500 C   0  0  0  0  0  0  0  0  0  0  0  0
   38.2320   24.5370   33.7750 C   0  0  1  0  0  0  0  0  0  0  0  0
   37.7190   25.5680   34.7130 C   0  0  0  0  0  0  0  0  0  0  0  0
   37.7820   26.9310   34.1190 C   0  0  2  0  0  0  0  0  0  0  0  0
   36.9640   28.0500   34.6810 C   0  0  0  0  0  0  0  0  0  0  0  0
   36.5950   27.4450   33.3120 C   0  0  1  0  0  0  0  0  0  0  0  0
   36.9440   28.3400   32.1760 C   0  0  0  0  0  0  0  0  0  0  0  0
   36.5190   27.4500   31.4270 O   0  0  0  0  0  0  0  0  0  0  0  0
   40.7986   22.4678   38.3372 H   0  0  0  0  0  0  0  0  0  0  0  0
   38.8675   23.3455   39.7295 H   0  0  0  0  0  0  0  0  0  0  0  0
   36.7931   24.2321   38.5107 H   0  0  0  0  0  0  0  0  0  0  0  0
   40.0564   22.0872   33.6386 H   0  0  0  0  0  0  0  0  0  0  0  0
   38.6412   21.2937   34.4816 H   0  0  0  0  0  0  0  0  0  0  0  0
   38.8975   21.2447   31.8925 H   0  0  0  0  0  0  0  0  0  0  0  0
   37.2929   21.4778   32.7409 H   0  0  0  0  0  0  0  0  0  0  0  0
   38.9977   23.6232   31.4352 H   0  0  0  0  0  0  0  0  0  0  0  0
   37.4268   22.9851   30.8578 H   0  0  0  0  0  0  0  0  0  0  0  0
   37.0401   25.0653   32.0804 H   0  0  0  0  0  0  0  0  0  0  0  0
   36.3966   23.7051   33.0462 H   0  0  0  0  0  0  0  0  0  0  0  0
   39.0994   25.0328   33.3147 H   0  0  0  0  0  0  0  0  0  0  0  0
   36.6730   25.3352   34.9616 H   0  0  0  0  0  0  0  0  0  0  0  0
   38.3497   25.5566   35.6142 H   0  0  0  0  0  0  0  0  0  0  0  0
   38.8567   26.7979   33.9260 H   0  0  0  0  0  0  0  0  0  0  0  0
   36.3163   27.8732   35.5523 H   0  0  0  0  0  0  0  0  0  0  0  0
   37.1831   29.0634   35.0484 H   0  0  0  0  0  0  0  0  0  0  0  0
   35.7108   26.9812   32.8504 H   0  0  0  0  0  0  0  0  0  0  0  0
   37.3823   29.3417   32.0555 H   0  0  0  0  0  0  0  0  0  0  0  0
  1  2  2  0
  3  2  1  0
  4  3  2  0
  5  6  2  0
  5  4  1  0
  6  1  1  0
  7  5  1  0
  8  7  1  0
  9  8  1  0
 10  9  1  0
 10 11  1  0
 11 12  1  0
 12  7  1  0
 12 13  1  0
 14 15  1  0
 14 13  1  0
 16 14  1  0
 16 15  1  0
 17 16  1  0
 18 17  2  0
  1 19  1  0
  2 20  1  0
  3 21  1  0
  8 22  1  0
  8 23  1  0
  9 24  1  0
  9 25  1  0
 10 26  1  0
 10 27  1  0
 11 28  1  0
 11 29  1  0
 12 30  1  6
 13 31  1  0
 13 32  1  0
 14 33  1  6
 15 34  1  0
 15 35  1  0
 16 36  1  1
 17 37  1  0
M  ISO  8  19  14  20  14  21  14  22  13  23  13  24  13  25  13  26  13
M  ISO  8  27  13  28  13  29  13  30  13  31   8  32   8  33  13  34  13
M  ISO  3  35  13  36  13  37   6
M  END
>  <minimizedAffinity>  (1) 
-4.40483856

>  <minimizedRMSD>  (1) 
0.0967454985

$$$$
