
     RDKit          3D

 23 25  0  0  0  0  0  0  0  0999 V2000
   40.0350   22.6680   37.6740 C   0  0  0  0  0  0  0  0  0  0  0  0
   39.1790   23.3360   38.5900 C   0  0  0  0  0  0  0  0  0  0  0  0
   37.8850   23.6390   38.1700 C   0  0  0  0  0  0  0  0  0  0  0  0
   37.4920   23.2850   36.9020 N   0  0  0  0  0  0  0  0  0  0  0  0
   38.3610   22.6490   36.0780 C   0  0  0  0  0  0  0  0  0  0  0  0
   39.6090   22.3430   36.4490 N   0  0  0  0  0  0  0  0  0  0  0  0
   37.7870   22.3340   34.7360 C   0  0  0  0  0  0  0  0  0  0  0  0
   38.2040   22.9880   33.5790 C   0  0  0  0  0  0  0  0  0  0  0  0
   37.0940   22.1130   32.3340 S   0  0  0  0  0  0  0  0  0  0  0  0
   36.3050   21.0410   33.6940 C   0  0  0  0  0  0  0  0  0  0  0  0
   36.8700   21.4070   34.7220 N   0  0  0  0  0  0  0  0  0  0  0  0
   35.2390   20.0220   33.3840 C   0  0  0  0  0  0  0  0  0  0  0  0
   35.6370   18.7700   32.6770 C   0  0  0  0  0  0  0  0  0  0  0  0
   34.7770   19.8280   31.9960 C   0  0  0  0  0  0  0  0  0  0  0  0
   41.0618   22.4148   37.9765 H   0  0  0  0  0  0  0  0  0  0  0  0
   39.5263   23.6055   39.5984 H   0  0  0  0  0  0  0  0  0  0  0  0
   37.1870   24.1552   38.8455 H   0  0  0  0  0  0  0  0  0  0  0  0
   38.9557   23.7781   33.4355 H   0  0  0  0  0  0  0  0  0  0  0  0
   34.7228   20.2519   34.3278 H   0  0  0  0  0  0  0  0  0  0  0  0
   36.6805   18.6186   32.3637 H   0  0  0  0  0  0  0  0  0  0  0  0
   35.5462   17.6920   32.8761 H   0  0  0  0  0  0  0  0  0  0  0  0
   35.1968   20.4409   31.1847 H   0  0  0  0  0  0  0  0  0  0  0  0
   33.7996   19.8323   31.4914 H   0  0  0  0  0  0  0  0  0  0  0  0
  1  2  2  0
  3  2  1  0
  4  3  2  0
  5  6  2  0
  5  4  1  0
  6  1  1  0
  7  5  1  0
  8  7  2  0
  9  8  1  0
  9 10  1  0
 10 11  2  0
 11  7  1  0
 12 10  1  0
 13 12  1  0
 14 13  1  0
 14 12  1  0
  1 15  1  0
  2 16  1  0
  3 17  1  0
  8 18  1  0
 12 19  1  0
 13 20  1  0
 13 21  1  0
 14 22  1  0
 14 23  1  0
M  ISO  8  15  14  16  14  17  14  18  14  19  13  20  13  21  13  22  13
M  ISO  1  23  13
M  END
>  <minimizedAffinity>  (1) 
-4.41304827

>  <minimizedRMSD>  (1) 
0.932817876

$$$$
