
     RDKit          3D

 25 26  0  0  0  0  0  0  0  0999 V2000
   40.0050   22.7660   37.8360 C   0  0  0  0  0  0  0  0  0  0  0  0
   38.9530   23.3630   38.5830 C   0  0  0  0  0  0  0  0  0  0  0  0
   37.7000   23.4880   37.9880 C   0  0  0  0  0  0  0  0  0  0  0  0
   37.5500   23.0260   36.7090 N   0  0  0  0  0  0  0  0  0  0  0  0
   38.5790   22.4620   36.0330 C   0  0  0  0  0  0  0  0  0  0  0  0
   39.7920   22.3320   36.5840 N   0  0  0  0  0  0  0  0  0  0  0  0
   38.2300   22.0170   34.6540 C   0  0  0  0  0  0  0  0  0  0  0  0
   39.1280   22.1290   33.5850 C   0  0  0  0  0  0  0  0  0  0  0  0
   38.0630   21.4090   32.2210 S   0  0  0  0  0  0  0  0  0  0  0  0
   36.6040   21.1110   33.4320 C   0  0  0  0  0  0  0  0  0  0  0  0
   37.0330   21.5200   34.5100 N   0  0  0  0  0  0  0  0  0  0  0  0
   35.3650   20.5090   32.9000 C   0  0  0  0  0  0  0  0  0  0  0  0
   35.3490   19.0100   32.9320 C   0  0  0  0  0  0  0  0  0  0  0  0
   35.1520   21.0710   31.5240 C   0  0  0  0  0  0  0  0  0  0  0  0
   41.0021   22.6589   38.2880 H   0  0  0  0  0  0  0  0  0  0  0  0
   39.1251   23.7188   39.6095 H   0  0  0  0  0  0  0  0  0  0  0  0
   36.8577   23.9437   38.5292 H   0  0  0  0  0  0  0  0  0  0  0  0
   40.1546   22.5230   33.5549 H   0  0  0  0  0  0  0  0  0  0  0  0
   34.5232   20.7760   33.5558 H   0  0  0  0  0  0  0  0  0  0  0  0
   35.3453   18.6656   33.9767 H   0  0  0  0  0  0  0  0  0  0  0  0
   34.4469   18.6420   32.4214 H   0  0  0  0  0  0  0  0  0  0  0  0
   36.2431   18.6228   32.4214 H   0  0  0  0  0  0  0  0  0  0  0  0
   34.7632   22.0969   31.6031 H   0  0  0  0  0  0  0  0  0  0  0  0
   36.1082   21.0822   30.9804 H   0  0  0  0  0  0  0  0  0  0  0  0
   34.4285   20.4456   30.9804 H   0  0  0  0  0  0  0  0  0  0  0  0
  1  2  2  0
  3  2  1  0
  4  3  2  0
  5  6  2  0
  5  4  1  0
  6  1  1  0
  7  5  1  0
  8  7  2  0
  9 10  1  0
  9  8  1  0
 10 11  2  0
 11  7  1  0
 12 13  1  0
 12 10  1  0
 14 12  1  0
  1 15  1  0
  2 16  1  0
  3 17  1  0
  8 18  1  0
 12 19  1  0
 13 20  1  0
 13 21  1  0
 13 22  1  0
 14 23  1  0
 14 24  1  0
 14 25  1  0
M  ISO  8  15  14  16  14  17  14  18  14  19   8  20   8  21   8  22   8
M  ISO  3  23   8  24   8  25   8
M  END
>  <minimizedAffinity>  (1) 
-4.37790871

>  <minimizedRMSD>  (1) 
1.24418306

$$$$
