
     RDKit          3D

 19 20  0  0  0  0  0  0  0  0999 V2000
   38.0050   24.7340   34.9340 C   0  0  0  0  0  0  0  0  0  0  0  0
   38.4790   23.5610   34.3780 C   0  0  0  0  0  0  0  0  0  0  0  0
   38.8280   22.5880   35.9480 S   0  0  0  0  0  0  0  0  0  0  0  0
   38.2310   24.0520   37.0470 C   0  0  0  0  0  0  0  0  0  0  0  0
   37.9130   24.8990   36.2250 N   0  0  0  0  0  0  0  0  0  0  0  0
   37.2880   27.0530   32.1210 C   0  0  0  0  0  0  0  0  0  0  0  0
   36.6880   28.1260   32.7990 C   0  0  0  0  0  0  0  0  0  0  0  0
   36.5440   28.0320   34.1810 C   0  0  0  0  0  0  0  0  0  0  0  0
   36.9970   26.8980   34.8080 N   0  0  0  0  0  0  0  0  0  0  0  0
   37.5630   25.9000   34.1140 C   0  0  0  0  0  0  0  0  0  0  0  0
   37.7230   25.9480   32.7690 N   0  0  0  0  0  0  0  0  0  0  0  0
   38.2810   23.8480   38.4980 C   0  0  0  0  0  0  0  0  0  0  0  0
   37.8920   24.9760   39.2050 F   0  0  0  0  0  0  0  0  0  0  0  0
   37.3060   22.8880   38.7920 F   0  0  0  0  0  0  0  0  0  0  0  0
   39.4910   23.4490   38.9820 F   0  0  0  0  0  0  0  0  0  0  0  0
   38.6131   23.2788   33.3233 H   0  0  0  0  0  0  0  0  0  0  0  0
   37.4081   27.1126   31.0292 H   0  0  0  0  0  0  0  0  0  0  0  0
   36.3413   29.0162   32.2538 H   0  0  0  0  0  0  0  0  0  0  0  0
   36.0788   28.8463   34.7559 H   0  0  0  0  0  0  0  0  0  0  0  0
  1  5  1  0
  2  1  2  0
  2  3  1  0
  3  4  1  0
  4 12  1  0
  5  4  2  0
  6 11  2  0
  6  7  1  0
  7  8  2  0
  8  9  1  0
 10  9  2  0
 10  1  1  0
 11 10  1  0
 12 14  1  0
 12 15  1  0
 12 13  1  0
  2 16  1  0
  6 17  1  0
  7 18  1  0
  8 19  1  0
M  ISO  4  16  14  17  14  18  14  19  14
M  END
>  <minimizedAffinity>  (1) 
-4.75323868

>  <minimizedRMSD>  (1) 
5.92988682

$$$$
