
     RDKit          3D

 17 18  0  0  0  0  0  0  0  0999 V2000
   40.0070   22.6820   37.6800 C   0  0  0  0  0  0  0  0  0  0  0  0
   39.1240   23.2980   38.6100 C   0  0  0  0  0  0  0  0  0  0  0  0
   37.8510   23.6660   38.1820 C   0  0  0  0  0  0  0  0  0  0  0  0
   37.5210   23.4110   36.8780 N   0  0  0  0  0  0  0  0  0  0  0  0
   38.3820   22.8270   36.0290 C   0  0  0  0  0  0  0  0  0  0  0  0
   39.6260   22.4550   36.4090 N   0  0  0  0  0  0  0  0  0  0  0  0
   37.8570   22.6240   34.6480 C   0  0  0  0  0  0  0  0  0  0  0  0
   38.1420   23.5030   33.6000 C   0  0  0  0  0  0  0  0  0  0  0  0
   37.1890   22.6470   32.2300 S   0  0  0  0  0  0  0  0  0  0  0  0
   36.6080   21.2660   33.4070 C   0  0  0  0  0  0  0  0  0  0  0  0
   37.1120   21.5660   34.4870 N   0  0  0  0  0  0  0  0  0  0  0  0
   35.5330   19.8620   32.8970 S   0  0  0  0  0  0  0  0  0  0  0  0
   41.0158   22.3869   38.0043 H   0  0  0  0  0  0  0  0  0  0  0  0
   39.4409   23.4801   39.6475 H   0  0  0  0  0  0  0  0  0  0  0  0
   37.1359   24.1446   38.8673 H   0  0  0  0  0  0  0  0  0  0  0  0
   38.7453   24.4227   33.5834 H   0  0  0  0  0  0  0  0  0  0  0  0
   35.0486   19.2294   34.0115 H   0  0  0  0  0  0  0  0  0  0  0  0
  1  2  2  0
  3  2  1  0
  4  3  2  0
  5  6  2  0
  5  4  1  0
  6  1  1  0
  7  5  1  0
  8  7  2  0
  9 10  1  0
  9  8  1  0
 10 11  2  0
 11  7  1  0
 12 10  1  0
  1 13  1  0
  2 14  1  0
  3 15  1  0
  8 16  1  0
 12 17  1  0
M  ISO  5  13  14  14  14  15  14  16  14  17  11
M  END
>  <minimizedAffinity>  (1) 
-3.67291451

>  <minimizedRMSD>  (1) 
1.08859694

$$$$
