
     RDKit          3D

 29 31  0  0  0  0  0  0  0  0999 V2000
   38.0570   24.3590   34.7640 C   0  0  0  0  0  0  0  0  0  0  0  0
   37.8240   25.7010   34.4510 C   0  0  0  0  0  0  0  0  0  0  0  0
   37.3410   25.4900   32.6540 S   0  0  0  0  0  0  0  0  0  0  0  0
   37.5690   23.6050   32.7410 C   0  0  0  0  0  0  0  0  0  0  0  0
   37.9160   23.4070   33.8970 N   0  0  0  0  0  0  0  0  0  0  0  0
   39.8190   22.8120   37.6550 C   0  0  0  0  0  0  0  0  0  0  0  0
   39.0280   23.3160   38.7380 C   0  0  0  0  0  0  0  0  0  0  0  0
   37.9470   24.1470   38.4420 C   0  0  0  0  0  0  0  0  0  0  0  0
   37.7060   24.4310   37.1330 N   0  0  0  0  0  0  0  0  0  0  0  0
   38.4810   23.9320   36.1270 C   0  0  0  0  0  0  0  0  0  0  0  0
   39.5340   23.1270   36.3590 N   0  0  0  0  0  0  0  0  0  0  0  0
   37.3080   22.7830   31.5210 C   0  0  0  0  0  0  0  0  0  0  0  0
   36.6130   21.5650   31.7940 N   0  0  0  0  0  0  0  0  0  0  0  0
   35.2970   21.4240   32.0450 C   0  0  0  0  0  0  0  0  0  0  0  0
   34.7250   20.1910   32.2970 C   0  0  0  0  0  0  0  0  0  0  0  0
   35.5020   19.0460   32.3010 C   0  0  0  0  0  0  0  0  0  0  0  0
   35.0630   17.8870   32.5210 O   0  0  0  0  0  0  0  0  0  0  0  0
   36.8050   19.1860   32.0520 N   0  0  0  0  0  0  0  0  0  0  0  0
   37.3250   20.4010   31.8110 C   0  0  0  0  0  0  0  0  0  0  0  0
   38.5750   20.4590   31.5820 O   0  0  0  0  0  0  0  0  0  0  0  0
   37.9009   26.6060   35.0715 H   0  0  0  0  0  0  0  0  0  0  0  0
   40.6750   22.1566   37.8736 H   0  0  0  0  0  0  0  0  0  0  0  0
   39.2675   23.0538   39.7791 H   0  0  0  0  0  0  0  0  0  0  0  0
   37.3111   24.5587   39.2396 H   0  0  0  0  0  0  0  0  0  0  0  0
   38.2729   22.5364   31.0540 H   0  0  0  0  0  0  0  0  0  0  0  0
   36.6654   23.3813   30.8584 H   0  0  0  0  0  0  0  0  0  0  0  0
   34.6571   22.3187   32.0496 H   0  0  0  0  0  0  0  0  0  0  0  0
   33.6454   20.1196   32.4956 H   0  0  0  0  0  0  0  0  0  0  0  0
   37.4164   18.3571   32.0445 H   0  0  0  0  0  0  0  0  0  0  0  0
  1 10  1  0
  2  1  2  0
  3  4  1  0
  3  2  1  0
  4  5  2  0
  5  1  1  0
  6  7  2  0
  8  7  1  0
  9  8  2  0
 10 11  2  0
 10  9  1  0
 11  6  1  0
 12 13  1  0
 12  4  1  0
 13 19  1  0
 13 14  1  0
 14 15  2  0
 15 16  1  0
 16 17  2  0
 18 16  1  0
 19 18  1  0
 20 19  2  0
  2 21  1  0
  6 22  1  0
  7 23  1  0
  8 24  1  0
 12 25  1  0
 12 26  1  0
 14 27  1  0
 15 28  1  0
 18 29  1  0
M  ISO  8  21  14  22  14  23  14  24  14  25   8  26   8  27  14  28  14
M  ISO  1  29   9
M  END
>  <minimizedAffinity>  (1) 
-5.01422596

>  <minimizedRMSD>  (1) 
2.47370219

$$$$
