
     RDKit          3D

 35 37  0  0  0  0  0  0  0  0999 V2000
   38.0660   24.4180   34.7030 C   0  0  0  0  0  0  0  0  0  0  0  0
   37.9580   25.7710   34.3750 C   0  0  0  0  0  0  0  0  0  0  0  0
   37.4180   25.5650   32.5800 S   0  0  0  0  0  0  0  0  0  0  0  0
   37.4720   23.6490   32.7120 C   0  0  0  0  0  0  0  0  0  0  0  0
   37.8210   23.4490   33.8660 N   0  0  0  0  0  0  0  0  0  0  0  0
   39.8550   22.7960   37.5520 C   0  0  0  0  0  0  0  0  0  0  0  0
   39.0710   23.2840   38.6480 C   0  0  0  0  0  0  0  0  0  0  0  0
   37.9830   24.1280   38.3730 C   0  0  0  0  0  0  0  0  0  0  0  0
   37.7320   24.4410   37.0720 N   0  0  0  0  0  0  0  0  0  0  0  0
   38.4880   23.9660   36.0650 C   0  0  0  0  0  0  0  0  0  0  0  0
   39.5570   23.1420   36.2640 N   0  0  0  0  0  0  0  0  0  0  0  0
   37.1400   22.8590   31.5110 C   0  0  0  0  0  0  0  0  0  0  0  0
   36.6540   21.4610   31.8010 C   0  0  0  0  0  0  0  0  0  0  0  0
   35.1830   21.4300   32.0290 C   0  0  0  0  0  0  0  0  0  0  0  0
   34.6690   20.0250   32.1410 C   0  0  0  0  0  0  0  0  0  0  0  0
   35.6660   18.9680   31.7780 C   0  0  0  0  0  0  0  0  0  0  0  0
   36.3000   19.3420   30.4770 C   0  0  0  0  0  0  0  0  0  0  0  0
   37.1060   20.6050   30.6500 C   0  0  0  0  0  0  0  0  0  0  0  0
   38.1333   26.6753   34.9763 H   0  0  0  0  0  0  0  0  0  0  0  0
   40.7098   22.1327   37.7506 H   0  0  0  0  0  0  0  0  0  0  0  0
   39.3164   23.0033   39.6829 H   0  0  0  0  0  0  0  0  0  0  0  0
   37.3532   24.5239   39.1833 H   0  0  0  0  0  0  0  0  0  0  0  0
   38.0423   22.7871   30.8860 H   0  0  0  0  0  0  0  0  0  0  0  0
   36.3123   23.3819   31.0095 H   0  0  0  0  0  0  0  0  0  0  0  0
   37.0789   21.0690   32.7369 H   0  0  0  0  0  0  0  0  0  0  0  0
   34.9551   21.9684   32.9608 H   0  0  0  0  0  0  0  0  0  0  0  0
   34.6921   21.9074   31.1681 H   0  0  0  0  0  0  0  0  0  0  0  0
   34.3531   19.8566   33.1811 H   0  0  0  0  0  0  0  0  0  0  0  0
   33.8425   19.9360   31.4206 H   0  0  0  0  0  0  0  0  0  0  0  0
   36.4363   18.8999   32.5603 H   0  0  0  0  0  0  0  0  0  0  0  0
   35.1656   17.9926   31.6872 H   0  0  0  0  0  0  0  0  0  0  0  0
   35.5167   19.5083   29.7228 H   0  0  0  0  0  0  0  0  0  0  0  0
   36.9630   18.5286   30.1472 H   0  0  0  0  0  0  0  0  0  0  0  0
   38.1567   20.3256   30.8173 H   0  0  0  0  0  0  0  0  0  0  0  0
   36.9690   21.2002   29.7351 H   0  0  0  0  0  0  0  0  0  0  0  0
  1 10  1  0
  2  1  2  0
  3  4  1  0
  3  2  1  0
  4  5  2  0
  5  1  1  0
  6  7  2  0
  8  7  1  0
  9  8  2  0
 10 11  2  0
 10  9  1  0
 11  6  1  0
 12 13  1  0
 12  4  1  0
 13 14  1  0
 14 15  1  0
 16 15  1  0
 17 18  1  0
 17 16  1  0
 18 13  1  0
  2 19  1  0
  6 20  1  0
  7 21  1  0
  8 22  1  0
 12 23  1  0
 12 24  1  0
 13 25  1  0
 14 26  1  0
 14 27  1  0
 15 28  1  0
 15 29  1  0
 16 30  1  0
 16 31  1  0
 17 32  1  0
 17 33  1  0
 18 34  1  0
 18 35  1  0
M  ISO  8  19  14  20  14  21  14  22  14  23   8  24   8  25  13  26  13
M  ISO  8  27  13  28  13  29  13  30  13  31  13  32  13  33  13  34  13
M  ISO  1  35  13
M  END
>  <minimizedAffinity>  (1) 
-5.08961821

>  <minimizedRMSD>  (1) 
2.76187563

$$$$
