
     RDKit          3D

 24 26  0  0  0  0  0  0  0  0999 V2000
   37.8970   22.4670   34.6190 C   0  0  0  0  0  0  0  0  0  0  0  0
   38.3690   23.1420   33.4990 C   0  0  0  0  0  0  0  0  0  0  0  0
   37.2680   22.3520   32.2010 S   0  0  0  0  0  0  0  0  0  0  0  0
   36.3980   21.2600   33.4970 C   0  0  0  0  0  0  0  0  0  0  0  0
   36.9560   21.5850   34.5320 N   0  0  0  0  0  0  0  0  0  0  0  0
   40.1010   22.6050   37.6170 C   0  0  0  0  0  0  0  0  0  0  0  0
   39.2110   23.2150   38.5510 C   0  0  0  0  0  0  0  0  0  0  0  0
   37.9210   23.5510   38.1360 C   0  0  0  0  0  0  0  0  0  0  0  0
   37.5700   23.2760   36.8450 N   0  0  0  0  0  0  0  0  0  0  0  0
   38.4310   22.6990   35.9870 C   0  0  0  0  0  0  0  0  0  0  0  0
   39.7030   22.3530   36.3430 N   0  0  0  0  0  0  0  0  0  0  0  0
   35.3410   20.3410   33.0220 C   0  0  0  0  0  0  0  0  0  0  0  0
   35.8670   19.0280   32.5640 C   0  0  0  0  0  0  0  0  0  0  0  0
   37.0050   18.6640   31.9520 N   0  0  0  0  0  0  0  0  0  0  0  0
   37.0270   17.3820   31.7470 O   0  0  0  0  0  0  0  0  0  0  0  0
   35.9160   16.8440   32.2080 C   0  0  0  0  0  0  0  0  0  0  0  0
   35.1900   17.8620   32.7180 N   0  0  0  0  0  0  0  0  0  0  0  0
   39.1521   23.9085   33.4027 H   0  0  0  0  0  0  0  0  0  0  0  0
   41.1200   22.3361   37.9321 H   0  0  0  0  0  0  0  0  0  0  0  0
   39.5364   23.4174   39.5821 H   0  0  0  0  0  0  0  0  0  0  0  0
   37.2084   24.0232   38.8283 H   0  0  0  0  0  0  0  0  0  0  0  0
   34.6341   20.1658   33.8463 H   0  0  0  0  0  0  0  0  0  0  0  0
   34.8579   20.8187   32.1569 H   0  0  0  0  0  0  0  0  0  0  0  0
   35.6364   15.7804   32.1825 H   0  0  0  0  0  0  0  0  0  0  0  0
  1 10  1  0
  2  1  2  0
  3  4  1  0
  3  2  1  0
  4  5  2  0
  5  1  1  0
  6  7  2  0
  8  7  1  0
  9  8  2  0
 10 11  2  0
 10  9  1  0
 11  6  1  0
 12  4  1  0
 13 17  1  0
 13 12  1  0
 14 13  2  0
 15 14  1  0
 15 16  1  0
 16 17  2  0
  2 18  1  0
  6 19  1  0
  7 20  1  0
  8 21  1  0
 12 22  1  0
 12 23  1  0
 16 24  1  0
M  ISO  7  18  14  19  14  20  14  21  14  22   8  23   8  24  14
M  END
>  <minimizedAffinity>  (1) 
-4.41144037

>  <minimizedRMSD>  (1) 
0.294626147

$$$$
