
     RDKit          3D

 20 21  0  0  0  0  0  0  0  0999 V2000
   37.7890   22.4610   34.7110 C   0  0  0  0  0  0  0  0  0  0  0  0
   38.1360   23.2410   33.6020 C   0  0  0  0  0  0  0  0  0  0  0  0
   37.0820   22.3630   32.3160 S   0  0  0  0  0  0  0  0  0  0  0  0
   36.4150   21.1400   33.5920 C   0  0  0  0  0  0  0  0  0  0  0  0
   36.9590   21.4690   34.6420 N   0  0  0  0  0  0  0  0  0  0  0  0
   40.0160   22.6690   37.6940 C   0  0  0  0  0  0  0  0  0  0  0  0
   39.1540   23.3090   38.6150 C   0  0  0  0  0  0  0  0  0  0  0  0
   37.8710   23.6420   38.2060 C   0  0  0  0  0  0  0  0  0  0  0  0
   37.4840   23.3400   36.9250 N   0  0  0  0  0  0  0  0  0  0  0  0
   38.3520   22.7210   36.0720 C   0  0  0  0  0  0  0  0  0  0  0  0
   39.6060   22.3780   36.4220 N   0  0  0  0  0  0  0  0  0  0  0  0
   35.4370   20.1120   33.1430 C   0  0  0  0  0  0  0  0  0  0  0  0
   34.6220   20.7400   32.2460 O   0  0  0  0  0  0  0  0  0  0  0  0
   38.8152   24.1015   33.5109 H   0  0  0  0  0  0  0  0  0  0  0  0
   41.0357   22.4002   38.0068 H   0  0  0  0  0  0  0  0  0  0  0  0
   39.4944   23.5382   39.6356 H   0  0  0  0  0  0  0  0  0  0  0  0
   37.1754   24.1400   38.8974 H   0  0  0  0  0  0  0  0  0  0  0  0
   35.9587   19.2710   32.6629 H   0  0  0  0  0  0  0  0  0  0  0  0
   34.8666   19.6997   33.9883 H   0  0  0  0  0  0  0  0  0  0  0  0
   33.9391   21.2662   32.7327 H   0  0  0  0  0  0  0  0  0  0  0  0
  1 10  1  0
  2  1  2  0
  3  4  1  0
  3  2  1  0
  4  5  2  0
  5  1  1  0
  6  7  2  0
  8  7  1  0
  9  8  2  0
 10 11  2  0
 10  9  1  0
 11  6  1  0
 12  4  1  0
 13 12  1  0
  2 14  1  0
  6 15  1  0
  7 16  1  0
  8 17  1  0
 12 18  1  0
 12 19  1  0
 13 20  1  0
M  ISO  7  14  14  15  14  16  14  17  14  18   8  19   8  20   3
M  END
>  <minimizedAffinity>  (1) 
-3.80342007

>  <minimizedRMSD>  (1) 
0.318771452

$$$$
