
     RDKit          3D

 26 28  0  0  0  0  0  0  0  0999 V2000
   37.8060   22.4700   34.6860 C   0  0  0  0  0  0  0  0  0  0  0  0
   38.1260   23.2200   33.5780 C   0  0  0  0  0  0  0  0  0  0  0  0
   37.0530   22.3680   32.3120 S   0  0  0  0  0  0  0  0  0  0  0  0
   36.3800   21.1380   33.6000 C   0  0  0  0  0  0  0  0  0  0  0  0
   36.9630   21.4940   34.6120 N   0  0  0  0  0  0  0  0  0  0  0  0
   40.1120   22.6200   37.6110 C   0  0  0  0  0  0  0  0  0  0  0  0
   39.2470   23.2390   38.5710 C   0  0  0  0  0  0  0  0  0  0  0  0
   37.9390   23.5760   38.2010 C   0  0  0  0  0  0  0  0  0  0  0  0
   37.5550   23.2910   36.9220 N   0  0  0  0  0  0  0  0  0  0  0  0
   38.3860   22.7090   36.0370 C   0  0  0  0  0  0  0  0  0  0  0  0
   39.6680   22.3620   36.3500 N   0  0  0  0  0  0  0  0  0  0  0  0
   35.3970   20.1150   33.1620 C   0  0  0  0  0  0  0  0  0  0  0  0
   35.9010   19.3940   31.9060 C   0  0  0  0  0  0  0  0  0  0  0  0
   35.8770   17.9270   31.8510 C   0  0  0  0  0  0  0  0  0  0  0  0
   37.1700   18.6730   32.0060 C   0  0  0  0  0  0  0  0  0  0  0  0
   38.8131   24.0722   33.4702 H   0  0  0  0  0  0  0  0  0  0  0  0
   41.1405   22.3517   37.8943 H   0  0  0  0  0  0  0  0  0  0  0  0
   39.6070   23.4476   39.5893 H   0  0  0  0  0  0  0  0  0  0  0  0
   37.2482   24.0516   38.9127 H   0  0  0  0  0  0  0  0  0  0  0  0
   35.2538   19.3809   33.9686 H   0  0  0  0  0  0  0  0  0  0  0  0
   34.4435   20.6120   32.9302 H   0  0  0  0  0  0  0  0  0  0  0  0
   35.4986   20.1811   31.2513 H   0  0  0  0  0  0  0  0  0  0  0  0
   35.4681   17.3490   32.6928 H   0  0  0  0  0  0  0  0  0  0  0  0
   35.4852   17.1756   31.1497 H   0  0  0  0  0  0  0  0  0  0  0  0
   37.8906   18.7066   31.1755 H   0  0  0  0  0  0  0  0  0  0  0  0
   38.0027   18.6526   32.7245 H   0  0  0  0  0  0  0  0  0  0  0  0
  1 10  1  0
  2  1  2  0
  3  2  1  0
  3  4  1  0
  4  5  2  0
  5  1  1  0
  6  7  2  0
  8  7  1  0
  9  8  2  0
 10 11  2  0
 10  9  1  0
 11  6  1  0
 12  4  1  0
 13 15  1  0
 13 12  1  0
 14 13  1  0
 14 15  1  0
  2 16  1  0
  6 17  1  0
  7 18  1  0
  8 19  1  0
 12 20  1  0
 12 21  1  0
 13 22  1  0
 14 23  1  0
 14 24  1  0
 15 25  1  0
 15 26  1  0
M  ISO  8  16  14  17  14  18  14  19  14  20   8  21   8  22  13  23  13
M  ISO  3  24  13  25  13  26  13
M  END
>  <minimizedAffinity>  (1) 
-4.09473801

>  <minimizedRMSD>  (1) 
1.28001153

$$$$
