
     RDKit          3D

 21 22  0  0  0  0  0  0  0  0999 V2000
   37.8020   22.4570   34.7060 C   0  0  0  0  0  0  0  0  0  0  0  0
   38.1730   23.2030   33.5850 C   0  0  0  0  0  0  0  0  0  0  0  0
   37.0980   22.3230   32.3050 S   0  0  0  0  0  0  0  0  0  0  0  0
   36.3870   21.1340   33.6060 C   0  0  0  0  0  0  0  0  0  0  0  0
   36.9450   21.4870   34.6390 N   0  0  0  0  0  0  0  0  0  0  0  0
   40.0240   22.6600   37.6790 C   0  0  0  0  0  0  0  0  0  0  0  0
   39.1660   23.2980   38.6040 C   0  0  0  0  0  0  0  0  0  0  0  0
   37.8800   23.6330   38.1970 C   0  0  0  0  0  0  0  0  0  0  0  0
   37.4900   23.3360   36.9150 N   0  0  0  0  0  0  0  0  0  0  0  0
   38.3600   22.7180   36.0630 C   0  0  0  0  0  0  0  0  0  0  0  0
   39.6330   22.3660   36.4050 N   0  0  0  0  0  0  0  0  0  0  0  0
   35.4050   20.1300   33.1500 C   0  0  0  0  0  0  0  0  0  0  0  0
   36.0560   19.0300   32.4820 N   0  0  0  0  0  0  0  0  0  0  0  0
   38.8747   24.0436   33.4799 H   0  0  0  0  0  0  0  0  0  0  0  0
   41.0421   22.3913   37.9973 H   0  0  0  0  0  0  0  0  0  0  0  0
   39.5090   23.5245   39.6243 H   0  0  0  0  0  0  0  0  0  0  0  0
   37.1856   24.1284   38.8915 H   0  0  0  0  0  0  0  0  0  0  0  0
   34.8541   19.7455   34.0210 H   0  0  0  0  0  0  0  0  0  0  0  0
   34.7182   20.6123   32.4388 H   0  0  0  0  0  0  0  0  0  0  0  0
   36.4401   18.3811   33.1836 H   0  0  0  0  0  0  0  0  0  0  0  0
   35.3727   18.5333   31.8927 H   0  0  0  0  0  0  0  0  0  0  0  0
  1 10  1  0
  2  1  2  0
  3  2  1  0
  3  4  1  0
  4  5  2  0
  5  1  1  0
  6  7  2  0
  8  7  1  0
  9  8  2  0
 10 11  2  0
 10  9  1  0
 11  6  1  0
 12  4  1  0
 13 12  1  0
  2 14  1  0
  6 15  1  0
  7 16  1  0
  8 17  1  0
 12 18  1  0
 12 19  1  0
 13 20  1  0
 13 21  1  0
M  ISO  8  14  14  15  14  16  14  17  14  18   8  19   8  20   5  21   5
M  END
>  <minimizedAffinity>  (1) 
-3.69325304

>  <minimizedRMSD>  (1) 
0.0841586143

$$$$
