
     RDKit          3D

 38 42  0  0  0  0  0  0  0  0999 V2000
   35.2340   20.2210   32.9300 C   0  0  0  0  0  0  0  0  0  0  0  0
   35.7360   18.9300   32.5570 N   0  0  0  0  0  0  0  0  0  0  0  0
   36.9110   18.6930   31.9280 C   0  0  0  0  0  0  0  0  0  0  0  0
   37.0130   17.3690   31.7600 N   0  0  0  0  0  0  0  0  0  0  0  0
   35.9190   16.7600   32.2750 C   0  0  0  0  0  0  0  0  0  0  0  0
   35.1590   17.7660   32.7560 N   0  0  0  0  0  0  0  0  0  0  0  0
   35.7030   15.3490   32.2640 N   0  0  0  0  0  0  0  0  0  0  0  0
   36.2890   14.4590   31.4150 C   0  0  0  0  0  0  0  0  0  0  0  0
   35.8270   13.2290   31.7250 N   0  0  0  0  0  0  0  0  0  0  0  0
   34.9730   13.3540   32.7460 C   0  0  0  0  0  0  0  0  0  0  0  0
   34.1930   12.5010   33.4990 C   0  0  0  0  0  0  0  0  0  0  0  0
   33.3940   12.9190   34.5100 N   0  0  0  0  0  0  0  0  0  0  0  0
   33.3420   14.2480   34.8200 C   0  0  0  0  0  0  0  0  0  0  0  0
   34.0900   15.0980   34.1030 N   0  0  0  0  0  0  0  0  0  0  0  0
   34.8760   14.6850   33.1070 C   0  0  0  0  0  0  0  0  0  0  0  0
   34.2150   11.1050   33.2140 N   0  0  0  0  0  0  0  0  0  0  0  0
   37.8200   22.3840   34.4390 C   0  0  0  0  0  0  0  0  0  0  0  0
   38.2560   23.0650   33.3250 C   0  0  0  0  0  0  0  0  0  0  0  0
   37.1410   22.2780   32.0420 S   0  0  0  0  0  0  0  0  0  0  0  0
   36.3130   21.1730   33.3470 C   0  0  0  0  0  0  0  0  0  0  0  0
   36.8850   21.4910   34.3800 N   0  0  0  0  0  0  0  0  0  0  0  0
   40.0610   22.5840   37.4060 C   0  0  0  0  0  0  0  0  0  0  0  0
   39.1900   23.1460   38.3620 C   0  0  0  0  0  0  0  0  0  0  0  0
   37.8910   23.4320   37.9670 C   0  0  0  0  0  0  0  0  0  0  0  0
   37.4970   23.1670   36.6870 N   0  0  0  0  0  0  0  0  0  0  0  0
   38.3880   22.6220   35.8060 C   0  0  0  0  0  0  0  0  0  0  0  0
   39.6620   22.3230   36.1330 N   0  0  0  0  0  0  0  0  0  0  0  0
   34.5343   20.0954   33.7694 H   0  0  0  0  0  0  0  0  0  0  0  0
   34.7422   20.6501   32.0446 H   0  0  0  0  0  0  0  0  0  0  0  0
   37.6459   19.4486   31.6132 H   0  0  0  0  0  0  0  0  0  0  0  0
   37.0095   14.6996   30.6194 H   0  0  0  0  0  0  0  0  0  0  0  0
   32.7023   14.6116   35.6376 H   0  0  0  0  0  0  0  0  0  0  0  0
   33.6375   10.4570   33.7685 H   0  0  0  0  0  0  0  0  0  0  0  0
   34.8084   10.7439   32.4535 H   0  0  0  0  0  0  0  0  0  0  0  0
   39.0290   23.8405   33.2196 H   0  0  0  0  0  0  0  0  0  0  0  0
   41.0949   22.3496   37.6993 H   0  0  0  0  0  0  0  0  0  0  0  0
   39.5295   23.3511   39.3880 H   0  0  0  0  0  0  0  0  0  0  0  0
   37.1807   23.8710   38.6831 H   0  0  0  0  0  0  0  0  0  0  0  0
  1 20  1  0
  2  6  1  0
  2  1  1  0
  3  2  1  0
  4  3  2  0
  4  5  1  0
  5  6  2  0
  7  5  1  0
  7 15  1  0
  8  9  2  0
  8  7  1  0
  9 10  1  0
 10 15  2  0
 10 11  1  0
 11 12  2  0
 12 13  1  0
 14 13  2  0
 15 14  1  0
 16 11  1  0
 17 26  1  0
 18 17  2  0
 19 18  1  0
 19 20  1  0
 20 21  2  0
 21 17  1  0
 22 23  2  0
 24 23  1  0
 25 24  2  0
 26 27  2  0
 26 25  1  0
 27 22  1  0
  1 28  1  0
  1 29  1  0
  3 30  1  0
  8 31  1  0
 13 32  1  0
 16 33  1  0
 16 34  1  0
 18 35  1  0
 22 36  1  0
 23 37  1  0
 24 38  1  0
M  ISO  8  28   8  29   8  30  14  31  14  32  14  35  14  36  14  37  14
M  ISO  1  38  14
M  END
>  <minimizedAffinity>  (1) 
-5.63665533

>  <minimizedRMSD>  (1) 
0.221631363

$$$$
