
     RDKit          3D

 36 40  0  0  0  0  0  0  0  0999 V2000
   35.2120   20.2620   32.9660 C   0  0  0  0  0  0  0  0  0  0  0  0
   35.6960   18.9700   32.5450 N   0  0  0  0  0  0  0  0  0  0  0  0
   36.9460   18.6930   32.1160 C   0  0  0  0  0  0  0  0  0  0  0  0
   36.9840   17.3840   31.8220 N   0  0  0  0  0  0  0  0  0  0  0  0
   35.7710   16.8390   32.0630 C   0  0  0  0  0  0  0  0  0  0  0  0
   35.0010   17.8530   32.5100 N   0  0  0  0  0  0  0  0  0  0  0  0
   35.3900   15.4720   31.8810 N   0  0  0  0  0  0  0  0  0  0  0  0
   35.6110   14.6640   30.8280 C   0  0  0  0  0  0  0  0  0  0  0  0
   35.0650   13.4640   31.1190 N   0  0  0  0  0  0  0  0  0  0  0  0
   34.5010   13.5140   32.3530 C   0  0  0  0  0  0  0  0  0  0  0  0
   33.8160   12.5770   33.1260 C   0  0  0  0  0  0  0  0  0  0  0  0
   33.3750   12.9770   34.3520 N   0  0  0  0  0  0  0  0  0  0  0  0
   33.5910   14.2280   34.7990 C   0  0  0  0  0  0  0  0  0  0  0  0
   34.2480   15.1610   34.0780 N   0  0  0  0  0  0  0  0  0  0  0  0
   34.7060   14.8050   32.8510 C   0  0  0  0  0  0  0  0  0  0  0  0
   37.8460   22.3710   34.4910 C   0  0  0  0  0  0  0  0  0  0  0  0
   38.3150   23.0250   33.3500 C   0  0  0  0  0  0  0  0  0  0  0  0
   37.1860   22.2430   32.0810 S   0  0  0  0  0  0  0  0  0  0  0  0
   36.3120   21.1860   33.3840 C   0  0  0  0  0  0  0  0  0  0  0  0
   36.8950   21.5170   34.4070 N   0  0  0  0  0  0  0  0  0  0  0  0
   40.0550   22.5920   37.4620 C   0  0  0  0  0  0  0  0  0  0  0  0
   39.1890   23.1700   38.4030 C   0  0  0  0  0  0  0  0  0  0  0  0
   37.8930   23.4630   37.9970 C   0  0  0  0  0  0  0  0  0  0  0  0
   37.5200   23.1780   36.7100 N   0  0  0  0  0  0  0  0  0  0  0  0
   38.4080   22.6170   35.8480 C   0  0  0  0  0  0  0  0  0  0  0  0
   39.6750   22.3120   36.1860 N   0  0  0  0  0  0  0  0  0  0  0  0
   34.5291   20.1212   33.8168 H   0  0  0  0  0  0  0  0  0  0  0  0
   34.7032   20.7212   32.1056 H   0  0  0  0  0  0  0  0  0  0  0  0
   37.7779   19.4069   32.0245 H   0  0  0  0  0  0  0  0  0  0  0  0
   36.1391   14.9318   29.9010 H   0  0  0  0  0  0  0  0  0  0  0  0
   33.6385   11.5548   32.7605 H   0  0  0  0  0  0  0  0  0  0  0  0
   33.2155   14.5022   35.7959 H   0  0  0  0  0  0  0  0  0  0  0  0
   39.1105   23.7756   33.2327 H   0  0  0  0  0  0  0  0  0  0  0  0
   41.0844   22.3554   37.7691 H   0  0  0  0  0  0  0  0  0  0  0  0
   39.5252   23.3840   39.4283 H   0  0  0  0  0  0  0  0  0  0  0  0
   37.1773   23.9169   38.6983 H   0  0  0  0  0  0  0  0  0  0  0  0
  1 19  1  0
  2  1  1  0
  3  2  1  0
  4  5  1  0
  4  3  2  0
  5  6  2  0
  6  2  1  0
  7  5  1  0
  7 15  1  0
  8  9  2  0
  8  7  1  0
  9 10  1  0
 10 15  2  0
 10 11  1  0
 11 12  2  0
 12 13  1  0
 14 13  2  0
 15 14  1  0
 16 25  1  0
 17 16  2  0
 18 17  1  0
 18 19  1  0
 19 20  2  0
 20 16  1  0
 21 22  2  0
 23 22  1  0
 24 23  2  0
 25 26  2  0
 25 24  1  0
 26 21  1  0
  1 27  1  0
  1 28  1  0
  3 29  1  0
  8 30  1  0
 11 31  1  0
 13 32  1  0
 17 33  1  0
 21 34  1  0
 22 35  1  0
 23 36  1  0
M  ISO  8  27   8  28   8  29  14  30  14  31  14  32  14  33  14  34  14
M  ISO  2  35  14  36  14
M  END
>  <minimizedAffinity>  (1) 
-5.49748564

>  <minimizedRMSD>  (1) 
0.62012893

$$$$
