
     RDKit          3D

 39 43  0  0  0  0  0  0  0  0999 V2000
   35.1640   19.9900   33.0050 C   0  0  0  0  0  0  0  0  0  0  0  0
   37.7660   22.2130   34.4050 C   0  0  0  0  0  0  0  0  0  0  0  0
   38.2130   22.8370   33.2510 C   0  0  0  0  0  0  0  0  0  0  0  0
   37.0940   21.9890   32.0260 S   0  0  0  0  0  0  0  0  0  0  0  0
   36.2450   20.9500   33.3740 C   0  0  0  0  0  0  0  0  0  0  0  0
   36.8230   21.3240   34.3820 N   0  0  0  0  0  0  0  0  0  0  0  0
   40.0180   22.5810   37.3520 C   0  0  0  0  0  0  0  0  0  0  0  0
   39.1420   23.1510   38.2930 C   0  0  0  0  0  0  0  0  0  0  0  0
   37.8280   23.3900   37.8980 C   0  0  0  0  0  0  0  0  0  0  0  0
   37.4390   23.0640   36.6230 N   0  0  0  0  0  0  0  0  0  0  0  0
   38.3340   22.5170   35.7630 C   0  0  0  0  0  0  0  0  0  0  0  0
   39.6140   22.2660   36.0940 N   0  0  0  0  0  0  0  0  0  0  0  0
   35.6860   18.6930   32.6260 N   0  0  0  0  0  0  0  0  0  0  0  0
   36.9790   18.3630   32.4650 C   0  0  0  0  0  0  0  0  0  0  0  0
   37.0010   17.0800   32.1200 N   0  0  0  0  0  0  0  0  0  0  0  0
   35.7660   16.5730   32.0530 C   0  0  0  0  0  0  0  0  0  0  0  0
   34.9950   17.6080   32.3750 N   0  0  0  0  0  0  0  0  0  0  0  0
   35.0990   15.3130   31.7540 C   0  0  0  0  0  0  0  0  0  0  0  0
   35.0280   14.7470   30.5120 N   0  0  0  0  0  0  0  0  0  0  0  0
   34.4080   13.5880   30.2660 C   0  0  0  0  0  0  0  0  0  0  0  0
   33.7960   12.8790   31.2310 N   0  0  0  0  0  0  0  0  0  0  0  0
   33.8130   13.3560   32.4880 C   0  0  0  0  0  0  0  0  0  0  0  0
   33.1870   12.6250   33.4640 C   0  0  0  0  0  0  0  0  0  0  0  0
   33.1760   13.0700   34.7620 C   0  0  0  0  0  0  0  0  0  0  0  0
   33.8120   14.2710   35.0500 C   0  0  0  0  0  0  0  0  0  0  0  0
   34.4240   14.9600   34.0250 C   0  0  0  0  0  0  0  0  0  0  0  0
   34.4600   14.5540   32.7110 C   0  0  0  0  0  0  0  0  0  0  0  0
   34.4939   19.8631   33.8680 H   0  0  0  0  0  0  0  0  0  0  0  0
   34.6284   20.4036   32.1377 H   0  0  0  0  0  0  0  0  0  0  0  0
   38.9912   23.6003   33.1033 H   0  0  0  0  0  0  0  0  0  0  0  0
   41.0604   22.3846   37.6431 H   0  0  0  0  0  0  0  0  0  0  0  0
   39.4837   23.4001   39.3085 H   0  0  0  0  0  0  0  0  0  0  0  0
   37.1090   23.8357   38.6012 H   0  0  0  0  0  0  0  0  0  0  0  0
   37.8481   19.0249   32.5936 H   0  0  0  0  0  0  0  0  0  0  0  0
   34.3982   13.2004   29.2366 H   0  0  0  0  0  0  0  0  0  0  0  0
   32.6913   11.6776   33.2056 H   0  0  0  0  0  0  0  0  0  0  0  0
   32.6770   12.4913   35.5532 H   0  0  0  0  0  0  0  0  0  0  0  0
   33.8269   14.6648   36.0770 H   0  0  0  0  0  0  0  0  0  0  0  0
   34.9221   15.9078   34.2771 H   0  0  0  0  0  0  0  0  0  0  0  0
  1  5  1  0
  2 11  1  0
  3  2  2  0
  4  3  1  0
  4  5  1  0
  5  6  2  0
  6  2  1  0
  7  8  2  0
  9  8  1  0
 10  9  2  0
 11 12  2  0
 11 10  1  0
 12  7  1  0
 13  1  1  0
 14 13  1  0
 15 14  2  0
 16 15  1  0
 16 17  2  0
 17 13  1  0
 18 16  1  0
 18 27  1  0
 19 18  2  0
 20 19  1  0
 20 21  2  0
 21 22  1  0
 22 27  2  0
 22 23  1  0
 23 24  2  0
 24 25  1  0
 26 25  2  0
 27 26  1  0
  1 28  1  0
  1 29  1  0
  3 30  1  0
  7 31  1  0
  8 32  1  0
  9 33  1  0
 14 34  1  0
 20 35  1  0
 23 36  1  0
 24 37  1  0
 25 38  1  0
 26 39  1  0
M  ISO  8  28   8  29   8  30  14  31  14  32  14  33  14  34  14  35  14
M  ISO  4  36  14  37  14  38  14  39  14
M  END
>  <minimizedAffinity>  (1) 
-5.31857491

>  <minimizedRMSD>  (1) 
0.956092119

$$$$
