
     RDKit          3D

 41 45  0  0  0  0  0  0  0  0999 V2000
   35.8350   21.4050   32.2470 C   0  0  0  0  0  0  0  0  0  0  0  0
   38.5480   22.6590   34.4330 C   0  0  0  0  0  0  0  0  0  0  0  0
   39.4970   22.9850   33.4880 C   0  0  0  0  0  0  0  0  0  0  0  0
   38.5510   22.4970   31.9470 S   0  0  0  0  0  0  0  0  0  0  0  0
   37.0310   21.9400   32.9560 C   0  0  0  0  0  0  0  0  0  0  0  0
   37.3910   22.1640   34.1110 N   0  0  0  0  0  0  0  0  0  0  0  0
   40.0000   22.7350   37.8580 C   0  0  0  0  0  0  0  0  0  0  0  0
   38.9240   23.3060   38.5950 C   0  0  0  0  0  0  0  0  0  0  0  0
   37.7620   23.6360   37.9020 C   0  0  0  0  0  0  0  0  0  0  0  0
   37.6950   23.4050   36.5560 N   0  0  0  0  0  0  0  0  0  0  0  0
   38.7740   22.8510   35.9080 C   0  0  0  0  0  0  0  0  0  0  0  0
   39.9180   22.5120   36.5180 N   0  0  0  0  0  0  0  0  0  0  0  0
   36.0720   20.0910   31.6880 N   0  0  0  0  0  0  0  0  0  0  0  0
   36.3430   19.8030   30.4050 C   0  0  0  0  0  0  0  0  0  0  0  0
   36.4940   18.4860   30.3270 N   0  0  0  0  0  0  0  0  0  0  0  0
   36.3290   17.9130   31.5220 C   0  0  0  0  0  0  0  0  0  0  0  0
   36.0710   18.9440   32.3240 N   0  0  0  0  0  0  0  0  0  0  0  0
   36.3540   16.5770   32.1260 C   0  0  0  0  0  0  0  0  0  0  0  0
   35.2180   15.8420   32.4560 C   0  0  0  0  0  0  0  0  0  0  0  0
   35.2830   14.6000   33.0180 C   0  0  0  0  0  0  0  0  0  0  0  0
   36.4820   13.9980   33.2940 C   0  0  0  0  0  0  0  0  0  0  0  0
   37.6350   14.6820   32.9870 C   0  0  0  0  0  0  0  0  0  0  0  0
   38.8140   14.0460   33.2780 C   0  0  0  0  0  0  0  0  0  0  0  0
   40.0060   14.6570   33.0050 C   0  0  0  0  0  0  0  0  0  0  0  0
   39.9810   15.9310   32.4280 C   0  0  0  0  0  0  0  0  0  0  0  0
   38.7560   16.5090   32.1630 C   0  0  0  0  0  0  0  0  0  0  0  0
   37.5370   15.9340   32.4200 C   0  0  0  0  0  0  0  0  0  0  0  0
   34.9999   21.3411   32.9601 H   0  0  0  0  0  0  0  0  0  0  0  0
   35.6017   22.0877   31.4167 H   0  0  0  0  0  0  0  0  0  0  0  0
   40.5068   23.4055   33.6041 H   0  0  0  0  0  0  0  0  0  0  0  0
   40.9257   22.4659   38.3878 H   0  0  0  0  0  0  0  0  0  0  0  0
   39.0079   23.4810   39.6777 H   0  0  0  0  0  0  0  0  0  0  0  0
   36.9060   24.0784   38.4326 H   0  0  0  0  0  0  0  0  0  0  0  0
   36.4245   20.5214   29.5760 H   0  0  0  0  0  0  0  0  0  0  0  0
   34.2290   16.2799   32.2557 H   0  0  0  0  0  0  0  0  0  0  0  0
   34.3492   14.0692   33.2552 H   0  0  0  0  0  0  0  0  0  0  0  0
   36.5215   12.9968   33.7479 H   0  0  0  0  0  0  0  0  0  0  0  0
   38.8009   13.0438   33.7313 H   0  0  0  0  0  0  0  0  0  0  0  0
   40.9602   14.1596   33.2332 H   0  0  0  0  0  0  0  0  0  0  0  0
   40.9159   16.4599   32.1910 H   0  0  0  0  0  0  0  0  0  0  0  0
   38.7570   17.5111   31.7093 H   0  0  0  0  0  0  0  0  0  0  0  0
  1  5  1  0
  2 11  1  0
  3  2  2  0
  4  5  1  0
  4  3  1  0
  5  6  2  0
  6  2  1  0
  7  8  2  0
  9  8  1  0
 10  9  2  0
 11 12  2  0
 11 10  1  0
 12  7  1  0
 13  1  1  0
 13 17  1  0
 14 13  1  0
 15 14  2  0
 15 16  1  0
 16 18  1  0
 16 17  2  0
 18 27  1  0
 18 19  2  0
 19 20  1  0
 20 21  2  0
 22 23  2  0
 22 21  1  0
 24 23  1  0
 25 24  2  0
 26 27  2  0
 26 25  1  0
 27 22  1  0
  1 28  1  0
  1 29  1  0
  3 30  1  0
  7 31  1  0
  8 32  1  0
  9 33  1  0
 14 34  1  0
 19 35  1  0
 20 36  1  0
 21 37  1  0
 23 38  1  0
 24 39  1  0
 25 40  1  0
 26 41  1  0
M  ISO  8  28   8  29   8  30  14  31  14  32  14  33  14  34  14  35  14
M  ISO  6  36  14  37  14  38  14  39  14  40  14  41  14
M  END
>  <minimizedAffinity>  (1) 
-5.48601246

>  <minimizedRMSD>  (1) 
1.7872659

$$$$
