
     RDKit          3D

 38 41  0  0  0  0  0  0  0  0999 V2000
   35.4340   20.6610   32.7120 C   0  0  0  0  0  0  0  0  0  0  0  0
   38.1040   22.5150   34.4770 C   0  0  0  0  0  0  0  0  0  0  0  0
   38.7460   23.1010   33.3980 C   0  0  0  0  0  0  0  0  0  0  0  0
   37.6740   22.4190   32.0130 S   0  0  0  0  0  0  0  0  0  0  0  0
   36.5720   21.4740   33.2240 C   0  0  0  0  0  0  0  0  0  0  0  0
   37.0790   21.7560   34.3060 N   0  0  0  0  0  0  0  0  0  0  0  0
   40.0500   22.6500   37.6370 C   0  0  0  0  0  0  0  0  0  0  0  0
   39.0950   23.1820   38.5180 C   0  0  0  0  0  0  0  0  0  0  0  0
   37.8390   23.4760   38.0220 C   0  0  0  0  0  0  0  0  0  0  0  0
   37.5560   23.2400   36.6900 N   0  0  0  0  0  0  0  0  0  0  0  0
   38.5450   22.7170   35.8930 C   0  0  0  0  0  0  0  0  0  0  0  0
   39.7700   22.4200   36.3300 N   0  0  0  0  0  0  0  0  0  0  0  0
   35.7840   19.2880   32.4620 N   0  0  0  0  0  0  0  0  0  0  0  0
   36.9250   18.8620   31.8880 C   0  0  0  0  0  0  0  0  0  0  0  0
   36.8800   17.5310   31.8310 N   0  0  0  0  0  0  0  0  0  0  0  0
   35.7200   17.1030   32.3590 C   0  0  0  0  0  0  0  0  0  0  0  0
   35.0760   18.2120   32.7360 N   0  0  0  0  0  0  0  0  0  0  0  0
   34.4620   13.0980   32.8120 C   0  0  0  0  0  0  0  0  0  0  0  0
   35.1420   13.4810   31.6720 C   0  0  0  0  0  0  0  0  0  0  0  0
   35.5790   14.7960   31.4790 C   0  0  0  0  0  0  0  0  0  0  0  0
   35.3050   15.7100   32.4750 C   0  0  0  0  0  0  0  0  0  0  0  0
   34.6240   15.2850   33.5940 C   0  0  0  0  0  0  0  0  0  0  0  0
   34.1890   14.0170   33.8090 C   0  0  0  0  0  0  0  0  0  0  0  0
   33.9150   11.4440   33.0560 S   0  0  0  0  0  0  0  0  0  0  0  0
   33.1350   11.3400   34.3520 O   0  0  0  0  0  0  0  0  0  0  0  0
   32.9270   11.0410   31.9750 O   0  0  0  0  0  0  0  0  0  0  0  0
   34.6245   20.6852   33.4564 H   0  0  0  0  0  0  0  0  0  0  0  0
   35.1260   21.0994   31.7513 H   0  0  0  0  0  0  0  0  0  0  0  0
   39.6213   23.7663   33.3626 H   0  0  0  0  0  0  0  0  0  0  0  0
   41.0544   22.4129   38.0178 H   0  0  0  0  0  0  0  0  0  0  0  0
   39.3401   23.3602   39.5754 H   0  0  0  0  0  0  0  0  0  0  0  0
   37.0679   23.8960   38.6845 H   0  0  0  0  0  0  0  0  0  0  0  0
   37.7475   19.4987   31.5300 H   0  0  0  0  0  0  0  0  0  0  0  0
   35.3456   12.7306   30.8939 H   0  0  0  0  0  0  0  0  0  0  0  0
   36.1205   15.0898   30.5677 H   0  0  0  0  0  0  0  0  0  0  0  0
   34.4162   16.0314   34.3748 H   0  0  0  0  0  0  0  0  0  0  0  0
   33.6493   13.7361   34.7254 H   0  0  0  0  0  0  0  0  0  0  0  0
   35.0320   10.6509   33.0503 H   0  0  0  0  0  0  0  0  0  0  0  0
  1  5  1  0
  2 11  1  0
  3  2  2  0
  4  5  1  0
  4  3  1  0
  5  6  2  0
  6  2  1  0
  7  8  2  0
  9  8  1  0
 10  9  2  0
 11 12  2  0
 11 10  1  0
 12  7  1  0
 13  1  1  0
 13 17  1  0
 14 13  1  0
 15 14  2  0
 15 16  1  0
 16 21  1  0
 16 17  2  0
 18 24  1  0
 18 23  2  0
 19 18  1  0
 20 19  2  0
 20 21  1  0
 21 22  2  0
 22 23  1  0
 24 25  2  0
 26 24  2  0
  1 27  1  0
  1 28  1  0
  3 29  1  0
  7 30  1  0
  8 31  1  0
  9 32  1  0
 14 33  1  0
 19 34  1  0
 20 35  1  0
 22 36  1  0
 23 37  1  0
 24 38  1  0
M  ISO  8  27   8  28   8  29  14  30  14  31  14  32  14  33  14  34  14
M  ISO  4  35  14  36  14  37  14  38  11
M  END
>  <minimizedAffinity>  (1) 
-4.92098188

>  <minimizedRMSD>  (1) 
0.978546739

$$$$
