
     RDKit          3D

 35 38  0  0  0  0  0  0  0  0999 V2000
   35.3400   20.5210   32.9050 C   0  0  0  0  0  0  0  0  0  0  0  0
   37.9540   22.5450   34.5450 C   0  0  0  0  0  0  0  0  0  0  0  0
   38.4500   23.2490   33.4530 C   0  0  0  0  0  0  0  0  0  0  0  0
   37.3340   22.5300   32.1180 S   0  0  0  0  0  0  0  0  0  0  0  0
   36.4400   21.4250   33.3660 C   0  0  0  0  0  0  0  0  0  0  0  0
   36.9990   21.6980   34.4170 N   0  0  0  0  0  0  0  0  0  0  0  0
   40.1000   22.5750   37.5810 C   0  0  0  0  0  0  0  0  0  0  0  0
   39.2410   23.1670   38.5220 C   0  0  0  0  0  0  0  0  0  0  0  0
   37.9860   23.5250   38.0890 C   0  0  0  0  0  0  0  0  0  0  0  0
   37.5990   23.3080   36.7830 N   0  0  0  0  0  0  0  0  0  0  0  0
   38.4960   22.7260   35.9310 C   0  0  0  0  0  0  0  0  0  0  0  0
   39.7250   22.3590   36.3000 N   0  0  0  0  0  0  0  0  0  0  0  0
   35.7910   19.2130   32.5450 N   0  0  0  0  0  0  0  0  0  0  0  0
   36.9550   18.9280   31.9140 C   0  0  0  0  0  0  0  0  0  0  0  0
   37.0350   17.5990   31.7450 N   0  0  0  0  0  0  0  0  0  0  0  0
   35.9070   17.0480   32.2780 C   0  0  0  0  0  0  0  0  0  0  0  0
   35.1770   18.0650   32.7540 N   0  0  0  0  0  0  0  0  0  0  0  0
   35.7070   15.5970   32.2430 C   0  0  0  0  0  0  0  0  0  0  0  0
   34.6210   14.9020   31.7550 C   0  0  0  0  0  0  0  0  0  0  0  0
   34.6250   13.5200   31.8140 C   0  0  0  0  0  0  0  0  0  0  0  0
   35.6870   12.8220   32.3490 C   0  0  0  0  0  0  0  0  0  0  0  0
   36.7880   13.5300   32.8450 C   0  0  0  0  0  0  0  0  0  0  0  0
   36.7920   14.9240   32.7880 C   0  0  0  0  0  0  0  0  0  0  0  0
   34.6048   20.4246   33.7175 H   0  0  0  0  0  0  0  0  0  0  0  0
   34.9057   20.9739   32.0016 H   0  0  0  0  0  0  0  0  0  0  0  0
   39.2519   23.9992   33.3887 H   0  0  0  0  0  0  0  0  0  0  0  0
   41.1108   22.2774   37.8967 H   0  0  0  0  0  0  0  0  0  0  0  0
   39.5590   23.3369   39.5612 H   0  0  0  0  0  0  0  0  0  0  0  0
   37.2812   23.9907   38.7936 H   0  0  0  0  0  0  0  0  0  0  0  0
   37.7085   19.6626   31.5937 H   0  0  0  0  0  0  0  0  0  0  0  0
   33.7630   15.4391   31.3246 H   0  0  0  0  0  0  0  0  0  0  0  0
   33.7595   12.9640   31.4244 H   0  0  0  0  0  0  0  0  0  0  0  0
   35.6693   11.7228   32.3856 H   0  0  0  0  0  0  0  0  0  0  0  0
   37.6442   12.9910   33.2768 H   0  0  0  0  0  0  0  0  0  0  0  0
   37.6533   15.4888   33.1742 H   0  0  0  0  0  0  0  0  0  0  0  0
  1  5  1  0
  2 11  1  0
  3  2  2  0
  4  5  1  0
  4  3  1  0
  5  6  2  0
  6  2  1  0
  7  8  2  0
  9  8  1  0
 10  9  2  0
 11 12  2  0
 11 10  1  0
 12  7  1  0
 13 17  1  0
 13  1  1  0
 14 13  1  0
 15 14  2  0
 15 16  1  0
 16 17  2  0
 18 16  1  0
 18 23  2  0
 19 20  2  0
 19 18  1  0
 20 21  1  0
 21 22  2  0
 23 22  1  0
  1 24  1  0
  1 25  1  0
  3 26  1  0
  7 27  1  0
  8 28  1  0
  9 29  1  0
 14 30  1  0
 19 31  1  0
 20 32  1  0
 21 33  1  0
 22 34  1  0
 23 35  1  0
M  ISO  8  24   8  25   8  26  14  27  14  28  14  29  14  30  14  31  14
M  ISO  4  32  14  33  14  34  14  35  14
M  END
>  <minimizedAffinity>  (1) 
-4.93090582

>  <minimizedRMSD>  (1) 
0.278633952

$$$$
