
     RDKit          3D

 35 38  0  0  0  0  0  0  0  0999 V2000
   35.3190   20.4190   32.9890 C   0  0  0  0  0  0  0  0  0  0  0  0
   37.8970   22.5270   34.5890 C   0  0  0  0  0  0  0  0  0  0  0  0
   38.3260   23.2590   33.4890 C   0  0  0  0  0  0  0  0  0  0  0  0
   37.2040   22.5130   32.1880 S   0  0  0  0  0  0  0  0  0  0  0  0
   36.3880   21.3530   33.4390 C   0  0  0  0  0  0  0  0  0  0  0  0
   36.9730   21.6390   34.4870 N   0  0  0  0  0  0  0  0  0  0  0  0
   40.1090   22.5740   37.5780 C   0  0  0  0  0  0  0  0  0  0  0  0
   39.2500   23.1610   38.5280 C   0  0  0  0  0  0  0  0  0  0  0  0
   37.9810   23.5140   38.1330 C   0  0  0  0  0  0  0  0  0  0  0  0
   37.5820   23.2880   36.8370 N   0  0  0  0  0  0  0  0  0  0  0  0
   38.4710   22.7110   35.9630 C   0  0  0  0  0  0  0  0  0  0  0  0
   39.7120   22.3510   36.2960 N   0  0  0  0  0  0  0  0  0  0  0  0
   35.8310   19.1410   32.5670 N   0  0  0  0  0  0  0  0  0  0  0  0
   36.9990   18.9230   31.9230 C   0  0  0  0  0  0  0  0  0  0  0  0
   37.1000   17.6080   31.7140 N   0  0  0  0  0  0  0  0  0  0  0  0
   36.0060   16.9890   32.2200 C   0  0  0  0  0  0  0  0  0  0  0  0
   35.2360   17.9700   32.7450 N   0  0  0  0  0  0  0  0  0  0  0  0
   35.6720   15.5660   32.2290 C   0  0  0  0  0  0  0  0  0  0  0  0
   36.6170   14.8000   32.9090 C   0  0  0  0  0  0  0  0  0  0  0  0
   36.4640   13.4340   33.0190 C   0  0  0  0  0  0  0  0  0  0  0  0
   35.3550   12.8240   32.4430 C   0  0  0  0  0  0  0  0  0  0  0  0
   34.4220   13.5870   31.7700 C   0  0  0  0  0  0  0  0  0  0  0  0
   34.5730   14.9540   31.6600 C   0  0  0  0  0  0  0  0  0  0  0  0
   34.6195   20.2587   33.8227 H   0  0  0  0  0  0  0  0  0  0  0  0
   34.8238   20.8786   32.1209 H   0  0  0  0  0  0  0  0  0  0  0  0
   39.0943   24.0420   33.4067 H   0  0  0  0  0  0  0  0  0  0  0  0
   41.1273   22.2885   37.8807 H   0  0  0  0  0  0  0  0  0  0  0  0
   39.5864   23.3328   39.5611 H   0  0  0  0  0  0  0  0  0  0  0  0
   37.2876   23.9756   38.8515 H   0  0  0  0  0  0  0  0  0  0  0  0
   37.7315   19.6879   31.6258 H   0  0  0  0  0  0  0  0  0  0  0  0
   37.4921   15.2891   33.3617 H   0  0  0  0  0  0  0  0  0  0  0  0
   37.2118   12.8328   33.5570 H   0  0  0  0  0  0  0  0  0  0  0  0
   35.2214   11.7351   32.5235 H   0  0  0  0  0  0  0  0  0  0  0  0
   33.5471   13.0990   31.3157 H   0  0  0  0  0  0  0  0  0  0  0  0
   33.8227   15.5524   31.1225 H   0  0  0  0  0  0  0  0  0  0  0  0
  1  5  1  0
  2 11  1  0
  3  2  2  0
  4  5  1  0
  4  3  1  0
  5  6  2  0
  6  2  1  0
  7  8  2  0
  9  8  1  0
 10  9  2  0
 11 12  2  0
 11 10  1  0
 12  7  1  0
 13 17  1  0
 13  1  1  0
 14 13  1  0
 15 14  2  0
 15 16  1  0
 16 18  1  0
 16 17  2  0
 18 19  2  0
 19 20  1  0
 21 20  2  0
 22 21  1  0
 23 22  2  0
 23 18  1  0
  1 24  1  0
  1 25  1  0
  3 26  1  0
  7 27  1  0
  8 28  1  0
  9 29  1  0
 14 30  1  0
 19 31  1  0
 20 32  1  0
 21 33  1  0
 22 34  1  0
 23 35  1  0
M  ISO  8  24   8  25   8  26  14  27  14  28  14  29  14  30  14  31  14
M  ISO  4  32  14  33  14  34  14  35  14
M  END
>  <minimizedAffinity>  (1) 
-4.95946646

>  <minimizedRMSD>  (1) 
0.257540524

$$$$
