
     RDKit          3D

 32 35  0  0  0  0  0  0  0  0999 V2000
   37.9420   22.4920   34.5980 C   0  0  0  0  0  0  0  0  0  0  0  0
   38.4260   23.1740   33.4820 C   0  0  0  0  0  0  0  0  0  0  0  0
   37.2990   22.4310   32.1730 S   0  0  0  0  0  0  0  0  0  0  0  0
   36.4090   21.3450   33.4410 C   0  0  0  0  0  0  0  0  0  0  0  0
   36.9860   21.6460   34.4780 N   0  0  0  0  0  0  0  0  0  0  0  0
   40.1100   22.5880   37.6110 C   0  0  0  0  0  0  0  0  0  0  0  0
   39.2350   23.1880   38.5510 C   0  0  0  0  0  0  0  0  0  0  0  0
   37.9720   23.5260   38.1210 C   0  0  0  0  0  0  0  0  0  0  0  0
   37.6030   23.2760   36.8240 N   0  0  0  0  0  0  0  0  0  0  0  0
   38.4940   22.6960   35.9720 C   0  0  0  0  0  0  0  0  0  0  0  0
   39.7310   22.3470   36.3280 N   0  0  0  0  0  0  0  0  0  0  0  0
   35.3100   20.4370   33.0060 C   0  0  0  0  0  0  0  0  0  0  0  0
   35.7770   19.1520   32.5700 N   0  0  0  0  0  0  0  0  0  0  0  0
   36.9400   18.9080   31.9330 C   0  0  0  0  0  0  0  0  0  0  0  0
   37.0130   17.5900   31.6970 N   0  0  0  0  0  0  0  0  0  0  0  0
   35.8980   17.0040   32.1820 C   0  0  0  0  0  0  0  0  0  0  0  0
   35.1570   18.0020   32.7160 N   0  0  0  0  0  0  0  0  0  0  0  0
   35.5860   15.6160   32.1330 N   0  0  0  0  0  0  0  0  0  0  0  0
   36.3700   14.7810   32.8520 C   0  0  0  0  0  0  0  0  0  0  0  0
   35.9300   13.4810   32.6910 C   0  0  0  0  0  0  0  0  0  0  0  0
   34.8580   13.5610   31.8540 N   0  0  0  0  0  0  0  0  0  0  0  0
   34.6650   14.8470   31.5270 C   0  0  0  0  0  0  0  0  0  0  0  0
   39.2272   23.9225   33.3939 H   0  0  0  0  0  0  0  0  0  0  0  0
   41.1254   22.3092   37.9291 H   0  0  0  0  0  0  0  0  0  0  0  0
   39.5539   23.3767   39.5867 H   0  0  0  0  0  0  0  0  0  0  0  0
   37.2603   23.9955   38.8160 H   0  0  0  0  0  0  0  0  0  0  0  0
   34.6223   20.2904   33.8519 H   0  0  0  0  0  0  0  0  0  0  0  0
   34.8137   20.9128   32.1473 H   0  0  0  0  0  0  0  0  0  0  0  0
   37.6956   19.6578   31.6558 H   0  0  0  0  0  0  0  0  0  0  0  0
   37.2262   15.0892   33.4699 H   0  0  0  0  0  0  0  0  0  0  0  0
   36.3555   12.5730   33.1433 H   0  0  0  0  0  0  0  0  0  0  0  0
   33.8711   15.2175   30.8618 H   0  0  0  0  0  0  0  0  0  0  0  0
  1 10  1  0
  2  1  2  0
  3  4  1  0
  3  2  1  0
  4  5  2  0
  5  1  1  0
  6  7  2  0
  8  7  1  0
  9  8  2  0
 10 11  2  0
 10  9  1  0
 11  6  1  0
 12  4  1  0
 13 17  1  0
 13 12  1  0
 14 13  1  0
 15 14  2  0
 15 16  1  0
 16 17  2  0
 18 16  1  0
 18 19  1  0
 20 19  2  0
 21 20  1  0
 22 21  2  0
 22 18  1  0
  2 23  1  0
  6 24  1  0
  7 25  1  0
  8 26  1  0
 12 27  1  0
 12 28  1  0
 14 29  1  0
 19 30  1  0
 20 31  1  0
 22 32  1  0
M  ISO  8  23  14  24  14  25  14  26  14  27   8  28   8  29  14  30  14
M  ISO  2  31  14  32  14
M  END
>  <minimizedAffinity>  (1) 
-4.9553957

>  <minimizedRMSD>  (1) 
0.122440159

$$$$
