
     RDKit          3D

 46 49  0  0  1  0  0  0  0  0999 V2000
   36.1300   29.1960   32.8360 C   0  0  0  0  0  0  0  0  0  0  0  0
   36.5210   28.0060   32.2850 C   0  0  0  0  0  0  0  0  0  0  0  0
   36.9300   26.9790   33.1290 C   0  0  0  0  0  0  0  0  0  0  0  0
   36.9380   27.1650   34.5000 C   0  0  0  0  0  0  0  0  0  0  0  0
   36.5440   28.3580   35.0630 C   0  0  0  0  0  0  0  0  0  0  0  0
   36.1370   29.3830   34.2310 C   0  0  0  0  0  0  0  0  0  0  0  0
   37.4130   25.9750   35.2380 C   0  0  0  0  0  0  0  0  0  0  0  0
   38.8380   25.6130   34.9490 C   0  0  2  0  0  0  0  0  0  0  0  0
   41.0720   23.0390   36.2930 C   0  0  0  0  0  0  0  0  0  0  0  0
   40.3550   22.5420   37.4250 C   0  0  0  0  0  0  0  0  0  0  0  0
   39.1020   23.1050   37.7100 C   0  0  0  0  0  0  0  0  0  0  0  0
   38.6380   24.1000   36.8840 N   0  0  0  0  0  0  0  0  0  0  0  0
   39.3450   24.5420   35.8210 C   0  0  0  0  0  0  0  0  0  0  0  0
   40.5580   24.0200   35.5190 N   0  0  0  0  0  0  0  0  0  0  0  0
   39.7000   26.8520   35.1680 C   0  0  0  0  0  0  0  0  0  0  0  0
   35.5990   30.4860   31.7840 S   0  0  0  0  0  0  0  0  0  0  0  0
   36.0070   30.0990   30.3590 O   0  0  0  0  0  0  0  0  0  0  0  0
   36.2660   31.7740   32.1280 O   0  0  0  0  0  0  0  0  0  0  0  0
   33.8590   30.6290   31.8590 C   0  0  0  0  0  0  0  0  0  0  0  0
   32.9470   29.8450   32.5370 C   0  0  0  0  0  0  0  0  0  0  0  0
   31.6840   30.2700   32.3530 N   0  0  0  0  0  0  0  0  0  0  0  0
   31.7380   31.3420   31.5480 C   0  0  0  0  0  0  0  0  0  0  0  0
   30.7310   32.1690   31.0380 C   0  0  0  0  0  0  0  0  0  0  0  0
   31.0950   33.2180   30.2200 C   0  0  0  0  0  0  0  0  0  0  0  0
   32.4280   33.4580   29.9030 C   0  0  0  0  0  0  0  0  0  0  0  0
   33.4280   32.6340   30.4110 C   0  0  0  0  0  0  0  0  0  0  0  0
   33.0590   31.5850   31.2300 C   0  0  0  0  0  0  0  0  0  0  0  0
   36.5120   27.8642   31.1942 H   0  0  0  0  0  0  0  0  0  0  0  0
   37.2483   26.0152   32.7049 H   0  0  0  0  0  0  0  0  0  0  0  0
   36.5531   28.4925   36.1547 H   0  0  0  0  0  0  0  0  0  0  0  0
   35.8185   30.3451   34.6587 H   0  0  0  0  0  0  0  0  0  0  0  0
   37.3175   26.1743   36.3156 H   0  0  0  0  0  0  0  0  0  0  0  0
   36.7942   25.1267   34.9102 H   0  0  0  0  0  0  0  0  0  0  0  0
   38.8840   25.2492   33.9119 H   0  0  0  0  0  0  0  0  0  0  0  0
   42.0576   22.6163   36.0481 H   0  0  0  0  0  0  0  0  0  0  0  0
   40.7730   21.7421   38.0539 H   0  0  0  0  0  0  0  0  0  0  0  0
   38.5085   22.7600   38.5695 H   0  0  0  0  0  0  0  0  0  0  0  0
   39.8222   27.0276   36.2470 H   0  0  0  0  0  0  0  0  0  0  0  0
   40.6870   26.6981   34.7075 H   0  0  0  0  0  0  0  0  0  0  0  0
   39.2125   27.7239   34.7075 H   0  0  0  0  0  0  0  0  0  0  0  0
   33.2205   28.9764   33.1541 H   0  0  0  0  0  0  0  0  0  0  0  0
   30.8337   29.8505   32.7553 H   0  0  0  0  0  0  0  0  0  0  0  0
   29.6744   31.9868   31.2836 H   0  0  0  0  0  0  0  0  0  0  0  0
   30.3160   33.8778   29.8102 H   0  0  0  0  0  0  0  0  0  0  0  0
   32.6926   34.3017   29.2487 H   0  0  0  0  0  0  0  0  0  0  0  0
   34.4853   32.8137   30.1664 H   0  0  0  0  0  0  0  0  0  0  0  0
  1  6  1  0
  2  1  2  0
  2  3  1  0
  3  4  2  0
  4  5  1  0
  4  7  1  0
  6  5  2  0
  8 15  1  0
  8  7  1  0
  8 13  1  0
  9 10  2  0
 10 11  1  0
 12 11  2  0
 13 12  1  0
 14 13  2  0
 14  9  1  0
 16 19  1  0
 16 18  2  0
 16  1  1  0
 17 16  2  0
 19 20  2  0
 21 20  1  0
 22 21  1  0
 23 22  2  0
 24 23  1  0
 25 24  2  0
 25 26  1  0
 26 27  2  0
 27 22  1  0
 27 19  1  0
  2 28  1  0
  3 29  1  0
  5 30  1  0
  6 31  1  0
  7 32  1  0
  7 33  1  0
  8 34  1  6
  9 35  1  0
 10 36  1  0
 11 37  1  0
 15 38  1  0
 15 39  1  0
 15 40  1  0
 20 41  1  0
 21 42  1  0
 23 43  1  0
 24 44  1  0
 25 45  1  0
 26 46  1  0
M  ISO  8  28  14  29  14  30  14  31  14  32   8  33   8  34   8  35  14
M  ISO  8  36  14  37  14  38   8  39   8  40   8  41  14  42   9  43  14
M  ISO  3  44  14  45  14  46  14
M  END
>  <minimizedAffinity>  (1) 
-5.40560293

>  <minimizedRMSD>  (1) 
1.99645567

$$$$
