
     RDKit          3D

 37 39  0  0  0  0  0  0  0  0999 V2000
   37.8040   22.4810   34.5090 C   0  0  0  0  0  0  0  0  0  0  0  0
   38.1940   23.2380   33.4080 C   0  0  0  0  0  0  0  0  0  0  0  0
   37.0860   22.4550   32.1050 S   0  0  0  0  0  0  0  0  0  0  0  0
   36.3300   21.2550   33.3680 C   0  0  0  0  0  0  0  0  0  0  0  0
   36.9090   21.5560   34.4000 N   0  0  0  0  0  0  0  0  0  0  0  0
   40.0540   22.5940   37.4610 C   0  0  0  0  0  0  0  0  0  0  0  0
   39.1970   23.1610   38.4320 C   0  0  0  0  0  0  0  0  0  0  0  0
   37.8980   23.4790   38.0470 C   0  0  0  0  0  0  0  0  0  0  0  0
   37.5060   23.2340   36.7560 N   0  0  0  0  0  0  0  0  0  0  0  0
   38.3880   22.6830   35.8720 C   0  0  0  0  0  0  0  0  0  0  0  0
   39.6460   22.3560   36.1800 N   0  0  0  0  0  0  0  0  0  0  0  0
   35.2950   20.2830   32.9340 C   0  0  0  0  0  0  0  0  0  0  0  0
   35.8440   19.0100   32.5360 N   0  0  0  0  0  0  0  0  0  0  0  0
   37.0100   18.8310   31.8850 C   0  0  0  0  0  0  0  0  0  0  0  0
   37.1620   17.5040   31.7010 N   0  0  0  0  0  0  0  0  0  0  0  0
   36.1090   16.8570   32.2280 C   0  0  0  0  0  0  0  0  0  0  0  0
   35.3150   17.8250   32.7360 N   0  0  0  0  0  0  0  0  0  0  0  0
   35.8160   15.3920   32.2770 C   0  0  0  0  0  0  0  0  0  0  0  0
   35.4150   14.8570   30.9290 C   0  0  0  0  0  0  0  0  0  0  0  0
   34.7220   15.0520   33.2580 C   0  0  0  0  0  0  0  0  0  0  0  0
   37.0490   14.6050   32.6990 C   0  0  0  0  0  0  0  0  0  0  0  0
   38.9301   24.0511   33.3247 H   0  0  0  0  0  0  0  0  0  0  0  0
   41.0843   22.3359   37.7472 H   0  0  0  0  0  0  0  0  0  0  0  0
   39.5458   23.3449   39.4589 H   0  0  0  0  0  0  0  0  0  0  0  0
   37.1952   23.9209   38.7686 H   0  0  0  0  0  0  0  0  0  0  0  0
   34.5982   20.1178   33.7690 H   0  0  0  0  0  0  0  0  0  0  0  0
   34.7914   20.7116   32.0550 H   0  0  0  0  0  0  0  0  0  0  0  0
   37.7069   19.6193   31.5640 H   0  0  0  0  0  0  0  0  0  0  0  0
   34.7601   13.9832   31.0613 H   0  0  0  0  0  0  0  0  0  0  0  0
   34.8772   15.6370   30.3701 H   0  0  0  0  0  0  0  0  0  0  0  0
   36.3146   14.5597   30.3701 H   0  0  0  0  0  0  0  0  0  0  0  0
   35.1002   15.1695   34.2842 H   0  0  0  0  0  0  0  0  0  0  0  0
   33.8674   15.7269   33.1026 H   0  0  0  0  0  0  0  0  0  0  0  0
   34.4005   14.0116   33.1026 H   0  0  0  0  0  0  0  0  0  0  0  0
   37.1036   14.5701   33.7971 H   0  0  0  0  0  0  0  0  0  0  0  0
   36.9839   13.5810   32.3024 H   0  0  0  0  0  0  0  0  0  0  0  0
   37.9503   15.0952   32.3024 H   0  0  0  0  0  0  0  0  0  0  0  0
  1 10  1  0
  2  1  2  0
  3  4  1  0
  3  2  1  0
  4  5  2  0
  5  1  1  0
  6  7  2  0
  8  7  1  0
  9  8  2  0
 10 11  2  0
 10  9  1  0
 11  6  1  0
 12  4  1  0
 13 17  1  0
 13 12  1  0
 14 13  1  0
 15 14  2  0
 15 16  1  0
 16 18  1  0
 16 17  2  0
 18 21  1  0
 18 20  1  0
 19 18  1  0
  2 22  1  0
  6 23  1  0
  7 24  1  0
  8 25  1  0
 12 26  1  0
 12 27  1  0
 14 28  1  0
 19 29  1  0
 19 30  1  0
 19 31  1  0
 20 32  1  0
 20 33  1  0
 20 34  1  0
 21 35  1  0
 21 36  1  0
 21 37  1  0
M  ISO  8  22  14  23  14  24  14  25  14  26   8  27   8  28  14  29   8
M  ISO  8  30   8  31   8  32   8  33   8  34   8  35   8  36   8  37   8
M  END
>  <minimizedAffinity>  (1) 
-4.75404787

>  <minimizedRMSD>  (1) 
0.452623516

$$$$
