
     RDKit          3D

 33 36  0  0  0  0  0  0  0  0999 V2000
   35.3310   20.4670   32.9130 C   0  0  0  0  0  0  0  0  0  0  0  0
   37.9570   22.4880   34.5630 C   0  0  0  0  0  0  0  0  0  0  0  0
   38.4800   23.1490   33.4530 C   0  0  0  0  0  0  0  0  0  0  0  0
   37.3830   22.4190   32.1300 S   0  0  0  0  0  0  0  0  0  0  0  0
   36.4380   21.3580   33.3890 C   0  0  0  0  0  0  0  0  0  0  0  0
   36.9820   21.6480   34.4390 N   0  0  0  0  0  0  0  0  0  0  0  0
   40.0680   22.5850   37.6140 C   0  0  0  0  0  0  0  0  0  0  0  0
   39.1850   23.1840   38.5360 C   0  0  0  0  0  0  0  0  0  0  0  0
   37.9310   23.5220   38.0850 C   0  0  0  0  0  0  0  0  0  0  0  0
   37.5650   23.2810   36.7810 N   0  0  0  0  0  0  0  0  0  0  0  0
   38.4760   22.6960   35.9450 C   0  0  0  0  0  0  0  0  0  0  0  0
   39.7090   22.3460   36.3270 N   0  0  0  0  0  0  0  0  0  0  0  0
   35.7830   19.1520   32.5550 N   0  0  0  0  0  0  0  0  0  0  0  0
   36.9360   18.8620   31.8950 C   0  0  0  0  0  0  0  0  0  0  0  0
   36.9870   17.5330   31.7580 N   0  0  0  0  0  0  0  0  0  0  0  0
   35.8850   16.9860   32.3210 C   0  0  0  0  0  0  0  0  0  0  0  0
   35.1670   18.0180   32.8030 N   0  0  0  0  0  0  0  0  0  0  0  0
   35.8000   15.5320   32.2500 C   0  0  0  0  0  0  0  0  0  0  0  0
   34.8500   15.0110   33.1250 C   0  0  0  0  0  0  0  0  0  0  0  0
   34.6300   13.6490   33.1950 C   0  0  0  0  0  0  0  0  0  0  0  0
   35.3670   12.8630   32.3890 N   0  0  0  0  0  0  0  0  0  0  0  0
   36.2850   13.3660   31.5410 C   0  0  0  0  0  0  0  0  0  0  0  0
   36.5090   14.7040   31.4660 N   0  0  0  0  0  0  0  0  0  0  0  0
   34.5855   20.3746   33.7165 H   0  0  0  0  0  0  0  0  0  0  0  0
   34.9055   20.9260   32.0084 H   0  0  0  0  0  0  0  0  0  0  0  0
   39.2963   23.8826   33.3785 H   0  0  0  0  0  0  0  0  0  0  0  0
   41.0776   22.3031   37.9477 H   0  0  0  0  0  0  0  0  0  0  0  0
   39.4880   23.3736   39.5763 H   0  0  0  0  0  0  0  0  0  0  0  0
   37.2127   23.9901   38.7742 H   0  0  0  0  0  0  0  0  0  0  0  0
   37.6856   19.5848   31.5405 H   0  0  0  0  0  0  0  0  0  0  0  0
   34.2694   15.6904   33.7664 H   0  0  0  0  0  0  0  0  0  0  0  0
   33.8828   13.2244   33.8816 H   0  0  0  0  0  0  0  0  0  0  0  0
   36.8618   12.6833   30.8997 H   0  0  0  0  0  0  0  0  0  0  0  0
  1  5  1  0
  2 11  1  0
  3  2  2  0
  4  5  1  0
  4  3  1  0
  5  6  2  0
  6  2  1  0
  7  8  2  0
  9  8  1  0
 10  9  2  0
 11 12  2  0
 11 10  1  0
 12  7  1  0
 13 17  1  0
 13  1  1  0
 14 13  1  0
 15 14  2  0
 15 16  1  0
 16 17  2  0
 18 16  1  0
 18 19  2  0
 19 20  1  0
 21 20  2  0
 22 21  1  0
 23 22  2  0
 23 18  1  0
  1 24  1  0
  1 25  1  0
  3 26  1  0
  7 27  1  0
  8 28  1  0
  9 29  1  0
 14 30  1  0
 19 31  1  0
 20 32  1  0
 22 33  1  0
M  ISO  8  24   8  25   8  26  14  27  14  28  14  29  14  30  14  31  14
M  ISO  2  32  14  33  14
M  END
>  <minimizedAffinity>  (1) 
-4.82034206

>  <minimizedRMSD>  (1) 
0.21413061

$$$$
