
     RDKit          3D

 32 35  0  0  0  0  0  0  0  0999 V2000
   37.9690   22.5270   34.5520 C   0  0  0  0  0  0  0  0  0  0  0  0
   38.4680   23.1990   33.4590 C   0  0  0  0  0  0  0  0  0  0  0  0
   37.3620   22.4810   32.1360 S   0  0  0  0  0  0  0  0  0  0  0  0
   36.4400   21.3980   33.3870 C   0  0  0  0  0  0  0  0  0  0  0  0
   36.9960   21.6810   34.4350 N   0  0  0  0  0  0  0  0  0  0  0  0
   40.0830   22.5870   37.6160 C   0  0  0  0  0  0  0  0  0  0  0  0
   39.1960   23.1840   38.5390 C   0  0  0  0  0  0  0  0  0  0  0  0
   37.9400   23.5370   38.0950 C   0  0  0  0  0  0  0  0  0  0  0  0
   37.6050   23.2970   36.7930 N   0  0  0  0  0  0  0  0  0  0  0  0
   38.5010   22.7180   35.9450 C   0  0  0  0  0  0  0  0  0  0  0  0
   39.7320   22.3540   36.3190 N   0  0  0  0  0  0  0  0  0  0  0  0
   35.3350   20.5060   32.9170 C   0  0  0  0  0  0  0  0  0  0  0  0
   35.7930   19.1920   32.5500 N   0  0  0  0  0  0  0  0  0  0  0  0
   36.9360   18.9090   31.8990 C   0  0  0  0  0  0  0  0  0  0  0  0
   36.9970   17.5810   31.7480 N   0  0  0  0  0  0  0  0  0  0  0  0
   35.9010   17.0280   32.2980 C   0  0  0  0  0  0  0  0  0  0  0  0
   35.1820   18.0420   32.7820 N   0  0  0  0  0  0  0  0  0  0  0  0
   35.5830   15.6040   32.3450 C   0  0  0  0  0  0  0  0  0  0  0  0
   36.3740   14.6190   32.8990 C   0  0  0  0  0  0  0  0  0  0  0  0
   35.7170   13.3960   32.7410 C   0  0  0  0  0  0  0  0  0  0  0  0
   34.5330   13.7400   32.0780 C   0  0  0  0  0  0  0  0  0  0  0  0
   34.5050   15.0360   31.8720 O   0  0  0  0  0  0  0  0  0  0  0  0
   39.2782   23.9395   33.3863 H   0  0  0  0  0  0  0  0  0  0  0  0
   41.0897   22.3007   37.9544 H   0  0  0  0  0  0  0  0  0  0  0  0
   39.4988   23.3619   39.5814 H   0  0  0  0  0  0  0  0  0  0  0  0
   37.2176   24.0054   38.7796 H   0  0  0  0  0  0  0  0  0  0  0  0
   34.5961   20.4068   33.7258 H   0  0  0  0  0  0  0  0  0  0  0  0
   34.8992   20.9664   32.0181 H   0  0  0  0  0  0  0  0  0  0  0  0
   37.6845   19.6373   31.5536 H   0  0  0  0  0  0  0  0  0  0  0  0
   37.3512   14.7700   33.3809 H   0  0  0  0  0  0  0  0  0  0  0  0
   36.0512   12.3983   33.0619 H   0  0  0  0  0  0  0  0  0  0  0  0
   33.7466   13.0326   31.7760 H   0  0  0  0  0  0  0  0  0  0  0  0
  1 10  1  0
  2  1  2  0
  3  4  1  0
  3  2  1  0
  4  5  2  0
  5  1  1  0
  6  7  2  0
  8  7  1  0
  9  8  2  0
 10 11  2  0
 10  9  1  0
 11  6  1  0
 12  4  1  0
 13 17  1  0
 13 12  1  0
 14 13  1  0
 15 14  2  0
 15 16  1  0
 16 18  1  0
 16 17  2  0
 18 19  2  0
 20 19  1  0
 21 20  2  0
 22 21  1  0
 22 18  1  0
  2 23  1  0
  6 24  1  0
  7 25  1  0
  8 26  1  0
 12 27  1  0
 12 28  1  0
 14 29  1  0
 19 30  1  0
 20 31  1  0
 21 32  1  0
M  ISO  8  23  14  24  14  25  14  26  14  27   8  28   8  29  14  30  14
M  ISO  2  31  14  32  14
M  END
>  <minimizedAffinity>  (1) 
-4.82497358

>  <minimizedRMSD>  (1) 
0.146446601

$$$$
