
     RDKit          3D

 32 35  0  0  0  0  0  0  0  0999 V2000
   37.9060   22.4780   34.6020 C   0  0  0  0  0  0  0  0  0  0  0  0
   38.3630   23.1740   33.4890 C   0  0  0  0  0  0  0  0  0  0  0  0
   37.2380   22.4160   32.1860 S   0  0  0  0  0  0  0  0  0  0  0  0
   36.3820   21.3030   33.4690 C   0  0  0  0  0  0  0  0  0  0  0  0
   36.9560   21.6010   34.5080 N   0  0  0  0  0  0  0  0  0  0  0  0
   40.1200   22.5710   37.5910 C   0  0  0  0  0  0  0  0  0  0  0  0
   39.2600   23.1770   38.5400 C   0  0  0  0  0  0  0  0  0  0  0  0
   37.9790   23.5230   38.1260 C   0  0  0  0  0  0  0  0  0  0  0  0
   37.5930   23.2720   36.8320 N   0  0  0  0  0  0  0  0  0  0  0  0
   38.4690   22.6870   35.9730 C   0  0  0  0  0  0  0  0  0  0  0  0
   39.7190   22.3290   36.3110 N   0  0  0  0  0  0  0  0  0  0  0  0
   35.2980   20.3800   33.0300 C   0  0  0  0  0  0  0  0  0  0  0  0
   35.7840   19.1100   32.5710 N   0  0  0  0  0  0  0  0  0  0  0  0
   36.9650   18.9050   31.9480 C   0  0  0  0  0  0  0  0  0  0  0  0
   37.0620   17.5880   31.6760 N   0  0  0  0  0  0  0  0  0  0  0  0
   35.9350   16.9770   32.1320 C   0  0  0  0  0  0  0  0  0  0  0  0
   35.1880   17.9440   32.6700 N   0  0  0  0  0  0  0  0  0  0  0  0
   35.6250   15.5220   32.0380 C   0  0  0  0  0  0  0  0  0  0  0  0
   36.4550   14.6420   33.0270 C   0  0  0  0  0  0  0  0  0  0  0  0
   34.9970   14.7990   33.1460 C   0  0  0  0  0  0  0  0  0  0  0  0
   39.1479   23.9393   33.3975 H   0  0  0  0  0  0  0  0  0  0  0  0
   41.1385   22.2883   37.8954 H   0  0  0  0  0  0  0  0  0  0  0  0
   39.5950   23.3674   39.5703 H   0  0  0  0  0  0  0  0  0  0  0  0
   37.2785   23.9951   38.8306 H   0  0  0  0  0  0  0  0  0  0  0  0
   34.6206   20.2081   33.8795 H   0  0  0  0  0  0  0  0  0  0  0  0
   34.7866   20.8586   32.1818 H   0  0  0  0  0  0  0  0  0  0  0  0
   37.7131   19.6743   31.7061 H   0  0  0  0  0  0  0  0  0  0  0  0
   35.3955   15.5817   30.9639 H   0  0  0  0  0  0  0  0  0  0  0  0
   36.8864   13.6865   32.6939 H   0  0  0  0  0  0  0  0  0  0  0  0
   37.3237   14.7948   33.6842 H   0  0  0  0  0  0  0  0  0  0  0  0
   34.5847   15.3665   33.9933 H   0  0  0  0  0  0  0  0  0  0  0  0
   34.1656   14.0807   33.1994 H   0  0  0  0  0  0  0  0  0  0  0  0
  1 10  1  0
  2  1  2  0
  3  4  1  0
  3  2  1  0
  4  5  2  0
  5  1  1  0
  6  7  2  0
  8  7  1  0
  9  8  2  0
 10 11  2  0
 10  9  1  0
 11  6  1  0
 12  4  1  0
 13 17  1  0
 13 12  1  0
 14 13  1  0
 15 14  2  0
 15 16  1  0
 16 17  2  0
 18 16  1  0
 18 19  1  0
 18 20  1  0
 19 20  1  0
  2 21  1  0
  6 22  1  0
  7 23  1  0
  8 24  1  0
 12 25  1  0
 12 26  1  0
 14 27  1  0
 18 28  1  0
 19 29  1  0
 19 30  1  0
 20 31  1  0
 20 32  1  0
M  ISO  8  21  14  22  14  23  14  24  14  25   8  26   8  27  14  28  13
M  ISO  4  29  13  30  13  31  13  32  13
M  END
>  <minimizedAffinity>  (1) 
-4.68291092

>  <minimizedRMSD>  (1) 
0.257175952

$$$$
