
     RDKit          3D

 27 29  0  0  0  0  0  0  0  0999 V2000
   37.9590   22.5240   34.5450 C   0  0  0  0  0  0  0  0  0  0  0  0
   38.4630   23.2150   33.4470 C   0  0  0  0  0  0  0  0  0  0  0  0
   37.3480   22.4950   32.1270 S   0  0  0  0  0  0  0  0  0  0  0  0
   36.4350   21.4050   33.3710 C   0  0  0  0  0  0  0  0  0  0  0  0
   36.9980   21.6870   34.4160 N   0  0  0  0  0  0  0  0  0  0  0  0
   40.0950   22.5740   37.5880 C   0  0  0  0  0  0  0  0  0  0  0  0
   39.2200   23.1730   38.5220 C   0  0  0  0  0  0  0  0  0  0  0  0
   37.9590   23.5300   38.0850 C   0  0  0  0  0  0  0  0  0  0  0  0
   37.5960   23.2970   36.7800 N   0  0  0  0  0  0  0  0  0  0  0  0
   38.5000   22.7120   35.9310 C   0  0  0  0  0  0  0  0  0  0  0  0
   39.7350   22.3430   36.2920 N   0  0  0  0  0  0  0  0  0  0  0  0
   35.3320   20.5140   32.9000 C   0  0  0  0  0  0  0  0  0  0  0  0
   35.7880   19.1990   32.5480 N   0  0  0  0  0  0  0  0  0  0  0  0
   36.9470   18.8920   31.9060 C   0  0  0  0  0  0  0  0  0  0  0  0
   37.0060   17.5710   31.7650 N   0  0  0  0  0  0  0  0  0  0  0  0
   35.8890   17.0250   32.3160 C   0  0  0  0  0  0  0  0  0  0  0  0
   35.1620   18.0620   32.7890 N   0  0  0  0  0  0  0  0  0  0  0  0
   35.5400   15.6530   32.3880 N   0  0  0  0  0  0  0  0  0  0  0  0
   39.2709   23.9582   33.3764 H   0  0  0  0  0  0  0  0  0  0  0  0
   41.1034   22.2832   37.9176 H   0  0  0  0  0  0  0  0  0  0  0  0
   39.5324   23.3491   39.5619 H   0  0  0  0  0  0  0  0  0  0  0  0
   37.2472   23.9996   38.7798 H   0  0  0  0  0  0  0  0  0  0  0  0
   34.5864   20.4235   33.7037 H   0  0  0  0  0  0  0  0  0  0  0  0
   34.9043   20.9686   31.9942 H   0  0  0  0  0  0  0  0  0  0  0  0
   37.7046   19.6119   31.5627 H   0  0  0  0  0  0  0  0  0  0  0  0
   34.6570   15.3690   32.8359 H   0  0  0  0  0  0  0  0  0  0  0  0
   36.1694   14.9401   31.9924 H   0  0  0  0  0  0  0  0  0  0  0  0
  1 10  1  0
  2  1  2  0
  3  4  1  0
  3  2  1  0
  4  5  2  0
  5  1  1  0
  6  7  2  0
  8  7  1  0
  9  8  2  0
 10 11  2  0
 10  9  1  0
 11  6  1  0
 12  4  1  0
 13 17  1  0
 13 12  1  0
 14 13  1  0
 15 14  2  0
 15 16  1  0
 16 18  1  0
 16 17  2  0
  2 19  1  0
  6 20  1  0
  7 21  1  0
  8 22  1  0
 12 23  1  0
 12 24  1  0
 14 25  1  0
 18 26  1  0
 18 27  1  0
M  ISO  7  19  14  20  14  21  14  22  14  23   8  24   8  25  14
M  END
>  <minimizedAffinity>  (1) 
-4.44166851

>  <minimizedRMSD>  (1) 
0.0968986228

$$$$
