
     RDKit          3D

 41 44  0  0  0  0  0  0  0  0999 V2000
   36.7410   22.8830   31.5380 N   0  0  0  0  0  0  0  0  0  0  0  0
   37.5350   22.0060   30.8910 C   0  0  0  0  0  0  0  0  0  0  0  0
   37.0250   20.7700   31.0110 N   0  0  0  0  0  0  0  0  0  0  0  0
   35.8760   20.8720   31.7570 C   0  0  0  0  0  0  0  0  0  0  0  0
   35.7540   22.1760   32.0470 N   0  0  0  0  0  0  0  0  0  0  0  0
   38.7280   21.9830   30.1270 N   0  0  0  0  0  0  0  0  0  0  0  0
   39.4330   20.8090   30.0940 C   0  0  0  0  0  0  0  0  0  0  0  0
   40.6040   20.8180   29.3600 C   0  0  0  0  0  0  0  0  0  0  0  0
   41.4020   19.5670   29.2960 C   0  0  0  0  0  0  0  0  0  0  0  0
   40.9960   21.9870   28.7080 C   0  0  0  0  0  0  0  0  0  0  0  0
   42.0770   21.9920   28.0310 O   0  0  0  0  0  0  0  0  0  0  0  0
   40.2390   23.0990   28.7940 N   0  0  0  0  0  0  0  0  0  0  0  0
   39.0920   23.1420   29.4960 C   0  0  0  0  0  0  0  0  0  0  0  0
   38.3480   24.1490   29.6110 O   0  0  0  0  0  0  0  0  0  0  0  0
   34.9600   19.7660   32.1520 C   0  0  0  0  0  0  0  0  0  0  0  0
   35.3510   18.6170   31.4650 F   0  0  0  0  0  0  0  0  0  0  0  0
   35.1340   19.5440   33.4910 F   0  0  0  0  0  0  0  0  0  0  0  0
   33.6320   20.0890   31.8980 F   0  0  0  0  0  0  0  0  0  0  0  0
   36.9960   24.2800   31.5990 C   0  0  0  0  0  0  0  0  0  0  0  0
   38.1460   25.0810   35.0110 C   0  0  0  0  0  0  0  0  0  0  0  0
   38.1160   26.4580   34.9250 C   0  0  0  0  0  0  0  0  0  0  0  0
   37.5160   26.6330   33.1680 S   0  0  0  0  0  0  0  0  0  0  0  0
   37.4340   24.7720   32.9240 C   0  0  0  0  0  0  0  0  0  0  0  0
   37.8070   24.3600   34.0200 N   0  0  0  0  0  0  0  0  0  0  0  0
   39.8150   22.8850   37.4980 C   0  0  0  0  0  0  0  0  0  0  0  0
   39.0630   23.2130   38.6680 C   0  0  0  0  0  0  0  0  0  0  0  0
   38.0520   24.1380   38.5640 C   0  0  0  0  0  0  0  0  0  0  0  0
   37.7940   24.7180   37.3430 N   0  0  0  0  0  0  0  0  0  0  0  0
   38.5560   24.3580   36.2510 C   0  0  0  0  0  0  0  0  0  0  0  0
   39.5480   23.4680   36.2940 N   0  0  0  0  0  0  0  0  0  0  0  0
   39.0863   19.9088   30.6225 H   0  0  0  0  0  0  0  0  0  0  0  0
   41.6230   19.2205   30.3163 H   0  0  0  0  0  0  0  0  0  0  0  0
   40.8298   18.7940   28.7621 H   0  0  0  0  0  0  0  0  0  0  0  0
   42.3442   19.7600   28.7621 H   0  0  0  0  0  0  0  0  0  0  0  0
   40.5508   23.9491   28.3031 H   0  0  0  0  0  0  0  0  0  0  0  0
   37.7835   24.5166   30.8683 H   0  0  0  0  0  0  0  0  0  0  0  0
   36.0402   24.7797   31.3828 H   0  0  0  0  0  0  0  0  0  0  0  0
   38.3705   27.2249   35.6714 H   0  0  0  0  0  0  0  0  0  0  0  0
   40.6269   22.1463   37.5698 H   0  0  0  0  0  0  0  0  0  0  0  0
   39.2888   22.7347   39.6325 H   0  0  0  0  0  0  0  0  0  0  0  0
   37.4557   24.4117   39.4469 H   0  0  0  0  0  0  0  0  0  0  0  0
  1 19  1  0
  1  5  1  0
  2  3  2  0
  2  1  1  0
  3  4  1  0
  4  5  2  0
  4 15  1  0
  6  2  1  0
  7  6  1  0
  8  7  2  0
  9  8  1  0
 10 12  1  0
 10  8  1  0
 11 10  2  0
 12 13  1  0
 13 14  2  0
 13  6  1  0
 15 17  1  0
 16 15  1  0
 18 15  1  0
 19 23  1  0
 20 29  1  0
 21 20  2  0
 22 21  1  0
 23 22  1  0
 23 24  2  0
 24 20  1  0
 25 26  2  0
 27 26  1  0
 28 27  2  0
 29 30  2  0
 29 28  1  0
 30 25  1  0
  7 31  1  0
  9 32  1  0
  9 33  1  0
  9 34  1  0
 12 35  1  0
 19 36  1  0
 19 37  1  0
 21 38  1  0
 25 39  1  0
 26 40  1  0
 27 41  1  0
M  ISO  8  31  14  32   8  33   8  34   8  35   9  36   8  37   8  38  14
M  ISO  3  39  14  40  14  41  14
M  END
>  <minimizedAffinity>  (1) 
-5.87453222

>  <minimizedRMSD>  (1) 
3.08197808

$$$$
