
     RDKit          3D

 35 37  0  0  0  0  0  0  0  0999 V2000
   35.0610   20.6100   32.4560 C   0  0  0  0  0  0  0  0  0  0  0  0
   35.4570   19.2700   32.1130 N   0  0  0  0  0  0  0  0  0  0  0  0
   36.1790   18.9440   31.0300 C   0  0  0  0  0  0  0  0  0  0  0  0
   36.3450   17.6200   31.0540 N   0  0  0  0  0  0  0  0  0  0  0  0
   35.7350   17.0960   32.1390 C   0  0  0  0  0  0  0  0  0  0  0  0
   35.2050   18.1420   32.7610 N   0  0  0  0  0  0  0  0  0  0  0  0
   36.7260   19.5660   29.9000 N   0  0  0  0  0  0  0  0  0  0  0  0
   37.0140   18.8990   28.6510 C   0  0  0  0  0  0  0  0  0  0  0  0
   36.3290   17.8050   28.3710 N   0  0  0  0  0  0  0  0  0  0  0  0
   37.9970   19.3120   27.6780 N   0  0  0  0  0  0  0  0  0  0  0  0
   36.4490   17.2550   27.5180 H   0  0  0  0  0  0  0  0  0  0  0  0
   35.6750   15.6550   32.5220 C   0  0  0  0  0  0  0  0  0  0  0  0
   36.8970   15.2920   33.0600 F   0  0  0  0  0  0  0  0  0  0  0  0
   34.7110   15.5410   33.4880 F   0  0  0  0  0  0  0  0  0  0  0  0
   35.3270   14.8530   31.4400 F   0  0  0  0  0  0  0  0  0  0  0  0
   37.7940   22.5160   34.0410 C   0  0  0  0  0  0  0  0  0  0  0  0
   38.1190   23.3290   32.9770 C   0  0  0  0  0  0  0  0  0  0  0  0
   36.8570   22.7010   31.7380 S   0  0  0  0  0  0  0  0  0  0  0  0
   36.1570   21.4540   32.9510 C   0  0  0  0  0  0  0  0  0  0  0  0
   36.8560   21.6660   33.9310 N   0  0  0  0  0  0  0  0  0  0  0  0
   40.2300   22.2760   36.8320 C   0  0  0  0  0  0  0  0  0  0  0  0
   39.4710   22.8800   37.8840 C   0  0  0  0  0  0  0  0  0  0  0  0
   38.1920   23.3320   37.6060 C   0  0  0  0  0  0  0  0  0  0  0  0
   37.6980   23.1840   36.3330 N   0  0  0  0  0  0  0  0  0  0  0  0
   38.4830   22.5920   35.3640 C   0  0  0  0  0  0  0  0  0  0  0  0
   39.7180   22.1400   35.5750 N   0  0  0  0  0  0  0  0  0  0  0  0
   34.2898   20.5522   33.2383 H   0  0  0  0  0  0  0  0  0  0  0  0
   34.6950   21.0781   31.5303 H   0  0  0  0  0  0  0  0  0  0  0  0
   36.9383   20.5718   29.9643 H   0  0  0  0  0  0  0  0  0  0  0  0
   38.1275   18.7663   26.8142 H   0  0  0  0  0  0  0  0  0  0  0  0
   38.5679   20.1524   27.8475 H   0  0  0  0  0  0  0  0  0  0  0  0
   38.8870   24.1108   32.8823 H   0  0  0  0  0  0  0  0  0  0  0  0
   41.2474   21.9139   37.0413 H   0  0  0  0  0  0  0  0  0  0  0  0
   39.8952   22.9832   38.8937 H   0  0  0  0  0  0  0  0  0  0  0  0
   37.5818   23.8017   38.3915 H   0  0  0  0  0  0  0  0  0  0  0  0
  1 19  1  0
  2  1  1  0
  2  6  1  0
  3  4  2  0
  3  2  1  0
  4  5  1  0
  5 12  1  0
  5  6  2  0
  7  3  1  0
  8  7  1  0
  9  8  2  0
 10  8  1  0
 11  9  1  0
 12 13  1  0
 12 14  1  0
 15 12  1  0
 16 25  1  0
 17 16  2  0
 18 19  1  0
 18 17  1  0
 19 20  2  0
 20 16  1  0
 21 22  2  0
 23 22  1  0
 24 23  2  0
 25 26  2  0
 25 24  1  0
 26 21  1  0
  1 27  1  0
  1 28  1  0
  7 29  1  0
 10 30  1  0
 10 31  1  0
 17 32  1  0
 21 33  1  0
 22 34  1  0
 23 35  1  0
M  ISO  6  27   8  28   8  32  14  33  14  34  14  35  14
M  END
>  <minimizedAffinity>  (1) 
-5.47640228

>  <minimizedRMSD>  (1) 
1.14166355

$$$$
