
     RDKit          3D

 41 45  0  0  0  0  0  0  0  0999 V2000
   35.4840   19.2130   31.9200 N   0  0  0  0  0  0  0  0  0  0  0  0
   36.4920   18.7620   31.1500 C   0  0  0  0  0  0  0  0  0  0  0  0
   36.6100   17.4400   31.3090 N   0  0  0  0  0  0  0  0  0  0  0  0
   35.6500   17.0410   32.2040 C   0  0  0  0  0  0  0  0  0  0  0  0
   34.9890   18.1640   32.5460 N   0  0  0  0  0  0  0  0  0  0  0  0
   37.4590   19.2360   30.2280 N   0  0  0  0  0  0  0  0  0  0  0  0
   38.6540   19.8110   30.5590 C   0  0  0  0  0  0  0  0  0  0  0  0
   39.3360   20.1240   29.4170 N   0  0  0  0  0  0  0  0  0  0  0  0
   38.5620   19.7420   28.3880 C   0  0  0  0  0  0  0  0  0  0  0  0
   38.7250   19.8030   27.0060 C   0  0  0  0  0  0  0  0  0  0  0  0
   37.7590   19.3300   26.1670 N   0  0  0  0  0  0  0  0  0  0  0  0
   36.6240   18.7930   26.6700 C   0  0  0  0  0  0  0  0  0  0  0  0
   36.4260   18.7140   28.0190 N   0  0  0  0  0  0  0  0  0  0  0  0
   37.3720   19.1780   28.8640 C   0  0  0  0  0  0  0  0  0  0  0  0
   35.3950   15.6510   32.6850 C   0  0  0  0  0  0  0  0  0  0  0  0
   36.5950   15.1110   33.1170 F   0  0  0  0  0  0  0  0  0  0  0  0
   34.5410   15.7370   33.7500 F   0  0  0  0  0  0  0  0  0  0  0  0
   34.8180   14.8710   31.6880 F   0  0  0  0  0  0  0  0  0  0  0  0
   35.0890   20.5810   31.9830 C   0  0  0  0  0  0  0  0  0  0  0  0
   37.6890   22.5870   33.6680 C   0  0  0  0  0  0  0  0  0  0  0  0
   37.8840   23.5480   32.6880 C   0  0  0  0  0  0  0  0  0  0  0  0
   36.6500   22.9430   31.4300 S   0  0  0  0  0  0  0  0  0  0  0  0
   36.1240   21.4950   32.5110 C   0  0  0  0  0  0  0  0  0  0  0  0
   36.8400   21.6560   33.5010 N   0  0  0  0  0  0  0  0  0  0  0  0
   40.2370   22.1520   36.3360 C   0  0  0  0  0  0  0  0  0  0  0  0
   39.5470   22.7390   37.4390 C   0  0  0  0  0  0  0  0  0  0  0  0
   38.2730   23.2440   37.2340 C   0  0  0  0  0  0  0  0  0  0  0  0
   37.7180   23.1660   35.9780 N   0  0  0  0  0  0  0  0  0  0  0  0
   38.4400   22.5860   34.9570 C   0  0  0  0  0  0  0  0  0  0  0  0
   39.6700   22.0810   35.0930 N   0  0  0  0  0  0  0  0  0  0  0  0
   39.8950   20.3560   26.4240 N   0  0  0  0  0  0  0  0  0  0  0  0
   39.0106   19.9931   31.5835 H   0  0  0  0  0  0  0  0  0  0  0  0
   35.8512   18.4154   25.9843 H   0  0  0  0  0  0  0  0  0  0  0  0
   34.8266   20.9098   30.9666 H   0  0  0  0  0  0  0  0  0  0  0  0
   34.2422   20.6298   32.6834 H   0  0  0  0  0  0  0  0  0  0  0  0
   38.5651   24.4114   32.6611 H   0  0  0  0  0  0  0  0  0  0  0  0
   41.2483   21.7472   36.4890 H   0  0  0  0  0  0  0  0  0  0  0  0
   40.0173   22.7895   38.4321 H   0  0  0  0  0  0  0  0  0  0  0  0
   37.7136   23.7007   38.0638 H   0  0  0  0  0  0  0  0  0  0  0  0
   39.9935   20.3905   25.3993 H   0  0  0  0  0  0  0  0  0  0  0  0
   40.6458   20.7229   27.0262 H   0  0  0  0  0  0  0  0  0  0  0  0
  1 19  1  0
  1  5  1  0
  2  3  2  0
  2  1  1  0
  3  4  1  0
  4  5  2  0
  4 15  1  0
  6  7  1  0
  6  2  1  0
  8  7  2  0
  9 14  2  0
  9  8  1  0
 10  9  1  0
 11 12  1  0
 11 10  2  0
 12 13  2  0
 13 14  1  0
 14  6  1  0
 15 16  1  0
 15 17  1  0
 18 15  1  0
 19 23  1  0
 20 29  1  0
 21 20  2  0
 22 23  1  0
 22 21  1  0
 23 24  2  0
 24 20  1  0
 25 26  2  0
 27 26  1  0
 28 27  2  0
 29 30  2  0
 29 28  1  0
 30 25  1  0
 31 10  1  0
  7 32  1  0
 12 33  1  0
 19 34  1  0
 19 35  1  0
 21 36  1  0
 25 37  1  0
 26 38  1  0
 27 39  1  0
 31 40  1  0
 31 41  1  0
M  ISO  8  32  14  33  14  34   8  35   8  36  14  37  14  38  14  39  14
M  END
>  <minimizedAffinity>  (1) 
-5.51938915

>  <minimizedRMSD>  (1) 
1.23444033

$$$$
