
     RDKit          3D

 39 43  0  0  0  0  0  0  0  0999 V2000
   35.4310   19.3280   31.8780 N   0  0  0  0  0  0  0  0  0  0  0  0
   36.3750   18.8640   31.0340 C   0  0  0  0  0  0  0  0  0  0  0  0
   36.5010   17.5420   31.1970 N   0  0  0  0  0  0  0  0  0  0  0  0
   35.6140   17.1560   32.1710 C   0  0  0  0  0  0  0  0  0  0  0  0
   34.9960   18.2820   32.5430 N   0  0  0  0  0  0  0  0  0  0  0  0
   37.2670   19.3220   30.0320 N   0  0  0  0  0  0  0  0  0  0  0  0
   38.3080   20.1630   30.3180 C   0  0  0  0  0  0  0  0  0  0  0  0
   38.9690   20.4420   29.1760 N   0  0  0  0  0  0  0  0  0  0  0  0
   38.3670   19.7930   28.1630 C   0  0  0  0  0  0  0  0  0  0  0  0
   38.5320   19.6560   26.7940 C   0  0  0  0  0  0  0  0  0  0  0  0
   37.7200   18.8950   26.0310 N   0  0  0  0  0  0  0  0  0  0  0  0
   36.6870   18.2240   26.5920 C   0  0  0  0  0  0  0  0  0  0  0  0
   36.4670   18.3160   27.9360 N   0  0  0  0  0  0  0  0  0  0  0  0
   37.2840   19.0760   28.6880 C   0  0  0  0  0  0  0  0  0  0  0  0
   35.3930   15.7740   32.6880 C   0  0  0  0  0  0  0  0  0  0  0  0
   36.6140   15.2590   33.0880 F   0  0  0  0  0  0  0  0  0  0  0  0
   34.5740   15.8710   33.7790 F   0  0  0  0  0  0  0  0  0  0  0  0
   34.7950   14.9660   31.7260 F   0  0  0  0  0  0  0  0  0  0  0  0
   35.0490   20.7000   31.9580 C   0  0  0  0  0  0  0  0  0  0  0  0
   37.6640   22.6560   33.6740 C   0  0  0  0  0  0  0  0  0  0  0  0
   37.8400   23.6520   32.7320 C   0  0  0  0  0  0  0  0  0  0  0  0
   36.5850   23.0830   31.4670 S   0  0  0  0  0  0  0  0  0  0  0  0
   36.0880   21.5970   32.5030 C   0  0  0  0  0  0  0  0  0  0  0  0
   36.8180   21.7270   33.4850 N   0  0  0  0  0  0  0  0  0  0  0  0
   40.2380   22.0930   36.2990 C   0  0  0  0  0  0  0  0  0  0  0  0
   39.5820   22.6860   37.4190 C   0  0  0  0  0  0  0  0  0  0  0  0
   38.3250   23.2380   37.2430 C   0  0  0  0  0  0  0  0  0  0  0  0
   37.7550   23.1950   35.9950 N   0  0  0  0  0  0  0  0  0  0  0  0
   38.4370   22.6100   34.9520 C   0  0  0  0  0  0  0  0  0  0  0  0
   39.6490   22.0630   35.0640 N   0  0  0  0  0  0  0  0  0  0  0  0
   38.5638   20.5484   31.3160 H   0  0  0  0  0  0  0  0  0  0  0  0
   39.3612   20.1910   26.3080 H   0  0  0  0  0  0  0  0  0  0  0  0
   36.0263   17.6060   25.9663 H   0  0  0  0  0  0  0  0  0  0  0  0
   34.7950   21.0450   30.9449 H   0  0  0  0  0  0  0  0  0  0  0  0
   34.1997   20.7468   32.6555 H   0  0  0  0  0  0  0  0  0  0  0  0
   38.5160   24.5198   32.7275 H   0  0  0  0  0  0  0  0  0  0  0  0
   41.2368   21.6513   36.4309 H   0  0  0  0  0  0  0  0  0  0  0  0
   40.0673   22.7041   38.4060 H   0  0  0  0  0  0  0  0  0  0  0  0
   37.7932   23.7021   38.0867 H   0  0  0  0  0  0  0  0  0  0  0  0
  1 19  1  0
  1  5  1  0
  2  3  2  0
  2  1  1  0
  3  4  1  0
  4  5  2  0
  4 15  1  0
  6  7  1  0
  6  2  1  0
  8  7  2  0
  9 14  2  0
  9  8  1  0
 10  9  1  0
 11 12  1  0
 11 10  2  0
 12 13  2  0
 13 14  1  0
 14  6  1  0
 15 16  1  0
 15 17  1  0
 18 15  1  0
 19 23  1  0
 20 29  1  0
 21 20  2  0
 22 23  1  0
 22 21  1  0
 23 24  2  0
 24 20  1  0
 25 26  2  0
 27 26  1  0
 28 27  2  0
 29 30  2  0
 29 28  1  0
 30 25  1  0
  7 31  1  0
 10 32  1  0
 12 33  1  0
 19 34  1  0
 19 35  1  0
 21 36  1  0
 25 37  1  0
 26 38  1  0
 27 39  1  0
M  ISO  8  31  14  32  14  33  14  34   8  35   8  36  14  37  14  38  14
M  ISO  1  39  14
M  END
>  <minimizedAffinity>  (1) 
-5.40637445

>  <minimizedRMSD>  (1) 
1.37068141

$$$$
