
     RDKit          3D

 38 41  0  0  0  0  0  0  0  0999 V2000
   35.2920   20.6510   32.4930 C   0  0  0  0  0  0  0  0  0  0  0  0
   37.8730   22.6550   34.2030 C   0  0  0  0  0  0  0  0  0  0  0  0
   38.0930   23.6060   33.2190 C   0  0  0  0  0  0  0  0  0  0  0  0
   36.8750   22.9900   31.9420 S   0  0  0  0  0  0  0  0  0  0  0  0
   36.3230   21.5600   33.0310 C   0  0  0  0  0  0  0  0  0  0  0  0
   37.0210   21.7270   34.0320 N   0  0  0  0  0  0  0  0  0  0  0  0
   40.3590   22.2020   36.9290 C   0  0  0  0  0  0  0  0  0  0  0  0
   39.6720   22.8420   38.0010 C   0  0  0  0  0  0  0  0  0  0  0  0
   38.4220   23.3900   37.7620 C   0  0  0  0  0  0  0  0  0  0  0  0
   37.8900   23.2960   36.5010 N   0  0  0  0  0  0  0  0  0  0  0  0
   38.6040   22.6630   35.5050 C   0  0  0  0  0  0  0  0  0  0  0  0
   39.8070   22.1220   35.6850 N   0  0  0  0  0  0  0  0  0  0  0  0
   35.7170   19.3010   32.3330 N   0  0  0  0  0  0  0  0  0  0  0  0
   36.8740   18.9490   31.7380 C   0  0  0  0  0  0  0  0  0  0  0  0
   36.9860   17.6150   31.7370 N   0  0  0  0  0  0  0  0  0  0  0  0
   35.8690   17.1060   32.3480 C   0  0  0  0  0  0  0  0  0  0  0  0
   35.1310   18.1750   32.6910 N   0  0  0  0  0  0  0  0  0  0  0  0
   38.0240   19.5670   31.0990 C   0  0  0  0  0  0  0  0  0  0  0  0
   37.8750   19.9890   29.7710 C   0  0  0  0  0  0  0  0  0  0  0  0
   38.9760   20.5880   29.2090 C   0  0  0  0  0  0  0  0  0  0  0  0
   40.1410   20.7490   29.9300 C   0  0  0  0  0  0  0  0  0  0  0  0
   40.2490   20.3150   31.2500 C   0  0  0  0  0  0  0  0  0  0  0  0
   39.1900   19.7120   31.8660 C   0  0  0  0  0  0  0  0  0  0  0  0
   35.5440   15.6670   32.5760 C   0  0  0  0  0  0  0  0  0  0  0  0
   36.6860   15.0300   33.0300 F   0  0  0  0  0  0  0  0  0  0  0  0
   34.5900   15.6120   33.5550 F   0  0  0  0  0  0  0  0  0  0  0  0
   35.0530   15.0700   31.4210 F   0  0  0  0  0  0  0  0  0  0  0  0
   34.4332   20.6612   33.1802 H   0  0  0  0  0  0  0  0  0  0  0  0
   35.0441   21.0211   31.4872 H   0  0  0  0  0  0  0  0  0  0  0  0
   38.7789   24.4657   33.1964 H   0  0  0  0  0  0  0  0  0  0  0  0
   41.3523   21.7648   37.1084 H   0  0  0  0  0  0  0  0  0  0  0  0
   40.1263   22.9000   39.0011 H   0  0  0  0  0  0  0  0  0  0  0  0
   37.8665   23.8911   38.5684 H   0  0  0  0  0  0  0  0  0  0  0  0
   36.9366   19.8495   29.2144 H   0  0  0  0  0  0  0  0  0  0  0  0
   38.9280   20.9443   28.1694 H   0  0  0  0  0  0  0  0  0  0  0  0
   41.0058   21.2317   29.4514 H   0  0  0  0  0  0  0  0  0  0  0  0
   41.1918   20.4589   31.7982 H   0  0  0  0  0  0  0  0  0  0  0  0
   39.2478   19.3593   32.9063 H   0  0  0  0  0  0  0  0  0  0  0  0
  1  5  1  0
  2 11  1  0
  3  2  2  0
  4  5  1  0
  4  3  1  0
  5  6  2  0
  6  2  1  0
  7  8  2  0
  9  8  1  0
 10  9  2  0
 11 12  2  0
 11 10  1  0
 12  7  1  0
 13  1  1  0
 13 17  1  0
 14 13  1  0
 15 14  2  0
 15 16  1  0
 16 24  1  0
 16 17  2  0
 18 14  1  0
 18 23  1  0
 19 18  2  0
 20 19  1  0
 20 21  2  0
 21 22  1  0
 22 23  2  0
 24 25  1  0
 24 26  1  0
 27 24  1  0
  1 28  1  0
  1 29  1  0
  3 30  1  0
  7 31  1  0
  8 32  1  0
  9 33  1  0
 19 34  1  0
 20 35  1  0
 21 36  1  0
 22 37  1  0
 23 38  1  0
M  ISO  8  28   8  29   8  30  14  31  14  32  14  33  14  34  14  35  14
M  ISO  3  36  14  37  14  38  14
M  END
>  <minimizedAffinity>  (1) 
-5.03972054

>  <minimizedRMSD>  (1) 
0.432554841

$$$$
