
     RDKit          3D

 42 45  0  0  0  0  0  0  0  0999 V2000
   35.2850   20.6180   32.4620 C   0  0  0  0  0  0  0  0  0  0  0  0
   35.7190   19.2620   32.3460 N   0  0  0  0  0  0  0  0  0  0  0  0
   36.9150   18.9000   31.8380 C   0  0  0  0  0  0  0  0  0  0  0  0
   37.0080   17.5710   31.8620 N   0  0  0  0  0  0  0  0  0  0  0  0
   35.8440   17.0670   32.3960 C   0  0  0  0  0  0  0  0  0  0  0  0
   35.1060   18.1370   32.6690 N   0  0  0  0  0  0  0  0  0  0  0  0
   38.0850   19.4590   31.2730 N   0  0  0  0  0  0  0  0  0  0  0  0
   39.3930   19.6490   31.8720 C   0  0  0  0  0  0  0  0  0  0  0  0
   40.4650   19.9140   30.8670 C   0  0  0  0  0  0  0  0  0  0  0  0
   40.0510   19.8020   29.5090 N   0  0  0  0  0  0  0  0  0  0  0  0
   38.8420   20.4990   29.2250 C   0  0  0  0  0  0  0  0  0  0  0  0
   37.7060   19.8000   29.8980 C   0  0  0  0  0  0  0  0  0  0  0  0
   35.4990   15.6270   32.5990 C   0  0  0  0  0  0  0  0  0  0  0  0
   36.6360   14.9610   33.0190 F   0  0  0  0  0  0  0  0  0  0  0  0
   34.5620   15.5800   33.5960 F   0  0  0  0  0  0  0  0  0  0  0  0
   34.9730   15.0650   31.4420 F   0  0  0  0  0  0  0  0  0  0  0  0
   37.8260   22.6630   34.1720 C   0  0  0  0  0  0  0  0  0  0  0  0
   38.1090   23.5650   33.1770 C   0  0  0  0  0  0  0  0  0  0  0  0
   36.9350   22.9200   31.8740 S   0  0  0  0  0  0  0  0  0  0  0  0
   36.3090   21.5410   32.9930 C   0  0  0  0  0  0  0  0  0  0  0  0
   36.9690   21.7410   34.0080 N   0  0  0  0  0  0  0  0  0  0  0  0
   40.2040   22.3170   37.0120 C   0  0  0  0  0  0  0  0  0  0  0  0
   39.4660   22.9170   38.0570 C   0  0  0  0  0  0  0  0  0  0  0  0
   38.2100   23.4100   37.7690 C   0  0  0  0  0  0  0  0  0  0  0  0
   37.7250   23.2970   36.4750 N   0  0  0  0  0  0  0  0  0  0  0  0
   38.4950   22.7050   35.5210 C   0  0  0  0  0  0  0  0  0  0  0  0
   39.7070   22.2160   35.7440 N   0  0  0  0  0  0  0  0  0  0  0  0
   34.4150   20.6449   33.1346 H   0  0  0  0  0  0  0  0  0  0  0  0
   35.0492   20.9613   31.4439 H   0  0  0  0  0  0  0  0  0  0  0  0
   39.3411   20.5040   32.5621 H   0  0  0  0  0  0  0  0  0  0  0  0
   39.6543   18.7154   32.3916 H   0  0  0  0  0  0  0  0  0  0  0  0
   40.8396   20.9357   31.0275 H   0  0  0  0  0  0  0  0  0  0  0  0
   41.2325   19.1413   31.0216 H   0  0  0  0  0  0  0  0  0  0  0  0
   40.7960   20.1831   28.9084 H   0  0  0  0  0  0  0  0  0  0  0  0
   38.9144   21.5304   29.6004 H   0  0  0  0  0  0  0  0  0  0  0  0
   38.6728   20.5205   28.1383 H   0  0  0  0  0  0  0  0  0  0  0  0
   36.8268   20.4609   29.9136 H   0  0  0  0  0  0  0  0  0  0  0  0
   37.4643   18.8796   29.3462 H   0  0  0  0  0  0  0  0  0  0  0  0
   38.8126   24.4102   33.1536 H   0  0  0  0  0  0  0  0  0  0  0  0
   41.2073   21.9200   37.2259 H   0  0  0  0  0  0  0  0  0  0  0  0
   39.8817   22.9891   39.0729 H   0  0  0  0  0  0  0  0  0  0  0  0
   37.6029   23.8852   38.5536 H   0  0  0  0  0  0  0  0  0  0  0  0
  1 20  1  0
  2  1  1  0
  2  6  1  0
  3  4  2  0
  3  2  1  0
  4  5  1  0
  5 13  1  0
  5  6  2  0
  7  3  1  0
  7  8  1  0
  9  8  1  0
 10  9  1  0
 11 10  1  0
 11 12  1  0
 12  7  1  0
 13 14  1  0
 13 15  1  0
 16 13  1  0
 17 26  1  0
 18 17  2  0
 19 20  1  0
 19 18  1  0
 20 21  2  0
 21 17  1  0
 22 23  2  0
 24 23  1  0
 25 24  2  0
 26 27  2  0
 26 25  1  0
 27 22  1  0
  1 28  1  0
  1 29  1  0
  8 30  1  0
  8 31  1  0
  9 32  1  0
  9 33  1  0
 10 34  1  0
 11 35  1  0
 11 36  1  0
 12 37  1  0
 12 38  1  0
 18 39  1  0
 22 40  1  0
 23 41  1  0
 24 42  1  0
M  ISO  8  28   8  29   8  30  13  31  13  32  13  33  13  34   5  35  13
M  ISO  7  36  13  37  13  38  13  39  14  40  14  41  14  42  14
M  END
>  <minimizedAffinity>  (1) 
-5.16524124

>  <minimizedRMSD>  (1) 
0.360274881

$$$$
