
     RDKit          3D

 34 37  0  0  0  0  0  0  0  0999 V2000
   35.2540   20.6260   32.6710 C   0  0  0  0  0  0  0  0  0  0  0  0
   37.8610   22.6540   34.3060 C   0  0  0  0  0  0  0  0  0  0  0  0
   38.0510   23.6010   33.3350 C   0  0  0  0  0  0  0  0  0  0  0  0
   36.8030   22.9820   32.0840 S   0  0  0  0  0  0  0  0  0  0  0  0
   36.2920   21.5440   33.1830 C   0  0  0  0  0  0  0  0  0  0  0  0
   37.0130   21.7130   34.1640 N   0  0  0  0  0  0  0  0  0  0  0  0
   40.4150   22.1830   36.9720 C   0  0  0  0  0  0  0  0  0  0  0  0
   39.7690   22.8320   38.0680 C   0  0  0  0  0  0  0  0  0  0  0  0
   38.5180   23.3880   37.8550 C   0  0  0  0  0  0  0  0  0  0  0  0
   37.9460   23.2990   36.6100 N   0  0  0  0  0  0  0  0  0  0  0  0
   38.6260   22.6590   35.5960 C   0  0  0  0  0  0  0  0  0  0  0  0
   39.8300   22.1080   35.7480 N   0  0  0  0  0  0  0  0  0  0  0  0
   35.7030   19.2910   32.4590 N   0  0  0  0  0  0  0  0  0  0  0  0
   36.8680   18.9770   31.8650 C   0  0  0  0  0  0  0  0  0  0  0  0
   36.9930   17.6510   31.8100 N   0  0  0  0  0  0  0  0  0  0  0  0
   35.8760   17.1000   32.3850 C   0  0  0  0  0  0  0  0  0  0  0  0
   35.1150   18.1470   32.7680 N   0  0  0  0  0  0  0  0  0  0  0  0
   38.0110   19.6550   31.2720 C   0  0  0  0  0  0  0  0  0  0  0  0
   37.9400   20.0440   29.8520 C   0  0  0  0  0  0  0  0  0  0  0  0
   39.5560   20.8490   29.6100 S   0  0  0  0  0  0  0  0  0  0  0  0
   40.0560   20.5380   31.4200 C   0  0  0  0  0  0  0  0  0  0  0  0
   39.1730   20.0060   31.8660 N   0  0  0  0  0  0  0  0  0  0  0  0
   35.5660   15.6490   32.5470 C   0  0  0  0  0  0  0  0  0  0  0  0
   36.7130   15.0100   32.9880 F   0  0  0  0  0  0  0  0  0  0  0  0
   34.5990   15.5400   33.5100 F   0  0  0  0  0  0  0  0  0  0  0  0
   35.1090   15.0950   31.3560 F   0  0  0  0  0  0  0  0  0  0  0  0
   34.4285   20.6002   33.3976 H   0  0  0  0  0  0  0  0  0  0  0  0
   34.9478   21.0144   31.6885 H   0  0  0  0  0  0  0  0  0  0  0  0
   38.7314   24.4646   33.3005 H   0  0  0  0  0  0  0  0  0  0  0  0
   41.4079   21.7340   37.1221 H   0  0  0  0  0  0  0  0  0  0  0  0
   40.2517   22.8889   39.0548 H   0  0  0  0  0  0  0  0  0  0  0  0
   37.9885   23.8955   38.6748 H   0  0  0  0  0  0  0  0  0  0  0  0
   37.1257   19.8890   29.1289 H   0  0  0  0  0  0  0  0  0  0  0  0
   40.9970   20.8164   31.9170 H   0  0  0  0  0  0  0  0  0  0  0  0
  1  5  1  0
  2 11  1  0
  3  2  2  0
  4  5  1  0
  4  3  1  0
  5  6  2  0
  6  2  1  0
  7  8  2  0
  9  8  1  0
 10  9  2  0
 11 12  2  0
 11 10  1  0
 12  7  1  0
 13  1  1  0
 13 17  1  0
 14 13  1  0
 15 14  2  0
 15 16  1  0
 16 23  1  0
 16 17  2  0
 18 14  1  0
 18 22  1  0
 19 18  2  0
 20 19  1  0
 20 21  1  0
 21 22  2  0
 23 24  1  0
 23 25  1  0
 26 23  1  0
  1 27  1  0
  1 28  1  0
  3 29  1  0
  7 30  1  0
  8 31  1  0
  9 32  1  0
 19 33  1  0
 21 34  1  0
M  ISO  8  27   8  28   8  29  14  30  14  31  14  32  14  33  14  34  14
M  END
>  <minimizedAffinity>  (1) 
-4.89809513

>  <minimizedRMSD>  (1) 
0.622446477

$$$$
