
     RDKit          3D

 36 39  0  0  0  0  0  0  0  0999 V2000
   35.2930   20.6440   32.5200 C   0  0  0  0  0  0  0  0  0  0  0  0
   37.8760   22.6680   34.2020 C   0  0  0  0  0  0  0  0  0  0  0  0
   38.0830   23.6090   33.2320 C   0  0  0  0  0  0  0  0  0  0  0  0
   36.8570   22.9900   31.9600 S   0  0  0  0  0  0  0  0  0  0  0  0
   36.3250   21.5570   33.0560 C   0  0  0  0  0  0  0  0  0  0  0  0
   37.0290   21.7320   34.0440 N   0  0  0  0  0  0  0  0  0  0  0  0
   40.3760   22.2030   36.9240 C   0  0  0  0  0  0  0  0  0  0  0  0
   39.7000   22.8410   38.0080 C   0  0  0  0  0  0  0  0  0  0  0  0
   38.4500   23.3890   37.7710 C   0  0  0  0  0  0  0  0  0  0  0  0
   37.9110   23.3010   36.5110 N   0  0  0  0  0  0  0  0  0  0  0  0
   38.6170   22.6710   35.5090 C   0  0  0  0  0  0  0  0  0  0  0  0
   39.8220   22.1260   35.6800 N   0  0  0  0  0  0  0  0  0  0  0  0
   35.7210   19.2990   32.3490 N   0  0  0  0  0  0  0  0  0  0  0  0
   36.8860   18.9520   31.7680 C   0  0  0  0  0  0  0  0  0  0  0  0
   36.9970   17.6160   31.7530 N   0  0  0  0  0  0  0  0  0  0  0  0
   35.8680   17.1060   32.3420 C   0  0  0  0  0  0  0  0  0  0  0  0
   35.1380   18.1700   32.6810 N   0  0  0  0  0  0  0  0  0  0  0  0
   38.0370   19.5980   31.1600 C   0  0  0  0  0  0  0  0  0  0  0  0
   37.8740   19.9270   29.8060 C   0  0  0  0  0  0  0  0  0  0  0  0
   38.9770   20.5350   29.1970 C   0  0  0  0  0  0  0  0  0  0  0  0
   40.1280   20.7850   29.8860 N   0  0  0  0  0  0  0  0  0  0  0  0
   40.2380   20.4490   31.1900 C   0  0  0  0  0  0  0  0  0  0  0  0
   39.1990   19.8550   31.8360 N   0  0  0  0  0  0  0  0  0  0  0  0
   35.5270   15.6730   32.5590 C   0  0  0  0  0  0  0  0  0  0  0  0
   36.6840   15.0270   33.0210 F   0  0  0  0  0  0  0  0  0  0  0  0
   34.5860   15.6080   33.5500 F   0  0  0  0  0  0  0  0  0  0  0  0
   35.0530   15.0770   31.4050 F   0  0  0  0  0  0  0  0  0  0  0  0
   34.4395   20.6464   33.2139 H   0  0  0  0  0  0  0  0  0  0  0  0
   35.0369   21.0185   31.5179 H   0  0  0  0  0  0  0  0  0  0  0  0
   38.7654   24.4714   33.2066 H   0  0  0  0  0  0  0  0  0  0  0  0
   41.3690   21.7623   37.0966 H   0  0  0  0  0  0  0  0  0  0  0  0
   40.1601   22.8959   39.0057 H   0  0  0  0  0  0  0  0  0  0  0  0
   37.8970   23.8876   38.5807 H   0  0  0  0  0  0  0  0  0  0  0  0
   36.9416   19.7208   29.2599 H   0  0  0  0  0  0  0  0  0  0  0  0
   38.9149   20.8187   28.1360 H   0  0  0  0  0  0  0  0  0  0  0  0
   41.1725   20.6569   31.7318 H   0  0  0  0  0  0  0  0  0  0  0  0
  1  5  1  0
  2 11  1  0
  3  2  2  0
  4  5  1  0
  4  3  1  0
  5  6  2  0
  6  2  1  0
  7  8  2  0
  9  8  1  0
 10  9  2  0
 11 12  2  0
 11 10  1  0
 12  7  1  0
 13  1  1  0
 13 17  1  0
 14 13  1  0
 15 14  2  0
 15 16  1  0
 16 24  1  0
 16 17  2  0
 18 14  1  0
 18 23  1  0
 19 18  2  0
 20 19  1  0
 20 21  2  0
 21 22  1  0
 22 23  2  0
 24 25  1  0
 24 26  1  0
 27 24  1  0
  1 28  1  0
  1 29  1  0
  3 30  1  0
  7 31  1  0
  8 32  1  0
  9 33  1  0
 19 34  1  0
 20 35  1  0
 22 36  1  0
M  ISO  8  28   8  29   8  30  14  31  14  32  14  33  14  34  14  35  14
M  ISO  1  36  14
M  END
>  <minimizedAffinity>  (1) 
-4.97799206

>  <minimizedRMSD>  (1) 
0.479136854

$$$$
