
     RDKit          3D

 37 40  0  0  0  0  0  0  0  0999 V2000
   35.2780   20.6430   32.4710 C   0  0  0  0  0  0  0  0  0  0  0  0
   37.8270   22.6610   34.2160 C   0  0  0  0  0  0  0  0  0  0  0  0
   38.0930   23.5780   33.2110 C   0  0  0  0  0  0  0  0  0  0  0  0
   36.9100   22.9430   31.9100 S   0  0  0  0  0  0  0  0  0  0  0  0
   36.3060   21.5550   33.0200 C   0  0  0  0  0  0  0  0  0  0  0  0
   36.9690   21.7390   34.0400 N   0  0  0  0  0  0  0  0  0  0  0  0
   40.2330   22.3140   37.0240 C   0  0  0  0  0  0  0  0  0  0  0  0
   39.4820   22.9230   38.0750 C   0  0  0  0  0  0  0  0  0  0  0  0
   38.2230   23.4130   37.7870 C   0  0  0  0  0  0  0  0  0  0  0  0
   37.7320   23.3000   36.5100 N   0  0  0  0  0  0  0  0  0  0  0  0
   38.5090   22.7000   35.5420 C   0  0  0  0  0  0  0  0  0  0  0  0
   39.7290   22.2100   35.7580 N   0  0  0  0  0  0  0  0  0  0  0  0
   35.7060   19.2930   32.3190 N   0  0  0  0  0  0  0  0  0  0  0  0
   36.8710   18.9400   31.7340 C   0  0  0  0  0  0  0  0  0  0  0  0
   36.9860   17.6060   31.7400 N   0  0  0  0  0  0  0  0  0  0  0  0
   35.8650   17.0970   32.3450 C   0  0  0  0  0  0  0  0  0  0  0  0
   35.1370   18.1650   32.6690 N   0  0  0  0  0  0  0  0  0  0  0  0
   38.0170   19.5760   31.1050 C   0  0  0  0  0  0  0  0  0  0  0  0
   37.8910   19.9070   29.7480 C   0  0  0  0  0  0  0  0  0  0  0  0
   38.9880   20.4900   29.1750 C   0  0  0  0  0  0  0  0  0  0  0  0
   40.1360   20.7210   29.9310 C   0  0  0  0  0  0  0  0  0  0  0  0
   40.2280   20.3790   31.2840 C   0  0  0  0  0  0  0  0  0  0  0  0
   39.1350   19.7970   31.8620 N   0  0  0  0  0  0  0  0  0  0  0  0
   35.5410   15.6600   32.5770 C   0  0  0  0  0  0  0  0  0  0  0  0
   36.6830   15.0220   33.0300 F   0  0  0  0  0  0  0  0  0  0  0  0
   34.5880   15.6080   33.5570 F   0  0  0  0  0  0  0  0  0  0  0  0
   35.0520   15.0610   31.4200 F   0  0  0  0  0  0  0  0  0  0  0  0
   34.4115   20.6544   33.1486 H   0  0  0  0  0  0  0  0  0  0  0  0
   35.0402   21.0111   31.4621 H   0  0  0  0  0  0  0  0  0  0  0  0
   38.7922   24.4268   33.1863 H   0  0  0  0  0  0  0  0  0  0  0  0
   41.2377   21.9206   37.2379 H   0  0  0  0  0  0  0  0  0  0  0  0
   39.8967   23.0001   39.0909 H   0  0  0  0  0  0  0  0  0  0  0  0
   37.6194   23.8893   38.5736 H   0  0  0  0  0  0  0  0  0  0  0  0
   36.9693   19.7105   29.1808 H   0  0  0  0  0  0  0  0  0  0  0  0
   38.9640   20.7776   28.1135 H   0  0  0  0  0  0  0  0  0  0  0  0
   41.0036   21.1907   29.4444 H   0  0  0  0  0  0  0  0  0  0  0  0
   41.1448   20.5711   31.8607 H   0  0  0  0  0  0  0  0  0  0  0  0
  1  5  1  0
  2 11  1  0
  3  2  2  0
  4  5  1  0
  4  3  1  0
  5  6  2  0
  6  2  1  0
  7  8  2  0
  9  8  1  0
 10  9  2  0
 11 12  2  0
 11 10  1  0
 12  7  1  0
 13  1  1  0
 13 17  1  0
 14 15  2  0
 14 13  1  0
 15 16  1  0
 16 24  1  0
 16 17  2  0
 18 14  1  0
 18 23  1  0
 19 18  2  0
 20 19  1  0
 20 21  2  0
 21 22  1  0
 22 23  2  0
 24 25  1  0
 24 26  1  0
 27 24  1  0
  1 28  1  0
  1 29  1  0
  3 30  1  0
  7 31  1  0
  8 32  1  0
  9 33  1  0
 19 34  1  0
 20 35  1  0
 21 36  1  0
 22 37  1  0
M  ISO  8  28   8  29   8  30  14  31  14  32  14  33  14  34  14  35  14
M  ISO  2  36  14  37  14
M  END
>  <minimizedAffinity>  (1) 
-5.01959705

>  <minimizedRMSD>  (1) 
0.362520665

$$$$
