
     RDKit          3D

 33 36  0  0  0  0  0  0  0  0999 V2000
   35.2060   20.6360   32.6460 C   0  0  0  0  0  0  0  0  0  0  0  0
   37.8440   22.6470   34.2650 C   0  0  0  0  0  0  0  0  0  0  0  0
   38.0300   23.5940   33.2840 C   0  0  0  0  0  0  0  0  0  0  0  0
   36.7710   22.9850   32.0430 S   0  0  0  0  0  0  0  0  0  0  0  0
   36.2590   21.5500   33.1470 C   0  0  0  0  0  0  0  0  0  0  0  0
   36.9870   21.7140   34.1240 N   0  0  0  0  0  0  0  0  0  0  0  0
   40.4170   22.1720   36.9070 C   0  0  0  0  0  0  0  0  0  0  0  0
   39.7680   22.8140   38.0050 C   0  0  0  0  0  0  0  0  0  0  0  0
   38.5140   23.3690   37.8080 C   0  0  0  0  0  0  0  0  0  0  0  0
   37.9380   23.2820   36.5640 N   0  0  0  0  0  0  0  0  0  0  0  0
   38.6170   22.6480   35.5460 C   0  0  0  0  0  0  0  0  0  0  0  0
   39.8210   22.1000   35.6860 N   0  0  0  0  0  0  0  0  0  0  0  0
   35.6430   19.2980   32.4260 N   0  0  0  0  0  0  0  0  0  0  0  0
   36.7750   18.9820   31.7630 C   0  0  0  0  0  0  0  0  0  0  0  0
   36.9100   17.6500   31.7180 N   0  0  0  0  0  0  0  0  0  0  0  0
   35.8320   17.1060   32.3700 C   0  0  0  0  0  0  0  0  0  0  0  0
   35.1020   18.1580   32.7760 N   0  0  0  0  0  0  0  0  0  0  0  0
   37.8710   19.6590   31.0920 C   0  0  0  0  0  0  0  0  0  0  0  0
   39.0840   19.9600   31.6430 N   0  0  0  0  0  0  0  0  0  0  0  0
   39.8330   20.5780   30.7890 O   0  0  0  0  0  0  0  0  0  0  0  0
   39.1560   20.7030   29.6740 C   0  0  0  0  0  0  0  0  0  0  0  0
   37.9180   20.1410   29.8130 N   0  0  0  0  0  0  0  0  0  0  0  0
   35.5420   15.6570   32.5750 C   0  0  0  0  0  0  0  0  0  0  0  0
   36.6980   15.0400   33.0250 F   0  0  0  0  0  0  0  0  0  0  0  0
   34.5870   15.5610   33.5500 F   0  0  0  0  0  0  0  0  0  0  0  0
   35.0670   15.0660   31.4090 F   0  0  0  0  0  0  0  0  0  0  0  0
   34.3900   20.6144   33.3834 H   0  0  0  0  0  0  0  0  0  0  0  0
   34.8903   21.0276   31.6678 H   0  0  0  0  0  0  0  0  0  0  0  0
   38.7153   24.4534   33.2423 H   0  0  0  0  0  0  0  0  0  0  0  0
   41.4136   21.7291   37.0504 H   0  0  0  0  0  0  0  0  0  0  0  0
   40.2551   22.8670   38.9899 H   0  0  0  0  0  0  0  0  0  0  0  0
   37.9885   23.8709   38.6338 H   0  0  0  0  0  0  0  0  0  0  0  0
   39.5293   21.1889   28.7604 H   0  0  0  0  0  0  0  0  0  0  0  0
  1  5  1  0
  2 11  1  0
  3  2  2  0
  4  5  1  0
  4  3  1  0
  5  6  2  0
  6  2  1  0
  7  8  2  0
  9  8  1  0
 10  9  2  0
 11 12  2  0
 11 10  1  0
 12  7  1  0
 13  1  1  0
 13 17  1  0
 14 13  1  0
 15 14  2  0
 15 16  1  0
 16 23  1  0
 16 17  2  0
 18 19  2  0
 18 14  1  0
 20 19  1  0
 21 22  2  0
 21 20  1  0
 22 18  1  0
 23 24  1  0
 23 25  1  0
 26 23  1  0
  1 27  1  0
  1 28  1  0
  3 29  1  0
  7 30  1  0
  8 31  1  0
  9 32  1  0
 21 33  1  0
M  ISO  7  27   8  28   8  29  14  30  14  31  14  32  14  33  14
M  END
>  <minimizedAffinity>  (1) 
-4.8900609

>  <minimizedRMSD>  (1) 
0.618212879

$$$$
