
     RDKit          3D

 31 33  0  0  0  0  0  0  0  0999 V2000
   34.9720   20.6880   32.0380 C   0  0  0  0  0  0  0  0  0  0  0  0
   37.6230   22.6540   33.6920 C   0  0  0  0  0  0  0  0  0  0  0  0
   37.7040   23.6750   32.7880 C   0  0  0  0  0  0  0  0  0  0  0  0
   36.4050   23.1230   31.6040 S   0  0  0  0  0  0  0  0  0  0  0  0
   36.0000   21.5770   32.5820 C   0  0  0  0  0  0  0  0  0  0  0  0
   36.7940   21.7020   33.5220 N   0  0  0  0  0  0  0  0  0  0  0  0
   40.3250   22.0880   36.1780 C   0  0  0  0  0  0  0  0  0  0  0  0
   39.7190   22.6570   37.3400 C   0  0  0  0  0  0  0  0  0  0  0  0
   38.4470   23.1960   37.2370 C   0  0  0  0  0  0  0  0  0  0  0  0
   37.8110   23.1690   36.0220 N   0  0  0  0  0  0  0  0  0  0  0  0
   38.4540   22.6040   34.9350 C   0  0  0  0  0  0  0  0  0  0  0  0
   39.6730   22.0730   34.9790 N   0  0  0  0  0  0  0  0  0  0  0  0
   35.4220   19.3270   31.8510 N   0  0  0  0  0  0  0  0  0  0  0  0
   36.2830   18.9150   30.8980 C   0  0  0  0  0  0  0  0  0  0  0  0
   36.4340   17.6430   31.1090 N   0  0  0  0  0  0  0  0  0  0  0  0
   35.7070   17.1780   32.1530 C   0  0  0  0  0  0  0  0  0  0  0  0
   35.0930   18.2620   32.5880 N   0  0  0  0  0  0  0  0  0  0  0  0
   35.6030   15.7560   32.6090 C   0  0  0  0  0  0  0  0  0  0  0  0
   36.8400   15.3490   33.0670 F   0  0  0  0  0  0  0  0  0  0  0  0
   34.7010   15.7600   33.6280 F   0  0  0  0  0  0  0  0  0  0  0  0
   35.1320   14.9270   31.5870 F   0  0  0  0  0  0  0  0  0  0  0  0
   37.0310   19.4700   29.7430 C   0  0  0  0  0  0  0  0  0  0  0  0
   38.1610   18.6450   29.4290 F   0  0  0  0  0  0  0  0  0  0  0  0
   36.3920   19.3590   28.5300 F   0  0  0  0  0  0  0  0  0  0  0  0
   37.7030   20.6260   29.9950 F   0  0  0  0  0  0  0  0  0  0  0  0
   34.1178   20.6795   32.7310 H   0  0  0  0  0  0  0  0  0  0  0  0
   34.7023   21.0772   31.0452 H   0  0  0  0  0  0  0  0  0  0  0  0
   38.3525   24.5633   32.7718 H   0  0  0  0  0  0  0  0  0  0  0  0
   41.3335   21.6549   36.2508 H   0  0  0  0  0  0  0  0  0  0  0  0
   40.2539   22.6669   38.3011 H   0  0  0  0  0  0  0  0  0  0  0  0
   37.9549   23.6386   38.1156 H   0  0  0  0  0  0  0  0  0  0  0  0
  1  5  1  0
  2 11  1  0
  3  2  2  0
  4  5  1  0
  4  3  1  0
  5  6  2  0
  6  2  1  0
  7  8  2  0
  9  8  1  0
 10  9  2  0
 11 12  2  0
 11 10  1  0
 12  7  1  0
 13  1  1  0
 13 17  1  0
 14 15  2  0
 14 13  1  0
 15 16  1  0
 16 17  2  0
 16 18  1  0
 18 19  1  0
 18 20  1  0
 21 18  1  0
 22 25  1  0
 22 14  1  0
 23 22  1  0
 24 22  1  0
  1 26  1  0
  1 27  1  0
  3 28  1  0
  7 29  1  0
  8 30  1  0
  9 31  1  0
M  ISO  6  26   8  27   8  28  14  29  14  30  14  31  14
M  END
>  <minimizedAffinity>  (1) 
-4.88844109

>  <minimizedRMSD>  (1) 
1.18057442

$$$$
