
     RDKit          3D

 29 31  0  0  0  0  0  0  0  0999 V2000
   37.8040   22.7750   33.9740 C   0  0  0  0  0  0  0  0  0  0  0  0
   37.9990   23.7850   33.0530 C   0  0  0  0  0  0  0  0  0  0  0  0
   36.7540   23.2610   31.7720 S   0  0  0  0  0  0  0  0  0  0  0  0
   36.2220   21.7610   32.7680 C   0  0  0  0  0  0  0  0  0  0  0  0
   36.9460   21.8600   33.7640 N   0  0  0  0  0  0  0  0  0  0  0  0
   40.3160   22.0630   36.6180 C   0  0  0  0  0  0  0  0  0  0  0  0
   39.7030   22.7240   37.7280 C   0  0  0  0  0  0  0  0  0  0  0  0
   38.4920   23.3680   37.5390 C   0  0  0  0  0  0  0  0  0  0  0  0
   37.9200   23.3500   36.2850 N   0  0  0  0  0  0  0  0  0  0  0  0
   38.5640   22.6940   35.2580 C   0  0  0  0  0  0  0  0  0  0  0  0
   39.7310   22.0580   35.3860 N   0  0  0  0  0  0  0  0  0  0  0  0
   35.1700   20.8760   32.2120 C   0  0  0  0  0  0  0  0  0  0  0  0
   35.5870   19.5270   32.0150 N   0  0  0  0  0  0  0  0  0  0  0  0
   36.5670   19.1510   31.1630 C   0  0  0  0  0  0  0  0  0  0  0  0
   36.7130   17.8270   31.2080 N   0  0  0  0  0  0  0  0  0  0  0  0
   35.8040   17.3400   32.1130 C   0  0  0  0  0  0  0  0  0  0  0  0
   35.1480   18.4150   32.5700 N   0  0  0  0  0  0  0  0  0  0  0  0
   35.6020   15.9120   32.4900 C   0  0  0  0  0  0  0  0  0  0  0  0
   36.7980   15.4030   32.9680 F   0  0  0  0  0  0  0  0  0  0  0  0
   34.6850   15.8870   33.5180 F   0  0  0  0  0  0  0  0  0  0  0  0
   35.1130   15.1670   31.4250 F   0  0  0  0  0  0  0  0  0  0  0  0
   37.6410   20.0380   30.0460 S   0  0  0  0  0  0  0  0  0  0  0  0
   38.6859   24.6440   33.0709 H   0  0  0  0  0  0  0  0  0  0  0  0
   41.2779   21.5487   36.7605 H   0  0  0  0  0  0  0  0  0  0  0  0
   40.1859   22.7209   38.7163 H   0  0  0  0  0  0  0  0  0  0  0  0
   37.9957   23.8843   38.3739 H   0  0  0  0  0  0  0  0  0  0  0  0
   34.3167   20.8757   32.9062 H   0  0  0  0  0  0  0  0  0  0  0  0
   34.9115   21.2756   31.2203 H   0  0  0  0  0  0  0  0  0  0  0  0
   38.5387   20.7794   30.7680 H   0  0  0  0  0  0  0  0  0  0  0  0
  1 10  1  0
  2  1  2  0
  3  4  1  0
  3  2  1  0
  4  5  2  0
  5  1  1  0
  6  7  2  0
  8  7  1  0
  9  8  2  0
 10 11  2  0
 10  9  1  0
 11  6  1  0
 12  4  1  0
 13 12  1  0
 13 17  1  0
 14 15  2  0
 14 13  1  0
 15 16  1  0
 16 18  1  0
 16 17  2  0
 18 19  1  0
 18 20  1  0
 21 18  1  0
 22 14  1  0
  2 23  1  0
  6 24  1  0
  7 25  1  0
  8 26  1  0
 12 27  1  0
 12 28  1  0
 22 29  1  0
M  ISO  7  23  14  24  14  25  14  26  14  27   8  28   8  29  11
M  END
>  <minimizedAffinity>  (1) 
-4.64183664

>  <minimizedRMSD>  (1) 
0.748835444

$$$$
