
     RDKit          3D

 31 33  0  0  0  0  0  0  0  0999 V2000
   37.7440   22.5580   34.0200 C   0  0  0  0  0  0  0  0  0  0  0  0
   37.9530   23.4750   33.0120 C   0  0  0  0  0  0  0  0  0  0  0  0
   36.6630   22.8920   31.8110 S   0  0  0  0  0  0  0  0  0  0  0  0
   36.0980   21.5040   32.9340 C   0  0  0  0  0  0  0  0  0  0  0  0
   36.8480   21.6570   33.9070 N   0  0  0  0  0  0  0  0  0  0  0  0
   40.3240   22.1080   36.6560 C   0  0  0  0  0  0  0  0  0  0  0  0
   39.6780   22.7600   37.7490 C   0  0  0  0  0  0  0  0  0  0  0  0
   38.4240   23.3120   37.5550 C   0  0  0  0  0  0  0  0  0  0  0  0
   37.8410   23.2140   36.3160 N   0  0  0  0  0  0  0  0  0  0  0  0
   38.5180   22.5710   35.2990 C   0  0  0  0  0  0  0  0  0  0  0  0
   39.7240   22.0230   35.4310 N   0  0  0  0  0  0  0  0  0  0  0  0
   35.0170   20.6310   32.4500 C   0  0  0  0  0  0  0  0  0  0  0  0
   35.4620   19.3080   32.0920 N   0  0  0  0  0  0  0  0  0  0  0  0
   36.2440   18.9940   31.0410 C   0  0  0  0  0  0  0  0  0  0  0  0
   36.4290   17.6930   31.0820 N   0  0  0  0  0  0  0  0  0  0  0  0
   35.7880   17.1360   32.1320 C   0  0  0  0  0  0  0  0  0  0  0  0
   35.2080   18.1650   32.7260 N   0  0  0  0  0  0  0  0  0  0  0  0
   35.7400   15.6870   32.4880 C   0  0  0  0  0  0  0  0  0  0  0  0
   36.9550   15.3270   33.0460 F   0  0  0  0  0  0  0  0  0  0  0  0
   34.7580   15.5490   33.4290 F   0  0  0  0  0  0  0  0  0  0  0  0
   35.4200   14.9000   31.3840 F   0  0  0  0  0  0  0  0  0  0  0  0
   36.8700   19.7590   29.9340 C   0  0  0  0  0  0  0  0  0  0  0  0
   38.6709   24.3054   32.9406 H   0  0  0  0  0  0  0  0  0  0  0  0
   41.3210   21.6667   36.8019 H   0  0  0  0  0  0  0  0  0  0  0  0
   40.1697   22.8228   38.7310 H   0  0  0  0  0  0  0  0  0  0  0  0
   37.9031   23.8207   38.3796 H   0  0  0  0  0  0  0  0  0  0  0  0
   34.2608   20.5409   33.2437 H   0  0  0  0  0  0  0  0  0  0  0  0
   34.6121   21.0936   31.5378 H   0  0  0  0  0  0  0  0  0  0  0  0
   37.5146   20.5467   30.3513 H   0  0  0  0  0  0  0  0  0  0  0  0
   37.4748   19.0799   29.3151 H   0  0  0  0  0  0  0  0  0  0  0  0
   36.0846   20.2175   29.3151 H   0  0  0  0  0  0  0  0  0  0  0  0
  1 10  1  0
  2  1  2  0
  3  4  1  0
  3  2  1  0
  4  5  2  0
  5  1  1  0
  6  7  2  0
  8  7  1  0
  9  8  2  0
 10 11  2  0
 10  9  1  0
 11  6  1  0
 12  4  1  0
 13 12  1  0
 13 17  1  0
 14 15  2  0
 14 13  1  0
 15 16  1  0
 16 18  1  0
 16 17  2  0
 18 19  1  0
 18 20  1  0
 21 18  1  0
 22 14  1  0
  2 23  1  0
  6 24  1  0
  7 25  1  0
  8 26  1  0
 12 27  1  0
 12 28  1  0
 22 29  1  0
 22 30  1  0
 22 31  1  0
M  ISO  8  23  14  24  14  25  14  26  14  27   8  28   8  29   8  30   8
M  ISO  1  31   8
M  END
>  <minimizedAffinity>  (1) 
-4.8470459

>  <minimizedRMSD>  (1) 
0.780734479

$$$$
