
     RDKit          3D

 42 46  0  0  0  0  0  0  0  0999 V2000
   37.4600   21.9230   32.7590 C   0  0  0  0  0  0  0  0  0  0  0  0
   37.0420   22.9130   31.8920 C   0  0  0  0  0  0  0  0  0  0  0  0
   35.5710   22.0580   31.1590 S   0  0  0  0  0  0  0  0  0  0  0  0
   35.8330   20.5140   32.1990 C   0  0  0  0  0  0  0  0  0  0  0  0
   36.8430   20.8060   32.8580 N   0  0  0  0  0  0  0  0  0  0  0  0
   40.8900   21.9650   34.1970 C   0  0  0  0  0  0  0  0  0  0  0  0
   40.6040   22.4690   35.5120 C   0  0  0  0  0  0  0  0  0  0  0  0
   39.2990   22.7600   35.8290 C   0  0  0  0  0  0  0  0  0  0  0  0
   38.3180   22.5650   34.9030 N   0  0  0  0  0  0  0  0  0  0  0  0
   38.6620   22.0750   33.6510 C   0  0  0  0  0  0  0  0  0  0  0  0
   39.8960   21.7770   33.2850 N   0  0  0  0  0  0  0  0  0  0  0  0
   38.9520   23.2750   37.1500 C   0  0  0  0  0  0  0  0  0  0  0  0
   37.9100   24.1340   37.4340 C   0  0  0  0  0  0  0  0  0  0  0  0
   38.0210   24.3050   38.8030 C   0  0  0  0  0  0  0  0  0  0  0  0
   39.0670   23.5890   39.3020 N   0  0  0  0  0  0  0  0  0  0  0  0
   39.6210   22.9680   38.2760 N   0  0  0  0  0  0  0  0  0  0  0  0
   34.8740   19.3900   32.0260 C   0  0  0  0  0  0  0  0  0  0  0  0
   35.5050   18.1010   31.9270 N   0  0  0  0  0  0  0  0  0  0  0  0
   36.4120   17.7850   30.9980 C   0  0  0  0  0  0  0  0  0  0  0  0
   36.7900   16.5320   31.1820 N   0  0  0  0  0  0  0  0  0  0  0  0
   36.1110   16.0200   32.2590 C   0  0  0  0  0  0  0  0  0  0  0  0
   35.3430   17.0240   32.6690 N   0  0  0  0  0  0  0  0  0  0  0  0
   37.0670   18.3820   29.9060 N   0  0  0  0  0  0  0  0  0  0  0  0
   38.1780   19.1530   29.9290 N   0  0  0  0  0  0  0  0  0  0  0  0
   38.4830   19.5270   28.6740 C   0  0  0  0  0  0  0  0  0  0  0  0
   37.5560   18.9940   27.7820 C   0  0  0  0  0  0  0  0  0  0  0  0
   36.6680   18.2720   28.5900 C   0  0  0  0  0  0  0  0  0  0  0  0
   36.2220   14.6420   32.8280 C   0  0  0  0  0  0  0  0  0  0  0  0
   37.4370   14.5210   33.4600 F   0  0  0  0  0  0  0  0  0  0  0  0
   35.2140   14.4990   33.7390 F   0  0  0  0  0  0  0  0  0  0  0  0
   36.0750   13.6850   31.8190 F   0  0  0  0  0  0  0  0  0  0  0  0
   37.4584   23.9119   31.6951 H   0  0  0  0  0  0  0  0  0  0  0  0
   41.9283   21.7272   33.9226 H   0  0  0  0  0  0  0  0  0  0  0  0
   41.4094   22.6181   36.2463 H   0  0  0  0  0  0  0  0  0  0  0  0
   37.1744   24.5734   36.7442 H   0  0  0  0  0  0  0  0  0  0  0  0
   37.3530   24.9356   39.4080 H   0  0  0  0  0  0  0  0  0  0  0  0
   39.3671   23.5412   40.2862 H   0  0  0  0  0  0  0  0  0  0  0  0
   34.1936   19.3780   32.8902 H   0  0  0  0  0  0  0  0  0  0  0  0
   34.3448   19.5624   31.0772 H   0  0  0  0  0  0  0  0  0  0  0  0
   39.3378   20.1600   28.3936 H   0  0  0  0  0  0  0  0  0  0  0  0
   37.5274   19.1131   26.6888 H   0  0  0  0  0  0  0  0  0  0  0  0
   35.7936   17.7083   28.2327 H   0  0  0  0  0  0  0  0  0  0  0  0
  1  5  1  0
  1 10  1  0
  2  1  2  0
  3  2  1  0
  3  4  1  0
  4  5  2  0
  6  7  2  0
  7  8  1  0
  8 12  1  0
  9  8  2  0
 10  9  1  0
 11 10  2  0
 11  6  1  0
 12 13  1  0
 12 16  2  0
 13 14  2  0
 14 15  1  0
 16 15  1  0
 17  4  1  0
 18 17  1  0
 18 22  1  0
 19 20  2  0
 19 18  1  0
 20 21  1  0
 21 22  2  0
 21 28  1  0
 23 24  1  0
 23 19  1  0
 25 24  2  0
 26 27  2  0
 26 25  1  0
 27 23  1  0
 28 29  1  0
 28 30  1  0
 31 28  1  0
  2 32  1  0
  6 33  1  0
  7 34  1  0
 13 35  1  0
 14 36  1  0
 15 37  1  0
 17 38  1  0
 17 39  1  0
 25 40  1  0
 26 41  1  0
 27 42  1  0
M  ISO  8  32  14  33  14  34  14  35  14  36  14  37   9  38   8  39   8
M  ISO  3  40  14  41  14  42  14
M  END
>  <minimizedAffinity>  (1) 
-5.63238096

>  <minimizedRMSD>  (1) 
2.00086784

$$$$
