
     RDKit          3D

 38 41  0  0  0  0  0  0  0  0999 V2000
   35.1400   20.5500   32.4890 C   0  0  0  0  0  0  0  0  0  0  0  0
   35.5590   19.1890   32.2860 N   0  0  0  0  0  0  0  0  0  0  0  0
   36.6170   18.8400   31.5510 C   0  0  0  0  0  0  0  0  0  0  0  0
   36.7370   17.5210   31.5600 N   0  0  0  0  0  0  0  0  0  0  0  0
   35.7210   17.0000   32.3300 C   0  0  0  0  0  0  0  0  0  0  0  0
   35.0380   18.0670   32.7440 N   0  0  0  0  0  0  0  0  0  0  0  0
   37.6250   19.4470   30.7800 N   0  0  0  0  0  0  0  0  0  0  0  0
   38.8030   19.9620   31.2170 N   0  0  0  0  0  0  0  0  0  0  0  0
   39.4860   20.4500   30.1690 C   0  0  0  0  0  0  0  0  0  0  0  0
   38.7500   20.2610   28.9950 C   0  0  0  0  0  0  0  0  0  0  0  0
   37.5730   19.6230   29.4120 C   0  0  0  0  0  0  0  0  0  0  0  0
   35.4520   15.5610   32.6280 C   0  0  0  0  0  0  0  0  0  0  0  0
   36.6290   14.9640   33.0140 F   0  0  0  0  0  0  0  0  0  0  0  0
   34.5360   15.5160   33.6310 F   0  0  0  0  0  0  0  0  0  0  0  0
   34.9180   14.9230   31.5030 F   0  0  0  0  0  0  0  0  0  0  0  0
   37.9200   22.5380   33.8720 C   0  0  0  0  0  0  0  0  0  0  0  0
   37.9810   23.5250   32.9090 C   0  0  0  0  0  0  0  0  0  0  0  0
   36.6140   22.9440   31.8110 S   0  0  0  0  0  0  0  0  0  0  0  0
   36.2400   21.4580   32.9080 C   0  0  0  0  0  0  0  0  0  0  0  0
   37.0690   21.5870   33.8090 N   0  0  0  0  0  0  0  0  0  0  0  0
   40.8100   22.0690   36.1690 C   0  0  0  0  0  0  0  0  0  0  0  0
   40.2560   22.6030   37.3840 C   0  0  0  0  0  0  0  0  0  0  0  0
   38.9670   23.0820   37.3620 C   0  0  0  0  0  0  0  0  0  0  0  0
   38.2520   23.0360   36.1940 N   0  0  0  0  0  0  0  0  0  0  0  0
   38.8450   22.5100   35.0620 C   0  0  0  0  0  0  0  0  0  0  0  0
   40.0850   22.0330   35.0180 N   0  0  0  0  0  0  0  0  0  0  0  0
   38.3480   23.6390   38.5780 C   0  0  0  0  0  0  0  0  0  0  0  0
   37.2870   22.8520   39.0220 F   0  0  0  0  0  0  0  0  0  0  0  0
   37.8580   24.9220   38.3040 F   0  0  0  0  0  0  0  0  0  0  0  0
   39.2740   23.8050   39.5840 F   0  0  0  0  0  0  0  0  0  0  0  0
   34.3640   20.5618   33.2686 H   0  0  0  0  0  0  0  0  0  0  0  0
   34.7690   20.9197   31.5217 H   0  0  0  0  0  0  0  0  0  0  0  0
   40.4757   20.9268   30.2254 H   0  0  0  0  0  0  0  0  0  0  0  0
   39.0319   20.5490   27.9715 H   0  0  0  0  0  0  0  0  0  0  0  0
   36.7450   19.3139   28.7571 H   0  0  0  0  0  0  0  0  0  0  0  0
   38.6454   24.3973   32.8215 H   0  0  0  0  0  0  0  0  0  0  0  0
   41.8397   21.6822   36.1701 H   0  0  0  0  0  0  0  0  0  0  0  0
   40.8497   22.6278   38.3097 H   0  0  0  0  0  0  0  0  0  0  0  0
  1 19  1  0
  2  1  1  0
  2  6  1  0
  3  4  2  0
  3  2  1  0
  4  5  1  0
  5 12  1  0
  5  6  2  0
  7  8  1  0
  7  3  1  0
  9  8  2  0
 10 11  2  0
 10  9  1  0
 11  7  1  0
 12 13  1  0
 12 14  1  0
 15 12  1  0
 16 25  1  0
 17 16  2  0
 18 19  1  0
 18 17  1  0
 19 20  2  0
 20 16  1  0
 21 22  2  0
 23 22  1  0
 23 27  1  0
 24 23  2  0
 25 24  1  0
 26 25  2  0
 26 21  1  0
 27 28  1  0
 27 30  1  0
 29 27  1  0
  1 31  1  0
  1 32  1  0
  9 33  1  0
 10 34  1  0
 11 35  1  0
 17 36  1  0
 21 37  1  0
 22 38  1  0
M  ISO  8  31   8  32   8  33  14  34  14  35  14  36  14  37  14  38  14
M  END
>  <minimizedAffinity>  (1) 
-6.279706

>  <minimizedRMSD>  (1) 
0.584190071

$$$$
