
     RDKit          3D

 29 31  0  0  0  0  0  0  0  0999 V2000
   38.5350   23.8100   37.1680 C   0  0  0  0  0  0  0  0  0  0  0  0
   39.3390   22.8330   36.6000 C   0  0  0  0  0  0  0  0  0  0  0  0
   39.5900   22.9420   35.2150 C   0  0  0  0  0  0  0  0  0  0  0  0
   39.0460   23.9670   34.5440 N   0  0  0  0  0  0  0  0  0  0  0  0
   38.2690   24.9060   35.1140 C   0  0  0  0  0  0  0  0  0  0  0  0
   38.0400   24.7920   36.4130 N   0  0  0  0  0  0  0  0  0  0  0  0
   37.6080   26.0680   34.5300 C   0  0  0  0  0  0  0  0  0  0  0  0
   37.5400   27.3150   35.1640 C   0  0  0  0  0  0  0  0  0  0  0  0
   36.9350   28.4110   34.6500 C   0  0  0  0  0  0  0  0  0  0  0  0
   36.3340   28.3590   33.4360 C   0  0  0  0  0  0  0  0  0  0  0  0
   36.3510   27.1810   32.7440 C   0  0  0  0  0  0  0  0  0  0  0  0
   35.7350   27.1520   31.5160 C   0  0  0  0  0  0  0  0  0  0  0  0
   35.7130   26.0070   30.7700 C   0  0  0  0  0  0  0  0  0  0  0  0
   36.3420   24.8980   31.3220 C   0  0  0  0  0  0  0  0  0  0  0  0
   36.9430   24.9610   32.5390 C   0  0  0  0  0  0  0  0  0  0  0  0
   36.9780   26.0950   33.3080 C   0  0  0  0  0  0  0  0  0  0  0  0
   38.2210   23.7700   38.6390 C   0  0  0  0  0  0  0  0  0  0  0  0
   39.3990   23.5790   39.3800 F   0  0  0  0  0  0  0  0  0  0  0  0
   37.6980   24.9930   39.0460 F   0  0  0  0  0  0  0  0  0  0  0  0
   37.3220   22.7610   38.8710 F   0  0  0  0  0  0  0  0  0  0  0  0
   39.7607   22.0129   37.1996 H   0  0  0  0  0  0  0  0  0  0  0  0
   40.2183   22.2019   34.6978 H   0  0  0  0  0  0  0  0  0  0  0  0
   38.0132   27.4106   36.1524 H   0  0  0  0  0  0  0  0  0  0  0  0
   36.9309   29.3509   35.2215 H   0  0  0  0  0  0  0  0  0  0  0  0
   35.8418   29.2485   33.0159 H   0  0  0  0  0  0  0  0  0  0  0  0
   35.2535   28.0619   31.1285 H   0  0  0  0  0  0  0  0  0  0  0  0
   35.2237   25.9658   29.7857 H   0  0  0  0  0  0  0  0  0  0  0  0
   36.3537   23.9507   30.7630 H   0  0  0  0  0  0  0  0  0  0  0  0
   37.4274   24.0532   32.9279 H   0  0  0  0  0  0  0  0  0  0  0  0
  1 17  1  0
  2  1  2  0
  3  2  1  0
  4  5  1  0
  4  3  2  0
  5  6  2  0
  6  1  1  0
  7  5  1  0
  7  8  2  0
  9  8  1  0
 10  9  2  0
 11 16  2  0
 11 10  1  0
 12 11  1  0
 13 14  1  0
 13 12  2  0
 14 15  2  0
 15 16  1  0
 16  7  1  0
 17 20  1  0
 17 19  1  0
 17 18  1  0
  2 21  1  0
  3 22  1  0
  8 23  1  0
  9 24  1  0
 10 25  1  0
 12 26  1  0
 13 27  1  0
 14 28  1  0
 15 29  1  0
M  ISO  8  21  14  22  14  23  14  24  14  25  14  26  14  27  14  28  14
M  ISO  1  29  14
M  END
>  <minimizedAffinity>  (1) 
-6.04094839

>  <minimizedRMSD>  (1) 
1.6540457

$$$$
