
     RDKit          3D

 48 52  0  0  0  0  0  0  0  0999 V2000
   35.9410   20.9800   30.7980 C   0  0  0  0  0  0  0  0  0  0  0  0
   36.0970   19.5530   30.8810 N   0  0  0  0  0  0  0  0  0  0  0  0
   36.6960   18.8180   29.9390 C   0  0  0  0  0  0  0  0  0  0  0  0
   36.6790   17.5440   30.3080 N   0  0  0  0  0  0  0  0  0  0  0  0
   36.0470   17.4610   31.5290 C   0  0  0  0  0  0  0  0  0  0  0  0
   35.7170   18.7170   31.8220 N   0  0  0  0  0  0  0  0  0  0  0  0
   37.3260   18.9940   28.6950 N   0  0  0  0  0  0  0  0  0  0  0  0
   38.6130   19.3300   28.4560 N   0  0  0  0  0  0  0  0  0  0  0  0
   38.8180   19.3980   27.1280 C   0  0  0  0  0  0  0  0  0  0  0  0
   37.6420   19.0990   26.4530 C   0  0  0  0  0  0  0  0  0  0  0  0
   36.7110   18.8480   27.4690 C   0  0  0  0  0  0  0  0  0  0  0  0
   35.7990   16.2200   32.3280 C   0  0  0  0  0  0  0  0  0  0  0  0
   36.9980   15.7890   32.8650 F   0  0  0  0  0  0  0  0  0  0  0  0
   34.9430   16.5560   33.3390 F   0  0  0  0  0  0  0  0  0  0  0  0
   35.2090   15.2350   31.5340 F   0  0  0  0  0  0  0  0  0  0  0  0
   37.8450   23.1830   33.0560 C   0  0  0  0  0  0  0  0  0  0  0  0
   38.9820   22.4060   33.2130 C   0  0  0  0  0  0  0  0  0  0  0  0
   38.4960   20.9740   32.1420 S   0  0  0  0  0  0  0  0  0  0  0  0
   36.8380   21.7400   31.7040 C   0  0  0  0  0  0  0  0  0  0  0  0
   36.8800   22.7990   32.3300 N   0  0  0  0  0  0  0  0  0  0  0  0
   37.8240   26.0060   35.4730 C   0  0  0  0  0  0  0  0  0  0  0  0
   37.2670   27.0340   34.6580 C   0  0  0  0  0  0  0  0  0  0  0  0
   36.9330   26.7300   33.3590 C   0  0  0  0  0  0  0  0  0  0  0  0
   37.1380   25.4670   32.8860 N   0  0  0  0  0  0  0  0  0  0  0  0
   37.6830   24.5120   33.7280 C   0  0  0  0  0  0  0  0  0  0  0  0
   38.0240   24.7510   34.9860 N   0  0  0  0  0  0  0  0  0  0  0  0
   36.3680   27.6530   32.4350 N   0  0  0  0  0  0  0  0  0  0  0  0
   35.5170   28.7710   32.8110 C   0  0  0  0  0  0  0  0  0  0  0  0
   36.2230   30.0600   32.4350 C   0  0  0  0  0  0  0  0  0  0  0  0
   36.8990   29.9460   31.2290 O   0  0  0  0  0  0  0  0  0  0  0  0
   36.3450   28.9270   30.4340 C   0  0  0  0  0  0  0  0  0  0  0  0
   36.6050   27.5510   31.0070 C   0  0  0  0  0  0  0  0  0  0  0  0
   36.1500   21.2910   29.7638 H   0  0  0  0  0  0  0  0  0  0  0  0
   34.9102   21.2056   31.1086 H   0  0  0  0  0  0  0  0  0  0  0  0
   39.7747   19.6525   26.6485 H   0  0  0  0  0  0  0  0  0  0  0  0
   37.4784   19.0666   25.3657 H   0  0  0  0  0  0  0  0  0  0  0  0
   35.6562   18.5773   27.3137 H   0  0  0  0  0  0  0  0  0  0  0  0
   39.8967   22.5853   33.7971 H   0  0  0  0  0  0  0  0  0  0  0  0
   38.0972   26.2310   36.5145 H   0  0  0  0  0  0  0  0  0  0  0  0
   37.1081   28.0462   35.0583 H   0  0  0  0  0  0  0  0  0  0  0  0
   34.5579   28.7036   32.2766 H   0  0  0  0  0  0  0  0  0  0  0  0
   35.3222   28.7495   33.8934 H   0  0  0  0  0  0  0  0  0  0  0  0
   35.4760   30.8629   32.3496 H   0  0  0  0  0  0  0  0  0  0  0  0
   36.9602   30.2865   33.2193 H   0  0  0  0  0  0  0  0  0  0  0  0
   36.7878   28.9817   29.4285 H   0  0  0  0  0  0  0  0  0  0  0  0
   35.2561   29.0789   30.4002 H   0  0  0  0  0  0  0  0  0  0  0  0
   35.9201   26.8161   30.5588 H   0  0  0  0  0  0  0  0  0  0  0  0
   37.6314   27.2170   30.7949 H   0  0  0  0  0  0  0  0  0  0  0  0
  1  2  1  0
  1 19  1  0
  2  6  1  0
  3  4  2  0
  3  2  1  0
  4  5  1  0
  5  6  2  0
  5 12  1  0
  7  3  1  0
  8  7  1  0
  9  8  2  0
 10  9  1  0
 10 11  2  0
 11  7  1  0
 12 13  1  0
 12 14  1  0
 15 12  1  0
 16 17  2  0
 16 25  1  0
 18 17  1  0
 19 18  1  0
 19 20  2  0
 20 16  1  0
 22 21  2  0
 23 22  1  0
 24 23  2  0
 24 25  1  0
 25 26  2  0
 26 21  1  0
 27 28  1  0
 27 23  1  0
 29 28  1  0
 30 29  1  0
 31 32  1  0
 31 30  1  0
 32 27  1  0
  1 33  1  0
  1 34  1  0
  9 35  1  0
 10 36  1  0
 11 37  1  0
 17 38  1  0
 21 39  1  0
 22 40  1  0
 28 41  1  0
 28 42  1  0
 29 43  1  0
 29 44  1  0
 31 45  1  0
 31 46  1  0
 32 47  1  0
 32 48  1  0
M  ISO  8  33   8  34   8  35  14  36  14  37  14  38  14  39  14  40  14
M  ISO  8  41  13  42  13  43  13  44  13  45  13  46  13  47  13  48  13
M  END
>  <minimizedAffinity>  (1) 
-5.54086447

>  <minimizedRMSD>  (1) 
4.76656866

$$$$
