
     RDKit          3D

 41 44  0  0  0  0  0  0  0  0999 V2000
   35.3160   20.6940   32.7010 C   0  0  0  0  0  0  0  0  0  0  0  0
   35.6930   19.3330   32.4290 N   0  0  0  0  0  0  0  0  0  0  0  0
   36.7410   18.9900   31.6740 C   0  0  0  0  0  0  0  0  0  0  0  0
   36.8170   17.6690   31.6190 N   0  0  0  0  0  0  0  0  0  0  0  0
   35.7840   17.1480   32.3620 C   0  0  0  0  0  0  0  0  0  0  0  0
   35.1360   18.2120   32.8300 N   0  0  0  0  0  0  0  0  0  0  0  0
   37.7650   19.6110   30.9370 N   0  0  0  0  0  0  0  0  0  0  0  0
   38.9490   20.0690   31.3790 N   0  0  0  0  0  0  0  0  0  0  0  0
   39.6450   20.5960   30.3550 C   0  0  0  0  0  0  0  0  0  0  0  0
   38.9050   20.4910   29.1840 C   0  0  0  0  0  0  0  0  0  0  0  0
   37.7210   19.8640   29.5810 C   0  0  0  0  0  0  0  0  0  0  0  0
   35.4830   15.6980   32.5780 C   0  0  0  0  0  0  0  0  0  0  0  0
   36.6400   15.0510   32.9560 F   0  0  0  0  0  0  0  0  0  0  0  0
   34.5590   15.6270   33.5840 F   0  0  0  0  0  0  0  0  0  0  0  0
   34.9360   15.1360   31.4200 F   0  0  0  0  0  0  0  0  0  0  0  0
   38.1790   22.5660   34.0860 C   0  0  0  0  0  0  0  0  0  0  0  0
   38.2530   23.5790   33.1470 C   0  0  0  0  0  0  0  0  0  0  0  0
   36.8460   23.0620   32.0580 S   0  0  0  0  0  0  0  0  0  0  0  0
   36.4490   21.5620   33.1220 C   0  0  0  0  0  0  0  0  0  0  0  0
   37.3000   21.6510   34.0060 N   0  0  0  0  0  0  0  0  0  0  0  0
   41.1080   21.9700   36.2980 C   0  0  0  0  0  0  0  0  0  0  0  0
   40.5900   22.4620   37.5330 C   0  0  0  0  0  0  0  0  0  0  0  0
   39.3090   22.9610   37.5650 C   0  0  0  0  0  0  0  0  0  0  0  0
   38.5600   22.9720   36.4040 N   0  0  0  0  0  0  0  0  0  0  0  0
   39.1210   22.4830   35.2490 C   0  0  0  0  0  0  0  0  0  0  0  0
   40.3570   21.9880   35.1650 N   0  0  0  0  0  0  0  0  0  0  0  0
   38.7590   23.4770   38.8430 C   0  0  0  0  0  0  0  0  0  0  0  0
   37.8810   24.6740   38.6120 C   0  0  0  0  0  0  0  0  0  0  0  0
   34.5650   20.6911   33.5047 H   0  0  0  0  0  0  0  0  0  0  0  0
   34.9272   21.1112   31.7604 H   0  0  0  0  0  0  0  0  0  0  0  0
   40.6474   21.0421   30.4332 H   0  0  0  0  0  0  0  0  0  0  0  0
   39.1868   20.8252   28.1746 H   0  0  0  0  0  0  0  0  0  0  0  0
   36.8828   19.6110   28.9151 H   0  0  0  0  0  0  0  0  0  0  0  0
   38.9404   24.4343   33.0700 H   0  0  0  0  0  0  0  0  0  0  0  0
   42.1319   21.5695   36.2620 H   0  0  0  0  0  0  0  0  0  0  0  0
   41.2053   22.4425   38.4446 H   0  0  0  0  0  0  0  0  0  0  0  0
   38.1667   22.6850   39.3246 H   0  0  0  0  0  0  0  0  0  0  0  0
   39.5981   23.7793   39.4868 H   0  0  0  0  0  0  0  0  0  0  0  0
   37.5724   25.0947   39.5804 H   0  0  0  0  0  0  0  0  0  0  0  0
   38.4381   25.4331   38.0432 H   0  0  0  0  0  0  0  0  0  0  0  0
   36.9897   24.3706   38.0432 H   0  0  0  0  0  0  0  0  0  0  0  0
  1 19  1  0
  2  1  1  0
  2  6  1  0
  3  2  1  0
  4  3  2  0
  4  5  1  0
  5 12  1  0
  5  6  2  0
  7  8  1  0
  7  3  1  0
  9  8  2  0
 10 11  2  0
 10  9  1  0
 11  7  1  0
 12 13  1  0
 12 14  1  0
 15 12  1  0
 16 25  1  0
 17 16  2  0
 18 19  1  0
 18 17  1  0
 19 20  2  0
 20 16  1  0
 21 22  2  0
 22 23  1  0
 23 27  1  0
 24 23  2  0
 25 24  1  0
 26 25  2  0
 26 21  1  0
 28 27  1  0
  1 29  1  0
  1 30  1  0
  9 31  1  0
 10 32  1  0
 11 33  1  0
 17 34  1  0
 21 35  1  0
 22 36  1  0
 27 37  1  0
 27 38  1  0
 28 39  1  0
 28 40  1  0
 28 41  1  0
M  ISO  8  29   8  30   8  31  14  32  14  33  14  34  14  35  14  36  14
M  ISO  5  37   8  38   8  39   8  40   8  41   8
M  END
>  <minimizedAffinity>  (1) 
-5.60299206

>  <minimizedRMSD>  (1) 
0.517390609

$$$$
