
     RDKit          3D

 38 41  0  0  0  0  0  0  0  0999 V2000
   35.1300   20.5780   32.4740 C   0  0  0  0  0  0  0  0  0  0  0  0
   35.5760   19.2230   32.2880 N   0  0  0  0  0  0  0  0  0  0  0  0
   36.6680   18.9020   31.5890 C   0  0  0  0  0  0  0  0  0  0  0  0
   36.8130   17.5740   31.6010 N   0  0  0  0  0  0  0  0  0  0  0  0
   35.7760   17.0420   32.3310 C   0  0  0  0  0  0  0  0  0  0  0  0
   35.0620   18.0920   32.7190 N   0  0  0  0  0  0  0  0  0  0  0  0
   37.6970   19.5210   30.8590 N   0  0  0  0  0  0  0  0  0  0  0  0
   38.8490   20.0500   31.3380 N   0  0  0  0  0  0  0  0  0  0  0  0
   39.5650   20.5470   30.3110 C   0  0  0  0  0  0  0  0  0  0  0  0
   38.8810   20.3500   29.1200 C   0  0  0  0  0  0  0  0  0  0  0  0
   37.6970   19.6970   29.4900 C   0  0  0  0  0  0  0  0  0  0  0  0
   35.5220   15.5950   32.6160 C   0  0  0  0  0  0  0  0  0  0  0  0
   36.6910   15.0170   33.0520 F   0  0  0  0  0  0  0  0  0  0  0  0
   34.5710   15.5340   33.5950 F   0  0  0  0  0  0  0  0  0  0  0  0
   35.0510   14.9470   31.4680 F   0  0  0  0  0  0  0  0  0  0  0  0
   37.7770   22.6020   34.0600 C   0  0  0  0  0  0  0  0  0  0  0  0
   37.9320   23.5560   33.0840 C   0  0  0  0  0  0  0  0  0  0  0  0
   36.6730   22.9500   31.8730 S   0  0  0  0  0  0  0  0  0  0  0  0
   36.1870   21.4970   32.9630 C   0  0  0  0  0  0  0  0  0  0  0  0
   36.9300   21.6600   33.9280 N   0  0  0  0  0  0  0  0  0  0  0  0
   40.3660   22.0430   36.6700 C   0  0  0  0  0  0  0  0  0  0  0  0
   39.7990   22.7940   37.7470 C   0  0  0  0  0  0  0  0  0  0  0  0
   38.6000   23.4390   37.5470 C   0  0  0  0  0  0  0  0  0  0  0  0
   37.9780   23.3430   36.3190 N   0  0  0  0  0  0  0  0  0  0  0  0
   38.5830   22.6030   35.3310 C   0  0  0  0  0  0  0  0  0  0  0  0
   39.7350   21.9660   35.4750 N   0  0  0  0  0  0  0  0  0  0  0  0
   37.9290   24.2440   38.6010 C   0  0  0  0  0  0  0  0  0  0  0  0
   34.3083   20.5749   33.2053 H   0  0  0  0  0  0  0  0  0  0  0  0
   34.8158   20.9490   31.4873 H   0  0  0  0  0  0  0  0  0  0  0  0
   40.5459   21.0362   30.4029 H   0  0  0  0  0  0  0  0  0  0  0  0
   39.1981   20.6420   28.1080 H   0  0  0  0  0  0  0  0  0  0  0  0
   36.8996   19.3776   28.8028 H   0  0  0  0  0  0  0  0  0  0  0  0
   38.6060   24.4240   33.0368 H   0  0  0  0  0  0  0  0  0  0  0  0
   41.3244   21.5228   36.8142 H   0  0  0  0  0  0  0  0  0  0  0  0
   40.3122   22.8549   38.7180 H   0  0  0  0  0  0  0  0  0  0  0  0
   38.2344   23.8777   39.5922 H   0  0  0  0  0  0  0  0  0  0  0  0
   38.2179   25.3001   38.4954 H   0  0  0  0  0  0  0  0  0  0  0  0
   36.8381   24.1500   38.4954 H   0  0  0  0  0  0  0  0  0  0  0  0
  1 19  1  0
  2  1  1  0
  2  6  1  0
  3  4  2  0
  3  2  1  0
  4  5  1  0
  5 12  1  0
  5  6  2  0
  7  8  1  0
  7  3  1  0
  9  8  2  0
 10 11  2  0
 10  9  1  0
 11  7  1  0
 12 13  1  0
 12 14  1  0
 15 12  1  0
 16 25  1  0
 17 16  2  0
 18 19  1  0
 18 17  1  0
 19 20  2  0
 20 16  1  0
 21 22  2  0
 23 22  1  0
 23 27  1  0
 24 23  2  0
 25 26  2  0
 25 24  1  0
 26 21  1  0
  1 28  1  0
  1 29  1  0
  9 30  1  0
 10 31  1  0
 11 32  1  0
 17 33  1  0
 21 34  1  0
 22 35  1  0
 27 36  1  0
 27 37  1  0
 27 38  1  0
M  ISO  8  28   8  29   8  30  14  31  14  32  14  33  14  34  14  35  14
M  ISO  3  36   8  37   8  38   8
M  END
>  <minimizedAffinity>  (1) 
-5.58387184

>  <minimizedRMSD>  (1) 
0.281963736

$$$$
