
     RDKit          3D

 27 29  0  0  0  0  0  0  0  0999 V2000
   39.1020   23.1600   37.3090 C   0  0  0  0  0  0  0  0  0  0  0  0
   40.2680   22.4240   37.4730 C   0  0  0  0  0  0  0  0  0  0  0  0
   40.8750   21.9120   36.3180 C   0  0  0  0  0  0  0  0  0  0  0  0
   40.3000   22.1600   35.1350 N   0  0  0  0  0  0  0  0  0  0  0  0
   39.1700   22.8740   34.9850 C   0  0  0  0  0  0  0  0  0  0  0  0
   38.6060   23.3530   36.0860 N   0  0  0  0  0  0  0  0  0  0  0  0
   38.4100   23.2370   33.7810 C   0  0  0  0  0  0  0  0  0  0  0  0
   38.7040   24.3160   33.0080 N   0  0  0  0  0  0  0  0  0  0  0  0
   38.0230   24.6550   31.9160 C   0  0  0  0  0  0  0  0  0  0  0  0
   36.9710   23.9480   31.4780 N   0  0  0  0  0  0  0  0  0  0  0  0
   36.5970   22.8570   32.1740 C   0  0  0  0  0  0  0  0  0  0  0  0
   35.5190   22.1220   31.7370 C   0  0  0  0  0  0  0  0  0  0  0  0
   35.1040   21.0040   32.4190 C   0  0  0  0  0  0  0  0  0  0  0  0
   35.8230   20.6510   33.5670 C   0  0  0  0  0  0  0  0  0  0  0  0
   36.8920   21.4270   33.9520 C   0  0  0  0  0  0  0  0  0  0  0  0
   37.3270   22.5420   33.2970 C   0  0  0  0  0  0  0  0  0  0  0  0
   38.3920   23.7410   38.5010 C   0  0  0  0  0  0  0  0  0  0  0  0
   37.3230   22.9450   38.8880 F   0  0  0  0  0  0  0  0  0  0  0  0
   39.2630   23.8190   39.5830 F   0  0  0  0  0  0  0  0  0  0  0  0
   37.9590   25.0190   38.1660 F   0  0  0  0  0  0  0  0  0  0  0  0
   40.6984   22.2496   38.4702 H   0  0  0  0  0  0  0  0  0  0  0  0
   41.8007   21.3212   36.3822 H   0  0  0  0  0  0  0  0  0  0  0  0
   38.3342   25.5470   31.3525 H   0  0  0  0  0  0  0  0  0  0  0  0
   34.9821   22.4339   30.8290 H   0  0  0  0  0  0  0  0  0  0  0  0
   34.2428   20.4111   32.0773 H   0  0  0  0  0  0  0  0  0  0  0  0
   35.5373   19.7653   34.1534 H   0  0  0  0  0  0  0  0  0  0  0  0
   37.4381   21.1251   34.8579 H   0  0  0  0  0  0  0  0  0  0  0  0
  1  2  2  0
  1 17  1  0
  3  2  1  0
  4  3  2  0
  5  4  1  0
  5  6  2  0
  6  1  1  0
  7  5  1  0
  8  7  2  0
  9  8  1  0
 10  9  2  0
 10 11  1  0
 11 16  2  0
 12 11  1  0
 12 13  2  0
 13 14  1  0
 14 15  2  0
 16  7  1  0
 16 15  1  0
 17 18  1  0
 17 19  1  0
 20 17  1  0
  2 21  1  0
  3 22  1  0
  9 23  1  0
 12 24  1  0
 13 25  1  0
 14 26  1  0
 15 27  1  0
M  ISO  7  21  14  22  14  23  14  24  14  25  14  26  14  27  14
M  END
>  <minimizedAffinity>  (1) 
-5.96559572

>  <minimizedRMSD>  (1) 
4.68516588

$$$$
