
     RDKit          3D

 44 47  0  0  0  0  0  0  0  0999 V2000
   34.7890   19.9070   32.0490 C   0  0  0  0  0  0  0  0  0  0  0  0
   35.3440   18.5830   31.9650 N   0  0  0  0  0  0  0  0  0  0  0  0
   36.3150   18.2400   31.1120 C   0  0  0  0  0  0  0  0  0  0  0  0
   36.6090   16.9480   31.2790 N   0  0  0  0  0  0  0  0  0  0  0  0
   35.7910   16.4590   32.2750 C   0  0  0  0  0  0  0  0  0  0  0  0
   35.0500   17.4960   32.6490 N   0  0  0  0  0  0  0  0  0  0  0  0
   37.1070   18.8240   30.1080 N   0  0  0  0  0  0  0  0  0  0  0  0
   38.2540   19.5160   30.2530 N   0  0  0  0  0  0  0  0  0  0  0  0
   38.6970   19.9060   29.0480 C   0  0  0  0  0  0  0  0  0  0  0  0
   37.8240   19.4650   28.0590 C   0  0  0  0  0  0  0  0  0  0  0  0
   36.8270   18.7840   28.7580 C   0  0  0  0  0  0  0  0  0  0  0  0
   35.7650   15.0590   32.8020 C   0  0  0  0  0  0  0  0  0  0  0  0
   36.9830   14.7800   33.3800 F   0  0  0  0  0  0  0  0  0  0  0  0
   34.7750   14.9960   33.7360 F   0  0  0  0  0  0  0  0  0  0  0  0
   35.4860   14.1550   31.7730 F   0  0  0  0  0  0  0  0  0  0  0  0
   37.3900   22.2520   33.2220 C   0  0  0  0  0  0  0  0  0  0  0  0
   37.2430   23.2350   32.2590 C   0  0  0  0  0  0  0  0  0  0  0  0
   35.8780   22.4690   31.2690 S   0  0  0  0  0  0  0  0  0  0  0  0
   35.7910   20.9540   32.3850 C   0  0  0  0  0  0  0  0  0  0  0  0
   36.6680   21.1990   33.2190 N   0  0  0  0  0  0  0  0  0  0  0  0
   40.4660   22.1190   35.3010 C   0  0  0  0  0  0  0  0  0  0  0  0
   39.9700   22.6570   36.5250 C   0  0  0  0  0  0  0  0  0  0  0  0
   38.6480   23.0330   36.5930 C   0  0  0  0  0  0  0  0  0  0  0  0
   37.8520   22.8800   35.4900 N   0  0  0  0  0  0  0  0  0  0  0  0
   38.3980   22.3500   34.3300 C   0  0  0  0  0  0  0  0  0  0  0  0
   39.6590   21.9730   34.2120 N   0  0  0  0  0  0  0  0  0  0  0  0
   38.1010   23.5970   37.8550 C   0  0  0  0  0  0  0  0  0  0  0  0
   37.8580   25.0760   37.7860 C   0  0  0  0  0  0  0  0  0  0  0  0
   39.1020   23.3660   38.9930 C   0  0  0  0  0  0  0  0  0  0  0  0
   34.0106   19.9088   32.8262 H   0  0  0  0  0  0  0  0  0  0  0  0
   34.3886   20.1520   31.0542 H   0  0  0  0  0  0  0  0  0  0  0  0
   39.6134   20.4875   28.8690 H   0  0  0  0  0  0  0  0  0  0  0  0
   37.9020   19.6184   26.9725 H   0  0  0  0  0  0  0  0  0  0  0  0
   35.9543   18.2922   28.3037 H   0  0  0  0  0  0  0  0  0  0  0  0
   37.7772   24.1868   32.1224 H   0  0  0  0  0  0  0  0  0  0  0  0
   41.5212   21.8156   35.2342 H   0  0  0  0  0  0  0  0  0  0  0  0
   40.6308   22.7692   37.3972 H   0  0  0  0  0  0  0  0  0  0  0  0
   37.1410   23.0877   38.0256 H   0  0  0  0  0  0  0  0  0  0  0  0
   37.7909   25.4845   38.8051 H   0  0  0  0  0  0  0  0  0  0  0  0
   38.6887   25.5595   37.2511 H   0  0  0  0  0  0  0  0  0  0  0  0
   36.9162   25.2683   37.2511 H   0  0  0  0  0  0  0  0  0  0  0  0
   38.5913   23.4839   39.9601 H   0  0  0  0  0  0  0  0  0  0  0  0
   39.5145   22.3491   38.9177 H   0  0  0  0  0  0  0  0  0  0  0  0
   39.9184   24.0993   38.9177 H   0  0  0  0  0  0  0  0  0  0  0  0
  1 19  1  0
  2  1  1  0
  2  6  1  0
  3  4  2  0
  3  2  1  0
  4  5  1  0
  5  6  2  0
  5 12  1  0
  7  8  1  0
  7  3  1  0
  9  8  2  0
 10 11  2  0
 10  9  1  0
 11  7  1  0
 12 13  1  0
 12 14  1  0
 15 12  1  0
 16 25  1  0
 17 16  2  0
 18 17  1  0
 18 19  1  0
 19 20  2  0
 20 16  1  0
 21 22  2  0
 22 23  1  0
 23 27  1  0
 24 23  2  0
 25 24  1  0
 26 25  2  0
 26 21  1  0
 27 29  1  0
 28 27  1  0
  1 30  1  0
  1 31  1  0
  9 32  1  0
 10 33  1  0
 11 34  1  0
 17 35  1  0
 21 36  1  0
 22 37  1  0
 27 38  1  0
 28 39  1  0
 28 40  1  0
 28 41  1  0
 29 42  1  0
 29 43  1  0
 29 44  1  0
M  ISO  8  30   8  31   8  32  14  33  14  34  14  35  14  36  14  37  14
M  ISO  7  38   8  39   8  40   8  41   8  42   8  43   8  44   8
M  END
>  <minimizedAffinity>  (1) 
-5.2542882

>  <minimizedRMSD>  (1) 
1.32295847

$$$$
