
     RDKit          3D

 47 51  0  0  0  0  0  0  0  0999 V2000
   35.3420   20.5250   32.9000 C   0  0  0  0  0  0  0  0  0  0  0  0
   35.7300   19.1840   32.5550 N   0  0  0  0  0  0  0  0  0  0  0  0
   36.8130   18.8970   31.8280 C   0  0  0  0  0  0  0  0  0  0  0  0
   36.9000   17.5820   31.6810 N   0  0  0  0  0  0  0  0  0  0  0  0
   35.8300   17.0080   32.3370 C   0  0  0  0  0  0  0  0  0  0  0  0
   35.1570   18.0370   32.8470 N   0  0  0  0  0  0  0  0  0  0  0  0
   37.8730   19.5610   31.1850 N   0  0  0  0  0  0  0  0  0  0  0  0
   39.0370   19.9820   31.7250 N   0  0  0  0  0  0  0  0  0  0  0  0
   39.7860   20.5720   30.7760 C   0  0  0  0  0  0  0  0  0  0  0  0
   39.1070   20.5480   29.5620 C   0  0  0  0  0  0  0  0  0  0  0  0
   37.8950   19.9020   29.8470 C   0  0  0  0  0  0  0  0  0  0  0  0
   35.5150   15.5480   32.4410 C   0  0  0  0  0  0  0  0  0  0  0  0
   36.6770   14.8630   32.7320 F   0  0  0  0  0  0  0  0  0  0  0  0
   34.6160   15.3980   33.4540 F   0  0  0  0  0  0  0  0  0  0  0  0
   34.9410   15.0860   31.2520 F   0  0  0  0  0  0  0  0  0  0  0  0
   37.6390   22.1900   35.2480 C   0  0  0  0  0  0  0  0  0  0  0  0
   37.0100   21.8660   36.4370 C   0  0  0  0  0  0  0  0  0  0  0  0
   35.5910   20.8910   35.7550 S   0  0  0  0  0  0  0  0  0  0  0  0
   36.1580   21.1340   33.9770 C   0  0  0  0  0  0  0  0  0  0  0  0
   37.1740   21.8070   34.1290 N   0  0  0  0  0  0  0  0  0  0  0  0
   40.1270   24.9490   35.0760 C   0  0  0  0  0  0  0  0  0  0  0  0
   41.3370   24.2040   35.1310 C   0  0  0  0  0  0  0  0  0  0  0  0
   41.2580   22.8300   35.2210 C   0  0  0  0  0  0  0  0  0  0  0  0
   40.0360   22.2260   35.2560 N   0  0  0  0  0  0  0  0  0  0  0  0
   38.8960   23.0060   35.1990 C   0  0  0  0  0  0  0  0  0  0  0  0
   38.9140   24.3330   35.1120 N   0  0  0  0  0  0  0  0  0  0  0  0
   42.3870   21.9660   35.2830 N   0  0  0  0  0  0  0  0  0  0  0  0
   43.4600   21.9030   36.2570 C   0  0  0  0  0  0  0  0  0  0  0  0
   43.3860   20.4180   36.6320 C   0  0  0  0  0  0  0  0  0  0  0  0
   43.2080   19.7930   35.2460 C   0  0  0  0  0  0  0  0  0  0  0  0
   42.7430   20.9040   34.3530 C   0  0  0  0  0  0  0  0  0  0  0  0
   34.2929   20.5067   33.2301 H   0  0  0  0  0  0  0  0  0  0  0  0
   35.4944   21.1401   32.0009 H   0  0  0  0  0  0  0  0  0  0  0  0
   40.7836   21.0072   30.9356 H   0  0  0  0  0  0  0  0  0  0  0  0
   39.4452   20.9468   28.5942 H   0  0  0  0  0  0  0  0  0  0  0  0
   37.0924   19.6999   29.1224 H   0  0  0  0  0  0  0  0  0  0  0  0
   37.2737   22.1134   37.4759 H   0  0  0  0  0  0  0  0  0  0  0  0
   40.1724   26.0456   35.0029 H   0  0  0  0  0  0  0  0  0  0  0  0
   42.3126   24.7114   35.1025 H   0  0  0  0  0  0  0  0  0  0  0  0
   44.4316   22.1647   35.8126 H   0  0  0  0  0  0  0  0  0  0  0  0
   43.3632   22.6013   37.1014 H   0  0  0  0  0  0  0  0  0  0  0  0
   44.3114   20.0744   37.1173 H   0  0  0  0  0  0  0  0  0  0  0  0
   42.5968   20.1651   37.3553 H   0  0  0  0  0  0  0  0  0  0  0  0
   44.1634   19.3853   34.8842 H   0  0  0  0  0  0  0  0  0  0  0  0
   42.4878   18.9618   35.2664 H   0  0  0  0  0  0  0  0  0  0  0  0
   43.5483   21.2276   33.6772 H   0  0  0  0  0  0  0  0  0  0  0  0
   41.9066   20.6076   33.7029 H   0  0  0  0  0  0  0  0  0  0  0  0
  1 19  1  0
  2  6  1  0
  2  1  1  0
  3  2  1  0
  4  3  2  0
  4  5  1  0
  5 12  1  0
  5  6  2  0
  7  8  1  0
  7  3  1  0
  9  8  2  0
 10 11  2  0
 10  9  1  0
 11  7  1  0
 12 13  1  0
 12 14  1  0
 15 12  1  0
 16 17  2  0
 18 17  1  0
 19 20  2  0
 19 18  1  0
 20 16  1  0
 21 26  2  0
 21 22  1  0
 22 23  2  0
 23 24  1  0
 23 27  1  0
 25 16  1  0
 25 24  2  0
 26 25  1  0
 27 28  1  0
 28 29  1  0
 30 29  1  0
 31 30  1  0
 31 27  1  0
  1 32  1  0
  1 33  1  0
  9 34  1  0
 10 35  1  0
 11 36  1  0
 17 37  1  0
 21 38  1  0
 22 39  1  0
 28 40  1  0
 28 41  1  0
 29 42  1  0
 29 43  1  0
 30 44  1  0
 30 45  1  0
 31 46  1  0
 31 47  1  0
M  ISO  8  32   8  33   8  34  14  35  14  36  14  37  14  38  14  39  14
M  ISO  8  40  13  41  13  42  13  43  13  44  13  45  13  46  13  47  13
M  END
>  <minimizedAffinity>  (1) 
-5.00748825

>  <minimizedRMSD>  (1) 
3.73019552

$$$$
