
     RDKit          3D

 43 47  0  0  0  0  0  0  0  0999 V2000
   37.6180   21.5170   32.4820 C   0  0  0  0  0  0  0  0  0  0  0  0
   37.3320   22.3000   31.3750 C   0  0  0  0  0  0  0  0  0  0  0  0
   35.8510   21.3730   30.7470 S   0  0  0  0  0  0  0  0  0  0  0  0
   35.9370   20.1130   32.1320 C   0  0  0  0  0  0  0  0  0  0  0  0
   36.9160   20.5020   32.7770 N   0  0  0  0  0  0  0  0  0  0  0  0
   40.9660   21.8250   34.0620 C   0  0  0  0  0  0  0  0  0  0  0  0
   40.6060   22.5220   35.2670 C   0  0  0  0  0  0  0  0  0  0  0  0
   39.2860   22.8420   35.4760 C   0  0  0  0  0  0  0  0  0  0  0  0
   38.3480   22.4920   34.5380 N   0  0  0  0  0  0  0  0  0  0  0  0
   38.7670   21.8210   33.3970 C   0  0  0  0  0  0  0  0  0  0  0  0
   40.0270   21.4860   33.1410 N   0  0  0  0  0  0  0  0  0  0  0  0
   38.8680   23.5460   36.6810 C   0  0  0  0  0  0  0  0  0  0  0  0
   38.1900   24.7430   36.5780 C   0  0  0  0  0  0  0  0  0  0  0  0
   37.8440   25.3200   37.8050 C   0  0  0  0  0  0  0  0  0  0  0  0
   38.1530   24.7490   38.9810 N   0  0  0  0  0  0  0  0  0  0  0  0
   38.8140   23.5860   39.0370 C   0  0  0  0  0  0  0  0  0  0  0  0
   39.1670   22.9940   37.8680 N   0  0  0  0  0  0  0  0  0  0  0  0
   34.9180   19.0350   32.1520 C   0  0  0  0  0  0  0  0  0  0  0  0
   35.4690   17.7070   32.1010 N   0  0  0  0  0  0  0  0  0  0  0  0
   36.3790   17.3180   31.2050 C   0  0  0  0  0  0  0  0  0  0  0  0
   36.6780   16.0460   31.4240 N   0  0  0  0  0  0  0  0  0  0  0  0
   35.9400   15.6040   32.4920 C   0  0  0  0  0  0  0  0  0  0  0  0
   35.2200   16.6640   32.8630 N   0  0  0  0  0  0  0  0  0  0  0  0
   37.0970   17.8520   30.1200 N   0  0  0  0  0  0  0  0  0  0  0  0
   38.2500   18.5550   30.1500 N   0  0  0  0  0  0  0  0  0  0  0  0
   38.6080   18.8830   28.8940 C   0  0  0  0  0  0  0  0  0  0  0  0
   37.6750   18.3900   27.9920 C   0  0  0  0  0  0  0  0  0  0  0  0
   36.7280   17.7410   28.7940 C   0  0  0  0  0  0  0  0  0  0  0  0
   35.9560   14.2320   33.0880 C   0  0  0  0  0  0  0  0  0  0  0  0
   37.2120   13.9840   33.6020 F   0  0  0  0  0  0  0  0  0  0  0  0
   35.0330   14.2250   34.1020 F   0  0  0  0  0  0  0  0  0  0  0  0
   35.5900   13.2820   32.1330 F   0  0  0  0  0  0  0  0  0  0  0  0
   37.8317   23.1994   30.9858 H   0  0  0  0  0  0  0  0  0  0  0  0
   42.0190   21.5620   33.8831 H   0  0  0  0  0  0  0  0  0  0  0  0
   41.3726   22.7939   36.0075 H   0  0  0  0  0  0  0  0  0  0  0  0
   37.9419   25.2056   35.6113 H   0  0  0  0  0  0  0  0  0  0  0  0
   37.2993   26.2757   37.8066 H   0  0  0  0  0  0  0  0  0  0  0  0
   39.0639   23.1234   40.0032 H   0  0  0  0  0  0  0  0  0  0  0  0
   34.3316   19.1307   33.0777 H   0  0  0  0  0  0  0  0  0  0  0  0
   34.3052   19.1599   31.2471 H   0  0  0  0  0  0  0  0  0  0  0  0
   39.5066   19.4566   28.6229 H   0  0  0  0  0  0  0  0  0  0  0  0
   37.6787   18.4871   26.8963 H   0  0  0  0  0  0  0  0  0  0  0  0
   35.8302   17.2235   28.4251 H   0  0  0  0  0  0  0  0  0  0  0  0
  1  5  1  0
  1 10  1  0
  2  1  2  0
  3  2  1  0
  3  4  1  0
  4 18  1  0
  4  5  2  0
  6  7  2  0
  7  8  1  0
  8 12  1  0
  9  8  2  0
 10  9  1  0
 11 10  2  0
 11  6  1  0
 12 17  1  0
 13 12  2  0
 13 14  1  0
 14 15  2  0
 15 16  1  0
 17 16  2  0
 19 18  1  0
 19 23  1  0
 20 21  2  0
 20 19  1  0
 21 22  1  0
 22 23  2  0
 22 29  1  0
 24 25  1  0
 24 20  1  0
 26 25  2  0
 27 28  2  0
 27 26  1  0
 28 24  1  0
 29 30  1  0
 29 31  1  0
 32 29  1  0
  2 33  1  0
  6 34  1  0
  7 35  1  0
 13 36  1  0
 14 37  1  0
 16 38  1  0
 18 39  1  0
 18 40  1  0
 26 41  1  0
 27 42  1  0
 28 43  1  0
M  ISO  8  33  14  34  14  35  14  36  14  37  14  38  14  39   8  40   8
M  ISO  3  41  14  42  14  43  14
M  END
>  <minimizedAffinity>  (1) 
-4.79463053

>  <minimizedRMSD>  (1) 
2.32832956

$$$$
