
     RDKit          3D

 24 26  0  0  0  0  0  0  0  0999 V2000
   38.4360   23.8470   37.1180 C   0  0  0  0  0  0  0  0  0  0  0  0
   39.1790   22.8420   36.4880 C   0  0  0  0  0  0  0  0  0  0  0  0
   39.3400   22.9350   35.0870 C   0  0  0  0  0  0  0  0  0  0  0  0
   38.7630   23.9910   34.4550 N   0  0  0  0  0  0  0  0  0  0  0  0
   38.0530   24.9430   35.1040 C   0  0  0  0  0  0  0  0  0  0  0  0
   37.8860   24.8740   36.4360 N   0  0  0  0  0  0  0  0  0  0  0  0
   37.4870   26.0110   34.3520 N   0  0  0  0  0  0  0  0  0  0  0  0
   37.4140   27.3200   34.7330 C   0  0  0  0  0  0  0  0  0  0  0  0
   36.8120   28.0610   33.7740 N   0  0  0  0  0  0  0  0  0  0  0  0
   36.4880   27.2480   32.7610 C   0  0  0  0  0  0  0  0  0  0  0  0
   35.8830   27.3250   31.5230 C   0  0  0  0  0  0  0  0  0  0  0  0
   35.6980   26.2710   30.7080 N   0  0  0  0  0  0  0  0  0  0  0  0
   36.1380   25.0500   31.1330 C   0  0  0  0  0  0  0  0  0  0  0  0
   36.7490   24.8680   32.3390 N   0  0  0  0  0  0  0  0  0  0  0  0
   36.9050   25.9710   33.1180 C   0  0  0  0  0  0  0  0  0  0  0  0
   38.2380   23.7890   38.6170 C   0  0  0  0  0  0  0  0  0  0  0  0
   39.4560   23.5500   39.2620 F   0  0  0  0  0  0  0  0  0  0  0  0
   37.7700   25.0060   39.0790 F   0  0  0  0  0  0  0  0  0  0  0  0
   37.3300   22.7940   38.9110 F   0  0  0  0  0  0  0  0  0  0  0  0
   39.6201   22.0128   37.0605 H   0  0  0  0  0  0  0  0  0  0  0  0
   39.9119   22.1797   34.5280 H   0  0  0  0  0  0  0  0  0  0  0  0
   37.7919   27.7170   35.6867 H   0  0  0  0  0  0  0  0  0  0  0  0
   35.5302   28.3093   31.1815 H   0  0  0  0  0  0  0  0  0  0  0  0
   35.9940   24.1789   30.4769 H   0  0  0  0  0  0  0  0  0  0  0  0
  1 16  1  0
  2  1  2  0
  3  2  1  0
  4  3  2  0
  4  5  1  0
  5  6  2  0
  6  1  1  0
  7  8  1  0
  7  5  1  0
  9  8  2  0
 10 15  2  0
 10  9  1  0
 11 10  1  0
 12 13  1  0
 12 11  2  0
 13 14  2  0
 14 15  1  0
 15  7  1  0
 16 19  1  0
 16 18  1  0
 16 17  1  0
  2 20  1  0
  3 21  1  0
  8 22  1  0
 11 23  1  0
 13 24  1  0
M  ISO  5  20  14  21  14  22  14  23  14  24  14
M  END
>  <minimizedAffinity>  (1) 
-5.90152311

>  <minimizedRMSD>  (1) 
1.15803862

$$$$
