
     RDKit          3D

 47 50  0  0  0  0  0  0  0  0999 V2000
   34.7770   19.9920   32.0790 C   0  0  0  0  0  0  0  0  0  0  0  0
   35.2920   18.6510   32.0040 N   0  0  0  0  0  0  0  0  0  0  0  0
   36.2690   18.2760   31.1750 C   0  0  0  0  0  0  0  0  0  0  0  0
   36.5110   16.9860   31.3470 N   0  0  0  0  0  0  0  0  0  0  0  0
   35.6640   16.5120   32.3170 C   0  0  0  0  0  0  0  0  0  0  0  0
   34.9440   17.5740   32.6800 N   0  0  0  0  0  0  0  0  0  0  0  0
   37.1010   18.8430   30.1910 N   0  0  0  0  0  0  0  0  0  0  0  0
   38.2650   19.5050   30.3660 N   0  0  0  0  0  0  0  0  0  0  0  0
   38.7470   19.8870   29.1710 C   0  0  0  0  0  0  0  0  0  0  0  0
   37.8880   19.4750   28.1630 C   0  0  0  0  0  0  0  0  0  0  0  0
   36.8540   18.8170   28.8340 C   0  0  0  0  0  0  0  0  0  0  0  0
   35.5820   15.1140   32.8370 C   0  0  0  0  0  0  0  0  0  0  0  0
   36.7980   14.7690   33.3850 F   0  0  0  0  0  0  0  0  0  0  0  0
   34.6160   15.0990   33.8080 F   0  0  0  0  0  0  0  0  0  0  0  0
   35.2170   14.2350   31.8120 F   0  0  0  0  0  0  0  0  0  0  0  0
   37.4510   22.2640   33.2170 C   0  0  0  0  0  0  0  0  0  0  0  0
   37.2970   23.2650   32.2800 C   0  0  0  0  0  0  0  0  0  0  0  0
   35.8860   22.5380   31.3150 S   0  0  0  0  0  0  0  0  0  0  0  0
   35.8080   21.0130   32.4060 C   0  0  0  0  0  0  0  0  0  0  0  0
   36.7100   21.2300   33.2140 N   0  0  0  0  0  0  0  0  0  0  0  0
   40.5890   22.0350   35.2000 C   0  0  0  0  0  0  0  0  0  0  0  0
   40.1340   22.5700   36.4520 C   0  0  0  0  0  0  0  0  0  0  0  0
   38.8220   22.9690   36.5560 C   0  0  0  0  0  0  0  0  0  0  0  0
   38.0040   22.8430   35.4680 N   0  0  0  0  0  0  0  0  0  0  0  0
   38.4950   22.3250   34.2990 C   0  0  0  0  0  0  0  0  0  0  0  0
   39.7490   21.9240   34.1410 N   0  0  0  0  0  0  0  0  0  0  0  0
   38.2410   23.5360   37.7980 C   0  0  0  0  0  0  0  0  0  0  0  0
   37.8660   24.9990   37.6130 C   0  0  0  0  0  0  0  0  0  0  0  0
   39.2680   23.4750   38.9160 C   0  0  0  0  0  0  0  0  0  0  0  0
   37.0210   22.7940   38.2670 C   0  0  0  0  0  0  0  0  0  0  0  0
   33.9999   20.0222   32.8569 H   0  0  0  0  0  0  0  0  0  0  0  0
   34.3842   20.2408   31.0821 H   0  0  0  0  0  0  0  0  0  0  0  0
   39.6831   20.4434   29.0156 H   0  0  0  0  0  0  0  0  0  0  0  0
   37.9963   19.6311   27.0795 H   0  0  0  0  0  0  0  0  0  0  0  0
   35.9800   18.3512   28.3552 H   0  0  0  0  0  0  0  0  0  0  0  0
   37.8448   24.2093   32.1450 H   0  0  0  0  0  0  0  0  0  0  0  0
   41.6350   21.7101   35.0980 H   0  0  0  0  0  0  0  0  0  0  0  0
   40.8188   22.6587   37.3083 H   0  0  0  0  0  0  0  0  0  0  0  0
   37.7443   25.4737   38.5978 H   0  0  0  0  0  0  0  0  0  0  0  0
   38.6613   25.5135   37.0537 H   0  0  0  0  0  0  0  0  0  0  0  0
   36.9213   25.0675   37.0537 H   0  0  0  0  0  0  0  0  0  0  0  0
   38.7540   23.5055   39.8881 H   0  0  0  0  0  0  0  0  0  0  0  0
   39.8435   22.5411   38.8347 H   0  0  0  0  0  0  0  0  0  0  0  0
   39.9500   24.3342   38.8347 H   0  0  0  0  0  0  0  0  0  0  0  0
   36.9999   22.7811   39.3667 H   0  0  0  0  0  0  0  0  0  0  0  0
   36.1184   23.2963   37.8888 H   0  0  0  0  0  0  0  0  0  0  0  0
   37.0518   21.7615   37.8888 H   0  0  0  0  0  0  0  0  0  0  0  0
  1 19  1  0
  2  1  1  0
  2  6  1  0
  3  4  2  0
  3  2  1  0
  4  5  1  0
  5  6  2  0
  5 12  1  0
  7  8  1  0
  7  3  1  0
  9  8  2  0
 10 11  2  0
 10  9  1  0
 11  7  1  0
 12 13  1  0
 12 14  1  0
 15 12  1  0
 16 25  1  0
 17 16  2  0
 18 17  1  0
 18 19  1  0
 19 20  2  0
 20 16  1  0
 21 22  2  0
 22 23  1  0
 23 27  1  0
 24 23  2  0
 25 24  1  0
 26 25  2  0
 26 21  1  0
 27 30  1  0
 27 29  1  0
 28 27  1  0
  1 31  1  0
  1 32  1  0
  9 33  1  0
 10 34  1  0
 11 35  1  0
 17 36  1  0
 21 37  1  0
 22 38  1  0
 28 39  1  0
 28 40  1  0
 28 41  1  0
 29 42  1  0
 29 43  1  0
 29 44  1  0
 30 45  1  0
 30 46  1  0
 30 47  1  0
M  ISO  8  31   8  32   8  33  14  34  14  35  14  36  14  37  14  38  14
M  ISO  8  39   8  40   8  41   8  42   8  43   8  44   8  45   8  46   8
M  ISO  1  47   8
M  END
>  <minimizedAffinity>  (1) 
-5.18172359

>  <minimizedRMSD>  (1) 
1.29754865

$$$$
