
     RDKit          3D

 42 44  0  0  1  0  0  0  0  0999 V2000
   35.9000   28.7200   32.7930 C   0  0  0  0  0  0  0  0  0  0  0  0
   35.7450   27.9220   31.6900 C   0  0  0  0  0  0  0  0  0  0  0  0
   36.2510   26.6250   31.7360 C   0  0  0  0  0  0  0  0  0  0  0  0
   36.8920   26.1620   32.8720 C   0  0  0  0  0  0  0  0  0  0  0  0
   37.0480   26.9540   33.9790 C   0  0  0  0  0  0  0  0  0  0  0  0
   36.5520   28.2390   33.9450 C   0  0  0  0  0  0  0  0  0  0  0  0
   37.3690   24.7650   32.7230 C   0  0  0  0  0  0  0  0  0  0  0  0
   37.1630   24.1990   31.3510 C   0  0  2  0  0  0  0  0  0  0  0  0
   36.9880   20.5850   30.7610 C   0  0  0  0  0  0  0  0  0  0  0  0
   35.7530   20.2120   31.3760 C   0  0  0  0  0  0  0  0  0  0  0  0
   34.9920   21.2210   31.9880 C   0  0  0  0  0  0  0  0  0  0  0  0
   35.4860   22.5040   31.9590 N   0  0  0  0  0  0  0  0  0  0  0  0
   36.6480   22.8180   31.3730 C   0  0  0  0  0  0  0  0  0  0  0  0
   37.4080   21.8690   30.7720 N   0  0  0  0  0  0  0  0  0  0  0  0
   38.5100   24.1890   30.6370 C   0  0  0  0  0  0  0  0  0  0  0  0
   35.2560   30.3440   32.7630 S   0  0  0  0  0  0  0  0  0  0  0  0
   33.9680   30.2980   31.9310 O   0  0  0  0  0  0  0  0  0  0  0  0
   36.2040   31.2860   32.1070 O   0  0  0  0  0  0  0  0  0  0  0  0
   34.8690   30.8860   34.3780 C   0  0  0  0  0  0  0  0  0  0  0  0
   33.6130   30.5840   34.8640 C   0  0  0  0  0  0  0  0  0  0  0  0
   33.2950   31.0070   36.1390 C   0  0  0  0  0  0  0  0  0  0  0  0
   34.1480   31.7140   36.9680 C   0  0  0  0  0  0  0  0  0  0  0  0
   35.3740   31.9680   36.3980 C   0  0  0  0  0  0  0  0  0  0  0  0
   35.7830   31.5940   35.1510 C   0  0  0  0  0  0  0  0  0  0  0  0
   35.2338   28.2962   30.7907 H   0  0  0  0  0  0  0  0  0  0  0  0
   36.1404   25.9642   30.8636 H   0  0  0  0  0  0  0  0  0  0  0  0
   37.5582   26.5722   34.8756 H   0  0  0  0  0  0  0  0  0  0  0  0
   36.6659   28.8927   34.8223 H   0  0  0  0  0  0  0  0  0  0  0  0
   38.4449   24.7397   32.9507 H   0  0  0  0  0  0  0  0  0  0  0  0
   36.7775   24.1487   33.4161 H   0  0  0  0  0  0  0  0  0  0  0  0
   36.4185   24.8260   30.8386 H   0  0  0  0  0  0  0  0  0  0  0  0
   37.6048   19.8164   30.2722 H   0  0  0  0  0  0  0  0  0  0  0  0
   35.4093   19.1671   31.3701 H   0  0  0  0  0  0  0  0  0  0  0  0
   34.0323   20.9926   32.4746 H   0  0  0  0  0  0  0  0  0  0  0  0
   39.3196   24.1830   31.3816 H   0  0  0  0  0  0  0  0  0  0  0  0
   38.5845   23.2903   30.0071 H   0  0  0  0  0  0  0  0  0  0  0  0
   38.5978   25.0865   30.0071 H   0  0  0  0  0  0  0  0  0  0  0  0
   32.8883   30.0240   34.2547 H   0  0  0  0  0  0  0  0  0  0  0  0
   32.2930   30.7650   36.5230 H   0  0  0  0  0  0  0  0  0  0  0  0
   33.8731   32.0404   37.9819 H   0  0  0  0  0  0  0  0  0  0  0  0
   36.0970   32.5287   37.0086 H   0  0  0  0  0  0  0  0  0  0  0  0
   36.7870   31.8406   34.7754 H   0  0  0  0  0  0  0  0  0  0  0  0
  1  6  2  0
  2  3  2  0
  2  1  1  0
  3  4  1  0
  4  5  2  0
  6  5  1  0
  7  4  1  0
  8 13  1  0
  8  7  1  0
  9 14  2  0
  9 10  1  0
 10 11  2  0
 12 11  1  0
 13 12  2  0
 14 13  1  0
 15  8  1  0
 16  1  1  0
 16 19  1  0
 17 16  2  0
 18 16  2  0
 19 20  2  0
 19 24  1  0
 20 21  1  0
 21 22  2  0
 23 22  1  0
 24 23  2  0
  2 25  1  0
  3 26  1  0
  5 27  1  0
  6 28  1  0
  7 29  1  0
  7 30  1  0
  8 31  1  6
  9 32  1  0
 10 33  1  0
 11 34  1  0
 15 35  1  0
 15 36  1  0
 15 37  1  0
 20 38  1  0
 21 39  1  0
 22 40  1  0
 23 41  1  0
 24 42  1  0
M  ISO  8  25  14  26  14  27  14  28  14  29   8  30   8  31   8  32  14
M  ISO  8  33  14  34  14  35   8  36   8  37   8  38  14  39  14  40  14
M  ISO  2  41  14  42  14
M  END
>  <minimizedAffinity>  (1) 
-5.39563084

>  <minimizedRMSD>  (1) 
5.26688957

$$$$
