
     RDKit          3D

 46 50  0  0  1  0  0  0  0  0999 V2000
   38.1880   25.2920   34.0720 N   0  0  0  0  0  0  0  0  0  0  0  0
   39.5170   25.8400   33.8240 C   0  0  0  0  0  0  0  0  0  0  0  0
   39.9240   26.4730   35.1570 C   0  0  0  0  0  0  0  0  0  0  0  0
   38.5820   26.8680   35.8030 C   0  0  0  0  0  0  0  0  0  0  0  0
   37.5840   26.4010   34.8000 C   0  0  1  0  0  0  0  0  0  0  0  0
   37.0420   27.3950   33.9460 N   0  0  0  0  0  0  0  0  0  0  0  0
   36.2080   28.3620   34.3790 C   0  0  0  0  0  0  0  0  0  0  0  0
   35.8750   29.1420   33.3360 N   0  0  0  0  0  0  0  0  0  0  0  0
   36.5110   28.6490   32.2570 C   0  0  0  0  0  0  0  0  0  0  0  0
   36.5190   29.0680   30.9250 C   0  0  0  0  0  0  0  0  0  0  0  0
   35.8410   30.0710   30.6110 O   0  0  0  0  0  0  0  0  0  0  0  0
   37.2610   28.3620   30.0710 N   0  0  0  0  0  0  0  0  0  0  0  0
   37.9920   27.2840   30.4050 C   0  0  0  0  0  0  0  0  0  0  0  0
   38.7200   26.6530   29.3710 N   0  0  0  0  0  0  0  0  0  0  0  0
   37.9570   26.9100   31.7020 N   0  0  0  0  0  0  0  0  0  0  0  0
   37.2520   27.5450   32.6310 C   0  0  0  0  0  0  0  0  0  0  0  0
   37.7470   22.9310   34.5390 C   0  0  0  0  0  0  0  0  0  0  0  0
   37.3130   21.6720   34.1590 C   0  0  0  0  0  0  0  0  0  0  0  0
   36.8540   21.4640   32.8770 C   0  0  0  0  0  0  0  0  0  0  0  0
   36.8340   22.5160   31.9820 C   0  0  0  0  0  0  0  0  0  0  0  0
   37.2710   23.7560   32.3880 C   0  0  0  0  0  0  0  0  0  0  0  0
   37.7360   24.0030   33.6580 C   0  0  0  0  0  0  0  0  0  0  0  0
   40.0240   22.8700   37.4000 C   0  0  0  0  0  0  0  0  0  0  0  0
   39.2390   23.3390   38.4620 C   0  0  0  0  0  0  0  0  0  0  0  0
   37.9060   23.6800   38.1780 C   0  0  0  0  0  0  0  0  0  0  0  0
   37.4380   23.5440   36.9130 N   0  0  0  0  0  0  0  0  0  0  0  0
   38.2230   23.0890   35.9170 C   0  0  0  0  0  0  0  0  0  0  0  0
   39.5200   22.7530   36.1700 N   0  0  0  0  0  0  0  0  0  0  0  0
   40.2200   25.0426   33.5412 H   0  0  0  0  0  0  0  0  0  0  0  0
   39.5234   26.5651   32.9968 H   0  0  0  0  0  0  0  0  0  0  0  0
   40.4633   25.7492   35.7858 H   0  0  0  0  0  0  0  0  0  0  0  0
   40.6031   27.3291   35.0309 H   0  0  0  0  0  0  0  0  0  0  0  0
   38.4418   26.3594   36.7682 H   0  0  0  0  0  0  0  0  0  0  0  0
   38.5053   27.9423   36.0267 H   0  0  0  0  0  0  0  0  0  0  0  0
   36.6868   26.0770   35.3477 H   0  0  0  0  0  0  0  0  0  0  0  0
   35.8582   28.4912   35.4139 H   0  0  0  0  0  0  0  0  0  0  0  0
   37.2751   28.6637   29.0863 H   0  0  0  0  0  0  0  0  0  0  0  0
   39.2947   25.8236   29.5778 H   0  0  0  0  0  0  0  0  0  0  0  0
   38.6759   27.0225   28.4106 H   0  0  0  0  0  0  0  0  0  0  0  0
   37.3347   20.8405   34.8788 H   0  0  0  0  0  0  0  0  0  0  0  0
   36.5059   20.4673   32.5682 H   0  0  0  0  0  0  0  0  0  0  0  0
   36.4721   22.3639   30.9544 H   0  0  0  0  0  0  0  0  0  0  0  0
   37.2473   24.5851   31.6655 H   0  0  0  0  0  0  0  0  0  0  0  0
   41.0728   22.5938   37.5834 H   0  0  0  0  0  0  0  0  0  0  0  0
   39.6502   23.4363   39.4776 H   0  0  0  0  0  0  0  0  0  0  0  0
   37.2474   24.0543   38.9756 H   0  0  0  0  0  0  0  0  0  0  0  0
  1  5  1  0
  2  1  1  0
  2  3  1  0
  3  4  1  0
  5  4  1  0
  6  7  1  0
  6  5  1  0
  8  7  2  0
  9 16  2  0
  9  8  1  0
 10  9  1  0
 11 10  2  0
 12 13  1  0
 12 10  1  0
 13 15  2  0
 14 13  1  0
 15 16  1  0
 16  6  1  0
 17 27  1  0
 18 17  2  0
 19 18  1  0
 20 21  1  0
 20 19  2  0
 21 22  2  0
 22  1  1  0
 22 17  1  0
 23 24  2  0
 25 24  1  0
 26 25  2  0
 27 28  2  0
 27 26  1  0
 28 23  1  0
  2 29  1  0
  2 30  1  0
  3 31  1  0
  3 32  1  0
  4 33  1  0
  4 34  1  0
  5 35  1  1
  7 36  1  0
 12 37  1  0
 14 38  1  0
 14 39  1  0
 18 40  1  0
 19 41  1  0
 20 42  1  0
 21 43  1  0
 23 44  1  0
 24 45  1  0
 25 46  1  0
M  ISO  8  29  13  30  13  31  13  32  13  33  13  34  13  35  13  36  14
M  ISO  8  37   9  40  14  41  14  42  14  43  14  44  14  45  14  46  14
M  END
>  <minimizedAffinity>  (1) 
-6.79600906

>  <minimizedRMSD>  (1) 
0.397826046

$$$$
