
     RDKit          3D

 46 50  0  0  1  0  0  0  0  0999 V2000
   38.3470   25.3960   33.9510 N   0  0  0  0  0  0  0  0  0  0  0  0
   39.7100   25.8360   33.7550 C   0  0  0  0  0  0  0  0  0  0  0  0
   40.1230   26.4530   35.0830 C   0  0  0  0  0  0  0  0  0  0  0  0
   38.7960   26.9430   35.6900 C   0  0  0  0  0  0  0  0  0  0  0  0
   37.7640   26.4910   34.6790 C   0  0  1  0  0  0  0  0  0  0  0  0
   37.7850   23.0450   34.3550 C   0  0  0  0  0  0  0  0  0  0  0  0
   37.2860   21.8150   33.9690 C   0  0  0  0  0  0  0  0  0  0  0  0
   36.7980   21.6560   32.6900 C   0  0  0  0  0  0  0  0  0  0  0  0
   36.8180   22.7310   31.8190 C   0  0  0  0  0  0  0  0  0  0  0  0
   37.3220   23.9360   32.2370 C   0  0  0  0  0  0  0  0  0  0  0  0
   37.8240   24.1570   33.5040 C   0  0  0  0  0  0  0  0  0  0  0  0
   40.0910   22.8190   37.2060 C   0  0  0  0  0  0  0  0  0  0  0  0
   39.3260   23.3000   38.2820 C   0  0  0  0  0  0  0  0  0  0  0  0
   38.0030   23.7040   38.0250 C   0  0  0  0  0  0  0  0  0  0  0  0
   37.5430   23.6090   36.7590 N   0  0  0  0  0  0  0  0  0  0  0  0
   38.2950   23.1460   35.7440 C   0  0  0  0  0  0  0  0  0  0  0  0
   39.5740   22.7490   35.9690 N   0  0  0  0  0  0  0  0  0  0  0  0
   37.0660   27.5120   33.9500 C   0  0  0  0  0  0  0  0  0  0  0  0
   36.0780   28.3880   34.3580 C   0  0  0  0  0  0  0  0  0  0  0  0
   35.6960   29.1800   33.3680 N   0  0  0  0  0  0  0  0  0  0  0  0
   36.3930   28.8770   32.2790 C   0  0  0  0  0  0  0  0  0  0  0  0
   36.4530   29.3240   30.9850 C   0  0  0  0  0  0  0  0  0  0  0  0
   37.2990   28.8200   30.0130 C   0  0  0  0  0  0  0  0  0  0  0  0
   38.1490   27.7900   30.3610 C   0  0  0  0  0  0  0  0  0  0  0  0
   38.1060   27.3210   31.6640 C   0  0  0  0  0  0  0  0  0  0  0  0
   37.2360   27.8650   32.6010 C   0  0  0  0  0  0  0  0  0  0  0  0
   40.3591   24.9832   33.5071 H   0  0  0  0  0  0  0  0  0  0  0  0
   39.7963   26.5514   32.9239 H   0  0  0  0  0  0  0  0  0  0  0  0
   40.5975   25.7029   35.7327 H   0  0  0  0  0  0  0  0  0  0  0  0
   40.8604   27.2607   34.9653 H   0  0  0  0  0  0  0  0  0  0  0  0
   38.6162   26.4792   36.6711 H   0  0  0  0  0  0  0  0  0  0  0  0
   38.7783   28.0284   35.8680 H   0  0  0  0  0  0  0  0  0  0  0  0
   36.8667   26.1199   35.1958 H   0  0  0  0  0  0  0  0  0  0  0  0
   37.2785   20.9718   34.6754 H   0  0  0  0  0  0  0  0  0  0  0  0
   36.3968   20.6847   32.3650 H   0  0  0  0  0  0  0  0  0  0  0  0
   36.4312   22.6195   30.7953 H   0  0  0  0  0  0  0  0  0  0  0  0
   37.3265   24.7729   31.5232 H   0  0  0  0  0  0  0  0  0  0  0  0
   41.1279   22.4953   37.3796 H   0  0  0  0  0  0  0  0  0  0  0  0
   39.7491   23.3590   39.2957 H   0  0  0  0  0  0  0  0  0  0  0  0
   37.3615   24.0864   38.8326 H   0  0  0  0  0  0  0  0  0  0  0  0
   35.6619   28.4229   35.3757 H   0  0  0  0  0  0  0  0  0  0  0  0
   34.9749   29.9126   33.4322 H   0  0  0  0  0  0  0  0  0  0  0  0
   35.7787   30.1442   30.6977 H   0  0  0  0  0  0  0  0  0  0  0  0
   37.2942   29.2288   28.9918 H   0  0  0  0  0  0  0  0  0  0  0  0
   38.8407   27.3540   29.6252 H   0  0  0  0  0  0  0  0  0  0  0  0
   38.7748   26.5005   31.9631 H   0  0  0  0  0  0  0  0  0  0  0  0
  1  5  1  0
  2  1  1  0
  2  3  1  0
  3  4  1  0
  5  4  1  0
  6 16  1  0
  7  6  2  0
  8  7  1  0
  9 10  1  0
  9  8  2  0
 10 11  2  0
 11  1  1  0
 11  6  1  0
 12 13  2  0
 14 13  1  0
 15 14  2  0
 16 17  2  0
 16 15  1  0
 17 12  1  0
 18 19  2  0
 18  5  1  0
 20 19  1  0
 21 26  2  0
 21 20  1  0
 22 21  1  0
 23 24  1  0
 23 22  2  0
 24 25  2  0
 25 26  1  0
 26 18  1  0
  2 27  1  0
  2 28  1  0
  3 29  1  0
  3 30  1  0
  4 31  1  0
  4 32  1  0
  5 33  1  1
  7 34  1  0
  8 35  1  0
  9 36  1  0
 10 37  1  0
 12 38  1  0
 13 39  1  0
 14 40  1  0
 19 41  1  0
 20 42  1  0
 22 43  1  0
 23 44  1  0
 24 45  1  0
 25 46  1  0
M  ISO  8  27  13  28  13  29  13  30  13  31  13  32  13  33  13  34  14
M  ISO  8  35  14  36  14  37  14  38  14  39  14  40  14  41  14  42   9
M  ISO  4  43  14  44  14  45  14  46  14
M  END
>  <minimizedAffinity>  (1) 
-6.61325312

>  <minimizedRMSD>  (1) 
1.57337451

$$$$
