
     RDKit          3D

 32 34  0  0  0  0  0  0  0  0999 V2000
   37.7680   23.0140   34.3350 C   0  0  0  0  0  0  0  0  0  0  0  0
   37.3940   21.7670   33.8780 C   0  0  0  0  0  0  0  0  0  0  0  0
   36.9100   21.6400   32.5850 C   0  0  0  0  0  0  0  0  0  0  0  0
   36.8090   22.7640   31.7730 C   0  0  0  0  0  0  0  0  0  0  0  0
   37.1900   23.9830   32.2680 C   0  0  0  0  0  0  0  0  0  0  0  0
   37.6780   24.1570   33.5490 C   0  0  0  0  0  0  0  0  0  0  0  0
   40.1030   22.8540   37.1550 C   0  0  0  0  0  0  0  0  0  0  0  0
   39.3130   23.2030   38.2580 C   0  0  0  0  0  0  0  0  0  0  0  0
   37.9600   23.4970   38.0250 C   0  0  0  0  0  0  0  0  0  0  0  0
   37.4780   23.4320   36.7600 N   0  0  0  0  0  0  0  0  0  0  0  0
   38.2750   23.0900   35.7170 C   0  0  0  0  0  0  0  0  0  0  0  0
   39.5830   22.8040   35.9240 N   0  0  0  0  0  0  0  0  0  0  0  0
   38.0720   25.4310   34.0530 N   0  0  0  0  0  0  0  0  0  0  0  0
   39.3950   26.0430   33.8680 C   0  0  0  0  0  0  0  0  0  0  0  0
   39.7510   26.5940   35.2450 C   0  0  0  0  0  0  0  0  0  0  0  0
   38.3990   26.9040   35.8940 C   0  0  0  0  0  0  0  0  0  0  0  0
   37.4100   26.4600   34.8280 C   0  0  0  0  0  0  0  0  0  0  0  0
   37.4787   20.8856   34.5306 H   0  0  0  0  0  0  0  0  0  0  0  0
   36.6071   20.6539   32.2031 H   0  0  0  0  0  0  0  0  0  0  0  0
   36.4276   22.6754   30.7451 H   0  0  0  0  0  0  0  0  0  0  0  0
   37.1035   24.8643   31.6155 H   0  0  0  0  0  0  0  0  0  0  0  0
   41.1669   22.6176   37.3037 H   0  0  0  0  0  0  0  0  0  0  0  0
   39.7380   23.2452   39.2717 H   0  0  0  0  0  0  0  0  0  0  0  0
   37.2994   23.7766   38.8589 H   0  0  0  0  0  0  0  0  0  0  0  0
   40.1308   25.2910   33.5470 H   0  0  0  0  0  0  0  0  0  0  0  0
   39.3929   26.8219   33.0913 H   0  0  0  0  0  0  0  0  0  0  0  0
   40.3022   25.8453   35.8330 H   0  0  0  0  0  0  0  0  0  0  0  0
   40.4003   27.4800   35.1864 H   0  0  0  0  0  0  0  0  0  0  0  0
   38.2643   26.3318   36.8237 H   0  0  0  0  0  0  0  0  0  0  0  0
   38.2848   27.9587   36.1848 H   0  0  0  0  0  0  0  0  0  0  0  0
   37.1420   27.3088   34.1816 H   0  0  0  0  0  0  0  0  0  0  0  0
   36.4821   26.0807   35.2808 H   0  0  0  0  0  0  0  0  0  0  0  0
  1 11  1  0
  2  1  2  0
  3  2  1  0
  4  5  1  0
  4  3  2  0
  5  6  2  0
  6 13  1  0
  6  1  1  0
  7  8  2  0
  9  8  1  0
 10  9  2  0
 11 12  2  0
 11 10  1  0
 12  7  1  0
 13 17  1  0
 14 13  1  0
 14 15  1  0
 15 16  1  0
 17 16  1  0
  2 18  1  0
  3 19  1  0
  4 20  1  0
  5 21  1  0
  7 22  1  0
  8 23  1  0
  9 24  1  0
 14 25  1  0
 14 26  1  0
 15 27  1  0
 15 28  1  0
 16 29  1  0
 16 30  1  0
 17 31  1  0
 17 32  1  0
M  ISO  8  18  14  19  14  20  14  21  14  22  14  23  14  24  14  25  13
M  ISO  7  26  13  27  13  28  13  29  13  30  13  31  13  32  13
M  END
>  <minimizedAffinity>  (1) 
-4.63512897

>  <minimizedRMSD>  (1) 
2.31630778

$$$$
