
     RDKit          3D

 43 47  0  0  1  0  0  0  0  0999 V2000
   38.1600   25.3940   33.9490 N   0  0  0  0  0  0  0  0  0  0  0  0
   39.5090   25.9390   33.7590 C   0  0  0  0  0  0  0  0  0  0  0  0
   39.8590   26.5220   35.1200 C   0  0  0  0  0  0  0  0  0  0  0  0
   38.5050   26.9130   35.7330 C   0  0  0  0  0  0  0  0  0  0  0  0
   37.5140   26.4490   34.6880 C   0  0  1  0  0  0  0  0  0  0  0  0
   37.7580   22.9920   34.3010 C   0  0  0  0  0  0  0  0  0  0  0  0
   37.3380   21.7480   33.8780 C   0  0  0  0  0  0  0  0  0  0  0  0
   36.8600   21.5970   32.5930 C   0  0  0  0  0  0  0  0  0  0  0  0
   36.8070   22.6950   31.7450 C   0  0  0  0  0  0  0  0  0  0  0  0
   37.2330   23.9160   32.2030 C   0  0  0  0  0  0  0  0  0  0  0  0
   37.7170   24.1180   33.4710 C   0  0  0  0  0  0  0  0  0  0  0  0
   40.0760   22.8600   37.1360 C   0  0  0  0  0  0  0  0  0  0  0  0
   39.2960   23.2440   38.2230 C   0  0  0  0  0  0  0  0  0  0  0  0
   37.9540   23.5530   37.9760 C   0  0  0  0  0  0  0  0  0  0  0  0
   37.4810   23.4650   36.7110 N   0  0  0  0  0  0  0  0  0  0  0  0
   38.2550   23.0910   35.6760 C   0  0  0  0  0  0  0  0  0  0  0  0
   39.5590   22.7910   35.9080 N   0  0  0  0  0  0  0  0  0  0  0  0
   36.9550   27.4910   33.9010 N   0  0  0  0  0  0  0  0  0  0  0  0
   36.1610   28.4500   34.4110 C   0  0  0  0  0  0  0  0  0  0  0  0
   35.7870   29.2920   33.4320 N   0  0  0  0  0  0  0  0  0  0  0  0
   36.3360   28.8840   32.2790 C   0  0  0  0  0  0  0  0  0  0  0  0
   36.2400   29.4240   31.0140 C   0  0  0  0  0  0  0  0  0  0  0  0
   36.9230   28.7680   30.0530 N   0  0  0  0  0  0  0  0  0  0  0  0
   37.6440   27.6520   30.3520 C   0  0  0  0  0  0  0  0  0  0  0  0
   37.7260   27.1350   31.6080 N   0  0  0  0  0  0  0  0  0  0  0  0
   37.0610   27.7550   32.6060 C   0  0  0  0  0  0  0  0  0  0  0  0
   40.2168   25.1449   33.4789 H   0  0  0  0  0  0  0  0  0  0  0  0
   39.5572   26.6843   32.9514 H   0  0  0  0  0  0  0  0  0  0  0  0
   40.3664   25.7723   35.7449 H   0  0  0  0  0  0  0  0  0  0  0  0
   40.5455   27.3781   35.0435 H   0  0  0  0  0  0  0  0  0  0  0  0
   38.3406   26.3975   36.6907 H   0  0  0  0  0  0  0  0  0  0  0  0
   38.4252   27.9861   35.9611 H   0  0  0  0  0  0  0  0  0  0  0  0
   36.6066   26.0551   35.1691 H   0  0  0  0  0  0  0  0  0  0  0  0
   37.3838   20.8851   34.5586 H   0  0  0  0  0  0  0  0  0  0  0  0
   36.5222   20.6109   32.2416 H   0  0  0  0  0  0  0  0  0  0  0  0
   36.4279   22.5872   30.7180 H   0  0  0  0  0  0  0  0  0  0  0  0
   37.1841   24.7764   31.5194 H   0  0  0  0  0  0  0  0  0  0  0  0
   41.1357   22.6094   37.2919 H   0  0  0  0  0  0  0  0  0  0  0  0
   39.7184   23.3023   39.2370 H   0  0  0  0  0  0  0  0  0  0  0  0
   37.2926   23.8631   38.7984 H   0  0  0  0  0  0  0  0  0  0  0  0
   35.8636   28.5324   35.4668 H   0  0  0  0  0  0  0  0  0  0  0  0
   35.6479   30.3267   30.8030 H   0  0  0  0  0  0  0  0  0  0  0  0
   38.1855   27.1447   29.5400 H   0  0  0  0  0  0  0  0  0  0  0  0
  1  5  1  0
  2  1  1  0
  2  3  1  0
  3  4  1  0
  5  4  1  0
  6 16  1  0
  7  6  2  0
  8  7  1  0
  9 10  1  0
  9  8  2  0
 10 11  2  0
 11  1  1  0
 11  6  1  0
 12 13  2  0
 14 13  1  0
 15 14  2  0
 16 17  2  0
 16 15  1  0
 17 12  1  0
 18 19  1  0
 18  5  1  0
 20 19  2  0
 21 26  2  0
 21 20  1  0
 22 21  1  0
 23 24  1  0
 23 22  2  0
 24 25  2  0
 25 26  1  0
 26 18  1  0
  2 27  1  0
  2 28  1  0
  3 29  1  0
  3 30  1  0
  4 31  1  0
  4 32  1  0
  5 33  1  1
  7 34  1  0
  8 35  1  0
  9 36  1  0
 10 37  1  0
 12 38  1  0
 13 39  1  0
 14 40  1  0
 19 41  1  0
 22 42  1  0
 24 43  1  0
M  ISO  8  27  13  28  13  29  13  30  13  31  13  32  13  33  13  34  14
M  ISO  8  35  14  36  14  37  14  38  14  39  14  40  14  41  14  42  14
M  ISO  1  43  14
M  END
>  <minimizedAffinity>  (1) 
-6.29813719

>  <minimizedRMSD>  (1) 
0.342911422

$$$$
