
     RDKit          3D

 42 45  0  0  1  0  0  0  0  0999 V2000
   38.1660   25.4210   34.0730 N   0  0  0  0  0  0  0  0  0  0  0  0
   39.4950   26.0530   33.9630 C   0  0  0  0  0  0  0  0  0  0  0  0
   39.7840   26.6120   35.3380 C   0  0  0  0  0  0  0  0  0  0  0  0
   38.3890   26.8970   35.9240 C   0  0  0  0  0  0  0  0  0  0  0  0
   37.4790   26.4640   34.8070 C   0  0  1  0  0  0  0  0  0  0  0  0
   37.8750   23.0080   34.3550 C   0  0  0  0  0  0  0  0  0  0  0  0
   37.5420   21.7610   33.8760 C   0  0  0  0  0  0  0  0  0  0  0  0
   37.1440   21.6220   32.5640 C   0  0  0  0  0  0  0  0  0  0  0  0
   37.0860   22.7340   31.7430 C   0  0  0  0  0  0  0  0  0  0  0  0
   37.4230   23.9420   32.2600 C   0  0  0  0  0  0  0  0  0  0  0  0
   37.8250   24.1490   33.5540 C   0  0  0  0  0  0  0  0  0  0  0  0
   40.0550   22.8700   37.2980 C   0  0  0  0  0  0  0  0  0  0  0  0
   39.2220   23.2280   38.3520 C   0  0  0  0  0  0  0  0  0  0  0  0
   37.8840   23.5230   38.0490 C   0  0  0  0  0  0  0  0  0  0  0  0
   37.4600   23.4480   36.7610 N   0  0  0  0  0  0  0  0  0  0  0  0
   38.2990   23.0970   35.7690 C   0  0  0  0  0  0  0  0  0  0  0  0
   39.6050   22.8060   36.0430 N   0  0  0  0  0  0  0  0  0  0  0  0
   36.9390   27.5410   33.9810 C   0  0  0  0  0  0  0  0  0  0  0  0
   36.1370   28.5820   34.3760 C   0  0  0  0  0  0  0  0  0  0  0  0
   35.6330   29.5720   33.5620 C   0  0  0  0  0  0  0  0  0  0  0  0
   35.9440   29.5390   32.2180 C   0  0  0  0  0  0  0  0  0  0  0  0
   36.7580   28.4970   31.7650 C   0  0  0  0  0  0  0  0  0  0  0  0
   37.2260   27.5440   32.6350 C   0  0  0  0  0  0  0  0  0  0  0  0
   40.2542   25.3081   33.6822 H   0  0  0  0  0  0  0  0  0  0  0  0
   39.5155   26.8345   33.1891 H   0  0  0  0  0  0  0  0  0  0  0  0
   40.3241   25.8774   35.9533 H   0  0  0  0  0  0  0  0  0  0  0  0
   40.4212   27.5081   35.3058 H   0  0  0  0  0  0  0  0  0  0  0  0
   38.2110   26.3064   36.8348 H   0  0  0  0  0  0  0  0  0  0  0  0
   38.2446   27.9437   36.2299 H   0  0  0  0  0  0  0  0  0  0  0  0
   36.5496   26.0643   35.2389 H   0  0  0  0  0  0  0  0  0  0  0  0
   37.5932   20.8822   34.5356 H   0  0  0  0  0  0  0  0  0  0  0  0
   36.8735   20.6308   32.1711 H   0  0  0  0  0  0  0  0  0  0  0  0
   36.7731   22.6405   30.6926 H   0  0  0  0  0  0  0  0  0  0  0  0
   37.3700   24.8163   31.5945 H   0  0  0  0  0  0  0  0  0  0  0  0
   41.1096   22.6340   37.5031 H   0  0  0  0  0  0  0  0  0  0  0  0
   39.5977   23.2781   39.3846 H   0  0  0  0  0  0  0  0  0  0  0  0
   37.1849   23.8124   38.8475 H   0  0  0  0  0  0  0  0  0  0  0  0
   35.8719   28.6303   35.4425 H   0  0  0  0  0  0  0  0  0  0  0  0
   34.9976   30.3701   33.9735 H   0  0  0  0  0  0  0  0  0  0  0  0
   35.5644   30.3062   31.5271 H   0  0  0  0  0  0  0  0  0  0  0  0
   37.0265   28.4400   30.6998 H   0  0  0  0  0  0  0  0  0  0  0  0
   37.8633   26.7412   32.2358 H   0  0  0  0  0  0  0  0  0  0  0  0
  1  5  1  0
  2  1  1  0
  2  3  1  0
  3  4  1  0
  5  4  1  0
  6 16  1  0
  7  6  2  0
  8  7  1  0
  9 10  1  0
  9  8  2  0
 10 11  2  0
 11  1  1  0
 11  6  1  0
 12 13  2  0
 14 13  1  0
 15 14  2  0
 16 17  2  0
 16 15  1  0
 17 12  1  0
 18 19  2  0
 18  5  1  0
 20 19  1  0
 21 20  2  0
 22 21  1  0
 22 23  2  0
 23 18  1  0
  2 24  1  0
  2 25  1  0
  3 26  1  0
  3 27  1  0
  4 28  1  0
  4 29  1  0
  5 30  1  1
  7 31  1  0
  8 32  1  0
  9 33  1  0
 10 34  1  0
 12 35  1  0
 13 36  1  0
 14 37  1  0
 19 38  1  0
 20 39  1  0
 21 40  1  0
 22 41  1  0
 23 42  1  0
M  ISO  8  24  13  25  13  26  13  27  13  28  13  29  13  30  13  31  14
M  ISO  8  32  14  33  14  34  14  35  14  36  14  37  14  38  14  39  14
M  ISO  3  40  14  41  14  42  14
M  END
>  <minimizedAffinity>  (1) 
-6.20242453

>  <minimizedRMSD>  (1) 
0.379472077

$$$$
