
     RDKit          3D

 45 48  0  0  1  0  0  0  0  0999 V2000
   37.9250   23.0680   34.3500 C   0  0  0  0  0  0  0  0  0  0  0  0
   37.6170   21.8150   33.8690 C   0  0  0  0  0  0  0  0  0  0  0  0
   37.2680   21.6710   32.5360 C   0  0  0  0  0  0  0  0  0  0  0  0
   37.2360   22.7860   31.7110 C   0  0  0  0  0  0  0  0  0  0  0  0
   37.5470   24.0040   32.2290 C   0  0  0  0  0  0  0  0  0  0  0  0
   37.8990   24.2090   33.5380 C   0  0  0  0  0  0  0  0  0  0  0  0
   38.2250   25.4860   34.0760 N   0  0  0  0  0  0  0  0  0  0  0  0
   39.5980   26.0140   34.2230 C   0  0  0  0  0  0  0  0  0  0  0  0
   39.6200   26.6330   35.6120 C   0  0  0  0  0  0  0  0  0  0  0  0
   38.1730   27.0670   35.8490 C   0  0  0  0  0  0  0  0  0  0  0  0
   37.4760   26.5950   34.6040 C   0  0  1  0  0  0  0  0  0  0  0  0
   37.2010   27.6870   33.6220 C   0  0  0  0  0  0  0  0  0  0  0  0
   36.4340   27.1240   32.4580 C   0  0  0  0  0  0  0  0  0  0  0  0
   35.2940   28.0730   32.1840 C   0  0  0  0  0  0  0  0  0  0  0  0
   35.2920   29.1200   33.2690 C   0  0  0  0  0  0  0  0  0  0  0  0
   36.3400   28.7200   34.2750 C   0  0  0  0  0  0  0  0  0  0  0  0
   39.9560   22.8330   37.3910 C   0  0  0  0  0  0  0  0  0  0  0  0
   39.0970   23.3010   38.3980 C   0  0  0  0  0  0  0  0  0  0  0  0
   37.8040   23.6990   38.0200 C   0  0  0  0  0  0  0  0  0  0  0  0
   37.4390   23.6200   36.7160 N   0  0  0  0  0  0  0  0  0  0  0  0
   38.2880   23.1670   35.7730 C   0  0  0  0  0  0  0  0  0  0  0  0
   39.5470   22.7750   36.1230 N   0  0  0  0  0  0  0  0  0  0  0  0
   37.6477   20.9397   34.5345 H   0  0  0  0  0  0  0  0  0  0  0  0
   37.0177   20.6782   32.1340 H   0  0  0  0  0  0  0  0  0  0  0  0
   36.9622   22.6858   30.6503 H   0  0  0  0  0  0  0  0  0  0  0  0
   37.5143   24.8756   31.5588 H   0  0  0  0  0  0  0  0  0  0  0  0
   40.3370   25.2028   34.1469 H   0  0  0  0  0  0  0  0  0  0  0  0
   39.8539   26.7398   33.4370 H   0  0  0  0  0  0  0  0  0  0  0  0
   39.9344   25.8943   36.3639 H   0  0  0  0  0  0  0  0  0  0  0  0
   40.3302   27.4693   35.6906 H   0  0  0  0  0  0  0  0  0  0  0  0
   37.7557   26.5831   36.7444 H   0  0  0  0  0  0  0  0  0  0  0  0
   38.0656   28.1474   36.0254 H   0  0  0  0  0  0  0  0  0  0  0  0
   36.4621   26.2478   34.8521 H   0  0  0  0  0  0  0  0  0  0  0  0
   38.1524   28.1240   33.2847 H   0  0  0  0  0  0  0  0  0  0  0  0
   37.0860   27.0512   31.5751 H   0  0  0  0  0  0  0  0  0  0  0  0
   36.0601   26.1145   32.6842 H   0  0  0  0  0  0  0  0  0  0  0  0
   35.4333   28.5513   31.2033 H   0  0  0  0  0  0  0  0  0  0  0  0
   34.3374   27.5301   32.1735 H   0  0  0  0  0  0  0  0  0  0  0  0
   35.5346   30.1048   32.8431 H   0  0  0  0  0  0  0  0  0  0  0  0
   34.3018   29.1898   33.7429 H   0  0  0  0  0  0  0  0  0  0  0  0
   35.8616   28.3007   35.1724 H   0  0  0  0  0  0  0  0  0  0  0  0
   36.9376   29.5895   34.5861 H   0  0  0  0  0  0  0  0  0  0  0  0
   40.9755   22.5113   37.6502 H   0  0  0  0  0  0  0  0  0  0  0  0
   39.4251   23.3542   39.4466 H   0  0  0  0  0  0  0  0  0  0  0  0
   37.0946   24.0710   38.7739 H   0  0  0  0  0  0  0  0  0  0  0  0
  1 21  1  0
  2  1  2  0
  3  2  1  0
  4  5  1  0
  4  3  2  0
  5  6  2  0
  6  7  1  0
  6  1  1  0
  7  8  1  0
  7 11  1  0
  8  9  1  0
  9 10  1  0
 11 10  1  0
 12 16  1  0
 12 11  1  0
 13 12  1  0
 14 13  1  0
 14 15  1  0
 15 16  1  0
 17 18  2  0
 19 18  1  0
 20 19  2  0
 21 22  2  0
 21 20  1  0
 22 17  1  0
  2 23  1  0
  3 24  1  0
  4 25  1  0
  5 26  1  0
  8 27  1  0
  8 28  1  0
  9 29  1  0
  9 30  1  0
 10 31  1  0
 10 32  1  0
 11 33  1  1
 12 34  1  0
 13 35  1  0
 13 36  1  0
 14 37  1  0
 14 38  1  0
 15 39  1  0
 15 40  1  0
 16 41  1  0
 16 42  1  0
 17 43  1  0
 18 44  1  0
 19 45  1  0
M  ISO  8  23  14  24  14  25  14  26  14  27  13  28  13  29  13  30  13
M  ISO  8  31  13  32  13  33  13  34  13  35  13  36  13  37  13  38  13
M  ISO  7  39  13  40  13  41  13  42  13  43  14  44  14  45  14
M  END
>  <minimizedAffinity>  (1) 
-5.5620141

>  <minimizedRMSD>  (1) 
0.566868722

$$$$
