
     RDKit          3D

 37 40  0  0  1  0  0  0  0  0999 V2000
   37.8980   22.9750   34.3390 C   0  0  0  0  0  0  0  0  0  0  0  0
   37.6150   21.7140   33.8600 C   0  0  0  0  0  0  0  0  0  0  0  0
   37.2190   21.5710   32.5430 C   0  0  0  0  0  0  0  0  0  0  0  0
   37.1130   22.6980   31.7280 C   0  0  0  0  0  0  0  0  0  0  0  0
   37.4040   23.9290   32.2500 C   0  0  0  0  0  0  0  0  0  0  0  0
   37.8020   24.1230   33.5490 C   0  0  0  0  0  0  0  0  0  0  0  0
   38.1040   25.4130   34.0870 N   0  0  0  0  0  0  0  0  0  0  0  0
   39.3980   26.1050   33.9000 C   0  0  0  0  0  0  0  0  0  0  0  0
   39.7130   26.6620   35.2820 C   0  0  0  0  0  0  0  0  0  0  0  0
   38.3400   26.8750   35.9340 C   0  0  0  0  0  0  0  0  0  0  0  0
   37.3800   26.3660   34.8820 C   0  0  1  0  0  0  0  0  0  0  0  0
   36.7450   27.4470   34.1230 C   0  0  0  0  0  0  0  0  0  0  0  0
   36.4740   27.3770   32.8070 N   0  0  0  0  0  0  0  0  0  0  0  0
   35.9140   28.4680   32.3980 O   0  0  0  0  0  0  0  0  0  0  0  0
   35.8000   29.2830   33.4260 C   0  0  0  0  0  0  0  0  0  0  0  0
   36.3170   28.6610   34.5260 N   0  0  0  0  0  0  0  0  0  0  0  0
   40.0740   22.9150   37.2930 C   0  0  0  0  0  0  0  0  0  0  0  0
   39.2030   23.2270   38.3530 C   0  0  0  0  0  0  0  0  0  0  0  0
   37.8580   23.4560   38.0390 C   0  0  0  0  0  0  0  0  0  0  0  0
   37.4550   23.3720   36.7450 N   0  0  0  0  0  0  0  0  0  0  0  0
   38.3160   23.0710   35.7500 C   0  0  0  0  0  0  0  0  0  0  0  0
   39.6270   22.8440   36.0380 N   0  0  0  0  0  0  0  0  0  0  0  0
   37.7028   20.8349   34.5154 H   0  0  0  0  0  0  0  0  0  0  0  0
   36.9888   20.5737   32.1401 H   0  0  0  0  0  0  0  0  0  0  0  0
   36.7993   22.5984   30.6784 H   0  0  0  0  0  0  0  0  0  0  0  0
   37.3143   24.8081   31.5949 H   0  0  0  0  0  0  0  0  0  0  0  0
   40.1767   25.3994   33.5747 H   0  0  0  0  0  0  0  0  0  0  0  0
   39.3561   26.8851   33.1256 H   0  0  0  0  0  0  0  0  0  0  0  0
   40.3119   25.9450   35.8627 H   0  0  0  0  0  0  0  0  0  0  0  0
   40.3013   27.5902   35.2342 H   0  0  0  0  0  0  0  0  0  0  0  0
   38.2502   26.2953   36.8645 H   0  0  0  0  0  0  0  0  0  0  0  0
   38.1541   27.9207   36.2203 H   0  0  0  0  0  0  0  0  0  0  0  0
   36.5165   25.8630   35.3418 H   0  0  0  0  0  0  0  0  0  0  0  0
   35.3630   30.2922   33.4025 H   0  0  0  0  0  0  0  0  0  0  0  0
   41.1375   22.7271   37.5018 H   0  0  0  0  0  0  0  0  0  0  0  0
   39.5653   23.2887   39.3898 H   0  0  0  0  0  0  0  0  0  0  0  0
   37.1358   23.7012   38.8316 H   0  0  0  0  0  0  0  0  0  0  0  0
  1 21  1  0
  2  1  2  0
  3  2  1  0
  4  5  1  0
  4  3  2  0
  5  6  2  0
  6  7  1  0
  6  1  1  0
  7 11  1  0
  8  7  1  0
  8  9  1  0
  9 10  1  0
 11 10  1  0
 12 16  1  0
 12 11  1  0
 13 12  2  0
 14 13  1  0
 14 15  1  0
 15 16  2  0
 17 18  2  0
 19 18  1  0
 20 19  2  0
 21 22  2  0
 21 20  1  0
 22 17  1  0
  2 23  1  0
  3 24  1  0
  4 25  1  0
  5 26  1  0
  8 27  1  0
  8 28  1  0
  9 29  1  0
  9 30  1  0
 10 31  1  0
 10 32  1  0
 11 33  1  1
 15 34  1  0
 17 35  1  0
 18 36  1  0
 19 37  1  0
M  ISO  8  23  14  24  14  25  14  26  14  27  13  28  13  29  13  30  13
M  ISO  7  31  13  32  13  33  13  34  14  35  14  36  14  37  14
M  END
>  <minimizedAffinity>  (1) 
-5.51838255

>  <minimizedRMSD>  (1) 
0.589397132

$$$$
