
     RDKit          3D

 44 46  0  0  1  0  0  0  0  0999 V2000
   37.4140   22.2540   34.8630 C   0  0  0  0  0  0  0  0  0  0  0  0
   36.6030   21.1320   34.8680 C   0  0  0  0  0  0  0  0  0  0  0  0
   36.0070   20.7270   33.6970 C   0  0  0  0  0  0  0  0  0  0  0  0
   36.2220   21.4390   32.5360 C   0  0  0  0  0  0  0  0  0  0  0  0
   37.0280   22.5390   32.5720 C   0  0  0  0  0  0  0  0  0  0  0  0
   37.6570   23.0040   33.7080 C   0  0  0  0  0  0  0  0  0  0  0  0
   38.4950   24.1460   33.7490 N   0  0  0  0  0  0  0  0  0  0  0  0
   39.8610   24.1920   33.2490 C   0  0  0  0  0  0  0  0  0  0  0  0
   40.6450   24.9360   34.3180 C   0  0  0  0  0  0  0  0  0  0  0  0
   39.6000   25.8540   34.9640 C   0  0  0  0  0  0  0  0  0  0  0  0
   38.3390   25.4900   34.2290 C   0  0  1  0  0  0  0  0  0  0  0  0
   37.8100   26.5150   33.3280 C   0  0  0  0  0  0  0  0  0  0  0  0
   37.0690   27.5790   34.1530 C   0  0  0  0  0  0  0  0  0  0  0  0
   38.7500   27.2590   32.4650 C   0  0  0  0  0  0  0  0  0  0  0  0
   36.7210   25.9320   32.4470 C   0  0  0  0  0  0  0  0  0  0  0  0
   39.9390   22.5700   37.5100 C   0  0  0  0  0  0  0  0  0  0  0  0
   39.2720   23.2930   38.5120 C   0  0  0  0  0  0  0  0  0  0  0  0
   37.9330   23.6740   38.2690 C   0  0  0  0  0  0  0  0  0  0  0  0
   37.3530   23.3330   37.0930 N   0  0  0  0  0  0  0  0  0  0  0  0
   38.0250   22.6380   36.1540 C   0  0  0  0  0  0  0  0  0  0  0  0
   39.3150   22.2610   36.3700 N   0  0  0  0  0  0  0  0  0  0  0  0
   36.4372   20.5703   35.7992 H   0  0  0  0  0  0  0  0  0  0  0  0
   35.3603   19.8372   33.6864 H   0  0  0  0  0  0  0  0  0  0  0  0
   35.7500   21.1243   31.5936 H   0  0  0  0  0  0  0  0  0  0  0  0
   37.1866   23.0911   31.6339 H   0  0  0  0  0  0  0  0  0  0  0  0
   40.2584   23.1751   33.1152 H   0  0  0  0  0  0  0  0  0  0  0  0
   39.9263   24.6866   32.2686 H   0  0  0  0  0  0  0  0  0  0  0  0
   41.0622   24.2359   35.0568 H   0  0  0  0  0  0  0  0  0  0  0  0
   41.5033   25.4893   33.9091 H   0  0  0  0  0  0  0  0  0  0  0  0
   39.5043   25.6498   36.0406 H   0  0  0  0  0  0  0  0  0  0  0  0
   39.8538   26.9219   34.8922 H   0  0  0  0  0  0  0  0  0  0  0  0
   37.4750   25.4810   34.9097 H   0  0  0  0  0  0  0  0  0  0  0  0
   37.2104   27.3760   35.2248 H   0  0  0  0  0  0  0  0  0  0  0  0
   37.4701   28.5746   33.9123 H   0  0  0  0  0  0  0  0  0  0  0  0
   35.9961   27.5480   33.9123 H   0  0  0  0  0  0  0  0  0  0  0  0
   39.4584   27.8197   33.0925 H   0  0  0  0  0  0  0  0  0  0  0  0
   39.3032   26.5514   31.8299 H   0  0  0  0  0  0  0  0  0  0  0  0
   38.1884   27.9599   31.8299 H   0  0  0  0  0  0  0  0  0  0  0  0
   35.9269   25.5069   33.0784 H   0  0  0  0  0  0  0  0  0  0  0  0
   36.2994   26.7250   31.8119 H   0  0  0  0  0  0  0  0  0  0  0  0
   37.1472   25.1414   31.8119 H   0  0  0  0  0  0  0  0  0  0  0  0
   40.9818   22.2561   37.6647 H   0  0  0  0  0  0  0  0  0  0  0  0
   39.7750   23.5541   39.4548 H   0  0  0  0  0  0  0  0  0  0  0  0
   37.3689   24.2401   39.0249 H   0  0  0  0  0  0  0  0  0  0  0  0
  1  2  2  0
  1 20  1  0
  3  2  1  0
  4  5  1  0
  4  3  2  0
  5  6  2  0
  6  7  1  0
  6  1  1  0
  7 11  1  0
  8  7  1  0
  8  9  1  0
  9 10  1  0
 11 10  1  0
 12 13  1  0
 12 11  1  0
 14 12  1  0
 15 12  1  0
 16 17  2  0
 18 17  1  0
 19 18  2  0
 20 21  2  0
 20 19  1  0
 21 16  1  0
  2 22  1  0
  3 23  1  0
  4 24  1  0
  5 25  1  0
  8 26  1  0
  8 27  1  0
  9 28  1  0
  9 29  1  0
 10 30  1  0
 10 31  1  0
 11 32  1  1
 13 33  1  0
 13 34  1  0
 13 35  1  0
 14 36  1  0
 14 37  1  0
 14 38  1  0
 15 39  1  0
 15 40  1  0
 15 41  1  0
 16 42  1  0
 17 43  1  0
 18 44  1  0
M  ISO  8  22  14  23  14  24  14  25  14  26  13  27  13  28  13  29  13
M  ISO  8  30  13  31  13  32  13  33   8  34   8  35   8  36   8  37   8
M  ISO  7  38   8  39   8  40   8  41   8  42  14  43  14  44  14
M  END
>  <minimizedAffinity>  (1) 
-5.17582893

>  <minimizedRMSD>  (1) 
1.46419287

$$$$
