
     RDKit          3D

 23 25  0  0  0  0  0  0  0  0999 V2000
   38.2770   24.5780   36.1930 C   0  0  0  0  0  0  0  0  0  0  0  0
   39.4410   23.7800   36.0910 C   0  0  0  0  0  0  0  0  0  0  0  0
   39.8070   23.0620   37.2200 C   0  0  0  0  0  0  0  0  0  0  0  0
   39.0380   23.1550   38.3700 N   0  0  0  0  0  0  0  0  0  0  0  0
   37.9510   23.9280   38.4000 C   0  0  0  0  0  0  0  0  0  0  0  0
   37.5620   24.6390   37.3280 N   0  0  0  0  0  0  0  0  0  0  0  0
   41.0070   22.2210   37.1560 C   0  0  0  0  0  0  0  0  0  0  0  0
   42.1180   22.5080   36.3430 C   0  0  0  0  0  0  0  0  0  0  0  0
   43.0000   21.4930   36.5760 N   0  0  0  0  0  0  0  0  0  0  0  0
   42.4180   20.6750   37.4730 C   0  0  0  0  0  0  0  0  0  0  0  0
   41.2190   21.0720   37.8510 N   0  0  0  0  0  0  0  0  0  0  0  0
   37.8410   25.3430   35.0750 N   0  0  0  0  0  0  0  0  0  0  0  0
   37.7690   25.1220   33.7540 C   0  0  0  0  0  0  0  0  0  0  0  0
   37.2640   26.2170   33.1320 N   0  0  0  0  0  0  0  0  0  0  0  0
   37.0200   27.1350   34.1070 C   0  0  0  0  0  0  0  0  0  0  0  0
   37.3840   26.5770   35.3000 N   0  0  0  0  0  0  0  0  0  0  0  0
   40.0272   23.7314   35.1615 H   0  0  0  0  0  0  0  0  0  0  0  0
   37.3585   23.9848   39.3251 H   0  0  0  0  0  0  0  0  0  0  0  0
   42.2480   23.3651   35.6659 H   0  0  0  0  0  0  0  0  0  0  0  0
   42.8976   19.7616   37.8545 H   0  0  0  0  0  0  0  0  0  0  0  0
   40.5854   20.6145   38.5220 H   0  0  0  0  0  0  0  0  0  0  0  0
   38.0736   24.1926   33.2505 H   0  0  0  0  0  0  0  0  0  0  0  0
   36.6050   28.1432   33.9610 H   0  0  0  0  0  0  0  0  0  0  0  0
  1  6  1  0
  2  1  2  0
  2  3  1  0
  3  4  2  0
  4  5  1  0
  6  5  2  0
  7  3  1  0
  7 11  1  0
  8  9  1  0
  8  7  2  0
  9 10  2  0
 10 11  1  0
 12 16  1  0
 12  1  1  0
 13 12  1  0
 14 13  2  0
 14 15  1  0
 15 16  2  0
  2 17  1  0
  5 18  1  0
  8 19  1  0
 10 20  1  0
 11 21  1  0
 13 22  1  0
 15 23  1  0
M  ISO  7  17  14  18  14  19  14  20  14  21   9  22  14  23  14
M  END
>  <minimizedAffinity>  (1) 
-4.68478298

>  <minimizedRMSD>  (1) 
7.00187969

$$$$
