
     RDKit          3D

 34 36  0  0  1  0  0  0  0  0999 V2000
   37.8820   22.9760   34.3390 C   0  0  0  0  0  0  0  0  0  0  0  0
   37.5610   21.7260   33.8670 C   0  0  0  0  0  0  0  0  0  0  0  0
   37.1490   21.5810   32.5590 C   0  0  0  0  0  0  0  0  0  0  0  0
   37.0620   22.6970   31.7350 C   0  0  0  0  0  0  0  0  0  0  0  0
   37.3890   23.9160   32.2400 C   0  0  0  0  0  0  0  0  0  0  0  0
   37.8100   24.1230   33.5480 C   0  0  0  0  0  0  0  0  0  0  0  0
   38.1490   25.4060   34.0630 N   0  0  0  0  0  0  0  0  0  0  0  0
   39.4790   26.0330   33.9370 C   0  0  0  0  0  0  0  0  0  0  0  0
   39.7350   26.6010   35.3330 C   0  0  0  0  0  0  0  0  0  0  0  0
   38.3450   26.9020   35.8950 C   0  0  0  0  0  0  0  0  0  0  0  0
   37.4280   26.4160   34.7890 C   0  0  1  0  0  0  0  0  0  0  0  0
   36.8930   27.4870   33.9410 C   0  0  0  0  0  0  0  0  0  0  0  0
   36.5410   28.4200   34.6760 O   0  0  0  0  0  0  0  0  0  0  0  0
   40.0620   22.8790   37.2890 C   0  0  0  0  0  0  0  0  0  0  0  0
   39.2130   23.2310   38.3360 C   0  0  0  0  0  0  0  0  0  0  0  0
   37.8680   23.5070   38.0280 C   0  0  0  0  0  0  0  0  0  0  0  0
   37.4580   23.4200   36.7370 N   0  0  0  0  0  0  0  0  0  0  0  0
   38.3170   23.0740   35.7490 C   0  0  0  0  0  0  0  0  0  0  0  0
   39.6080   22.8070   36.0310 N   0  0  0  0  0  0  0  0  0  0  0  0
   37.6321   20.8487   34.5268 H   0  0  0  0  0  0  0  0  0  0  0  0
   36.8901   20.5856   32.1691 H   0  0  0  0  0  0  0  0  0  0  0  0
   36.7335   22.5953   30.6901 H   0  0  0  0  0  0  0  0  0  0  0  0
   37.3161   24.7890   31.5748 H   0  0  0  0  0  0  0  0  0  0  0  0
   40.2421   25.2874   33.6691 H   0  0  0  0  0  0  0  0  0  0  0  0
   39.5208   26.7976   33.1473 H   0  0  0  0  0  0  0  0  0  0  0  0
   40.2555   25.8635   35.9617 H   0  0  0  0  0  0  0  0  0  0  0  0
   40.3739   27.4961   35.3057 H   0  0  0  0  0  0  0  0  0  0  0  0
   38.1667   26.3502   36.8297 H   0  0  0  0  0  0  0  0  0  0  0  0
   38.1971   27.9613   36.1518 H   0  0  0  0  0  0  0  0  0  0  0  0
   36.5138   25.9870   35.2252 H   0  0  0  0  0  0  0  0  0  0  0  0
   36.8176   27.4653   32.8438 H   0  0  0  0  0  0  0  0  0  0  0  0
   41.1189   22.6573   37.4982 H   0  0  0  0  0  0  0  0  0  0  0  0
   39.5823   23.2912   39.3704 H   0  0  0  0  0  0  0  0  0  0  0  0
   37.1599   23.7889   38.8211 H   0  0  0  0  0  0  0  0  0  0  0  0
  1 18  1  0
  2  1  2  0
  3  2  1  0
  4  5  1  0
  4  3  2  0
  5  6  2  0
  6  7  1  0
  6  1  1  0
  7 11  1  0
  8  7  1  0
  8  9  1  0
  9 10  1  0
 11 10  1  0
 12 13  2  0
 12 11  1  0
 14 15  2  0
 16 15  1  0
 17 16  2  0
 18 19  2  0
 18 17  1  0
 19 14  1  0
  2 20  1  0
  3 21  1  0
  4 22  1  0
  5 23  1  0
  8 24  1  0
  8 25  1  0
  9 26  1  0
  9 27  1  0
 10 28  1  0
 10 29  1  0
 11 30  1  1
 12 31  1  0
 14 32  1  0
 15 33  1  0
 16 34  1  0
M  ISO  8  20  14  21  14  22  14  23  14  24  13  25  13  26  13  27  13
M  ISO  7  28  13  29  13  30  13  31   6  32  14  33  14  34  14
M  END
>  <minimizedAffinity>  (1) 
-4.89675379

>  <minimizedRMSD>  (1) 
0.299215734

$$$$
