
     RDKit          3D

 27 29  0  0  0  0  0  0  0  0999 V2000
   38.7650   23.4340   34.5380 C   0  0  0  0  0  0  0  0  0  0  0  0
   37.7680   24.1420   33.8690 C   0  0  0  0  0  0  0  0  0  0  0  0
   37.7150   24.1100   32.4850 C   0  0  0  0  0  0  0  0  0  0  0  0
   38.6670   23.3680   31.8320 N   0  0  0  0  0  0  0  0  0  0  0  0
   39.6110   22.7020   32.5140 C   0  0  0  0  0  0  0  0  0  0  0  0
   39.6720   22.7250   33.8600 N   0  0  0  0  0  0  0  0  0  0  0  0
   38.8620   23.4370   35.9900 C   0  0  0  0  0  0  0  0  0  0  0  0
   37.9250   24.1460   36.7110 C   0  0  0  0  0  0  0  0  0  0  0  0
   37.9140   24.2230   38.0990 C   0  0  0  0  0  0  0  0  0  0  0  0
   38.9110   23.5420   38.7970 C   0  0  0  0  0  0  0  0  0  0  0  0
   39.8610   22.8250   38.1030 C   0  0  0  0  0  0  0  0  0  0  0  0
   39.8230   22.7840   36.7300 C   0  0  0  0  0  0  0  0  0  0  0  0
   36.6670   24.8560   31.8140 C   0  0  0  0  0  0  0  0  0  0  0  0
   35.5500   24.2530   31.2330 C   0  0  0  0  0  0  0  0  0  0  0  0
   34.8070   25.2650   30.7100 N   0  0  0  0  0  0  0  0  0  0  0  0
   35.4590   26.4110   30.9720 C   0  0  0  0  0  0  0  0  0  0  0  0
   36.5780   26.1810   31.6340 N   0  0  0  0  0  0  0  0  0  0  0  0
   37.0269   24.7233   34.4372 H   0  0  0  0  0  0  0  0  0  0  0  0
   40.3589   22.1187   31.9569 H   0  0  0  0  0  0  0  0  0  0  0  0
   37.1408   24.6817   36.1560 H   0  0  0  0  0  0  0  0  0  0  0  0
   37.1439   24.8023   38.6295 H   0  0  0  0  0  0  0  0  0  0  0  0
   38.9388   23.5771   39.8961 H   0  0  0  0  0  0  0  0  0  0  0  0
   40.6497   22.2855   38.6479 H   0  0  0  0  0  0  0  0  0  0  0  0
   40.5930   22.2049   36.1991 H   0  0  0  0  0  0  0  0  0  0  0  0
   35.3180   23.1781   31.2041 H   0  0  0  0  0  0  0  0  0  0  0  0
   35.1065   27.4095   30.6740 H   0  0  0  0  0  0  0  0  0  0  0  0
   37.2559   26.8880   31.9526 H   0  0  0  0  0  0  0  0  0  0  0  0
  1  7  1  0
  2  1  2  0
  3  2  1  0
  4  3  2  0
  4  5  1  0
  5  6  2  0
  6  1  1  0
  7  8  2  0
  7 12  1  0
  8  9  1  0
  9 10  2  0
 11 10  1  0
 12 11  2  0
 13  3  1  0
 14 13  2  0
 15 16  2  0
 15 14  1  0
 16 17  1  0
 17 13  1  0
  2 18  1  0
  5 19  1  0
  8 20  1  0
  9 21  1  0
 10 22  1  0
 11 23  1  0
 12 24  1  0
 14 25  1  0
 16 26  1  0
 17 27  1  0
M  ISO  8  18  14  19  14  20  14  21  14  22  14  23  14  24  14  25  14
M  ISO  2  26  14  27   9
M  END
>  <minimizedAffinity>  (1) 
-4.62403345

>  <minimizedRMSD>  (1) 
6.46299028

$$$$
