
     RDKit          3D

 35 37  0  0  1  0  0  0  0  0999 V2000
   37.8870   22.7310   34.3630 C   0  0  0  0  0  0  0  0  0  0  0  0
   37.0870   21.6330   34.1350 C   0  0  0  0  0  0  0  0  0  0  0  0
   36.6410   21.3880   32.8490 C   0  0  0  0  0  0  0  0  0  0  0  0
   36.9970   22.2360   31.8140 C   0  0  0  0  0  0  0  0  0  0  0  0
   37.8000   23.3270   32.0790 C   0  0  0  0  0  0  0  0  0  0  0  0
   38.2670   23.6070   33.3520 C   0  0  0  0  0  0  0  0  0  0  0  0
   39.0940   24.7310   33.6190 N   0  0  0  0  0  0  0  0  0  0  0  0
   40.5540   24.7090   33.7770 C   0  0  0  0  0  0  0  0  0  0  0  0
   40.8240   25.5720   35.0010 C   0  0  0  0  0  0  0  0  0  0  0  0
   39.6650   26.5830   35.0150 C   0  0  0  0  0  0  0  0  0  0  0  0
   38.8570   26.1480   33.8150 C   0  0  2  0  0  0  0  0  0  0  0  0
   37.4500   26.5400   33.8530 C   0  0  0  0  0  0  0  0  0  0  0  0
   36.9960   26.6010   35.0470 O   0  0  0  0  0  0  0  0  0  0  0  0
   36.4820   26.8640   32.9210 O   0  0  0  0  0  0  0  0  0  0  0  0
   39.9330   22.5090   37.3990 C   0  0  0  0  0  0  0  0  0  0  0  0
   39.2490   23.3140   38.3190 C   0  0  0  0  0  0  0  0  0  0  0  0
   38.0700   23.9400   37.8820 C   0  0  0  0  0  0  0  0  0  0  0  0
   37.6420   23.7440   36.6060 N   0  0  0  0  0  0  0  0  0  0  0  0
   38.3410   22.9530   35.7550 C   0  0  0  0  0  0  0  0  0  0  0  0
   39.4720   22.3450   36.1520 N   0  0  0  0  0  0  0  0  0  0  0  0
   36.8078   20.9628   34.9613 H   0  0  0  0  0  0  0  0  0  0  0  0
   36.0011   20.5162   32.6477 H   0  0  0  0  0  0  0  0  0  0  0  0
   36.6434   22.0422   30.7906 H   0  0  0  0  0  0  0  0  0  0  0  0
   38.0781   23.9961   31.2514 H   0  0  0  0  0  0  0  0  0  0  0  0
   40.9109   23.6815   33.9407 H   0  0  0  0  0  0  0  0  0  0  0  0
   41.0747   25.0815   32.8825 H   0  0  0  0  0  0  0  0  0  0  0  0
   40.8204   24.9622   35.9165 H   0  0  0  0  0  0  0  0  0  0  0  0
   41.8085   26.0612   34.9620 H   0  0  0  0  0  0  0  0  0  0  0  0
   39.0779   26.5056   35.9420 H   0  0  0  0  0  0  0  0  0  0  0  0
   39.9907   27.6329   34.9744 H   0  0  0  0  0  0  0  0  0  0  0  0
   39.2009   26.6950   32.9247 H   0  0  0  0  0  0  0  0  0  0  0  0
   35.5686   27.1030   33.2187 H   0  0  0  0  0  0  0  0  0  0  0  0
   40.8615   22.0046   37.7048 H   0  0  0  0  0  0  0  0  0  0  0  0
   39.6212   23.4507   39.3450 H   0  0  0  0  0  0  0  0  0  0  0  0
   37.4975   24.5835   38.5662 H   0  0  0  0  0  0  0  0  0  0  0  0
  1 19  1  0
  2  1  2  0
  3  2  1  0
  4  5  1  0
  4  3  2  0
  5  6  2  0
  6  7  1  0
  6  1  1  0
  7  8  1  0
  7 11  1  0
  8  9  1  0
  9 10  1  0
 11 12  1  0
 11 10  1  0
 12 13  2  0
 14 12  1  0
 15 16  2  0
 17 16  1  0
 18 17  2  0
 19 20  2  0
 19 18  1  0
 20 15  1  0
  2 21  1  0
  3 22  1  0
  4 23  1  0
  5 24  1  0
  8 25  1  0
  8 26  1  0
  9 27  1  0
  9 28  1  0
 10 29  1  0
 10 30  1  0
 11 31  1  6
 14 32  1  0
 15 33  1  0
 16 34  1  0
 17 35  1  0
M  ISO  8  21  14  22  14  23  14  24  14  25  13  26  13  27  13  28  13
M  ISO  7  29  13  30  13  31  13  32   3  33  14  34  14  35  14
M  END
>  <minimizedAffinity>  (1) 
-4.78285885

>  <minimizedRMSD>  (1) 
1.30453622

$$$$
