
     RDKit          3D

 25 27  0  0  0  0  0  0  0  0999 V2000
   38.4110   24.5950   36.1270 C   0  0  0  0  0  0  0  0  0  0  0  0
   39.6410   23.9490   35.9990 C   0  0  0  0  0  0  0  0  0  0  0  0
   40.1240   23.1280   37.0040 C   0  0  0  0  0  0  0  0  0  0  0  0
   39.3420   22.9870   38.1140 N   0  0  0  0  0  0  0  0  0  0  0  0
   38.1600   23.6180   38.2160 C   0  0  0  0  0  0  0  0  0  0  0  0
   37.7050   24.4040   37.2460 N   0  0  0  0  0  0  0  0  0  0  0  0
   41.4130   22.4910   36.7940 C   0  0  0  0  0  0  0  0  0  0  0  0
   41.6860   21.1880   37.2490 C   0  0  0  0  0  0  0  0  0  0  0  0
   42.9830   20.9520   36.8650 N   0  0  0  0  0  0  0  0  0  0  0  0
   43.4330   22.0480   36.2300 C   0  0  0  0  0  0  0  0  0  0  0  0
   42.5010   22.9790   36.1790 N   0  0  0  0  0  0  0  0  0  0  0  0
   37.8640   25.4660   35.0970 C   0  0  0  0  0  0  0  0  0  0  0  0
   37.4700   26.7690   35.3050 C   0  0  0  0  0  0  0  0  0  0  0  0
   36.9510   27.6000   34.3340 C   0  0  0  0  0  0  0  0  0  0  0  0
   36.8390   27.0540   33.0960 N   0  0  0  0  0  0  0  0  0  0  0  0
   37.2150   25.7800   32.8530 C   0  0  0  0  0  0  0  0  0  0  0  0
   37.7070   25.0330   33.8350 N   0  0  0  0  0  0  0  0  0  0  0  0
   40.2363   24.0942   35.0855 H   0  0  0  0  0  0  0  0  0  0  0  0
   37.5546   23.4806   39.1241 H   0  0  0  0  0  0  0  0  0  0  0  0
   41.0110   20.5096   37.7914 H   0  0  0  0  0  0  0  0  0  0  0  0
   44.4438   22.1539   35.8092 H   0  0  0  0  0  0  0  0  0  0  0  0
   42.5914   23.9095   35.7467 H   0  0  0  0  0  0  0  0  0  0  0  0
   37.5771   27.1774   36.3207 H   0  0  0  0  0  0  0  0  0  0  0  0
   36.6482   28.6356   34.5483 H   0  0  0  0  0  0  0  0  0  0  0  0
   37.1138   25.3605   31.8412 H   0  0  0  0  0  0  0  0  0  0  0  0
  1  6  1  0
  2  1  2  0
  2  3  1  0
  3  4  2  0
  4  5  1  0
  6  5  2  0
  7  3  1  0
  7  8  2  0
  9  8  1  0
 10  9  2  0
 11 10  1  0
 11  7  1  0
 12 13  2  0
 12  1  1  0
 14 13  1  0
 15 14  2  0
 16 15  1  0
 16 17  2  0
 17 12  1  0
  2 18  1  0
  5 19  1  0
  8 20  1  0
 10 21  1  0
 11 22  1  0
 13 23  1  0
 14 24  1  0
 16 25  1  0
M  ISO  8  18  14  19  14  20  14  21  14  22   9  23  14  24  14  25  14
M  END
>  <minimizedAffinity>  (1) 
-4.46878004

>  <minimizedRMSD>  (1) 
7.58489943

$$$$
