
     RDKit          3D

 30 32  0  0  0  0  0  0  0  0999 V2000
   43.0410   20.9670   36.4330 C   0  0  0  0  0  0  0  0  0  0  0  0
   41.7310   21.2500   36.8280 C   0  0  0  0  0  0  0  0  0  0  0  0
   41.3310   22.5700   36.9510 C   0  0  0  0  0  0  0  0  0  0  0  0
   42.2550   23.5360   36.6740 N   0  0  0  0  0  0  0  0  0  0  0  0
   43.5070   23.2490   36.2980 C   0  0  0  0  0  0  0  0  0  0  0  0
   43.8960   21.9760   36.1790 N   0  0  0  0  0  0  0  0  0  0  0  0
   43.4770   19.6340   36.3010 N   0  0  0  0  0  0  0  0  0  0  0  0
   44.0650   18.9070   37.2480 C   0  0  0  0  0  0  0  0  0  0  0  0
   44.4850   17.6010   37.1000 C   0  0  0  0  0  0  0  0  0  0  0  0
   45.1360   16.8460   38.2020 C   0  0  0  0  0  0  0  0  0  0  0  0
   44.2790   17.0050   35.8740 C   0  0  0  0  0  0  0  0  0  0  0  0
   44.6440   15.8050   35.6770 O   0  0  0  0  0  0  0  0  0  0  0  0
   43.6830   17.7280   34.9010 N   0  0  0  0  0  0  0  0  0  0  0  0
   43.3040   18.9880   35.1200 C   0  0  0  0  0  0  0  0  0  0  0  0
   42.7640   19.5300   34.1200 O   0  0  0  0  0  0  0  0  0  0  0  0
   39.9550   22.8380   37.3650 C   0  0  0  0  0  0  0  0  0  0  0  0
   38.9440   23.1540   36.4660 C   0  0  0  0  0  0  0  0  0  0  0  0
   37.8140   23.3320   37.2150 N   0  0  0  0  0  0  0  0  0  0  0  0
   38.1620   23.1280   38.5010 C   0  0  0  0  0  0  0  0  0  0  0  0
   39.4480   22.8290   38.6100 N   0  0  0  0  0  0  0  0  0  0  0  0
   41.0251   20.4332   37.0390 H   0  0  0  0  0  0  0  0  0  0  0  0
   44.2169   24.0622   36.0866 H   0  0  0  0  0  0  0  0  0  0  0  0
   44.2290   19.3846   38.2252 H   0  0  0  0  0  0  0  0  0  0  0  0
   44.7944   17.2422   39.1697 H   0  0  0  0  0  0  0  0  0  0  0  0
   44.8675   15.7820   38.1260 H   0  0  0  0  0  0  0  0  0  0  0  0
   46.2279   16.9550   38.1260 H   0  0  0  0  0  0  0  0  0  0  0  0
   43.5191   17.3009   33.9782 H   0  0  0  0  0  0  0  0  0  0  0  0
   39.0343   23.2430   35.3733 H   0  0  0  0  0  0  0  0  0  0  0  0
   37.4674   23.2005   39.3509 H   0  0  0  0  0  0  0  0  0  0  0  0
   39.9605   22.6284   39.4806 H   0  0  0  0  0  0  0  0  0  0  0  0
  1  2  2  0
  2  3  1  0
  3 16  1  0
  4  3  2  0
  5  4  1  0
  6  5  2  0
  6  1  1  0
  7  1  1  0
  7  8  1  0
  9  8  2  0
  9 10  1  0
 11  9  1  0
 12 11  2  0
 13 14  1  0
 13 11  1  0
 14  7  1  0
 15 14  2  0
 16 20  1  0
 17 18  1  0
 17 16  2  0
 18 19  2  0
 19 20  1  0
  2 21  1  0
  5 22  1  0
  8 23  1  0
 10 24  1  0
 10 25  1  0
 10 26  1  0
 13 27  1  0
 17 28  1  0
 19 29  1  0
 20 30  1  0
M  ISO  8  21  14  22  14  23  14  24   8  25   8  26   8  27   9  28  14
M  ISO  2  29  14  30   9
M  END
>  <minimizedAffinity>  (1) 
-4.27184153

>  <minimizedRMSD>  (1) 
2.56500244

$$$$
