
     RDKit          3D

 24 26  0  0  0  0  0  0  0  0999 V2000
   43.0150   20.9160   36.7050 C   0  0  0  0  0  0  0  0  0  0  0  0
   41.7210   21.2290   37.1270 C   0  0  0  0  0  0  0  0  0  0  0  0
   41.2770   22.5410   36.9070 C   0  0  0  0  0  0  0  0  0  0  0  0
   42.1270   23.4280   36.2990 N   0  0  0  0  0  0  0  0  0  0  0  0
   43.3580   23.0650   35.9160 C   0  0  0  0  0  0  0  0  0  0  0  0
   43.8010   21.8220   36.1160 N   0  0  0  0  0  0  0  0  0  0  0  0
   39.9250   22.8820   37.3450 C   0  0  0  0  0  0  0  0  0  0  0  0
   38.9340   23.3720   36.4790 C   0  0  0  0  0  0  0  0  0  0  0  0
   37.8400   23.5590   37.2660 N   0  0  0  0  0  0  0  0  0  0  0  0
   38.1720   23.1990   38.5240 C   0  0  0  0  0  0  0  0  0  0  0  0
   39.4250   22.7870   38.5920 N   0  0  0  0  0  0  0  0  0  0  0  0
   43.4740   19.5510   36.9350 C   0  0  0  0  0  0  0  0  0  0  0  0
   44.7700   19.1090   37.0320 C   0  0  0  0  0  0  0  0  0  0  0  0
   44.7900   17.7620   37.2500 C   0  0  0  0  0  0  0  0  0  0  0  0
   43.4470   17.4250   37.2760 C   0  0  0  0  0  0  0  0  0  0  0  0
   42.6960   18.5040   37.0860 O   0  0  0  0  0  0  0  0  0  0  0  0
   41.0780   20.4791   37.6109 H   0  0  0  0  0  0  0  0  0  0  0  0
   44.0136   23.8022   35.4294 H   0  0  0  0  0  0  0  0  0  0  0  0
   39.0229   23.5630   35.3994 H   0  0  0  0  0  0  0  0  0  0  0  0
   37.4863   23.2432   39.3830 H   0  0  0  0  0  0  0  0  0  0  0  0
   39.9215   22.4581   39.4324 H   0  0  0  0  0  0  0  0  0  0  0  0
   45.6619   19.7472   36.9465 H   0  0  0  0  0  0  0  0  0  0  0  0
   45.6620   17.1032   37.3749 H   0  0  0  0  0  0  0  0  0  0  0  0
   43.0575   16.4081   37.4319 H   0  0  0  0  0  0  0  0  0  0  0  0
  1 12  1  0
  1  2  2  0
  3  2  1  0
  3  7  1  0
  4  3  2  0
  5  6  2  0
  5  4  1  0
  6  1  1  0
  7 11  1  0
  8  9  1  0
  8  7  2  0
  9 10  2  0
 10 11  1  0
 12 13  2  0
 12 16  1  0
 13 14  1  0
 14 15  2  0
 16 15  1  0
  2 17  1  0
  5 18  1  0
  8 19  1  0
 10 20  1  0
 11 21  1  0
 13 22  1  0
 14 23  1  0
 15 24  1  0
M  ISO  8  17  14  18  14  19  14  20  14  21   9  22  14  23  14  24  14
M  END
>  <minimizedAffinity>  (1) 
-4.19994164

>  <minimizedRMSD>  (1) 
1.60919011

$$$$
