
     RDKit          3D

 26 28  0  0  0  0  0  0  0  0999 V2000
   37.7800   22.2480   35.2220 C   0  0  0  0  0  0  0  0  0  0  0  0
   39.1270   22.5840   35.0670 C   0  0  0  0  0  0  0  0  0  0  0  0
   39.7440   23.1670   36.1650 C   0  0  0  0  0  0  0  0  0  0  0  0
   39.0210   23.3760   37.3100 N   0  0  0  0  0  0  0  0  0  0  0  0
   37.7340   23.0330   37.3990 C   0  0  0  0  0  0  0  0  0  0  0  0
   37.0970   22.4640   36.3530 N   0  0  0  0  0  0  0  0  0  0  0  0
   41.1630   23.5320   36.0320 C   0  0  0  0  0  0  0  0  0  0  0  0
   42.1800   22.8740   36.7240 C   0  0  0  0  0  0  0  0  0  0  0  0
   43.3280   23.5060   36.3300 N   0  0  0  0  0  0  0  0  0  0  0  0
   42.9860   24.4750   35.4580 C   0  0  0  0  0  0  0  0  0  0  0  0
   41.6860   24.5160   35.2580 N   0  0  0  0  0  0  0  0  0  0  0  0
   37.1040   21.6320   34.0820 C   0  0  0  0  0  0  0  0  0  0  0  0
   36.0120   20.8180   34.2610 C   0  0  0  0  0  0  0  0  0  0  0  0
   35.3320   20.2070   33.2320 C   0  0  0  0  0  0  0  0  0  0  0  0
   35.8330   20.4750   31.9520 C   0  0  0  0  0  0  0  0  0  0  0  0
   36.9320   21.2950   31.7650 C   0  0  0  0  0  0  0  0  0  0  0  0
   37.5470   21.8570   32.8260 N   0  0  0  0  0  0  0  0  0  0  0  0
   39.6681   22.3971   34.1277 H   0  0  0  0  0  0  0  0  0  0  0  0
   37.1861   23.2159   38.3351 H   0  0  0  0  0  0  0  0  0  0  0  0
   42.0812   22.0350   37.4286 H   0  0  0  0  0  0  0  0  0  0  0  0
   43.7062   25.1498   34.9723 H   0  0  0  0  0  0  0  0  0  0  0  0
   41.1719   25.1614   34.6415 H   0  0  0  0  0  0  0  0  0  0  0  0
   35.6598   20.6440   35.2885 H   0  0  0  0  0  0  0  0  0  0  0  0
   34.4609   19.5573   33.4022 H   0  0  0  0  0  0  0  0  0  0  0  0
   35.3426   20.0242   31.0767 H   0  0  0  0  0  0  0  0  0  0  0  0
   37.3050   21.4890   30.7485 H   0  0  0  0  0  0  0  0  0  0  0  0
  1  6  1  0
  2  1  2  0
  2  3  1  0
  3  4  2  0
  4  5  1  0
  6  5  2  0
  7  3  1  0
  7  8  2  0
  9  8  1  0
 10  9  2  0
 11 10  1  0
 11  7  1  0
 12 13  2  0
 12  1  1  0
 14 13  1  0
 15 14  2  0
 16 15  1  0
 16 17  2  0
 17 12  1  0
  2 18  1  0
  5 19  1  0
  8 20  1  0
 10 21  1  0
 11 22  1  0
 13 23  1  0
 14 24  1  0
 15 25  1  0
 16 26  1  0
M  ISO  8  18  14  19  14  20  14  21  14  22   9  23  14  24  14  25  14
M  ISO  1  26  14
M  END
>  <minimizedAffinity>  (1) 
-4.13157845

>  <minimizedRMSD>  (1) 
7.03987408

$$$$
