
     RDKit          3D

 30 32  0  0  0  0  0  0  0  0999 V2000
   42.5970   20.7460   36.3350 C   0  0  0  0  0  0  0  0  0  0  0  0
   41.5680   21.3440   37.0760 C   0  0  0  0  0  0  0  0  0  0  0  0
   40.7200   22.2200   36.4190 C   0  0  0  0  0  0  0  0  0  0  0  0
   40.9480   22.4370   35.0920 N   0  0  0  0  0  0  0  0  0  0  0  0
   41.9360   21.8520   34.4120 C   0  0  0  0  0  0  0  0  0  0  0  0
   42.7570   21.0100   35.0320 N   0  0  0  0  0  0  0  0  0  0  0  0
   39.6400   22.8560   37.1700 C   0  0  0  0  0  0  0  0  0  0  0  0
   38.7240   23.7380   36.6120 C   0  0  0  0  0  0  0  0  0  0  0  0
   37.8970   24.0990   37.6290 N   0  0  0  0  0  0  0  0  0  0  0  0
   38.3080   23.4560   38.7400 C   0  0  0  0  0  0  0  0  0  0  0  0
   39.3560   22.7070   38.4720 N   0  0  0  0  0  0  0  0  0  0  0  0
   43.4970   19.8110   37.0590 C   0  0  0  0  0  0  0  0  0  0  0  0
   44.8670   19.7010   36.4070 C   0  0  0  0  0  0  0  0  0  0  0  0
   44.5940   18.7260   35.2850 C   0  0  0  0  0  0  0  0  0  0  0  0
   43.7740   17.6630   35.9850 C   0  0  0  0  0  0  0  0  0  0  0  0
   43.0240   18.3910   37.0600 C   0  0  0  0  0  0  0  0  0  0  0  0
   41.4382   21.1243   38.1460 H   0  0  0  0  0  0  0  0  0  0  0  0
   42.0707   22.0659   33.3414 H   0  0  0  0  0  0  0  0  0  0  0  0
   38.6773   24.0743   35.5657 H   0  0  0  0  0  0  0  0  0  0  0  0
   37.8350   23.5447   39.7291 H   0  0  0  0  0  0  0  0  0  0  0  0
   39.8662   22.1134   39.1415 H   0  0  0  0  0  0  0  0  0  0  0  0
   43.5203   20.2439   38.0700 H   0  0  0  0  0  0  0  0  0  0  0  0
   45.2063   20.6732   36.0200 H   0  0  0  0  0  0  0  0  0  0  0  0
   45.6642   19.3802   37.0937 H   0  0  0  0  0  0  0  0  0  0  0  0
   45.5285   18.3089   34.8816 H   0  0  0  0  0  0  0  0  0  0  0  0
   44.0887   19.1771   34.4183 H   0  0  0  0  0  0  0  0  0  0  0  0
   43.0751   17.1885   35.2805 H   0  0  0  0  0  0  0  0  0  0  0  0
   44.4046   16.8601   36.3946 H   0  0  0  0  0  0  0  0  0  0  0  0
   43.2264   17.9288   38.0375 H   0  0  0  0  0  0  0  0  0  0  0  0
   41.9407   18.3444   36.8748 H   0  0  0  0  0  0  0  0  0  0  0  0
  1 12  1  0
  1  2  2  0
  3  2  1  0
  3  7  1  0
  4  3  2  0
  5  6  2  0
  5  4  1  0
  6  1  1  0
  7 11  1  0
  8  7  2  0
  8  9  1  0
  9 10  2  0
 11 10  1  0
 12 16  1  0
 13 12  1  0
 14 15  1  0
 14 13  1  0
 15 16  1  0
  2 17  1  0
  5 18  1  0
  8 19  1  0
 10 20  1  0
 11 21  1  0
 12 22  1  0
 13 23  1  0
 13 24  1  0
 14 25  1  0
 14 26  1  0
 15 27  1  0
 15 28  1  0
 16 29  1  0
 16 30  1  0
M  ISO  8  17  14  18  14  19  14  20  14  21   9  22  13  23  13  24  13
M  ISO  6  25  13  26  13  27  13  28  13  29  13  30  13
M  END
>  <minimizedAffinity>  (1) 
-4.05681515

>  <minimizedRMSD>  (1) 
0.80743593

$$$$
