
     RDKit          3D

 24 26  0  0  0  0  0  0  0  0999 V2000
   38.6100   22.5730   34.5960 C   0  0  0  0  0  0  0  0  0  0  0  0
   37.7440   23.4910   33.9950 C   0  0  0  0  0  0  0  0  0  0  0  0
   37.4930   23.3810   32.6240 C   0  0  0  0  0  0  0  0  0  0  0  0
   38.1180   22.3600   31.9330 N   0  0  0  0  0  0  0  0  0  0  0  0
   38.9380   21.5050   32.5510 C   0  0  0  0  0  0  0  0  0  0  0  0
   39.1800   21.6100   33.8630 N   0  0  0  0  0  0  0  0  0  0  0  0
   36.5950   24.3260   31.9790 C   0  0  0  0  0  0  0  0  0  0  0  0
   35.4400   23.9730   31.2910 C   0  0  0  0  0  0  0  0  0  0  0  0
   34.8970   25.1450   30.8470 N   0  0  0  0  0  0  0  0  0  0  0  0
   35.7140   26.1340   31.2680 C   0  0  0  0  0  0  0  0  0  0  0  0
   36.7540   25.6770   31.9570 N   0  0  0  0  0  0  0  0  0  0  0  0
   38.7610   22.8210   35.9940 N   0  0  0  0  0  0  0  0  0  0  0  0
   37.7430   23.3810   36.6670 C   0  0  0  0  0  0  0  0  0  0  0  0
   38.2030   23.4850   37.9790 C   0  0  0  0  0  0  0  0  0  0  0  0
   39.4670   22.9910   38.0500 N   0  0  0  0  0  0  0  0  0  0  0  0
   39.8100   22.5750   36.7970 C   0  0  0  0  0  0  0  0  0  0  0  0
   37.2689   24.2851   34.5896 H   0  0  0  0  0  0  0  0  0  0  0  0
   39.4211   20.7033   31.9731 H   0  0  0  0  0  0  0  0  0  0  0  0
   35.0445   22.9583   31.1360 H   0  0  0  0  0  0  0  0  0  0  0  0
   35.5380   27.2003   31.0632 H   0  0  0  0  0  0  0  0  0  0  0  0
   37.5149   26.2259   32.3819 H   0  0  0  0  0  0  0  0  0  0  0  0
   36.7640   23.6891   36.2713 H   0  0  0  0  0  0  0  0  0  0  0  0
   37.6331   23.9010   38.8229 H   0  0  0  0  0  0  0  0  0  0  0  0
   40.7673   22.1223   36.4993 H   0  0  0  0  0  0  0  0  0  0  0  0
  1 12  1  0
  2  1  2  0
  3  2  1  0
  4  5  1  0
  4  3  2  0
  5  6  2  0
  6  1  1  0
  7  3  1  0
  8  7  2  0
  9 10  2  0
  9  8  1  0
 10 11  1  0
 11  7  1  0
 12 13  1  0
 12 16  1  0
 13 14  2  0
 14 15  1  0
 16 15  2  0
  2 17  1  0
  5 18  1  0
  8 19  1  0
 10 20  1  0
 11 21  1  0
 13 22  1  0
 14 23  1  0
 16 24  1  0
M  ISO  8  17  14  18  14  19  14  20  14  21   9  22  14  23  14  24  14
M  END
>  <minimizedAffinity>  (1) 
-4.03923845

>  <minimizedRMSD>  (1) 
6.08975315

$$$$
