
     RDKit          3D

 31 33  0  0  0  0  0  0  0  0999 V2000
   42.4100   20.9130   35.8950 C   0  0  0  0  0  0  0  0  0  0  0  0
   41.4820   21.4860   36.7640 C   0  0  0  0  0  0  0  0  0  0  0  0
   40.5520   22.3670   36.2310 C   0  0  0  0  0  0  0  0  0  0  0  0
   40.5990   22.6220   34.8760 N   0  0  0  0  0  0  0  0  0  0  0  0
   41.5140   22.0420   34.0860 C   0  0  0  0  0  0  0  0  0  0  0  0
   42.4090   21.1970   34.5900 N   0  0  0  0  0  0  0  0  0  0  0  0
   39.5790   22.9710   37.1280 C   0  0  0  0  0  0  0  0  0  0  0  0
   38.6740   23.9450   36.7320 C   0  0  0  0  0  0  0  0  0  0  0  0
   37.9390   24.2620   37.8260 N   0  0  0  0  0  0  0  0  0  0  0  0
   38.4030   23.4900   38.8480 C   0  0  0  0  0  0  0  0  0  0  0  0
   39.3840   22.7180   38.4300 N   0  0  0  0  0  0  0  0  0  0  0  0
   43.3940   20.0030   36.3630 N   0  0  0  0  0  0  0  0  0  0  0  0
   43.1780   18.7760   37.0970 C   0  0  0  0  0  0  0  0  0  0  0  0
   43.3570   17.6310   36.1080 C   0  0  0  0  0  0  0  0  0  0  0  0
   44.4950   17.9130   35.2470 N   0  0  0  0  0  0  0  0  0  0  0  0
   45.4080   18.8380   35.8710 C   0  0  0  0  0  0  0  0  0  0  0  0
   44.7890   20.1930   36.1580 C   0  0  0  0  0  0  0  0  0  0  0  0
   41.4871   21.2472   37.8377 H   0  0  0  0  0  0  0  0  0  0  0  0
   41.5246   22.2674   33.0094 H   0  0  0  0  0  0  0  0  0  0  0  0
   38.5725   24.3765   35.7253 H   0  0  0  0  0  0  0  0  0  0  0  0
   38.0133   23.5090   39.8765 H   0  0  0  0  0  0  0  0  0  0  0  0
   39.9084   22.0403   39.0015 H   0  0  0  0  0  0  0  0  0  0  0  0
   43.9108   18.6892   37.9127 H   0  0  0  0  0  0  0  0  0  0  0  0
   42.1732   18.7565   37.5441 H   0  0  0  0  0  0  0  0  0  0  0  0
   43.5352   16.6950   36.6578 H   0  0  0  0  0  0  0  0  0  0  0  0
   42.4488   17.5272   35.4962 H   0  0  0  0  0  0  0  0  0  0  0  0
   44.1550   18.3211   34.3645 H   0  0  0  0  0  0  0  0  0  0  0  0
   45.7505   18.4026   36.8213 H   0  0  0  0  0  0  0  0  0  0  0  0
   46.2369   19.0018   35.1666 H   0  0  0  0  0  0  0  0  0  0  0  0
   45.2434   20.6277   37.0605 H   0  0  0  0  0  0  0  0  0  0  0  0
   44.9621   20.8790   35.3157 H   0  0  0  0  0  0  0  0  0  0  0  0
  1 12  1  0
  1  2  2  0
  3  2  1  0
  3  7  1  0
  4  3  2  0
  5  6  2  0
  5  4  1  0
  6  1  1  0
  7 11  1  0
  8  7  2  0
  8  9  1  0
  9 10  2  0
 11 10  1  0
 12 13  1  0
 14 13  1  0
 15 16  1  0
 15 14  1  0
 16 17  1  0
 17 12  1  0
  2 18  1  0
  5 19  1  0
  8 20  1  0
 10 21  1  0
 11 22  1  0
 13 23  1  0
 13 24  1  0
 14 25  1  0
 14 26  1  0
 15 27  1  0
 16 28  1  0
 16 29  1  0
 17 30  1  0
 17 31  1  0
M  ISO  8  18  14  19  14  20  14  21  14  22   9  23  13  24  13  25  13
M  ISO  6  26  13  27   5  28  13  29  13  30  13  31  13
M  END
>  <minimizedAffinity>  (1) 
-3.83194399

>  <minimizedRMSD>  (1) 
1.35692894

$$$$
