
     RDKit          3D

 19 20  0  0  0  0  0  0  0  0999 V2000
   42.7340   20.9740   36.8360 C   0  0  0  0  0  0  0  0  0  0  0  0
   41.4320   21.3210   37.2260 C   0  0  0  0  0  0  0  0  0  0  0  0
   40.9930   22.6100   36.9730 C   0  0  0  0  0  0  0  0  0  0  0  0
   41.8500   23.4870   36.3540 N   0  0  0  0  0  0  0  0  0  0  0  0
   43.0900   23.1000   36.0010 C   0  0  0  0  0  0  0  0  0  0  0  0
   43.5350   21.8620   36.2350 N   0  0  0  0  0  0  0  0  0  0  0  0
   39.6430   22.9910   37.3690 C   0  0  0  0  0  0  0  0  0  0  0  0
   38.7030   23.5630   36.5230 C   0  0  0  0  0  0  0  0  0  0  0  0
   37.5890   23.7610   37.2720 N   0  0  0  0  0  0  0  0  0  0  0  0
   37.8660   23.3200   38.5230 C   0  0  0  0  0  0  0  0  0  0  0  0
   39.0970   22.8570   38.5850 N   0  0  0  0  0  0  0  0  0  0  0  0
   43.1130   19.6090   37.1370 C   0  0  0  0  0  0  0  0  0  0  0  0
   44.2910   19.1750   37.2090 O   0  0  0  0  0  0  0  0  0  0  0  0
   40.7767   20.5884   37.7199 H   0  0  0  0  0  0  0  0  0  0  0  0
   43.7553   23.8229   35.5062 H   0  0  0  0  0  0  0  0  0  0  0  0
   38.8347   23.8070   35.4585 H   0  0  0  0  0  0  0  0  0  0  0  0
   37.1617   23.3453   39.3676 H   0  0  0  0  0  0  0  0  0  0  0  0
   39.5571   22.4629   39.4180 H   0  0  0  0  0  0  0  0  0  0  0  0
   42.3005   18.8900   37.3182 H   0  0  0  0  0  0  0  0  0  0  0  0
  1 12  1  0
  1  2  2  0
  3  2  1  0
  3  7  1  0
  4  3  2  0
  5  6  2  0
  5  4  1  0
  6  1  1  0
  7 11  1  0
  8  9  1  0
  8  7  2  0
  9 10  2  0
 10 11  1  0
 12 13  2  0
  2 14  1  0
  5 15  1  0
  8 16  1  0
 10 17  1  0
 11 18  1  0
 12 19  1  0
M  ISO  6  14  14  15  14  16  14  17  14  18   9  19   6
M  END
>  <minimizedAffinity>  (1) 
-3.86423182

>  <minimizedRMSD>  (1) 
1.16773403

$$$$
