
     RDKit          3D

 43 46  0  0  1  0  0  0  0  0999 V2000
   36.2160   29.5620   32.5430 C   0  0  0  0  0  0  0  0  0  0  0  0
   36.9980   28.6550   31.8730 C   0  0  0  0  0  0  0  0  0  0  0  0
   37.3620   27.4830   32.5260 C   0  0  0  0  0  0  0  0  0  0  0  0
   36.9390   27.2460   33.8220 C   0  0  0  0  0  0  0  0  0  0  0  0
   36.1580   28.1480   34.4940 C   0  0  0  0  0  0  0  0  0  0  0  0
   35.7850   29.3220   33.8620 C   0  0  0  0  0  0  0  0  0  0  0  0
   37.4210   25.9590   34.3660 C   0  0  0  0  0  0  0  0  0  0  0  0
   38.8240   26.0200   34.8980 C   0  0  2  0  0  0  0  0  0  0  0  0
   40.7230   23.1410   36.1340 C   0  0  0  0  0  0  0  0  0  0  0  0
   39.9090   22.6210   37.1670 C   0  0  0  0  0  0  0  0  0  0  0  0
   38.6970   23.2750   37.4360 C   0  0  0  0  0  0  0  0  0  0  0  0
   38.3650   24.3800   36.6820 N   0  0  0  0  0  0  0  0  0  0  0  0
   39.1700   24.8370   35.7070 C   0  0  0  0  0  0  0  0  0  0  0  0
   40.3460   24.2270   35.4270 N   0  0  0  0  0  0  0  0  0  0  0  0
   38.9370   27.2510   35.7880 C   0  0  0  0  0  0  0  0  0  0  0  0
   35.7430   31.0300   31.7190 S   0  0  0  0  0  0  0  0  0  0  0  0
   35.8530   30.7660   30.2150 O   0  0  0  0  0  0  0  0  0  0  0  0
   36.6430   32.1630   32.0690 O   0  0  0  0  0  0  0  0  0  0  0  0
   32.5490   33.1470   34.8270 N   0  0  0  0  0  0  0  0  0  0  0  0
   33.8330   33.2680   35.1940 C   0  0  0  0  0  0  0  0  0  0  0  0
   34.6210   32.6680   34.2980 N   0  0  0  0  0  0  0  0  0  0  0  0
   33.8630   32.1310   33.3070 C   0  0  0  0  0  0  0  0  0  0  0  0
   34.1090   31.4080   32.1370 C   0  0  0  0  0  0  0  0  0  0  0  0
   33.0440   31.0390   31.3870 N   0  0  0  0  0  0  0  0  0  0  0  0
   31.7890   31.3580   31.7540 C   0  0  0  0  0  0  0  0  0  0  0  0
   31.5340   32.0630   32.8940 N   0  0  0  0  0  0  0  0  0  0  0  0
   32.5820   32.4530   33.6780 C   0  0  0  0  0  0  0  0  0  0  0  0
   37.3293   28.8509   30.8425 H   0  0  0  0  0  0  0  0  0  0  0  0
   37.9890   26.7408   32.0102 H   0  0  0  0  0  0  0  0  0  0  0  0
   35.8308   27.9422   35.5239 H   0  0  0  0  0  0  0  0  0  0  0  0
   35.1585   30.0597   34.3848 H   0  0  0  0  0  0  0  0  0  0  0  0
   36.7516   25.6545   35.1841 H   0  0  0  0  0  0  0  0  0  0  0  0
   37.4214   25.2373   33.5359 H   0  0  0  0  0  0  0  0  0  0  0  0
   39.5124   26.0584   34.0409 H   0  0  0  0  0  0  0  0  0  0  0  0
   41.6805   22.6515   35.9026 H   0  0  0  0  0  0  0  0  0  0  0  0
   40.2157   21.7337   37.7403 H   0  0  0  0  0  0  0  0  0  0  0  0
   38.0272   22.9141   38.2304 H   0  0  0  0  0  0  0  0  0  0  0  0
   38.9088   26.9439   36.8439 H   0  0  0  0  0  0  0  0  0  0  0  0
   39.8863   27.7669   35.5814 H   0  0  0  0  0  0  0  0  0  0  0  0
   38.0975   27.9311   35.5814 H   0  0  0  0  0  0  0  0  0  0  0  0
   31.7190   33.5075   35.3189 H   0  0  0  0  0  0  0  0  0  0  0  0
   34.1851   33.7848   36.0989 H   0  0  0  0  0  0  0  0  0  0  0  0
   30.9480   31.0425   31.1191 H   0  0  0  0  0  0  0  0  0  0  0  0
  1  6  2  0
  2  3  2  0
  2  1  1  0
  3  4  1  0
  4  7  1  0
  4  5  2  0
  6  5  1  0
  7  8  1  0
  8 13  1  0
  8 15  1  0
  9 10  2  0
 10 11  1  0
 12 11  2  0
 13 12  1  0
 14 13  2  0
 14  9  1  0
 16 18  2  0
 16 23  1  0
 16  1  1  0
 17 16  2  0
 19 20  1  0
 21 20  2  0
 22 27  2  0
 22 21  1  0
 23 22  1  0
 24 25  1  0
 24 23  2  0
 25 26  2  0
 26 27  1  0
 27 19  1  0
  2 28  1  0
  3 29  1  0
  5 30  1  0
  6 31  1  0
  7 32  1  0
  7 33  1  0
  8 34  1  6
  9 35  1  0
 10 36  1  0
 11 37  1  0
 15 38  1  0
 15 39  1  0
 15 40  1  0
 19 41  1  0
 20 42  1  0
 25 43  1  0
M  ISO  8  28  14  29  14  30  14  31  14  32   8  33   8  34   8  35  14
M  ISO  8  36  14  37  14  38   8  39   8  40   8  41   9  42  14  43  14
M  END
>  <minimizedAffinity>  (1) 
-5.21259975

>  <minimizedRMSD>  (1) 
2.61703563

$$$$
