
     RDKit          3D

 43 47  0  0  0  0  0  0  0  0999 V2000
   41.9750   24.7310   32.6110 C   0  0  0  0  0  0  0  0  0  0  0  0
   40.6370   24.4460   32.5060 C   0  0  0  0  0  0  0  0  0  0  0  0
   39.7650   25.1530   31.7330 C   0  0  0  0  0  0  0  0  0  0  0  0
   40.3550   26.2000   31.0550 N   0  0  0  0  0  0  0  0  0  0  0  0
   41.6590   26.4820   31.1560 C   0  0  0  0  0  0  0  0  0  0  0  0
   42.4700   25.7640   31.9210 N   0  0  0  0  0  0  0  0  0  0  0  0
   42.7150   23.8190   33.4610 N   0  0  0  0  0  0  0  0  0  0  0  0
   42.8060   22.5020   33.1580 C   0  0  0  0  0  0  0  0  0  0  0  0
   43.5720   21.9740   34.1620 N   0  0  0  0  0  0  0  0  0  0  0  0
   43.9200   22.9600   35.0330 C   0  0  0  0  0  0  0  0  0  0  0  0
   44.6500   23.0510   36.2020 C   0  0  0  0  0  0  0  0  0  0  0  0
   44.8150   24.2240   36.8660 N   0  0  0  0  0  0  0  0  0  0  0  0
   44.2450   25.3500   36.3710 C   0  0  0  0  0  0  0  0  0  0  0  0
   43.5390   25.2720   35.2410 N   0  0  0  0  0  0  0  0  0  0  0  0
   43.3650   24.1450   34.5780 C   0  0  0  0  0  0  0  0  0  0  0  0
   38.3700   24.8220   31.6330 C   0  0  0  0  0  0  0  0  0  0  0  0
   37.8200   24.0380   30.6030 C   0  0  0  0  0  0  0  0  0  0  0  0
   36.4980   24.0010   30.8660 N   0  0  0  0  0  0  0  0  0  0  0  0
   36.2770   24.7200   31.9910 C   0  0  0  0  0  0  0  0  0  0  0  0
   37.3940   25.2220   32.4690 N   0  0  0  0  0  0  0  0  0  0  0  0
   39.2610   27.1410   35.6490 N   0  0  0  0  0  0  0  0  0  0  0  0
   38.2150   26.1970   35.9980 C   0  0  0  0  0  0  0  0  0  0  0  0
   38.0520   25.3010   34.7820 C   0  0  0  0  0  0  0  0  0  0  0  0
   37.2860   25.9930   33.6680 C   0  0  0  0  0  0  0  0  0  0  0  0
   38.0620   27.3370   33.5240 C   0  0  0  0  0  0  0  0  0  0  0  0
   39.4000   27.2640   34.2080 C   0  0  0  0  0  0  0  0  0  0  0  0
   40.2439   23.5946   33.0810 H   0  0  0  0  0  0  0  0  0  0  0  0
   42.0689   27.3314   30.5898 H   0  0  0  0  0  0  0  0  0  0  0  0
   42.3641   21.9756   32.2991 H   0  0  0  0  0  0  0  0  0  0  0  0
   45.1142   22.1409   36.6096 H   0  0  0  0  0  0  0  0  0  0  0  0
   44.3624   26.3117   36.8919 H   0  0  0  0  0  0  0  0  0  0  0  0
   38.3514   23.5601   29.7668 H   0  0  0  0  0  0  0  0  0  0  0  0
   35.2871   24.8660   32.4480 H   0  0  0  0  0  0  0  0  0  0  0  0
   39.0265   28.0631   36.0436 H   0  0  0  0  0  0  0  0  0  0  0  0
   38.5105   25.6034   36.8757 H   0  0  0  0  0  0  0  0  0  0  0  0
   37.2755   26.7073   36.2568 H   0  0  0  0  0  0  0  0  0  0  0  0
   39.0487   25.0229   34.4089 H   0  0  0  0  0  0  0  0  0  0  0  0
   37.4809   24.4118   35.0875 H   0  0  0  0  0  0  0  0  0  0  0  0
   36.2119   26.1252   33.8649 H   0  0  0  0  0  0  0  0  0  0  0  0
   38.2154   27.5510   32.4560 H   0  0  0  0  0  0  0  0  0  0  0  0
   37.4705   28.1351   33.9963 H   0  0  0  0  0  0  0  0  0  0  0  0
   39.9480   26.3897   33.8268 H   0  0  0  0  0  0  0  0  0  0  0  0
   39.9455   28.1950   33.9944 H   0  0  0  0  0  0  0  0  0  0  0  0
  1  7  1  0
  2  1  2  0
  3  2  1  0
  4  5  1  0
  4  3  2  0
  5  6  2  0
  6  1  1  0
  7 15  1  0
  8  7  1  0
  8  9  2  0
  9 10  1  0
 10 11  2  0
 11 12  1  0
 13 12  2  0
 14 13  1  0
 15 10  1  0
 15 14  2  0
 16  3  1  0
 16 20  1  0
 17 18  1  0
 17 16  2  0
 18 19  2  0
 19 20  1  0
 20 24  1  0
 21 22  1  0
 23 22  1  0
 24 23  1  0
 25 24  1  0
 25 26  1  0
 26 21  1  0
  2 27  1  0
  5 28  1  0
  8 29  1  0
 11 30  1  0
 13 31  1  0
 17 32  1  0
 19 33  1  0
 21 34  1  0
 22 35  1  0
 22 36  1  0
 23 37  1  0
 23 38  1  0
 24 39  1  0
 25 40  1  0
 25 41  1  0
 26 42  1  0
 26 43  1  0
M  ISO  8  27  14  28  14  29  14  30  14  31  14  32  14  33  14  34   5
M  ISO  8  35  13  36  13  37  13  38  13  39  13  40  13  41  13  42  13
M  ISO  1  43  13
M  END
>  <minimizedAffinity>  (1) 
-4.29086971

>  <minimizedRMSD>  (1) 
6.06636524

$$$$
