
     RDKit          3D

 47 52  0  0  0  0  0  0  0  0999 V2000
   41.9290   22.2180   36.6290 C   0  0  0  0  0  0  0  0  0  0  0  0
   42.1970   20.8590   36.7810 C   0  0  0  0  0  0  0  0  0  0  0  0
   43.5230   20.7190   36.5240 N   0  0  0  0  0  0  0  0  0  0  0  0
   43.9980   21.9660   36.2320 C   0  0  0  0  0  0  0  0  0  0  0  0
   43.0440   22.8790   36.2930 N   0  0  0  0  0  0  0  0  0  0  0  0
   38.6640   23.9010   35.9290 C   0  0  0  0  0  0  0  0  0  0  0  0
   39.9300   23.3450   35.7790 C   0  0  0  0  0  0  0  0  0  0  0  0
   40.6140   22.7880   36.8180 C   0  0  0  0  0  0  0  0  0  0  0  0
   39.9550   22.8190   38.0200 N   0  0  0  0  0  0  0  0  0  0  0  0
   38.7450   23.3520   38.1560 C   0  0  0  0  0  0  0  0  0  0  0  0
   38.0880   23.8890   37.1510 N   0  0  0  0  0  0  0  0  0  0  0  0
   38.0990   24.4460   34.7040 N   0  0  0  0  0  0  0  0  0  0  0  0
   37.9660   23.6850   33.6050 C   0  0  0  0  0  0  0  0  0  0  0  0
   37.4140   24.5140   32.6760 N   0  0  0  0  0  0  0  0  0  0  0  0
   37.2270   25.7500   33.2290 C   0  0  0  0  0  0  0  0  0  0  0  0
   36.7280   26.9670   32.8130 C   0  0  0  0  0  0  0  0  0  0  0  0
   36.6700   28.0430   33.6190 N   0  0  0  0  0  0  0  0  0  0  0  0
   37.1150   27.9510   34.8900 C   0  0  0  0  0  0  0  0  0  0  0  0
   37.6080   26.7580   35.3090 N   0  0  0  0  0  0  0  0  0  0  0  0
   37.6700   25.6940   34.5290 C   0  0  0  0  0  0  0  0  0  0  0  0
   43.4010   24.2430   36.0080 C   0  0  0  0  0  0  0  0  0  0  0  0
   44.0880   24.9710   37.1400 C   0  0  0  0  0  0  0  0  0  0  0  0
   45.2850   25.5930   36.5790 N   0  0  0  0  0  0  0  0  0  0  0  0
   45.4480   26.4420   35.5550 C   0  0  0  0  0  0  0  0  0  0  0  0
   46.7660   26.7400   35.4160 N   0  0  0  0  0  0  0  0  0  0  0  0
   47.3930   26.0560   36.3710 C   0  0  0  0  0  0  0  0  0  0  0  0
   48.7320   25.9810   36.6950 C   0  0  0  0  0  0  0  0  0  0  0  0
   49.1330   25.2110   37.7190 N   0  0  0  0  0  0  0  0  0  0  0  0
   48.2470   24.4860   38.4610 C   0  0  0  0  0  0  0  0  0  0  0  0
   46.9410   24.5530   38.1520 N   0  0  0  0  0  0  0  0  0  0  0  0
   46.5020   25.3160   37.1320 C   0  0  0  0  0  0  0  0  0  0  0  0
   49.7570   26.6680   36.0250 N   0  0  0  0  0  0  0  0  0  0  0  0
   41.4842   20.0663   37.0522 H   0  0  0  0  0  0  0  0  0  0  0  0
   45.0457   22.1837   35.9774 H   0  0  0  0  0  0  0  0  0  0  0  0
   40.3973   23.3552   34.7833 H   0  0  0  0  0  0  0  0  0  0  0  0
   38.2737   23.3437   39.1499 H   0  0  0  0  0  0  0  0  0  0  0  0
   38.2417   22.6272   33.4826 H   0  0  0  0  0  0  0  0  0  0  0  0
   36.3625   27.0617   31.7798 H   0  0  0  0  0  0  0  0  0  0  0  0
   37.0791   28.8177   35.5664 H   0  0  0  0  0  0  0  0  0  0  0  0
   44.0771   24.2450   35.1403 H   0  0  0  0  0  0  0  0  0  0  0  0
   42.4569   24.7772   35.8258 H   0  0  0  0  0  0  0  0  0  0  0  0
   43.4207   25.7407   37.5551 H   0  0  0  0  0  0  0  0  0  0  0  0
   44.3484   24.2780   37.9536 H   0  0  0  0  0  0  0  0  0  0  0  0
   44.6384   26.8371   34.9237 H   0  0  0  0  0  0  0  0  0  0  0  0
   48.5947   23.8592   39.2954 H   0  0  0  0  0  0  0  0  0  0  0  0
   50.7349   26.5583   36.3293 H   0  0  0  0  0  0  0  0  0  0  0  0
   49.5310   27.2816   35.2292 H   0  0  0  0  0  0  0  0  0  0  0  0
  1  2  2  0
  1  8  1  0
  3  2  1  0
  4  5  1  0
  4  3  2  0
  5  1  1  0
  6 11  1  0
  7  6  2  0
  7  8  1  0
  8  9  2  0
  9 10  1  0
 11 10  2  0
 12  6  1  0
 13 12  1  0
 14 15  1  0
 14 13  2  0
 15 20  2  0
 16 15  1  0
 16 17  2  0
 17 18  1  0
 18 19  2  0
 20 12  1  0
 20 19  1  0
 21  5  1  0
 21 22  1  0
 23 31  1  0
 23 22  1  0
 24 23  1  0
 25 24  2  0
 25 26  1  0
 26 27  2  0
 26 31  1  0
 27 28  1  0
 28 29  2  0
 30 29  1  0
 31 30  2  0
 32 27  1  0
  2 33  1  0
  4 34  1  0
  7 35  1  0
 10 36  1  0
 13 37  1  0
 16 38  1  0
 18 39  1  0
 21 40  1  0
 21 41  1  0
 22 42  1  0
 22 43  1  0
 24 44  1  0
 29 45  1  0
 32 46  1  0
 32 47  1  0
M  ISO  8  33  14  34  14  35  14  36  14  37  14  38  14  39  14  40   8
M  ISO  5  41   8  42   8  43   8  44  14  45  14
M  END
>  <minimizedAffinity>  (1) 
-5.99931288

>  <minimizedRMSD>  (1) 
2.29665446

$$$$
