
     RDKit          3D

 39 43  0  0  0  0  0  0  0  0999 V2000
   38.6210   23.9210   35.9260 C   0  0  0  0  0  0  0  0  0  0  0  0
   39.8900   23.3680   35.7940 C   0  0  0  0  0  0  0  0  0  0  0  0
   40.5650   22.8060   36.8290 C   0  0  0  0  0  0  0  0  0  0  0  0
   39.8940   22.8280   38.0210 N   0  0  0  0  0  0  0  0  0  0  0  0
   38.6750   23.3590   38.1500 C   0  0  0  0  0  0  0  0  0  0  0  0
   38.0390   23.8980   37.1350 N   0  0  0  0  0  0  0  0  0  0  0  0
   38.0670   24.4720   34.6980 N   0  0  0  0  0  0  0  0  0  0  0  0
   37.9460   23.7000   33.5890 C   0  0  0  0  0  0  0  0  0  0  0  0
   37.4030   24.5350   32.6610 N   0  0  0  0  0  0  0  0  0  0  0  0
   37.2090   25.7700   33.2090 C   0  0  0  0  0  0  0  0  0  0  0  0
   36.7120   26.9870   32.7880 C   0  0  0  0  0  0  0  0  0  0  0  0
   36.6490   28.0720   33.6120 N   0  0  0  0  0  0  0  0  0  0  0  0
   37.0810   27.9670   34.8750 C   0  0  0  0  0  0  0  0  0  0  0  0
   37.5690   26.7770   35.2940 N   0  0  0  0  0  0  0  0  0  0  0  0
   37.6390   25.7100   34.5110 C   0  0  0  0  0  0  0  0  0  0  0  0
   41.8870   22.2420   36.6460 C   0  0  0  0  0  0  0  0  0  0  0  0
   42.1500   20.8820   36.7570 C   0  0  0  0  0  0  0  0  0  0  0  0
   43.4750   20.7530   36.5220 N   0  0  0  0  0  0  0  0  0  0  0  0
   43.9620   22.0020   36.2800 C   0  0  0  0  0  0  0  0  0  0  0  0
   43.0110   22.9130   36.3530 N   0  0  0  0  0  0  0  0  0  0  0  0
   43.3650   24.2880   36.1230 C   0  0  0  0  0  0  0  0  0  0  0  0
   44.3790   24.8560   37.0770 C   0  0  0  0  0  0  0  0  0  0  0  0
   45.3400   25.7070   36.3650 C   0  0  0  0  0  0  0  0  0  0  0  0
   46.6440   25.9650   36.5800 N   0  0  0  0  0  0  0  0  0  0  0  0
   47.0910   26.7810   35.6950 O   0  0  0  0  0  0  0  0  0  0  0  0
   46.1040   27.0780   34.8810 C   0  0  0  0  0  0  0  0  0  0  0  0
   44.9980   26.4290   35.2680 N   0  0  0  0  0  0  0  0  0  0  0  0
   40.3695   23.3868   34.8042 H   0  0  0  0  0  0  0  0  0  0  0  0
   38.1889   23.3444   39.1367 H   0  0  0  0  0  0  0  0  0  0  0  0
   38.2230   22.6424   33.4676 H   0  0  0  0  0  0  0  0  0  0  0  0
   36.3545   27.0851   31.7524 H   0  0  0  0  0  0  0  0  0  0  0  0
   37.0400   28.8293   35.5567 H   0  0  0  0  0  0  0  0  0  0  0  0
   41.4325   20.0807   36.9872 H   0  0  0  0  0  0  0  0  0  0  0  0
   45.0153   22.2229   36.0525 H   0  0  0  0  0  0  0  0  0  0  0  0
   43.7732   24.3686   35.1047 H   0  0  0  0  0  0  0  0  0  0  0  0
   42.4439   24.8699   36.2744 H   0  0  0  0  0  0  0  0  0  0  0  0
   43.8611   25.4559   37.8398 H   0  0  0  0  0  0  0  0  0  0  0  0
   44.9239   24.0259   37.5503 H   0  0  0  0  0  0  0  0  0  0  0  0
   46.1746   27.7542   34.0163 H   0  0  0  0  0  0  0  0  0  0  0  0
  1  6  1  0
  2  1  2  0
  2  3  1  0
  3  4  2  0
  4  5  1  0
  6  5  2  0
  7  1  1  0
  8  7  1  0
  9 10  1  0
  9  8  2  0
 10 15  2  0
 11 10  1  0
 11 12  2  0
 12 13  1  0
 13 14  2  0
 15  7  1  0
 15 14  1  0
 16 17  2  0
 16  3  1  0
 18 17  1  0
 19 20  1  0
 19 18  2  0
 20 16  1  0
 21 20  1  0
 21 22  1  0
 23 24  2  0
 23 22  1  0
 25 24  1  0
 26 27  2  0
 26 25  1  0
 27 23  1  0
  2 28  1  0
  5 29  1  0
  8 30  1  0
 11 31  1  0
 13 32  1  0
 17 33  1  0
 19 34  1  0
 21 35  1  0
 21 36  1  0
 22 37  1  0
 22 38  1  0
 26 39  1  0
M  ISO  8  28  14  29  14  30  14  31  14  32  14  33  14  34  14  35   8
M  ISO  4  36   8  37   8  38   8  39  14
M  END
>  <minimizedAffinity>  (1) 
-5.50422573

>  <minimizedRMSD>  (1) 
0.88230896

$$$$
