
     RDKit          3D

 41 45  0  0  0  0  0  0  0  0999 V2000
   38.2150   24.2370   35.7240 C   0  0  0  0  0  0  0  0  0  0  0  0
   39.4730   23.6490   35.7120 C   0  0  0  0  0  0  0  0  0  0  0  0
   40.0450   23.0830   36.7990 C   0  0  0  0  0  0  0  0  0  0  0  0
   39.2620   23.1380   37.9400 N   0  0  0  0  0  0  0  0  0  0  0  0
   38.0510   23.7040   37.9520 C   0  0  0  0  0  0  0  0  0  0  0  0
   37.5190   24.2480   36.8790 N   0  0  0  0  0  0  0  0  0  0  0  0
   37.7960   24.7860   34.4410 N   0  0  0  0  0  0  0  0  0  0  0  0
   37.8600   24.0580   33.3210 C   0  0  0  0  0  0  0  0  0  0  0  0
   37.3960   24.8850   32.3460 N   0  0  0  0  0  0  0  0  0  0  0  0
   37.0630   26.0890   32.8940 C   0  0  0  0  0  0  0  0  0  0  0  0
   36.5530   27.2990   32.4420 C   0  0  0  0  0  0  0  0  0  0  0  0
   36.3230   28.3450   33.2620 N   0  0  0  0  0  0  0  0  0  0  0  0
   36.5950   28.2230   34.5750 C   0  0  0  0  0  0  0  0  0  0  0  0
   37.0920   27.0480   35.0270 N   0  0  0  0  0  0  0  0  0  0  0  0
   37.3220   26.0160   34.2360 C   0  0  0  0  0  0  0  0  0  0  0  0
   41.3510   22.4800   36.7570 C   0  0  0  0  0  0  0  0  0  0  0  0
   41.6320   21.2200   37.2580 C   0  0  0  0  0  0  0  0  0  0  0  0
   42.9540   21.0230   37.0280 N   0  0  0  0  0  0  0  0  0  0  0  0
   43.4240   22.1400   36.4110 C   0  0  0  0  0  0  0  0  0  0  0  0
   42.4590   23.0390   36.2370 N   0  0  0  0  0  0  0  0  0  0  0  0
   42.8060   24.2860   35.5910 C   0  0  0  0  0  0  0  0  0  0  0  0
   44.0500   24.9440   36.1220 C   0  0  0  0  0  0  0  0  0  0  0  0
   44.4850   26.0000   35.2480 N   0  0  0  0  0  0  0  0  0  0  0  0
   45.6720   26.6240   35.4530 C   0  0  0  0  0  0  0  0  0  0  0  0
   45.8510   27.5990   34.4760 C   0  0  0  0  0  0  0  0  0  0  0  0
   44.7600   27.5550   33.6810 N   0  0  0  0  0  0  0  0  0  0  0  0
   43.9830   26.5980   34.1740 C   0  0  0  0  0  0  0  0  0  0  0  0
   40.0351   23.6433   34.7665 H   0  0  0  0  0  0  0  0  0  0  0  0
   37.4795   23.7152   38.8918 H   0  0  0  0  0  0  0  0  0  0  0  0
   38.2101   23.0209   33.2124 H   0  0  0  0  0  0  0  0  0  0  0  0
   36.3273   27.4090   31.3710 H   0  0  0  0  0  0  0  0  0  0  0  0
   36.4171   29.0605   35.2657 H   0  0  0  0  0  0  0  0  0  0  0  0
   40.9300   20.5245   37.7413 H   0  0  0  0  0  0  0  0  0  0  0  0
   44.4684   22.2820   36.0961 H   0  0  0  0  0  0  0  0  0  0  0  0
   41.9665   24.9847   35.7214 H   0  0  0  0  0  0  0  0  0  0  0  0
   43.0081   24.0442   34.5371 H   0  0  0  0  0  0  0  0  0  0  0  0
   43.8389   25.3637   37.1166 H   0  0  0  0  0  0  0  0  0  0  0  0
   44.8475   24.1890   36.1849 H   0  0  0  0  0  0  0  0  0  0  0  0
   46.3805   26.3956   36.2628 H   0  0  0  0  0  0  0  0  0  0  0  0
   46.7132   28.2740   34.3716 H   0  0  0  0  0  0  0  0  0  0  0  0
   43.0127   26.3256   33.7333 H   0  0  0  0  0  0  0  0  0  0  0  0
  1  6  1  0
  2  1  2  0
  2  3  1  0
  3  4  2  0
  4  5  1  0
  6  5  2  0
  7  1  1  0
  8  7  1  0
  9 10  1  0
  9  8  2  0
 10 15  2  0
 11 10  1  0
 11 12  2  0
 12 13  1  0
 13 14  2  0
 15  7  1  0
 15 14  1  0
 16  3  1  0
 16 17  2  0
 18 17  1  0
 19 18  2  0
 20 19  1  0
 20 16  1  0
 21 22  1  0
 21 20  1  0
 23 24  1  0
 23 22  1  0
 25 24  2  0
 26 27  2  0
 26 25  1  0
 27 23  1  0
  2 28  1  0
  5 29  1  0
  8 30  1  0
 11 31  1  0
 13 32  1  0
 17 33  1  0
 19 34  1  0
 21 35  1  0
 21 36  1  0
 22 37  1  0
 22 38  1  0
 24 39  1  0
 25 40  1  0
 27 41  1  0
M  ISO  8  28  14  29  14  30  14  31  14  32  14  33  14  34  14  35   8
M  ISO  6  36   8  37   8  38   8  39  14  40  14  41  14
M  END
>  <minimizedAffinity>  (1) 
-5.39673424

>  <minimizedRMSD>  (1) 
0.868560672

$$$$
