
     RDKit          3D

 36 39  0  0  0  0  0  0  0  0999 V2000
   38.5050   23.9850   35.8010 C   0  0  0  0  0  0  0  0  0  0  0  0
   39.7690   23.4240   35.7120 C   0  0  0  0  0  0  0  0  0  0  0  0
   40.4160   22.8860   36.7820 C   0  0  0  0  0  0  0  0  0  0  0  0
   39.7150   22.9440   37.9600 N   0  0  0  0  0  0  0  0  0  0  0  0
   38.5030   23.4820   38.0420 C   0  0  0  0  0  0  0  0  0  0  0  0
   37.8870   24.0000   36.9970 N   0  0  0  0  0  0  0  0  0  0  0  0
   37.9880   24.5040   34.5470 N   0  0  0  0  0  0  0  0  0  0  0  0
   37.9470   23.7300   33.4440 C   0  0  0  0  0  0  0  0  0  0  0  0
   37.4130   24.5380   32.4830 N   0  0  0  0  0  0  0  0  0  0  0  0
   37.1490   25.7550   33.0130 C   0  0  0  0  0  0  0  0  0  0  0  0
   36.6220   26.9560   32.5610 C   0  0  0  0  0  0  0  0  0  0  0  0
   36.4780   28.0320   33.3610 N   0  0  0  0  0  0  0  0  0  0  0  0
   36.8540   27.9560   34.6450 C   0  0  0  0  0  0  0  0  0  0  0  0
   37.3730   26.7940   35.1130 N   0  0  0  0  0  0  0  0  0  0  0  0
   37.5220   25.7310   34.3490 C   0  0  0  0  0  0  0  0  0  0  0  0
   41.7360   22.3080   36.6540 C   0  0  0  0  0  0  0  0  0  0  0  0
   42.0020   20.9590   36.8270 C   0  0  0  0  0  0  0  0  0  0  0  0
   43.3350   20.8200   36.6260 N   0  0  0  0  0  0  0  0  0  0  0  0
   43.8280   22.0560   36.3450 C   0  0  0  0  0  0  0  0  0  0  0  0
   42.8710   22.9690   36.3580 N   0  0  0  0  0  0  0  0  0  0  0  0
   43.2360   24.3380   36.0770 C   0  0  0  0  0  0  0  0  0  0  0  0
   44.3640   24.8780   36.9140 C   0  0  0  0  0  0  0  0  0  0  0  0
   44.5990   26.2580   36.5340 N   0  0  0  0  0  0  0  0  0  0  0  0
   40.2716   23.4130   34.7336 H   0  0  0  0  0  0  0  0  0  0  0  0
   37.9945   23.4960   39.0173 H   0  0  0  0  0  0  0  0  0  0  0  0
   38.2708   22.6837   33.3419 H   0  0  0  0  0  0  0  0  0  0  0  0
   36.3095   27.0336   31.5092 H   0  0  0  0  0  0  0  0  0  0  0  0
   36.7431   28.8248   35.3105 H   0  0  0  0  0  0  0  0  0  0  0  0
   41.2812   20.1661   37.0757 H   0  0  0  0  0  0  0  0  0  0  0  0
   44.8864   22.2690   36.1341 H   0  0  0  0  0  0  0  0  0  0  0  0
   43.5339   24.4021   35.0200 H   0  0  0  0  0  0  0  0  0  0  0  0
   42.3533   24.9482   36.3186 H   0  0  0  0  0  0  0  0  0  0  0  0
   44.0931   24.8273   37.9789 H   0  0  0  0  0  0  0  0  0  0  0  0
   45.2738   24.2817   36.7504 H   0  0  0  0  0  0  0  0  0  0  0  0
   44.6973   26.8354   37.3812 H   0  0  0  0  0  0  0  0  0  0  0  0
   45.4623   26.3181   35.9755 H   0  0  0  0  0  0  0  0  0  0  0  0
  1  6  1  0
  2  1  2  0
  2  3  1  0
  3  4  2  0
  4  5  1  0
  6  5  2  0
  7  1  1  0
  8  7  1  0
  9 10  1  0
  9  8  2  0
 10 15  2  0
 11 10  1  0
 11 12  2  0
 12 13  1  0
 13 14  2  0
 15  7  1  0
 15 14  1  0
 16  3  1  0
 16 17  2  0
 18 17  1  0
 19 20  1  0
 19 18  2  0
 20 16  1  0
 21 20  1  0
 21 22  1  0
 23 22  1  0
  2 24  1  0
  5 25  1  0
  8 26  1  0
 11 27  1  0
 13 28  1  0
 17 29  1  0
 19 30  1  0
 21 31  1  0
 21 32  1  0
 22 33  1  0
 22 34  1  0
 23 35  1  0
 23 36  1  0
M  ISO  8  24  14  25  14  26  14  27  14  28  14  29  14  30  14  31   8
M  ISO  5  32   8  33   8  34   8  35   5  36   5
M  END
>  <minimizedAffinity>  (1) 
-5.17128754

>  <minimizedRMSD>  (1) 
0.0298726372

$$$$
