
     RDKit          3D

 40 44  0  0  0  0  0  0  0  0999 V2000
   38.3010   24.2060   35.8490 C   0  0  0  0  0  0  0  0  0  0  0  0
   39.5470   23.6050   35.8070 C   0  0  0  0  0  0  0  0  0  0  0  0
   40.1350   23.0310   36.8910 C   0  0  0  0  0  0  0  0  0  0  0  0
   39.3830   23.0960   38.0400 N   0  0  0  0  0  0  0  0  0  0  0  0
   38.1820   23.6750   38.0790 C   0  0  0  0  0  0  0  0  0  0  0  0
   37.6320   24.2260   37.0140 N   0  0  0  0  0  0  0  0  0  0  0  0
   37.8560   24.7610   34.5780 N   0  0  0  0  0  0  0  0  0  0  0  0
   37.8680   24.0150   33.4570 C   0  0  0  0  0  0  0  0  0  0  0  0
   37.3960   24.8470   32.4890 N   0  0  0  0  0  0  0  0  0  0  0  0
   37.1090   26.0670   33.0320 C   0  0  0  0  0  0  0  0  0  0  0  0
   36.6210   27.2780   32.5910 C   0  0  0  0  0  0  0  0  0  0  0  0
   36.4400   28.3390   33.4060 N   0  0  0  0  0  0  0  0  0  0  0  0
   36.7490   28.2250   34.7190 C   0  0  0  0  0  0  0  0  0  0  0  0
   37.2280   27.0400   35.1570 N   0  0  0  0  0  0  0  0  0  0  0  0
   37.4100   25.9890   34.3670 C   0  0  0  0  0  0  0  0  0  0  0  0
   41.4390   22.4110   36.8140 C   0  0  0  0  0  0  0  0  0  0  0  0
   41.6930   21.1140   37.2260 C   0  0  0  0  0  0  0  0  0  0  0  0
   43.0130   20.9140   36.9920 N   0  0  0  0  0  0  0  0  0  0  0  0
   43.5070   22.0660   36.4600 C   0  0  0  0  0  0  0  0  0  0  0  0
   42.5650   22.9860   36.3440 N   0  0  0  0  0  0  0  0  0  0  0  0
   42.9280   24.2530   35.8000 C   0  0  0  0  0  0  0  0  0  0  0  0
   44.2550   24.8080   36.2730 C   0  0  0  0  0  0  0  0  0  0  0  0
   44.5790   25.9380   35.4170 N   0  0  0  0  0  0  0  0  0  0  0  0
   43.8050   26.3070   34.3570 C   0  0  0  0  0  0  0  0  0  0  0  0
   44.3210   27.3770   33.7310 N   0  0  0  0  0  0  0  0  0  0  0  0
   45.4300   27.6860   34.4040 C   0  0  0  0  0  0  0  0  0  0  0  0
   45.5870   26.8090   35.4310 N   0  0  0  0  0  0  0  0  0  0  0  0
   40.0886   23.5908   34.8497 H   0  0  0  0  0  0  0  0  0  0  0  0
   37.6316   23.6937   39.0312 H   0  0  0  0  0  0  0  0  0  0  0  0
   38.1876   22.9681   33.3481 H   0  0  0  0  0  0  0  0  0  0  0  0
   36.3673   27.3851   31.5260 H   0  0  0  0  0  0  0  0  0  0  0  0
   36.6142   29.0715   35.4084 H   0  0  0  0  0  0  0  0  0  0  0  0
   40.9756   20.3976   37.6528 H   0  0  0  0  0  0  0  0  0  0  0  0
   44.5564   22.2124   36.1644 H   0  0  0  0  0  0  0  0  0  0  0  0
   42.1431   24.9751   36.0691 H   0  0  0  0  0  0  0  0  0  0  0  0
   43.0340   24.0978   34.7162 H   0  0  0  0  0  0  0  0  0  0  0  0
   44.1737   25.1388   37.3189 H   0  0  0  0  0  0  0  0  0  0  0  0
   45.0406   24.0399   36.2192 H   0  0  0  0  0  0  0  0  0  0  0  0
   42.8794   25.7954   34.0544 H   0  0  0  0  0  0  0  0  0  0  0  0
   46.1094   28.5178   34.1662 H   0  0  0  0  0  0  0  0  0  0  0  0
  1  6  1  0
  2  1  2  0
  2  3  1  0
  3  4  2  0
  4  5  1  0
  6  5  2  0
  7  1  1  0
  8  7  1  0
  9 10  1  0
  9  8  2  0
 10 15  2  0
 11 10  1  0
 11 12  2  0
 12 13  1  0
 13 14  2  0
 15  7  1  0
 15 14  1  0
 16  3  1  0
 16 17  2  0
 18 17  1  0
 19 18  2  0
 20 19  1  0
 20 16  1  0
 21 22  1  0
 21 20  1  0
 23 27  1  0
 23 22  1  0
 24 23  1  0
 25 24  2  0
 25 26  1  0
 26 27  2  0
  2 28  1  0
  5 29  1  0
  8 30  1  0
 11 31  1  0
 13 32  1  0
 17 33  1  0
 19 34  1  0
 21 35  1  0
 21 36  1  0
 22 37  1  0
 22 38  1  0
 24 39  1  0
 26 40  1  0
M  ISO  8  28  14  29  14  30  14  31  14  32  14  33  14  34  14  35   8
M  ISO  5  36   8  37   8  38   8  39  14  40  14
M  END
>  <minimizedAffinity>  (1) 
-5.41468287

>  <minimizedRMSD>  (1) 
0.829061627

$$$$
