
     RDKit          3D

 20 21  0  0  0  0  0  0  0  0999 V2000
   38.2590   23.8720   37.0210 C   0  0  0  0  0  0  0  0  0  0  0  0
   38.7700   22.8000   36.2780 C   0  0  0  0  0  0  0  0  0  0  0  0
   38.7770   22.9070   34.8810 C   0  0  0  0  0  0  0  0  0  0  0  0
   38.2860   24.0460   34.3340 N   0  0  0  0  0  0  0  0  0  0  0  0
   37.8010   25.0610   35.0790 C   0  0  0  0  0  0  0  0  0  0  0  0
   37.7800   24.9880   36.4280 N   0  0  0  0  0  0  0  0  0  0  0  0
   37.3260   26.1810   34.3380 N   0  0  0  0  0  0  0  0  0  0  0  0
   37.0360   25.8870   33.0620 N   0  0  0  0  0  0  0  0  0  0  0  0
   36.5980   26.9910   32.4350 C   0  0  0  0  0  0  0  0  0  0  0  0
   36.6180   28.0050   33.3590 C   0  0  0  0  0  0  0  0  0  0  0  0
   37.0770   27.4940   34.5550 C   0  0  0  0  0  0  0  0  0  0  0  0
   38.2290   23.8050   38.5200 C   0  0  0  0  0  0  0  0  0  0  0  0
   39.4930   23.4610   39.0270 F   0  0  0  0  0  0  0  0  0  0  0  0
   37.8820   25.0120   39.0670 F   0  0  0  0  0  0  0  0  0  0  0  0
   37.3190   22.8300   38.9070 F   0  0  0  0  0  0  0  0  0  0  0  0
   39.1552   21.8989   36.7776 H   0  0  0  0  0  0  0  0  0  0  0  0
   39.1674   22.0949   34.2500 H   0  0  0  0  0  0  0  0  0  0  0  0
   36.2839   27.0675   31.3836 H   0  0  0  0  0  0  0  0  0  0  0  0
   36.3189   29.0478   33.1770 H   0  0  0  0  0  0  0  0  0  0  0  0
   37.2136   28.0439   35.4978 H   0  0  0  0  0  0  0  0  0  0  0  0
  1 12  1  0
  2  1  2  0
  3  2  1  0
  4  3  2  0
  4  5  1  0
  5  6  2  0
  6  1  1  0
  7 11  1  0
  7  5  1  0
  8  7  1  0
  9  8  2  0
  9 10  1  0
 10 11  2  0
 12 15  1  0
 12 13  1  0
 12 14  1  0
  2 16  1  0
  3 17  1  0
  9 18  1  0
 10 19  1  0
 11 20  1  0
M  ISO  5  16  14  17  14  18  14  19  14  20  14
M  END
>  <minimizedAffinity>  (1) 
-5.06393337

>  <minimizedRMSD>  (1) 
0.648002326

$$$$
