
     RDKit          3D

 35 38  0  0  0  0  0  0  0  0999 V2000
   38.4190   24.0680   35.8110 C   0  0  0  0  0  0  0  0  0  0  0  0
   39.6920   23.5000   35.7440 C   0  0  0  0  0  0  0  0  0  0  0  0
   40.3130   22.9600   36.8270 C   0  0  0  0  0  0  0  0  0  0  0  0
   39.5910   23.0200   37.9870 N   0  0  0  0  0  0  0  0  0  0  0  0
   38.3760   23.5630   38.0500 C   0  0  0  0  0  0  0  0  0  0  0  0
   37.7790   24.0840   36.9960 N   0  0  0  0  0  0  0  0  0  0  0  0
   37.9260   24.5920   34.5460 N   0  0  0  0  0  0  0  0  0  0  0  0
   37.9100   23.8290   33.4360 C   0  0  0  0  0  0  0  0  0  0  0  0
   37.3980   24.6260   32.4680 N   0  0  0  0  0  0  0  0  0  0  0  0
   37.1130   25.8490   32.9920 C   0  0  0  0  0  0  0  0  0  0  0  0
   36.5920   27.0510   32.5420 C   0  0  0  0  0  0  0  0  0  0  0  0
   36.4290   28.1210   33.3470 N   0  0  0  0  0  0  0  0  0  0  0  0
   36.7780   28.0390   34.6350 C   0  0  0  0  0  0  0  0  0  0  0  0
   37.2890   26.8700   35.0930 N   0  0  0  0  0  0  0  0  0  0  0  0
   37.4570   25.8160   34.3310 C   0  0  0  0  0  0  0  0  0  0  0  0
   41.6330   22.3790   36.7170 C   0  0  0  0  0  0  0  0  0  0  0  0
   41.8970   21.0420   36.9550 C   0  0  0  0  0  0  0  0  0  0  0  0
   43.2320   20.8850   36.7540 N   0  0  0  0  0  0  0  0  0  0  0  0
   43.7130   22.1070   36.4110 C   0  0  0  0  0  0  0  0  0  0  0  0
   42.7660   23.0290   36.3820 N   0  0  0  0  0  0  0  0  0  0  0  0
   43.1220   24.3670   36.0370 C   0  0  0  0  0  0  0  0  0  0  0  0
   44.4790   24.8120   36.5060 C   0  0  0  0  0  0  0  0  0  0  0  0
   44.5110   25.2680   37.8080 O   0  0  0  0  0  0  0  0  0  0  0  0
   40.2144   23.4885   34.7760 H   0  0  0  0  0  0  0  0  0  0  0  0
   37.8516   23.5772   39.0168 H   0  0  0  0  0  0  0  0  0  0  0  0
   38.2411   22.7847   33.3372 H   0  0  0  0  0  0  0  0  0  0  0  0
   36.2993   27.1364   31.4851 H   0  0  0  0  0  0  0  0  0  0  0  0
   36.6533   28.9004   35.3076 H   0  0  0  0  0  0  0  0  0  0  0  0
   41.1747   20.2654   37.2470 H   0  0  0  0  0  0  0  0  0  0  0  0
   44.7703   22.3074   36.1831 H   0  0  0  0  0  0  0  0  0  0  0  0
   43.0961   24.4536   34.9407 H   0  0  0  0  0  0  0  0  0  0  0  0
   42.3957   25.0163   36.5478 H   0  0  0  0  0  0  0  0  0  0  0  0
   45.1684   23.9589   36.4232 H   0  0  0  0  0  0  0  0  0  0  0  0
   44.7685   25.6607   35.8690 H   0  0  0  0  0  0  0  0  0  0  0  0
   44.4570   24.4985   38.4286 H   0  0  0  0  0  0  0  0  0  0  0  0
  1  6  1  0
  2  1  2  0
  2  3  1  0
  3  4  2  0
  4  5  1  0
  6  5  2  0
  7  1  1  0
  8  7  1  0
  9 10  1  0
  9  8  2  0
 10 15  2  0
 11 10  1  0
 11 12  2  0
 12 13  1  0
 13 14  2  0
 15  7  1  0
 15 14  1  0
 16  3  1  0
 16 17  2  0
 18 17  1  0
 19 18  2  0
 20 19  1  0
 20 16  1  0
 21 20  1  0
 21 22  1  0
 22 23  1  0
  2 24  1  0
  5 25  1  0
  8 26  1  0
 11 27  1  0
 13 28  1  0
 17 29  1  0
 19 30  1  0
 21 31  1  0
 21 32  1  0
 22 33  1  0
 22 34  1  0
 23 35  1  0
M  ISO  8  24  14  25  14  26  14  27  14  28  14  29  14  30  14  31   8
M  ISO  4  32   8  33   8  34   8  35   3
M  END
>  <minimizedAffinity>  (1) 
-5.03599787

>  <minimizedRMSD>  (1) 
0.203126431

$$$$
