
     RDKit          3D

 27 29  0  0  0  0  0  0  0  0999 V2000
   41.6200   21.4630   37.4320 C   0  0  0  0  0  0  0  0  0  0  0  0
   41.2270   22.7410   37.0220 C   0  0  0  0  0  0  0  0  0  0  0  0
   41.5330   23.1660   35.7380 C   0  0  0  0  0  0  0  0  0  0  0  0
   42.2020   22.3050   34.9490 N   0  0  0  0  0  0  0  0  0  0  0  0
   42.5850   21.0740   35.3330 C   0  0  0  0  0  0  0  0  0  0  0  0
   42.2850   20.6570   36.5900 N   0  0  0  0  0  0  0  0  0  0  0  0
   41.1560   24.4600   35.2680 N   0  0  0  0  0  0  0  0  0  0  0  0
   39.8600   24.7590   35.0320 C   0  0  0  0  0  0  0  0  0  0  0  0
   39.8860   26.0630   34.6010 C   0  0  0  0  0  0  0  0  0  0  0  0
   41.1430   26.5160   34.5810 N   0  0  0  0  0  0  0  0  0  0  0  0
   41.9650   25.5110   35.0020 C   0  0  0  0  0  0  0  0  0  0  0  0
   38.7030   26.8280   34.2230 C   0  0  0  0  0  0  0  0  0  0  0  0
   37.8290   27.3720   35.1470 C   0  0  0  0  0  0  0  0  0  0  0  0
   36.7030   28.0990   34.8000 C   0  0  0  0  0  0  0  0  0  0  0  0
   36.4770   28.2690   33.4360 C   0  0  0  0  0  0  0  0  0  0  0  0
   37.2980   27.7610   32.4460 C   0  0  0  0  0  0  0  0  0  0  0  0
   38.3890   27.0540   32.9000 C   0  0  0  0  0  0  0  0  0  0  0  0
   41.3830   21.1170   38.4489 H   0  0  0  0  0  0  0  0  0  0  0  0
   40.6808   23.4022   37.7109 H   0  0  0  0  0  0  0  0  0  0  0  0
   43.1317   20.4167   34.6409 H   0  0  0  0  0  0  0  0  0  0  0  0
   38.9832   24.1066   35.1566 H   0  0  0  0  0  0  0  0  0  0  0  0
   43.0596   25.5481   35.1040 H   0  0  0  0  0  0  0  0  0  0  0  0
   38.0401   27.2186   36.2156 H   0  0  0  0  0  0  0  0  0  0  0  0
   36.0254   28.5185   35.5582 H   0  0  0  0  0  0  0  0  0  0  0  0
   35.5907   28.8428   33.1274 H   0  0  0  0  0  0  0  0  0  0  0  0
   37.0947   27.9106   31.3753 H   0  0  0  0  0  0  0  0  0  0  0  0
   39.0674   26.6340   32.1427 H   0  0  0  0  0  0  0  0  0  0  0  0
  2  1  2  0
  3  2  1  0
  4  5  1  0
  4  3  2  0
  5  6  2  0
  6  1  1  0
  7  3  1  0
  8  7  1  0
  9  8  2  0
 10  9  1  0
 10 11  2  0
 11  7  1  0
 12  9  1  0
 12 13  2  0
 14 13  1  0
 15 14  2  0
 16 17  2  0
 16 15  1  0
 17 12  1  0
  1 18  1  0
  2 19  1  0
  5 20  1  0
  8 21  1  0
 11 22  1  0
 13 23  1  0
 14 24  1  0
 15 25  1  0
 16 26  1  0
 17 27  1  0
M  ISO  8  18  14  19  14  20  14  21  14  22  14  23  14  24  14  25  14
M  ISO  2  26  14  27  14
M  END
>  <minimizedAffinity>  (1) 
-4.4864974

>  <minimizedRMSD>  (1) 
2.79778266

$$$$
