
     RDKit          3D

 27 29  0  0  0  0  0  0  0  0999 V2000
   40.1740   22.3190   37.5030 C   0  0  0  0  0  0  0  0  0  0  0  0
   39.6810   23.5460   37.0140 C   0  0  0  0  0  0  0  0  0  0  0  0
   40.0650   23.9170   35.7330 C   0  0  0  0  0  0  0  0  0  0  0  0
   40.8830   23.0910   35.0410 N   0  0  0  0  0  0  0  0  0  0  0  0
   41.3420   21.9200   35.5340 C   0  0  0  0  0  0  0  0  0  0  0  0
   40.9730   21.5490   36.7780 N   0  0  0  0  0  0  0  0  0  0  0  0
   39.6110   25.1530   35.1500 N   0  0  0  0  0  0  0  0  0  0  0  0
   38.3330   25.3070   34.7870 C   0  0  0  0  0  0  0  0  0  0  0  0
   38.2590   26.5800   34.2790 C   0  0  0  0  0  0  0  0  0  0  0  0
   39.4640   27.1540   34.3430 N   0  0  0  0  0  0  0  0  0  0  0  0
   40.3320   26.2580   34.8940 C   0  0  0  0  0  0  0  0  0  0  0  0
   37.1750   27.3230   33.7340 N   0  0  0  0  0  0  0  0  0  0  0  0
   36.5570   28.2220   34.5350 C   0  0  0  0  0  0  0  0  0  0  0  0
   35.4880   29.0200   34.1480 C   0  0  0  0  0  0  0  0  0  0  0  0
   35.0720   28.8370   32.8460 C   0  0  0  0  0  0  0  0  0  0  0  0
   34.0990   29.5370   32.4320 O   0  0  0  0  0  0  0  0  0  0  0  0
   35.6720   27.9470   32.0300 N   0  0  0  0  0  0  0  0  0  0  0  0
   36.7080   27.2040   32.4740 C   0  0  0  0  0  0  0  0  0  0  0  0
   37.2850   26.3610   31.7180 O   0  0  0  0  0  0  0  0  0  0  0  0
   39.8878   21.9918   38.5135 H   0  0  0  0  0  0  0  0  0  0  0  0
   39.0204   24.1819   37.6217 H   0  0  0  0  0  0  0  0  0  0  0  0
   42.0045   21.2804   34.9323 H   0  0  0  0  0  0  0  0  0  0  0  0
   37.5184   24.5732   34.8762 H   0  0  0  0  0  0  0  0  0  0  0  0
   41.4040   26.4089   35.0892 H   0  0  0  0  0  0  0  0  0  0  0  0
   36.9275   28.3282   35.5653 H   0  0  0  0  0  0  0  0  0  0  0  0
   35.0105   29.7417   34.8271 H   0  0  0  0  0  0  0  0  0  0  0  0
   35.3380   27.8333   31.0623 H   0  0  0  0  0  0  0  0  0  0  0  0
  2  1  2  0
  3  2  1  0
  4  5  1  0
  4  3  2  0
  5  6  2  0
  6  1  1  0
  7  3  1  0
  8  7  1  0
  9 10  1  0
  9  8  2  0
 10 11  2  0
 11  7  1  0
 12  9  1  0
 12 13  1  0
 14 13  2  0
 15 14  1  0
 16 15  2  0
 17 18  1  0
 17 15  1  0
 18 12  1  0
 19 18  2  0
  1 20  1  0
  2 21  1  0
  5 22  1  0
  8 23  1  0
 11 24  1  0
 13 25  1  0
 14 26  1  0
 17 27  1  0
M  ISO  8  20  14  21  14  22  14  23  14  24  14  25  14  26  14  27   9
M  END
>  <minimizedAffinity>  (1) 
-4.5017395

>  <minimizedRMSD>  (1) 
2.99477863

$$$$
