
     RDKit          3D

 31 34  0  0  0  0  0  0  0  0999 V2000
   41.6300   21.5650   37.2260 C   0  0  0  0  0  0  0  0  0  0  0  0
   41.1830   22.8500   36.8890 C   0  0  0  0  0  0  0  0  0  0  0  0
   41.4420   23.3190   35.6000 C   0  0  0  0  0  0  0  0  0  0  0  0
   42.1120   22.5130   34.7370 N   0  0  0  0  0  0  0  0  0  0  0  0
   42.5350   21.2710   35.0920 C   0  0  0  0  0  0  0  0  0  0  0  0
   42.2880   20.8120   36.3340 N   0  0  0  0  0  0  0  0  0  0  0  0
   41.0160   24.6200   35.1840 N   0  0  0  0  0  0  0  0  0  0  0  0
   39.7090   24.8930   35.0020 C   0  0  0  0  0  0  0  0  0  0  0  0
   39.6570   26.2000   34.6130 C   0  0  0  0  0  0  0  0  0  0  0  0
   40.9150   26.6930   34.5670 N   0  0  0  0  0  0  0  0  0  0  0  0
   41.7620   25.6990   34.9260 C   0  0  0  0  0  0  0  0  0  0  0  0
   38.4490   26.8940   34.3140 N   0  0  0  0  0  0  0  0  0  0  0  0
   37.5320   27.4040   35.1550 C   0  0  0  0  0  0  0  0  0  0  0  0
   36.5190   27.9930   34.4990 N   0  0  0  0  0  0  0  0  0  0  0  0
   36.7860   27.8620   33.1730 C   0  0  0  0  0  0  0  0  0  0  0  0
   36.0340   28.3070   32.1130 C   0  0  0  0  0  0  0  0  0  0  0  0
   34.9510   28.9240   32.2570 O   0  0  0  0  0  0  0  0  0  0  0  0
   36.5290   28.0460   30.8780 N   0  0  0  0  0  0  0  0  0  0  0  0
   37.7110   27.3720   30.7670 C   0  0  0  0  0  0  0  0  0  0  0  0
   38.2370   27.0930   29.4700 N   0  0  0  0  0  0  0  0  0  0  0  0
   38.4340   26.9430   31.8330 N   0  0  0  0  0  0  0  0  0  0  0  0
   37.9830   27.1800   33.0780 C   0  0  0  0  0  0  0  0  0  0  0  0
   41.4384   21.1700   38.2346 H   0  0  0  0  0  0  0  0  0  0  0  0
   40.6436   23.4710   37.6193 H   0  0  0  0  0  0  0  0  0  0  0  0
   43.0764   20.6438   34.3685 H   0  0  0  0  0  0  0  0  0  0  0  0
   38.8610   24.2058   35.1385 H   0  0  0  0  0  0  0  0  0  0  0  0
   42.8579   25.7668   34.9928 H   0  0  0  0  0  0  0  0  0  0  0  0
   37.6032   27.3456   36.2511 H   0  0  0  0  0  0  0  0  0  0  0  0
   36.0207   28.3518   30.0359 H   0  0  0  0  0  0  0  0  0  0  0  0
   39.1279   26.5852   29.3739 H   0  0  0  0  0  0  0  0  0  0  0  0
   37.7257   27.3995   28.6300 H   0  0  0  0  0  0  0  0  0  0  0  0
  2  1  2  0
  3  2  1  0
  4  5  1  0
  4  3  2  0
  5  6  2  0
  6  1  1  0
  7  3  1  0
  8  7  1  0
  9  8  2  0
 10  9  1  0
 10 11  2  0
 11  7  1  0
 12  9  1  0
 12 13  1  0
 14 13  2  0
 15 14  1  0
 16 17  2  0
 16 15  1  0
 18 16  1  0
 19 18  1  0
 19 21  2  0
 20 19  1  0
 21 22  1  0
 22 15  2  0
 22 12  1  0
  1 23  1  0
  2 24  1  0
  5 25  1  0
  8 26  1  0
 11 27  1  0
 13 28  1  0
 18 29  1  0
 20 30  1  0
 20 31  1  0
M  ISO  7  23  14  24  14  25  14  26  14  27  14  28  14  29   9
M  END
>  <minimizedAffinity>  (1) 
-5.11531782

>  <minimizedRMSD>  (1) 
3.34173822

$$$$
