
     RDKit          3D

 30 32  0  0  0  0  0  0  0  0999 V2000
   41.6780   21.4190   37.3580 C   0  0  0  0  0  0  0  0  0  0  0  0
   41.2700   22.7130   36.9820 C   0  0  0  0  0  0  0  0  0  0  0  0
   41.5940   23.1490   35.7060 C   0  0  0  0  0  0  0  0  0  0  0  0
   42.2860   22.3080   34.8870 N   0  0  0  0  0  0  0  0  0  0  0  0
   42.6640   21.0730   35.2730 C   0  0  0  0  0  0  0  0  0  0  0  0
   42.3580   20.6300   36.5120 N   0  0  0  0  0  0  0  0  0  0  0  0
   41.2160   24.4580   35.2430 N   0  0  0  0  0  0  0  0  0  0  0  0
   39.9190   24.7370   34.9960 C   0  0  0  0  0  0  0  0  0  0  0  0
   39.9120   26.0420   34.5790 C   0  0  0  0  0  0  0  0  0  0  0  0
   41.1820   26.5140   34.5840 N   0  0  0  0  0  0  0  0  0  0  0  0
   42.0040   25.5120   35.0030 C   0  0  0  0  0  0  0  0  0  0  0  0
   38.7430   26.7640   34.2070 N   0  0  0  0  0  0  0  0  0  0  0  0
   38.3500   26.9160   32.9290 C   0  0  0  0  0  0  0  0  0  0  0  0
   37.2430   27.5940   32.5080 C   0  0  0  0  0  0  0  0  0  0  0  0
   36.9370   27.6740   31.0360 C   0  0  0  0  0  0  0  0  0  0  0  0
   36.4580   28.1750   33.4820 C   0  0  0  0  0  0  0  0  0  0  0  0
   35.4350   28.8010   33.1040 O   0  0  0  0  0  0  0  0  0  0  0  0
   36.8180   28.0450   34.7890 N   0  0  0  0  0  0  0  0  0  0  0  0
   37.9360   27.3530   35.1010 C   0  0  0  0  0  0  0  0  0  0  0  0
   38.2100   27.2740   36.3450 O   0  0  0  0  0  0  0  0  0  0  0  0
   41.4347   21.0477   38.3645 H   0  0  0  0  0  0  0  0  0  0  0  0
   40.7124   23.3572   37.6777 H   0  0  0  0  0  0  0  0  0  0  0  0
   43.2214   20.4262   34.5794 H   0  0  0  0  0  0  0  0  0  0  0  0
   39.0560   24.0638   35.1055 H   0  0  0  0  0  0  0  0  0  0  0  0
   43.0967   25.5599   35.1205 H   0  0  0  0  0  0  0  0  0  0  0  0
   38.9776   26.4520   32.1539 H   0  0  0  0  0  0  0  0  0  0  0  0
   35.8815   27.9499   30.8954 H   0  0  0  0  0  0  0  0  0  0  0  0
   37.5801   28.4342   30.5686 H   0  0  0  0  0  0  0  0  0  0  0  0
   37.1258   26.6963   30.5686 H   0  0  0  0  0  0  0  0  0  0  0  0
   36.2443   28.4695   35.5317 H   0  0  0  0  0  0  0  0  0  0  0  0
  2  1  2  0
  3  2  1  0
  4  5  1  0
  4  3  2  0
  5  6  2  0
  6  1  1  0
  7  3  1  0
  8  7  1  0
  9 10  1  0
  9  8  2  0
 10 11  2  0
 11  7  1  0
 12  9  1  0
 12 19  1  0
 13 12  1  0
 14 13  2  0
 14 16  1  0
 15 14  1  0
 16 18  1  0
 17 16  2  0
 18 19  1  0
 19 20  2  0
  1 21  1  0
  2 22  1  0
  5 23  1  0
  8 24  1  0
 11 25  1  0
 13 26  1  0
 15 27  1  0
 15 28  1  0
 15 29  1  0
 18 30  1  0
M  ISO  8  21  14  22  14  23  14  24  14  25  14  26  14  27   8  28   8
M  ISO  2  29   8  30   9
M  END
>  <minimizedAffinity>  (1) 
-4.7480526

>  <minimizedRMSD>  (1) 
3.29987621

$$$$
