
     RDKit          3D

 25 27  0  0  0  0  0  0  0  0999 V2000
   40.7370   21.9570   37.4130 C   0  0  0  0  0  0  0  0  0  0  0  0
   39.8500   22.8200   36.7460 C   0  0  0  0  0  0  0  0  0  0  0  0
   40.3760   23.7070   35.8040 C   0  0  0  0  0  0  0  0  0  0  0  0
   41.7080   23.6840   35.5880 N   0  0  0  0  0  0  0  0  0  0  0  0
   42.5480   22.8490   36.2380 C   0  0  0  0  0  0  0  0  0  0  0  0
   42.0400   21.9790   37.1600 N   0  0  0  0  0  0  0  0  0  0  0  0
   39.5370   24.6120   35.0870 N   0  0  0  0  0  0  0  0  0  0  0  0
   38.6740   24.1510   34.1540 C   0  0  0  0  0  0  0  0  0  0  0  0
   38.0360   25.2610   33.6690 C   0  0  0  0  0  0  0  0  0  0  0  0
   38.5100   26.3440   34.2990 N   0  0  0  0  0  0  0  0  0  0  0  0
   39.4630   25.9460   35.2010 C   0  0  0  0  0  0  0  0  0  0  0  0
   37.0020   25.3310   32.6380 C   0  0  0  0  0  0  0  0  0  0  0  0
   36.5930   26.6000   32.2130 C   0  0  0  0  0  0  0  0  0  0  0  0
   35.6140   26.6000   31.2380 C   0  0  0  0  0  0  0  0  0  0  0  0
   35.0790   25.4930   30.7210 N   0  0  0  0  0  0  0  0  0  0  0  0
   35.4860   24.2870   31.1430 C   0  0  0  0  0  0  0  0  0  0  0  0
   36.4380   24.2380   32.0920 N   0  0  0  0  0  0  0  0  0  0  0  0
   40.3439   21.2502   38.1586 H   0  0  0  0  0  0  0  0  0  0  0  0
   38.7713   22.7973   36.9601 H   0  0  0  0  0  0  0  0  0  0  0  0
   43.6274   22.8697   36.0272 H   0  0  0  0  0  0  0  0  0  0  0  0
   38.5176   23.1057   33.8492 H   0  0  0  0  0  0  0  0  0  0  0  0
   40.0459   26.5880   35.8778 H   0  0  0  0  0  0  0  0  0  0  0  0
   37.0187   27.5273   32.6240 H   0  0  0  0  0  0  0  0  0  0  0  0
   35.2544   27.5707   30.8660 H   0  0  0  0  0  0  0  0  0  0  0  0
   35.0543   23.3654   30.7256 H   0  0  0  0  0  0  0  0  0  0  0  0
  2  1  2  0
  3  2  1  0
  4  3  2  0
  4  5  1  0
  5  6  2  0
  6  1  1  0
  7 11  1  0
  7  3  1  0
  8  7  1  0
  9  8  2  0
  9 10  1  0
 10 11  2  0
 12  9  1  0
 13 12  2  0
 14 13  1  0
 15 16  1  0
 15 14  2  0
 16 17  2  0
 17 12  1  0
  1 18  1  0
  2 19  1  0
  5 20  1  0
  8 21  1  0
 11 22  1  0
 13 23  1  0
 14 24  1  0
 16 25  1  0
M  ISO  8  18  14  19  14  20  14  21  14  22  14  23  14  24  14  25  14
M  END
>  <minimizedAffinity>  (1) 
-4.37141085

>  <minimizedRMSD>  (1) 
2.97476625

$$$$
