
     RDKit          3D

 24 26  0  0  0  0  0  0  0  0999 V2000
   40.7520   21.9840   37.4740 C   0  0  0  0  0  0  0  0  0  0  0  0
   39.8750   22.8220   36.7800 C   0  0  0  0  0  0  0  0  0  0  0  0
   40.4000   23.6460   35.7980 C   0  0  0  0  0  0  0  0  0  0  0  0
   41.7270   23.5990   35.5630 N   0  0  0  0  0  0  0  0  0  0  0  0
   42.5690   22.7900   36.2380 C   0  0  0  0  0  0  0  0  0  0  0  0
   42.0680   21.9800   37.1980 N   0  0  0  0  0  0  0  0  0  0  0  0
   39.5540   24.5360   35.0340 N   0  0  0  0  0  0  0  0  0  0  0  0
   38.6840   24.0420   34.1490 C   0  0  0  0  0  0  0  0  0  0  0  0
   38.0560   25.1330   33.6110 C   0  0  0  0  0  0  0  0  0  0  0  0
   38.5490   26.2390   34.1740 N   0  0  0  0  0  0  0  0  0  0  0  0
   39.4970   25.8690   35.0730 C   0  0  0  0  0  0  0  0  0  0  0  0
   37.0370   25.1130   32.6130 C   0  0  0  0  0  0  0  0  0  0  0  0
   36.4520   23.9730   32.0280 C   0  0  0  0  0  0  0  0  0  0  0  0
   35.4840   24.1220   31.0820 C   0  0  0  0  0  0  0  0  0  0  0  0
   35.1330   25.5550   30.7540 C   0  0  0  0  0  0  0  0  0  0  0  0
   36.2910   26.5110   31.8990 S   0  0  0  0  0  0  0  0  0  0  0  0
   40.3602   21.3183   38.2571 H   0  0  0  0  0  0  0  0  0  0  0  0
   38.7987   22.8271   37.0070 H   0  0  0  0  0  0  0  0  0  0  0  0
   43.6454   22.7891   36.0114 H   0  0  0  0  0  0  0  0  0  0  0  0
   38.5093   22.9838   33.9045 H   0  0  0  0  0  0  0  0  0  0  0  0
   40.0989   26.5359   35.7078 H   0  0  0  0  0  0  0  0  0  0  0  0
   36.7756   22.9672   32.3339 H   0  0  0  0  0  0  0  0  0  0  0  0
   34.9953   23.2657   30.5943 H   0  0  0  0  0  0  0  0  0  0  0  0
   34.3950   25.9407   30.0353 H   0  0  0  0  0  0  0  0  0  0  0  0
  2  1  2  0
  3  2  1  0
  4  3  2  0
  4  5  1  0
  5  6  2  0
  6  1  1  0
  7 11  1  0
  7  3  1  0
  8  7  1  0
  9  8  2  0
  9 10  1  0
 10 11  2  0
 12  9  1  0
 13 12  2  0
 14 13  1  0
 15 14  2  0
 15 16  1  0
 16 12  1  0
  1 17  1  0
  2 18  1  0
  5 19  1  0
  8 20  1  0
 11 21  1  0
 13 22  1  0
 14 23  1  0
 15 24  1  0
M  ISO  8  17  14  18  14  19  14  20  14  21  14  22  14  23  14  24  14
M  END
>  <minimizedAffinity>  (1) 
-4.10701752

>  <minimizedRMSD>  (1) 
2.86917853

$$$$
