
     RDKit          3D

 24 26  0  0  0  0  0  0  0  0999 V2000
   40.6940   21.9860   37.3770 C   0  0  0  0  0  0  0  0  0  0  0  0
   39.7460   22.7820   36.7070 C   0  0  0  0  0  0  0  0  0  0  0  0
   40.2360   23.6810   35.7710 C   0  0  0  0  0  0  0  0  0  0  0  0
   41.5690   23.7340   35.5650 N   0  0  0  0  0  0  0  0  0  0  0  0
   42.4630   22.9670   36.2120 C   0  0  0  0  0  0  0  0  0  0  0  0
   41.9930   22.0780   37.1370 N   0  0  0  0  0  0  0  0  0  0  0  0
   39.3550   24.5460   35.0260 N   0  0  0  0  0  0  0  0  0  0  0  0
   38.5360   24.0240   34.0770 C   0  0  0  0  0  0  0  0  0  0  0  0
   37.8490   25.1010   33.5740 C   0  0  0  0  0  0  0  0  0  0  0  0
   38.2500   26.2150   34.2060 N   0  0  0  0  0  0  0  0  0  0  0  0
   39.2040   25.8700   35.1270 C   0  0  0  0  0  0  0  0  0  0  0  0
   36.8780   24.9550   32.5410 N   0  0  0  0  0  0  0  0  0  0  0  0
   36.1210   25.8350   31.8840 N   0  0  0  0  0  0  0  0  0  0  0  0
   35.3520   25.1720   30.9840 C   0  0  0  0  0  0  0  0  0  0  0  0
   35.6490   23.8110   31.0890 C   0  0  0  0  0  0  0  0  0  0  0  0
   36.6240   23.7130   32.0890 C   0  0  0  0  0  0  0  0  0  0  0  0
   40.3432   21.2616   38.1268 H   0  0  0  0  0  0  0  0  0  0  0  0
   38.6694   22.6955   36.9154 H   0  0  0  0  0  0  0  0  0  0  0  0
   43.5397   23.0523   36.0034 H   0  0  0  0  0  0  0  0  0  0  0  0
   38.4433   22.9697   33.7771 H   0  0  0  0  0  0  0  0  0  0  0  0
   39.7377   26.5461   35.8112 H   0  0  0  0  0  0  0  0  0  0  0  0
   34.6245   25.6253   30.2946 H   0  0  0  0  0  0  0  0  0  0  0  0
   35.2086   22.9878   30.5072 H   0  0  0  0  0  0  0  0  0  0  0  0
   37.0982   22.7856   32.4425 H   0  0  0  0  0  0  0  0  0  0  0  0
  2  1  2  0
  3  2  1  0
  4  3  2  0
  4  5  1  0
  5  6  2  0
  6  1  1  0
  7 11  1  0
  7  3  1  0
  8  7  1  0
  9  8  2  0
  9 10  1  0
 10 11  2  0
 12  9  1  0
 13 12  1  0
 14 15  1  0
 14 13  2  0
 15 16  2  0
 16 12  1  0
  1 17  1  0
  2 18  1  0
  5 19  1  0
  8 20  1  0
 11 21  1  0
 14 22  1  0
 15 23  1  0
 16 24  1  0
M  ISO  8  17  14  18  14  19  14  20  14  21  14  22  14  23  14  24  14
M  END
>  <minimizedAffinity>  (1) 
-4.14594269

>  <minimizedRMSD>  (1) 
2.87614059

$$$$
