
     RDKit          3D

 23 25  0  0  0  0  0  0  0  0999 V2000
   41.8230   21.3760   37.3040 C   0  0  0  0  0  0  0  0  0  0  0  0
   41.3990   22.6880   37.0010 C   0  0  0  0  0  0  0  0  0  0  0  0
   41.6000   23.1200   35.7000 C   0  0  0  0  0  0  0  0  0  0  0  0
   42.1850   22.2820   34.7930 N   0  0  0  0  0  0  0  0  0  0  0  0
   42.5730   21.0360   35.1320 C   0  0  0  0  0  0  0  0  0  0  0  0
   42.3890   20.5850   36.3930 N   0  0  0  0  0  0  0  0  0  0  0  0
   41.2040   24.4450   35.2800 N   0  0  0  0  0  0  0  0  0  0  0  0
   39.8840   24.7400   35.1670 C   0  0  0  0  0  0  0  0  0  0  0  0
   39.8750   26.0580   34.7540 C   0  0  0  0  0  0  0  0  0  0  0  0
   41.1290   26.5060   34.6340 N   0  0  0  0  0  0  0  0  0  0  0  0
   41.9750   25.4920   34.9640 C   0  0  0  0  0  0  0  0  0  0  0  0
   38.6800   26.7930   34.5050 N   0  0  0  0  0  0  0  0  0  0  0  0
   37.9140   27.4450   35.4020 C   0  0  0  0  0  0  0  0  0  0  0  0
   36.8540   28.0260   34.7700 N   0  0  0  0  0  0  0  0  0  0  0  0
   36.9910   27.7140   33.4640 C   0  0  0  0  0  0  0  0  0  0  0  0
   38.1020   26.9650   33.3080 N   0  0  0  0  0  0  0  0  0  0  0  0
   41.6815   20.9940   38.3258 H   0  0  0  0  0  0  0  0  0  0  0  0
   40.9328   23.3344   37.7592 H   0  0  0  0  0  0  0  0  0  0  0  0
   43.0410   20.3841   34.3797 H   0  0  0  0  0  0  0  0  0  0  0  0
   39.0229   24.0831   35.3593 H   0  0  0  0  0  0  0  0  0  0  0  0
   43.0744   25.5264   34.9698 H   0  0  0  0  0  0  0  0  0  0  0  0
   38.1138   27.5003   36.4823 H   0  0  0  0  0  0  0  0  0  0  0  0
   36.3079   28.0206   32.6581 H   0  0  0  0  0  0  0  0  0  0  0  0
  2  1  2  0
  3  2  1  0
  4  5  1  0
  4  3  2  0
  5  6  2  0
  6  1  1  0
  7  3  1  0
  8  7  1  0
  9  8  2  0
 10  9  1  0
 10 11  2  0
 11  7  1  0
 12  9  1  0
 12 13  1  0
 14 13  2  0
 15 14  1  0
 16 15  2  0
 16 12  1  0
  1 17  1  0
  2 18  1  0
  5 19  1  0
  8 20  1  0
 11 21  1  0
 13 22  1  0
 15 23  1  0
M  ISO  7  17  14  18  14  19  14  20  14  21  14  22  14  23  14
M  END
>  <minimizedAffinity>  (1) 
-3.67639613

>  <minimizedRMSD>  (1) 
2.53222632

$$$$
