
     RDKit          3D

 26 27  0  0  0  0  0  0  0  0999 V2000
   42.0000   21.1340   37.4210 C   0  0  0  0  0  0  0  0  0  0  0  0
   41.5110   22.4110   37.1020 C   0  0  0  0  0  0  0  0  0  0  0  0
   41.6420   22.8400   35.7700 C   0  0  0  0  0  0  0  0  0  0  0  0
   42.2220   22.0180   34.8760 N   0  0  0  0  0  0  0  0  0  0  0  0
   42.6850   20.7910   35.2110 C   0  0  0  0  0  0  0  0  0  0  0  0
   42.5710   20.3530   36.4870 N   0  0  0  0  0  0  0  0  0  0  0  0
   41.1650   24.1310   35.3760 N   0  0  0  0  0  0  0  0  0  0  0  0
   39.8550   24.4000   35.3210 C   0  0  0  0  0  0  0  0  0  0  0  0
   39.7530   25.6960   34.9190 C   0  0  0  0  0  0  0  0  0  0  0  0
   41.0000   26.1990   34.7350 N   0  0  0  0  0  0  0  0  0  0  0  0
   41.8960   25.2100   35.0240 C   0  0  0  0  0  0  0  0  0  0  0  0
   38.4410   26.4080   34.7250 C   0  0  0  0  0  0  0  0  0  0  0  0
   38.3470   27.3970   35.8840 C   0  0  0  0  0  0  0  0  0  0  0  0
   38.3690   27.0750   33.3880 C   0  0  0  0  0  0  0  0  0  0  0  0
   41.9144   20.7657   38.4540 H   0  0  0  0  0  0  0  0  0  0  0  0
   41.0435   23.0508   37.8650 H   0  0  0  0  0  0  0  0  0  0  0  0
   43.1528   20.1512   34.4483 H   0  0  0  0  0  0  0  0  0  0  0  0
   39.0283   23.7126   35.5536 H   0  0  0  0  0  0  0  0  0  0  0  0
   42.9929   25.2787   34.9790 H   0  0  0  0  0  0  0  0  0  0  0  0
   37.5883   25.7132   34.7313 H   0  0  0  0  0  0  0  0  0  0  0  0
   38.3989   26.8507   36.8373 H   0  0  0  0  0  0  0  0  0  0  0  0
   39.1813   28.1115   35.8249 H   0  0  0  0  0  0  0  0  0  0  0  0
   37.3931   27.9415   35.8249 H   0  0  0  0  0  0  0  0  0  0  0  0
   38.2519   28.1601   33.5254 H   0  0  0  0  0  0  0  0  0  0  0  0
   39.2940   26.8741   32.8277 H   0  0  0  0  0  0  0  0  0  0  0  0
   37.5081   26.6813   32.8277 H   0  0  0  0  0  0  0  0  0  0  0  0
  2  1  2  0
  3  2  1  0
  4  5  1  0
  4  3  2  0
  5  6  2  0
  6  1  1  0
  7  3  1  0
  8  7  1  0
  9  8  2  0
 10  9  1  0
 10 11  2  0
 11  7  1  0
 12  9  1  0
 12 13  1  0
 14 12  1  0
  1 15  1  0
  2 16  1  0
  5 17  1  0
  8 18  1  0
 11 19  1  0
 12 20  1  0
 13 21  1  0
 13 22  1  0
 13 23  1  0
 14 24  1  0
 14 25  1  0
 14 26  1  0
M  ISO  8  15  14  16  14  17  14  18  14  19  14  20   8  21   8  22   8
M  ISO  4  23   8  24   8  25   8  26   8
M  END
>  <minimizedAffinity>  (1) 
-3.51639509

>  <minimizedRMSD>  (1) 
2.10376287

$$$$
