
     RDKit          3D

 19 20  0  0  0  0  0  0  0  0999 V2000
   38.3580   23.7940   37.0230 C   0  0  0  0  0  0  0  0  0  0  0  0
   38.9610   22.7140   36.3640 C   0  0  0  0  0  0  0  0  0  0  0  0
   39.0370   22.7770   34.9530 C   0  0  0  0  0  0  0  0  0  0  0  0
   38.5210   23.8760   34.3380 N   0  0  0  0  0  0  0  0  0  0  0  0
   37.9510   24.8900   35.0160 C   0  0  0  0  0  0  0  0  0  0  0  0
   37.8600   24.8670   36.3570 N   0  0  0  0  0  0  0  0  0  0  0  0
   37.4180   26.0300   34.3500 N   0  0  0  0  0  0  0  0  0  0  0  0
   37.1180   27.1840   34.9770 C   0  0  0  0  0  0  0  0  0  0  0  0
   36.6320   28.0860   34.1060 N   0  0  0  0  0  0  0  0  0  0  0  0
   36.6330   27.4770   32.9110 C   0  0  0  0  0  0  0  0  0  0  0  0
   37.1170   26.2180   33.0770 N   0  0  0  0  0  0  0  0  0  0  0  0
   38.2540   23.7710   38.5290 C   0  0  0  0  0  0  0  0  0  0  0  0
   39.4830   23.4890   39.1070 F   0  0  0  0  0  0  0  0  0  0  0  0
   37.8560   25.0080   38.9980 F   0  0  0  0  0  0  0  0  0  0  0  0
   37.3140   22.8120   38.8910 F   0  0  0  0  0  0  0  0  0  0  0  0
   39.3587   21.8529   36.9211 H   0  0  0  0  0  0  0  0  0  0  0  0
   39.4979   21.9646   34.3720 H   0  0  0  0  0  0  0  0  0  0  0  0
   37.2522   27.3638   36.0539 H   0  0  0  0  0  0  0  0  0  0  0  0
   36.2997   27.9200   31.9609 H   0  0  0  0  0  0  0  0  0  0  0  0
  1 12  1  0
  2  1  2  0
  3  2  1  0
  4  3  2  0
  4  5  1  0
  5  6  2  0
  6  1  1  0
  7  8  1  0
  7  5  1  0
  9  8  2  0
 10 11  2  0
 10  9  1  0
 11  7  1  0
 12 15  1  0
 12 14  1  0
 12 13  1  0
  2 16  1  0
  3 17  1  0
  8 18  1  0
 10 19  1  0
M  ISO  4  16  14  17  14  18  14  19  14
M  END
>  <minimizedAffinity>  (1) 
-4.98530912

>  <minimizedRMSD>  (1) 
0.821563005

$$$$
