
     RDKit          3D

 20 21  0  0  0  0  0  0  0  0999 V2000
   42.1360   21.5220   36.8550 C   0  0  0  0  0  0  0  0  0  0  0  0
   41.6030   22.8210   36.7460 C   0  0  0  0  0  0  0  0  0  0  0  0
   41.3880   23.3140   35.4610 C   0  0  0  0  0  0  0  0  0  0  0  0
   41.7000   22.5250   34.4060 N   0  0  0  0  0  0  0  0  0  0  0  0
   42.2130   21.2780   34.5430 C   0  0  0  0  0  0  0  0  0  0  0  0
   42.4250   20.7870   35.7900 N   0  0  0  0  0  0  0  0  0  0  0  0
   40.8470   24.6290   35.2470 N   0  0  0  0  0  0  0  0  0  0  0  0
   39.5640   24.8930   35.5520 C   0  0  0  0  0  0  0  0  0  0  0  0
   39.3800   26.2060   35.2330 C   0  0  0  0  0  0  0  0  0  0  0  0
   40.5330   26.7060   34.7470 N   0  0  0  0  0  0  0  0  0  0  0  0
   41.4640   25.7120   34.7540 C   0  0  0  0  0  0  0  0  0  0  0  0
   38.1200   26.9230   35.4010 C   0  0  0  0  0  0  0  0  0  0  0  0
   37.0630   26.4240   34.9380 O   0  0  0  0  0  0  0  0  0  0  0  0
   38.0210   28.1420   36.0540 O   0  0  0  0  0  0  0  0  0  0  0  0
   42.3184   21.1037   37.8559 H   0  0  0  0  0  0  0  0  0  0  0  0
   41.3666   23.4206   37.6374 H   0  0  0  0  0  0  0  0  0  0  0  0
   42.4539   20.6730   33.6565 H   0  0  0  0  0  0  0  0  0  0  0  0
   38.8211   24.1977   35.9699 H   0  0  0  0  0  0  0  0  0  0  0  0
   42.5103   25.7835   34.4223 H   0  0  0  0  0  0  0  0  0  0  0  0
   37.1409   28.5871   36.1407 H   0  0  0  0  0  0  0  0  0  0  0  0
  2  1  2  0
  3  2  1  0
  4  5  1  0
  4  3  2  0
  5  6  2  0
  6  1  1  0
  7  3  1  0
  7  8  1  0
  9 12  1  0
  9  8  2  0
 10 11  2  0
 10  9  1  0
 11  7  1  0
 12 14  1  0
 13 12  2  0
  1 15  1  0
  2 16  1  0
  5 17  1  0
  8 18  1  0
 11 19  1  0
 14 20  1  0
M  ISO  6  15  14  16  14  17  14  18  14  19  14  20   3
M  END
>  <minimizedAffinity>  (1) 
-3.42641497

>  <minimizedRMSD>  (1) 
1.80849385

$$$$
