
     RDKit          3D

 19 20  0  0  0  0  0  0  0  0999 V2000
   41.0220   21.8790   37.3690 C   0  0  0  0  0  0  0  0  0  0  0  0
   40.3720   23.0980   37.1020 C   0  0  0  0  0  0  0  0  0  0  0  0
   40.4200   23.5740   35.7910 C   0  0  0  0  0  0  0  0  0  0  0  0
   41.0840   22.8380   34.8800 N   0  0  0  0  0  0  0  0  0  0  0  0
   41.7030   21.6750   35.1400 C   0  0  0  0  0  0  0  0  0  0  0  0
   41.6590   21.2050   36.4220 N   0  0  0  0  0  0  0  0  0  0  0  0
   39.7860   24.8080   35.4260 N   0  0  0  0  0  0  0  0  0  0  0  0
   38.4470   24.9050   35.3940 C   0  0  0  0  0  0  0  0  0  0  0  0
   38.2020   26.2050   35.0110 C   0  0  0  0  0  0  0  0  0  0  0  0
   39.3780   26.8480   34.8250 N   0  0  0  0  0  0  0  0  0  0  0  0
   40.3820   25.9750   35.0850 C   0  0  0  0  0  0  0  0  0  0  0  0
   36.9100   26.7740   34.8400 N   0  0  0  0  0  0  0  0  0  0  0  0
   41.0009   21.4743   38.3916 H   0  0  0  0  0  0  0  0  0  0  0  0
   39.8476   23.6529   37.8939 H   0  0  0  0  0  0  0  0  0  0  0  0
   42.2273   21.1200   34.3481 H   0  0  0  0  0  0  0  0  0  0  0  0
   37.7102   24.1209   35.6227 H   0  0  0  0  0  0  0  0  0  0  0  0
   41.4624   26.1744   35.0301 H   0  0  0  0  0  0  0  0  0  0  0  0
   36.8148   27.7579   34.5504 H   0  0  0  0  0  0  0  0  0  0  0  0
   36.0694   26.2023   35.0057 H   0  0  0  0  0  0  0  0  0  0  0  0
  2  1  2  0
  3  2  1  0
  4  5  1  0
  4  3  2  0
  5  6  2  0
  6  1  1  0
  7  3  1  0
  8  7  1  0
  9  8  2  0
 10  9  1  0
 10 11  2  0
 11  7  1  0
 12  9  1  0
  1 13  1  0
  2 14  1  0
  5 15  1  0
  8 16  1  0
 11 17  1  0
 12 18  1  0
 12 19  1  0
M  ISO  5  13  14  14  14  15  14  16  14  17  14
M  END
>  <minimizedAffinity>  (1) 
-2.93974304

>  <minimizedRMSD>  (1) 
1.22114611

$$$$
