
     RDKit          3D

 20 21  0  0  0  0  0  0  0  0999 V2000
   41.9000   21.3560   37.3230 C   0  0  0  0  0  0  0  0  0  0  0  0
   41.2350   22.5760   37.0940 C   0  0  0  0  0  0  0  0  0  0  0  0
   41.1320   23.0130   35.7820 C   0  0  0  0  0  0  0  0  0  0  0  0
   41.6690   22.2550   34.8000 N   0  0  0  0  0  0  0  0  0  0  0  0
   42.3040   21.0840   35.0510 C   0  0  0  0  0  0  0  0  0  0  0  0
   42.4140   20.6430   36.3240 N   0  0  0  0  0  0  0  0  0  0  0  0
   40.4720   24.2410   35.4620 N   0  0  0  0  0  0  0  0  0  0  0  0
   39.1440   24.3730   35.5830 C   0  0  0  0  0  0  0  0  0  0  0  0
   38.8490   25.6460   35.2030 C   0  0  0  0  0  0  0  0  0  0  0  0
   39.9820   26.2640   34.8610 N   0  0  0  0  0  0  0  0  0  0  0  0
   41.0180   25.3930   35.0180 C   0  0  0  0  0  0  0  0  0  0  0  0
   37.4910   26.2520   35.1730 C   0  0  0  0  0  0  0  0  0  0  0  0
   41.9969   20.9832   38.3533 H   0  0  0  0  0  0  0  0  0  0  0  0
   40.8130   23.1605   37.9248 H   0  0  0  0  0  0  0  0  0  0  0  0
   42.7274   20.4959   34.2234 H   0  0  0  0  0  0  0  0  0  0  0  0
   38.4334   23.6049   35.9222 H   0  0  0  0  0  0  0  0  0  0  0  0
   42.0827   25.5887   34.8227 H   0  0  0  0  0  0  0  0  0  0  0  0
   37.1371   26.4099   36.2025 H   0  0  0  0  0  0  0  0  0  0  0  0
   37.5318   27.2173   34.6472 H   0  0  0  0  0  0  0  0  0  0  0  0
   36.7998   25.5769   34.6472 H   0  0  0  0  0  0  0  0  0  0  0  0
  2  1  2  0
  3  2  1  0
  4  5  1  0
  4  3  2  0
  5  6  2  0
  6  1  1  0
  7  8  1  0
  7  3  1  0
  9  8  2  0
 10 11  2  0
 10  9  1  0
 11  7  1  0
 12  9  1  0
  1 13  1  0
  2 14  1  0
  5 15  1  0
  8 16  1  0
 11 17  1  0
 12 18  1  0
 12 19  1  0
 12 20  1  0
M  ISO  8  13  14  14  14  15  14  16  14  17  14  18   8  19   8  20   8
M  END
>  <minimizedAffinity>  (1) 
-2.89648151

>  <minimizedRMSD>  (1) 
1.00098944

$$$$
