
     RDKit          3D

 18 19  0  0  0  0  0  0  0  0999 V2000
   41.6920   21.4820   37.2990 C   0  0  0  0  0  0  0  0  0  0  0  0
   41.0940   22.7320   37.0460 C   0  0  0  0  0  0  0  0  0  0  0  0
   41.1000   23.1810   35.7350 C   0  0  0  0  0  0  0  0  0  0  0  0
   41.6730   22.4120   34.7660 N   0  0  0  0  0  0  0  0  0  0  0  0
   42.2380   21.2160   35.0550 C   0  0  0  0  0  0  0  0  0  0  0  0
   42.2410   20.7610   36.3280 N   0  0  0  0  0  0  0  0  0  0  0  0
   40.5150   24.4430   35.3730 N   0  0  0  0  0  0  0  0  0  0  0  0
   39.1670   24.6010   35.4040 C   0  0  0  0  0  0  0  0  0  0  0  0
   38.9720   25.9070   35.0040 C   0  0  0  0  0  0  0  0  0  0  0  0
   40.1490   26.4850   34.7510 N   0  0  0  0  0  0  0  0  0  0  0  0
   41.1320   25.5760   34.9790 C   0  0  0  0  0  0  0  0  0  0  0  0
   37.3230   26.6240   34.8770 S   0  0  0  0  0  0  0  0  0  0  0  0
   41.7046   21.0928   38.3278 H   0  0  0  0  0  0  0  0  0  0  0  0
   40.6419   23.3259   37.8540 H   0  0  0  0  0  0  0  0  0  0  0  0
   42.6942   20.6150   34.2546 H   0  0  0  0  0  0  0  0  0  0  0  0
   38.4052   23.8584   35.6838 H   0  0  0  0  0  0  0  0  0  0  0  0
   42.2149   25.7324   34.8651 H   0  0  0  0  0  0  0  0  0  0  0  0
   36.8218   26.8419   36.1333 H   0  0  0  0  0  0  0  0  0  0  0  0
  2  1  2  0
  3  2  1  0
  4  5  1  0
  4  3  2  0
  5  6  2  0
  6  1  1  0
  7  8  1  0
  7  3  1  0
  9  8  2  0
 10 11  2  0
 10  9  1  0
 11  7  1  0
 12  9  1  0
  1 13  1  0
  2 14  1  0
  5 15  1  0
  8 16  1  0
 11 17  1  0
 12 18  1  0
M  ISO  6  13  14  14  14  15  14  16  14  17  14  18  11
M  END
>  <minimizedAffinity>  (1) 
-2.85677528

>  <minimizedRMSD>  (1) 
1.21575356

$$$$
