
     RDKit          3D

 25 25  0  0  0  0  0  0  0  0999 V2000
   38.1940   23.9430   37.0360 C   0  0  0  0  0  0  0  0  0  0  0  0
   38.0380   22.8120   36.2160 C   0  0  0  0  0  0  0  0  0  0  0  0
   38.0690   22.9990   34.8250 C   0  0  0  0  0  0  0  0  0  0  0  0
   38.2470   24.2520   34.3610 N   0  0  0  0  0  0  0  0  0  0  0  0
   38.3950   25.3200   35.1800 C   0  0  0  0  0  0  0  0  0  0  0  0
   38.3680   25.1670   36.5150 N   0  0  0  0  0  0  0  0  0  0  0  0
   38.1660   23.7820   38.5320 C   0  0  0  0  0  0  0  0  0  0  0  0
   39.4430   23.4560   39.0210 F   0  0  0  0  0  0  0  0  0  0  0  0
   37.8230   24.9730   39.1350 F   0  0  0  0  0  0  0  0  0  0  0  0
   37.2590   22.7940   38.8630 F   0  0  0  0  0  0  0  0  0  0  0  0
   38.5890   26.6800   34.5630 C   0  0  0  0  0  0  0  0  0  0  0  0
   40.0510   26.9710   34.3980 C   0  0  0  0  0  0  0  0  0  0  0  0
   37.9580   26.7430   33.1860 C   0  0  0  0  0  0  0  0  0  0  0  0
   37.9240   27.6710   35.4810 C   0  0  0  0  0  0  0  0  0  0  0  0
   37.8961   21.8116   36.6507 H   0  0  0  0  0  0  0  0  0  0  0  0
   37.9517   22.1499   34.1356 H   0  0  0  0  0  0  0  0  0  0  0  0
   40.5203   27.0644   35.3885 H   0  0  0  0  0  0  0  0  0  0  0  0
   40.5278   26.1501   33.8423 H   0  0  0  0  0  0  0  0  0  0  0  0
   40.1772   27.9119   33.8423 H   0  0  0  0  0  0  0  0  0  0  0  0
   36.8680   26.8518   33.2868 H   0  0  0  0  0  0  0  0  0  0  0  0
   38.3633   27.6051   32.6360 H   0  0  0  0  0  0  0  0  0  0  0  0
   38.1848   25.8177   32.6360 H   0  0  0  0  0  0  0  0  0  0  0  0
   38.1144   27.3873   36.5266 H   0  0  0  0  0  0  0  0  0  0  0  0
   38.3317   28.6753   35.2935 H   0  0  0  0  0  0  0  0  0  0  0  0
   36.8401   27.6744   35.2935 H   0  0  0  0  0  0  0  0  0  0  0  0
  1  7  1  0
  2  1  2  0
  3  2  1  0
  4  3  2  0
  4  5  1  0
  5  6  2  0
  6  1  1  0
  7 10  1  0
  7  8  1  0
  7  9  1  0
 11  5  1  0
 11 14  1  0
 12 11  1  0
 13 11  1  0
  2 15  1  0
  3 16  1  0
 12 17  1  0
 12 18  1  0
 12 19  1  0
 13 20  1  0
 13 21  1  0
 13 22  1  0
 14 23  1  0
 14 24  1  0
 14 25  1  0
M  ISO  8  15  14  16  14  17   8  18   8  19   8  20   8  21   8  22   8
M  ISO  3  23   8  24   8  25   8
M  END
>  <minimizedAffinity>  (1) 
-4.92474127

>  <minimizedRMSD>  (1) 
0.606875062

$$$$
