
     RDKit          3D

 30 33  0  0  0  0  0  0  0  0999 V2000
   37.8430   23.3250   38.3860 C   0  0  0  0  0  0  0  0  0  0  0  0
   37.3650   23.1840   37.0810 C   0  0  0  0  0  0  0  0  0  0  0  0
   38.2800   22.9030   36.0620 C   0  0  0  0  0  0  0  0  0  0  0  0
   39.5710   22.7850   36.4100 N   0  0  0  0  0  0  0  0  0  0  0  0
   40.0270   22.9210   37.6710 C   0  0  0  0  0  0  0  0  0  0  0  0
   39.1310   23.1970   38.6620 N   0  0  0  0  0  0  0  0  0  0  0  0
   37.8580   22.7470   34.7050 N   0  0  0  0  0  0  0  0  0  0  0  0
   37.1420   21.6750   34.3300 C   0  0  0  0  0  0  0  0  0  0  0  0
   36.9190   21.8580   32.9780 C   0  0  0  0  0  0  0  0  0  0  0  0
   37.5030   23.0230   32.5890 N   0  0  0  0  0  0  0  0  0  0  0  0
   38.0890   23.5740   33.6710 C   0  0  0  0  0  0  0  0  0  0  0  0
   38.8060   24.7910   33.6940 N   0  0  0  0  0  0  0  0  0  0  0  0
   38.1950   25.9620   33.4020 C   0  0  0  0  0  0  0  0  0  0  0  0
   39.0420   27.0130   33.4780 N   0  0  0  0  0  0  0  0  0  0  0  0
   40.2340   26.5170   33.8270 C   0  0  0  0  0  0  0  0  0  0  0  0
   41.4850   27.0430   34.0650 C   0  0  0  0  0  0  0  0  0  0  0  0
   42.5010   26.2270   34.4120 N   0  0  0  0  0  0  0  0  0  0  0  0
   42.2830   24.8970   34.5220 C   0  0  0  0  0  0  0  0  0  0  0  0
   41.0810   24.3100   34.3040 N   0  0  0  0  0  0  0  0  0  0  0  0
   40.0730   25.1380   33.9580 C   0  0  0  0  0  0  0  0  0  0  0  0
   36.1890   20.9580   32.1450 N   0  0  0  0  0  0  0  0  0  0  0  0
   37.1360   23.5465   39.1990 H   0  0  0  0  0  0  0  0  0  0  0  0
   36.2928   23.2916   36.8601 H   0  0  0  0  0  0  0  0  0  0  0  0
   41.0982   22.8118   37.8962 H   0  0  0  0  0  0  0  0  0  0  0  0
   36.8071   20.8370   34.9590 H   0  0  0  0  0  0  0  0  0  0  0  0
   37.1318   26.0491   33.1337 H   0  0  0  0  0  0  0  0  0  0  0  0
   41.6546   28.1259   33.9722 H   0  0  0  0  0  0  0  0  0  0  0  0
   43.1300   24.2545   34.8047 H   0  0  0  0  0  0  0  0  0  0  0  0
   36.0669   21.1670   31.1439 H   0  0  0  0  0  0  0  0  0  0  0  0
   35.7843   20.0994   32.5450 H   0  0  0  0  0  0  0  0  0  0  0  0
  1  6  2  0
  2  1  1  0
  3  4  1  0
  3  2  2  0
  4  5  2  0
  5  6  1  0
  7  3  1  0
  8  7  1  0
  9  8  2  0
 10  9  1  0
 10 11  2  0
 11 12  1  0
 11  7  1  0
 12 20  1  0
 13 14  2  0
 13 12  1  0
 14 15  1  0
 15 20  2  0
 15 16  1  0
 16 17  2  0
 17 18  1  0
 19 18  2  0
 20 19  1  0
 21  9  1  0
  1 22  1  0
  2 23  1  0
  5 24  1  0
  8 25  1  0
 13 26  1  0
 16 27  1  0
 18 28  1  0
 21 29  1  0
 21 30  1  0
M  ISO  7  22  14  23  14  24  14  25  14  26  14  27  14  28  14
M  END
>  <minimizedAffinity>  (1) 
-5.17284203

>  <minimizedRMSD>  (1) 
3.7896955

$$$$
