
     RDKit          3D

 33 36  0  0  0  0  0  0  0  0999 V2000
   41.6980   21.4810   37.4020 C   0  0  0  0  0  0  0  0  0  0  0  0
   41.6520   22.8170   36.9700 C   0  0  0  0  0  0  0  0  0  0  0  0
   42.1680   23.0960   35.7180 C   0  0  0  0  0  0  0  0  0  0  0  0
   42.6760   22.0610   35.0050 N   0  0  0  0  0  0  0  0  0  0  0  0
   42.7200   20.7880   35.4170 C   0  0  0  0  0  0  0  0  0  0  0  0
   42.2170   20.5100   36.6450 N   0  0  0  0  0  0  0  0  0  0  0  0
   42.1840   24.4310   35.1760 N   0  0  0  0  0  0  0  0  0  0  0  0
   41.0480   25.0070   34.7940 C   0  0  0  0  0  0  0  0  0  0  0  0
   41.4060   26.2390   34.3310 C   0  0  0  0  0  0  0  0  0  0  0  0
   42.7330   26.3640   34.4480 N   0  0  0  0  0  0  0  0  0  0  0  0
   43.2610   25.2290   34.9840 C   0  0  0  0  0  0  0  0  0  0  0  0
   44.5790   24.7300   35.3580 C   0  0  0  0  0  0  0  0  0  0  0  0
   45.3870   24.0330   34.5430 N   0  0  0  0  0  0  0  0  0  0  0  0
   46.5950   23.5740   34.8810 C   0  0  0  0  0  0  0  0  0  0  0  0
   47.1170   23.7750   36.0970 N   0  0  0  0  0  0  0  0  0  0  0  0
   46.3790   24.4640   36.9800 C   0  0  0  0  0  0  0  0  0  0  0  0
   46.8990   24.6820   38.2360 C   0  0  0  0  0  0  0  0  0  0  0  0
   46.2010   25.3790   39.1920 C   0  0  0  0  0  0  0  0  0  0  0  0
   44.9440   25.8590   38.8450 C   0  0  0  0  0  0  0  0  0  0  0  0
   44.4680   25.6130   37.5750 C   0  0  0  0  0  0  0  0  0  0  0  0
   45.1450   24.9200   36.5970 C   0  0  0  0  0  0  0  0  0  0  0  0
   40.5300   27.2260   33.8180 N   0  0  0  0  0  0  0  0  0  0  0  0
   41.2946   21.2267   38.3933 H   0  0  0  0  0  0  0  0  0  0  0  0
   41.2230   23.6086   37.6019 H   0  0  0  0  0  0  0  0  0  0  0  0
   43.1481   19.9974   34.7832 H   0  0  0  0  0  0  0  0  0  0  0  0
   40.0351   24.5806   34.8413 H   0  0  0  0  0  0  0  0  0  0  0  0
   47.1792   23.0132   34.1366 H   0  0  0  0  0  0  0  0  0  0  0  0
   47.8970   24.2888   38.4797 H   0  0  0  0  0  0  0  0  0  0  0  0
   46.6211   25.5506   40.1940 H   0  0  0  0  0  0  0  0  0  0  0  0
   44.3403   26.4245   39.5700 H   0  0  0  0  0  0  0  0  0  0  0  0
   43.4697   26.0005   37.3235 H   0  0  0  0  0  0  0  0  0  0  0  0
   39.5183   27.0398   33.7659 H   0  0  0  0  0  0  0  0  0  0  0  0
   40.9044   28.1302   33.4970 H   0  0  0  0  0  0  0  0  0  0  0  0
  2  1  2  0
  3  2  1  0
  4  5  1  0
  4  3  2  0
  5  6  2  0
  6  1  1  0
  7  3  1  0
  8  7  1  0
  9 10  1  0
  9  8  2  0
 10 11  2  0
 11  7  1  0
 11 12  1  0
 12 21  2  0
 13 14  2  0
 13 12  1  0
 14 15  1  0
 15 16  2  0
 16 17  1  0
 17 18  2  0
 19 18  1  0
 20 19  2  0
 21 16  1  0
 21 20  1  0
 22  9  1  0
  1 23  1  0
  2 24  1  0
  5 25  1  0
  8 26  1  0
 14 27  1  0
 17 28  1  0
 18 29  1  0
 19 30  1  0
 20 31  1  0
 22 32  1  0
 22 33  1  0
M  ISO  8  23  14  24  14  25  14  26  14  27  14  28  14  29  14  30  14
M  ISO  1  31  14
M  END
>  <minimizedAffinity>  (1) 
-5.33691978

>  <minimizedRMSD>  (1) 
2.72626662

$$$$
