
     RDKit          3D

 34 36  0  0  0  0  0  0  0  0999 V2000
   37.8990   23.3990   38.3870 C   0  0  0  0  0  0  0  0  0  0  0  0
   37.4050   23.2600   37.0750 C   0  0  0  0  0  0  0  0  0  0  0  0
   38.3180   22.8830   36.0740 C   0  0  0  0  0  0  0  0  0  0  0  0
   39.6060   22.6830   36.4490 N   0  0  0  0  0  0  0  0  0  0  0  0
   40.0670   22.8200   37.7030 C   0  0  0  0  0  0  0  0  0  0  0  0
   39.1870   23.1830   38.6730 N   0  0  0  0  0  0  0  0  0  0  0  0
   37.9000   22.7160   34.7240 N   0  0  0  0  0  0  0  0  0  0  0  0
   37.1250   21.6950   34.3640 C   0  0  0  0  0  0  0  0  0  0  0  0
   36.9310   21.8400   33.0200 C   0  0  0  0  0  0  0  0  0  0  0  0
   37.5850   22.9340   32.5950 N   0  0  0  0  0  0  0  0  0  0  0  0
   38.2000   23.4920   33.6710 C   0  0  0  0  0  0  0  0  0  0  0  0
   38.9570   24.6790   33.5710 N   0  0  0  0  0  0  0  0  0  0  0  0
   40.4100   24.6390   33.4090 C   0  0  0  0  0  0  0  0  0  0  0  0
   41.0860   25.3450   34.5610 C   0  0  0  0  0  0  0  0  0  0  0  0
   40.6630   26.7890   34.7010 C   0  0  0  0  0  0  0  0  0  0  0  0
   39.1510   26.8000   34.7790 C   0  0  0  0  0  0  0  0  0  0  0  0
   38.5790   26.0580   33.5810 C   0  0  0  0  0  0  0  0  0  0  0  0
   36.1660   20.9840   32.1870 N   0  0  0  0  0  0  0  0  0  0  0  0
   37.2103   23.6915   39.1933 H   0  0  0  0  0  0  0  0  0  0  0  0
   36.3450   23.4396   36.8423 H   0  0  0  0  0  0  0  0  0  0  0  0
   41.1269   22.6434   37.9383 H   0  0  0  0  0  0  0  0  0  0  0  0
   36.7251   20.9017   35.0126 H   0  0  0  0  0  0  0  0  0  0  0  0
   40.7431   23.5911   33.3800 H   0  0  0  0  0  0  0  0  0  0  0  0
   40.6794   25.1464   32.4709 H   0  0  0  0  0  0  0  0  0  0  0  0
   40.8358   24.8150   35.4919 H   0  0  0  0  0  0  0  0  0  0  0  0
   42.1677   25.3377   34.3612 H   0  0  0  0  0  0  0  0  0  0  0  0
   41.0920   27.2215   35.6169 H   0  0  0  0  0  0  0  0  0  0  0  0
   41.0171   27.3870   33.8483 H   0  0  0  0  0  0  0  0  0  0  0  0
   38.8276   26.3046   35.7064 H   0  0  0  0  0  0  0  0  0  0  0  0
   38.7900   27.8391   34.7748 H   0  0  0  0  0  0  0  0  0  0  0  0
   38.9479   26.5335   32.6602 H   0  0  0  0  0  0  0  0  0  0  0  0
   37.4820   26.1078   33.6443 H   0  0  0  0  0  0  0  0  0  0  0  0
   36.0832   21.1845   31.1801 H   0  0  0  0  0  0  0  0  0  0  0  0
   35.6932   20.1619   32.5890 H   0  0  0  0  0  0  0  0  0  0  0  0
  1  6  2  0
  2  1  1  0
  3  4  1  0
  3  2  2  0
  4  5  2  0
  5  6  1  0
  7  3  1  0
  8  7  1  0
  9  8  2  0
 10  9  1  0
 10 11  2  0
 11  7  1  0
 12 17  1  0
 12 11  1  0
 13 12  1  0
 13 14  1  0
 14 15  1  0
 15 16  1  0
 17 16  1  0
 18  9  1  0
  1 19  1  0
  2 20  1  0
  5 21  1  0
  8 22  1  0
 13 23  1  0
 13 24  1  0
 14 25  1  0
 14 26  1  0
 15 27  1  0
 15 28  1  0
 16 29  1  0
 16 30  1  0
 17 31  1  0
 17 32  1  0
 18 33  1  0
 18 34  1  0
M  ISO  8  19  14  20  14  21  14  22  14  23  13  24  13  25  13  26  13
M  ISO  6  27  13  28  13  29  13  30  13  31  13  32  13
M  END
>  <minimizedAffinity>  (1) 
-5.15731812

>  <minimizedRMSD>  (1) 
3.87841344

$$$$
