
     RDKit          3D

 29 31  0  0  0  0  0  0  0  0999 V2000
   40.0370   22.5970   37.9270 C   0  0  0  0  0  0  0  0  0  0  0  0
   39.4640   23.4590   36.9840 C   0  0  0  0  0  0  0  0  0  0  0  0
   39.9300   23.4020   35.6620 C   0  0  0  0  0  0  0  0  0  0  0  0
   40.9000   22.5180   35.3940 N   0  0  0  0  0  0  0  0  0  0  0  0
   41.4450   21.6930   36.3070 C   0  0  0  0  0  0  0  0  0  0  0  0
   40.9960   21.7440   37.5910 N   0  0  0  0  0  0  0  0  0  0  0  0
   39.3940   24.2500   34.6490 N   0  0  0  0  0  0  0  0  0  0  0  0
   38.1480   24.0630   34.1940 C   0  0  0  0  0  0  0  0  0  0  0  0
   37.9630   25.0390   33.2440 C   0  0  0  0  0  0  0  0  0  0  0  0
   39.0970   25.7860   33.1530 N   0  0  0  0  0  0  0  0  0  0  0  0
   39.9890   25.2870   34.0350 C   0  0  0  0  0  0  0  0  0  0  0  0
   41.3070   25.7720   34.2650 N   0  0  0  0  0  0  0  0  0  0  0  0
   42.1110   24.9180   34.9520 C   0  0  0  0  0  0  0  0  0  0  0  0
   43.4220   25.2270   35.2620 C   0  0  0  0  0  0  0  0  0  0  0  0
   43.9300   26.4510   34.8560 C   0  0  0  0  0  0  0  0  0  0  0  0
   45.1150   26.8620   35.0740 O   0  0  0  0  0  0  0  0  0  0  0  0
   43.0980   27.2710   34.1750 N   0  0  0  0  0  0  0  0  0  0  0  0
   41.8320   26.9550   33.8830 C   0  0  0  0  0  0  0  0  0  0  0  0
   41.0430   27.7020   33.2520 O   0  0  0  0  0  0  0  0  0  0  0  0
   36.7840   25.2380   32.4840 N   0  0  0  0  0  0  0  0  0  0  0  0
   39.6845   22.6277   38.9685 H   0  0  0  0  0  0  0  0  0  0  0  0
   38.6691   24.1626   37.2723 H   0  0  0  0  0  0  0  0  0  0  0  0
   42.2402   20.9891   36.0203 H   0  0  0  0  0  0  0  0  0  0  0  0
   37.4283   23.2943   34.5120 H   0  0  0  0  0  0  0  0  0  0  0  0
   41.7042   23.9475   35.2723 H   0  0  0  0  0  0  0  0  0  0  0  0
   44.0494   24.5160   35.8196 H   0  0  0  0  0  0  0  0  0  0  0  0
   43.4576   28.1852   33.8656 H   0  0  0  0  0  0  0  0  0  0  0  0
   36.7397   25.9998   31.7922 H   0  0  0  0  0  0  0  0  0  0  0  0
   35.9712   24.6209   32.6233 H   0  0  0  0  0  0  0  0  0  0  0  0
  2  1  2  0
  3  2  1  0
  4  3  2  0
  4  5  1  0
  5  6  2  0
  6  1  1  0
  7  3  1  0
  8  7  1  0
  9  8  2  0
 10  9  1  0
 10 11  2  0
 11 12  1  0
 11  7  1  0
 12 13  1  0
 13 14  2  0
 15 16  2  0
 15 14  1  0
 17 15  1  0
 18 17  1  0
 18 12  1  0
 19 18  2  0
 20  9  1  0
  1 21  1  0
  2 22  1  0
  5 23  1  0
  8 24  1  0
 13 25  1  0
 14 26  1  0
 17 27  1  0
 20 28  1  0
 20 29  1  0
M  ISO  7  21  14  22  14  23  14  24  14  25  14  26  14  27   9
M  END
>  <minimizedAffinity>  (1) 
-4.96442795

>  <minimizedRMSD>  (1) 
1.36942697

$$$$
