
     RDKit          3D

 30 32  0  0  0  0  0  0  0  0999 V2000
   37.9080   24.1150   38.1840 C   0  0  0  0  0  0  0  0  0  0  0  0
   37.7170   24.1680   36.7960 C   0  0  0  0  0  0  0  0  0  0  0  0
   38.6260   23.4970   35.9840 C   0  0  0  0  0  0  0  0  0  0  0  0
   39.6200   22.8470   36.6020 N   0  0  0  0  0  0  0  0  0  0  0  0
   39.8160   22.7870   37.9280 C   0  0  0  0  0  0  0  0  0  0  0  0
   38.9290   23.4420   38.7200 N   0  0  0  0  0  0  0  0  0  0  0  0
   38.5040   23.5010   34.5630 N   0  0  0  0  0  0  0  0  0  0  0  0
   37.5010   22.8250   33.9630 C   0  0  0  0  0  0  0  0  0  0  0  0
   37.6980   23.0500   32.6140 C   0  0  0  0  0  0  0  0  0  0  0  0
   38.7870   23.8350   32.4430 N   0  0  0  0  0  0  0  0  0  0  0  0
   39.2930   24.1190   33.6660 C   0  0  0  0  0  0  0  0  0  0  0  0
   40.4390   24.9160   33.9440 N   0  0  0  0  0  0  0  0  0  0  0  0
   40.4250   26.0690   33.2190 C   0  0  0  0  0  0  0  0  0  0  0  0
   41.4540   26.9960   33.3370 C   0  0  0  0  0  0  0  0  0  0  0  0
   42.4720   26.6860   34.2160 C   0  0  0  0  0  0  0  0  0  0  0  0
   43.5360   27.6320   34.3470 N   0  0  0  0  0  0  0  0  0  0  0  0
   42.4590   25.5550   34.9080 N   0  0  0  0  0  0  0  0  0  0  0  0
   41.4590   24.6630   34.7870 C   0  0  0  0  0  0  0  0  0  0  0  0
   41.3560   23.5690   35.3970 O   0  0  0  0  0  0  0  0  0  0  0  0
   36.8790   22.5330   31.5830 N   0  0  0  0  0  0  0  0  0  0  0  0
   37.2020   24.6388   38.8452 H   0  0  0  0  0  0  0  0  0  0  0  0
   36.8730   24.7239   36.3616 H   0  0  0  0  0  0  0  0  0  0  0  0
   40.6618   22.2292   38.3564 H   0  0  0  0  0  0  0  0  0  0  0  0
   36.7076   22.2305   34.4396 H   0  0  0  0  0  0  0  0  0  0  0  0
   39.5895   26.2689   32.5320 H   0  0  0  0  0  0  0  0  0  0  0  0
   41.4569   27.9313   32.7580 H   0  0  0  0  0  0  0  0  0  0  0  0
   44.3170   27.4427   34.9913 H   0  0  0  0  0  0  0  0  0  0  0  0
   43.5215   28.5028   33.7971 H   0  0  0  0  0  0  0  0  0  0  0  0
   37.0934   22.7474   30.5986 H   0  0  0  0  0  0  0  0  0  0  0  0
   36.0683   21.9422   31.8167 H   0  0  0  0  0  0  0  0  0  0  0  0
  1  6  2  0
  2  1  1  0
  3  4  1  0
  3  2  2  0
  4  5  2  0
  5  6  1  0
  7  3  1  0
  8  7  1  0
  9  8  2  0
 10  9  1  0
 10 11  2  0
 11 12  1  0
 11  7  1  0
 12 18  1  0
 13 14  2  0
 13 12  1  0
 14 15  1  0
 15 16  1  0
 15 17  2  0
 18 17  1  0
 18 19  2  0
 20  9  1  0
  1 21  1  0
  2 22  1  0
  5 23  1  0
  8 24  1  0
 13 25  1  0
 14 26  1  0
 16 27  1  0
 16 28  1  0
 20 29  1  0
 20 30  1  0
M  ISO  6  21  14  22  14  23  14  24  14  25  14  26  14
M  END
>  <minimizedAffinity>  (1) 
-5.26984644

>  <minimizedRMSD>  (1) 
3.02939987

$$$$
