
     RDKit          3D

 39 41  0  0  1  0  0  0  0  0999 V2000
   36.5530   29.3380   32.2110 C   0  0  0  0  0  0  0  0  0  0  0  0
   37.2660   28.2150   31.8850 C   0  0  0  0  0  0  0  0  0  0  0  0
   37.4130   27.2170   32.8450 C   0  0  0  0  0  0  0  0  0  0  0  0
   36.8450   27.3680   34.0980 C   0  0  0  0  0  0  0  0  0  0  0  0
   36.1290   28.4890   34.4300 C   0  0  0  0  0  0  0  0  0  0  0  0
   35.9770   29.4860   33.4860 C   0  0  0  0  0  0  0  0  0  0  0  0
   37.1090   26.2220   34.9980 C   0  0  0  0  0  0  0  0  0  0  0  0
   38.5590   25.8480   35.0830 C   0  0  2  0  0  0  0  0  0  0  0  0
   40.1150   22.9810   36.7540 C   0  0  0  0  0  0  0  0  0  0  0  0
   39.3630   22.8550   37.9630 C   0  0  0  0  0  0  0  0  0  0  0  0
   38.3180   23.7680   38.1840 C   0  0  0  0  0  0  0  0  0  0  0  0
   38.0910   24.7220   37.2240 N   0  0  0  0  0  0  0  0  0  0  0  0
   38.8170   24.8130   36.1000 C   0  0  0  0  0  0  0  0  0  0  0  0
   39.8320   23.9490   35.8550 N   0  0  0  0  0  0  0  0  0  0  0  0
   39.3430   27.0990   35.4720 C   0  0  0  0  0  0  0  0  0  0  0  0
   36.3490   30.5840   31.0000 S   0  0  0  0  0  0  0  0  0  0  0  0
   36.8000   31.9090   31.6260 O   0  0  0  0  0  0  0  0  0  0  0  0
   34.9180   30.7210   30.6030 O   0  0  0  0  0  0  0  0  0  0  0  0
   37.4060   30.2080   29.6600 C   0  0  0  0  0  0  0  0  0  0  0  0
   38.5500   30.8820   29.2390 C   0  0  0  0  0  0  0  0  0  0  0  0
   39.0140   30.1720   28.1330 C   0  0  0  0  0  0  0  0  0  0  0  0
   38.1840   29.1370   27.9190 N   0  0  0  0  0  0  0  0  0  0  0  0
   37.2150   29.1670   28.8480 N   0  0  0  0  0  0  0  0  0  0  0  0
   37.7130   28.1038   30.8861 H   0  0  0  0  0  0  0  0  0  0  0  0
   37.9821   26.3063   32.6068 H   0  0  0  0  0  0  0  0  0  0  0  0
   35.6834   28.5927   35.4304 H   0  0  0  0  0  0  0  0  0  0  0  0
   35.4066   30.3941   33.7308 H   0  0  0  0  0  0  0  0  0  0  0  0
   36.7575   26.4838   36.0069 H   0  0  0  0  0  0  0  0  0  0  0  0
   36.5756   25.3548   34.5816 H   0  0  0  0  0  0  0  0  0  0  0  0
   38.8649   25.4450   34.1063 H   0  0  0  0  0  0  0  0  0  0  0  0
   40.9372   22.2787   36.5523 H   0  0  0  0  0  0  0  0  0  0  0  0
   39.5948   22.0688   38.6966 H   0  0  0  0  0  0  0  0  0  0  0  0
   37.7032   23.7197   39.0949 H   0  0  0  0  0  0  0  0  0  0  0  0
   39.3910   27.1755   36.5683 H   0  0  0  0  0  0  0  0  0  0  0  0
   40.3625   27.0344   35.0640 H   0  0  0  0  0  0  0  0  0  0  0  0
   38.8404   27.9883   35.0640 H   0  0  0  0  0  0  0  0  0  0  0  0
   38.9936   31.7842   29.6853 H   0  0  0  0  0  0  0  0  0  0  0  0
   39.9061   30.4167   27.5377 H   0  0  0  0  0  0  0  0  0  0  0  0
   38.2758   28.4379   27.1682 H   0  0  0  0  0  0  0  0  0  0  0  0
  1  6  1  0
  2  1  2  0
  2  3  1  0
  3  4  2  0
  4  5  1  0
  4  7  1  0
  6  5  2  0
  7  8  1  0
  8 15  1  0
  8 13  1  0
  9 10  2  0
 10 11  1  0
 12 11  2  0
 13 12  1  0
 14 13  2  0
 14  9  1  0
 16 17  2  0
 16  1  1  0
 18 16  2  0
 19 16  1  0
 20 19  1  0
 21 20  2  0
 22 21  1  0
 22 23  1  0
 23 19  2  0
  2 24  1  0
  3 25  1  0
  5 26  1  0
  6 27  1  0
  7 28  1  0
  7 29  1  0
  8 30  1  6
  9 31  1  0
 10 32  1  0
 11 33  1  0
 15 34  1  0
 15 35  1  0
 15 36  1  0
 20 37  1  0
 21 38  1  0
 22 39  1  0
M  ISO  8  24  14  25  14  26  14  27  14  28   8  29   8  30   8  31  14
M  ISO  8  32  14  33  14  34   8  35   8  36   8  37  14  38  14  39   9
M  END
>  <minimizedAffinity>  (1) 
-5.12136269

>  <minimizedRMSD>  (1) 
2.44597244

$$$$
