
     RDKit          3D

 32 34  0  0  0  0  0  0  0  0999 V2000
   37.9360   24.0130   38.3200 C   0  0  0  0  0  0  0  0  0  0  0  0
   37.6580   23.9490   36.9450 C   0  0  0  0  0  0  0  0  0  0  0  0
   38.5840   23.2940   36.1260 C   0  0  0  0  0  0  0  0  0  0  0  0
   39.6840   22.7690   36.7170 N   0  0  0  0  0  0  0  0  0  0  0  0
   39.9360   22.8390   38.0390 C   0  0  0  0  0  0  0  0  0  0  0  0
   39.0250   23.4810   38.8380 N   0  0  0  0  0  0  0  0  0  0  0  0
   38.3850   23.1820   34.7210 N   0  0  0  0  0  0  0  0  0  0  0  0
   37.4130   22.3850   34.2360 C   0  0  0  0  0  0  0  0  0  0  0  0
   37.5010   22.5120   32.8700 C   0  0  0  0  0  0  0  0  0  0  0  0
   38.5090   23.3700   32.5700 N   0  0  0  0  0  0  0  0  0  0  0  0
   39.0590   23.7860   33.7280 C   0  0  0  0  0  0  0  0  0  0  0  0
   42.5780   26.0920   34.0360 C   0  0  0  0  0  0  0  0  0  0  0  0
   42.5910   24.7610   33.6860 C   0  0  0  0  0  0  0  0  0  0  0  0
   41.3910   24.0790   33.6090 C   0  0  0  0  0  0  0  0  0  0  0  0
   40.1730   24.7160   33.8790 C   0  0  0  0  0  0  0  0  0  0  0  0
   40.1860   26.0530   34.2280 C   0  0  0  0  0  0  0  0  0  0  0  0
   41.3930   26.7080   34.2970 C   0  0  0  0  0  0  0  0  0  0  0  0
   44.0850   26.9700   34.1390 S   0  0  0  0  0  0  0  0  0  0  0  0
   44.9460   26.5340   35.2760 O   0  0  0  0  0  0  0  0  0  0  0  0
   44.7970   26.8940   32.8160 O   0  0  0  0  0  0  0  0  0  0  0  0
   36.6710   21.8520   31.9260 N   0  0  0  0  0  0  0  0  0  0  0  0
   37.2232   24.5226   38.9850 H   0  0  0  0  0  0  0  0  0  0  0  0
   36.7449   24.3978   36.5269 H   0  0  0  0  0  0  0  0  0  0  0  0
   40.8470   22.3936   38.4653 H   0  0  0  0  0  0  0  0  0  0  0  0
   36.7043   21.7679   34.8078 H   0  0  0  0  0  0  0  0  0  0  0  0
   43.5403   24.2485   33.4711 H   0  0  0  0  0  0  0  0  0  0  0  0
   41.3926   23.0149   33.3302 H   0  0  0  0  0  0  0  0  0  0  0  0
   39.2476   26.5837   34.4467 H   0  0  0  0  0  0  0  0  0  0  0  0
   41.4010   27.7725   34.5743 H   0  0  0  0  0  0  0  0  0  0  0  0
   43.7935   28.2805   34.4119 H   0  0  0  0  0  0  0  0  0  0  0  0
   36.8116   22.0093   30.9178 H   0  0  0  0  0  0  0  0  0  0  0  0
   35.9282   21.2159   32.2493 H   0  0  0  0  0  0  0  0  0  0  0  0
  1  6  2  0
  2  1  1  0
  3  4  1  0
  3  2  2  0
  4  5  2  0
  5  6  1  0
  7  3  1  0
  8  7  1  0
  9  8  2  0
 10  9  1  0
 10 11  2  0
 11 15  1  0
 11  7  1  0
 12 18  1  0
 12 17  2  0
 13 12  1  0
 14 13  2  0
 14 15  1  0
 15 16  2  0
 16 17  1  0
 18 19  2  0
 20 18  2  0
 21  9  1  0
  1 22  1  0
  2 23  1  0
  5 24  1  0
  8 25  1  0
 13 26  1  0
 14 27  1  0
 16 28  1  0
 17 29  1  0
 18 30  1  0
 21 31  1  0
 21 32  1  0
M  ISO  8  22  14  23  14  24  14  25  14  26  14  27  14  28  14  29  14
M  ISO  1  30  11
M  END
>  <minimizedAffinity>  (1) 
-4.53060865

>  <minimizedRMSD>  (1) 
3.19934702

$$$$
