
     RDKit          3D

 35 37  0  0  0  0  0  0  0  0999 V2000
   37.8470   23.3560   38.4450 C   0  0  0  0  0  0  0  0  0  0  0  0
   37.4260   23.2780   37.1050 C   0  0  0  0  0  0  0  0  0  0  0  0
   38.3780   22.9550   36.1420 C   0  0  0  0  0  0  0  0  0  0  0  0
   39.6370   22.7400   36.5510 N   0  0  0  0  0  0  0  0  0  0  0  0
   40.0410   22.8160   37.8300 C   0  0  0  0  0  0  0  0  0  0  0  0
   39.1060   23.1330   38.7840 N   0  0  0  0  0  0  0  0  0  0  0  0
   38.0250   22.8550   34.7520 N   0  0  0  0  0  0  0  0  0  0  0  0
   37.2750   21.8480   34.3050 C   0  0  0  0  0  0  0  0  0  0  0  0
   37.1520   22.0880   32.9530 C   0  0  0  0  0  0  0  0  0  0  0  0
   37.8260   23.2240   32.6240 N   0  0  0  0  0  0  0  0  0  0  0  0
   38.3770   23.7110   33.7520 C   0  0  0  0  0  0  0  0  0  0  0  0
   39.2060   24.9110   33.9690 C   0  0  0  0  0  0  0  0  0  0  0  0
   39.6260   25.4510   32.6160 C   0  0  0  0  0  0  0  0  0  0  0  0
   40.4900   26.6480   32.8170 C   0  0  0  0  0  0  0  0  0  0  0  0
   40.6970   27.0750   34.2300 C   0  0  0  0  0  0  0  0  0  0  0  0
   39.4540   27.0830   35.0620 C   0  0  0  0  0  0  0  0  0  0  0  0
   38.4660   26.0150   34.6720 C   0  0  0  0  0  0  0  0  0  0  0  0
   36.4240   21.2580   32.0500 N   0  0  0  0  0  0  0  0  0  0  0  0
   37.1147   23.6074   39.2264 H   0  0  0  0  0  0  0  0  0  0  0  0
   36.3784   23.4661   36.8271 H   0  0  0  0  0  0  0  0  0  0  0  0
   41.0897   22.6298   38.1047 H   0  0  0  0  0  0  0  0  0  0  0  0
   36.8504   21.0144   34.8836 H   0  0  0  0  0  0  0  0  0  0  0  0
   40.0577   24.6079   34.5957 H   0  0  0  0  0  0  0  0  0  0  0  0
   38.7333   25.7335   32.0387 H   0  0  0  0  0  0  0  0  0  0  0  0
   40.1836   24.6792   32.0652 H   0  0  0  0  0  0  0  0  0  0  0  0
   41.4769   26.4271   32.3842 H   0  0  0  0  0  0  0  0  0  0  0  0
   39.9609   27.4806   32.3302 H   0  0  0  0  0  0  0  0  0  0  0  0
   41.4179   26.3866   34.6952 H   0  0  0  0  0  0  0  0  0  0  0  0
   41.0573   28.1137   34.1943 H   0  0  0  0  0  0  0  0  0  0  0  0
   39.7374   26.9286   36.1136 H   0  0  0  0  0  0  0  0  0  0  0  0
   38.9625   28.0540   34.9020 H   0  0  0  0  0  0  0  0  0  0  0  0
   37.7073   26.4401   33.9985 H   0  0  0  0  0  0  0  0  0  0  0  0
   37.9654   25.6205   35.5686 H   0  0  0  0  0  0  0  0  0  0  0  0
   36.3765   21.5021   31.0505 H   0  0  0  0  0  0  0  0  0  0  0  0
   35.9457   20.4145   32.3974 H   0  0  0  0  0  0  0  0  0  0  0  0
  1  6  2  0
  2  1  1  0
  3  4  1  0
  3  2  2  0
  4  5  2  0
  5  6  1  0
  7  3  1  0
  8  7  1  0
  9  8  2  0
 10  9  1  0
 10 11  2  0
 11 12  1  0
 11  7  1  0
 12 17  1  0
 13 14  1  0
 13 12  1  0
 14 15  1  0
 15 16  1  0
 17 16  1  0
 18  9  1  0
  1 19  1  0
  2 20  1  0
  5 21  1  0
  8 22  1  0
 12 23  1  0
 13 24  1  0
 13 25  1  0
 14 26  1  0
 14 27  1  0
 15 28  1  0
 15 29  1  0
 16 30  1  0
 16 31  1  0
 17 32  1  0
 17 33  1  0
 18 34  1  0
 18 35  1  0
M  ISO  8  19  14  20  14  21  14  22  14  23  13  24  13  25  13  26  13
M  ISO  7  27  13  28  13  29  13  30  13  31  13  32  13  33  13
M  END
>  <minimizedAffinity>  (1) 
-4.93031883

>  <minimizedRMSD>  (1) 
3.74760938

$$$$
