
     RDKit          3D

 29 31  0  0  0  0  0  0  0  0999 V2000
   41.4420   21.6460   37.4180 C   0  0  0  0  0  0  0  0  0  0  0  0
   41.6410   22.9110   36.8310 C   0  0  0  0  0  0  0  0  0  0  0  0
   42.8020   23.0840   36.0760 C   0  0  0  0  0  0  0  0  0  0  0  0
   43.6520   22.0330   35.9590 N   0  0  0  0  0  0  0  0  0  0  0  0
   43.4430   20.8370   36.5250 C   0  0  0  0  0  0  0  0  0  0  0  0
   42.3190   20.6520   37.2630 N   0  0  0  0  0  0  0  0  0  0  0  0
   43.0970   24.3320   35.4400 N   0  0  0  0  0  0  0  0  0  0  0  0
   42.3690   24.7410   34.3850 C   0  0  0  0  0  0  0  0  0  0  0  0
   42.9280   25.9560   34.0430 C   0  0  0  0  0  0  0  0  0  0  0  0
   43.9470   26.2440   34.8710 N   0  0  0  0  0  0  0  0  0  0  0  0
   44.0620   25.2200   35.7610 C   0  0  0  0  0  0  0  0  0  0  0  0
   45.0180   25.0950   36.8370 C   0  0  0  0  0  0  0  0  0  0  0  0
   44.7710   25.6360   38.1000 C   0  0  0  0  0  0  0  0  0  0  0  0
   45.7350   25.4830   39.0990 C   0  0  0  0  0  0  0  0  0  0  0  0
   46.9260   24.8080   38.8670 C   0  0  0  0  0  0  0  0  0  0  0  0
   47.1440   24.2830   37.6100 C   0  0  0  0  0  0  0  0  0  0  0  0
   46.2020   24.4310   36.6270 C   0  0  0  0  0  0  0  0  0  0  0  0
   42.4850   26.7750   32.9720 N   0  0  0  0  0  0  0  0  0  0  0  0
   40.5385   21.4726   38.0210 H   0  0  0  0  0  0  0  0  0  0  0  0
   40.9139   23.7260   36.9618 H   0  0  0  0  0  0  0  0  0  0  0  0
   44.1684   20.0205   36.3942 H   0  0  0  0  0  0  0  0  0  0  0  0
   41.5234   24.2260   33.9056 H   0  0  0  0  0  0  0  0  0  0  0  0
   43.8334   26.1735   38.3048 H   0  0  0  0  0  0  0  0  0  0  0  0
   45.5458   25.9084   40.0956 H   0  0  0  0  0  0  0  0  0  0  0  0
   47.6756   24.6949   39.6641 H   0  0  0  0  0  0  0  0  0  0  0  0
   48.0784   23.7433   37.3964 H   0  0  0  0  0  0  0  0  0  0  0  0
   46.4007   24.0027   35.6335 H   0  0  0  0  0  0  0  0  0  0  0  0
   42.9557   27.6708   32.7799 H   0  0  0  0  0  0  0  0  0  0  0  0
   41.6928   26.4736   32.3868 H   0  0  0  0  0  0  0  0  0  0  0  0
  2  1  2  0
  3  2  1  0
  4  3  2  0
  4  5  1  0
  5  6  2  0
  6  1  1  0
  7 11  1  0
  7  3  1  0
  8  7  1  0
  9  8  2  0
  9 10  1  0
 10 11  2  0
 11 12  1  0
 12 13  2  0
 13 14  1  0
 15 14  2  0
 16 15  1  0
 17 12  1  0
 17 16  2  0
 18  9  1  0
  1 19  1  0
  2 20  1  0
  5 21  1  0
  8 22  1  0
 13 23  1  0
 14 24  1  0
 15 25  1  0
 16 26  1  0
 17 27  1  0
 18 28  1  0
 18 29  1  0
M  ISO  8  19  14  20  14  21  14  22  14  23  14  24  14  25  14  26  14
M  ISO  1  27  14
M  END
>  <minimizedAffinity>  (1) 
-4.93915701

>  <minimizedRMSD>  (1) 
3.85719919

$$$$
