
     RDKit          3D

 33 35  0  0  0  0  0  0  0  0999 V2000
   37.9050   23.6190   38.2890 C   0  0  0  0  0  0  0  0  0  0  0  0
   37.5900   23.5960   36.9300 C   0  0  0  0  0  0  0  0  0  0  0  0
   38.5650   23.1320   36.0290 C   0  0  0  0  0  0  0  0  0  0  0  0
   39.7330   22.7450   36.5530 N   0  0  0  0  0  0  0  0  0  0  0  0
   40.0500   22.7620   37.8650 C   0  0  0  0  0  0  0  0  0  0  0  0
   39.0990   23.2130   38.7320 N   0  0  0  0  0  0  0  0  0  0  0  0
   38.3150   23.0770   34.6300 N   0  0  0  0  0  0  0  0  0  0  0  0
   37.4410   22.1800   34.1320 C   0  0  0  0  0  0  0  0  0  0  0  0
   37.4420   22.4010   32.7760 C   0  0  0  0  0  0  0  0  0  0  0  0
   38.3070   23.4160   32.4930 N   0  0  0  0  0  0  0  0  0  0  0  0
   38.8450   23.8290   33.6550 C   0  0  0  0  0  0  0  0  0  0  0  0
   39.7950   24.8750   33.7790 N   0  0  0  0  0  0  0  0  0  0  0  0
   41.2210   24.6080   33.7210 C   0  0  0  0  0  0  0  0  0  0  0  0
   41.8420   25.4090   34.8620 C   0  0  0  0  0  0  0  0  0  0  0  0
   41.6700   26.8300   34.6380 N   0  0  0  0  0  0  0  0  0  0  0  0
   40.6990   27.1020   33.5770 C   0  0  0  0  0  0  0  0  0  0  0  0
   39.4670   26.2740   33.9700 C   0  0  0  0  0  0  0  0  0  0  0  0
   36.6570   21.6780   31.8380 N   0  0  0  0  0  0  0  0  0  0  0  0
   37.1560   23.9783   39.0101 H   0  0  0  0  0  0  0  0  0  0  0  0
   36.6053   23.9318   36.5728 H   0  0  0  0  0  0  0  0  0  0  0  0
   41.0353   22.4258   38.2203 H   0  0  0  0  0  0  0  0  0  0  0  0
   36.8551   21.4342   34.6893 H   0  0  0  0  0  0  0  0  0  0  0  0
   41.4152   23.5339   33.8573 H   0  0  0  0  0  0  0  0  0  0  0  0
   41.6467   24.8938   32.7478 H   0  0  0  0  0  0  0  0  0  0  0  0
   41.3538   25.1301   35.8075 H   0  0  0  0  0  0  0  0  0  0  0  0
   42.9178   25.1844   34.9094 H   0  0  0  0  0  0  0  0  0  0  0  0
   41.3409   27.2672   35.5106 H   0  0  0  0  0  0  0  0  0  0  0  0
   41.0890   26.7808   32.5999 H   0  0  0  0  0  0  0  0  0  0  0  0
   40.4718   28.1738   33.4795 H   0  0  0  0  0  0  0  0  0  0  0  0
   38.6129   26.5485   33.3335 H   0  0  0  0  0  0  0  0  0  0  0  0
   39.1935   26.4652   35.0182 H   0  0  0  0  0  0  0  0  0  0  0  0
   36.7145   21.9048   30.8349 H   0  0  0  0  0  0  0  0  0  0  0  0
   36.0304   20.9271   32.1611 H   0  0  0  0  0  0  0  0  0  0  0  0
  1  6  2  0
  2  1  1  0
  3  4  1  0
  3  2  2  0
  4  5  2  0
  5  6  1  0
  7  3  1  0
  8  7  1  0
  9  8  2  0
 10  9  1  0
 10 11  2  0
 11 12  1  0
 11  7  1  0
 12 17  1  0
 13 12  1  0
 13 14  1  0
 15 14  1  0
 16 17  1  0
 16 15  1  0
 18  9  1  0
  1 19  1  0
  2 20  1  0
  5 21  1  0
  8 22  1  0
 13 23  1  0
 13 24  1  0
 14 25  1  0
 14 26  1  0
 15 27  1  0
 16 28  1  0
 16 29  1  0
 17 30  1  0
 17 31  1  0
 18 32  1  0
 18 33  1  0
M  ISO  8  19  14  20  14  21  14  22  14  23  13  24  13  25  13  26  13
M  ISO  5  27   5  28  13  29  13  30  13  31  13
M  END
>  <minimizedAffinity>  (1) 
-4.9254818

>  <minimizedRMSD>  (1) 
3.39609528

$$$$
