
     RDKit          3D

 26 28  0  0  0  0  0  0  0  0999 V2000
   37.7840   23.3740   38.4100 C   0  0  0  0  0  0  0  0  0  0  0  0
   37.4220   23.3310   37.0610 C   0  0  0  0  0  0  0  0  0  0  0  0
   38.4100   23.0670   36.1160 C   0  0  0  0  0  0  0  0  0  0  0  0
   39.6660   22.8660   36.5640 N   0  0  0  0  0  0  0  0  0  0  0  0
   40.0070   22.9100   37.8710 C   0  0  0  0  0  0  0  0  0  0  0  0
   39.0460   23.1670   38.7940 N   0  0  0  0  0  0  0  0  0  0  0  0
   38.1130   23.0090   34.7240 N   0  0  0  0  0  0  0  0  0  0  0  0
   37.3800   21.9950   34.2220 C   0  0  0  0  0  0  0  0  0  0  0  0
   37.2960   22.2660   32.8650 C   0  0  0  0  0  0  0  0  0  0  0  0
   37.9700   23.4180   32.5950 N   0  0  0  0  0  0  0  0  0  0  0  0
   38.4740   23.8740   33.7580 C   0  0  0  0  0  0  0  0  0  0  0  0
   39.2500   25.0560   33.9250 N   0  0  0  0  0  0  0  0  0  0  0  0
   39.1070   26.3330   33.5830 N   0  0  0  0  0  0  0  0  0  0  0  0
   40.1620   27.0460   33.9980 C   0  0  0  0  0  0  0  0  0  0  0  0
   41.0120   26.1740   34.6350 C   0  0  0  0  0  0  0  0  0  0  0  0
   40.4280   24.9110   34.5850 C   0  0  0  0  0  0  0  0  0  0  0  0
   36.6070   21.4490   31.9290 N   0  0  0  0  0  0  0  0  0  0  0  0
   37.0156   23.5821   39.1691 H   0  0  0  0  0  0  0  0  0  0  0  0
   36.3800   23.5019   36.7526 H   0  0  0  0  0  0  0  0  0  0  0  0
   41.0483   22.7400   38.1821 H   0  0  0  0  0  0  0  0  0  0  0  0
   36.9460   21.1437   34.7668 H   0  0  0  0  0  0  0  0  0  0  0  0
   40.3186   28.1255   33.8559 H   0  0  0  0  0  0  0  0  0  0  0  0
   41.9766   26.4273   35.0991 H   0  0  0  0  0  0  0  0  0  0  0  0
   40.8399   23.9788   34.9988 H   0  0  0  0  0  0  0  0  0  0  0  0
   36.5857   21.7120   30.9334 H   0  0  0  0  0  0  0  0  0  0  0  0
   36.1287   20.5936   32.2460 H   0  0  0  0  0  0  0  0  0  0  0  0
  1  6  2  0
  2  1  1  0
  3  4  1  0
  3  2  2  0
  4  5  2  0
  5  6  1  0
  7  3  1  0
  8  7  1  0
  9  8  2  0
 10  9  1  0
 10 11  2  0
 11 12  1  0
 11  7  1  0
 12 16  1  0
 13 12  1  0
 13 14  2  0
 14 15  1  0
 16 15  2  0
 17  9  1  0
  1 18  1  0
  2 19  1  0
  5 20  1  0
  8 21  1  0
 14 22  1  0
 15 23  1  0
 16 24  1  0
 17 25  1  0
 17 26  1  0
M  ISO  7  18  14  19  14  20  14  21  14  22  14  23  14  24  14
M  END
>  <minimizedAffinity>  (1) 
-4.63102198

>  <minimizedRMSD>  (1) 
3.56977892

$$$$
