
     RDKit          3D

 25 27  0  0  0  0  0  0  0  0999 V2000
   37.8090   23.3470   38.4240 C   0  0  0  0  0  0  0  0  0  0  0  0
   37.4140   23.2950   37.0720 C   0  0  0  0  0  0  0  0  0  0  0  0
   38.4090   23.0160   36.1210 C   0  0  0  0  0  0  0  0  0  0  0  0
   39.6540   22.8220   36.5740 N   0  0  0  0  0  0  0  0  0  0  0  0
   40.0310   22.8720   37.8580 C   0  0  0  0  0  0  0  0  0  0  0  0
   39.0770   23.1410   38.7860 N   0  0  0  0  0  0  0  0  0  0  0  0
   38.0830   22.9450   34.7260 N   0  0  0  0  0  0  0  0  0  0  0  0
   37.3700   21.9350   34.2420 C   0  0  0  0  0  0  0  0  0  0  0  0
   37.2560   22.1990   32.8990 C   0  0  0  0  0  0  0  0  0  0  0  0
   37.8980   23.3470   32.6220 N   0  0  0  0  0  0  0  0  0  0  0  0
   38.4340   23.8470   33.7620 C   0  0  0  0  0  0  0  0  0  0  0  0
   39.2240   25.0820   33.9490 C   0  0  0  0  0  0  0  0  0  0  0  0
   40.4160   25.2690   33.2260 C   0  0  0  0  0  0  0  0  0  0  0  0
   40.9760   26.8930   33.8060 S   0  0  0  0  0  0  0  0  0  0  0  0
   39.4730   27.0610   34.9580 C   0  0  0  0  0  0  0  0  0  0  0  0
   38.8940   26.0590   34.7640 N   0  0  0  0  0  0  0  0  0  0  0  0
   36.5670   21.3810   31.9630 N   0  0  0  0  0  0  0  0  0  0  0  0
   37.0564   23.5619   39.1970 H   0  0  0  0  0  0  0  0  0  0  0  0
   36.3691   23.4660   36.7739 H   0  0  0  0  0  0  0  0  0  0  0  0
   41.0774   22.7010   38.1508 H   0  0  0  0  0  0  0  0  0  0  0  0
   36.9609   21.0764   34.7946 H   0  0  0  0  0  0  0  0  0  0  0  0
   40.8892   24.5988   32.4933 H   0  0  0  0  0  0  0  0  0  0  0  0
   39.2122   27.8879   35.6349 H   0  0  0  0  0  0  0  0  0  0  0  0
   36.5297   21.6534   30.9704 H   0  0  0  0  0  0  0  0  0  0  0  0
   36.1049   20.5158   32.2773 H   0  0  0  0  0  0  0  0  0  0  0  0
  1  6  2  0
  2  1  1  0
  3  4  1  0
  3  2  2  0
  4  5  2  0
  5  6  1  0
  7  3  1  0
  8  7  1  0
  9  8  2  0
 10  9  1  0
 10 11  2  0
 11 12  1  0
 11  7  1  0
 12 16  1  0
 13 14  1  0
 13 12  2  0
 14 15  1  0
 16 15  2  0
 17  9  1  0
  1 18  1  0
  2 19  1  0
  5 20  1  0
  8 21  1  0
 13 22  1  0
 15 23  1  0
 17 24  1  0
 17 25  1  0
M  ISO  6  18  14  19  14  20  14  21  14  22  14  23  14
M  END
>  <minimizedAffinity>  (1) 
-4.36815786

>  <minimizedRMSD>  (1) 
3.64686251

$$$$
