
     RDKit          3D

 26 28  0  0  0  0  0  0  0  0999 V2000
   37.8520   23.4600   38.3790 C   0  0  0  0  0  0  0  0  0  0  0  0
   37.4790   23.4360   37.0190 C   0  0  0  0  0  0  0  0  0  0  0  0
   38.4750   23.0660   36.0990 C   0  0  0  0  0  0  0  0  0  0  0  0
   39.6800   22.7720   36.5930 N   0  0  0  0  0  0  0  0  0  0  0  0
   40.0340   22.7940   37.8840 C   0  0  0  0  0  0  0  0  0  0  0  0
   39.0690   23.1540   38.7820 N   0  0  0  0  0  0  0  0  0  0  0  0
   38.2000   23.0100   34.7000 N   0  0  0  0  0  0  0  0  0  0  0  0
   37.3900   22.0670   34.2010 C   0  0  0  0  0  0  0  0  0  0  0  0
   37.3570   22.3140   32.8450 C   0  0  0  0  0  0  0  0  0  0  0  0
   38.1430   23.3910   32.5670 N   0  0  0  0  0  0  0  0  0  0  0  0
   38.6670   23.8230   33.7290 C   0  0  0  0  0  0  0  0  0  0  0  0
   39.5720   24.9570   33.9050 C   0  0  0  0  0  0  0  0  0  0  0  0
   39.4150   26.2630   34.1420 C   0  0  0  0  0  0  0  0  0  0  0  0
   40.4660   27.1000   34.2610 C   0  0  0  0  0  0  0  0  0  0  0  0
   41.7390   26.4990   34.1170 C   0  0  0  0  0  0  0  0  0  0  0  0
   41.3280   24.6890   33.8060 S   0  0  0  0  0  0  0  0  0  0  0  0
   36.6210   21.5630   31.8930 N   0  0  0  0  0  0  0  0  0  0  0  0
   37.1004   23.7443   39.1302 H   0  0  0  0  0  0  0  0  0  0  0  0
   36.4600   23.6939   36.6947 H   0  0  0  0  0  0  0  0  0  0  0  0
   41.0532   22.5346   38.2065 H   0  0  0  0  0  0  0  0  0  0  0  0
   36.8667   21.2713   34.7515 H   0  0  0  0  0  0  0  0  0  0  0  0
   38.3972   26.6678   34.2431 H   0  0  0  0  0  0  0  0  0  0  0  0
   40.3421   28.1754   34.4565 H   0  0  0  0  0  0  0  0  0  0  0  0
   42.7292   26.9747   34.1732 H   0  0  0  0  0  0  0  0  0  0  0  0
   36.6552   21.8203   30.8962 H   0  0  0  0  0  0  0  0  0  0  0  0
   36.0524   20.7603   32.1985 H   0  0  0  0  0  0  0  0  0  0  0  0
  1  6  2  0
  2  1  1  0
  3  4  1  0
  3  2  2  0
  4  5  2  0
  5  6  1  0
  7  3  1  0
  8  7  1  0
  9  8  2  0
 10  9  1  0
 10 11  2  0
 11 12  1  0
 11  7  1  0
 12 13  2  0
 13 14  1  0
 15 14  2  0
 16 12  1  0
 16 15  1  0
 17  9  1  0
  1 18  1  0
  2 19  1  0
  5 20  1  0
  8 21  1  0
 13 22  1  0
 14 23  1  0
 15 24  1  0
 17 25  1  0
 17 26  1  0
M  ISO  7  18  14  19  14  20  14  21  14  22  14  23  14  24  14
M  END
>  <minimizedAffinity>  (1) 
-4.40331078

>  <minimizedRMSD>  (1) 
3.46093416

$$$$
