
     RDKit          3D

 27 29  0  0  0  0  0  0  0  0999 V2000
   37.8000   23.6300   38.3440 C   0  0  0  0  0  0  0  0  0  0  0  0
   37.4990   23.5230   36.9820 C   0  0  0  0  0  0  0  0  0  0  0  0
   38.5010   23.0480   36.1210 C   0  0  0  0  0  0  0  0  0  0  0  0
   39.6870   22.7300   36.6750 N   0  0  0  0  0  0  0  0  0  0  0  0
   39.9660   22.8370   37.9870 C   0  0  0  0  0  0  0  0  0  0  0  0
   38.9940   23.2970   38.8160 N   0  0  0  0  0  0  0  0  0  0  0  0
   38.2820   22.9060   34.7190 N   0  0  0  0  0  0  0  0  0  0  0  0
   37.4600   21.9480   34.2510 C   0  0  0  0  0  0  0  0  0  0  0  0
   37.4780   22.0910   32.8910 C   0  0  0  0  0  0  0  0  0  0  0  0
   38.3050   23.1220   32.5660 N   0  0  0  0  0  0  0  0  0  0  0  0
   38.8020   23.6250   33.7110 C   0  0  0  0  0  0  0  0  0  0  0  0
   39.7310   24.7410   33.8480 C   0  0  0  0  0  0  0  0  0  0  0  0
   39.2610   26.0380   33.8530 C   0  0  0  0  0  0  0  0  0  0  0  0
   40.0660   27.1570   33.9770 C   0  0  0  0  0  0  0  0  0  0  0  0
   41.3920   26.9300   34.1010 N   0  0  0  0  0  0  0  0  0  0  0  0
   41.8900   25.6600   34.1000 C   0  0  0  0  0  0  0  0  0  0  0  0
   41.0640   24.6020   33.9760 N   0  0  0  0  0  0  0  0  0  0  0  0
   36.7530   21.2910   31.9670 N   0  0  0  0  0  0  0  0  0  0  0  0
   37.0302   23.9981   39.0382 H   0  0  0  0  0  0  0  0  0  0  0  0
   36.5071   23.8026   36.5973 H   0  0  0  0  0  0  0  0  0  0  0  0
   40.9559   22.5590   38.3778 H   0  0  0  0  0  0  0  0  0  0  0  0
   36.8948   21.2084   34.8371 H   0  0  0  0  0  0  0  0  0  0  0  0
   38.1766   26.1928   33.7519 H   0  0  0  0  0  0  0  0  0  0  0  0
   39.6492   28.1750   33.9747 H   0  0  0  0  0  0  0  0  0  0  0  0
   42.9733   25.4981   34.2011 H   0  0  0  0  0  0  0  0  0  0  0  0
   36.8296   21.4742   30.9563 H   0  0  0  0  0  0  0  0  0  0  0  0
   36.1510   20.5280   32.3080 H   0  0  0  0  0  0  0  0  0  0  0  0
  1  6  2  0
  2  1  1  0
  3  4  1  0
  3  2  2  0
  4  5  2  0
  5  6  1  0
  7  3  1  0
  8  7  1  0
  9  8  2  0
 10  9  1  0
 10 11  2  0
 11 12  1  0
 11  7  1  0
 12 13  2  0
 12 17  1  0
 13 14  1  0
 14 15  2  0
 16 15  1  0
 17 16  2  0
 18  9  1  0
  1 19  1  0
  2 20  1  0
  5 21  1  0
  8 22  1  0
 13 23  1  0
 14 24  1  0
 16 25  1  0
 18 26  1  0
 18 27  1  0
M  ISO  7  19  14  20  14  21  14  22  14  23  14  24  14  25  14
M  END
>  <minimizedAffinity>  (1) 
-4.39123344

>  <minimizedRMSD>  (1) 
3.54122281

$$$$
