
     RDKit          3D

 25 27  0  0  0  0  0  0  0  0999 V2000
   37.7850   23.4080   38.4030 C   0  0  0  0  0  0  0  0  0  0  0  0
   37.4430   23.3980   37.0410 C   0  0  0  0  0  0  0  0  0  0  0  0
   38.4700   23.1220   36.1210 C   0  0  0  0  0  0  0  0  0  0  0  0
   39.6960   22.8880   36.6000 N   0  0  0  0  0  0  0  0  0  0  0  0
   40.0160   22.9000   37.9080 C   0  0  0  0  0  0  0  0  0  0  0  0
   39.0330   23.1650   38.8040 N   0  0  0  0  0  0  0  0  0  0  0  0
   38.1970   23.0930   34.7120 N   0  0  0  0  0  0  0  0  0  0  0  0
   37.4650   22.1130   34.1690 C   0  0  0  0  0  0  0  0  0  0  0  0
   37.4100   22.3990   32.8320 C   0  0  0  0  0  0  0  0  0  0  0  0
   38.1060   23.5420   32.5970 N   0  0  0  0  0  0  0  0  0  0  0  0
   38.5990   23.9750   33.7760 C   0  0  0  0  0  0  0  0  0  0  0  0
   39.3870   25.1340   33.9820 N   0  0  0  0  0  0  0  0  0  0  0  0
   40.5480   24.9400   34.6420 C   0  0  0  0  0  0  0  0  0  0  0  0
   41.1610   26.1480   34.7450 N   0  0  0  0  0  0  0  0  0  0  0  0
   40.3280   27.0390   34.1330 C   0  0  0  0  0  0  0  0  0  0  0  0
   39.2380   26.4010   33.6680 N   0  0  0  0  0  0  0  0  0  0  0  0
   36.7360   21.6330   31.8490 N   0  0  0  0  0  0  0  0  0  0  0  0
   37.0087   23.6203   39.1529 H   0  0  0  0  0  0  0  0  0  0  0  0
   36.4140   23.5979   36.7075 H   0  0  0  0  0  0  0  0  0  0  0  0
   41.0455   22.7005   38.2403 H   0  0  0  0  0  0  0  0  0  0  0  0
   37.0051   21.2588   34.6875 H   0  0  0  0  0  0  0  0  0  0  0  0
   40.9276   23.9815   35.0255 H   0  0  0  0  0  0  0  0  0  0  0  0
   40.5190   28.1178   34.0344 H   0  0  0  0  0  0  0  0  0  0  0  0
   36.7522   21.9312   30.8633 H   0  0  0  0  0  0  0  0  0  0  0  0
   36.2299   20.7779   32.1201 H   0  0  0  0  0  0  0  0  0  0  0  0
  1  6  2  0
  2  1  1  0
  3  4  1  0
  3  2  2  0
  4  5  2  0
  5  6  1  0
  7  3  1  0
  8  7  1  0
  9  8  2  0
 10  9  1  0
 10 11  2  0
 11 12  1  0
 11  7  1  0
 12 13  1  0
 13 14  2  0
 15 14  1  0
 16 12  1  0
 16 15  2  0
 17  9  1  0
  1 18  1  0
  2 19  1  0
  5 20  1  0
  8 21  1  0
 13 22  1  0
 15 23  1  0
 17 24  1  0
 17 25  1  0
M  ISO  6  18  14  19  14  20  14  21  14  22  14  23  14
M  END
>  <minimizedAffinity>  (1) 
-4.52438021

>  <minimizedRMSD>  (1) 
3.47155285

$$$$
