
     RDKit          3D

 28 29  0  0  0  0  0  0  0  0999 V2000
   38.1920   23.2290   37.7040 C   0  0  0  0  0  0  0  0  0  0  0  0
   37.7290   23.8090   36.5000 C   0  0  0  0  0  0  0  0  0  0  0  0
   38.6990   24.0730   35.5160 C   0  0  0  0  0  0  0  0  0  0  0  0
   39.9600   23.7520   35.8150 N   0  0  0  0  0  0  0  0  0  0  0  0
   40.3990   23.2040   36.9540 C   0  0  0  0  0  0  0  0  0  0  0  0
   39.4600   22.9450   37.9140 N   0  0  0  0  0  0  0  0  0  0  0  0
   38.3380   24.6560   34.2670 N   0  0  0  0  0  0  0  0  0  0  0  0
   37.6310   23.9650   33.3680 C   0  0  0  0  0  0  0  0  0  0  0  0
   37.4670   24.8190   32.3080 C   0  0  0  0  0  0  0  0  0  0  0  0
   38.0800   26.0040   32.5930 N   0  0  0  0  0  0  0  0  0  0  0  0
   38.6210   25.8910   33.8190 C   0  0  0  0  0  0  0  0  0  0  0  0
   36.7570   24.4890   31.1130 N   0  0  0  0  0  0  0  0  0  0  0  0
   39.3840   26.9510   34.5260 C   0  0  0  0  0  0  0  0  0  0  0  0
   38.7660   27.2030   35.8980 C   0  0  0  0  0  0  0  0  0  0  0  0
   40.8330   26.5710   34.7070 C   0  0  0  0  0  0  0  0  0  0  0  0
   37.4629   23.0062   38.4970 H   0  0  0  0  0  0  0  0  0  0  0  0
   36.6656   24.0416   36.3413 H   0  0  0  0  0  0  0  0  0  0  0  0
   41.4630   22.9731   37.1106 H   0  0  0  0  0  0  0  0  0  0  0  0
   37.2604   22.9333   33.4588 H   0  0  0  0  0  0  0  0  0  0  0  0
   36.3320   23.5567   31.0073 H   0  0  0  0  0  0  0  0  0  0  0  0
   36.6701   25.1833   30.3572 H   0  0  0  0  0  0  0  0  0  0  0  0
   39.3369   27.8604   33.9089 H   0  0  0  0  0  0  0  0  0  0  0  0
   39.4810   26.9114   36.6814 H   0  0  0  0  0  0  0  0  0  0  0  0
   38.5248   28.2713   36.0009 H   0  0  0  0  0  0  0  0  0  0  0  0
   37.8466   26.6080   36.0009 H   0  0  0  0  0  0  0  0  0  0  0  0
   41.0648   26.5102   35.7806 H   0  0  0  0  0  0  0  0  0  0  0  0
   41.0174   25.5941   34.2362 H   0  0  0  0  0  0  0  0  0  0  0  0
   41.4731   27.3316   34.2362 H   0  0  0  0  0  0  0  0  0  0  0  0
  1  6  2  0
  2  1  1  0
  3  4  1  0
  3  2  2  0
  4  5  2  0
  5  6  1  0
  7  3  1  0
  8  7  1  0
  9 10  1  0
  9  8  2  0
 10 11  2  0
 11  7  1  0
 11 13  1  0
 12  9  1  0
 13 15  1  0
 13 14  1  0
  1 16  1  0
  2 17  1  0
  5 18  1  0
  8 19  1  0
 12 20  1  0
 12 21  1  0
 13 22  1  0
 14 23  1  0
 14 24  1  0
 14 25  1  0
 15 26  1  0
 15 27  1  0
 15 28  1  0
M  ISO  8  16  14  17  14  18  14  19  14  22   8  23   8  24   8  25   8
M  ISO  3  26   8  27   8  28   8
M  END
>  <minimizedAffinity>  (1) 
-4.33651733

>  <minimizedRMSD>  (1) 
2.78529763

$$$$
