
     RDKit          3D

 26 28  0  0  0  0  0  0  0  0999 V2000
   37.8450   23.5420   38.3430 C   0  0  0  0  0  0  0  0  0  0  0  0
   37.5210   23.5230   36.9800 C   0  0  0  0  0  0  0  0  0  0  0  0
   38.5170   23.1230   36.0740 C   0  0  0  0  0  0  0  0  0  0  0  0
   39.7090   22.7850   36.5740 N   0  0  0  0  0  0  0  0  0  0  0  0
   40.0250   22.8030   37.8840 C   0  0  0  0  0  0  0  0  0  0  0  0
   39.0620   23.1900   38.7660 N   0  0  0  0  0  0  0  0  0  0  0  0
   38.2570   23.0800   34.6650 N   0  0  0  0  0  0  0  0  0  0  0  0
   37.4490   22.1550   34.1490 C   0  0  0  0  0  0  0  0  0  0  0  0
   37.4480   22.4350   32.7930 C   0  0  0  0  0  0  0  0  0  0  0  0
   38.2420   23.4990   32.5430 N   0  0  0  0  0  0  0  0  0  0  0  0
   38.7610   23.9210   33.7150 C   0  0  0  0  0  0  0  0  0  0  0  0
   39.6740   25.0380   33.9500 C   0  0  0  0  0  0  0  0  0  0  0  0
   39.5430   26.3970   34.1280 C   0  0  0  0  0  0  0  0  0  0  0  0
   40.7930   26.9420   34.3140 C   0  0  0  0  0  0  0  0  0  0  0  0
   41.6490   25.8820   34.2410 C   0  0  0  0  0  0  0  0  0  0  0  0
   40.9740   24.7830   34.0290 O   0  0  0  0  0  0  0  0  0  0  0  0
   36.6970   21.6840   31.8350 N   0  0  0  0  0  0  0  0  0  0  0  0
   37.0854   23.8516   39.0759 H   0  0  0  0  0  0  0  0  0  0  0  0
   36.5188   23.8121   36.6307 H   0  0  0  0  0  0  0  0  0  0  0  0
   41.0285   22.5144   38.2298 H   0  0  0  0  0  0  0  0  0  0  0  0
   36.9087   21.3554   34.6770 H   0  0  0  0  0  0  0  0  0  0  0  0
   38.5952   26.9553   34.1225 H   0  0  0  0  0  0  0  0  0  0  0  0
   41.0461   27.9989   34.4840 H   0  0  0  0  0  0  0  0  0  0  0  0
   42.7424   25.9431   34.3449 H   0  0  0  0  0  0  0  0  0  0  0  0
   36.7344   21.9382   30.8376 H   0  0  0  0  0  0  0  0  0  0  0  0
   36.1188   20.8890   32.1426 H   0  0  0  0  0  0  0  0  0  0  0  0
  1  6  2  0
  2  1  1  0
  3  4  1  0
  3  2  2  0
  4  5  2  0
  5  6  1  0
  7  3  1  0
  8  7  1  0
  9  8  2  0
 10  9  1  0
 10 11  2  0
 11 12  1  0
 11  7  1  0
 12 16  1  0
 12 13  2  0
 13 14  1  0
 15 14  2  0
 16 15  1  0
 17  9  1  0
  1 18  1  0
  2 19  1  0
  5 20  1  0
  8 21  1  0
 13 22  1  0
 14 23  1  0
 15 24  1  0
 17 25  1  0
 17 26  1  0
M  ISO  7  18  14  19  14  20  14  21  14  22  14  23  14  24  14
M  END
>  <minimizedAffinity>  (1) 
-4.42961264

>  <minimizedRMSD>  (1) 
3.37934375

$$$$
