
     RDKit          3D

 20 21  0  0  0  0  0  0  0  0999 V2000
   38.3520   23.8830   37.0360 C   0  0  0  0  0  0  0  0  0  0  0  0
   38.9900   22.8600   36.3390 C   0  0  0  0  0  0  0  0  0  0  0  0
   39.0690   22.9650   34.9320 C   0  0  0  0  0  0  0  0  0  0  0  0
   38.5130   24.0670   34.3590 N   0  0  0  0  0  0  0  0  0  0  0  0
   37.9020   25.0390   35.0740 C   0  0  0  0  0  0  0  0  0  0  0  0
   37.8160   24.9580   36.4090 N   0  0  0  0  0  0  0  0  0  0  0  0
   37.3650   26.1450   34.2870 C   0  0  0  0  0  0  0  0  0  0  0  0
   37.0610   27.3650   34.8680 C   0  0  0  0  0  0  0  0  0  0  0  0
   36.5860   28.1330   33.8200 C   0  0  0  0  0  0  0  0  0  0  0  0
   36.6200   27.3710   32.6700 C   0  0  0  0  0  0  0  0  0  0  0  0
   37.0990   26.1800   33.0180 O   0  0  0  0  0  0  0  0  0  0  0  0
   38.2500   23.8030   38.5280 C   0  0  0  0  0  0  0  0  0  0  0  0
   39.4950   23.4900   39.1020 F   0  0  0  0  0  0  0  0  0  0  0  0
   37.8610   25.0130   39.0620 F   0  0  0  0  0  0  0  0  0  0  0  0
   37.3250   22.8320   38.8770 F   0  0  0  0  0  0  0  0  0  0  0  0
   39.4195   21.9963   36.8677 H   0  0  0  0  0  0  0  0  0  0  0  0
   39.5591   22.1890   34.3257 H   0  0  0  0  0  0  0  0  0  0  0  0
   37.1720   27.6568   35.9228 H   0  0  0  0  0  0  0  0  0  0  0  0
   36.2398   29.1747   33.8913 H   0  0  0  0  0  0  0  0  0  0  0  0
   36.3113   27.6868   31.6625 H   0  0  0  0  0  0  0  0  0  0  0  0
  1 12  1  0
  2  1  2  0
  3  2  1  0
  4  3  2  0
  4  5  1  0
  5  6  2  0
  6  1  1  0
  7  8  2  0
  7  5  1  0
  9  8  1  0
 10 11  1  0
 10  9  2  0
 11  7  1  0
 12 15  1  0
 12 14  1  0
 12 13  1  0
  2 16  1  0
  3 17  1  0
  8 18  1  0
  9 19  1  0
 10 20  1  0
M  ISO  5  16  14  17  14  18  14  19  14  20  14
M  END
>  <minimizedAffinity>  (1) 
-4.90522814

>  <minimizedRMSD>  (1) 
0.77916193

$$$$
