
     RDKit          3D

 26 28  0  0  0  0  0  0  0  0999 V2000
   37.8740   23.9200   38.1190 C   0  0  0  0  0  0  0  0  0  0  0  0
   37.7250   24.4800   36.8270 C   0  0  0  0  0  0  0  0  0  0  0  0
   38.7400   24.2030   35.9220 C   0  0  0  0  0  0  0  0  0  0  0  0
   39.7760   23.4350   36.3320 N   0  0  0  0  0  0  0  0  0  0  0  0
   39.9020   22.9110   37.5630 C   0  0  0  0  0  0  0  0  0  0  0  0
   38.9110   23.1760   38.4610 N   0  0  0  0  0  0  0  0  0  0  0  0
   38.7020   24.7140   34.5820 N   0  0  0  0  0  0  0  0  0  0  0  0
   37.8050   24.2340   33.6980 C   0  0  0  0  0  0  0  0  0  0  0  0
   38.0690   24.9510   32.5410 C   0  0  0  0  0  0  0  0  0  0  0  0
   39.0950   25.8230   32.7590 N   0  0  0  0  0  0  0  0  0  0  0  0
   39.4860   25.6690   34.0370 C   0  0  0  0  0  0  0  0  0  0  0  0
   37.3520   24.7780   31.3140 N   0  0  0  0  0  0  0  0  0  0  0  0
   40.5670   26.3990   34.7320 C   0  0  0  0  0  0  0  0  0  0  0  0
   41.9640   25.8330   34.7320 C   0  0  0  0  0  0  0  0  0  0  0  0
   41.6030   27.0800   33.9300 C   0  0  0  0  0  0  0  0  0  0  0  0
   37.0934   24.1125   38.8697 H   0  0  0  0  0  0  0  0  0  0  0  0
   36.8561   25.0980   36.5566 H   0  0  0  0  0  0  0  0  0  0  0  0
   40.7702   22.2928   37.8353 H   0  0  0  0  0  0  0  0  0  0  0  0
   37.0431   23.4567   33.8569 H   0  0  0  0  0  0  0  0  0  0  0  0
   36.5896   24.0879   31.2559 H   0  0  0  0  0  0  0  0  0  0  0  0
   37.5985   25.3437   30.4893 H   0  0  0  0  0  0  0  0  0  0  0  0
   39.8690   26.7167   35.5206 H   0  0  0  0  0  0  0  0  0  0  0  0
   42.5953   25.9139   35.6291 H   0  0  0  0  0  0  0  0  0  0  0  0
   42.4185   24.8566   34.5084 H   0  0  0  0  0  0  0  0  0  0  0  0
   41.5653   27.0349   32.8316 H   0  0  0  0  0  0  0  0  0  0  0  0
   41.9919   28.1075   33.8754 H   0  0  0  0  0  0  0  0  0  0  0  0
  1  6  2  0
  2  1  1  0
  3  4  1  0
  3  2  2  0
  4  5  2  0
  5  6  1  0
  7  3  1  0
  8  7  1  0
  9 10  1  0
  9  8  2  0
 10 11  2  0
 11  7  1  0
 11 13  1  0
 12  9  1  0
 13 14  1  0
 15 13  1  0
 15 14  1  0
  1 16  1  0
  2 17  1  0
  5 18  1  0
  8 19  1  0
 12 20  1  0
 12 21  1  0
 13 22  1  0
 14 23  1  0
 14 24  1  0
 15 25  1  0
 15 26  1  0
M  ISO  8  16  14  17  14  18  14  19  14  22  13  23  13  24  13  25  13
M  ISO  1  26  13
M  END
>  <minimizedAffinity>  (1) 
-4.24434996

>  <minimizedRMSD>  (1) 
2.57354355

$$$$
