
     RDKit          3D

 21 22  0  0  0  0  0  0  0  0999 V2000
   39.1970   22.8380   37.8070 C   0  0  0  0  0  0  0  0  0  0  0  0
   38.4860   23.4480   36.7500 C   0  0  0  0  0  0  0  0  0  0  0  0
   39.2550   23.8600   35.6520 C   0  0  0  0  0  0  0  0  0  0  0  0
   40.5740   23.6500   35.6820 N   0  0  0  0  0  0  0  0  0  0  0  0
   41.2320   23.0730   36.6890 C   0  0  0  0  0  0  0  0  0  0  0  0
   40.5210   22.6620   37.7670 N   0  0  0  0  0  0  0  0  0  0  0  0
   38.6190   24.4940   34.5280 N   0  0  0  0  0  0  0  0  0  0  0  0
   37.8220   23.8080   33.7100 C   0  0  0  0  0  0  0  0  0  0  0  0
   37.4050   24.7420   32.7750 C   0  0  0  0  0  0  0  0  0  0  0  0
   37.9540   25.9430   33.0520 N   0  0  0  0  0  0  0  0  0  0  0  0
   38.7220   25.8010   34.1560 C   0  0  0  0  0  0  0  0  0  0  0  0
   36.5160   24.4250   31.7000 N   0  0  0  0  0  0  0  0  0  0  0  0
   39.5030   26.8350   34.8180 C   0  0  0  0  0  0  0  0  0  0  0  0
   39.0770   27.3660   35.8810 O   0  0  0  0  0  0  0  0  0  0  0  0
   38.6420   22.4962   38.6931 H   0  0  0  0  0  0  0  0  0  0  0  0
   37.3959   23.5911   36.7858 H   0  0  0  0  0  0  0  0  0  0  0  0
   42.3224   22.9346   36.6454 H   0  0  0  0  0  0  0  0  0  0  0  0
   37.5555   22.7422   33.7644 H   0  0  0  0  0  0  0  0  0  0  0  0
   36.1609   23.4642   31.5916 H   0  0  0  0  0  0  0  0  0  0  0  0
   36.2310   25.1575   31.0344 H   0  0  0  0  0  0  0  0  0  0  0  0
   40.4655   27.1542   34.3917 H   0  0  0  0  0  0  0  0  0  0  0  0
  2  1  2  0
  3  4  2  0
  3  2  1  0
  4  5  1  0
  5  6  2  0
  6  1  1  0
  7  3  1  0
  8  7  1  0
  9 10  1  0
  9  8  2  0
 10 11  2  0
 11  7  1  0
 11 13  1  0
 12  9  1  0
 13 14  2  0
  1 15  1  0
  2 16  1  0
  5 17  1  0
  8 18  1  0
 12 19  1  0
 12 20  1  0
 13 21  1  0
M  ISO  5  15  14  16  14  17  14  18  14  21   6
M  END
>  <minimizedAffinity>  (1) 
-3.64504957

>  <minimizedRMSD>  (1) 
2.3645463

$$$$
