
     RDKit          3D

 20 21  0  0  0  0  0  0  0  0999 V2000
   41.2570   21.8020   37.4640 C   0  0  0  0  0  0  0  0  0  0  0  0
   40.6130   23.0070   37.1510 C   0  0  0  0  0  0  0  0  0  0  0  0
   40.5330   23.3900   35.8180 C   0  0  0  0  0  0  0  0  0  0  0  0
   41.0900   22.5610   34.9190 N   0  0  0  0  0  0  0  0  0  0  0  0
   41.7110   21.4030   35.2050 C   0  0  0  0  0  0  0  0  0  0  0  0
   41.7810   21.0380   36.5300 N   0  0  0  0  0  0  0  0  0  0  0  0
   39.8920   24.6030   35.4230 N   0  0  0  0  0  0  0  0  0  0  0  0
   38.5650   24.7350   35.5200 C   0  0  0  0  0  0  0  0  0  0  0  0
   38.2920   25.9980   35.0630 C   0  0  0  0  0  0  0  0  0  0  0  0
   39.4480   26.5900   34.7060 N   0  0  0  0  0  0  0  0  0  0  0  0
   40.4650   25.7160   34.9300 C   0  0  0  0  0  0  0  0  0  0  0  0
   36.9900   26.5750   34.9870 N   0  0  0  0  0  0  0  0  0  0  0  0
   42.2320   25.8470   34.6820 S   0  0  0  0  0  0  0  0  0  0  0  0
   41.3259   21.4876   38.5159 H   0  0  0  0  0  0  0  0  0  0  0  0
   40.1805   23.6355   37.9434 H   0  0  0  0  0  0  0  0  0  0  0  0
   42.1446   20.7742   34.4134 H   0  0  0  0  0  0  0  0  0  0  0  0
   37.8455   23.9888   35.8882 H   0  0  0  0  0  0  0  0  0  0  0  0
   36.8717   27.5339   34.6300 H   0  0  0  0  0  0  0  0  0  0  0  0
   36.1680   26.0328   35.2891 H   0  0  0  0  0  0  0  0  0  0  0  0
   42.8616   25.8937   35.8979 H   0  0  0  0  0  0  0  0  0  0  0  0
  2  1  2  0
  3  2  1  0
  4  5  1  0
  4  3  2  0
  5  6  2  0
  6  1  1  0
  7  8  1  0
  7  3  1  0
  9  8  2  0
 10 11  2  0
 10  9  1  0
 11  7  1  0
 12  9  1  0
 13 11  1  0
  1 14  1  0
  2 15  1  0
  5 16  1  0
  8 17  1  0
 12 18  1  0
 12 19  1  0
 13 20  1  0
M  ISO  5  14  14  15  14  16  14  17  14  20  11
M  END
>  <minimizedAffinity>  (1) 
-3.03833342

>  <minimizedRMSD>  (1) 
0.281745672

$$$$
