
     RDKit          3D

 41 43  0  0  0  0  0  0  0  0999 V2000
   38.3170   26.3640   34.4060 C   0  0  0  0  0  0  0  0  0  0  0  0
   38.1160   23.8190   34.7330 N   0  0  0  0  0  0  0  0  0  0  0  0
   37.8410   22.7610   33.9670 C   0  0  0  0  0  0  0  0  0  0  0  0
   37.6280   23.2700   32.7070 C   0  0  0  0  0  0  0  0  0  0  0  0
   37.7760   24.6000   32.7450 N   0  0  0  0  0  0  0  0  0  0  0  0
   38.0900   24.9750   34.0350 C   0  0  0  0  0  0  0  0  0  0  0  0
   37.8690   23.9560   38.4430 C   0  0  0  0  0  0  0  0  0  0  0  0
   37.5020   24.1560   37.0910 C   0  0  0  0  0  0  0  0  0  0  0  0
   38.3940   23.6650   36.1160 C   0  0  0  0  0  0  0  0  0  0  0  0
   39.4830   23.0680   36.5660 N   0  0  0  0  0  0  0  0  0  0  0  0
   39.8610   22.8610   37.8260 C   0  0  0  0  0  0  0  0  0  0  0  0
   39.0040   23.3330   38.7790 N   0  0  0  0  0  0  0  0  0  0  0  0
   37.3030   22.5010   31.5650 N   0  0  0  0  0  0  0  0  0  0  0  0
   37.0510   27.0070   34.9370 C   0  0  0  0  0  0  0  0  0  0  0  0
   38.5700   27.1860   33.1120 C   0  0  0  0  0  0  0  0  0  0  0  0
   39.4950   26.6480   35.2610 C   0  0  0  0  0  0  0  0  0  0  0  0
   40.7950   26.4150   34.5460 C   0  0  0  0  0  0  0  0  0  0  0  0
   41.4730   25.2100   34.5990 C   0  0  0  0  0  0  0  0  0  0  0  0
   42.6690   25.0100   33.9370 C   0  0  0  0  0  0  0  0  0  0  0  0
   43.2170   26.0470   33.1890 C   0  0  0  0  0  0  0  0  0  0  0  0
   42.5700   27.2750   33.1070 C   0  0  0  0  0  0  0  0  0  0  0  0
   41.3780   27.4170   33.7900 C   0  0  0  0  0  0  0  0  0  0  0  0
   37.7946   21.7067   34.2773 H   0  0  0  0  0  0  0  0  0  0  0  0
   37.2035   24.3225   39.2385 H   0  0  0  0  0  0  0  0  0  0  0  0
   36.5685   24.6683   36.8150 H   0  0  0  0  0  0  0  0  0  0  0  0
   40.7985   22.3456   38.0816 H   0  0  0  0  0  0  0  0  0  0  0  0
   37.2118   21.4779   31.6419 H   0  0  0  0  0  0  0  0  0  0  0  0
   37.1575   22.9642   30.6566 H   0  0  0  0  0  0  0  0  0  0  0  0
   37.0687   26.9980   36.0368 H   0  0  0  0  0  0  0  0  0  0  0  0
   36.9896   28.0456   34.5797 H   0  0  0  0  0  0  0  0  0  0  0  0
   36.1761   26.4440   34.5797 H   0  0  0  0  0  0  0  0  0  0  0  0
   38.8838   28.2055   33.3807 H   0  0  0  0  0  0  0  0  0  0  0  0
   39.3611   26.7030   32.5196 H   0  0  0  0  0  0  0  0  0  0  0  0
   37.6443   27.2314   32.5196 H   0  0  0  0  0  0  0  0  0  0  0  0
   39.4526   27.6993   35.5819 H   0  0  0  0  0  0  0  0  0  0  0  0
   39.4581   25.9610   36.1193 H   0  0  0  0  0  0  0  0  0  0  0  0
   41.0459   24.3845   35.1873 H   0  0  0  0  0  0  0  0  0  0  0  0
   43.1832   24.0397   34.0008 H   0  0  0  0  0  0  0  0  0  0  0  0
   44.1686   25.8945   32.6588 H   0  0  0  0  0  0  0  0  0  0  0  0
   42.9923   28.1035   32.5194 H   0  0  0  0  0  0  0  0  0  0  0  0
   40.8604   28.3857   33.7294 H   0  0  0  0  0  0  0  0  0  0  0  0
  1 14  1  0
  1 16  1  0
  2  9  1  0
  3  2  1  0
  4  5  1  0
  4  3  2  0
  5  6  2  0
  6  1  1  0
  6  2  1  0
  7 12  2  0
  8  7  1  0
  9 10  1  0
  9  8  2  0
 10 11  2  0
 11 12  1  0
 13  4  1  0
 15  1  1  0
 17 18  2  0
 17 16  1  0
 19 18  1  0
 20 19  2  0
 21 20  1  0
 21 22  2  0
 22 17  1  0
  3 23  1  0
  7 24  1  0
  8 25  1  0
 11 26  1  0
 13 27  1  0
 13 28  1  0
 14 29  1  0
 14 30  1  0
 14 31  1  0
 15 32  1  0
 15 33  1  0
 15 34  1  0
 16 35  1  0
 16 36  1  0
 18 37  1  0
 19 38  1  0
 20 39  1  0
 21 40  1  0
 22 41  1  0
M  ISO  8  23  14  24  14  25  14  26  14  29   8  30   8  31   8  32   8
M  ISO  8  33   8  34   8  35   8  36   8  37  14  38  14  39  14  40  14
M  ISO  1  41  14
M  END
>  <minimizedAffinity>  (1) 
-5.30837107

>  <minimizedRMSD>  (1) 
1.68140078

$$$$
