
     RDKit          3D

 41 43  0  0  0  0  0  0  0  0999 V2000
   38.3060   26.3560   34.4000 C   0  0  0  0  0  0  0  0  0  0  0  0
   38.1200   23.8120   34.7170 N   0  0  0  0  0  0  0  0  0  0  0  0
   37.8420   22.7600   33.9500 C   0  0  0  0  0  0  0  0  0  0  0  0
   37.6170   23.2710   32.7040 C   0  0  0  0  0  0  0  0  0  0  0  0
   37.7600   24.6040   32.7420 N   0  0  0  0  0  0  0  0  0  0  0  0
   38.0840   24.9710   34.0250 C   0  0  0  0  0  0  0  0  0  0  0  0
   37.8720   23.9440   38.4260 C   0  0  0  0  0  0  0  0  0  0  0  0
   37.5030   24.1390   37.0750 C   0  0  0  0  0  0  0  0  0  0  0  0
   38.4100   23.6570   36.0970 C   0  0  0  0  0  0  0  0  0  0  0  0
   39.5000   23.0770   36.5610 N   0  0  0  0  0  0  0  0  0  0  0  0
   39.8660   22.8830   37.8310 C   0  0  0  0  0  0  0  0  0  0  0  0
   39.0080   23.3390   38.7750 N   0  0  0  0  0  0  0  0  0  0  0  0
   37.2770   22.5190   31.5600 N   0  0  0  0  0  0  0  0  0  0  0  0
   37.0560   26.9920   34.9710 C   0  0  0  0  0  0  0  0  0  0  0  0
   38.5440   27.1890   33.1170 C   0  0  0  0  0  0  0  0  0  0  0  0
   39.4800   26.6640   35.2680 C   0  0  0  0  0  0  0  0  0  0  0  0
   40.7690   26.5170   34.5410 C   0  0  0  0  0  0  0  0  0  0  0  0
   41.3290   27.4600   33.7040 C   0  0  0  0  0  0  0  0  0  0  0  0
   42.5350   27.2440   33.0660 C   0  0  0  0  0  0  0  0  0  0  0  0
   43.2390   26.0520   33.2440 C   0  0  0  0  0  0  0  0  0  0  0  0
   42.6790   25.1100   34.0810 C   0  0  0  0  0  0  0  0  0  0  0  0
   41.4800   25.3240   34.7180 C   0  0  0  0  0  0  0  0  0  0  0  0
   37.8021   21.7039   34.2551 H   0  0  0  0  0  0  0  0  0  0  0  0
   37.1980   24.3042   39.2172 H   0  0  0  0  0  0  0  0  0  0  0  0
   36.5628   24.6379   36.7974 H   0  0  0  0  0  0  0  0  0  0  0  0
   40.8091   22.3822   38.0949 H   0  0  0  0  0  0  0  0  0  0  0  0
   37.1888   21.4948   31.6244 H   0  0  0  0  0  0  0  0  0  0  0  0
   37.1170   22.9941   30.6602 H   0  0  0  0  0  0  0  0  0  0  0  0
   37.1019   26.9687   36.0698 H   0  0  0  0  0  0  0  0  0  0  0  0
   36.9863   28.0352   34.6290 H   0  0  0  0  0  0  0  0  0  0  0  0
   36.1718   26.4342   34.6290 H   0  0  0  0  0  0  0  0  0  0  0  0
   38.8365   28.2127   33.3935 H   0  0  0  0  0  0  0  0  0  0  0  0
   39.3459   26.7263   32.5229 H   0  0  0  0  0  0  0  0  0  0  0  0
   37.6187   27.2198   32.5229 H   0  0  0  0  0  0  0  0  0  0  0  0
   39.3924   27.6996   35.6283 H   0  0  0  0  0  0  0  0  0  0  0  0
   39.4796   25.9486   36.1036 H   0  0  0  0  0  0  0  0  0  0  0  0
   40.8003   28.4106   33.5401 H   0  0  0  0  0  0  0  0  0  0  0  0
   42.9468   28.0232   32.4077 H   0  0  0  0  0  0  0  0  0  0  0  0
   44.1992   25.8718   32.7384 H   0  0  0  0  0  0  0  0  0  0  0  0
   43.2075   24.1591   34.2437 H   0  0  0  0  0  0  0  0  0  0  0  0
   41.0720   24.5445   35.3782 H   0  0  0  0  0  0  0  0  0  0  0  0
  1 14  1  0
  1 16  1  0
  2  9  1  0
  3  2  1  0
  4  5  1  0
  4  3  2  0
  5  6  2  0
  6  1  1  0
  6  2  1  0
  7 12  2  0
  8  7  1  0
  9 10  1  0
  9  8  2  0
 10 11  2  0
 11 12  1  0
 13  4  1  0
 15  1  1  0
 17 22  1  0
 17 16  1  0
 18 17  2  0
 19 20  2  0
 19 18  1  0
 20 21  1  0
 21 22  2  0
  3 23  1  0
  7 24  1  0
  8 25  1  0
 11 26  1  0
 13 27  1  0
 13 28  1  0
 14 29  1  0
 14 30  1  0
 14 31  1  0
 15 32  1  0
 15 33  1  0
 15 34  1  0
 16 35  1  0
 16 36  1  0
 18 37  1  0
 19 38  1  0
 20 39  1  0
 21 40  1  0
 22 41  1  0
M  ISO  8  23  14  24  14  25  14  26  14  29   8  30   8  31   8  32   8
M  ISO  8  33   8  34   8  35   8  36   8  37  14  38  14  39  14  40  14
M  ISO  1  41  14
M  END
>  <minimizedAffinity>  (1) 
-5.35157061

>  <minimizedRMSD>  (1) 
1.62634206

$$$$
