
     RDKit          3D

 31 32  0  0  0  0  0  0  0  0999 V2000
   37.8080   23.6120   38.2970 C   0  0  0  0  0  0  0  0  0  0  0  0
   37.5620   23.9430   36.9470 C   0  0  0  0  0  0  0  0  0  0  0  0
   38.6350   23.7760   36.0500 C   0  0  0  0  0  0  0  0  0  0  0  0
   39.7800   23.3230   36.5600 N   0  0  0  0  0  0  0  0  0  0  0  0
   40.0260   23.0070   37.8340 C   0  0  0  0  0  0  0  0  0  0  0  0
   39.0010   23.1640   38.7080 N   0  0  0  0  0  0  0  0  0  0  0  0
   38.4880   24.0830   34.6620 N   0  0  0  0  0  0  0  0  0  0  0  0
   37.7290   23.3180   33.8710 C   0  0  0  0  0  0  0  0  0  0  0  0
   37.8060   23.8970   32.6360 C   0  0  0  0  0  0  0  0  0  0  0  0
   38.5960   24.9800   32.7050 N   0  0  0  0  0  0  0  0  0  0  0  0
   39.0420   25.1160   33.9940 C   0  0  0  0  0  0  0  0  0  0  0  0
   39.9250   26.2110   34.4100 C   0  0  0  0  0  0  0  0  0  0  0  0
   39.2680   27.0810   35.4680 C   0  0  0  0  0  0  0  0  0  0  0  0
   40.1050   27.1780   33.2200 C   0  0  0  0  0  0  0  0  0  0  0  0
   41.3200   25.8160   34.7860 C   0  0  0  0  0  0  0  0  0  0  0  0
   37.1500   23.4380   31.4690 N   0  0  0  0  0  0  0  0  0  0  0  0
   36.9972   23.7252   39.0317 H   0  0  0  0  0  0  0  0  0  0  0  0
   36.5816   24.3128   36.6123 H   0  0  0  0  0  0  0  0  0  0  0  0
   41.0103   22.6380   38.1581 H   0  0  0  0  0  0  0  0  0  0  0  0
   37.1645   22.4171   34.1534 H   0  0  0  0  0  0  0  0  0  0  0  0
   39.5447   26.7146   36.4676 H   0  0  0  0  0  0  0  0  0  0  0  0
   39.6085   28.1204   35.3512 H   0  0  0  0  0  0  0  0  0  0  0  0
   38.1751   27.0379   35.3512 H   0  0  0  0  0  0  0  0  0  0  0  0
   40.2940   28.1935   33.5981 H   0  0  0  0  0  0  0  0  0  0  0  0
   40.9576   26.8504   32.6070 H   0  0  0  0  0  0  0  0  0  0  0  0
   39.1916   27.1791   32.6070 H   0  0  0  0  0  0  0  0  0  0  0  0
   41.4110   25.7902   35.8819 H   0  0  0  0  0  0  0  0  0  0  0  0
   41.5421   24.8197   34.3761 H   0  0  0  0  0  0  0  0  0  0  0  0
   42.0314   26.5480   34.3761 H   0  0  0  0  0  0  0  0  0  0  0  0
   36.5606   22.5942   31.5077 H   0  0  0  0  0  0  0  0  0  0  0  0
   37.2620   23.9477   30.5810 H   0  0  0  0  0  0  0  0  0  0  0  0
  1  6  2  0
  2  1  1  0
  3  4  1  0
  3  2  2  0
  4  5  2  0
  5  6  1  0
  7  3  1  0
  8  7  1  0
  9 10  1  0
  9  8  2  0
 10 11  2  0
 11 12  1  0
 11  7  1  0
 12 15  1  0
 12 13  1  0
 14 12  1  0
 16  9  1  0
  1 17  1  0
  2 18  1  0
  5 19  1  0
  8 20  1  0
 13 21  1  0
 13 22  1  0
 13 23  1  0
 14 24  1  0
 14 25  1  0
 14 26  1  0
 15 27  1  0
 15 28  1  0
 15 29  1  0
 16 30  1  0
 16 31  1  0
M  ISO  8  17  14  18  14  19  14  20  14  21   8  22   8  23   8  24   8
M  ISO  5  25   8  26   8  27   8  28   8  29   8
M  END
>  <minimizedAffinity>  (1) 
-4.50936127

>  <minimizedRMSD>  (1) 
2.88772464

$$$$
