
     RDKit          3D

 38 39  0  0  0  0  0  0  0  0999 V2000
   39.7160   26.1820   34.3620 C   0  0  0  0  0  0  0  0  0  0  0  0
   38.4160   23.9970   34.7020 N   0  0  0  0  0  0  0  0  0  0  0  0
   37.6880   23.1640   33.9590 C   0  0  0  0  0  0  0  0  0  0  0  0
   37.7090   23.7060   32.7050 C   0  0  0  0  0  0  0  0  0  0  0  0
   38.4360   24.8380   32.7120 N   0  0  0  0  0  0  0  0  0  0  0  0
   38.8950   25.0390   33.9830 C   0  0  0  0  0  0  0  0  0  0  0  0
   37.9560   23.9020   38.4010 C   0  0  0  0  0  0  0  0  0  0  0  0
   37.6560   24.1940   37.0490 C   0  0  0  0  0  0  0  0  0  0  0  0
   38.6150   23.7440   36.1040 C   0  0  0  0  0  0  0  0  0  0  0  0
   39.6690   23.1100   36.5760 N   0  0  0  0  0  0  0  0  0  0  0  0
   39.9590   22.8300   37.8470 C   0  0  0  0  0  0  0  0  0  0  0  0
   39.0560   23.2500   38.7740 N   0  0  0  0  0  0  0  0  0  0  0  0
   37.0630   23.1780   31.5680 N   0  0  0  0  0  0  0  0  0  0  0  0
   39.0080   27.0770   35.3790 C   0  0  0  0  0  0  0  0  0  0  0  0
   39.8530   27.1260   33.1230 C   0  0  0  0  0  0  0  0  0  0  0  0
   41.1370   25.9130   34.7350 C   0  0  0  0  0  0  0  0  0  0  0  0
   41.9050   27.1010   34.3850 N   0  0  0  0  0  0  0  0  0  0  0  0
   43.3320   27.0260   34.1290 C   0  0  0  0  0  0  0  0  0  0  0  0
   43.8910   26.2880   35.0370 N   0  0  0  0  0  0  0  0  0  0  0  0
   44.0070   27.6610   33.0890 N   0  0  0  0  0  0  0  0  0  0  0  0
   44.8840   26.0500   35.1230 H   0  0  0  0  0  0  0  0  0  0  0  0
   37.1817   22.2430   34.2837 H   0  0  0  0  0  0  0  0  0  0  0  0
   37.2493   24.2280   39.1784 H   0  0  0  0  0  0  0  0  0  0  0  0
   36.7438   24.7319   36.7514 H   0  0  0  0  0  0  0  0  0  0  0  0
   40.8751   22.2907   38.1297 H   0  0  0  0  0  0  0  0  0  0  0  0
   36.5231   22.3039   31.6419 H   0  0  0  0  0  0  0  0  0  0  0  0
   37.1311   23.6664   30.6637 H   0  0  0  0  0  0  0  0  0  0  0  0
   39.2663   26.7505   36.3972 H   0  0  0  0  0  0  0  0  0  0  0  0
   39.3285   28.1195   35.2358 H   0  0  0  0  0  0  0  0  0  0  0  0
   37.9197   27.0050   35.2358 H   0  0  0  0  0  0  0  0  0  0  0  0
   40.0031   28.1606   33.4651 H   0  0  0  0  0  0  0  0  0  0  0  0
   40.7149   26.8117   32.5161 H   0  0  0  0  0  0  0  0  0  0  0  0
   38.9373   27.0697   32.5161 H   0  0  0  0  0  0  0  0  0  0  0  0
   41.2132   25.7193   35.8151 H   0  0  0  0  0  0  0  0  0  0  0  0
   41.5202   25.0291   34.2041 H   0  0  0  0  0  0  0  0  0  0  0  0
   41.4265   28.0107   34.3180 H   0  0  0  0  0  0  0  0  0  0  0  0
   45.0258   27.5461   32.9903 H   0  0  0  0  0  0  0  0  0  0  0  0
   43.4873   28.2454   32.4187 H   0  0  0  0  0  0  0  0  0  0  0  0
  1 16  1  0
  1 14  1  0
  2  9  1  0
  3  2  1  0
  4  5  1  0
  4  3  2  0
  5  6  2  0
  6  1  1  0
  6  2  1  0
  7 12  2  0
  8  7  1  0
  9 10  1  0
  9  8  2  0
 10 11  2  0
 11 12  1  0
 13  4  1  0
 15  1  1  0
 17 16  1  0
 18 17  1  0
 18 19  2  0
 19 21  1  0
 20 18  1  0
  3 22  1  0
  7 23  1  0
  8 24  1  0
 11 25  1  0
 13 26  1  0
 13 27  1  0
 14 28  1  0
 14 29  1  0
 14 30  1  0
 15 31  1  0
 15 32  1  0
 15 33  1  0
 16 34  1  0
 16 35  1  0
 17 36  1  0
 20 37  1  0
 20 38  1  0
M  ISO  8  22  14  23  14  24  14  25  14  28   8  29   8  30   8  31   8
M  ISO  4  32   8  33   8  34   8  35   8
M  END
>  <minimizedAffinity>  (1) 
-4.98090649

>  <minimizedRMSD>  (1) 
1.63875723

$$$$
