
     RDKit          3D

 39 41  0  0  0  0  0  0  0  0999 V2000
   38.3310   26.3830   34.3850 C   0  0  0  0  0  0  0  0  0  0  0  0
   38.1230   23.8390   34.7160 N   0  0  0  0  0  0  0  0  0  0  0  0
   37.8360   22.7810   33.9510 C   0  0  0  0  0  0  0  0  0  0  0  0
   37.6140   23.2890   32.7020 C   0  0  0  0  0  0  0  0  0  0  0  0
   37.7690   24.6160   32.7420 N   0  0  0  0  0  0  0  0  0  0  0  0
   38.0960   24.9920   34.0290 C   0  0  0  0  0  0  0  0  0  0  0  0
   37.8990   23.9470   38.4290 C   0  0  0  0  0  0  0  0  0  0  0  0
   37.5250   24.1540   37.0820 C   0  0  0  0  0  0  0  0  0  0  0  0
   38.4100   23.6770   36.0990 C   0  0  0  0  0  0  0  0  0  0  0  0
   39.5010   23.0860   36.5510 N   0  0  0  0  0  0  0  0  0  0  0  0
   39.8940   22.8700   37.8020 C   0  0  0  0  0  0  0  0  0  0  0  0
   39.0480   23.3250   38.7590 N   0  0  0  0  0  0  0  0  0  0  0  0
   37.2700   22.5320   31.5630 N   0  0  0  0  0  0  0  0  0  0  0  0
   37.0620   27.0060   34.9730 C   0  0  0  0  0  0  0  0  0  0  0  0
   38.5420   27.2100   33.0920 C   0  0  0  0  0  0  0  0  0  0  0  0
   39.5190   26.6770   35.2170 C   0  0  0  0  0  0  0  0  0  0  0  0
   40.8050   26.5720   34.4950 C   0  0  0  0  0  0  0  0  0  0  0  0
   41.4830   25.3860   34.7090 C   0  0  0  0  0  0  0  0  0  0  0  0
   42.7010   25.1700   34.0870 C   0  0  0  0  0  0  0  0  0  0  0  0
   43.2100   26.1290   33.2730 N   0  0  0  0  0  0  0  0  0  0  0  0
   42.5410   27.2800   33.0700 C   0  0  0  0  0  0  0  0  0  0  0  0
   41.3590   27.4850   33.6760 N   0  0  0  0  0  0  0  0  0  0  0  0
   37.7886   21.7266   34.2608 H   0  0  0  0  0  0  0  0  0  0  0  0
   37.2342   24.3032   39.2297 H   0  0  0  0  0  0  0  0  0  0  0  0
   36.5872   24.6635   36.8155 H   0  0  0  0  0  0  0  0  0  0  0  0
   40.8376   22.3589   38.0437 H   0  0  0  0  0  0  0  0  0  0  0  0
   37.1739   21.5090   31.6343 H   0  0  0  0  0  0  0  0  0  0  0  0
   37.1149   23.0021   30.6598 H   0  0  0  0  0  0  0  0  0  0  0  0
   37.1156   26.9797   36.0714 H   0  0  0  0  0  0  0  0  0  0  0  0
   36.9751   28.0492   34.6350 H   0  0  0  0  0  0  0  0  0  0  0  0
   36.1835   26.4367   34.6350 H   0  0  0  0  0  0  0  0  0  0  0  0
   38.8059   28.2444   33.3573 H   0  0  0  0  0  0  0  0  0  0  0  0
   39.3552   26.7644   32.5003 H   0  0  0  0  0  0  0  0  0  0  0  0
   37.6147   27.2084   32.5003 H   0  0  0  0  0  0  0  0  0  0  0  0
   39.4236   27.7020   35.6047 H   0  0  0  0  0  0  0  0  0  0  0  0
   39.5415   25.9202   36.0149 H   0  0  0  0  0  0  0  0  0  0  0  0
   41.0566   24.6175   35.3705 H   0  0  0  0  0  0  0  0  0  0  0  0
   43.2501   24.2311   34.2509 H   0  0  0  0  0  0  0  0  0  0  0  0
   42.9616   28.0518   32.4087 H   0  0  0  0  0  0  0  0  0  0  0  0
  1 14  1  0
  1 16  1  0
  2  9  1  0
  3  2  1  0
  4  5  1  0
  4  3  2  0
  5  6  2  0
  6  1  1  0
  6  2  1  0
  7 12  2  0
  8  7  1  0
  9 10  1  0
  9  8  2  0
 10 11  2  0
 11 12  1  0
 13  4  1  0
 15  1  1  0
 17 18  2  0
 17 16  1  0
 19 18  1  0
 20 19  2  0
 21 20  1  0
 21 22  2  0
 22 17  1  0
  3 23  1  0
  7 24  1  0
  8 25  1  0
 11 26  1  0
 13 27  1  0
 13 28  1  0
 14 29  1  0
 14 30  1  0
 14 31  1  0
 15 32  1  0
 15 33  1  0
 15 34  1  0
 16 35  1  0
 16 36  1  0
 18 37  1  0
 19 38  1  0
 21 39  1  0
M  ISO  8  23  14  24  14  25  14  26  14  29   8  30   8  31   8  32   8
M  ISO  7  33   8  34   8  35   8  36   8  37  14  38  14  39  14
M  END
>  <minimizedAffinity>  (1) 
-5.13729668

>  <minimizedRMSD>  (1) 
1.72029448

$$$$
