
     RDKit          3D

 40 42  0  0  0  0  0  0  0  0999 V2000
   38.3560   26.3560   34.3870 C   0  0  0  0  0  0  0  0  0  0  0  0
   38.1220   23.8130   34.7080 N   0  0  0  0  0  0  0  0  0  0  0  0
   37.8260   22.7650   33.9490 C   0  0  0  0  0  0  0  0  0  0  0  0
   37.6120   23.2760   32.7030 C   0  0  0  0  0  0  0  0  0  0  0  0
   37.7810   24.6050   32.7340 N   0  0  0  0  0  0  0  0  0  0  0  0
   38.1110   24.9710   34.0230 C   0  0  0  0  0  0  0  0  0  0  0  0
   37.8710   23.9410   38.4250 C   0  0  0  0  0  0  0  0  0  0  0  0
   37.5030   24.1430   37.0750 C   0  0  0  0  0  0  0  0  0  0  0  0
   38.4050   23.6550   36.0970 C   0  0  0  0  0  0  0  0  0  0  0  0
   39.4920   23.0640   36.5590 N   0  0  0  0  0  0  0  0  0  0  0  0
   39.8580   22.8640   37.8260 C   0  0  0  0  0  0  0  0  0  0  0  0
   39.0070   23.3250   38.7670 N   0  0  0  0  0  0  0  0  0  0  0  0
   37.2550   22.5270   31.5640 N   0  0  0  0  0  0  0  0  0  0  0  0
   37.1040   27.0090   34.9520 C   0  0  0  0  0  0  0  0  0  0  0  0
   38.6130   27.1850   33.1030 C   0  0  0  0  0  0  0  0  0  0  0  0
   39.5300   26.6450   35.2550 C   0  0  0  0  0  0  0  0  0  0  0  0
   40.8120   26.4730   34.5310 C   0  0  0  0  0  0  0  0  0  0  0  0
   41.4660   25.2530   34.6230 C   0  0  0  0  0  0  0  0  0  0  0  0
   42.6630   25.0190   33.9770 C   0  0  0  0  0  0  0  0  0  0  0  0
   43.2060   26.0450   33.2220 C   0  0  0  0  0  0  0  0  0  0  0  0
   42.5570   27.2630   33.1270 C   0  0  0  0  0  0  0  0  0  0  0  0
   41.3850   27.4430   33.7800 N   0  0  0  0  0  0  0  0  0  0  0  0
   37.7662   21.7111   34.2585 H   0  0  0  0  0  0  0  0  0  0  0  0
   37.2012   24.3022   39.2193 H   0  0  0  0  0  0  0  0  0  0  0  0
   36.5674   24.6513   36.7988 H   0  0  0  0  0  0  0  0  0  0  0  0
   40.7967   22.3541   38.0882 H   0  0  0  0  0  0  0  0  0  0  0  0
   37.1467   21.5050   31.6328 H   0  0  0  0  0  0  0  0  0  0  0  0
   37.1024   23.0015   30.6626 H   0  0  0  0  0  0  0  0  0  0  0  0
   37.1438   26.9883   36.0511 H   0  0  0  0  0  0  0  0  0  0  0  0
   37.0467   28.0519   34.6068 H   0  0  0  0  0  0  0  0  0  0  0  0
   36.2160   26.4592   34.6068 H   0  0  0  0  0  0  0  0  0  0  0  0
   38.9282   28.2018   33.3800 H   0  0  0  0  0  0  0  0  0  0  0  0
   39.4045   26.7048   32.5088 H   0  0  0  0  0  0  0  0  0  0  0  0
   37.6887   27.2367   32.5088 H   0  0  0  0  0  0  0  0  0  0  0  0
   39.4605   27.6830   35.6123 H   0  0  0  0  0  0  0  0  0  0  0  0
   39.5155   25.9335   36.0938 H   0  0  0  0  0  0  0  0  0  0  0  0
   41.0183   24.4502   35.2273 H   0  0  0  0  0  0  0  0  0  0  0  0
   43.1705   24.0466   34.0594 H   0  0  0  0  0  0  0  0  0  0  0  0
   44.1590   25.8906   32.6947 H   0  0  0  0  0  0  0  0  0  0  0  0
   42.9891   28.0772   32.5267 H   0  0  0  0  0  0  0  0  0  0  0  0
  1 14  1  0
  1 16  1  0
  2  9  1  0
  3  2  1  0
  4  5  1  0
  4  3  2  0
  5  6  2  0
  6  1  1  0
  6  2  1  0
  7 12  2  0
  8  7  1  0
  9 10  1  0
  9  8  2  0
 10 11  2  0
 11 12  1  0
 13  4  1  0
 15  1  1  0
 17 18  2  0
 17 16  1  0
 19 18  1  0
 20 19  2  0
 21 20  1  0
 21 22  2  0
 22 17  1  0
  3 23  1  0
  7 24  1  0
  8 25  1  0
 11 26  1  0
 13 27  1  0
 13 28  1  0
 14 29  1  0
 14 30  1  0
 14 31  1  0
 15 32  1  0
 15 33  1  0
 15 34  1  0
 16 35  1  0
 16 36  1  0
 18 37  1  0
 19 38  1  0
 20 39  1  0
 21 40  1  0
M  ISO  8  23  14  24  14  25  14  26  14  29   8  30   8  31   8  32   8
M  ISO  8  33   8  34   8  35   8  36   8  37  14  38  14  39  14  40  14
M  END
>  <minimizedAffinity>  (1) 
-5.11191845

>  <minimizedRMSD>  (1) 
1.60033131

$$$$
