
     RDKit          3D

 38 40  0  0  0  0  0  0  0  0999 V2000
   38.1780   23.8620   34.6870 N   0  0  0  0  0  0  0  0  0  0  0  0
   37.8750   22.8250   33.9060 C   0  0  0  0  0  0  0  0  0  0  0  0
   37.6950   23.3500   32.6590 C   0  0  0  0  0  0  0  0  0  0  0  0
   37.8890   24.6750   32.7080 N   0  0  0  0  0  0  0  0  0  0  0  0
   38.2010   25.0220   34.0050 C   0  0  0  0  0  0  0  0  0  0  0  0
   37.8790   23.9180   38.4030 C   0  0  0  0  0  0  0  0  0  0  0  0
   37.5100   24.1490   37.0510 C   0  0  0  0  0  0  0  0  0  0  0  0
   38.4360   23.6860   36.0810 C   0  0  0  0  0  0  0  0  0  0  0  0
   39.5300   23.0980   36.5320 N   0  0  0  0  0  0  0  0  0  0  0  0
   39.8850   22.8760   37.7990 C   0  0  0  0  0  0  0  0  0  0  0  0
   39.0150   23.3100   38.7360 N   0  0  0  0  0  0  0  0  0  0  0  0
   37.3570   22.6220   31.4950 N   0  0  0  0  0  0  0  0  0  0  0  0
   38.4700   26.3980   34.3860 C   0  0  0  0  0  0  0  0  0  0  0  0
   37.1990   27.0860   34.8770 C   0  0  0  0  0  0  0  0  0  0  0  0
   38.8070   27.2190   33.1160 C   0  0  0  0  0  0  0  0  0  0  0  0
   39.5980   26.6580   35.3140 C   0  0  0  0  0  0  0  0  0  0  0  0
   40.9070   26.5370   34.6340 C   0  0  0  0  0  0  0  0  0  0  0  0
   41.5050   25.2860   34.4810 C   0  0  0  0  0  0  0  0  0  0  0  0
   42.6780   25.5000   33.8280 N   0  0  0  0  0  0  0  0  0  0  0  0
   42.7670   26.8020   33.6080 C   0  0  0  0  0  0  0  0  0  0  0  0
   41.7120   27.4880   34.0790 N   0  0  0  0  0  0  0  0  0  0  0  0
   37.7884   21.7696   34.2036 H   0  0  0  0  0  0  0  0  0  0  0  0
   37.2022   24.2533   39.2027 H   0  0  0  0  0  0  0  0  0  0  0  0
   36.5714   24.6520   36.7752 H   0  0  0  0  0  0  0  0  0  0  0  0
   40.8262   22.3717   38.0632 H   0  0  0  0  0  0  0  0  0  0  0  0
   37.2256   21.6017   31.5457 H   0  0  0  0  0  0  0  0  0  0  0  0
   37.2422   23.1120   30.5963 H   0  0  0  0  0  0  0  0  0  0  0  0
   37.1871   27.0925   35.9769 H   0  0  0  0  0  0  0  0  0  0  0  0
   37.1745   28.1205   34.5040 H   0  0  0  0  0  0  0  0  0  0  0  0
   36.3194   26.5408   34.5040 H   0  0  0  0  0  0  0  0  0  0  0  0
   39.2096   28.1997   33.4095 H   0  0  0  0  0  0  0  0  0  0  0  0
   39.5562   26.6790   32.5184 H   0  0  0  0  0  0  0  0  0  0  0  0
   37.8945   27.3611   32.5184 H   0  0  0  0  0  0  0  0  0  0  0  0
   39.4993   27.6763   35.7182 H   0  0  0  0  0  0  0  0  0  0  0  0
   39.5594   25.9085   36.1182 H   0  0  0  0  0  0  0  0  0  0  0  0
   41.1066   24.3187   34.8211 H   0  0  0  0  0  0  0  0  0  0  0  0
   43.6167   27.2738   33.0929 H   0  0  0  0  0  0  0  0  0  0  0  0
   41.5480   28.5038   34.0316 H   0  0  0  0  0  0  0  0  0  0  0  0
  1  8  1  0
  2  1  1  0
  3  4  1  0
  3  2  2  0
  4  5  2  0
  5 13  1  0
  5  1  1  0
  6 11  2  0
  7  6  1  0
  8  9  1  0
  8  7  2  0
  9 10  2  0
 10 11  1  0
 12  3  1  0
 13 14  1  0
 13 16  1  0
 15 13  1  0
 17 16  1  0
 18 17  2  0
 19 18  1  0
 20 19  2  0
 20 21  1  0
 21 17  1  0
  2 22  1  0
  6 23  1  0
  7 24  1  0
 10 25  1  0
 12 26  1  0
 12 27  1  0
 14 28  1  0
 14 29  1  0
 14 30  1  0
 15 31  1  0
 15 32  1  0
 15 33  1  0
 16 34  1  0
 16 35  1  0
 18 36  1  0
 20 37  1  0
 21 38  1  0
M  ISO  8  22  14  23  14  24  14  25  14  28   8  29   8  30   8  31   8
M  ISO  7  32   8  33   8  34   8  35   8  36  14  37  14  38   9
M  END
>  <minimizedAffinity>  (1) 
-5.07583809

>  <minimizedRMSD>  (1) 
1.46178365

$$$$
