
     RDKit          3D

 19 20  0  0  0  0  0  0  0  0999 V2000
   38.3530   23.8600   37.0420 C   0  0  0  0  0  0  0  0  0  0  0  0
   38.9920   22.8150   36.3580 C   0  0  0  0  0  0  0  0  0  0  0  0
   39.0890   22.9120   34.9550 C   0  0  0  0  0  0  0  0  0  0  0  0
   38.5580   24.0100   34.3620 N   0  0  0  0  0  0  0  0  0  0  0  0
   37.9520   24.9930   35.0600 C   0  0  0  0  0  0  0  0  0  0  0  0
   37.8510   24.9180   36.3900 N   0  0  0  0  0  0  0  0  0  0  0  0
   37.4200   26.1300   34.2800 C   0  0  0  0  0  0  0  0  0  0  0  0
   37.3780   26.1440   32.9030 C   0  0  0  0  0  0  0  0  0  0  0  0
   36.6260   27.7970   32.5790 S   0  0  0  0  0  0  0  0  0  0  0  0
   36.5140   28.1600   34.4490 C   0  0  0  0  0  0  0  0  0  0  0  0
   36.9680   27.1780   34.9520 N   0  0  0  0  0  0  0  0  0  0  0  0
   38.2290   23.7970   38.5310 C   0  0  0  0  0  0  0  0  0  0  0  0
   39.4710   23.4990   39.1210 F   0  0  0  0  0  0  0  0  0  0  0  0
   37.8470   25.0150   39.0410 F   0  0  0  0  0  0  0  0  0  0  0  0
   37.3160   22.8240   38.8850 F   0  0  0  0  0  0  0  0  0  0  0  0
   39.4033   21.9495   36.8981 H   0  0  0  0  0  0  0  0  0  0  0  0
   39.5781   22.1250   34.3622 H   0  0  0  0  0  0  0  0  0  0  0  0
   37.7054   25.3750   32.1879 H   0  0  0  0  0  0  0  0  0  0  0  0
   36.1236   29.0607   34.9453 H   0  0  0  0  0  0  0  0  0  0  0  0
  1 12  1  0
  2  1  2  0
  3  2  1  0
  4  3  2  0
  4  5  1  0
  5  6  2  0
  6  1  1  0
  7 11  1  0
  7  5  1  0
  8  7  2  0
  9  8  1  0
  9 10  1  0
 10 11  2  0
 12 15  1  0
 12 14  1  0
 12 13  1  0
  2 16  1  0
  3 17  1  0
  8 18  1  0
 10 19  1  0
M  ISO  4  16  14  17  14  18  14  19  14
M  END
>  <minimizedAffinity>  (1) 
-4.76762342

>  <minimizedRMSD>  (1) 
0.874191225

$$$$
