
     RDKit          3D

 32 33  0  0  0  0  0  0  0  0999 V2000
   38.5440   24.0390   34.7000 N   0  0  0  0  0  0  0  0  0  0  0  0
   37.8540   23.2200   33.9170 C   0  0  0  0  0  0  0  0  0  0  0  0
   37.9390   23.7600   32.6710 C   0  0  0  0  0  0  0  0  0  0  0  0
   38.6700   24.8800   32.7200 N   0  0  0  0  0  0  0  0  0  0  0  0
   39.0700   25.0810   34.0170 C   0  0  0  0  0  0  0  0  0  0  0  0
   37.8760   23.9450   38.3690 C   0  0  0  0  0  0  0  0  0  0  0  0
   37.6740   24.2300   37.0000 C   0  0  0  0  0  0  0  0  0  0  0  0
   38.6760   23.7900   36.0980 C   0  0  0  0  0  0  0  0  0  0  0  0
   39.7010   23.1560   36.6340 N   0  0  0  0  0  0  0  0  0  0  0  0
   39.9080   22.8780   37.9220 C   0  0  0  0  0  0  0  0  0  0  0  0
   38.9570   23.2930   38.7980 N   0  0  0  0  0  0  0  0  0  0  0  0
   37.3490   23.2220   31.4980 N   0  0  0  0  0  0  0  0  0  0  0  0
   39.8870   26.2210   34.4240 C   0  0  0  0  0  0  0  0  0  0  0  0
   39.1550   27.0900   35.4330 C   0  0  0  0  0  0  0  0  0  0  0  0
   40.0370   27.1740   33.2080 C   0  0  0  0  0  0  0  0  0  0  0  0
   41.2830   25.9550   34.8330 C   0  0  0  0  0  0  0  0  0  0  0  0
   41.7700   24.8410   34.1480 O   0  0  0  0  0  0  0  0  0  0  0  0
   37.3262   22.3011   34.2119 H   0  0  0  0  0  0  0  0  0  0  0  0
   37.1213   24.2697   39.1004 H   0  0  0  0  0  0  0  0  0  0  0  0
   36.7808   24.7683   36.6500 H   0  0  0  0  0  0  0  0  0  0  0  0
   40.8057   22.3386   38.2584 H   0  0  0  0  0  0  0  0  0  0  0  0
   36.8000   22.3521   31.5501 H   0  0  0  0  0  0  0  0  0  0  0  0
   37.4698   23.7014   30.5944 H   0  0  0  0  0  0  0  0  0  0  0  0
   39.4220   26.7730   36.4519 H   0  0  0  0  0  0  0  0  0  0  0  0
   39.4435   28.1417   35.2887 H   0  0  0  0  0  0  0  0  0  0  0  0
   38.0696   26.9844   35.2887 H   0  0  0  0  0  0  0  0  0  0  0  0
   40.1988   28.2017   33.5653 H   0  0  0  0  0  0  0  0  0  0  0  0
   40.8965   26.8582   32.5985 H   0  0  0  0  0  0  0  0  0  0  0  0
   39.1220   27.1375   32.5985 H   0  0  0  0  0  0  0  0  0  0  0  0
   41.9061   26.8303   34.5973 H   0  0  0  0  0  0  0  0  0  0  0  0
   41.3145   25.7596   35.9150 H   0  0  0  0  0  0  0  0  0  0  0  0
   42.0687   24.1578   34.7992 H   0  0  0  0  0  0  0  0  0  0  0  0
  1  8  1  0
  2  1  1  0
  3  4  1  0
  3  2  2  0
  4  5  2  0
  5 13  1  0
  5  1  1  0
  6 11  2  0
  7  6  1  0
  8  9  1  0
  8  7  2  0
  9 10  2  0
 10 11  1  0
 12  3  1  0
 13 16  1  0
 13 14  1  0
 15 13  1  0
 17 16  1  0
  2 18  1  0
  6 19  1  0
  7 20  1  0
 10 21  1  0
 12 22  1  0
 12 23  1  0
 14 24  1  0
 14 25  1  0
 14 26  1  0
 15 27  1  0
 15 28  1  0
 15 29  1  0
 16 30  1  0
 16 31  1  0
 17 32  1  0
M  ISO  8  18  14  19  14  20  14  21  14  24   8  25   8  26   8  27   8
M  ISO  5  28   8  29   8  30   8  31   8  32   3
M  END
>  <minimizedAffinity>  (1) 
-4.30713844

>  <minimizedRMSD>  (1) 
0.234613508

$$$$
