
     RDKit          3D

 44 46  0  0  0  0  0  0  0  0999 V2000
   38.6340   23.9630   34.4520 N   0  0  0  0  0  0  0  0  0  0  0  0
   37.6620   23.3760   33.7420 C   0  0  0  0  0  0  0  0  0  0  0  0
   37.8850   23.7440   32.4490 C   0  0  0  0  0  0  0  0  0  0  0  0
   38.9730   24.5380   32.3990 N   0  0  0  0  0  0  0  0  0  0  0  0
   39.4610   24.6840   33.6810 C   0  0  0  0  0  0  0  0  0  0  0  0
   37.9860   24.2220   38.1090 C   0  0  0  0  0  0  0  0  0  0  0  0
   37.8280   24.4590   36.7250 C   0  0  0  0  0  0  0  0  0  0  0  0
   38.7080   23.7930   35.8590 C   0  0  0  0  0  0  0  0  0  0  0  0
   39.5860   23.0160   36.4590 N   0  0  0  0  0  0  0  0  0  0  0  0
   39.7750   22.7610   37.7460 C   0  0  0  0  0  0  0  0  0  0  0  0
   38.9330   23.3970   38.5820 N   0  0  0  0  0  0  0  0  0  0  0  0
   37.1000   23.3620   31.3400 N   0  0  0  0  0  0  0  0  0  0  0  0
   40.6570   25.5000   33.9790 C   0  0  0  0  0  0  0  0  0  0  0  0
   40.2930   26.5720   35.0000 C   0  0  0  0  0  0  0  0  0  0  0  0
   40.9800   26.3360   32.7130 C   0  0  0  0  0  0  0  0  0  0  0  0
   41.8830   24.7610   34.2840 C   0  0  0  0  0  0  0  0  0  0  0  0
   42.6050   24.9960   35.5650 C   0  0  0  0  0  0  0  0  0  0  0  0
   43.0730   23.8330   36.3310 C   0  0  0  0  0  0  0  0  0  0  0  0
   44.4950   24.1350   36.7990 C   0  0  0  0  0  0  0  0  0  0  0  0
   44.8720   25.4730   36.2570 C   0  0  0  0  0  0  0  0  0  0  0  0
   43.8980   25.7220   35.1580 C   0  0  0  0  0  0  0  0  0  0  0  0
   36.8545   22.7329   34.1221 H   0  0  0  0  0  0  0  0  0  0  0  0
   37.3143   24.7276   38.8183 H   0  0  0  0  0  0  0  0  0  0  0  0
   37.0493   25.1359   36.3435 H   0  0  0  0  0  0  0  0  0  0  0  0
   40.5614   22.0803   38.1043 H   0  0  0  0  0  0  0  0  0  0  0  0
   37.3475   23.6912   30.3959 H   0  0  0  0  0  0  0  0  0  0  0  0
   36.2796   22.7540   31.4747 H   0  0  0  0  0  0  0  0  0  0  0  0
   40.4288   26.1721   36.0157 H   0  0  0  0  0  0  0  0  0  0  0  0
   40.9442   27.4475   34.8605 H   0  0  0  0  0  0  0  0  0  0  0  0
   39.2433   26.8699   34.8605 H   0  0  0  0  0  0  0  0  0  0  0  0
   41.3614   27.3232   33.0130 H   0  0  0  0  0  0  0  0  0  0  0  0
   41.7416   25.8151   32.1141 H   0  0  0  0  0  0  0  0  0  0  0  0
   40.0660   26.4625   32.1141 H   0  0  0  0  0  0  0  0  0  0  0  0
   41.6219   23.6927   34.2601 H   0  0  0  0  0  0  0  0  0  0  0  0
   42.5911   25.1311   33.5279 H   0  0  0  0  0  0  0  0  0  0  0  0
   41.8799   25.5091   36.2138 H   0  0  0  0  0  0  0  0  0  0  0  0
   42.4188   23.6672   37.1996 H   0  0  0  0  0  0  0  0  0  0  0  0
   43.0537   22.9258   35.7093 H   0  0  0  0  0  0  0  0  0  0  0  0
   44.5330   24.1510   37.8982 H   0  0  0  0  0  0  0  0  0  0  0  0
   45.1921   23.3625   36.4422 H   0  0  0  0  0  0  0  0  0  0  0  0
   44.7851   26.2456   37.0352 H   0  0  0  0  0  0  0  0  0  0  0  0
   45.9138   25.5018   35.9052 H   0  0  0  0  0  0  0  0  0  0  0  0
   44.2808   25.3179   34.2092 H   0  0  0  0  0  0  0  0  0  0  0  0
   43.7258   26.7981   35.0083 H   0  0  0  0  0  0  0  0  0  0  0  0
  1  8  1  0
  2  1  1  0
  3  2  2  0
  4  3  1  0
  4  5  2  0
  5 13  1  0
  5  1  1  0
  6 11  2  0
  7  6  1  0
  8  9  1  0
  8  7  2  0
  9 10  2  0
 10 11  1  0
 12  3  1  0
 13 16  1  0
 13 14  1  0
 15 13  1  0
 16 17  1  0
 17 18  1  0
 18 19  1  0
 20 19  1  0
 21 17  1  0
 21 20  1  0
  2 22  1  0
  6 23  1  0
  7 24  1  0
 10 25  1  0
 12 26  1  0
 12 27  1  0
 14 28  1  0
 14 29  1  0
 14 30  1  0
 15 31  1  0
 15 32  1  0
 15 33  1  0
 16 34  1  0
 16 35  1  0
 17 36  1  0
 18 37  1  0
 18 38  1  0
 19 39  1  0
 19 40  1  0
 20 41  1  0
 20 42  1  0
 21 43  1  0
 21 44  1  0
M  ISO  8  22  14  23  14  24  14  25  14  28   8  29   8  30   8  31   8
M  ISO  8  32   8  33   8  34   8  35   8  36  13  37  13  38  13  39  13
M  ISO  5  40  13  41  13  42  13  43  13  44  13
M  END
>  <minimizedAffinity>  (1) 
-4.71307039

>  <minimizedRMSD>  (1) 
1.62284076

$$$$
