
     RDKit          3D

 20 21  0  0  0  0  0  0  0  0999 V2000
   38.3640   23.8590   37.0260 C   0  0  0  0  0  0  0  0  0  0  0  0
   39.0040   22.8230   36.3410 C   0  0  0  0  0  0  0  0  0  0  0  0
   39.0870   22.9320   34.9390 C   0  0  0  0  0  0  0  0  0  0  0  0
   38.5470   24.0200   34.3510 N   0  0  0  0  0  0  0  0  0  0  0  0
   37.9350   25.0030   35.0490 C   0  0  0  0  0  0  0  0  0  0  0  0
   37.8410   24.9280   36.3850 N   0  0  0  0  0  0  0  0  0  0  0  0
   37.3660   26.1620   34.3710 C   0  0  0  0  0  0  0  0  0  0  0  0
   37.1080   26.2580   33.0000 C   0  0  0  0  0  0  0  0  0  0  0  0
   36.5890   27.4440   32.7060 N   0  0  0  0  0  0  0  0  0  0  0  0
   36.5050   28.1240   33.8650 C   0  0  0  0  0  0  0  0  0  0  0  0
   36.9710   27.3460   34.8470 N   0  0  0  0  0  0  0  0  0  0  0  0
   38.2520   23.7850   38.5280 C   0  0  0  0  0  0  0  0  0  0  0  0
   39.4900   23.4880   39.1010 F   0  0  0  0  0  0  0  0  0  0  0  0
   37.8590   25.0140   39.0390 F   0  0  0  0  0  0  0  0  0  0  0  0
   37.3140   22.8320   38.8650 F   0  0  0  0  0  0  0  0  0  0  0  0
   39.4255   21.9582   36.8743 H   0  0  0  0  0  0  0  0  0  0  0  0
   39.5786   22.1515   34.3398 H   0  0  0  0  0  0  0  0  0  0  0  0
   37.3073   25.4620   32.2674 H   0  0  0  0  0  0  0  0  0  0  0  0
   36.1183   29.1469   33.9837 H   0  0  0  0  0  0  0  0  0  0  0  0
   37.0191   27.6224   35.8380 H   0  0  0  0  0  0  0  0  0  0  0  0
  1 12  1  0
  2  1  2  0
  3  2  1  0
  4  3  2  0
  4  5  1  0
  5  6  2  0
  6  1  1  0
  7 11  1  0
  7  5  1  0
  8  7  2  0
  9  8  1  0
  9 10  2  0
 10 11  1  0
 12 15  1  0
 12 14  1  0
 12 13  1  0
  2 16  1  0
  3 17  1  0
  8 18  1  0
 10 19  1  0
 11 20  1  0
M  ISO  5  16  14  17  14  18  14  19  14  20   9
M  END
>  <minimizedAffinity>  (1) 
-4.72093439

>  <minimizedRMSD>  (1) 
0.809077978

$$$$
