
     RDKit          3D

 32 33  0  0  0  0  0  0  0  0999 V2000
   38.5260   24.0490   34.6950 N   0  0  0  0  0  0  0  0  0  0  0  0
   37.8420   23.2180   33.9050 C   0  0  0  0  0  0  0  0  0  0  0  0
   37.9080   23.7790   32.6580 C   0  0  0  0  0  0  0  0  0  0  0  0
   38.6220   24.9200   32.7190 N   0  0  0  0  0  0  0  0  0  0  0  0
   39.0270   25.1100   34.0250 C   0  0  0  0  0  0  0  0  0  0  0  0
   37.9380   23.9170   38.3730 C   0  0  0  0  0  0  0  0  0  0  0  0
   37.6980   24.2300   37.0120 C   0  0  0  0  0  0  0  0  0  0  0  0
   38.6730   23.7850   36.0870 C   0  0  0  0  0  0  0  0  0  0  0  0
   39.7050   23.1240   36.5830 N   0  0  0  0  0  0  0  0  0  0  0  0
   39.9520   22.8180   37.8630 C   0  0  0  0  0  0  0  0  0  0  0  0
   39.0250   23.2390   38.7620 N   0  0  0  0  0  0  0  0  0  0  0  0
   37.3170   23.2370   31.4930 N   0  0  0  0  0  0  0  0  0  0  0  0
   39.8200   26.2650   34.4090 C   0  0  0  0  0  0  0  0  0  0  0  0
   39.0280   27.1800   35.3440 C   0  0  0  0  0  0  0  0  0  0  0  0
   40.0500   27.1670   33.1800 C   0  0  0  0  0  0  0  0  0  0  0  0
   41.1840   25.9930   34.9360 C   0  0  0  0  0  0  0  0  0  0  0  0
   42.0690   24.8450   33.8210 S   0  0  0  0  0  0  0  0  0  0  0  0
   37.3354   22.2852   34.1935 H   0  0  0  0  0  0  0  0  0  0  0  0
   37.2103   24.2404   39.1318 H   0  0  0  0  0  0  0  0  0  0  0  0
   36.8049   24.7870   36.6924 H   0  0  0  0  0  0  0  0  0  0  0  0
   40.8499   22.2603   38.1675 H   0  0  0  0  0  0  0  0  0  0  0  0
   36.7875   22.3551   31.5467 H   0  0  0  0  0  0  0  0  0  0  0  0
   37.4161   23.7241   30.5909 H   0  0  0  0  0  0  0  0  0  0  0  0
   39.2531   26.9200   36.3889 H   0  0  0  0  0  0  0  0  0  0  0  0
   39.3097   28.2269   35.1578 H   0  0  0  0  0  0  0  0  0  0  0  0
   37.9515   27.0513   35.1578 H   0  0  0  0  0  0  0  0  0  0  0  0
   40.3090   28.1826   33.5139 H   0  0  0  0  0  0  0  0  0  0  0  0
   40.8729   26.7591   32.5746 H   0  0  0  0  0  0  0  0  0  0  0  0
   39.1323   27.2029   32.5746 H   0  0  0  0  0  0  0  0  0  0  0  0
   41.7431   26.9378   35.0042 H   0  0  0  0  0  0  0  0  0  0  0  0
   41.1009   25.5354   35.9328 H   0  0  0  0  0  0  0  0  0  0  0  0
   42.7708   23.9346   34.5664 H   0  0  0  0  0  0  0  0  0  0  0  0
  1  8  1  0
  2  1  1  0
  3  4  1  0
  3  2  2  0
  4  5  2  0
  5 13  1  0
  5  1  1  0
  6 11  2  0
  7  6  1  0
  8  9  1  0
  8  7  2  0
  9 10  2  0
 10 11  1  0
 12  3  1  0
 13 16  1  0
 13 14  1  0
 15 13  1  0
 17 16  1  0
  2 18  1  0
  6 19  1  0
  7 20  1  0
 10 21  1  0
 12 22  1  0
 12 23  1  0
 14 24  1  0
 14 25  1  0
 14 26  1  0
 15 27  1  0
 15 28  1  0
 15 29  1  0
 16 30  1  0
 16 31  1  0
 17 32  1  0
M  ISO  8  18  14  19  14  20  14  21  14  24   8  25   8  26   8  27   8
M  ISO  5  28   8  29   8  30   8  31   8  32  11
M  END
>  <minimizedAffinity>  (1) 
-4.27958298

>  <minimizedRMSD>  (1) 
0.217490867

$$$$
