
     RDKit          3D

 22 23  0  0  0  0  0  0  0  0999 V2000
   38.6550   23.4380   38.4710 C   0  0  0  0  0  0  0  0  0  0  0  0
   38.0660   24.3940   37.6250 C   0  0  0  0  0  0  0  0  0  0  0  0
   38.6110   24.5820   36.3720 C   0  0  0  0  0  0  0  0  0  0  0  0
   39.6810   23.8530   35.9940 N   0  0  0  0  0  0  0  0  0  0  0  0
   40.2450   22.9250   36.8300 C   0  0  0  0  0  0  0  0  0  0  0  0
   39.7210   22.7380   38.0450 N   0  0  0  0  0  0  0  0  0  0  0  0
   41.3750   22.1560   36.4300 N   0  0  0  0  0  0  0  0  0  0  0  0
   38.0890   25.5380   35.4140 C   0  0  0  0  0  0  0  0  0  0  0  0
   37.9290   26.8490   35.8170 C   0  0  0  0  0  0  0  0  0  0  0  0
   37.4340   27.8440   34.9720 C   0  0  0  0  0  0  0  0  0  0  0  0
   37.0980   27.4630   33.6750 C   0  0  0  0  0  0  0  0  0  0  0  0
   37.2410   26.1520   33.2220 C   0  0  0  0  0  0  0  0  0  0  0  0
   37.7360   25.2280   34.1170 C   0  0  0  0  0  0  0  0  0  0  0  0
   38.2456   23.2635   39.4769 H   0  0  0  0  0  0  0  0  0  0  0  0
   37.1931   24.9770   37.9539 H   0  0  0  0  0  0  0  0  0  0  0  0
   41.7818   21.4642   37.0756 H   0  0  0  0  0  0  0  0  0  0  0  0
   41.7854   22.2916   35.4951 H   0  0  0  0  0  0  0  0  0  0  0  0
   38.2031   27.1208   36.8471 H   0  0  0  0  0  0  0  0  0  0  0  0
   37.3147   28.8823   35.3151 H   0  0  0  0  0  0  0  0  0  0  0  0
   36.7059   28.2234   32.9835 H   0  0  0  0  0  0  0  0  0  0  0  0
   36.9704   25.8674   32.1945 H   0  0  0  0  0  0  0  0  0  0  0  0
   37.8559   24.1881   33.7790 H   0  0  0  0  0  0  0  0  0  0  0  0
  2  1  2  0
  3  2  1  0
  4  3  2  0
  4  5  1  0
  5  6  2  0
  6  1  1  0
  7  5  1  0
  8  9  2  0
  8  3  1  0
 10  9  1  0
 11 10  2  0
 12 11  1  0
 12 13  2  0
 13  8  1  0
  1 14  1  0
  2 15  1  0
  7 16  1  0
  7 17  1  0
  9 18  1  0
 10 19  1  0
 11 20  1  0
 12 21  1  0
 13 22  1  0
M  ISO  7  14  14  15  14  18  14  19  14  20  14  21  14  22  14
M  END
>  <minimizedAffinity>  (1) 
-4.26244545

>  <minimizedRMSD>  (1) 
4.42846823

$$$$
