
     RDKit          3D

 22 23  0  0  0  0  0  0  0  0999 V2000
   38.2720   23.4640   38.1510 C   0  0  0  0  0  0  0  0  0  0  0  0
   37.5010   23.1150   37.0420 C   0  0  0  0  0  0  0  0  0  0  0  0
   38.1100   22.3840   36.0380 C   0  0  0  0  0  0  0  0  0  0  0  0
   39.4080   22.0360   36.1640 N   0  0  0  0  0  0  0  0  0  0  0  0
   40.1510   22.3830   37.2530 C   0  0  0  0  0  0  0  0  0  0  0  0
   39.5450   23.0940   38.2190 N   0  0  0  0  0  0  0  0  0  0  0  0
   41.5160   22.0230   37.3950 N   0  0  0  0  0  0  0  0  0  0  0  0
   37.3900   21.9900   34.8760 N   0  0  0  0  0  0  0  0  0  0  0  0
   36.3780   21.1170   35.1640 C   0  0  0  0  0  0  0  0  0  0  0  0
   35.5470   20.5980   34.2040 C   0  0  0  0  0  0  0  0  0  0  0  0
   35.7600   20.9910   32.8920 C   0  0  0  0  0  0  0  0  0  0  0  0
   35.0200   20.5370   31.9960 O   0  0  0  0  0  0  0  0  0  0  0  0
   36.7560   21.8440   32.6500 N   0  0  0  0  0  0  0  0  0  0  0  0
   37.5700   22.3510   33.5950 C   0  0  0  0  0  0  0  0  0  0  0  0
   38.5110   23.1470   33.4280 O   0  0  0  0  0  0  0  0  0  0  0  0
   37.8246   24.0464   38.9699 H   0  0  0  0  0  0  0  0  0  0  0  0
   36.4442   23.4112   36.9684 H   0  0  0  0  0  0  0  0  0  0  0  0
   42.0388   22.3071   38.2358 H   0  0  0  0  0  0  0  0  0  0  0  0
   41.9842   21.4775   36.6573 H   0  0  0  0  0  0  0  0  0  0  0  0
   36.2235   20.8178   36.2112 H   0  0  0  0  0  0  0  0  0  0  0  0
   34.7415   19.8960   34.4656 H   0  0  0  0  0  0  0  0  0  0  0  0
   36.9132   22.1346   31.6744 H   0  0  0  0  0  0  0  0  0  0  0  0
  1  6  2  0
  2  1  1  0
  3  4  1  0
  3  2  2  0
  4  5  2  0
  5  7  1  0
  5  6  1  0
  8  9  1  0
  8  3  1  0
 10  9  2  0
 11 10  1  0
 12 11  2  0
 13 11  1  0
 13 14  1  0
 14  8  1  0
 15 14  2  0
  1 16  1  0
  2 17  1  0
  7 18  1  0
  7 19  1  0
  9 20  1  0
 10 21  1  0
 13 22  1  0
M  ISO  5  16  14  17  14  20  14  21  14  22   9
M  END
>  <minimizedAffinity>  (1) 
-4.62818527

>  <minimizedRMSD>  (1) 
5.7474246

$$$$
