
     RDKit          3D

 22 22  0  0  0  0  0  0  0  0999 V2000
   38.2070   23.9210   37.0470 C   0  0  0  0  0  0  0  0  0  0  0  0
   38.0620   22.7750   36.2420 C   0  0  0  0  0  0  0  0  0  0  0  0
   38.0970   22.9430   34.8480 C   0  0  0  0  0  0  0  0  0  0  0  0
   38.2690   24.1990   34.3680 N   0  0  0  0  0  0  0  0  0  0  0  0
   38.4030   25.2730   35.1680 C   0  0  0  0  0  0  0  0  0  0  0  0
   38.3730   25.1420   36.5060 N   0  0  0  0  0  0  0  0  0  0  0  0
   38.1730   23.7800   38.5410 C   0  0  0  0  0  0  0  0  0  0  0  0
   39.4460   23.4600   39.0360 F   0  0  0  0  0  0  0  0  0  0  0  0
   37.8280   24.9900   39.1230 F   0  0  0  0  0  0  0  0  0  0  0  0
   37.2760   22.8050   38.8880 F   0  0  0  0  0  0  0  0  0  0  0  0
   38.5910   26.6460   34.6050 C   0  0  0  0  0  0  0  0  0  0  0  0
   40.1030   26.8830   34.6650 C   0  0  0  0  0  0  0  0  0  0  0  0
   37.9140   27.6520   35.4870 C   0  0  0  0  0  0  0  0  0  0  0  0
   37.9257   21.7799   36.6905 H   0  0  0  0  0  0  0  0  0  0  0  0
   37.9885   22.0845   34.1688 H   0  0  0  0  0  0  0  0  0  0  0  0
   38.1766   26.7392   33.5903 H   0  0  0  0  0  0  0  0  0  0  0  0
   40.4248   26.9334   35.7157 H   0  0  0  0  0  0  0  0  0  0  0  0
   40.6241   26.0556   34.1612 H   0  0  0  0  0  0  0  0  0  0  0  0
   40.3460   27.8302   34.1612 H   0  0  0  0  0  0  0  0  0  0  0  0
   38.0890   27.3919   36.5414 H   0  0  0  0  0  0  0  0  0  0  0  0
   38.3233   28.6525   35.2833 H   0  0  0  0  0  0  0  0  0  0  0  0
   36.8330   27.6496   35.2833 H   0  0  0  0  0  0  0  0  0  0  0  0
  1  7  1  0
  2  1  2  0
  3  2  1  0
  4  3  2  0
  4  5  1  0
  5  6  2  0
  6  1  1  0
  7 10  1  0
  7  8  1  0
  7  9  1  0
 11 12  1  0
 11  5  1  0
 11 13  1  0
  2 14  1  0
  3 15  1  0
 11 16  1  0
 12 17  1  0
 12 18  1  0
 12 19  1  0
 13 20  1  0
 13 21  1  0
 13 22  1  0
M  ISO  8  14  14  15  14  16   8  17   8  18   8  19   8  20   8  21   8
M  ISO  1  22   8
M  END
>  <minimizedAffinity>  (1) 
-4.71640015

>  <minimizedRMSD>  (1) 
0.569915712

$$$$
