
     RDKit          3D

 25 27  0  0  0  0  0  0  0  0999 V2000
   43.2970   23.5210   35.1900 C   0  0  0  0  0  0  0  0  0  0  0  0
   42.1250   22.7550   35.2510 C   0  0  0  0  0  0  0  0  0  0  0  0
   40.9210   23.4230   35.1140 C   0  0  0  0  0  0  0  0  0  0  0  0
   40.9240   24.7790   34.9260 N   0  0  0  0  0  0  0  0  0  0  0  0
   42.0810   25.4970   34.8710 C   0  0  0  0  0  0  0  0  0  0  0  0
   43.2360   24.8330   35.0060 N   0  0  0  0  0  0  0  0  0  0  0  0
   42.1010   26.9020   34.6780 N   0  0  0  0  0  0  0  0  0  0  0  0
   39.6000   22.8980   35.1360 N   0  0  0  0  0  0  0  0  0  0  0  0
   38.7670   23.1460   36.1720 C   0  0  0  0  0  0  0  0  0  0  0  0
   37.5860   22.5320   35.9360 N   0  0  0  0  0  0  0  0  0  0  0  0
   37.6430   21.8920   34.7660 C   0  0  0  0  0  0  0  0  0  0  0  0
   36.8360   21.1120   33.9670 C   0  0  0  0  0  0  0  0  0  0  0  0
   37.2260   20.6030   32.7870 N   0  0  0  0  0  0  0  0  0  0  0  0
   38.4790   20.8620   32.3430 C   0  0  0  0  0  0  0  0  0  0  0  0
   39.3130   21.6260   33.0950 N   0  0  0  0  0  0  0  0  0  0  0  0
   38.9100   22.1290   34.2730 C   0  0  0  0  0  0  0  0  0  0  0  0
   35.5190   20.8450   34.4400 N   0  0  0  0  0  0  0  0  0  0  0  0
   44.2756   23.0300   35.2956 H   0  0  0  0  0  0  0  0  0  0  0  0
   42.1608   21.6660   35.4018 H   0  0  0  0  0  0  0  0  0  0  0  0
   42.9995   27.4043   34.6429 H   0  0  0  0  0  0  0  0  0  0  0  0
   41.2170   27.4200   34.5729 H   0  0  0  0  0  0  0  0  0  0  0  0
   39.0102   23.7479   37.0600 H   0  0  0  0  0  0  0  0  0  0  0  0
   38.8193   20.4560   31.3790 H   0  0  0  0  0  0  0  0  0  0  0  0
   34.8775   20.2668   33.8787 H   0  0  0  0  0  0  0  0  0  0  0  0
   35.2083   21.2302   35.3433 H   0  0  0  0  0  0  0  0  0  0  0  0
  1  2  2  0
  3  8  1  0
  3  2  1  0
  4  3  2  0
  5  4  1  0
  5  6  2  0
  6  1  1  0
  7  5  1  0
  8  9  1  0
 10  9  2  0
 11 10  1  0
 12 17  1  0
 12 11  2  0
 13 12  1  0
 14 13  2  0
 14 15  1  0
 15 16  2  0
 16 11  1  0
 16  8  1  0
  1 18  1  0
  2 19  1  0
  7 20  1  0
  7 21  1  0
  9 22  1  0
 14 23  1  0
 17 24  1  0
 17 25  1  0
M  ISO  4  18  14  19  14  22  14  23  14
M  END
>  <minimizedAffinity>  (1) 
-3.86140156

>  <minimizedRMSD>  (1) 
6.57450247

$$$$
