
     RDKit          3D

 21 21  0  0  0  0  0  0  0  0999 V2000
   37.9580   24.1870   38.2480 C   0  0  0  0  0  0  0  0  0  0  0  0
   38.0280   24.9240   37.0660 C   0  0  0  0  0  0  0  0  0  0  0  0
   38.9870   24.5630   36.1350 C   0  0  0  0  0  0  0  0  0  0  0  0
   39.8130   23.5280   36.3940 N   0  0  0  0  0  0  0  0  0  0  0  0
   39.7280   22.8230   37.5540 C   0  0  0  0  0  0  0  0  0  0  0  0
   38.8020   23.1720   38.4500 N   0  0  0  0  0  0  0  0  0  0  0  0
   40.5970   21.7260   37.8380 N   0  0  0  0  0  0  0  0  0  0  0  0
   39.0660   25.3490   34.8670 C   0  0  0  0  0  0  0  0  0  0  0  0
   39.3190   26.7880   35.2550 C   0  0  0  0  0  0  0  0  0  0  0  0
   37.8780   25.1650   33.9770 C   0  0  0  0  0  0  0  0  0  0  0  0
   37.2090   24.4413   39.0124 H   0  0  0  0  0  0  0  0  0  0  0  0
   37.3436   25.7647   36.8795 H   0  0  0  0  0  0  0  0  0  0  0  0
   40.5056   21.2132   38.7266 H   0  0  0  0  0  0  0  0  0  0  0  0
   41.3152   21.4475   37.1542 H   0  0  0  0  0  0  0  0  0  0  0  0
   39.8946   24.9799   34.2448 H   0  0  0  0  0  0  0  0  0  0  0  0
   39.3343   26.8749   36.3515 H   0  0  0  0  0  0  0  0  0  0  0  0
   40.2880   27.1126   34.8479 H   0  0  0  0  0  0  0  0  0  0  0  0
   38.5188   27.4236   34.8479 H   0  0  0  0  0  0  0  0  0  0  0  0
   36.9770   25.0254   34.5924 H   0  0  0  0  0  0  0  0  0  0  0  0
   37.7542   26.0547   33.3421 H   0  0  0  0  0  0  0  0  0  0  0  0
   38.0291   24.2796   33.3421 H   0  0  0  0  0  0  0  0  0  0  0  0
  1  6  2  0
  2  1  1  0
  3  4  1  0
  3  2  2  0
  4  5  2  0
  5  7  1  0
  5  6  1  0
  8  9  1  0
  8  3  1  0
 10  8  1  0
  1 11  1  0
  2 12  1  0
  7 13  1  0
  7 14  1  0
  8 15  1  0
  9 16  1  0
  9 17  1  0
  9 18  1  0
 10 19  1  0
 10 20  1  0
 10 21  1  0
M  ISO  8  11  14  12  14  15   8  16   8  17   8  18   8  19   8  20   8
M  ISO  1  21   8
M  END
>  <minimizedAffinity>  (1) 
-3.94959116

>  <minimizedRMSD>  (1) 
3.82363415

$$$$
