
     RDKit          3D

 18 19  0  0  0  0  0  0  0  0999 V2000
   37.9800   24.1190   38.4460 C   0  0  0  0  0  0  0  0  0  0  0  0
   37.9150   25.0210   37.3700 C   0  0  0  0  0  0  0  0  0  0  0  0
   38.7380   24.7740   36.2870 C   0  0  0  0  0  0  0  0  0  0  0  0
   39.5660   23.6950   36.2880 N   0  0  0  0  0  0  0  0  0  0  0  0
   39.6080   22.8380   37.3420 C   0  0  0  0  0  0  0  0  0  0  0  0
   38.8190   23.0670   38.3930 N   0  0  0  0  0  0  0  0  0  0  0  0
   40.4670   21.7130   37.3520 N   0  0  0  0  0  0  0  0  0  0  0  0
   38.6780   25.6880   35.1870 N   0  0  0  0  0  0  0  0  0  0  0  0
   39.5900   26.2780   34.3950 C   0  0  0  0  0  0  0  0  0  0  0  0
   38.9130   27.0630   33.5070 N   0  0  0  0  0  0  0  0  0  0  0  0
   37.6090   26.9210   33.7910 C   0  0  0  0  0  0  0  0  0  0  0  0
   37.4620   26.0710   34.8300 N   0  0  0  0  0  0  0  0  0  0  0  0
   37.3455   24.2724   39.3314 H   0  0  0  0  0  0  0  0  0  0  0  0
   37.2375   25.8874   37.3889 H   0  0  0  0  0  0  0  0  0  0  0  0
   40.4777   21.0804   38.1648 H   0  0  0  0  0  0  0  0  0  0  0  0
   41.0814   21.5270   36.5465 H   0  0  0  0  0  0  0  0  0  0  0  0
   40.6812   26.1514   34.4521 H   0  0  0  0  0  0  0  0  0  0  0  0
   36.7860   27.4205   33.2589 H   0  0  0  0  0  0  0  0  0  0  0  0
  2  1  2  0
  3  4  2  0
  3  2  1  0
  4  5  1  0
  5  7  1  0
  5  6  2  0
  6  1  1  0
  8  3  1  0
  9  8  1  0
 10 11  1  0
 10  9  2  0
 11 12  2  0
 12  8  1  0
  1 13  1  0
  2 14  1  0
  7 15  1  0
  7 16  1  0
  9 17  1  0
 11 18  1  0
M  ISO  4  13  14  14  14  17  14  18  14
M  END
>  <minimizedAffinity>  (1) 
-3.95503473

>  <minimizedRMSD>  (1) 
4.62724066

$$$$
