
     RDKit          3D

 15 15  0  0  0  0  0  0  0  0999 V2000
   42.8770   22.7160   36.0430 C   0  0  0  0  0  0  0  0  0  0  0  0
   41.6380   23.2620   36.4200 C   0  0  0  0  0  0  0  0  0  0  0  0
   40.8260   22.4980   37.2420 C   0  0  0  0  0  0  0  0  0  0  0  0
   41.2390   21.2800   37.6470 N   0  0  0  0  0  0  0  0  0  0  0  0
   42.4530   20.7680   37.2640 C   0  0  0  0  0  0  0  0  0  0  0  0
   43.2340   21.5100   36.4690 N   0  0  0  0  0  0  0  0  0  0  0  0
   42.8870   19.4880   37.6890 N   0  0  0  0  0  0  0  0  0  0  0  0
   39.5340   23.0450   37.6470 C   0  0  0  0  0  0  0  0  0  0  0  0
   38.9580   23.8390   36.8680 O   0  0  0  0  0  0  0  0  0  0  0  0
   38.9590   22.6960   38.8580 O   0  0  0  0  0  0  0  0  0  0  0  0
   43.5535   23.2898   35.3926 H   0  0  0  0  0  0  0  0  0  0  0  0
   41.3249   24.2586   36.0753 H   0  0  0  0  0  0  0  0  0  0  0  0
   43.8034   19.1281   37.3863 H   0  0  0  0  0  0  0  0  0  0  0  0
   42.2861   18.9173   38.3007 H   0  0  0  0  0  0  0  0  0  0  0  0
   38.0824   23.0759   39.1175 H   0  0  0  0  0  0  0  0  0  0  0  0
  1  2  2  0
  1  6  1  0
  2  3  1  0
  3  4  2  0
  3  8  1  0
  5  4  1  0
  5  7  1  0
  6  5  2  0
  8 10  1  0
  9  8  2  0
  1 11  1  0
  2 12  1  0
  7 13  1  0
  7 14  1  0
 10 15  1  0
M  ISO  3  11  14  12  14  15   3
M  END
>  <minimizedAffinity>  (1) 
-3.59504437

>  <minimizedRMSD>  (1) 
3.97048903

$$$$
