
     RDKit          3D

 19 20  0  0  0  0  0  0  0  0999 V2000
   38.1860   24.9220   34.4960 C   0  0  0  0  0  0  0  0  0  0  0  0
   38.0010   24.8360   35.8860 C   0  0  0  0  0  0  0  0  0  0  0  0
   37.8320   23.5790   36.4430 C   0  0  0  0  0  0  0  0  0  0  0  0
   37.8490   22.4790   35.6320 N   0  0  0  0  0  0  0  0  0  0  0  0
   38.0300   22.5980   34.2920 C   0  0  0  0  0  0  0  0  0  0  0  0
   38.1920   23.8040   33.7590 N   0  0  0  0  0  0  0  0  0  0  0  0
   38.0490   21.4510   33.4360 N   0  0  0  0  0  0  0  0  0  0  0  0
   37.6400   23.4910   37.9010 C   0  0  0  0  0  0  0  0  0  0  0  0
   38.0790   24.5360   38.8350 C   0  0  0  0  0  0  0  0  0  0  0  0
   38.9840   23.3700   38.6690 C   0  0  0  0  0  0  0  0  0  0  0  0
   38.3251   25.9019   34.0159 H   0  0  0  0  0  0  0  0  0  0  0  0
   37.9907   25.7396   36.5132 H   0  0  0  0  0  0  0  0  0  0  0  0
   38.1880   21.5673   32.4221 H   0  0  0  0  0  0  0  0  0  0  0  0
   37.9236   20.5093   33.8339 H   0  0  0  0  0  0  0  0  0  0  0  0
   36.6747   22.9741   37.7960 H   0  0  0  0  0  0  0  0  0  0  0  0
   38.3847   25.5173   38.4430 H   0  0  0  0  0  0  0  0  0  0  0  0
   37.6132   25.0146   39.7091 H   0  0  0  0  0  0  0  0  0  0  0  0
   39.0974   22.6343   39.4789 H   0  0  0  0  0  0  0  0  0  0  0  0
   40.0394   23.2206   38.3971 H   0  0  0  0  0  0  0  0  0  0  0  0
  1  2  2  0
  2  3  1  0
  3  8  1  0
  4  3  2  0
  5  4  1  0
  6  5  2  0
  6  1  1  0
  7  5  1  0
  8 10  1  0
  8  9  1  0
 10  9  1  0
  1 11  1  0
  2 12  1  0
  7 13  1  0
  7 14  1  0
  8 15  1  0
  9 16  1  0
  9 17  1  0
 10 18  1  0
 10 19  1  0
M  ISO  7  11  14  12  14  15  13  16  13  17  13  18  13  19  13
M  END
>  <minimizedAffinity>  (1) 
-3.24388838

>  <minimizedRMSD>  (1) 
2.44039083

$$$$
