
     RDKit          3D

 14 14  0  0  0  0  0  0  0  0999 V2000
   40.3600   22.2440   37.2250 C   0  0  0  0  0  0  0  0  0  0  0  0
   39.7670   23.0910   38.1650 C   0  0  0  0  0  0  0  0  0  0  0  0
   38.4940   23.5630   37.8980 C   0  0  0  0  0  0  0  0  0  0  0  0
   37.8650   23.1990   36.7480 N   0  0  0  0  0  0  0  0  0  0  0  0
   38.4710   22.3700   35.8500 C   0  0  0  0  0  0  0  0  0  0  0  0
   39.7070   21.9150   36.1160 N   0  0  0  0  0  0  0  0  0  0  0  0
   37.8270   21.9840   34.6500 N   0  0  0  0  0  0  0  0  0  0  0  0
   37.8200   24.4400   38.8240 N   0  0  0  0  0  0  0  0  0  0  0  0
   41.3707   21.8485   37.4040 H   0  0  0  0  0  0  0  0  0  0  0  0
   40.2952   23.3735   39.0876 H   0  0  0  0  0  0  0  0  0  0  0  0
   36.8796   22.3292   34.4399 H   0  0  0  0  0  0  0  0  0  0  0  0
   38.3058   21.3580   33.9869 H   0  0  0  0  0  0  0  0  0  0  0  0
   36.8724   24.7832   38.6115 H   0  0  0  0  0  0  0  0  0  0  0  0
   38.2863   24.7230   39.6977 H   0  0  0  0  0  0  0  0  0  0  0  0
  1  2  2  0
  3  2  1  0
  3  8  1  0
  4  3  2  0
  5  6  2  0
  5  4  1  0
  6  1  1  0
  7  5  1  0
  1  9  1  0
  2 10  1  0
  7 11  1  0
  7 12  1  0
  8 13  1  0
  8 14  1  0
M  ISO  2   9  14  10  14
M  END
>  <minimizedAffinity>  (1) 
-2.90316033

>  <minimizedRMSD>  (1) 
0.606680036

$$$$
