
     RDKit          3D

 15 15  0  0  0  0  0  0  0  0999 V2000
   40.3360   22.1680   36.9960 C   0  0  0  0  0  0  0  0  0  0  0  0
   39.7660   23.0070   37.9730 C   0  0  0  0  0  0  0  0  0  0  0  0
   38.4860   23.4870   37.7530 C   0  0  0  0  0  0  0  0  0  0  0  0
   37.8390   23.1340   36.6120 N   0  0  0  0  0  0  0  0  0  0  0  0
   38.4040   22.3290   35.6840 C   0  0  0  0  0  0  0  0  0  0  0  0
   39.6310   21.8650   35.8920 N   0  0  0  0  0  0  0  0  0  0  0  0
   37.7170   21.9680   34.4990 N   0  0  0  0  0  0  0  0  0  0  0  0
   37.8970   24.3710   38.7930 C   0  0  0  0  0  0  0  0  0  0  0  0
   41.3496   21.7639   37.1350 H   0  0  0  0  0  0  0  0  0  0  0  0
   40.3215   23.2732   38.8843 H   0  0  0  0  0  0  0  0  0  0  0  0
   36.7651   22.3220   34.3274 H   0  0  0  0  0  0  0  0  0  0  0  0
   38.1694   21.3515   33.8089 H   0  0  0  0  0  0  0  0  0  0  0  0
   38.1540   23.9853   39.7906 H   0  0  0  0  0  0  0  0  0  0  0  0
   38.2980   25.3889   38.6790 H   0  0  0  0  0  0  0  0  0  0  0  0
   36.8031   24.3929   38.6790 H   0  0  0  0  0  0  0  0  0  0  0  0
  1  2  2  0
  3  2  1  0
  3  8  1  0
  4  3  2  0
  5  6  2  0
  5  4  1  0
  6  1  1  0
  7  5  1  0
  1  9  1  0
  2 10  1  0
  7 11  1  0
  7 12  1  0
  8 13  1  0
  8 14  1  0
  8 15  1  0
M  ISO  5   9  14  10  14  13   8  14   8  15   8
M  END
>  <minimizedAffinity>  (1) 
-2.98075914

>  <minimizedRMSD>  (1) 
0.690262496

$$$$
