
     RDKit          3D

 13 13  0  0  0  0  0  0  0  0999 V2000
   41.0840   21.9730   36.8900 C   0  0  0  0  0  0  0  0  0  0  0  0
   40.3090   22.6730   37.8180 C   0  0  0  0  0  0  0  0  0  0  0  0
   39.0750   23.1700   37.4240 C   0  0  0  0  0  0  0  0  0  0  0  0
   38.6720   22.9530   36.1340 N   0  0  0  0  0  0  0  0  0  0  0  0
   39.4400   22.2700   35.2410 C   0  0  0  0  0  0  0  0  0  0  0  0
   40.6260   21.8020   35.6550 N   0  0  0  0  0  0  0  0  0  0  0  0
   39.0210   22.0450   33.9050 N   0  0  0  0  0  0  0  0  0  0  0  0
   37.9730   24.0860   38.5050 S   0  0  0  0  0  0  0  0  0  0  0  0
   42.0646   21.5672   37.1795 H   0  0  0  0  0  0  0  0  0  0  0  0
   40.6715   22.8277   38.8450 H   0  0  0  0  0  0  0  0  0  0  0  0
   38.1103   22.4032   33.5836 H   0  0  0  0  0  0  0  0  0  0  0  0
   39.6273   21.5234   33.2560 H   0  0  0  0  0  0  0  0  0  0  0  0
   38.2908   23.8218   39.8112 H   0  0  0  0  0  0  0  0  0  0  0  0
  1  2  2  0
  3  2  1  0
  3  8  1  0
  4  3  2  0
  5  6  2  0
  5  4  1  0
  6  1  1  0
  7  5  1  0
  1  9  1  0
  2 10  1  0
  7 11  1  0
  7 12  1  0
  8 13  1  0
M  ISO  3   9  14  10  14  13  11
M  END
>  <minimizedAffinity>  (1) 
-2.55595994

>  <minimizedRMSD>  (1) 
1.45546556

$$$$
