
     RDKit          3D

 19 19  0  0  0  0  0  0  0  0999 V2000
   39.8970   22.3600   37.3460 C   0  0  0  0  0  0  0  0  0  0  0  0
   39.1220   23.5170   37.3020 C   0  0  0  0  0  0  0  0  0  0  0  0
   39.1340   24.2470   36.1090 C   0  0  0  0  0  0  0  0  0  0  0  0
   39.8820   23.8060   35.0770 N   0  0  0  0  0  0  0  0  0  0  0  0
   40.6280   22.6760   35.1490 C   0  0  0  0  0  0  0  0  0  0  0  0
   40.6200   21.9770   36.2830 N   0  0  0  0  0  0  0  0  0  0  0  0
   41.4190   22.1960   34.0780 N   0  0  0  0  0  0  0  0  0  0  0  0
   38.3690   25.4570   35.9570 N   0  0  0  0  0  0  0  0  0  0  0  0
   39.0050   26.7150   35.6580 C   0  0  0  0  0  0  0  0  0  0  0  0
   40.1030   26.5680   34.9940 N   0  0  0  0  0  0  0  0  0  0  0  0
   38.3510   27.8900   36.1250 N   0  0  0  0  0  0  0  0  0  0  0  0
   40.6370   27.4120   34.7280 H   0  0  0  0  0  0  0  0  0  0  0  0
   39.9162   21.7534   38.2634 H   0  0  0  0  0  0  0  0  0  0  0  0
   38.5266   23.8422   38.1679 H   0  0  0  0  0  0  0  0  0  0  0  0
   41.9662   21.3305   34.1894 H   0  0  0  0  0  0  0  0  0  0  0  0
   41.4475   22.7122   33.1871 H   0  0  0  0  0  0  0  0  0  0  0  0
   37.3452   25.4228   36.0643 H   0  0  0  0  0  0  0  0  0  0  0  0
   38.7616   28.8162   35.9394 H   0  0  0  0  0  0  0  0  0  0  0  0
   37.4672   27.8140   36.6485 H   0  0  0  0  0  0  0  0  0  0  0  0
  2  1  2  0
  3  2  1  0
  4  5  1  0
  4  3  2  0
  5  6  2  0
  6  1  1  0
  7  5  1  0
  8  3  1  0
  9  8  1  0
  9 11  1  0
 10  9  2  0
 12 10  1  0
  1 13  1  0
  2 14  1  0
  7 15  1  0
  7 16  1  0
  8 17  1  0
 11 18  1  0
 11 19  1  0
M  ISO  2  13  14  14  14
M  END
>  <minimizedAffinity>  (1) 
-3.41243315

>  <minimizedRMSD>  (1) 
3.23786521

$$$$
