
     RDKit          3D

 19 19  0  0  0  0  0  0  0  0999 V2000
   38.2060   24.2010   37.0120 C   0  0  0  0  0  0  0  0  0  0  0  0
   38.1870   23.1640   36.0810 C   0  0  0  0  0  0  0  0  0  0  0  0
   38.1730   23.5230   34.7150 C   0  0  0  0  0  0  0  0  0  0  0  0
   38.1790   24.8410   34.4010 N   0  0  0  0  0  0  0  0  0  0  0  0
   38.1990   25.8130   35.3400 C   0  0  0  0  0  0  0  0  0  0  0  0
   38.2120   25.4990   36.6440 N   0  0  0  0  0  0  0  0  0  0  0  0
   38.2210   23.8680   38.4740 C   0  0  0  0  0  0  0  0  0  0  0  0
   39.4750   23.4320   38.8910 F   0  0  0  0  0  0  0  0  0  0  0  0
   37.9150   24.9880   39.2280 F   0  0  0  0  0  0  0  0  0  0  0  0
   37.2630   22.8860   38.7170 F   0  0  0  0  0  0  0  0  0  0  0  0
   38.2040   27.2000   34.8170 C   0  0  0  0  0  0  0  0  0  0  0  0
   36.8270   27.7470   34.5620 C   0  0  0  0  0  0  0  0  0  0  0  0
   38.1831   22.1103   36.3967 H   0  0  0  0  0  0  0  0  0  0  0  0
   38.1577   22.7543   33.9283 H   0  0  0  0  0  0  0  0  0  0  0  0
   38.7060   27.8476   35.5509 H   0  0  0  0  0  0  0  0  0  0  0  0
   38.7298   27.1809   33.8510 H   0  0  0  0  0  0  0  0  0  0  0  0
   36.3277   27.9453   35.5219 H   0  0  0  0  0  0  0  0  0  0  0  0
   36.9045   28.6826   33.9888 H   0  0  0  0  0  0  0  0  0  0  0  0
   36.2413   27.0132   33.9888 H   0  0  0  0  0  0  0  0  0  0  0  0
  1  7  1  0
  2  1  2  0
  3  2  1  0
  4  3  2  0
  4  5  1  0
  5  6  2  0
  6  1  1  0
  7 10  1  0
  7  8  1  0
  7  9  1  0
 11  5  1  0
 12 11  1  0
  2 13  1  0
  3 14  1  0
 11 15  1  0
 11 16  1  0
 12 17  1  0
 12 18  1  0
 12 19  1  0
M  ISO  7  13  14  14  14  15   8  16   8  17   8  18   8  19   8
M  END
>  <minimizedAffinity>  (1) 
-4.27585459

>  <minimizedRMSD>  (1) 
0.407059848

$$$$
