
     RDKit          3D

 37 39  0  0  0  0  0  0  0  0999 V2000
   38.2760   24.7960   34.8690 C   0  0  0  0  0  0  0  0  0  0  0  0
   38.4000   26.1550   34.6660 C   0  0  0  0  0  0  0  0  0  0  0  0
   38.1330   26.5630   33.3660 C   0  0  0  0  0  0  0  0  0  0  0  0
   37.7760   25.6990   32.3590 C   0  0  0  0  0  0  0  0  0  0  0  0
   37.6680   24.3240   32.6380 C   0  0  0  0  0  0  0  0  0  0  0  0
   37.9260   23.9190   33.8980 N   0  0  0  0  0  0  0  0  0  0  0  0
   38.0730   24.2040   38.5410 C   0  0  0  0  0  0  0  0  0  0  0  0
   37.8070   24.7490   37.2770 C   0  0  0  0  0  0  0  0  0  0  0  0
   38.5280   24.2520   36.1940 C   0  0  0  0  0  0  0  0  0  0  0  0
   39.4320   23.2870   36.4110 N   0  0  0  0  0  0  0  0  0  0  0  0
   39.6790   22.7690   37.6380 C   0  0  0  0  0  0  0  0  0  0  0  0
   38.9880   23.2410   38.6940 N   0  0  0  0  0  0  0  0  0  0  0  0
   40.6350   21.7510   37.8540 N   0  0  0  0  0  0  0  0  0  0  0  0
   37.2830   23.4130   31.5370 C   0  0  0  0  0  0  0  0  0  0  0  0
   35.7930   23.2190   31.4890 C   0  0  0  0  0  0  0  0  0  0  0  0
   35.2990   21.9370   32.0550 C   0  0  0  0  0  0  0  0  0  0  0  0
   36.1350   20.7290   31.7500 C   0  0  0  0  0  0  0  0  0  0  0  0
   37.2530   21.1100   30.7760 C   0  0  0  0  0  0  0  0  0  0  0  0
   38.0770   22.1480   31.5210 C   0  0  0  0  0  0  0  0  0  0  0  0
   38.6857   26.8549   35.4651 H   0  0  0  0  0  0  0  0  0  0  0  0
   38.2114   27.6345   33.1298 H   0  0  0  0  0  0  0  0  0  0  0  0
   37.5768   26.0780   31.3458 H   0  0  0  0  0  0  0  0  0  0  0  0
   37.5218   24.5734   39.4183 H   0  0  0  0  0  0  0  0  0  0  0  0
   37.0553   25.5412   37.1452 H   0  0  0  0  0  0  0  0  0  0  0  0
   40.7918   21.3849   38.8039 H   0  0  0  0  0  0  0  0  0  0  0  0
   41.1750   21.3751   37.0615 H   0  0  0  0  0  0  0  0  0  0  0  0
   37.5527   23.9005   30.5885 H   0  0  0  0  0  0  0  0  0  0  0  0
   35.3254   24.0408   32.0512 H   0  0  0  0  0  0  0  0  0  0  0  0
   35.5234   23.2036   30.4227 H   0  0  0  0  0  0  0  0  0  0  0  0
   35.2490   22.0467   33.1484 H   0  0  0  0  0  0  0  0  0  0  0  0
   34.3231   21.7550   31.5813 H   0  0  0  0  0  0  0  0  0  0  0  0
   36.5763   20.3447   32.6814 H   0  0  0  0  0  0  0  0  0  0  0  0
   35.5025   19.9530   31.2942 H   0  0  0  0  0  0  0  0  0  0  0  0
   36.8343   21.5369   29.8527 H   0  0  0  0  0  0  0  0  0  0  0  0
   37.8547   20.2406   30.4726 H   0  0  0  0  0  0  0  0  0  0  0  0
   38.2681   21.8098   32.5501 H   0  0  0  0  0  0  0  0  0  0  0  0
   39.0484   22.3026   31.0285 H   0  0  0  0  0  0  0  0  0  0  0  0
  1  9  1  0
  2  1  2  0
  3  2  1  0
  4  5  1  0
  4  3  2  0
  5  6  2  0
  6  1  1  0
  7 12  2  0
  8  7  1  0
  9 10  1  0
  9  8  2  0
 10 11  2  0
 11 13  1  0
 11 12  1  0
 14  5  1  0
 15 14  1  0
 15 16  1  0
 17 16  1  0
 18 19  1  0
 18 17  1  0
 19 14  1  0
  2 20  1  0
  3 21  1  0
  4 22  1  0
  7 23  1  0
  8 24  1  0
 13 25  1  0
 13 26  1  0
 14 27  1  0
 15 28  1  0
 15 29  1  0
 16 30  1  0
 16 31  1  0
 17 32  1  0
 17 33  1  0
 18 34  1  0
 18 35  1  0
 19 36  1  0
 19 37  1  0
M  ISO  8  20  14  21  14  22  14  23  14  24  14  27  13  28  13  29  13
M  ISO  8  30  13  31  13  32  13  33  13  34  13  35  13  36  13  37  13
M  END
>  <minimizedAffinity>  (1) 
-5.78701735

>  <minimizedRMSD>  (1) 
2.41877341

$$$$
