
     RDKit          3D

 34 36  0  0  0  0  0  0  0  0999 V2000
   38.1230   25.6840   35.4750 C   0  0  0  0  0  0  0  0  0  0  0  0
   38.0620   26.9880   35.9830 C   0  0  0  0  0  0  0  0  0  0  0  0
   37.5110   27.8930   35.0790 C   0  0  0  0  0  0  0  0  0  0  0  0
   37.0700   27.5660   33.8200 C   0  0  0  0  0  0  0  0  0  0  0  0
   37.1680   26.2520   33.3980 C   0  0  0  0  0  0  0  0  0  0  0  0
   37.6960   25.3640   34.2540 N   0  0  0  0  0  0  0  0  0  0  0  0
   36.7440   25.8190   32.1320 N   0  0  0  0  0  0  0  0  0  0  0  0
   35.6690   26.3860   31.3480 C   0  0  0  0  0  0  0  0  0  0  0  0
   34.8120   25.2470   30.8230 C   0  0  0  0  0  0  0  0  0  0  0  0
   35.0750   24.0330   31.4470 O   0  0  0  0  0  0  0  0  0  0  0  0
   36.3860   23.6150   31.2700 C   0  0  0  0  0  0  0  0  0  0  0  0
   37.3880   24.7050   31.4670 C   0  0  0  0  0  0  0  0  0  0  0  0
   38.6820   23.3800   38.3500 C   0  0  0  0  0  0  0  0  0  0  0  0
   38.1130   24.3920   37.5700 C   0  0  0  0  0  0  0  0  0  0  0  0
   38.6780   24.6440   36.3210 C   0  0  0  0  0  0  0  0  0  0  0  0
   39.7350   23.9040   35.9350 N   0  0  0  0  0  0  0  0  0  0  0  0
   40.2790   22.9300   36.6930 C   0  0  0  0  0  0  0  0  0  0  0  0
   39.7280   22.6840   37.9120 N   0  0  0  0  0  0  0  0  0  0  0  0
   41.3850   22.1630   36.2820 N   0  0  0  0  0  0  0  0  0  0  0  0
   38.4117   27.2672   36.9879 H   0  0  0  0  0  0  0  0  0  0  0  0
   37.4229   28.9428   35.3954 H   0  0  0  0  0  0  0  0  0  0  0  0
   36.6461   28.3358   33.1584 H   0  0  0  0  0  0  0  0  0  0  0  0
   35.0595   27.0508   31.9777 H   0  0  0  0  0  0  0  0  0  0  0  0
   36.0773   26.9712   30.5108 H   0  0  0  0  0  0  0  0  0  0  0  0
   33.7542   25.5017   30.9849 H   0  0  0  0  0  0  0  0  0  0  0  0
   35.0481   25.1246   29.7556 H   0  0  0  0  0  0  0  0  0  0  0  0
   36.5968   22.8129   31.9926 H   0  0  0  0  0  0  0  0  0  0  0  0
   36.4797   23.2721   30.2290 H   0  0  0  0  0  0  0  0  0  0  0  0
   38.2188   24.3355   32.0861 H   0  0  0  0  0  0  0  0  0  0  0  0
   37.7823   25.0296   30.4928 H   0  0  0  0  0  0  0  0  0  0  0  0
   38.2585   23.1562   39.3402 H   0  0  0  0  0  0  0  0  0  0  0  0
   37.2488   24.9695   37.9301 H   0  0  0  0  0  0  0  0  0  0  0  0
   41.7619   21.4304   36.9001 H   0  0  0  0  0  0  0  0  0  0  0  0
   41.8176   22.3343   35.3631 H   0  0  0  0  0  0  0  0  0  0  0  0
  1  2  2  0
  1 15  1  0
  3  2  1  0
  4  3  2  0
  5  4  1  0
  5  6  2  0
  6  1  1  0
  7  5  1  0
  8  7  1  0
  9  8  1  0
  9 10  1  0
 11 10  1  0
 11 12  1  0
 12  7  1  0
 14 13  2  0
 15 14  1  0
 16 15  2  0
 16 17  1  0
 17 18  2  0
 18 13  1  0
 19 17  1  0
  2 20  1  0
  3 21  1  0
  4 22  1  0
  8 23  1  0
  8 24  1  0
  9 25  1  0
  9 26  1  0
 11 27  1  0
 11 28  1  0
 12 29  1  0
 12 30  1  0
 13 31  1  0
 14 32  1  0
 19 33  1  0
 19 34  1  0
M  ISO  8  20  14  21  14  22  14  23  13  24  13  25  13  26  13  27  13
M  ISO  5  28  13  29  13  30  13  31  14  32  14
M  END
>  <minimizedAffinity>  (1) 
-5.99976444

>  <minimizedRMSD>  (1) 
0.127146333

$$$$
