
     RDKit          3D

 21 22  0  0  0  0  0  0  0  0999 V2000
   38.6440   23.4220   38.4540 C   0  0  0  0  0  0  0  0  0  0  0  0
   38.0860   24.4210   37.6430 C   0  0  0  0  0  0  0  0  0  0  0  0
   38.6560   24.6260   36.3990 C   0  0  0  0  0  0  0  0  0  0  0  0
   39.7080   23.8680   36.0250 N   0  0  0  0  0  0  0  0  0  0  0  0
   40.2380   22.9060   36.8180 C   0  0  0  0  0  0  0  0  0  0  0  0
   39.6890   22.7000   38.0340 N   0  0  0  0  0  0  0  0  0  0  0  0
   41.3420   22.1150   36.4200 N   0  0  0  0  0  0  0  0  0  0  0  0
   38.1140   25.6480   35.5200 C   0  0  0  0  0  0  0  0  0  0  0  0
   38.0710   26.9650   35.9620 C   0  0  0  0  0  0  0  0  0  0  0  0
   37.5380   27.8660   35.0570 C   0  0  0  0  0  0  0  0  0  0  0  0
   37.0800   27.4940   33.8060 C   0  0  0  0  0  0  0  0  0  0  0  0
   37.1480   26.1550   33.4160 C   0  0  0  0  0  0  0  0  0  0  0  0
   37.6680   25.2860   34.3040 N   0  0  0  0  0  0  0  0  0  0  0  0
   38.2165   23.2295   39.4491 H   0  0  0  0  0  0  0  0  0  0  0  0
   37.2276   25.0190   37.9831 H   0  0  0  0  0  0  0  0  0  0  0  0
   41.7141   21.3938   37.0542 H   0  0  0  0  0  0  0  0  0  0  0  0
   41.7734   22.2606   35.4961 H   0  0  0  0  0  0  0  0  0  0  0  0
   38.4331   27.2680   36.9555 H   0  0  0  0  0  0  0  0  0  0  0  0
   37.4758   28.9257   35.3455 H   0  0  0  0  0  0  0  0  0  0  0  0
   36.6645   28.2488   33.1222 H   0  0  0  0  0  0  0  0  0  0  0  0
   36.7931   25.8249   32.4286 H   0  0  0  0  0  0  0  0  0  0  0  0
  2  1  2  0
  3  2  1  0
  4  3  2  0
  4  5  1  0
  5  6  2  0
  6  1  1  0
  7  5  1  0
  8  9  2  0
  8  3  1  0
 10  9  1  0
 11 10  2  0
 12 11  1  0
 12 13  2  0
 13  8  1  0
  1 14  1  0
  2 15  1  0
  7 16  1  0
  7 17  1  0
  9 18  1  0
 10 19  1  0
 11 20  1  0
 12 21  1  0
M  ISO  6  14  14  15  14  18  14  19  14  20  14  21  14
M  END
>  <minimizedAffinity>  (1) 
-4.22682428

>  <minimizedRMSD>  (1) 
4.41722488

$$$$
