
     RDKit          3D

 35 38  0  0  0  0  0  0  0  0999 V2000
   39.3380   25.5130   35.0470 C   0  0  0  0  0  0  0  0  0  0  0  0
   40.6480   25.7960   34.6600 C   0  0  0  0  0  0  0  0  0  0  0  0
   40.7450   26.6350   33.5590 C   0  0  0  0  0  0  0  0  0  0  0  0
   39.6610   27.1540   32.8930 C   0  0  0  0  0  0  0  0  0  0  0  0
   38.3860   26.8310   33.3350 C   0  0  0  0  0  0  0  0  0  0  0  0
   38.2520   26.0120   34.4090 N   0  0  0  0  0  0  0  0  0  0  0  0
   37.8380   24.0390   38.1170 C   0  0  0  0  0  0  0  0  0  0  0  0
   38.0340   24.8900   37.0220 C   0  0  0  0  0  0  0  0  0  0  0  0
   39.1160   24.6480   36.1840 C   0  0  0  0  0  0  0  0  0  0  0  0
   39.9260   23.6140   36.4570 N   0  0  0  0  0  0  0  0  0  0  0  0
   39.7210   22.7950   37.5280 C   0  0  0  0  0  0  0  0  0  0  0  0
   38.6700   23.0290   38.3420 N   0  0  0  0  0  0  0  0  0  0  0  0
   40.5930   21.7030   37.8000 N   0  0  0  0  0  0  0  0  0  0  0  0
   37.2160   27.3670   32.6500 C   0  0  0  0  0  0  0  0  0  0  0  0
   36.8300   27.0630   31.3620 C   0  0  0  0  0  0  0  0  0  0  0  0
   35.7020   27.7590   31.0990 N   0  0  0  0  0  0  0  0  0  0  0  0
   35.3860   28.4890   32.2050 C   0  0  0  0  0  0  0  0  0  0  0  0
   34.3090   29.3570   32.3990 C   0  0  0  0  0  0  0  0  0  0  0  0
   34.1630   30.0100   33.6080 C   0  0  0  0  0  0  0  0  0  0  0  0
   35.1040   29.7830   34.6090 C   0  0  0  0  0  0  0  0  0  0  0  0
   36.1750   28.9150   34.4030 C   0  0  0  0  0  0  0  0  0  0  0  0
   36.3240   28.2620   33.2020 C   0  0  0  0  0  0  0  0  0  0  0  0
   41.5270   25.3897   35.1818 H   0  0  0  0  0  0  0  0  0  0  0  0
   41.7496   26.9004   33.1979 H   0  0  0  0  0  0  0  0  0  0  0  0
   39.8015   27.8142   32.0244 H   0  0  0  0  0  0  0  0  0  0  0  0
   36.9888   24.2086   38.7953 H   0  0  0  0  0  0  0  0  0  0  0  0
   37.3488   25.7288   36.8301 H   0  0  0  0  0  0  0  0  0  0  0  0
   40.4202   21.0964   38.6143 H   0  0  0  0  0  0  0  0  0  0  0  0
   41.3967   21.5195   37.1825 H   0  0  0  0  0  0  0  0  0  0  0  0
   37.3465   26.3782   30.6733 H   0  0  0  0  0  0  0  0  0  0  0  0
   35.1728   27.7408   30.2155 H   0  0  0  0  0  0  0  0  0  0  0  0
   33.5795   29.5202   31.5920 H   0  0  0  0  0  0  0  0  0  0  0  0
   33.3197   30.6959   33.7764 H   0  0  0  0  0  0  0  0  0  0  0  0
   35.0006   30.2962   35.5765 H   0  0  0  0  0  0  0  0  0  0  0  0
   36.9069   28.7510   35.2076 H   0  0  0  0  0  0  0  0  0  0  0  0
  1  9  1  0
  2  1  2  0
  3  2  1  0
  4  5  1  0
  4  3  2  0
  5  6  2  0
  6  1  1  0
  7 12  2  0
  8  7  1  0
  9 10  1  0
  9  8  2  0
 10 11  2  0
 11 13  1  0
 11 12  1  0
 14 22  1  0
 14  5  1  0
 15 14  2  0
 16 15  1  0
 16 17  1  0
 17 18  2  0
 17 22  1  0
 18 19  1  0
 19 20  2  0
 21 20  1  0
 22 21  2  0
  2 23  1  0
  3 24  1  0
  4 25  1  0
  7 26  1  0
  8 27  1  0
 13 28  1  0
 13 29  1  0
 15 30  1  0
 16 31  1  0
 18 32  1  0
 19 33  1  0
 20 34  1  0
 21 35  1  0
M  ISO  8  23  14  24  14  25  14  26  14  27  14  30  14  31   9  32  14
M  ISO  3  33  14  34  14  35  14
M  END
>  <minimizedAffinity>  (1) 
-6.22409582

>  <minimizedRMSD>  (1) 
2.74915361

$$$$
