
     RDKit          3D

 28 30  0  0  0  0  0  0  0  0999 V2000
   38.8500   25.3270   35.2170 C   0  0  0  0  0  0  0  0  0  0  0  0
   39.7650   26.3350   34.9990 C   0  0  0  0  0  0  0  0  0  0  0  0
   39.6490   27.0130   33.7990 C   0  0  0  0  0  0  0  0  0  0  0  0
   38.6910   26.7220   32.8620 C   0  0  0  0  0  0  0  0  0  0  0  0
   37.8100   25.7080   33.1380 C   0  0  0  0  0  0  0  0  0  0  0  0
   37.9050   25.0420   34.2900 N   0  0  0  0  0  0  0  0  0  0  0  0
   38.1340   24.1470   38.6580 C   0  0  0  0  0  0  0  0  0  0  0  0
   38.0470   24.9280   37.4910 C   0  0  0  0  0  0  0  0  0  0  0  0
   38.8920   24.5660   36.4430 C   0  0  0  0  0  0  0  0  0  0  0  0
   39.7330   23.5130   36.5860 N   0  0  0  0  0  0  0  0  0  0  0  0
   39.7890   22.7830   37.7260 C   0  0  0  0  0  0  0  0  0  0  0  0
   38.9730   23.1230   38.7550 N   0  0  0  0  0  0  0  0  0  0  0  0
   40.6630   21.6870   37.8810 N   0  0  0  0  0  0  0  0  0  0  0  0
   36.7400   25.2890   32.2350 C   0  0  0  0  0  0  0  0  0  0  0  0
   36.2060   24.1270   31.7450 C   0  0  0  0  0  0  0  0  0  0  0  0
   35.1550   24.2650   30.8800 C   0  0  0  0  0  0  0  0  0  0  0  0
   34.6540   25.4700   30.5160 C   0  0  0  0  0  0  0  0  0  0  0  0
   35.7350   26.6880   31.4610 S   0  0  0  0  0  0  0  0  0  0  0  0
   40.5419   26.5854   35.7363 H   0  0  0  0  0  0  0  0  0  0  0  0
   40.3597   27.8251   33.5860 H   0  0  0  0  0  0  0  0  0  0  0  0
   38.6311   27.2843   31.9185 H   0  0  0  0  0  0  0  0  0  0  0  0
   37.4884   24.3919   39.5143 H   0  0  0  0  0  0  0  0  0  0  0  0
   37.3515   25.7764   37.4101 H   0  0  0  0  0  0  0  0  0  0  0  0
   40.6742   21.1582   38.7648 H   0  0  0  0  0  0  0  0  0  0  0  0
   41.2901   21.4154   37.1104 H   0  0  0  0  0  0  0  0  0  0  0  0
   36.5992   23.1401   32.0303 H   0  0  0  0  0  0  0  0  0  0  0  0
   34.6963   23.3571   30.4614 H   0  0  0  0  0  0  0  0  0  0  0  0
   33.8183   25.6847   29.8338 H   0  0  0  0  0  0  0  0  0  0  0  0
  1  9  1  0
  2  1  2  0
  3  2  1  0
  4  5  1  0
  4  3  2  0
  5  6  2  0
  6  1  1  0
  7 12  2  0
  8  7  1  0
  9 10  1  0
  9  8  2  0
 10 11  2  0
 11 13  1  0
 11 12  1  0
 14  5  1  0
 15 14  2  0
 16 15  1  0
 17 16  2  0
 17 18  1  0
 18 14  1  0
  2 19  1  0
  3 20  1  0
  4 21  1  0
  7 22  1  0
  8 23  1  0
 13 24  1  0
 13 25  1  0
 15 26  1  0
 16 27  1  0
 17 28  1  0
M  ISO  8  19  14  20  14  21  14  22  14  23  14  26  14  27  14  28  14
M  END
>  <minimizedAffinity>  (1) 
-5.54920626

>  <minimizedRMSD>  (1) 
1.22928131

$$$$
