
     RDKit          3D

 31 33  0  0  0  0  0  0  0  0999 V2000
   38.8670   25.3690   35.2640 C   0  0  0  0  0  0  0  0  0  0  0  0
   39.8590   26.3370   35.1050 C   0  0  0  0  0  0  0  0  0  0  0  0
   39.7720   27.0430   33.9090 C   0  0  0  0  0  0  0  0  0  0  0  0
   38.7830   26.8050   32.9550 C   0  0  0  0  0  0  0  0  0  0  0  0
   37.8280   25.8280   33.1780 C   0  0  0  0  0  0  0  0  0  0  0  0
   37.9340   25.1630   34.3360 N   0  0  0  0  0  0  0  0  0  0  0  0
   38.0640   24.0700   38.6540 C   0  0  0  0  0  0  0  0  0  0  0  0
   38.0180   24.8620   37.5080 C   0  0  0  0  0  0  0  0  0  0  0  0
   38.8730   24.5770   36.4730 C   0  0  0  0  0  0  0  0  0  0  0  0
   39.7310   23.5310   36.6120 N   0  0  0  0  0  0  0  0  0  0  0  0
   39.7730   22.7650   37.7270 C   0  0  0  0  0  0  0  0  0  0  0  0
   38.9230   23.0610   38.7380 N   0  0  0  0  0  0  0  0  0  0  0  0
   40.6750   21.6750   37.8560 N   0  0  0  0  0  0  0  0  0  0  0  0
   36.7520   25.4940   32.2570 C   0  0  0  0  0  0  0  0  0  0  0  0
   36.5220   24.1700   31.9940 C   0  0  0  0  0  0  0  0  0  0  0  0
   35.5370   23.7240   31.1430 C   0  0  0  0  0  0  0  0  0  0  0  0
   34.7550   24.6850   30.5350 C   0  0  0  0  0  0  0  0  0  0  0  0
   34.9560   26.0390   30.7760 C   0  0  0  0  0  0  0  0  0  0  0  0
   35.9650   26.4370   31.6450 C   0  0  0  0  0  0  0  0  0  0  0  0
   40.6394   26.5251   35.8571 H   0  0  0  0  0  0  0  0  0  0  0  0
   40.5182   27.8254   33.7066 H   0  0  0  0  0  0  0  0  0  0  0  0
   38.7618   27.3933   32.0258 H   0  0  0  0  0  0  0  0  0  0  0  0
   37.3851   24.2819   39.4932 H   0  0  0  0  0  0  0  0  0  0  0  0
   37.3094   25.7001   37.4345 H   0  0  0  0  0  0  0  0  0  0  0  0
   40.6818   21.1114   38.7181 H   0  0  0  0  0  0  0  0  0  0  0  0
   41.3222   21.4483   37.0874 H   0  0  0  0  0  0  0  0  0  0  0  0
   37.1590   23.4227   32.4897 H   0  0  0  0  0  0  0  0  0  0  0  0
   35.3801   22.6514   30.9560 H   0  0  0  0  0  0  0  0  0  0  0  0
   33.9565   24.3731   29.8457 H   0  0  0  0  0  0  0  0  0  0  0  0
   34.3213   26.7899   30.2827 H   0  0  0  0  0  0  0  0  0  0  0  0
   36.1325   27.5062   31.8419 H   0  0  0  0  0  0  0  0  0  0  0  0
  1  9  1  0
  2  1  2  0
  3  2  1  0
  4  5  1  0
  4  3  2  0
  5  6  2  0
  6  1  1  0
  7 12  2  0
  8  7  1  0
  9 10  1  0
  9  8  2  0
 10 11  2  0
 11 13  1  0
 11 12  1  0
 14  5  1  0
 15 14  2  0
 16 15  1  0
 17 18  1  0
 17 16  2  0
 18 19  2  0
 19 14  1  0
  2 20  1  0
  3 21  1  0
  4 22  1  0
  7 23  1  0
  8 24  1  0
 13 25  1  0
 13 26  1  0
 15 27  1  0
 16 28  1  0
 17 29  1  0
 18 30  1  0
 19 31  1  0
M  ISO  8  20  14  21  14  22  14  23  14  24  14  27  14  28  14  29  14
M  ISO  2  30  14  31  14
M  END
>  <minimizedAffinity>  (1) 
-5.62697554

>  <minimizedRMSD>  (1) 
1.21260929

$$$$
