
     RDKit          3D

 15 15  0  0  0  0  0  0  0  0999 V2000
   38.1690   24.0250   36.9850 C   0  0  0  0  0  0  0  0  0  0  0  0
   38.2940   22.9560   36.1000 C   0  0  0  0  0  0  0  0  0  0  0  0
   38.2050   23.2230   34.7230 C   0  0  0  0  0  0  0  0  0  0  0  0
   38.0010   24.5100   34.3380 N   0  0  0  0  0  0  0  0  0  0  0  0
   37.8850   25.5220   35.2200 C   0  0  0  0  0  0  0  0  0  0  0  0
   37.9670   25.2860   36.5380 N   0  0  0  0  0  0  0  0  0  0  0  0
   38.2580   23.7860   38.4680 C   0  0  0  0  0  0  0  0  0  0  0  0
   39.5250   23.3580   38.8330 F   0  0  0  0  0  0  0  0  0  0  0  0
   38.0010   24.9540   39.1530 F   0  0  0  0  0  0  0  0  0  0  0  0
   37.3020   22.8310   38.8060 F   0  0  0  0  0  0  0  0  0  0  0  0
   37.6690   26.8750   34.7450 C   0  0  0  0  0  0  0  0  0  0  0  0
   37.8930   27.7920   35.5850 O   0  0  0  0  0  0  0  0  0  0  0  0
   38.4576   21.9326   36.4685 H   0  0  0  0  0  0  0  0  0  0  0  0
   38.2975   22.4162   33.9810 H   0  0  0  0  0  0  0  0  0  0  0  0
   37.3320   27.0891   33.7200 H   0  0  0  0  0  0  0  0  0  0  0  0
  1  7  1  0
  2  1  2  0
  3  2  1  0
  4  3  2  0
  4  5  1  0
  5  6  2  0
  6  1  1  0
  7 10  1  0
  7  8  1  0
  7  9  1  0
 11  5  1  0
 11 12  2  0
  2 13  1  0
  3 14  1  0
 11 15  1  0
M  ISO  3  13  14  14  14  15   6
M  END
>  <minimizedAffinity>  (1) 
-4.11270237

>  <minimizedRMSD>  (1) 
0.199813426

$$$$
