
     RDKit          3D

 30 32  0  0  0  0  0  0  0  0999 V2000
   38.9890   25.3610   35.2280 C   0  0  0  0  0  0  0  0  0  0  0  0
   40.0100   26.2830   35.0400 C   0  0  0  0  0  0  0  0  0  0  0  0
   39.9630   27.0230   33.8820 C   0  0  0  0  0  0  0  0  0  0  0  0
   38.9420   26.8500   32.9520 C   0  0  0  0  0  0  0  0  0  0  0  0
   37.9420   25.9180   33.1820 C   0  0  0  0  0  0  0  0  0  0  0  0
   38.0130   25.2100   34.3200 N   0  0  0  0  0  0  0  0  0  0  0  0
   38.0790   24.0270   38.5760 C   0  0  0  0  0  0  0  0  0  0  0  0
   38.0620   24.8390   37.4360 C   0  0  0  0  0  0  0  0  0  0  0  0
   38.9740   24.5470   36.4240 C   0  0  0  0  0  0  0  0  0  0  0  0
   39.8130   23.5170   36.5890 N   0  0  0  0  0  0  0  0  0  0  0  0
   39.8300   22.7350   37.6870 C   0  0  0  0  0  0  0  0  0  0  0  0
   38.9520   23.0090   38.6720 N   0  0  0  0  0  0  0  0  0  0  0  0
   40.7120   21.6550   37.8570 N   0  0  0  0  0  0  0  0  0  0  0  0
   36.8230   25.6500   32.2800 C   0  0  0  0  0  0  0  0  0  0  0  0
   36.4630   24.3760   31.8910 C   0  0  0  0  0  0  0  0  0  0  0  0
   35.4210   24.0720   31.0470 C   0  0  0  0  0  0  0  0  0  0  0  0
   34.6640   25.1120   30.5400 C   0  0  0  0  0  0  0  0  0  0  0  0
   35.0390   26.3790   30.9410 C   0  0  0  0  0  0  0  0  0  0  0  0
   36.0630   26.6580   31.7680 N   0  0  0  0  0  0  0  0  0  0  0  0
   40.8143   26.4146   35.7787 H   0  0  0  0  0  0  0  0  0  0  0  0
   40.7489   27.7674   33.6865 H   0  0  0  0  0  0  0  0  0  0  0  0
   38.9286   27.4540   32.0328 H   0  0  0  0  0  0  0  0  0  0  0  0
   37.3744   24.2228   39.3977 H   0  0  0  0  0  0  0  0  0  0  0  0
   37.3549   25.6765   37.3426 H   0  0  0  0  0  0  0  0  0  0  0  0
   40.6776   21.0928   38.7194 H   0  0  0  0  0  0  0  0  0  0  0  0
   41.3931   21.4253   37.1193 H   0  0  0  0  0  0  0  0  0  0  0  0
   37.0558   23.5383   32.2870 H   0  0  0  0  0  0  0  0  0  0  0  0
   35.1955   23.0285   30.7820 H   0  0  0  0  0  0  0  0  0  0  0  0
   33.8164   24.9409   29.8600 H   0  0  0  0  0  0  0  0  0  0  0  0
   34.4547   27.2268   30.5539 H   0  0  0  0  0  0  0  0  0  0  0  0
  1  9  1  0
  2  1  2  0
  3  2  1  0
  4  5  1  0
  4  3  2  0
  5  6  2  0
  6  1  1  0
  7 12  2  0
  8  7  1  0
  9 10  1  0
  9  8  2  0
 10 11  2  0
 11 13  1  0
 11 12  1  0
 14  5  1  0
 15 14  2  0
 16 15  1  0
 17 18  1  0
 17 16  2  0
 18 19  2  0
 19 14  1  0
  2 20  1  0
  3 21  1  0
  4 22  1  0
  7 23  1  0
  8 24  1  0
 13 25  1  0
 13 26  1  0
 15 27  1  0
 16 28  1  0
 17 29  1  0
 18 30  1  0
M  ISO  8  20  14  21  14  22  14  23  14  24  14  27  14  28  14  29  14
M  ISO  1  30  14
M  END
>  <minimizedAffinity>  (1) 
-5.64992332

>  <minimizedRMSD>  (1) 
1.43606615

$$$$
