
     RDKit          3D

 35 37  0  0  0  0  0  0  0  0999 V2000
   38.1660   25.6460   35.9310 C   0  0  0  0  0  0  0  0  0  0  0  0
   38.3530   27.0150   36.1210 C   0  0  0  0  0  0  0  0  0  0  0  0
   38.0250   27.8120   35.0360 C   0  0  0  0  0  0  0  0  0  0  0  0
   37.5500   27.3100   33.8500 C   0  0  0  0  0  0  0  0  0  0  0  0
   37.3860   25.9390   33.7210 C   0  0  0  0  0  0  0  0  0  0  0  0
   37.6990   25.1440   34.7660 N   0  0  0  0  0  0  0  0  0  0  0  0
   36.8960   25.3990   32.5000 N   0  0  0  0  0  0  0  0  0  0  0  0
   37.3130   24.0700   32.1010 C   0  0  0  0  0  0  0  0  0  0  0  0
   36.7380   23.7420   30.7380 C   0  0  0  0  0  0  0  0  0  0  0  0
   35.3380   24.0210   30.6500 N   0  0  0  0  0  0  0  0  0  0  0  0
   34.9480   25.3530   30.9810 C   0  0  0  0  0  0  0  0  0  0  0  0
   35.9910   26.1740   31.6730 C   0  0  0  0  0  0  0  0  0  0  0  0
   38.2360   24.0080   39.2610 C   0  0  0  0  0  0  0  0  0  0  0  0
   37.9030   24.9220   38.2470 C   0  0  0  0  0  0  0  0  0  0  0  0
   38.4790   24.7330   37.0050 C   0  0  0  0  0  0  0  0  0  0  0  0
   39.3170   23.7000   36.8310 N   0  0  0  0  0  0  0  0  0  0  0  0
   39.6340   22.8240   37.8120 C   0  0  0  0  0  0  0  0  0  0  0  0
   39.0740   23.0040   39.0290 N   0  0  0  0  0  0  0  0  0  0  0  0
   40.5260   21.7400   37.5960 N   0  0  0  0  0  0  0  0  0  0  0  0
   38.7337   27.4323   37.0649 H   0  0  0  0  0  0  0  0  0  0  0  0
   38.1515   28.9007   35.1297 H   0  0  0  0  0  0  0  0  0  0  0  0
   37.3036   27.9837   33.0161 H   0  0  0  0  0  0  0  0  0  0  0  0
   38.4113   24.0301   32.0538 H   0  0  0  0  0  0  0  0  0  0  0  0
   36.9481   23.3376   32.8362 H   0  0  0  0  0  0  0  0  0  0  0  0
   37.2648   24.3404   29.9801 H   0  0  0  0  0  0  0  0  0  0  0  0
   36.8740   22.6635   30.5698 H   0  0  0  0  0  0  0  0  0  0  0  0
   35.0391   23.8356   29.6819 H   0  0  0  0  0  0  0  0  0  0  0  0
   34.6741   25.8681   30.0485 H   0  0  0  0  0  0  0  0  0  0  0  0
   34.1156   25.2569   31.6937 H   0  0  0  0  0  0  0  0  0  0  0  0
   36.5833   26.6976   30.9082 H   0  0  0  0  0  0  0  0  0  0  0  0
   35.4598   26.8661   32.3430 H   0  0  0  0  0  0  0  0  0  0  0  0
   37.7959   24.1258   40.2622 H   0  0  0  0  0  0  0  0  0  0  0  0
   37.2105   25.7558   38.4345 H   0  0  0  0  0  0  0  0  0  0  0  0
   40.7450   21.0920   38.3661 H   0  0  0  0  0  0  0  0  0  0  0  0
   40.9539   21.6019   36.6693 H   0  0  0  0  0  0  0  0  0  0  0  0
  1  2  2  0
  1 15  1  0
  3  2  1  0
  4  3  2  0
  5  4  1  0
  5  6  2  0
  6  1  1  0
  7  5  1  0
  8  7  1  0
  9  8  1  0
 10  9  1  0
 10 11  1  0
 11 12  1  0
 12  7  1  0
 14 13  2  0
 15 14  1  0
 16 15  2  0
 16 17  1  0
 17 18  2  0
 18 13  1  0
 19 17  1  0
  2 20  1  0
  3 21  1  0
  4 22  1  0
  8 23  1  0
  8 24  1  0
  9 25  1  0
  9 26  1  0
 10 27  1  0
 11 28  1  0
 11 29  1  0
 12 30  1  0
 12 31  1  0
 13 32  1  0
 14 33  1  0
 19 34  1  0
 19 35  1  0
M  ISO  8  20  14  21  14  22  14  23  13  24  13  25  13  26  13  27   5
M  ISO  6  28  13  29  13  30  13  31  13  32  14  33  14
M  END
>  <minimizedAffinity>  (1) 
-5.41114426

>  <minimizedRMSD>  (1) 
0.800464869

$$$$
