
     RDKit          3D

 30 31  0  0  0  0  0  0  0  0999 V2000
   37.9660   25.3640   35.1290 C   0  0  0  0  0  0  0  0  0  0  0  0
   37.7730   26.7060   35.3790 C   0  0  0  0  0  0  0  0  0  0  0  0
   37.2520   27.4660   34.3570 C   0  0  0  0  0  0  0  0  0  0  0  0
   36.9330   26.9000   33.1230 C   0  0  0  0  0  0  0  0  0  0  0  0
   37.1430   25.5310   32.9070 C   0  0  0  0  0  0  0  0  0  0  0  0
   37.6520   24.8510   33.9390 N   0  0  0  0  0  0  0  0  0  0  0  0
   38.4930   23.6600   38.3790 C   0  0  0  0  0  0  0  0  0  0  0  0
   37.9300   24.5120   37.4200 C   0  0  0  0  0  0  0  0  0  0  0  0
   38.5100   24.5030   36.1570 C   0  0  0  0  0  0  0  0  0  0  0  0
   39.5630   23.6990   35.9080 N   0  0  0  0  0  0  0  0  0  0  0  0
   40.0830   22.8840   36.8630 C   0  0  0  0  0  0  0  0  0  0  0  0
   39.5330   22.8790   38.0950 N   0  0  0  0  0  0  0  0  0  0  0  0
   41.1950   22.0390   36.5820 N   0  0  0  0  0  0  0  0  0  0  0  0
   36.8440   24.8220   31.6460 C   0  0  0  0  0  0  0  0  0  0  0  0
   36.6240   23.3500   31.9540 C   0  0  0  0  0  0  0  0  0  0  0  0
   35.5160   25.3600   31.1390 C   0  0  0  0  0  0  0  0  0  0  0  0
   38.0246   27.1501   36.3534 H   0  0  0  0  0  0  0  0  0  0  0  0
   37.0838   28.5413   34.5165 H   0  0  0  0  0  0  0  0  0  0  0  0
   36.5172   27.5269   32.3204 H   0  0  0  0  0  0  0  0  0  0  0  0
   38.0650   23.6357   39.3920 H   0  0  0  0  0  0  0  0  0  0  0  0
   37.0705   25.1569   37.6552 H   0  0  0  0  0  0  0  0  0  0  0  0
   41.5762   21.4276   37.3181 H   0  0  0  0  0  0  0  0  0  0  0  0
   41.6178   22.0394   35.6428 H   0  0  0  0  0  0  0  0  0  0  0  0
   37.6613   24.9568   30.9222 H   0  0  0  0  0  0  0  0  0  0  0  0
   36.6020   23.2027   33.0439 H   0  0  0  0  0  0  0  0  0  0  0  0
   35.6671   23.0237   31.5205 H   0  0  0  0  0  0  0  0  0  0  0  0
   37.4437   22.7582   31.5205 H   0  0  0  0  0  0  0  0  0  0  0  0
   34.8750   25.6197   31.9944 H   0  0  0  0  0  0  0  0  0  0  0  0
   35.6932   26.2573   30.5278 H   0  0  0  0  0  0  0  0  0  0  0  0
   35.0187   24.5924   30.5278 H   0  0  0  0  0  0  0  0  0  0  0  0
  1  2  2  0
  1  9  1  0
  3  2  1  0
  4  3  2  0
  5  4  1  0
  5  6  2  0
  6  1  1  0
  8  7  2  0
  9  8  1  0
 10  9  2  0
 10 11  1  0
 11 12  2  0
 12  7  1  0
 13 11  1  0
 14 15  1  0
 14  5  1  0
 16 14  1  0
  2 17  1  0
  3 18  1  0
  4 19  1  0
  7 20  1  0
  8 21  1  0
 13 22  1  0
 13 23  1  0
 14 24  1  0
 15 25  1  0
 15 26  1  0
 15 27  1  0
 16 28  1  0
 16 29  1  0
 16 30  1  0
M  ISO  8  17  14  18  14  19  14  20  14  21  14  24   8  25   8  26   8
M  ISO  4  27   8  28   8  29   8  30   8
M  END
>  <minimizedAffinity>  (1) 
-4.77967644

>  <minimizedRMSD>  (1) 
0.865506113

$$$$
