
     RDKit          3D

 14 14  0  0  0  0  0  0  0  0999 V2000
   38.1850   23.9910   36.9770 C   0  0  0  0  0  0  0  0  0  0  0  0
   38.3960   22.8930   36.1290 C   0  0  0  0  0  0  0  0  0  0  0  0
   38.3420   23.0940   34.7450 C   0  0  0  0  0  0  0  0  0  0  0  0
   38.0860   24.3440   34.3110 N   0  0  0  0  0  0  0  0  0  0  0  0
   37.8850   25.3890   35.1480 C   0  0  0  0  0  0  0  0  0  0  0  0
   37.9330   25.2150   36.4880 N   0  0  0  0  0  0  0  0  0  0  0  0
   38.2430   23.7800   38.4650 C   0  0  0  0  0  0  0  0  0  0  0  0
   39.5160   23.3850   38.8630 F   0  0  0  0  0  0  0  0  0  0  0  0
   37.9740   24.9810   39.1000 F   0  0  0  0  0  0  0  0  0  0  0  0
   37.3120   22.8310   38.8320 F   0  0  0  0  0  0  0  0  0  0  0  0
   37.5490   27.0230   34.5030 S   0  0  0  0  0  0  0  0  0  0  0  0
   38.5997   21.8947   36.5436 H   0  0  0  0  0  0  0  0  0  0  0  0
   38.5021   22.2651   34.0398 H   0  0  0  0  0  0  0  0  0  0  0  0
   37.3694   27.8965   35.5430 H   0  0  0  0  0  0  0  0  0  0  0  0
  1  7  1  0
  2  1  2  0
  3  2  1  0
  4  3  2  0
  4  5  1  0
  5  6  2  0
  6  1  1  0
  7 10  1  0
  7  8  1  0
  7  9  1  0
 11  5  1  0
  2 12  1  0
  3 13  1  0
 11 14  1  0
M  ISO  3  12  14  13  14  14  11
M  END
>  <minimizedAffinity>  (1) 
-4.00518417

>  <minimizedRMSD>  (1) 
0.112486504

$$$$
